
  -OEChem-04052304143D

 86 94  0     1  0  0  0  0  0999 V2000
  -16.7960  -29.2828   24.5461 C   0  0  0  0  0  0  0  0  0  0  0  0
  -17.8278  -28.3506   24.5881 C   0  0  0  0  0  0  0  0  0  0  0  0
  -23.0229   -9.8087   19.9850 C   0  0  0  0  0  0  0  0  0  0  0  0
  -23.6598   -9.9740   22.3097 C   0  0  0  0  0  0  0  0  0  0  0  0
  -16.7989  -30.2808   23.5726 C   0  0  0  0  0  0  0  0  0  0  0  0
  -18.8626  -28.4152   23.6557 C   0  0  0  0  0  0  0  0  0  0  0  0
  -24.7517  -27.0175   24.5890 C   0  0  0  0  0  0  0  0  0  0  0  0
  -22.2463   -8.6876   20.2775 C   0  0  0  0  0  0  0  0  0  0  0  0
  -22.8832   -8.8529   22.6022 C   0  0  0  0  0  0  0  0  0  0  0  0
  -25.4996  -25.8739   24.3123 C   0  0  0  0  0  0  0  0  0  0  0  0
  -23.1437   -5.4952   22.3049 C   0  0  0  0  0  0  0  0  0  0  0  0
  -23.7017   -4.5170   23.1280 C   0  0  0  0  0  0  0  0  0  0  0  0
  -31.7170  -18.4660   24.0845 C   0  0  0  0  0  0  0  0  0  0  0  0
  -26.2519  -26.8724   22.2492 C   0  0  0  0  0  0  0  0  0  0  0  0
  -31.9784  -16.5954   22.5781 C   0  0  0  0  0  0  0  0  0  0  0  0
  -21.9154   -4.8397   24.7224 C   0  0  0  0  0  0  0  0  0  0  0  0
  -23.7298  -10.4519   21.0011 C   0  0  0  0  0  0  0  0  0  0  0  0
  -30.3412  -18.4584   23.8553 C   0  0  0  0  0  0  0  0  0  0  0  0
  -24.1227  -12.9563   20.7163 C   0  0  0  0  0  0  0  0  0  0  0  0
  -17.8393  -30.3636   22.6338 C   0  0  0  0  0  0  0  0  0  0  0  0
  -24.7397  -28.0946   23.6911 C   0  0  0  0  0  0  0  0  0  0  0  0
  -18.8788  -29.4145   22.6678 C   0  0  0  0  0  0  0  0  0  0  0  0
  -25.5051  -28.0296   22.5181 C   0  0  0  0  0  0  0  0  0  0  0  0
  -30.6025  -16.5877   22.3489 C   0  0  0  0  0  0  0  0  0  0  0  0
  -22.1764   -8.2097   21.5861 C   0  0  0  0  0  0  0  0  0  0  0  0
  -26.2475  -25.8000   23.1409 C   0  0  0  0  0  0  0  0  0  0  0  0
  -21.9716   -6.1456   22.6906 C   0  0  0  0  0  0  0  0  0  0  0  0
  -23.0875   -4.1893   24.3367 C   0  0  0  0  0  0  0  0  0  0  0  0
  -32.5357  -17.5345   23.4459 C   0  0  0  0  0  0  0  0  0  0  0  0
  -21.3574   -5.8179   23.8993 C   0  0  0  0  0  0  0  0  0  0  0  0
  -29.7839  -17.5192   22.9875 C   0  0  0  0  0  0  0  0  0  0  0  0
  -24.5327  -11.6097   20.6995 C   0  0  0  0  0  0  0  0  0  0  0  0
  -25.2458  -13.6616   20.3592 C   0  0  0  0  0  0  0  0  0  0  0  0
  -29.4774  -19.4456   24.5335 C   0  0  0  0  0  0  0  0  0  0  0  0
  -22.8412  -13.5193   21.0269 C   0  0  0  0  0  0  0  0  0  0  0  0
  -22.5034  -29.5495   21.9631 C   0  0  0  0  0  0  0  0  0  0  0  0
  -27.8105  -22.4709   23.3933 C   0  0  0  0  0  0  0  0  0  0  0  0
  -24.9215  -31.5986   21.2731 C   0  0  0  0  0  0  0  0  0  0  0  0
  -28.2828  -32.1355   21.0270 C   0  0  0  0  0  0  0  0  0  0  0  0
  -30.7129  -14.6408   20.7540 C   0  0  0  0  0  0  0  0  0  0  0  0
  -17.7746  -31.4315   21.5708 C   0  0  0  0  0  0  0  0  0  0  0  0
  -23.9489  -29.3319   24.0171 C   0  0  0  0  0  0  0  0  0  0  0  0
  -25.5421  -29.1668   21.5313 C   0  0  0  0  0  0  0  0  0  0  0  0
  -19.1025  -31.6571   20.8524 C   0  0  0  0  0  0  0  0  0  0  0  0
  -29.6828  -12.0748   18.5107 C   0  0  0  0  0  0  0  0  0  0  0  0
  -19.7273  -30.3236   20.4544 C   0  0  0  0  0  0  0  0  0  0  0  0
  -28.2174  -11.8358   18.8816 C   0  0  0  0  0  0  0  0  0  0  0  0
  -30.5367  -12.3787   19.7405 C   0  0  0  0  0  0  0  0  0  0  0  0
  -28.5724  -13.2296   20.9597 C   0  0  0  0  0  0  0  0  0  0  0  0
  -20.0318  -29.4667   21.6891 C   0  0  1  0  0  0  0  0  0  0  0  0
  -23.6025  -30.1616   22.7846 C   0  0  1  0  0  0  0  0  0  0  0  0
  -27.6606  -12.9836   19.7465 C   0  0  2  0  0  0  0  0  0  0  0  0
  -29.9554  -33.8987   20.4020 C   0  0  0  0  0  0  0  0  0  0  0  0
  -24.3105  -31.1283   18.3209 C   0  0  0  0  0  0  0  0  0  0  0  0
  -26.5439  -32.1180   17.7728 C   0  0  0  0  0  0  0  0  0  0  0  0
  -24.8141  -33.5045   18.9164 C   0  0  0  0  0  0  0  0  0  0  0  0
  -29.4787  -32.1252   23.7341 C   0  0  0  0  0  0  0  0  0  0  0  0
  -27.8547  -21.2962   24.3350 C   0  0  0  0  0  0  0  0  0  0  0  0
  -26.9320  -23.6279   23.8259 C   0  0  0  0  0  0  0  0  0  1  0  0
  -25.9874  -31.6741   20.2067 C   0  0  1  0  0  0  0  0  0  0  0  0
  -29.1623  -33.2642   21.5338 C   0  0  2  0  0  0  0  0  0  0  0  0
  -25.4120  -32.0839   18.8217 C   0  0  0  0  0  0  0  0  0  0  0  0
  -25.8160  -11.4656   20.3586 N   0  0  0  0  0  0  0  0  0  0  0  0
  -26.2222  -12.7308   20.1578 N   0  0  0  0  0  0  0  0  0  0  0  0
  -24.7473  -30.3525   21.8918 N   0  0  0  0  0  0  0  0  0  0  0  0
  -29.9505  -13.4791   20.5088 N   0  0  0  0  0  0  0  0  0  0  0  0
  -25.4837  -14.9810   20.2010 N   0  0  0  0  0  0  0  0  0  0  0  0
  -21.7966  -12.6517   21.3740 N   0  0  0  0  0  0  0  0  0  0  0  0
  -30.0396  -15.6326   21.4665 N   0  0  0  0  0  0  0  0  0  0  0  0
  -28.7525  -20.2951   23.7840 N   0  0  0  0  0  0  0  0  0  0  0  0
  -21.2331  -29.9356   22.3460 N   0  0  0  0  0  0  0  0  0  0  0  0
  -27.0133  -32.5765   20.7182 N   0  0  0  0  0  0  0  0  0  0  0  0
  -29.4571  -19.4519   25.8665 N   0  3  0  0  0  0  0  0  0  0  0  0
  -30.1231  -32.7546   22.5528 N   0  3  0  0  0  0  0  0  0  0  0  0
  -22.6243  -14.7540   20.9815 O   0  0  0  0  0  0  0  0  0  0  0  0
  -22.7870  -28.7847   21.0485 O   0  0  0  0  0  0  0  0  0  0  0  0
  -28.4435  -22.4972   22.3387 O   0  0  0  0  0  0  0  0  0  0  0  0
  -24.2725  -32.6098   21.5521 O   0  0  0  0  0  0  0  0  0  0  0  0
  -28.6830  -30.9791   20.9126 O   0  0  0  0  0  0  0  0  0  0  0  0
  -31.8681  -14.7588   20.3373 O   0  0  0  0  0  0  0  0  0  0  0  0
  -21.4184   -7.1159   21.8720 O   0  0  0  0  0  0  0  0  0  0  0  0
  -26.9778  -24.6846   22.8680 O   0  0  0  0  0  0  0  0  0  1  0  0
  -23.6227   -3.2489   25.1263 F   0  0  0  0  0  0  0  0  0  0  0  0
  -33.8567  -17.5418   23.6662 F   0  0  0  0  0  0  0  0  0  0  0  0
  -20.2305   -6.4385   24.2746 F   0  0  0  0  0  0  0  0  0  0  0  0
  -28.4604  -17.5133   22.7677 F   0  0  0  0  0  0  0  0  0  0  0  0
  1  2  1  0  0  0  0
  1  5  2  0  0  0  0
  2  6  2  0  0  0  0
  3  8  2  0  0  0  0
  3 17  1  0  0  0  0
  4  9  1  0  0  0  0
  4 17  2  0  0  0  0
  5 20  1  0  0  0  0
  6 22  1  0  0  0  0
  7 10  2  0  0  0  0
  7 21  1  0  0  0  0
  8 25  1  0  0  0  0
  9 25  2  0  0  0  0
 10 26  1  0  0  0  0
 11 12  2  0  0  0  0
 11 27  1  0  0  0  0
 12 28  1  0  0  0  0
 13 18  1  0  0  0  0
 13 29  2  0  0  0  0
 14 23  1  0  0  0  0
 14 26  2  0  0  0  0
 15 24  2  0  0  0  0
 15 29  1  0  0  0  0
 16 28  2  0  0  0  0
 16 30  1  0  0  0  0
 17 32  1  0  0  0  0
 18 31  2  0  0  0  0
 18 34  1  0  0  0  0
 19 32  1  0  0  0  0
 19 33  2  0  0  0  0
 19 35  1  0  0  0  0
 20 22  2  0  0  0  0
 20 41  1  0  0  0  0
 21 23  2  0  0  0  0
 21 42  1  0  0  0  0
 22 50  1  0  0  0  0
 23 43  1  0  0  0  0
 24 31  1  0  0  0  0
 24 69  1  0  0  0  0
 25 81  1  0  0  0  0
 26 82  1  0  0  0  0
 27 30  2  0  0  0  0
 27 81  1  0  0  0  0
 28 83  1  0  0  0  0
 29 84  1  0  0  0  0
 30 85  1  0  0  0  0
 31 86  1  0  0  0  0
 32 63  2  0  0  0  0
 33 64  1  0  0  0  0
 33 67  1  0  0  0  0
 34 70  1  0  0  0  0
 34 73  2  0  0  0  0
 35 68  1  0  0  0  0
 35 75  2  0  0  0  0
 36 51  1  0  0  0  0
 36 71  1  0  0  0  0
 36 76  2  0  0  0  0
 37 58  1  0  0  0  0
 37 59  1  0  0  0  0
 37 77  2  0  0  0  0
 38 60  1  0  0  0  0
 38 65  1  0  0  0  0
 38 78  2  0  0  0  0
 39 61  1  0  0  0  0
 39 72  1  0  0  0  0
 39 79  2  0  0  0  0
 40 66  1  0  0  0  0
 40 69  1  0  0  0  0
 40 80  2  0  0  0  0
 41 44  1  0  0  0  0
 42 51  1  0  0  0  0
 43 65  1  0  0  0  0
 44 46  1  0  0  0  0
 45 47  1  0  0  0  0
 45 48  1  0  0  0  0
 46 50  1  0  0  0  0
 47 52  1  0  0  0  0
 48 66  1  0  0  0  0
 49 52  1  0  0  0  0
 49 66  1  0  0  0  0
 50 71  1  0  0  0  0
 51 65  1  0  0  0  0
 52 64  1  0  0  0  0
 53 61  1  0  0  0  0
 54 62  1  0  0  0  0
 55 62  1  0  0  0  0
 56 62  1  0  0  0  0
 57 74  1  0  0  0  0
 58 70  1  0  0  0  0
 59 82  1  0  0  0  0
 60 62  1  0  0  0  0
 60 72  1  0  0  0  0
 61 74  1  0  0  0  0
 63 64  1  0  0  0  0
M  CHG  2  73   1  74   1
M  ISO  4  40 100  59 101  69 100  82 101
M  END
> <Batch ID>
0168

> <Smiles>
CNC(C)C(=O)NC(C(=O)N1Cc2cc([101O:1][101CH2:1]C(=O)CNC(=N)c3cc(F)cc([100NH:0][100C:0](=O)N4CCCC(n5nc(-c6ccc(Oc7ccc(F)cc7F)cc6)c(C(N)=O)c5N)C4)c3F)ccc2CC1C(=O)NC1CCCc2ccccc21)C(C)(C)C

> <Shape>
0.280

> <Color>
0.229

> <Negative vol penalty>
0.000

$$$$

  -OEChem-04052304143D

 86 94  0     1  0  0  0  0  0999 V2000
  -29.3311  -34.3508   25.8284 C   0  0  0  0  0  0  0  0  0  0  0  0
  -29.5450  -33.2956   24.9474 C   0  0  0  0  0  0  0  0  0  0  0  0
  -19.4012  -16.8489   26.2547 C   0  0  0  0  0  0  0  0  0  0  0  0
  -21.0058  -18.5193   25.5677 C   0  0  0  0  0  0  0  0  0  0  0  0
  -28.1477  -34.4152   26.5628 C   0  0  0  0  0  0  0  0  0  0  0  0
  -28.5761  -32.3036   24.8011 C   0  0  0  0  0  0  0  0  0  0  0  0
  -27.1616  -29.2666   19.6745 C   0  0  0  0  0  0  0  0  0  0  0  0
  -27.7981  -14.4850   20.3357 C   0  0  0  0  0  0  0  0  0  0  0  0
  -29.1113  -14.9332   20.1943 C   0  0  0  0  0  0  0  0  0  0  0  0
  -19.3837  -17.3936   27.5386 C   0  0  0  0  0  0  0  0  0  0  0  0
  -20.9884  -19.0641   26.8517 C   0  0  0  0  0  0  0  0  0  0  0  0
  -27.5314  -28.0104   19.1961 C   0  0  0  0  0  0  0  0  0  0  0  0
  -18.9855  -21.0908   28.6687 C   0  0  0  0  0  0  0  0  0  0  0  0
  -18.9037  -22.4786   28.7811 C   0  0  0  0  0  0  0  0  0  0  0  0
  -25.4969  -27.0760   20.0946 C   0  0  0  0  0  0  0  0  0  0  0  0
  -27.0219  -16.7725   20.3789 C   0  0  0  0  0  0  0  0  0  0  0  0
  -21.0114  -22.5072   29.9618 C   0  0  0  0  0  0  0  0  0  0  0  0
  -20.2123  -17.4117   25.2692 C   0  0  0  0  0  0  0  0  0  0  0  0
  -19.4034  -17.1988   22.8592 C   0  0  0  0  0  0  0  0  0  0  0  0
  -27.1596  -33.4286   26.4182 C   0  0  0  0  0  0  0  0  0  0  0  0
  -25.9598  -29.4352   20.3771 C   0  0  0  0  0  0  0  0  0  0  0  0
  -27.3789  -32.3541   25.5352 C   0  0  0  0  0  0  0  0  0  0  0  0
  -25.1129  -28.3360   20.5786 C   0  0  0  0  0  0  0  0  0  0  0  0
  -26.7533  -15.4046   20.4280 C   0  0  0  0  0  0  0  0  0  0  0  0
  -29.3799  -16.3011   20.1453 C   0  0  0  0  0  0  0  0  0  0  0  0
  -28.3352  -17.2208   20.2376 C   0  0  0  0  0  0  0  0  0  0  0  0
  -20.1773  -18.5012   27.8371 C   0  0  0  0  0  0  0  0  0  0  0  0
  -26.7004  -26.9143   19.4086 C   0  0  0  0  0  0  0  0  0  0  0  0
  -20.0802  -20.4111   29.2029 C   0  0  0  0  0  0  0  0  0  0  0  0
  -19.9166  -23.1869   29.4276 C   0  0  0  0  0  0  0  0  0  0  0  0
  -21.0932  -21.1193   29.8494 C   0  0  0  0  0  0  0  0  0  0  0  0
  -20.2311  -16.8490   23.9429 C   0  0  0  0  0  0  0  0  0  0  0  0
  -19.8159  -16.3824   21.8346 C   0  0  0  0  0  0  0  0  0  0  0  0
  -18.3554  -18.1745   22.7854 C   0  0  0  0  0  0  0  0  0  0  0  0
  -25.1926  -30.3644   23.3185 C   0  0  0  0  0  0  0  0  0  0  0  0
  -28.1666  -20.9710   20.1923 C   0  0  0  0  0  0  0  0  0  0  0  0
  -27.5762  -23.3984   19.5509 C   0  0  0  0  0  0  0  0  0  0  0  0
  -22.1657  -30.1863   22.1657 C   0  0  0  0  0  0  0  0  0  0  0  0
  -20.0103  -28.8563   19.8783 C   0  0  0  0  0  0  0  0  0  0  0  0
  -24.9809  -13.6267   20.6374 C   0  0  0  0  0  0  0  0  0  0  0  0
  -25.9170  -33.5156   27.2686 C   0  0  0  0  0  0  0  0  0  0  0  0
  -25.5625  -30.8020   20.8634 C   0  0  0  0  0  0  0  0  0  0  0  0
  -23.8025  -28.4679   21.3092 C   0  0  0  0  0  0  0  0  0  0  0  0
  -24.7792  -32.6242   26.7774 C   0  0  0  0  0  0  0  0  0  0  0  0
  -21.7903  -12.0950   21.0257 C   0  0  0  0  0  0  0  0  0  0  0  0
  -25.2977  -31.2267   26.4534 C   0  0  0  0  0  0  0  0  0  0  0  0
  -20.9513  -13.1743   21.7138 C   0  0  0  0  0  0  0  0  0  0  0  0
  -23.2347  -12.0966   21.5231 C   0  0  0  0  0  0  0  0  0  0  0  0
  -23.0750  -14.4759   22.1413 C   0  0  0  0  0  0  0  0  0  0  0  0
  -26.3410  -31.2720   25.3305 C   0  0  1  0  0  0  0  0  0  0  0  0
  -24.5611  -30.7593   22.0135 C   0  0  1  0  0  0  0  0  0  0  0  0
  -21.6287  -14.5560   21.6259 C   0  0  2  0  0  0  0  0  0  0  0  0
  -17.5913  -28.8702   19.2106 C   0  0  0  0  0  0  0  0  0  0  0  0
  -21.5048  -28.3762   24.5315 C   0  0  0  0  0  0  0  0  0  0  0  0
  -19.4265  -27.6746   23.3246 C   0  0  0  0  0  0  0  0  0  0  0  0
  -19.7399  -30.0606   23.9817 C   0  0  0  0  0  0  0  0  0  0  0  0
  -20.6371  -29.9374   17.1956 C   0  0  0  0  0  0  0  0  0  0  0  0
  -27.1882  -22.1270   20.2790 C   0  0  0  0  0  0  0  0  0  0  0  0
  -27.5508  -19.5890   20.2805 C   0  0  0  0  0  0  0  0  0  0  0  0
  -26.6024  -24.5537   19.6807 C   0  0  0  0  0  0  0  0  0  1  0  0
  -21.1139  -29.1063   22.0860 C   0  0  1  0  0  0  0  0  0  0  0  0
  -18.9585  -29.4995   18.9926 C   0  0  2  0  0  0  0  0  0  0  0  0
  -20.4718  -28.8012   23.4688 C   0  0  0  0  0  0  0  0  0  0  0  0
  -21.1034  -15.8854   23.6354 N   0  0  0  0  0  0  0  0  0  0  0  0
  -20.8260  -15.6226   22.3470 N   0  0  0  0  0  0  0  0  0  0  0  0
  -23.4613  -29.8236   21.7709 N   0  0  0  0  0  0  0  0  0  0  0  0
  -23.8127  -13.4370   21.4056 N   0  0  0  0  0  0  0  0  0  0  0  0
  -30.7174  -16.7332   20.0019 N   0  0  0  0  0  0  0  0  0  0  0  0
  -19.4093  -16.2474   20.5544 N   0  0  0  0  0  0  0  0  0  0  0  0
  -18.0613  -18.9270   23.9306 N   0  0  0  0  0  0  0  0  0  0  0  0
  -25.4194  -14.9488   20.5716 N   0  0  0  0  0  0  0  0  0  0  0  0
  -28.5807  -18.5856   20.1910 N   0  0  0  0  0  0  0  0  0  0  0  0
  -25.6940  -31.4273   24.0453 N   0  0  0  0  0  0  0  0  0  0  0  0
  -20.1625  -29.5374   21.0675 N   0  0  0  0  0  0  0  0  0  0  0  0
  -19.3244  -29.3427   17.5565 N   0  3  0  0  0  0  0  0  0  0  0  0
  -17.6883  -18.3617   21.7397 O   0  0  0  0  0  0  0  0  0  0  0  0
  -25.2213  -29.1830   23.6427 O   0  0  0  0  0  0  0  0  0  0  0  0
  -29.3808  -21.1446   20.0976 O   0  0  0  0  0  0  0  0  0  0  0  0
  -28.5936  -23.4866   18.8655 O   0  0  0  0  0  0  0  0  0  0  0  0
  -21.8480  -31.3122   22.5568 O   0  0  0  0  0  0  0  0  0  0  0  0
  -20.6318  -27.8482   19.5499 O   0  0  0  0  0  0  0  0  0  0  0  0
  -25.5349  -12.6898   20.0566 O   0  0  0  0  0  0  0  0  0  0  0  0
  -20.1604  -19.0332   29.0898 O   0  0  0  0  0  0  0  0  0  0  0  0
  -27.0593  -25.6868   18.9434 O   0  0  0  0  0  0  0  0  0  1  0  0
  -19.8387  -24.5198   29.5341 F   0  0  0  0  0  0  0  0  0  0  0  0
  -22.1479  -20.4720   30.3636 F   0  0  0  0  0  0  0  0  0  0  0  0
  1  2  1  0  0  0  0
  1  5  2  0  0  0  0
  2  6  2  0  0  0  0
  3 10  2  0  0  0  0
  3 18  1  0  0  0  0
  4 11  1  0  0  0  0
  4 18  2  0  0  0  0
  5 20  1  0  0  0  0
  6 22  1  0  0  0  0
  7 12  2  0  0  0  0
  7 21  1  0  0  0  0
  8  9  2  0  0  0  0
  8 24  1  0  0  0  0
  9 25  1  0  0  0  0
 10 27  1  0  0  0  0
 11 27  2  0  0  0  0
 12 28  1  0  0  0  0
 13 14  2  0  0  0  0
 13 29  1  0  0  0  0
 14 30  1  0  0  0  0
 15 23  1  0  0  0  0
 15 28  2  0  0  0  0
 16 24  2  0  0  0  0
 16 26  1  0  0  0  0
 17 30  2  0  0  0  0
 17 31  1  0  0  0  0
 18 32  1  0  0  0  0
 19 32  1  0  0  0  0
 19 33  2  0  0  0  0
 19 34  1  0  0  0  0
 20 22  2  0  0  0  0
 20 41  1  0  0  0  0
 21 23  2  0  0  0  0
 21 42  1  0  0  0  0
 22 50  1  0  0  0  0
 23 43  1  0  0  0  0
 24 71  1  0  0  0  0
 25 26  2  0  0  0  0
 25 68  1  0  0  0  0
 26 72  1  0  0  0  0
 27 83  1  0  0  0  0
 28 84  1  0  0  0  0
 29 31  2  0  0  0  0
 29 83  1  0  0  0  0
 30 85  1  0  0  0  0
 31 86  1  0  0  0  0
 32 64  2  0  0  0  0
 33 65  1  0  0  0  0
 33 69  1  0  0  0  0
 34 70  1  0  0  0  0
 34 76  2  0  0  0  0
 35 51  1  0  0  0  0
 35 73  1  0  0  0  0
 35 77  2  0  0  0  0
 36 58  1  0  0  0  0
 36 59  1  0  0  0  0
 36 78  2  0  0  0  0
 37 58  1  0  0  0  0
 37 60  1  0  0  0  0
 37 79  2  0  0  0  0
 38 61  1  0  0  0  0
 38 66  1  0  0  0  0
 38 80  2  0  0  0  0
 39 62  1  0  0  0  0
 39 74  1  0  0  0  0
 39 81  2  0  0  0  0
 40 67  1  0  0  0  0
 40 71  1  0  0  0  0
 40 82  2  0  0  0  0
 41 44  1  0  0  0  0
 42 51  1  0  0  0  0
 43 66  1  0  0  0  0
 44 46  1  0  0  0  0
 45 47  1  0  0  0  0
 45 48  1  0  0  0  0
 46 50  1  0  0  0  0
 47 52  1  0  0  0  0
 48 67  1  0  0  0  0
 49 52  1  0  0  0  0
 49 67  1  0  0  0  0
 50 73  1  0  0  0  0
 51 66  1  0  0  0  0
 52 65  1  0  0  0  0
 53 62  1  0  0  0  0
 54 63  1  0  0  0  0
 55 63  1  0  0  0  0
 56 63  1  0  0  0  0
 57 75  1  0  0  0  0
 59 72  1  0  0  0  0
 60 84  1  0  0  0  0
 61 63  1  0  0  0  0
 61 74  1  0  0  0  0
 62 75  1  0  0  0  0
 64 65  1  0  0  0  0
M  CHG  1  75   1
M  ISO  4  40 100  60 101  71 100  84 101
M  END
> <Batch ID>
0168

> <Smiles>
CNC(C)C(=O)NC(C(=O)N1Cc2cc([101O:1][101CH2:1]C(=O)CC(=O)CNc3cc([100NH:0][100C:0](=O)N4CCCC(n5nc(-c6ccc(Oc7ccc(F)cc7F)cc6)c(C(N)=O)c5N)C4)ccc3N)ccc2CC1C(=O)NC1CCCc2ccccc21)C(C)(C)C

> <Shape>
0.248

> <Color>
0.081

> <Negative vol penalty>
0.000

$$$$

  -OEChem-04052304143D

 87 95  0     1  0  0  0  0  0999 V2000
  -25.5874  -19.8256   22.8955 C   0  0  0  0  0  0  0  0  0  0  0  0
  -26.2763  -20.6886   22.0493 C   0  0  0  0  0  0  0  0  0  0  0  0
  -21.0395  -11.4345   21.7034 C   0  0  0  0  0  0  0  0  0  0  0  0
  -21.1003  -11.3519   19.2895 C   0  0  0  0  0  0  0  0  0  0  0  0
  -24.3195  -20.1719   23.3606 C   0  0  0  0  0  0  0  0  0  0  0  0
  -25.6972  -21.8980   21.6668 C   0  0  0  0  0  0  0  0  0  0  0  0
  -28.9420  -25.7767   21.9353 C   0  0  0  0  0  0  0  0  0  0  0  0
  -20.1325  -10.3749   21.7168 C   0  0  0  0  0  0  0  0  0  0  0  0
  -20.1933  -10.2922   19.3029 C   0  0  0  0  0  0  0  0  0  0  0  0
  -29.8702  -25.9029   20.9027 C   0  0  0  0  0  0  0  0  0  0  0  0
  -18.1705   -7.3288   18.7163 C   0  0  0  0  0  0  0  0  0  0  0  0
  -18.4325   -6.2393   17.8856 C   0  0  0  0  0  0  0  0  0  0  0  0
  -28.4963  -27.6039   19.8837 C   0  0  0  0  0  0  0  0  0  0  0  0
  -26.3002  -20.8027   17.1879 C   0  0  0  0  0  0  0  0  0  0  0  0
  -28.4652  -20.6497   16.1266 C   0  0  0  0  0  0  0  0  0  0  0  0
  -27.3088  -18.6405   16.8071 C   0  0  0  0  0  0  0  0  0  0  0  0
  -20.5265   -5.8686   19.0323 C   0  0  0  0  0  0  0  0  0  0  0  0
  -21.5234  -11.9230   20.4897 C   0  0  0  0  0  0  0  0  0  0  0  0
  -23.8647  -12.9356   20.5132 C   0  0  0  0  0  0  0  0  0  0  0  0
  -23.7285  -21.3905   22.9913 C   0  0  0  0  0  0  0  0  0  0  0  0
  -27.7766  -26.5567   21.9441 C   0  0  0  0  0  0  0  0  0  0  0  0
  -24.4196  -22.2603   22.1263 C   0  0  0  0  0  0  0  0  0  0  0  0
  -27.5561  -27.4875   20.9189 C   0  0  0  0  0  0  0  0  0  0  0  0
  -27.4074  -21.4214   16.6073 C   0  0  0  0  0  0  0  0  0  0  0  0
  -26.2510  -19.4122   17.2878 C   0  0  0  0  0  0  0  0  0  0  0  0
  -19.7094   -9.8038   20.5166 C   0  0  0  0  0  0  0  0  0  0  0  0
  -29.6460  -26.8146   19.8752 C   0  0  0  0  0  0  0  0  0  0  0  0
  -19.0865   -7.6882   19.7049 C   0  0  0  0  0  0  0  0  0  0  0  0
  -19.6105   -5.5092   18.0436 C   0  0  0  0  0  0  0  0  0  0  0  0
  -28.4159  -19.2592   16.2265 C   0  0  0  0  0  0  0  0  0  0  0  0
  -20.2645   -6.9581   19.8630 C   0  0  0  0  0  0  0  0  0  0  0  0
  -22.4599  -13.0180   20.4752 C   0  0  0  0  0  0  0  0  0  0  0  0
  -24.2863  -14.2423   20.4783 C   0  0  0  0  0  0  0  0  0  0  0  0
  -24.7127  -11.7811   20.5745 C   0  0  0  0  0  0  0  0  0  0  0  0
  -24.6611  -25.9359   21.8354 C   0  0  0  0  0  0  0  0  0  0  0  0
  -24.4033  -29.1318   22.3276 C   0  0  0  0  0  0  0  0  0  0  0  0
  -29.3879  -23.6906   17.8817 C   0  0  0  0  0  0  0  0  0  0  0  0
  -25.8210  -32.2258   22.0746 C   0  0  0  0  0  0  0  0  0  0  0  0
  -23.9928  -19.4014   18.4045 C   0  0  0  0  0  0  0  0  0  0  0  0
  -22.3362  -21.7000   23.4815 C   0  0  0  0  0  0  0  0  0  0  0  0
  -26.7982  -26.4276   23.0792 C   0  0  0  0  0  0  0  0  0  0  0  0
  -26.3307  -28.3628   20.8927 C   0  0  0  0  0  0  0  0  0  0  0  0
  -21.9495  -23.1689   23.3296 C   0  0  0  0  0  0  0  0  0  0  0  0
  -21.6877  -18.5566   20.9833 C   0  0  0  0  0  0  0  0  0  0  0  0
  -22.3216  -23.6781   21.9407 C   0  0  0  0  0  0  0  0  0  0  0  0
  -21.7986  -17.0336   21.0841 C   0  0  0  0  0  0  0  0  0  0  0  0
  -21.8119  -19.0400   19.5394 C   0  0  0  0  0  0  0  0  0  0  0  0
  -23.1147  -17.0409   18.9265 C   0  0  0  0  0  0  0  0  0  0  0  0
  -23.8350  -23.5923   21.7089 C   0  0  1  0  0  0  0  0  0  0  0  0
  -25.3958  -26.9062   22.7166 C   0  0  1  0  0  0  0  0  0  0  0  0
  -23.0605  -16.5119   20.3691 C   0  0  2  0  0  0  0  0  0  0  0  0
  -26.8456  -23.4440   15.1982 C   0  0  0  0  0  0  0  0  0  0  0  0
  -25.3529  -34.6499   22.5241 C   0  0  0  0  0  0  0  0  0  0  0  0
  -30.2151  -27.9427   16.7147 C   0  0  0  0  0  0  0  0  0  0  0  0
  -22.6112  -29.2407   19.8605 C   0  0  0  0  0  0  0  0  0  0  0  0
  -22.9561  -31.7199   19.8053 C   0  0  0  0  0  0  0  0  0  0  0  0
  -21.8438  -30.6606   21.7709 C   0  0  0  0  0  0  0  0  0  0  0  0
  -28.0790  -32.4287   23.9771 C   0  0  0  0  0  0  0  0  0  0  0  0
  -30.8045  -24.2208   17.7332 C   0  0  0  0  0  0  0  0  0  0  0  0
  -30.8925  -25.5187   16.9266 C   0  0  0  0  0  0  0  0  0  0  0  0
  -27.4611  -22.9300   16.4981 C   0  0  2  0  0  0  0  0  0  0  0  0
  -24.3303  -30.3483   21.4367 C   0  0  1  0  0  0  0  0  0  0  0  0
  -25.9452  -33.3617   23.0740 C   0  0  2  0  0  0  0  0  0  0  0  0
  -30.0877  -26.6706   17.5428 C   0  0  1  0  0  0  0  0  0  1  0  0
  -22.9576  -30.4746   20.7175 C   0  0  0  0  0  0  0  0  0  0  0  0
  -22.0185  -14.2774   20.4205 N   0  0  0  0  0  0  0  0  0  0  0  0
  -23.1526  -14.9985   20.4239 N   0  0  0  0  0  0  0  0  0  0  0  0
  -25.4006  -28.1950   22.0215 N   0  0  0  0  0  0  0  0  0  0  0  0
  -23.0324  -18.5099   18.9277 N   0  0  0  0  0  0  0  0  0  0  0  0
  -25.5126  -14.8067   20.4892 N   0  0  0  0  0  0  0  0  0  0  0  0
  -24.1149  -10.5138   20.6036 N   0  0  0  0  0  0  0  0  0  0  0  0
  -25.1265  -18.7835   17.8778 N   0  0  0  0  0  0  0  0  0  0  0  0
  -24.5123  -24.6773   22.3861 N   0  0  0  0  0  0  0  0  0  0  0  0
  -28.8126  -23.4189   16.6490 N   0  0  0  0  0  0  0  0  0  0  0  0
  -24.6720  -31.4908   22.2770 N   0  0  0  0  0  0  0  0  0  0  0  0
  -27.3776  -33.6065   23.4045 N   0  3  0  0  0  0  0  0  0  0  0  0
  -25.9631  -11.8713   20.6193 O   0  0  0  0  0  0  0  0  0  0  0  0
  -24.2577  -26.3025   20.7379 O   0  0  0  0  0  0  0  0  0  0  0  0
  -23.6095  -29.0204   23.2652 O   0  0  0  0  0  0  0  0  0  0  0  0
  -28.8324  -23.5521   18.9681 O   0  0  0  0  0  0  0  0  0  0  0  0
  -26.6576  -32.0141   21.1995 O   0  0  0  0  0  0  0  0  0  0  0  0
  -23.8344  -20.6241   18.4470 O   0  0  0  0  0  0  0  0  0  0  0  0
  -18.8246   -8.7696   20.5293 O   0  0  0  0  0  0  0  0  0  0  0  0
  -30.5501  -26.9393   18.8657 O   0  0  0  0  0  0  0  0  0  1  0  0
  -19.8612   -4.4621   17.2468 F   0  0  0  0  0  0  0  0  0  0  0  0
  -29.4318  -18.5182   15.7649 F   0  0  0  0  0  0  0  0  0  0  0  0
  -21.1477   -7.2979   20.8118 F   0  0  0  0  0  0  0  0  0  0  0  0
  1  2  1  0  0  0  0
  1  5  2  0  0  0  0
  2  6  2  0  0  0  0
  3  8  2  0  0  0  0
  3 18  1  0  0  0  0
  4  9  1  0  0  0  0
  4 18  2  0  0  0  0
  5 20  1  0  0  0  0
  6 22  1  0  0  0  0
  7 10  2  0  0  0  0
  7 21  1  0  0  0  0
  8 26  1  0  0  0  0
  9 26  2  0  0  0  0
 10 27  1  0  0  0  0
 11 12  2  0  0  0  0
 11 28  1  0  0  0  0
 12 29  1  0  0  0  0
 13 23  1  0  0  0  0
 13 27  2  0  0  0  0
 14 24  2  0  0  0  0
 14 25  1  0  0  0  0
 15 24  1  0  0  0  0
 15 30  2  0  0  0  0
 16 25  2  0  0  0  0
 16 30  1  0  0  0  0
 17 29  2  0  0  0  0
 17 31  1  0  0  0  0
 18 32  1  0  0  0  0
 19 32  1  0  0  0  0
 19 33  2  0  0  0  0
 19 34  1  0  0  0  0
 20 22  2  0  0  0  0
 20 40  1  0  0  0  0
 21 23  2  0  0  0  0
 21 41  1  0  0  0  0
 22 49  1  0  0  0  0
 23 42  1  0  0  0  0
 24 61  1  0  0  0  0
 25 72  1  0  0  0  0
 26 83  1  0  0  0  0
 27 84  1  0  0  0  0
 28 31  2  0  0  0  0
 28 83  1  0  0  0  0
 29 85  1  0  0  0  0
 30 86  1  0  0  0  0
 31 87  1  0  0  0  0
 32 66  2  0  0  0  0
 33 67  1  0  0  0  0
 33 70  1  0  0  0  0
 34 71  1  0  0  0  0
 34 77  2  0  0  0  0
 35 50  1  0  0  0  0
 35 73  1  0  0  0  0
 35 78  2  0  0  0  0
 36 62  1  0  0  0  0
 36 68  1  0  0  0  0
 36 79  2  0  0  0  0
 37 59  1  0  0  0  0
 37 74  1  0  0  0  0
 37 80  2  0  0  0  0
 38 63  1  0  0  0  0
 38 75  1  0  0  0  0
 38 81  2  0  0  0  0
 39 69  1  0  0  0  0
 39 72  1  0  0  0  0
 39 82  2  0  0  0  0
 40 43  1  0  0  0  0
 41 50  1  0  0  0  0
 42 68  1  0  0  0  0
 43 45  1  0  0  0  0
 44 46  1  0  0  0  0
 44 47  1  0  0  0  0
 45 49  1  0  0  0  0
 46 51  1  0  0  0  0
 47 69  1  0  0  0  0
 48 51  1  0  0  0  0
 48 69  1  0  0  0  0
 49 73  1  0  0  0  0
 50 68  1  0  0  0  0
 51 67  1  0  0  0  0
 52 61  1  0  0  0  0
 53 63  1  0  0  0  0
 54 64  1  0  0  0  0
 55 65  1  0  0  0  0
 56 65  1  0  0  0  0
 57 65  1  0  0  0  0
 58 76  1  0  0  0  0
 59 60  1  0  0  0  0
 60 64  1  0  0  0  0
 61 74  1  0  0  0  0
 62 65  1  0  0  0  0
 62 75  1  0  0  0  0
 63 76  1  0  0  0  0
 64 84  1  0  0  0  0
 66 67  1  0  0  0  0
M  CHG  1  76   1
M  ISO  4  39 100  64 101  72 100  84 101
M  END
> <Batch ID>
0168

> <Smiles>
CNC(C)C(=O)NC(C(=O)N1Cc2cc([101O:1][101CH:1](C)CCC(=O)NC(C)c3cc(F)cc([100NH:0][100C:0](=O)N4CCCC(n5nc(-c6ccc(Oc7ccc(F)cc7F)cc6)c(C(N)=O)c5N)C4)c3)ccc2CC1C(=O)NC1CCCc2ccccc21)C(C)(C)C

> <Shape>
0.181

> <Color>
0.101

> <Negative vol penalty>
0.000

$$$$

  -OEChem-04052304143D

 85 93  0     1  0  0  0  0  0999 V2000
  -29.2650  -37.0553   20.4619 C   0  0  0  0  0  0  0  0  0  0  0  0
  -29.4734  -35.6976   20.2409 C   0  0  0  0  0  0  0  0  0  0  0  0
  -24.8616   -8.4404   21.4749 C   0  0  0  0  0  0  0  0  0  0  0  0
  -23.4732   -9.3714   19.7305 C   0  0  0  0  0  0  0  0  0  0  0  0
  -28.3583  -37.4707   21.4361 C   0  0  0  0  0  0  0  0  0  0  0  0
  -28.7759  -34.7546   20.9950 C   0  0  0  0  0  0  0  0  0  0  0  0
  -26.7617  -29.2889   19.1041 C   0  0  0  0  0  0  0  0  0  0  0  0
  -23.9038  -18.1918   16.4358 C   0  0  0  0  0  0  0  0  0  0  0  0
  -23.7998   -7.6377   21.8917 C   0  0  0  0  0  0  0  0  0  0  0  0
  -22.4114   -8.5686   20.1473 C   0  0  0  0  0  0  0  0  0  0  0  0
  -27.2773  -28.0008   19.2404 C   0  0  0  0  0  0  0  0  0  0  0  0
  -20.9742   -7.9932   23.7120 C   0  0  0  0  0  0  0  0  0  0  0  0
  -20.7204   -7.9150   25.0813 C   0  0  0  0  0  0  0  0  0  0  0  0
  -24.3799  -17.2018   17.2880 C   0  0  0  0  0  0  0  0  0  0  0  0
  -25.8715  -27.6487   21.1689 C   0  0  0  0  0  0  0  0  0  0  0  0
  -21.0904   -5.5284   25.0136 C   0  0  0  0  0  0  0  0  0  0  0  0
  -24.6983   -9.3073   20.3943 C   0  0  0  0  0  0  0  0  0  0  0  0
  -26.7790   -9.8176   19.0094 C   0  0  0  0  0  0  0  0  0  0  0  0
  -27.6422  -36.5323   22.1959 C   0  0  0  0  0  0  0  0  0  0  0  0
  -25.8035  -29.7713   20.0072 C   0  0  0  0  0  0  0  0  0  0  0  0
  -27.8597  -35.1579   21.9812 C   0  0  0  0  0  0  0  0  0  0  0  0
  -25.3435  -28.9424   21.0403 C   0  0  0  0  0  0  0  0  0  0  0  0
  -24.3305  -19.5052   16.5980 C   0  0  0  0  0  0  0  0  0  0  0  0
  -22.5747   -7.7017   21.2279 C   0  0  0  0  0  0  0  0  0  0  0  0
  -26.8344  -27.1814   20.2747 C   0  0  0  0  0  0  0  0  0  0  0  0
  -21.2860   -6.8390   22.9934 C   0  0  0  0  0  0  0  0  0  0  0  0
  -20.7786   -6.6826   25.7321 C   0  0  0  0  0  0  0  0  0  0  0  0
  -21.3442   -5.6066   23.6442 C   0  0  0  0  0  0  0  0  0  0  0  0
  -25.7947  -10.1372   19.9637 C   0  0  0  0  0  0  0  0  0  0  0  0
  -25.2743  -17.5738   18.2787 C   0  0  0  0  0  0  0  0  0  0  0  0
  -25.2270  -19.7742   17.6197 C   0  0  0  0  0  0  0  0  0  0  0  0
  -27.5840  -10.9294   18.9608 C   0  0  0  0  0  0  0  0  0  0  0  0
  -26.7651  -23.0596   18.5989 C   0  0  0  0  0  0  0  0  0  0  0  0
  -26.9503   -8.6226   18.2359 C   0  0  0  0  0  0  0  0  0  0  0  0
  -27.5752  -23.7801   19.3915 C   0  0  0  0  0  0  0  0  0  0  0  0
  -26.5580  -21.5847   18.7504 C   0  0  0  0  0  0  0  0  0  0  0  0
  -25.6933  -32.1667   22.0937 C   0  0  0  0  0  0  0  0  0  0  0  0
  -22.6039  -31.2311   22.4132 C   0  0  0  0  0  0  0  0  0  0  0  0
  -20.2848  -28.7444   22.1214 C   0  0  0  0  0  0  0  0  0  0  0  0
  -26.6527  -16.7007   20.1981 C   0  0  0  0  0  0  0  0  0  0  0  0
  -26.7077  -37.0293   23.2703 C   0  0  0  0  0  0  0  0  0  0  0  0
  -25.2377  -31.1537   19.8305 C   0  0  0  0  0  0  0  0  0  0  0  0
  -24.3014  -29.4056   22.0242 C   0  0  0  0  0  0  0  0  0  0  0  0
  -25.7318  -35.9663   23.7681 C   0  0  0  0  0  0  0  0  0  0  0  0
  -29.1010  -14.5755   21.6700 C   0  0  0  0  0  0  0  0  0  0  0  0
  -26.4633  -34.6559   24.0413 C   0  0  0  0  0  0  0  0  0  0  0  0
  -28.6238  -13.1673   21.3074 C   0  0  0  0  0  0  0  0  0  0  0  0
  -27.9310  -15.5119   21.9666 C   0  0  0  0  0  0  0  0  0  0  0  0
  -26.4259  -14.1639   20.5571 C   0  0  0  0  0  0  0  0  0  0  0  0
  -27.1038  -34.1045   22.7618 C   0  0  1  0  0  0  0  0  0  0  0  0
  -24.6432  -31.7246   21.1143 C   0  0  1  0  0  0  0  0  0  0  0  0
  -27.5664  -13.2017   20.1866 C   0  0  2  0  0  0  0  0  0  0  0  0
  -23.8181  -20.5640   15.6820 C   0  0  0  0  0  0  0  0  0  0  0  0
  -17.8490  -28.2688   22.4931 C   0  0  0  0  0  0  0  0  0  0  0  0
  -23.1001  -31.0508   25.4184 C   0  0  0  0  0  0  0  0  0  0  0  0
  -21.0034  -29.6964   25.6129 C   0  0  0  0  0  0  0  0  0  0  0  0
  -20.8957  -32.0464   24.7830 C   0  0  0  0  0  0  0  0  0  0  0  0
  -19.8459  -28.1437   19.2569 C   0  0  0  0  0  0  0  0  0  0  0  0
  -27.7546  -25.2594   19.2188 C   0  0  0  0  0  0  0  0  0  1  0  0
  -21.8697  -30.2497   23.2947 C   0  0  1  0  0  0  0  0  0  0  0  0
  -18.9021  -28.7249   21.4952 C   0  0  2  0  0  0  0  0  0  0  0  0
  -21.7383  -30.7525   24.7600 C   0  0  0  0  0  0  0  0  0  0  0  0
  -25.9576  -11.3565   20.4840 N   0  0  0  0  0  0  0  0  0  0  0  0
  -25.7116  -18.8391   18.4672 N   0  0  0  0  0  0  0  0  0  0  0  0
  -27.0537  -11.8128   19.8545 N   0  0  0  0  0  0  0  0  0  0  0  0
  -23.7833  -30.7674   21.8134 N   0  0  0  0  0  0  0  0  0  0  0  0
  -26.9722  -15.4961   20.8597 N   0  0  0  0  0  0  0  0  0  0  0  0
  -28.6866  -11.2278   18.2414 N   0  0  0  0  0  0  0  0  0  0  0  0
  -26.0330   -7.5773   18.4092 N   0  0  0  0  0  0  0  0  0  0  0  0
  -25.6688  -21.1089   17.7942 N   0  0  0  0  0  0  0  0  0  0  0  0
  -25.7547  -16.5572   19.1409 N   0  0  0  0  0  0  0  0  0  0  0  0
  -26.1033  -33.4757   21.9263 N   0  0  0  0  0  0  0  0  0  0  0  0
  -20.5946  -29.9851   22.6371 N   0  0  0  0  0  0  0  0  0  0  0  0
  -18.8752  -27.7994   20.3275 N   0  3  0  0  0  0  0  0  0  0  0  0
  -27.8986   -8.4795   17.4273 O   0  0  0  0  0  0  0  0  0  0  0  0
  -27.1281  -20.9415   19.6231 O   0  0  0  0  0  0  0  0  0  0  0  0
  -26.1004  -31.3791   22.9397 O   0  0  0  0  0  0  0  0  0  0  0  0
  -22.1439  -32.3649   22.2569 O   0  0  0  0  0  0  0  0  0  0  0  0
  -21.0155  -27.7566   22.1534 O   0  0  0  0  0  0  0  0  0  0  0  0
  -27.1607  -17.7759   20.5264 O   0  0  0  0  0  0  0  0  0  0  0  0
  -28.2842  -23.2135   20.4321 O   0  0  0  0  0  0  0  0  0  0  0  0
  -21.5384   -6.9183   21.6341 O   0  0  0  0  0  0  0  0  0  0  0  0
  -27.3364  -25.9239   20.4104 O   0  0  0  0  0  0  0  0  0  1  0  0
  -20.5364   -6.6079   27.0474 F   0  0  0  0  0  0  0  0  0  0  0  0
  -21.6444   -4.4945   22.9594 F   0  0  0  0  0  0  0  0  0  0  0  0
  1  2  1  0  0  0  0
  1  5  2  0  0  0  0
  2  6  2  0  0  0  0
  3  9  2  0  0  0  0
  3 17  1  0  0  0  0
  4 10  1  0  0  0  0
  4 17  2  0  0  0  0
  5 19  1  0  0  0  0
  6 21  1  0  0  0  0
  7 11  2  0  0  0  0
  7 20  1  0  0  0  0
  8 14  2  0  0  0  0
  8 23  1  0  0  0  0
  9 24  1  0  0  0  0
 10 24  2  0  0  0  0
 11 25  1  0  0  0  0
 12 13  2  0  0  0  0
 12 26  1  0  0  0  0
 13 27  1  0  0  0  0
 14 30  1  0  0  0  0
 15 22  1  0  0  0  0
 15 25  2  0  0  0  0
 16 27  2  0  0  0  0
 16 28  1  0  0  0  0
 17 29  1  0  0  0  0
 18 29  1  0  0  0  0
 18 32  2  0  0  0  0
 18 34  1  0  0  0  0
 19 21  2  0  0  0  0
 19 41  1  0  0  0  0
 20 22  2  0  0  0  0
 20 42  1  0  0  0  0
 21 50  1  0  0  0  0
 22 43  1  0  0  0  0
 23 31  2  0  0  0  0
 23 53  1  0  0  0  0
 24 82  1  0  0  0  0
 25 83  1  0  0  0  0
 26 28  2  0  0  0  0
 26 82  1  0  0  0  0
 27 84  1  0  0  0  0
 28 85  1  0  0  0  0
 29 63  2  0  0  0  0
 30 64  2  0  0  0  0
 30 71  1  0  0  0  0
 31 64  1  0  0  0  0
 31 70  1  0  0  0  0
 32 65  1  0  0  0  0
 32 68  1  0  0  0  0
 33 35  2  0  0  0  0
 33 36  1  0  0  0  0
 34 69  1  0  0  0  0
 34 75  2  0  0  0  0
 35 59  1  0  0  0  0
 35 81  1  0  0  0  0
 36 70  1  0  0  0  0
 36 76  2  0  0  0  0
 37 51  1  0  0  0  0
 37 72  1  0  0  0  0
 37 77  2  0  0  0  0
 38 60  1  0  0  0  0
 38 66  1  0  0  0  0
 38 78  2  0  0  0  0
 39 61  1  0  0  0  0
 39 73  1  0  0  0  0
 39 79  2  0  0  0  0
 40 67  1  0  0  0  0
 40 71  1  0  0  0  0
 40 80  2  0  0  0  0
 41 44  1  0  0  0  0
 42 51  1  0  0  0  0
 43 66  1  0  0  0  0
 44 46  1  0  0  0  0
 45 47  1  0  0  0  0
 45 48  1  0  0  0  0
 46 50  1  0  0  0  0
 47 52  1  0  0  0  0
 48 67  1  0  0  0  0
 49 52  1  0  0  0  0
 49 67  1  0  0  0  0
 50 72  1  0  0  0  0
 51 66  1  0  0  0  0
 52 65  1  0  0  0  0
 54 61  1  0  0  0  0
 55 62  1  0  0  0  0
 56 62  1  0  0  0  0
 57 62  1  0  0  0  0
 58 74  1  0  0  0  0
 59 83  1  0  0  0  0
 60 62  1  0  0  0  0
 60 73  1  0  0  0  0
 61 74  1  0  0  0  0
 63 65  1  0  0  0  0
M  CHG  1  74   1
M  ISO  4  40 100  59 101  71 100  83 101
M  END
> <Batch ID>
0168

> <Smiles>
CNC(C)C(=O)NC(C(=O)N1Cc2cc([101O:1][101CH2:1]C(=O)CC(=O)Nc3nc([100NH:0][100C:0](=O)N4CCCC(n5nc(-c6ccc(Oc7ccc(F)cc7F)cc6)c(C(N)=O)c5N)C4)ccc3C)ccc2CC1C(=O)NC1CCCc2ccccc21)C(C)(C)C

> <Shape>
0.262

> <Color>
0.087

> <Negative vol penalty>
0.000

$$$$

  -OEChem-04052304143D

 87 95  0     1  0  0  0  0  0999 V2000
  -29.3105  -10.0225   16.8639 C   0  0  0  0  0  0  0  0  0  0  0  0
  -28.3826  -10.9105   16.3290 C   0  0  0  0  0  0  0  0  0  0  0  0
  -24.6870  -29.1811   22.4516 C   0  0  0  0  0  0  0  0  0  0  0  0
  -24.1005  -29.5229   20.1329 C   0  0  0  0  0  0  0  0  0  0  0  0
  -29.8588  -10.2635   18.1229 C   0  0  0  0  0  0  0  0  0  0  0  0
  -28.0018  -12.0394   17.0534 C   0  0  0  0  0  0  0  0  0  0  0  0
  -26.5832  -17.5542   14.7995 C   0  0  0  0  0  0  0  0  0  0  0  0
  -25.4520  -30.3473   22.4300 C   0  0  0  0  0  0  0  0  0  0  0  0
  -24.8654  -30.6891   20.1113 C   0  0  0  0  0  0  0  0  0  0  0  0
  -25.3628  -18.1688   14.5225 C   0  0  0  0  0  0  0  0  0  0  0  0
  -27.2673  -33.4274   23.0877 C   0  0  0  0  0  0  0  0  0  0  0  0
  -27.1374  -34.3081   24.1614 C   0  0  0  0  0  0  0  0  0  0  0  0
  -25.4348  -19.2660   16.6696 C   0  0  0  0  0  0  0  0  0  0  0  0
  -19.7204  -21.8543   23.1535 C   0  0  0  0  0  0  0  0  0  0  0  0
  -20.7280  -20.8597   21.1958 C   0  0  0  0  0  0  0  0  0  0  0  0
  -24.7862  -34.5635   23.6674 C   0  0  0  0  0  0  0  0  0  0  0  0
  -24.0113  -28.7689   21.3030 C   0  0  0  0  0  0  0  0  0  0  0  0
  -21.8573  -27.4475   21.6522 C   0  0  0  0  0  0  0  0  0  0  0  0
  -29.4917  -11.4011   18.8590 C   0  0  0  0  0  0  0  0  0  0  0  0
  -27.2344  -17.7829   16.0202 C   0  0  0  0  0  0  0  0  0  0  0  0
  -28.5447  -12.2952   18.3241 C   0  0  0  0  0  0  0  0  0  0  0  0
  -26.6647  -18.6552   16.9586 C   0  0  0  0  0  0  0  0  0  0  0  0
  -20.7952  -21.2057   22.5454 C   0  0  0  0  0  0  0  0  0  0  0  0
  -18.5783  -22.1568   22.4120 C   0  0  0  0  0  0  0  0  0  0  0  0
  -19.5859  -21.1622   20.4543 C   0  0  0  0  0  0  0  0  0  0  0  0
  -25.5411  -31.1013   21.2599 C   0  0  0  0  0  0  0  0  0  0  0  0
  -24.7870  -19.0225   15.4588 C   0  0  0  0  0  0  0  0  0  0  0  0
  -26.1568  -33.1147   22.3037 C   0  0  0  0  0  0  0  0  0  0  0  0
  -25.8968  -34.8762   24.4513 C   0  0  0  0  0  0  0  0  0  0  0  0
  -24.9162  -33.6827   22.5936 C   0  0  0  0  0  0  0  0  0  0  0  0
  -18.5111  -21.8107   21.0624 C   0  0  0  0  0  0  0  0  0  0  0  0
  -23.2215  -27.5640   21.3245 C   0  0  0  0  0  0  0  0  0  0  0  0
  -21.5862  -26.1073   21.5223 C   0  0  0  0  0  0  0  0  0  0  0  0
  -20.9191  -28.4602   22.0393 C   0  0  0  0  0  0  0  0  0  0  0  0
  -20.2400  -20.2010   16.8992 C   0  0  0  0  0  0  0  0  0  0  0  0
  -21.3078  -19.8791   15.8721 C   0  0  0  0  0  0  0  0  0  0  0  0
  -28.1012  -15.9603   18.4759 C   0  0  0  0  0  0  0  0  0  0  0  0
  -29.5260  -18.6900   19.4962 C   0  0  0  0  0  0  0  0  0  0  0  0
  -29.6491  -22.0995   19.4137 C   0  0  0  0  0  0  0  0  0  0  0  0
  -23.2662  -20.8270   22.7510 C   0  0  0  0  0  0  0  0  0  0  0  0
  -30.0760  -11.5945   20.2359 C   0  0  0  0  0  0  0  0  0  0  0  0
  -28.5634  -17.1333   16.2926 C   0  0  0  0  0  0  0  0  0  0  0  0
  -27.3333  -18.9497   18.2756 C   0  0  0  0  0  0  0  0  0  0  0  0
  -29.9005  -13.0105   20.7786 C   0  0  0  0  0  0  0  0  0  0  0  0
  -24.2931  -22.3407   19.5343 C   0  0  0  0  0  0  0  0  0  0  0  0
  -28.4693  -13.4916   20.5621 C   0  0  0  0  0  0  0  0  0  0  0  0
  -24.0720  -23.8328   19.7755 C   0  0  0  0  0  0  0  0  0  0  0  0
  -24.6171  -21.5997   20.8280 C   0  0  0  0  0  0  0  0  0  0  0  0
  -23.3728  -23.2926   22.1422 C   0  0  0  0  0  0  0  0  0  0  0  0
  -28.1249  -13.5439   19.0687 C   0  0  1  0  0  0  0  0  0  0  0  0
  -28.8869  -17.0357   17.7803 C   0  0  1  0  0  0  0  0  0  0  0  0
  -23.0050  -24.0546   20.8602 C   0  0  1  0  0  0  0  0  0  0  0  0
  -30.8969  -24.0497   20.3818 C   0  0  0  0  0  0  0  0  0  0  0  0
  -28.0195  -18.3448   22.1271 C   0  0  0  0  0  0  0  0  0  0  0  0
  -28.5379  -20.7362   22.6572 C   0  0  0  0  0  0  0  0  0  0  0  0
  -30.3931  -19.0927   22.3745 C   0  0  0  0  0  0  0  0  0  0  0  0
  -21.7963  -20.3723   24.6653 C   0  0  0  0  0  0  0  0  0  0  0  0
  -30.5714  -22.9834   16.7441 C   0  0  0  0  0  0  0  0  0  0  0  0
  -20.6800  -20.5375   18.3006 C   0  0  0  0  0  0  0  0  0  0  0  0
  -22.7518  -19.9166   16.3041 C   0  0  0  0  0  0  0  0  0  1  0  0
  -29.1016  -19.8655   20.3430 C   0  0  1  0  0  0  0  0  0  0  0  0
  -30.8089  -23.0614   19.2293 C   0  0  2  0  0  0  0  0  0  0  0  0
  -28.9992  -19.5029   21.8515 C   0  0  0  0  0  0  0  0  0  0  0  0
  -23.7782  -26.3912   21.0103 N   0  0  0  0  0  0  0  0  0  0  0  0
  -22.7589  -25.5251   21.1400 N   0  0  0  0  0  0  0  0  0  0  0  0
  -28.6283  -18.2856   18.4981 N   0  0  0  0  0  0  0  0  0  0  0  0
  -23.6251  -21.8681   21.8703 N   0  0  0  0  0  0  0  0  0  0  0  0
  -17.4927  -22.8128   23.0294 N   0  0  0  0  0  0  0  0  0  0  0  0
  -20.4616  -25.3818   21.6991 N   0  0  0  0  0  0  0  0  0  0  0  0
  -21.3642  -29.7865   22.1229 N   0  0  0  0  0  0  0  0  0  0  0  0
  -19.5216  -20.8171   19.1129 N   0  0  0  0  0  0  0  0  0  0  0  0
  -28.7075  -14.7188   18.4565 N   0  0  0  0  0  0  0  0  0  0  0  0
  -30.0426  -20.9410   20.0495 N   0  0  0  0  0  0  0  0  0  0  0  0
  -21.9765  -20.8932   23.3120 N   0  0  0  0  0  0  0  0  0  0  0  0
  -30.6481  -23.8299   17.9625 N   0  3  0  0  0  0  0  0  0  0  0  0
  -19.7255  -28.1944   22.3190 O   0  0  0  0  0  0  0  0  0  0  0  0
  -19.0756  -20.1656   16.5216 O   0  0  0  0  0  0  0  0  0  0  0  0
  -20.9356  -19.6064   14.7380 O   0  0  0  0  0  0  0  0  0  0  0  0
  -27.0253  -16.2368   18.9932 O   0  0  0  0  0  0  0  0  0  0  0  0
  -30.6172  -18.1550   19.7078 O   0  0  0  0  0  0  0  0  0  0  0  0
  -28.5074  -22.3523   19.0352 O   0  0  0  0  0  0  0  0  0  0  0  0
  -24.0592  -19.9294   23.0608 O   0  0  0  0  0  0  0  0  0  0  0  0
  -26.2873  -32.2395   21.2385 O   0  0  0  0  0  0  0  0  0  0  0  0
  -23.5955  -19.6231   15.1913 O   0  0  0  0  0  0  0  0  0  1  0  0
  -25.7718  -35.7208   25.4834 F   0  0  0  0  0  0  0  0  0  0  0  0
  -23.8455  -33.3852   21.8448 F   0  0  0  0  0  0  0  0  0  0  0  0
  -17.4121  -22.1013   20.3494 F   0  0  0  0  0  0  0  0  0  0  0  0
  1  2  1  0  0  0  0
  1  5  2  0  0  0  0
  2  6  2  0  0  0  0
  3  8  2  0  0  0  0
  3 17  1  0  0  0  0
  4  9  1  0  0  0  0
  4 17  2  0  0  0  0
  5 19  1  0  0  0  0
  6 21  1  0  0  0  0
  7 10  2  0  0  0  0
  7 20  1  0  0  0  0
  8 26  1  0  0  0  0
  9 26  2  0  0  0  0
 10 27  1  0  0  0  0
 11 12  2  0  0  0  0
 11 28  1  0  0  0  0
 12 29  1  0  0  0  0
 13 22  1  0  0  0  0
 13 27  2  0  0  0  0
 14 23  1  0  0  0  0
 14 24  2  0  0  0  0
 15 23  2  0  0  0  0
 15 25  1  0  0  0  0
 16 29  2  0  0  0  0
 16 30  1  0  0  0  0
 17 32  1  0  0  0  0
 18 32  1  0  0  0  0
 18 33  2  0  0  0  0
 18 34  1  0  0  0  0
 19 21  2  0  0  0  0
 19 41  1  0  0  0  0
 20 22  2  0  0  0  0
 20 42  1  0  0  0  0
 21 50  1  0  0  0  0
 22 43  1  0  0  0  0
 23 74  1  0  0  0  0
 24 31  1  0  0  0  0
 24 68  1  0  0  0  0
 25 31  2  0  0  0  0
 25 71  1  0  0  0  0
 26 83  1  0  0  0  0
 27 84  1  0  0  0  0
 28 30  2  0  0  0  0
 28 83  1  0  0  0  0
 29 85  1  0  0  0  0
 30 86  1  0  0  0  0
 31 87  1  0  0  0  0
 32 64  2  0  0  0  0
 33 65  1  0  0  0  0
 33 69  1  0  0  0  0
 34 70  1  0  0  0  0
 34 76  2  0  0  0  0
 35 36  1  0  0  0  0
 35 59  1  0  0  0  0
 35 77  2  0  0  0  0
 36 60  1  0  0  0  0
 36 78  2  0  0  0  0
 37 51  1  0  0  0  0
 37 72  1  0  0  0  0
 37 79  2  0  0  0  0
 38 61  1  0  0  0  0
 38 66  1  0  0  0  0
 38 80  2  0  0  0  0
 39 62  1  0  0  0  0
 39 73  1  0  0  0  0
 39 81  2  0  0  0  0
 40 67  1  0  0  0  0
 40 74  1  0  0  0  0
 40 82  2  0  0  0  0
 41 44  1  0  0  0  0
 42 51  1  0  0  0  0
 43 66  1  0  0  0  0
 44 46  1  0  0  0  0
 45 47  1  0  0  0  0
 45 48  1  0  0  0  0
 46 50  1  0  0  0  0
 47 52  1  0  0  0  0
 48 67  1  0  0  0  0
 49 52  1  0  0  0  0
 49 67  1  0  0  0  0
 50 72  1  0  0  0  0
 51 66  1  0  0  0  0
 52 65  1  0  0  0  0
 53 62  1  0  0  0  0
 54 63  1  0  0  0  0
 55 63  1  0  0  0  0
 56 63  1  0  0  0  0
 57 74  1  0  0  0  0
 58 75  1  0  0  0  0
 59 71  1  0  0  0  0
 60 84  1  0  0  0  0
 61 63  1  0  0  0  0
 61 73  1  0  0  0  0
 62 75  1  0  0  0  0
 64 65  1  0  0  0  0
M  CHG  1  75   1
M  ISO  4  40 100  60 101  74 100  84 101
M  END
> <Batch ID>
0168

> <Smiles>
CNC(C)C(=O)NC(C(=O)N1Cc2cc([101O:1][101CH2:1]C(=O)C(=O)CNc3cc([100N:0](C)[100C:0](=O)N4CCCC(n5nc(-c6ccc(Oc7ccc(F)cc7F)cc6)c(C(N)=O)c5N)C4)cc(N)c3F)ccc2CC1C(=O)NC1CCCc2ccccc21)C(C)(C)C

> <Shape>
0.208

> <Color>
0.071

> <Negative vol penalty>
0.000

$$$$

  -OEChem-04052304143D

 89 97  0     1  0  0  0  0  0999 V2000
  -19.3147  -34.1091   21.8641 C   0  0  0  0  0  0  0  0  0  0  0  0
  -20.6390  -33.8272   21.5446 C   0  0  0  0  0  0  0  0  0  0  0  0
  -25.0205  -11.4513   20.7439 C   0  0  0  0  0  0  0  0  0  0  0  0
  -25.5323  -13.1768   22.3557 C   0  0  0  0  0  0  0  0  0  0  0  0
  -18.6064  -33.2571   22.7105 C   0  0  0  0  0  0  0  0  0  0  0  0
  -21.2561  -32.6935   22.0723 C   0  0  0  0  0  0  0  0  0  0  0  0
  -25.4453  -29.1685   19.3280 C   0  0  0  0  0  0  0  0  0  0  0  0
  -25.5979  -10.4973   21.5819 C   0  0  0  0  0  0  0  0  0  0  0  0
  -26.1097  -12.2228   23.1937 C   0  0  0  0  0  0  0  0  0  0  0  0
  -26.8359  -29.1220   19.4172 C   0  0  0  0  0  0  0  0  0  0  0  0
  -26.6142   -7.5535   23.4570 C   0  0  0  0  0  0  0  0  0  0  0  0
  -25.9253   -6.3557   23.6474 C   0  0  0  0  0  0  0  0  0  0  0  0
  -28.7026  -21.5823   20.5741 C   0  0  0  0  0  0  0  0  0  0  0  0
  -26.6664  -27.3438   21.0385 C   0  0  0  0  0  0  0  0  0  0  0  0
  -28.9549  -20.8093   17.9055 C   0  0  0  0  0  0  0  0  0  0  0  0
  -24.0494   -7.5788   24.5542 C   0  0  0  0  0  0  0  0  0  0  0  0
  -24.9878  -12.7911   21.1308 C   0  0  0  0  0  0  0  0  0  0  0  0
  -29.6949  -22.1496   19.7746 C   0  0  0  0  0  0  0  0  0  0  0  0
  -23.0469  -14.1920   20.2487 C   0  0  0  0  0  0  0  0  0  0  0  0
  -19.2122  -32.1073   23.2411 C   0  0  0  0  0  0  0  0  0  0  0  0
  -24.6533  -28.3090   20.1028 C   0  0  0  0  0  0  0  0  0  0  0  0
  -20.5557  -31.8261   22.9276 C   0  0  0  0  0  0  0  0  0  0  0  0
  -25.2661  -27.3796   20.9554 C   0  0  0  0  0  0  0  0  0  0  0  0
  -27.9627  -20.2421   18.7051 C   0  0  0  0  0  0  0  0  0  0  0  0
  -26.1424  -10.8830   22.8067 C   0  0  0  0  0  0  0  0  0  0  0  0
  -27.4466  -28.2116   20.2747 C   0  0  0  0  0  0  0  0  0  0  0  0
  -26.0207   -8.7639   23.8152 C   0  0  0  0  0  0  0  0  0  0  0  0
  -24.6429   -6.3683   24.1960 C   0  0  0  0  0  0  0  0  0  0  0  0
  -27.8366  -20.6285   20.0394 C   0  0  0  0  0  0  0  0  0  0  0  0
  -29.8210  -21.7631   18.4403 C   0  0  0  0  0  0  0  0  0  0  0  0
  -24.7383   -8.7766   24.3638 C   0  0  0  0  0  0  0  0  0  0  0  0
  -24.3920  -13.7771   20.2654 C   0  0  0  0  0  0  0  0  0  0  0  0
  -22.9917  -15.1381   19.2546 C   0  0  0  0  0  0  0  0  0  0  0  0
  -30.6104  -23.1590   20.3433 C   0  0  0  0  0  0  0  0  0  0  0  0
  -21.9458  -13.7607   21.0594 C   0  0  0  0  0  0  0  0  0  0  0  0
  -22.4658  -28.7120   22.3735 C   0  0  0  0  0  0  0  0  0  0  0  0
  -32.7896  -25.3152   19.5379 C   0  0  0  0  0  0  0  0  0  0  0  0
  -30.7565  -26.7697   20.0342 C   0  0  0  0  0  0  0  0  0  0  0  0
  -22.1300  -25.4993   22.0767 C   0  0  0  0  0  0  0  0  0  0  0  0
  -23.5047  -22.5158   21.1517 C   0  0  0  0  0  0  0  0  0  0  0  0
  -27.0754  -18.7808   16.8548 C   0  0  0  0  0  0  0  0  0  0  0  0
  -18.4209  -31.2417   24.1893 C   0  0  0  0  0  0  0  0  0  0  0  0
  -23.1552  -28.3533   19.9752 C   0  0  0  0  0  0  0  0  0  0  0  0
  -24.4613  -26.4212   21.7934 C   0  0  0  0  0  0  0  0  0  0  0  0
  -19.0324  -29.8600   24.4071 C   0  0  0  0  0  0  0  0  0  0  0  0
  -25.1005  -16.3686   15.1348 C   0  0  0  0  0  0  0  0  0  0  0  0
  -20.5316  -29.9743   24.6643 C   0  0  0  0  0  0  0  0  0  0  0  0
  -24.5674  -15.4717   16.2543 C   0  0  0  0  0  0  0  0  0  0  0  0
  -26.5293  -16.8328   15.4118 C   0  0  0  0  0  0  0  0  0  0  0  0
  -26.1998  -16.5718   17.8393 C   0  0  0  0  0  0  0  0  0  0  0  0
  -21.2523  -30.5927   23.4603 C   0  0  1  0  0  0  0  0  0  0  0  0
  -22.4346  -27.7831   21.1929 C   0  0  1  0  0  0  0  0  0  0  0  0
  -24.7407  -16.1320   17.6362 C   0  0  2  0  0  0  0  0  0  0  0  0
  -34.0411  -25.7226   20.2729 C   0  0  0  0  0  0  0  0  0  0  0  0
  -23.0021  -20.0588   21.0618 C   0  0  0  0  0  0  0  0  0  0  0  0
  -22.5758  -25.3003   25.0886 C   0  0  0  0  0  0  0  0  0  0  0  0
  -23.0092  -22.8523   24.7924 C   0  0  0  0  0  0  0  0  0  0  0  0
  -20.7809  -23.8034   24.1986 C   0  0  0  0  0  0  0  0  0  0  0  0
  -23.8040  -22.4443   18.2082 C   0  0  0  0  0  0  0  0  0  0  0  0
  -29.3904  -26.9028   20.6805 C   0  0  0  0  0  0  0  0  0  1  0  0
  -31.4838  -25.4677   20.2795 C   0  0  1  0  0  0  0  0  0  0  0  0
  -22.7718  -24.2934   22.7193 C   0  0  1  0  0  0  0  0  0  0  0  0
  -22.9648  -21.3774   20.3049 C   0  0  2  0  0  0  0  0  0  0  0  0
  -22.2998  -24.0816   24.1855 C   0  0  0  0  0  0  0  0  0  0  0  0
  -25.1375  -14.4079   19.3542 N   0  0  0  0  0  0  0  0  0  0  0  0
  -24.2577  -15.2287   18.7555 N   0  0  0  0  0  0  0  0  0  0  0  0
  -22.9998  -26.5077   21.6381 N   0  0  0  0  0  0  0  0  0  0  0  0
  -26.6164  -17.4519   16.7362 N   0  0  0  0  0  0  0  0  0  0  0  0
  -21.9842  -15.8930   18.7674 N   0  0  0  0  0  0  0  0  0  0  0  0
  -22.1773  -12.7805   22.0341 N   0  0  0  0  0  0  0  0  0  0  0  0
  -27.0842  -19.2736   18.1593 N   0  0  0  0  0  0  0  0  0  0  0  0
  -30.6386  -24.3861   19.7963 N   0  0  0  0  0  0  0  0  0  0  0  0
  -21.4165  -29.6104   22.4103 N   0  0  0  0  0  0  0  0  0  0  0  0
  -22.4987  -23.1658   21.8349 N   0  0  0  0  0  0  0  0  0  0  0  0
  -31.3730  -22.8038   21.3774 N   0  3  0  0  0  0  0  0  0  0  0  0
  -23.7726  -21.2285   19.0614 N   0  3  0  0  0  0  0  0  0  0  0  0
  -20.7873  -14.2188   20.9124 O   0  0  0  0  0  0  0  0  0  0  0  0
  -23.3737  -28.6195   23.1914 O   0  0  0  0  0  0  0  0  0  0  0  0
  -32.8458  -24.8662   18.3932 O   0  0  0  0  0  0  0  0  0  0  0  0
  -31.2396  -27.6751   19.3546 O   0  0  0  0  0  0  0  0  0  0  0  0
  -20.9025  -25.5417   21.9615 O   0  0  0  0  0  0  0  0  0  0  0  0
  -24.6998  -22.7977   21.2049 O   0  0  0  0  0  0  0  0  0  0  0  0
  -27.4085  -19.4428   15.8684 O   0  0  0  0  0  0  0  0  0  0  0  0
  -26.7057   -9.9523   23.6248 O   0  0  0  0  0  0  0  0  0  0  0  0
  -28.8037  -28.1645   20.3641 O   0  0  0  0  0  0  0  0  0  1  0  0
  -23.9809   -5.2181   24.3774 F   0  0  0  0  0  0  0  0  0  0  0  0
  -26.8866  -20.0897   20.8173 F   0  0  0  0  0  0  0  0  0  0  0  0
  -30.7715  -22.3024   17.6640 F   0  0  0  0  0  0  0  0  0  0  0  0
  -24.1626   -9.9364   24.7088 F   0  0  0  0  0  0  0  0  0  0  0  0
  1  2  1  0  0  0  0
  1  5  2  0  0  0  0
  2  6  2  0  0  0  0
  3  8  2  0  0  0  0
  3 17  1  0  0  0  0
  4  9  1  0  0  0  0
  4 17  2  0  0  0  0
  5 20  1  0  0  0  0
  6 22  1  0  0  0  0
  7 10  2  0  0  0  0
  7 21  1  0  0  0  0
  8 25  1  0  0  0  0
  9 25  2  0  0  0  0
 10 26  1  0  0  0  0
 11 12  2  0  0  0  0
 11 27  1  0  0  0  0
 12 28  1  0  0  0  0
 13 18  1  0  0  0  0
 13 29  2  0  0  0  0
 14 23  1  0  0  0  0
 14 26  2  0  0  0  0
 15 24  2  0  0  0  0
 15 30  1  0  0  0  0
 16 28  2  0  0  0  0
 16 31  1  0  0  0  0
 17 32  1  0  0  0  0
 18 30  2  0  0  0  0
 18 34  1  0  0  0  0
 19 32  1  0  0  0  0
 19 33  2  0  0  0  0
 19 35  1  0  0  0  0
 20 22  2  0  0  0  0
 20 42  1  0  0  0  0
 21 23  2  0  0  0  0
 21 43  1  0  0  0  0
 22 51  1  0  0  0  0
 23 44  1  0  0  0  0
 24 29  1  0  0  0  0
 24 71  1  0  0  0  0
 25 84  1  0  0  0  0
 26 85  1  0  0  0  0
 27 31  2  0  0  0  0
 27 84  1  0  0  0  0
 28 86  1  0  0  0  0
 29 87  1  0  0  0  0
 30 88  1  0  0  0  0
 31 89  1  0  0  0  0
 32 65  2  0  0  0  0
 33 66  1  0  0  0  0
 33 69  1  0  0  0  0
 34 72  1  0  0  0  0
 34 75  2  0  0  0  0
 35 70  1  0  0  0  0
 35 77  2  0  0  0  0
 36 52  1  0  0  0  0
 36 73  1  0  0  0  0
 36 78  2  0  0  0  0
 37 54  1  0  0  0  0
 37 61  1  0  0  0  0
 37 79  2  0  0  0  0
 38 60  1  0  0  0  0
 38 61  1  0  0  0  0
 38 80  2  0  0  0  0
 39 62  1  0  0  0  0
 39 67  1  0  0  0  0
 39 81  2  0  0  0  0
 40 63  1  0  0  0  0
 40 74  1  0  0  0  0
 40 82  2  0  0  0  0
 41 68  1  0  0  0  0
 41 71  1  0  0  0  0
 41 83  2  0  0  0  0
 42 45  1  0  0  0  0
 43 52  1  0  0  0  0
 44 67  1  0  0  0  0
 45 47  1  0  0  0  0
 46 48  1  0  0  0  0
 46 49  1  0  0  0  0
 47 51  1  0  0  0  0
 48 53  1  0  0  0  0
 49 68  1  0  0  0  0
 50 53  1  0  0  0  0
 50 68  1  0  0  0  0
 51 73  1  0  0  0  0
 52 67  1  0  0  0  0
 53 66  1  0  0  0  0
 55 63  1  0  0  0  0
 56 64  1  0  0  0  0
 57 64  1  0  0  0  0
 58 64  1  0  0  0  0
 59 76  1  0  0  0  0
 60 85  1  0  0  0  0
 61 72  1  0  0  0  0
 62 64  1  0  0  0  0
 62 74  1  0  0  0  0
 63 76  1  0  0  0  0
 65 66  1  0  0  0  0
M  CHG  2  75   1  76   1
M  ISO  4  41 100  60 101  71 100  85 101
M  END
> <Batch ID>
0168

> <Smiles>
CNC(C)C(=O)NC(C(=O)N1Cc2cc([101O:1][101CH2:1]C(=O)C(NC(=N)c3cc(F)c([100NH:0][100C:0](=O)N4CCCC(n5nc(-c6ccc(Oc7ccc(F)cc7F)cc6)c(C(N)=O)c5N)C4)cc3F)C(C)=O)ccc2CC1C(=O)NC1CCCc2ccccc21)C(C)(C)C

> <Shape>
0.189

> <Color>
0.077

> <Negative vol penalty>
0.000

$$$$

  -OEChem-04052304143D

 87 95  0     1  0  0  0  0  0999 V2000
  -25.4532  -37.3602   17.2794 C   0  0  0  0  0  0  0  0  0  0  0  0
  -25.8358  -36.0523   16.9995 C   0  0  0  0  0  0  0  0  0  0  0  0
  -24.2745   -8.4122   21.0494 C   0  0  0  0  0  0  0  0  0  0  0  0
  -23.2969  -10.5838   20.6426 C   0  0  0  0  0  0  0  0  0  0  0  0
  -27.7256  -18.5748   20.0782 C   0  0  0  0  0  0  0  0  0  0  0  0
  -25.4576  -37.8201   18.5956 C   0  0  0  0  0  0  0  0  0  0  0  0
  -26.2242  -35.2038   18.0357 C   0  0  0  0  0  0  0  0  0  0  0  0
  -25.2558  -29.1683   18.4106 C   0  0  0  0  0  0  0  0  0  0  0  0
  -27.8985  -17.2305   19.7490 C   0  0  0  0  0  0  0  0  0  0  0  0
  -23.2185   -8.0970   21.9045 C   0  0  0  0  0  0  0  0  0  0  0  0
  -22.2409  -10.2686   21.4976 C   0  0  0  0  0  0  0  0  0  0  0  0
  -26.0666  -28.0691   18.1311 C   0  0  0  0  0  0  0  0  0  0  0  0
  -22.3021   -8.7773   25.0859 C   0  0  0  0  0  0  0  0  0  0  0  0
  -22.6138   -8.1747   26.3047 C   0  0  0  0  0  0  0  0  0  0  0  0
  -26.6745  -27.9325   20.4616 C   0  0  0  0  0  0  0  0  0  0  0  0
  -30.0434  -17.2341   20.8611 C   0  0  0  0  0  0  0  0  0  0  0  0
  -21.2791   -6.2547   25.6968 C   0  0  0  0  0  0  0  0  0  0  0  0
  -24.3137   -9.6556   20.4185 C   0  0  0  0  0  0  0  0  0  0  0  0
  -28.7115  -19.2488   20.7988 C   0  0  0  0  0  0  0  0  0  0  0  0
  -25.4730   -9.7531   18.1482 C   0  0  0  0  0  0  0  0  0  0  0  0
  -25.8370  -36.9739   19.6494 C   0  0  0  0  0  0  0  0  0  0  0  0
  -25.1566  -29.6655   19.7181 C   0  0  0  0  0  0  0  0  0  0  0  0
  -26.2350  -35.6532   19.3671 C   0  0  0  0  0  0  0  0  0  0  0  0
  -25.8598  -29.0366   20.7555 C   0  0  0  0  0  0  0  0  0  0  0  0
  -29.0574  -16.5601   20.1405 C   0  0  0  0  0  0  0  0  0  0  0  0
  -29.8704  -18.5785   21.1903 C   0  0  0  0  0  0  0  0  0  0  0  0
  -22.2017   -9.0252   22.1286 C   0  0  0  0  0  0  0  0  0  0  0  0
  -26.7783  -27.4528   19.1562 C   0  0  0  0  0  0  0  0  0  0  0  0
  -21.4788   -8.1186   24.1726 C   0  0  0  0  0  0  0  0  0  0  0  0
  -22.1023   -6.9135   26.6101 C   0  0  0  0  0  0  0  0  0  0  0  0
  -20.9674   -6.8573   24.4780 C   0  0  0  0  0  0  0  0  0  0  0  0
  -25.4045   -9.9820   19.5355 C   0  0  0  0  0  0  0  0  0  0  0  0
  -26.7038  -10.2392   17.7803 C   0  0  0  0  0  0  0  0  0  0  0  0
  -28.1235  -22.9359   20.3372 C   0  0  0  0  0  0  0  0  0  0  0  0
  -28.4971  -20.6734   21.1321 C   0  0  0  0  0  0  0  0  0  0  0  0
  -24.5100   -9.1547   17.2705 C   0  0  0  0  0  0  0  0  0  0  0  0
  -28.3169  -21.6468   20.0100 C   0  0  0  0  0  0  0  0  0  0  0  0
  -27.9424  -24.0354   19.3411 C   0  0  0  0  0  0  0  0  0  0  0  0
  -25.8604  -32.4263   21.1275 C   0  0  0  0  0  0  0  0  0  0  0  0
  -24.4337  -31.0360   23.6876 C   0  0  0  0  0  0  0  0  0  0  0  0
  -23.5207  -28.1648   25.2906 C   0  0  0  0  0  0  0  0  0  0  0  0
  -30.3218  -14.3813   20.1166 C   0  0  0  0  0  0  0  0  0  0  0  0
  -25.8712  -37.5303   21.0508 C   0  0  0  0  0  0  0  0  0  0  0  0
  -24.2568  -30.8355   20.0077 C   0  0  0  0  0  0  0  0  0  0  0  0
  -25.7717  -29.5191   22.1795 C   0  0  0  0  0  0  0  0  0  0  0  0
  -25.9373  -36.4545   22.1319 C   0  0  0  0  0  0  0  0  0  0  0  0
  -31.1121  -10.9639   19.5053 C   0  0  0  0  0  0  0  0  0  0  0  0
  -26.9885  -35.4070   21.7790 C   0  0  0  0  0  0  0  0  0  0  0  0
  -29.7447  -10.3046   19.3113 C   0  0  0  0  0  0  0  0  0  0  0  0
  -31.0691  -12.0557   20.5729 C   0  0  0  0  0  0  0  0  0  0  0  0
  -28.6635  -12.4162   20.1825 C   0  0  0  0  0  0  0  0  0  0  0  0
  -26.6390  -34.6951   20.4665 C   0  0  1  0  0  0  0  0  0  0  0  0
  -24.6323  -31.5755   21.2878 C   0  0  1  0  0  0  0  0  0  0  0  0
  -28.6420  -11.3543   19.0710 C   0  0  2  0  0  0  0  0  0  0  0  0
  -22.4026  -27.3471   27.3831 C   0  0  0  0  0  0  0  0  0  0  0  0
  -26.9558  -31.6742   25.2818 C   0  0  0  0  0  0  0  0  0  0  0  0
  -26.1890  -30.0397   27.0164 C   0  0  0  0  0  0  0  0  0  0  0  0
  -24.8156  -32.0611   26.5163 C   0  0  0  0  0  0  0  0  0  0  0  0
  -31.7314  -18.5733   22.8523 C   0  0  0  0  0  0  0  0  0  0  0  0
  -21.3716  -26.8265   23.7578 C   0  0  0  0  0  0  0  0  0  0  0  0
  -27.7380  -25.4176   19.9262 C   0  0  0  0  0  0  0  0  0  1  0  0
  -24.9021  -30.1745   24.8354 C   0  0  1  0  0  0  0  0  0  0  0  0
  -22.2096  -27.7395   25.9265 C   0  0  2  0  0  0  0  0  0  0  0  0
  -25.7190  -30.9792   25.8854 C   0  0  0  0  0  0  0  0  0  0  0  0
  -26.5044  -10.5678   20.0164 N   0  0  0  0  0  0  0  0  0  0  0  0
  -27.2756  -10.7110   18.9251 N   0  0  0  0  0  0  0  0  0  0  0  0
  -24.8836  -30.6703   22.4110 N   0  0  0  0  0  0  0  0  0  0  0  0
  -30.0037  -13.0160   20.2771 N   0  0  0  0  0  0  0  0  0  0  0  0
  -27.3418  -10.3047   16.5925 N   0  0  0  0  0  0  0  0  0  0  0  0
  -23.2970   -8.7096   17.8134 N   0  0  0  0  0  0  0  0  0  0  0  0
  -29.2324  -15.1944   19.8056 N   0  0  0  0  0  0  0  0  0  0  0  0
  -30.8815  -19.2433   21.9193 N   0  0  0  0  0  0  0  0  0  0  0  0
  -25.6019  -33.7101   20.6865 N   0  0  0  0  0  0  0  0  0  0  0  0
  -23.7101  -29.5281   25.3735 N   0  0  0  0  0  0  0  0  0  0  0  0
  -21.6347  -26.5734   25.1979 N   0  3  0  0  0  0  0  0  0  0  0  0
  -28.4968  -21.0127   22.3110 O   0  0  0  0  0  0  0  0  0  0  0  0
  -24.7258   -9.0039   16.0440 O   0  0  0  0  0  0  0  0  0  0  0  0
  -27.9588  -23.8322   18.1306 O   0  0  0  0  0  0  0  0  0  0  0  0
  -26.9609  -31.9534   21.3862 O   0  0  0  0  0  0  0  0  0  0  0  0
  -23.6901  -31.9937   23.9144 O   0  0  0  0  0  0  0  0  0  0  0  0
  -24.3008  -27.3670   24.7753 O   0  0  0  0  0  0  0  0  0  0  0  0
  -31.4798  -14.7941   20.2187 O   0  0  0  0  0  0  0  0  0  0  0  0
  -28.3927  -21.1613   18.7236 O   0  0  0  0  0  0  0  0  0  0  0  0
  -21.1710   -8.7178   22.9627 O   0  0  0  0  0  0  0  0  0  0  0  0
  -27.5709  -26.3801   18.8860 O   0  0  0  0  0  0  0  0  0  1  0  0
  -22.4030   -6.3343   27.7799 F   0  0  0  0  0  0  0  0  0  0  0  0
  -20.1770   -6.2192   23.6041 F   0  0  0  0  0  0  0  0  0  0  0  0
  1  2  1  0  0  0  0
  1  6  2  0  0  0  0
  2  7  2  0  0  0  0
  3 10  2  0  0  0  0
  3 18  1  0  0  0  0
  4 11  1  0  0  0  0
  4 18  2  0  0  0  0
  5  9  2  0  0  0  0
  5 19  1  0  0  0  0
  6 21  1  0  0  0  0
  7 23  1  0  0  0  0
  8 12  2  0  0  0  0
  8 22  1  0  0  0  0
  9 25  1  0  0  0  0
 10 27  1  0  0  0  0
 11 27  2  0  0  0  0
 12 28  1  0  0  0  0
 13 14  2  0  0  0  0
 13 29  1  0  0  0  0
 14 30  1  0  0  0  0
 15 24  1  0  0  0  0
 15 28  2  0  0  0  0
 16 25  2  0  0  0  0
 16 26  1  0  0  0  0
 17 30  2  0  0  0  0
 17 31  1  0  0  0  0
 18 32  1  0  0  0  0
 19 26  2  0  0  0  0
 19 35  1  0  0  0  0
 20 32  1  0  0  0  0
 20 33  2  0  0  0  0
 20 36  1  0  0  0  0
 21 23  2  0  0  0  0
 21 43  1  0  0  0  0
 22 24  2  0  0  0  0
 22 44  1  0  0  0  0
 23 52  1  0  0  0  0
 24 45  1  0  0  0  0
 25 71  1  0  0  0  0
 26 72  1  0  0  0  0
 27 84  1  0  0  0  0
 28 85  1  0  0  0  0
 29 31  2  0  0  0  0
 29 84  1  0  0  0  0
 30 86  1  0  0  0  0
 31 87  1  0  0  0  0
 32 65  2  0  0  0  0
 33 66  1  0  0  0  0
 33 69  1  0  0  0  0
 34 37  2  0  0  0  0
 34 38  1  0  0  0  0
 35 37  1  0  0  0  0
 35 76  2  0  0  0  0
 36 70  1  0  0  0  0
 36 77  2  0  0  0  0
 37 83  1  0  0  0  0
 38 61  1  0  0  0  0
 38 78  2  0  0  0  0
 39 53  1  0  0  0  0
 39 73  1  0  0  0  0
 39 79  2  0  0  0  0
 40 62  1  0  0  0  0
 40 67  1  0  0  0  0
 40 80  2  0  0  0  0
 41 63  1  0  0  0  0
 41 74  1  0  0  0  0
 41 81  2  0  0  0  0
 42 68  1  0  0  0  0
 42 71  1  0  0  0  0
 42 82  2  0  0  0  0
 43 46  1  0  0  0  0
 44 53  1  0  0  0  0
 45 67  1  0  0  0  0
 46 48  1  0  0  0  0
 47 49  1  0  0  0  0
 47 50  1  0  0  0  0
 48 52  1  0  0  0  0
 49 54  1  0  0  0  0
 50 68  1  0  0  0  0
 51 54  1  0  0  0  0
 51 68  1  0  0  0  0
 52 73  1  0  0  0  0
 53 67  1  0  0  0  0
 54 66  1  0  0  0  0
 55 63  1  0  0  0  0
 56 64  1  0  0  0  0
 57 64  1  0  0  0  0
 58 64  1  0  0  0  0
 59 72  1  0  0  0  0
 60 75  1  0  0  0  0
 61 85  1  0  0  0  0
 62 64  1  0  0  0  0
 62 74  1  0  0  0  0
 63 75  1  0  0  0  0
 65 66  1  0  0  0  0
M  CHG  1  75   1
M  ISO  4  42 100  61 101  71 100  85 101
M  END
> <Batch ID>
0168

> <Smiles>
CNc1cc([100NH:0][100C:0](=O)N2CCCC(n3nc(-c4ccc(Oc5ccc(F)cc5F)cc4)c(C(N)=O)c3N)C2)ccc1C(=O)C(=O)CC(=O)[101CH2:1][101O:1]c1ccc2c(c1)CN(C(=O)C(NC(=O)C(C)NC)C(C)(C)C)C(C(=O)NC1CCCc3ccccc31)C2

> <Shape>
0.265

> <Color>
0.096

> <Negative vol penalty>
0.000

$$$$

  -OEChem-04052304143D

 90 98  0     1  0  0  0  0  0999 V2000
  -28.8362  -35.4664   17.3935 C   0  0  0  0  0  0  0  0  0  0  0  0
  -28.6701  -34.0971   17.2125 C   0  0  0  0  0  0  0  0  0  0  0  0
  -23.1710   -9.8969   21.4478 C   0  0  0  0  0  0  0  0  0  0  0  0
  -23.8272  -10.8472   23.5699 C   0  0  0  0  0  0  0  0  0  0  0  0
  -28.8248  -36.0048   18.6796 C   0  0  0  0  0  0  0  0  0  0  0  0
  -28.4935  -33.2652   18.3176 C   0  0  0  0  0  0  0  0  0  0  0  0
  -25.0216  -28.2291   18.6172 C   0  0  0  0  0  0  0  0  0  0  0  0
  -22.4671   -8.8941   22.1145 C   0  0  0  0  0  0  0  0  0  0  0  0
  -23.1232   -9.8445   24.2366 C   0  0  0  0  0  0  0  0  0  0  0  0
  -25.3256  -26.8726   18.5114 C   0  0  0  0  0  0  0  0  0  0  0  0
  -23.1682   -5.9950   23.7044 C   0  0  0  0  0  0  0  0  0  0  0  0
  -23.3210   -4.6852   23.2499 C   0  0  0  0  0  0  0  0  0  0  0  0
  -29.4197  -18.6169   21.0795 C   0  0  0  0  0  0  0  0  0  0  0  0
  -31.1197  -20.2498   20.5500 C   0  0  0  0  0  0  0  0  0  0  0  0
  -25.4395  -26.7168   20.9160 C   0  0  0  0  0  0  0  0  0  0  0  0
  -31.5501  -17.8992   20.1946 C   0  0  0  0  0  0  0  0  0  0  0  0
  -20.9495   -4.5632   22.8044 C   0  0  0  0  0  0  0  0  0  0  0  0
  -23.8511  -10.8735   22.1755 C   0  0  0  0  0  0  0  0  0  0  0  0
  -29.8429  -19.9447   21.0215 C   0  0  0  0  0  0  0  0  0  0  0  0
  -24.0890  -13.1637   21.0773 C   0  0  0  0  0  0  0  0  0  0  0  0
  -28.6383  -35.1803   19.8004 C   0  0  0  0  0  0  0  0  0  0  0  0
  -24.9349  -28.8431   19.8749 C   0  0  0  0  0  0  0  0  0  0  0  0
  -28.4809  -33.7929   19.6199 C   0  0  0  0  0  0  0  0  0  0  0  0
  -25.1317  -28.0807   21.0351 C   0  0  0  0  0  0  0  0  0  0  0  0
  -30.2733  -17.5941   20.6661 C   0  0  0  0  0  0  0  0  0  0  0  0
  -31.9734  -19.2270   20.1365 C   0  0  0  0  0  0  0  0  0  0  0  0
  -22.4432   -8.8679   23.5089 C   0  0  0  0  0  0  0  0  0  0  0  0
  -25.5375  -26.1169   19.6608 C   0  0  0  0  0  0  0  0  0  0  0  0
  -21.9061   -6.5889   23.7090 C   0  0  0  0  0  0  0  0  0  0  0  0
  -22.2116   -3.9693   22.7999 C   0  0  0  0  0  0  0  0  0  0  0  0
  -20.7967   -5.8730   23.2590 C   0  0  0  0  0  0  0  0  0  0  0  0
  -24.5789  -11.9092   21.4874 C   0  0  0  0  0  0  0  0  0  0  0  0
  -25.1629  -13.7713   20.4741 C   0  0  0  0  0  0  0  0  0  0  0  0
  -28.9338  -21.0343   21.4613 C   0  0  0  0  0  0  0  0  0  0  0  0
  -22.7801  -13.7291   21.2283 C   0  0  0  0  0  0  0  0  0  0  0  0
  -26.5040  -31.1875   21.3395 C   0  0  0  0  0  0  0  0  0  0  0  0
  -26.3396  -22.6183   20.5011 C   0  0  0  0  0  0  0  0  0  0  0  0
  -24.2363  -30.7554   23.6183 C   0  0  0  0  0  0  0  0  0  0  0  0
  -21.9542  -28.6795   25.0777 C   0  0  0  0  0  0  0  0  0  0  0  0
  -30.5659  -15.1116   20.3529 C   0  0  0  0  0  0  0  0  0  0  0  0
  -28.6806  -35.8019   21.1739 C   0  0  0  0  0  0  0  0  0  0  0  0
  -24.5797  -30.3015   19.9728 C   0  0  0  0  0  0  0  0  0  0  0  0
  -25.0301  -28.6878   22.4097 C   0  0  0  0  0  0  0  0  0  0  0  0
  -28.1134  -34.9010   22.2679 C   0  0  0  0  0  0  0  0  0  0  0  0
  -29.6628  -11.9024   19.1029 C   0  0  0  0  0  0  0  0  0  0  0  0
  -28.6654  -33.4854   22.1333 C   0  0  0  0  0  0  0  0  0  0  0  0
  -28.2194  -11.7213   19.5781 C   0  0  0  0  0  0  0  0  0  0  0  0
  -30.5129  -12.6365   20.1383 C   0  0  0  0  0  0  0  0  0  0  0  0
  -28.5170  -13.7351   21.0758 C   0  0  0  0  0  0  0  0  0  0  0  0
  -28.2620  -32.8611   20.7921 C   0  0  1  0  0  0  0  0  0  0  0  0
  -25.0234  -30.9375   21.2866 C   0  0  1  0  0  0  0  0  0  0  0  0
  -27.6058  -13.0580   20.0389 C   0  0  2  0  0  0  0  0  0  0  0  0
  -20.2780  -28.5953   26.9433 C   0  0  0  0  0  0  0  0  0  0  0  0
  -25.8169  -20.9833   24.6372 C   0  0  0  0  0  0  0  0  0  0  0  0
  -23.9878  -19.5580   23.6977 C   0  0  0  0  0  0  0  0  0  0  0  0
  -26.5027  -30.4441   25.6373 C   0  0  0  0  0  0  0  0  0  0  0  0
  -24.8522  -29.4413   27.2306 C   0  0  0  0  0  0  0  0  0  0  0  0
  -24.5595  -31.7924   26.4500 C   0  0  0  0  0  0  0  0  0  0  0  0
  -33.9442  -18.7366   18.6871 C   0  0  0  0  0  0  0  0  0  0  0  0
  -19.7153  -28.2083   23.2004 C   0  0  0  0  0  0  0  0  0  0  0  0
  -26.0397  -24.0789   20.7790 C   0  0  0  0  0  0  0  0  0  1  0  0
  -25.2532  -21.0804   22.1497 C   0  0  0  0  0  0  0  0  0  0  0  0
  -26.5684  -21.7363   21.7226 C   0  0  1  0  0  0  0  0  0  0  0  0
  -24.1079  -29.8892   24.8481 C   0  0  1  0  0  0  0  0  0  0  0  0
  -20.5033  -28.8939   25.4693 C   0  0  2  0  0  0  0  0  0  0  0  0
  -25.3487  -20.1985   23.4110 C   0  0  0  0  0  0  0  0  0  0  0  0
  -25.0095  -30.3804   26.0156 C   0  0  0  0  0  0  0  0  0  0  0  0
  -25.8641  -11.7292   21.1712 N   0  0  0  0  0  0  0  0  0  0  0  0
  -26.1908  -12.8785   20.5560 N   0  0  0  0  0  0  0  0  0  0  0  0
  -24.6866  -30.1188   22.4530 N   0  0  0  0  0  0  0  0  0  0  0  0
  -29.8716  -13.8954   20.5243 N   0  0  0  0  0  0  0  0  0  0  0  0
  -25.3189  -14.9768   19.8868 N   0  0  0  0  0  0  0  0  0  0  0  0
  -21.7942  -12.9693   21.8725 N   0  0  0  0  0  0  0  0  0  0  0  0
  -29.8435  -16.2452   20.7243 N   0  0  0  0  0  0  0  0  0  0  0  0
  -33.2643  -19.5351   19.6595 N   0  0  0  0  0  0  0  0  0  0  0  0
  -27.5735  -20.7723   21.3593 N   0  0  0  0  0  0  0  0  0  0  0  0
  -26.8855  -32.4163   20.8354 N   0  0  0  0  0  0  0  0  0  0  0  0
  -22.6855  -29.8449   25.1694 N   0  0  0  0  0  0  0  0  0  0  0  0
  -19.6140  -28.0056   24.6686 N   0  3  0  0  0  0  0  0  0  0  0  0
  -29.4140  -22.0911   21.8628 O   0  0  0  0  0  0  0  0  0  0  0  0
  -22.4888  -14.8678   20.7899 O   0  0  0  0  0  0  0  0  0  0  0  0
  -27.2454  -30.3298   21.8047 O   0  0  0  0  0  0  0  0  0  0  0  0
  -26.3584  -22.1681   19.3552 O   0  0  0  0  0  0  0  0  0  0  0  0
  -23.9409  -31.9510   23.6872 O   0  0  0  0  0  0  0  0  0  0  0  0
  -22.3956  -27.5867   24.7292 O   0  0  0  0  0  0  0  0  0  0  0  0
  -31.7063  -15.1473   19.8838 O   0  0  0  0  0  0  0  0  0  0  0  0
  -21.7561   -7.8897   24.1598 O   0  0  0  0  0  0  0  0  0  0  0  0
  -25.8350  -24.7927   19.5604 O   0  0  0  0  0  0  0  0  0  1  0  0
  -22.3587   -2.7120   22.3620 F   0  0  0  0  0  0  0  0  0  0  0  0
  -19.5819   -6.4387   23.2599 F   0  0  0  0  0  0  0  0  0  0  0  0
  1  2  1  0  0  0  0
  1  5  2  0  0  0  0
  2  6  2  0  0  0  0
  3  8  2  0  0  0  0
  3 18  1  0  0  0  0
  4  9  1  0  0  0  0
  4 18  2  0  0  0  0
  5 21  1  0  0  0  0
  6 23  1  0  0  0  0
  7 10  2  0  0  0  0
  7 22  1  0  0  0  0
  8 27  1  0  0  0  0
  9 27  2  0  0  0  0
 10 28  1  0  0  0  0
 11 12  2  0  0  0  0
 11 29  1  0  0  0  0
 12 30  1  0  0  0  0
 13 19  2  0  0  0  0
 13 25  1  0  0  0  0
 14 19  1  0  0  0  0
 14 26  2  0  0  0  0
 15 24  1  0  0  0  0
 15 28  2  0  0  0  0
 16 25  2  0  0  0  0
 16 26  1  0  0  0  0
 17 30  2  0  0  0  0
 17 31  1  0  0  0  0
 18 32  1  0  0  0  0
 19 34  1  0  0  0  0
 20 32  1  0  0  0  0
 20 33  2  0  0  0  0
 20 35  1  0  0  0  0
 21 23  2  0  0  0  0
 21 41  1  0  0  0  0
 22 24  2  0  0  0  0
 22 42  1  0  0  0  0
 23 50  1  0  0  0  0
 24 43  1  0  0  0  0
 25 74  1  0  0  0  0
 26 75  1  0  0  0  0
 27 87  1  0  0  0  0
 28 88  1  0  0  0  0
 29 31  2  0  0  0  0
 29 87  1  0  0  0  0
 30 89  1  0  0  0  0
 31 90  1  0  0  0  0
 32 68  2  0  0  0  0
 33 69  1  0  0  0  0
 33 72  1  0  0  0  0
 34 76  1  0  0  0  0
 34 80  2  0  0  0  0
 35 73  1  0  0  0  0
 35 81  2  0  0  0  0
 36 51  1  0  0  0  0
 36 77  1  0  0  0  0
 36 82  2  0  0  0  0
 37 61  1  0  0  0  0
 37 63  1  0  0  0  0
 37 83  2  0  0  0  0
 38 64  1  0  0  0  0
 38 70  1  0  0  0  0
 38 84  2  0  0  0  0
 39 65  1  0  0  0  0
 39 78  1  0  0  0  0
 39 85  2  0  0  0  0
 40 71  1  0  0  0  0
 40 74  1  0  0  0  0
 40 86  2  0  0  0  0
 41 44  1  0  0  0  0
 42 51  1  0  0  0  0
 43 70  1  0  0  0  0
 44 46  1  0  0  0  0
 45 47  1  0  0  0  0
 45 48  1  0  0  0  0
 46 50  1  0  0  0  0
 47 52  1  0  0  0  0
 48 71  1  0  0  0  0
 49 52  1  0  0  0  0
 49 71  1  0  0  0  0
 50 77  1  0  0  0  0
 51 70  1  0  0  0  0
 52 69  1  0  0  0  0
 53 65  1  0  0  0  0
 54 66  1  0  0  0  0
 55 66  1  0  0  0  0
 56 67  1  0  0  0  0
 57 67  1  0  0  0  0
 58 67  1  0  0  0  0
 59 75  1  0  0  0  0
 60 79  1  0  0  0  0
 61 88  1  0  0  0  0
 62 63  1  0  0  0  0
 62 66  1  0  0  0  0
 63 76  1  0  0  0  0
 64 67  1  0  0  0  0
 64 78  1  0  0  0  0
 65 79  1  0  0  0  0
 68 69  1  0  0  0  0
M  CHG  1  79   1
M  ISO  4  40 100  61 101  74 100  88 101
M  END
> <Batch ID>
0168

> <Smiles>
CNc1cc([100NH:0][100C:0](=O)N2CCCC(n3nc(-c4ccc(Oc5ccc(F)cc5F)cc4)c(C(N)=O)c3N)C2)cc(C(=O)NC(CC(C)C)C(=O)[101CH2:1][101O:1]c2ccc3c(c2)CN(C(=O)C(NC(=O)C(C)NC)C(C)(C)C)C(C(=O)NC2CCCc4ccccc42)C3)c1

> <Shape>
0.291

> <Color>
0.178

> <Negative vol penalty>
0.000

$$$$

  -OEChem-04052304143D

 81 89  0     1  0  0  0  0  0999 V2000
  -31.0919  -30.2243   25.2334 C   0  0  0  0  0  0  0  0  0  0  0  0
  -30.4078  -29.2346   24.5349 C   0  0  0  0  0  0  0  0  0  0  0  0
  -23.3734  -10.0124   21.6041 C   0  0  0  0  0  0  0  0  0  0  0  0
  -22.6941  -12.3264   21.4596 C   0  0  0  0  0  0  0  0  0  0  0  0
  -30.3823  -31.2137   25.9127 C   0  0  0  0  0  0  0  0  0  0  0  0
  -29.0135  -29.2331   24.5162 C   0  0  0  0  0  0  0  0  0  0  0  0
  -27.1335  -28.3856   19.8911 C   0  0  0  0  0  0  0  0  0  0  0  0
  -22.3946   -9.7855   22.5717 C   0  0  0  0  0  0  0  0  0  0  0  0
  -21.7153  -12.0995   22.4271 C   0  0  0  0  0  0  0  0  0  0  0  0
  -27.1338  -27.0680   19.4353 C   0  0  0  0  0  0  0  0  0  0  0  0
  -19.0529   -9.2780   22.6632 C   0  0  0  0  0  0  0  0  0  0  0  0
  -18.2704   -8.1302   22.5370 C   0  0  0  0  0  0  0  0  0  0  0  0
  -24.8006  -26.8729   20.0160 C   0  0  0  0  0  0  0  0  0  0  0  0
  -19.0510   -7.3614   24.6903 C   0  0  0  0  0  0  0  0  0  0  0  0
  -30.0408  -19.4443   19.7218 C   0  0  0  0  0  0  0  0  0  0  0  0
  -23.5232  -11.2829   21.0481 C   0  0  0  0  0  0  0  0  0  0  0  0
  -24.3969  -11.3907   18.6539 C   0  0  0  0  0  0  0  0  0  0  0  0
  -28.9787  -31.2299   25.8943 C   0  0  0  0  0  0  0  0  0  0  0  0
  -25.9676  -28.9542   20.4238 C   0  0  0  0  0  0  0  0  0  0  0  0
  -28.2844  -30.2229   25.1970 C   0  0  0  0  0  0  0  0  0  0  0  0
  -24.7875  -28.1987   20.4755 C   0  0  0  0  0  0  0  0  0  0  0  0
  -21.5656  -10.8290   22.9831 C   0  0  0  0  0  0  0  0  0  0  0  0
  -25.9680  -26.3105   19.5003 C   0  0  0  0  0  0  0  0  0  0  0  0
  -19.8345   -9.4675   23.8029 C   0  0  0  0  0  0  0  0  0  0  0  0
  -18.2695   -7.1719   23.5505 C   0  0  0  0  0  0  0  0  0  0  0  0
  -19.8335   -8.5092   24.8164 C   0  0  0  0  0  0  0  0  0  0  0  0
  -24.5345  -11.5180   20.0491 C   0  0  0  0  0  0  0  0  0  0  0  0
  -25.6327  -11.7232   18.1552 C   0  0  0  0  0  0  0  0  0  0  0  0
  -28.6698  -19.5151   19.7149 C   0  0  0  0  0  0  0  0  0  0  0  0
  -29.3069  -17.4869   19.9522 C   0  0  0  0  0  0  0  0  0  0  0  0
  -23.2542  -11.0063   17.8779 C   0  0  0  0  0  0  0  0  0  0  0  0
  -25.1429  -30.1442   23.2535 C   0  0  0  0  0  0  0  0  0  0  0  0
  -26.9274  -22.8159   19.3262 C   0  0  0  0  0  0  0  0  0  0  0  0
  -22.4189  -30.9470   21.6858 C   0  0  0  0  0  0  0  0  0  0  0  0
  -20.2901  -30.3526   19.0855 C   0  0  0  0  0  0  0  0  0  0  0  0
  -30.0958  -15.1107   20.2315 C   0  0  0  0  0  0  0  0  0  0  0  0
  -28.2547  -32.2924   26.6827 C   0  0  0  0  0  0  0  0  0  0  0  0
  -25.9768  -30.3853   20.8866 C   0  0  0  0  0  0  0  0  0  0  0  0
  -23.5041  -28.7689   21.0198 C   0  0  0  0  0  0  0  0  0  0  0  0
  -26.7832  -32.4361   26.3028 C   0  0  0  0  0  0  0  0  0  0  0  0
  -30.2777  -11.6738   19.3196 C   0  0  0  0  0  0  0  0  0  0  0  0
  -26.1177  -31.0662   26.2169 C   0  0  0  0  0  0  0  0  0  0  0  0
  -28.8128  -11.2338   19.2703 C   0  0  0  0  0  0  0  0  0  0  0  0
  -30.5319  -12.6738   20.4462 C   0  0  0  0  0  0  0  0  0  0  0  0
  -28.1794  -13.4036   20.4006 C   0  0  0  0  0  0  0  0  0  0  0  0
  -26.7726  -30.2018   25.1327 C   0  0  1  0  0  0  0  0  0  0  0  0
  -24.8659  -30.6977   21.8844 C   0  0  1  0  0  0  0  0  0  0  0  0
  -27.8610  -12.4457   19.2409 C   0  0  2  0  0  0  0  0  0  0  0  0
  -18.1288  -31.1470   18.0879 C   0  0  0  0  0  0  0  0  0  0  0  0
  -20.8753  -29.5038   23.8868 C   0  0  0  0  0  0  0  0  0  0  0  0
  -18.8731  -29.4996   22.3837 C   0  0  0  0  0  0  0  0  0  0  0  0
  -19.8566  -31.6629   23.1421 C   0  0  0  0  0  0  0  0  0  0  0  0
  -21.6071  -31.1122   16.5463 C   0  0  0  0  0  0  0  0  0  0  0  0
  -28.1583  -21.9408   19.4315 C   0  0  0  0  0  0  0  0  0  0  0  0
  -27.1911  -24.2997   19.1586 C   0  0  0  0  0  0  0  0  0  1  0  0
  -21.0931  -30.2713   21.4313 C   0  0  1  0  0  0  0  0  0  0  0  0
  -19.6431  -31.2874   18.0795 C   0  0  2  0  0  0  0  0  0  0  0  0
  -20.1990  -30.2227   22.7025 C   0  0  0  0  0  0  0  0  0  0  0  0
  -30.4431  -18.1421   19.8744 N   0  0  0  0  0  0  0  0  0  0  0  0
  -25.7610  -11.9013   20.4134 N   0  0  0  0  0  0  0  0  0  0  0  0
  -26.4054  -12.0176   19.2399 N   0  0  0  0  0  0  0  0  0  0  0  0
  -23.5654  -30.1707   21.4657 N   0  0  0  0  0  0  0  0  0  0  0  0
  -29.5964  -13.7966   20.3517 N   0  0  0  0  0  0  0  0  0  0  0  0
  -26.1230  -11.7894   16.8992 N   0  0  0  0  0  0  0  0  0  0  0  0
  -22.0634  -10.6980   18.5497 N   0  0  0  0  0  0  0  0  0  0  0  0
  -27.7688  -20.5633   19.5931 N   0  0  0  0  0  0  0  0  0  0  0  0
  -29.1126  -16.0929   20.1164 N   0  0  0  0  0  0  0  0  0  0  0  0
  -26.3158  -30.6054   23.8201 N   0  0  0  0  0  0  0  0  0  0  0  0
  -20.4889  -30.9701   20.3022 N   0  0  0  0  0  0  0  0  0  0  0  0
  -20.1351  -30.9895   16.7047 N   0  3  0  0  0  0  0  0  0  0  0  0
  -23.2927  -10.9224   16.6269 O   0  0  0  0  0  0  0  0  0  0  0  0
  -24.3503  -29.3580   23.7590 O   0  0  0  0  0  0  0  0  0  0  0  0
  -25.7839  -22.3641   19.3727 O   0  0  0  0  0  0  0  0  0  0  0  0
  -22.4367  -32.1226   22.0591 O   0  0  0  0  0  0  0  0  0  0  0  0
  -20.5859  -29.1896   18.8198 O   0  0  0  0  0  0  0  0  0  0  0  0
  -31.3068  -15.3447   20.2032 O   0  0  0  0  0  0  0  0  0  0  0  0
  -28.1841  -18.2512   19.8637 O   0  0  0  0  0  0  0  0  0  0  0  0
  -20.6102  -10.6079   23.9270 O   0  0  0  0  0  0  0  0  0  0  0  0
  -25.9658  -25.0240   19.0567 O   0  0  0  0  0  0  0  0  0  1  0  0
  -17.5168   -6.0705   23.4299 F   0  0  0  0  0  0  0  0  0  0  0  0
  -20.5814   -8.6862   25.9142 F   0  0  0  0  0  0  0  0  0  0  0  0
  1  2  1  0  0  0  0
  1  5  2  0  0  0  0
  2  6  2  0  0  0  0
  3  8  2  0  0  0  0
  3 16  1  0  0  0  0
  4  9  1  0  0  0  0
  4 16  2  0  0  0  0
  5 18  1  0  0  0  0
  6 20  1  0  0  0  0
  7 10  2  0  0  0  0
  7 19  1  0  0  0  0
  8 22  1  0  0  0  0
  9 22  2  0  0  0  0
 10 23  1  0  0  0  0
 11 12  2  0  0  0  0
 11 24  1  0  0  0  0
 12 25  1  0  0  0  0
 13 21  1  0  0  0  0
 13 23  2  0  0  0  0
 14 25  2  0  0  0  0
 14 26  1  0  0  0  0
 15 29  2  0  0  0  0
 15 59  1  0  0  0  0
 16 27  1  0  0  0  0
 17 27  1  0  0  0  0
 17 28  2  0  0  0  0
 17 31  1  0  0  0  0
 18 20  2  0  0  0  0
 18 37  1  0  0  0  0
 19 21  2  0  0  0  0
 19 38  1  0  0  0  0
 20 46  1  0  0  0  0
 21 39  1  0  0  0  0
 22 78  1  0  0  0  0
 23 79  1  0  0  0  0
 24 26  2  0  0  0  0
 24 78  1  0  0  0  0
 25 80  1  0  0  0  0
 26 81  1  0  0  0  0
 27 60  2  0  0  0  0
 28 61  1  0  0  0  0
 28 64  1  0  0  0  0
 29 66  1  0  0  0  0
 29 77  1  0  0  0  0
 30 59  2  0  0  0  0
 30 67  1  0  0  0  0
 30 77  1  0  0  0  0
 31 65  1  0  0  0  0
 31 71  2  0  0  0  0
 32 47  1  0  0  0  0
 32 68  1  0  0  0  0
 32 72  2  0  0  0  0
 33 54  1  0  0  0  0
 33 55  1  0  0  0  0
 33 73  2  0  0  0  0
 34 56  1  0  0  0  0
 34 62  1  0  0  0  0
 34 74  2  0  0  0  0
 35 57  1  0  0  0  0
 35 69  1  0  0  0  0
 35 75  2  0  0  0  0
 36 63  1  0  0  0  0
 36 67  1  0  0  0  0
 36 76  2  0  0  0  0
 37 40  1  0  0  0  0
 38 47  1  0  0  0  0
 39 62  1  0  0  0  0
 40 42  1  0  0  0  0
 41 43  1  0  0  0  0
 41 44  1  0  0  0  0
 42 46  1  0  0  0  0
 43 48  1  0  0  0  0
 44 63  1  0  0  0  0
 45 48  1  0  0  0  0
 45 63  1  0  0  0  0
 46 68  1  0  0  0  0
 47 62  1  0  0  0  0
 48 61  1  0  0  0  0
 49 57  1  0  0  0  0
 50 58  1  0  0  0  0
 51 58  1  0  0  0  0
 52 58  1  0  0  0  0
 53 70  1  0  0  0  0
 54 66  1  0  0  0  0
 55 79  1  0  0  0  0
 56 58  1  0  0  0  0
 56 69  1  0  0  0  0
 57 70  1  0  0  0  0
 60 61  1  0  0  0  0
M  CHG  1  70   1
M  ISO  4  36 100  55 101  67 100  79 101
M  END
> <Batch ID>
0168

> <Smiles>
CNC(C)C(=O)NC(C(=O)N1Cc2cc([101O:1][101CH2:1]C(=O)CNc3cnc([100NH:0][100C:0](=O)N4CCCC(n5nc(-c6ccc(Oc7ccc(F)cc7F)cc6)c(C(N)=O)c5N)C4)o3)ccc2CC1C(=O)NC1CCCc2ccccc21)C(C)(C)C

> <Shape>
0.274

> <Color>
0.092

> <Negative vol penalty>
0.000

$$$$

  -OEChem-04052304143D

 86 94  0     1  0  0  0  0  0999 V2000
  -23.5440   -6.9195   24.9542 C   0  0  0  0  0  0  0  0  0  0  0  0
  -24.6668   -7.7408   24.9645 C   0  0  0  0  0  0  0  0  0  0  0  0
  -25.1303  -31.2474   21.2839 C   0  0  0  0  0  0  0  0  0  0  0  0
  -24.6163  -29.5780   22.9530 C   0  0  0  0  0  0  0  0  0  0  0  0
  -22.6993   -6.9093   23.8450 C   0  0  0  0  0  0  0  0  0  0  0  0
  -24.9462   -8.5517   23.8650 C   0  0  0  0  0  0  0  0  0  0  0  0
  -27.4720  -14.1301   23.9520 C   0  0  0  0  0  0  0  0  0  0  0  0
  -24.4765  -32.2134   22.0487 C   0  0  0  0  0  0  0  0  0  0  0  0
  -23.9625  -30.5440   23.7179 C   0  0  0  0  0  0  0  0  0  0  0  0
  -28.7768  -14.5724   23.7385 C   0  0  0  0  0  0  0  0  0  0  0  0
  -23.2555  -35.1944   23.7333 C   0  0  0  0  0  0  0  0  0  0  0  0
  -23.8853  -36.4283   23.8958 C   0  0  0  0  0  0  0  0  0  0  0  0
  -28.2307  -15.0544   21.4388 C   0  0  0  0  0  0  0  0  0  0  0  0
  -25.7662  -35.3306   24.9419 C   0  0  0  0  0  0  0  0  0  0  0  0
  -25.2001  -29.9296   21.7360 C   0  0  0  0  0  0  0  0  0  0  0  0
  -27.2352  -28.5744   21.0084 C   0  0  0  0  0  0  0  0  0  0  0  0
  -22.9632   -7.7277   22.7354 C   0  0  0  0  0  0  0  0  0  0  0  0
  -26.5382  -14.1364   22.9059 C   0  0  0  0  0  0  0  0  0  0  0  0
  -24.1050   -8.5515   22.7394 C   0  0  0  0  0  0  0  0  0  0  0  0
  -26.9140  -14.6140   21.6423 C   0  0  0  0  0  0  0  0  0  0  0  0
  -23.8927  -31.8618   23.2657 C   0  0  0  0  0  0  0  0  0  0  0  0
  -29.1572  -15.0319   22.4810 C   0  0  0  0  0  0  0  0  0  0  0  0
  -23.8811  -34.0285   24.1752 C   0  0  0  0  0  0  0  0  0  0  0  0
  -25.1406  -36.4964   24.5001 C   0  0  0  0  0  0  0  0  0  0  0  0
  -25.1364  -34.0966   24.7795 C   0  0  0  0  0  0  0  0  0  0  0  0
  -25.8748  -28.9312   20.9461 C   0  0  0  0  0  0  0  0  0  0  0  0
  -28.3992  -19.5394   17.7695 C   0  0  0  0  0  0  0  0  0  0  0  0
  -27.3746  -27.5864   20.0645 C   0  0  0  0  0  0  0  0  0  0  0  0
  -29.2099  -19.8413   18.8436 C   0  0  0  0  0  0  0  0  0  0  0  0
  -27.4835  -21.4464   18.3480 C   0  0  0  0  0  0  0  0  0  0  0  0
  -28.2794  -29.0898   21.8449 C   0  0  0  0  0  0  0  0  0  0  0  0
  -32.1246  -18.4714   20.7212 C   0  0  0  0  0  0  0  0  0  0  0  0
  -31.7882  -17.3443   21.6599 C   0  0  0  0  0  0  0  0  0  0  0  0
  -24.8549  -11.9078   21.3882 C   0  0  0  0  0  0  0  0  0  0  0  0
  -23.4862  -14.4738   19.9513 C   0  0  0  0  0  0  0  0  0  0  0  0
  -23.7326  -17.7494   19.0257 C   0  0  0  0  0  0  0  0  0  0  0  0
  -25.5924  -22.9279   17.5895 C   0  0  0  0  0  0  0  0  0  0  0  0
  -22.0472   -7.6473   21.5399 C   0  0  0  0  0  0  0  0  0  0  0  0
  -25.1272  -13.6811   23.1594 C   0  0  0  0  0  0  0  0  0  0  0  0
  -25.9437  -14.6603   20.4912 C   0  0  0  0  0  0  0  0  0  0  0  0
  -22.2085   -8.8145   20.5694 C   0  0  0  0  0  0  0  0  0  0  0  0
  -24.1932  -26.0012   16.4607 C   0  0  0  0  0  0  0  0  0  0  0  0
  -23.6851   -9.0774   20.2914 C   0  0  0  0  0  0  0  0  0  0  0  0
  -24.6178  -27.0081   17.5321 C   0  0  0  0  0  0  0  0  0  0  0  0
  -23.8660  -24.6360   17.0632 C   0  0  0  0  0  0  0  0  0  0  0  0
  -25.3417  -25.0726   18.9871 C   0  0  0  0  0  0  0  0  0  0  0  0
  -24.4281   -9.4637   21.5760 C   0  0  1  0  0  0  0  0  0  0  0  0
  -24.4011  -13.2498   21.8889 C   0  0  1  0  0  0  0  0  0  0  0  0
  -25.7438  -26.4442   18.4208 C   0  0  2  0  0  0  0  0  0  0  0  0
  -28.4955  -18.3388   16.9123 C   0  0  0  0  0  0  0  0  0  0  0  0
  -22.4695  -19.5593   17.8315 C   0  0  0  0  0  0  0  0  0  0  0  0
  -24.1736  -13.1832   17.2733 C   0  0  0  0  0  0  0  0  0  0  0  0
  -23.7723  -15.4000   16.1810 C   0  0  0  0  0  0  0  0  0  0  0  0
  -21.9101  -14.2423   17.3705 C   0  0  0  0  0  0  0  0  0  0  0  0
  -23.6688  -19.4586   21.4409 C   0  0  0  0  0  0  0  0  0  0  0  0
  -34.8418  -19.4651   18.8537 C   0  0  0  0  0  0  0  0  0  0  0  0
  -31.0614  -19.5088   20.4829 C   0  0  0  0  0  0  0  0  0  0  0  0
  -30.6172  -16.4766   21.2822 C   0  0  0  0  0  0  0  0  0  1  0  0
  -23.7785  -15.2886   18.7145 C   0  0  1  0  0  0  0  0  0  0  0  0
  -22.7698  -18.9135   19.1752 C   0  0  2  0  0  0  0  0  0  0  0  0
  -23.4277  -14.5260   17.4058 C   0  0  0  0  0  0  0  0  0  0  0  0
  -25.1983  -28.2273   20.0345 N   0  0  0  0  0  0  0  0  0  0  0  0
  -27.4084  -20.4584   17.4840 N   0  0  0  0  0  0  0  0  0  0  0  0
  -33.3176  -18.4494   20.2168 N   0  0  0  0  0  0  0  0  0  0  0  0
  -26.1375  -27.4184   19.5153 N   0  0  0  0  0  0  0  0  0  0  0  0
  -24.5775  -14.1984   20.7874 N   0  0  0  0  0  0  0  0  0  0  0  0
  -24.9796  -24.1631   17.8886 N   0  0  0  0  0  0  0  0  0  0  0  0
  -28.4335  -26.8539   19.6589 N   0  0  0  0  0  0  0  0  0  0  0  0
  -27.9635  -30.1032   22.7601 N   0  0  0  0  0  0  0  0  0  0  0  0
  -30.2717  -19.1041   19.3486 N   0  0  0  0  0  0  0  0  0  0  0  0
  -26.6612  -22.5979   18.4223 N   0  0  0  0  0  0  0  0  0  0  0  0
  -24.1558  -10.8422   21.9223 N   0  0  0  0  0  0  0  0  0  0  0  0
  -23.0663  -16.5511   18.8796 N   0  0  0  0  0  0  0  0  0  0  0  0
  -23.3470  -19.9505   20.0766 N   0  3  0  0  0  0  0  0  0  0  0  0
  -29.4612  -28.6758   21.7711 O   0  0  0  0  0  0  0  0  0  0  0  0
  -32.4679  -17.2238   22.6682 O   0  0  0  0  0  0  0  0  0  0  0  0
  -25.7704  -11.8438   20.5762 O   0  0  0  0  0  0  0  0  0  0  0  0
  -22.3309  -14.1016   20.1712 O   0  0  0  0  0  0  0  0  0  0  0  0
  -24.9536  -17.8895   19.0337 O   0  0  0  0  0  0  0  0  0  0  0  0
  -25.2157  -22.2282   16.6458 O   0  0  0  0  0  0  0  0  0  0  0  0
  -23.2549  -32.8042   24.0125 O   0  0  0  0  0  0  0  0  0  0  0  0
  -30.4303  -15.4636   22.2697 O   0  0  0  0  0  0  0  0  0  1  0  0
  -33.5228  -19.5471   19.3716 O   0  0  0  0  0  0  0  0  0  0  0  0
  -25.7460  -37.6813   24.6547 F   0  0  0  0  0  0  0  0  0  0  0  0
  -25.7428  -32.9799   25.2049 F   0  0  0  0  0  0  0  0  0  0  0  0
  -28.7222  -21.3352   19.5305 S   0  0  0  0  0  0  0  0  0  0  0  0
  1  2  1  0  0  0  0
  1  5  2  0  0  0  0
  2  6  2  0  0  0  0
  3  8  2  0  0  0  0
  3 15  1  0  0  0  0
  4  9  1  0  0  0  0
  4 15  2  0  0  0  0
  5 17  1  0  0  0  0
  6 19  1  0  0  0  0
  7 10  2  0  0  0  0
  7 18  1  0  0  0  0
  8 21  1  0  0  0  0
  9 21  2  0  0  0  0
 10 22  1  0  0  0  0
 11 12  2  0  0  0  0
 11 23  1  0  0  0  0
 12 24  1  0  0  0  0
 13 20  1  0  0  0  0
 13 22  2  0  0  0  0
 14 24  2  0  0  0  0
 14 25  1  0  0  0  0
 15 26  1  0  0  0  0
 16 26  1  0  0  0  0
 16 28  2  0  0  0  0
 16 31  1  0  0  0  0
 17 19  2  0  0  0  0
 17 38  1  0  0  0  0
 18 20  2  0  0  0  0
 18 39  1  0  0  0  0
 19 47  1  0  0  0  0
 20 40  1  0  0  0  0
 21 81  1  0  0  0  0
 22 82  1  0  0  0  0
 23 25  2  0  0  0  0
 23 81  1  0  0  0  0
 24 84  1  0  0  0  0
 25 85  1  0  0  0  0
 26 62  2  0  0  0  0
 27 29  2  0  0  0  0
 27 50  1  0  0  0  0
 27 63  1  0  0  0  0
 28 65  1  0  0  0  0
 28 68  1  0  0  0  0
 29 70  1  0  0  0  0
 29 86  1  0  0  0  0
 30 63  2  0  0  0  0
 30 71  1  0  0  0  0
 30 86  1  0  0  0  0
 31 69  1  0  0  0  0
 31 75  2  0  0  0  0
 32 33  1  0  0  0  0
 32 57  1  0  0  0  0
 32 64  2  0  0  0  0
 33 58  1  0  0  0  0
 33 76  2  0  0  0  0
 34 48  1  0  0  0  0
 34 72  1  0  0  0  0
 34 77  2  0  0  0  0
 35 59  1  0  0  0  0
 35 66  1  0  0  0  0
 35 78  2  0  0  0  0
 36 60  1  0  0  0  0
 36 73  1  0  0  0  0
 36 79  2  0  0  0  0
 37 67  1  0  0  0  0
 37 71  1  0  0  0  0
 37 80  2  0  0  0  0
 38 41  1  0  0  0  0
 39 48  1  0  0  0  0
 40 66  1  0  0  0  0
 41 43  1  0  0  0  0
 42 44  1  0  0  0  0
 42 45  1  0  0  0  0
 43 47  1  0  0  0  0
 44 49  1  0  0  0  0
 45 67  1  0  0  0  0
 46 49  1  0  0  0  0
 46 67  1  0  0  0  0
 47 72  1  0  0  0  0
 48 66  1  0  0  0  0
 49 65  1  0  0  0  0
 51 60  1  0  0  0  0
 52 61  1  0  0  0  0
 53 61  1  0  0  0  0
 54 61  1  0  0  0  0
 55 74  1  0  0  0  0
 56 83  1  0  0  0  0
 57 70  1  0  0  0  0
 58 82  1  0  0  0  0
 59 61  1  0  0  0  0
 59 73  1  0  0  0  0
 60 74  1  0  0  0  0
 62 65  1  0  0  0  0
 64 83  1  0  0  0  0
M  CHG  1  74   1
M  ISO  4  37 100  58 101  71 100  82 101
M  END
> <Batch ID>
0168

> <Smiles>
CNC(C)C(=O)NC(C(=O)N1Cc2cc([101O:1][101CH2:1]C(=O)C(CNc3sc([100NH:0][100C:0](=O)N4CCCC(n5nc(-c6ccc(Oc7ccc(F)cc7F)cc6)c(C(N)=O)c5N)C4)nc3C)=NOC)ccc2CC1C(=O)NC1CCCc2ccccc21)C(C)(C)C

> <Shape>
0.247

> <Color>
0.084

> <Negative vol penalty>
0.000

$$$$

  -OEChem-04052304143D

 90 98  0     1  0  0  0  0  0999 V2000
  -25.9395  -17.5129   12.5158 C   0  0  0  0  0  0  0  0  0  0  0  0
  -26.8817  -17.1794   13.4835 C   0  0  0  0  0  0  0  0  0  0  0  0
  -24.1929  -30.4909   20.6735 C   0  0  0  0  0  0  0  0  0  0  0  0
  -23.9535  -28.9854   22.5479 C   0  0  0  0  0  0  0  0  0  0  0  0
  -24.6483  -17.8751   12.8972 C   0  0  0  0  0  0  0  0  0  0  0  0
  -26.5334  -17.2090   14.8334 C   0  0  0  0  0  0  0  0  0  0  0  0
  -28.5567  -13.4684   19.2403 C   0  0  0  0  0  0  0  0  0  0  0  0
  -23.2753  -31.3641   21.2577 C   0  0  0  0  0  0  0  0  0  0  0  0
  -23.0359  -29.8586   23.1321 C   0  0  0  0  0  0  0  0  0  0  0  0
  -29.5542  -13.6080   20.2042 C   0  0  0  0  0  0  0  0  0  0  0  0
  -19.7678  -30.6460   22.7707 C   0  0  0  0  0  0  0  0  0  0  0  0
  -18.6021  -30.0982   23.3060 C   0  0  0  0  0  0  0  0  0  0  0  0
  -27.8958  -14.3068   21.8106 C   0  0  0  0  0  0  0  0  0  0  0  0
  -30.3016  -20.1854   21.2414 C   0  0  0  0  0  0  0  0  0  0  0  0
  -28.2280  -19.7707   19.4217 C   0  0  0  0  0  0  0  0  0  0  0  0
  -19.1908  -30.9705   25.4807 C   0  0  0  0  0  0  0  0  0  0  0  0
  -24.5319  -29.3015   21.3186 C   0  0  0  0  0  0  0  0  0  0  0  0
  -26.8763  -28.3922   20.8888 C   0  0  0  0  0  0  0  0  0  0  0  0
  -24.2813  -17.8998   14.2519 C   0  0  0  0  0  0  0  0  0  0  0  0
  -27.2205  -13.7580   19.5517 C   0  0  0  0  0  0  0  0  0  0  0  0
  -25.2364  -17.5732   15.2334 C   0  0  0  0  0  0  0  0  0  0  0  0
  -26.8828  -14.1677   20.8495 C   0  0  0  0  0  0  0  0  0  0  0  0
  -29.6349  -21.2761   20.6833 C   0  0  0  0  0  0  0  0  0  0  0  0
  -29.9315  -18.8873   20.8896 C   0  0  0  0  0  0  0  0  0  0  0  0
  -28.5982  -21.0688   19.7735 C   0  0  0  0  0  0  0  0  0  0  0  0
  -22.6969  -31.0480   22.4869 C   0  0  0  0  0  0  0  0  0  0  0  0
  -29.2243  -14.0300   21.4888 C   0  0  0  0  0  0  0  0  0  0  0  0
  -20.6451  -31.3560   23.5905 C   0  0  0  0  0  0  0  0  0  0  0  0
  -18.3135  -30.2605   24.6610 C   0  0  0  0  0  0  0  0  0  0  0  0
  -28.8947  -18.6800   19.9798 C   0  0  0  0  0  0  0  0  0  0  0  0
  -20.3566  -31.5183   24.9455 C   0  0  0  0  0  0  0  0  0  0  0  0
  -25.4792  -28.3988   20.7154 C   0  0  0  0  0  0  0  0  0  0  0  0
  -27.3141  -27.3500   20.1087 C   0  0  0  0  0  0  0  0  0  0  0  0
  -27.7042  -29.2512   21.6840 C   0  0  0  0  0  0  0  0  0  0  0  0
  -25.0765  -15.8567   18.5016 C   0  0  0  0  0  0  0  0  0  0  0  0
  -23.0791  -14.2036   20.4509 C   0  0  0  0  0  0  0  0  0  0  0  0
  -31.6551  -17.8083   22.3700 C   0  0  0  0  0  0  0  0  0  0  0  0
  -22.7062  -12.1773   23.1715 C   0  0  0  0  0  0  0  0  0  0  0  0
  -26.8606  -22.1115   18.2768 C   0  0  0  0  0  0  0  0  0  0  0  0
  -22.8872  -18.3435   14.6183 C   0  0  0  0  0  0  0  0  0  0  0  0
  -26.1525  -13.5768   18.5081 C   0  0  0  0  0  0  0  0  0  0  0  0
  -25.4604  -14.4716   21.2403 C   0  0  0  0  0  0  0  0  0  0  0  0
  -22.4908  -17.9874   16.0488 C   0  0  0  0  0  0  0  0  0  0  0  0
  -24.8768  -24.5773   16.6455 C   0  0  0  0  0  0  0  0  0  0  0  0
  -23.6093  -18.3532   17.0194 C   0  0  0  0  0  0  0  0  0  0  0  0
  -24.9716  -25.7908   17.5732 C   0  0  0  0  0  0  0  0  0  0  0  0
  -24.8304  -23.2667   17.4290 C   0  0  0  0  0  0  0  0  0  0  0  0
  -26.0108  -24.2993   19.3289 C   0  0  0  0  0  0  0  0  0  0  0  0
  -24.8896  -17.5694   16.7064 C   0  0  1  0  0  0  0  0  0  0  0  0
  -24.8955  -14.3935   18.7914 C   0  0  1  0  0  0  0  0  0  0  0  0
  -26.1257  -25.6390   18.5834 C   0  0  2  0  0  0  0  0  0  0  0  0
  -20.9493  -11.0229   24.5420 C   0  0  0  0  0  0  0  0  0  0  0  0
  -22.3491  -16.8650   21.7525 C   0  0  0  0  0  0  0  0  0  0  0  0
  -21.3710  -15.5811   23.6664 C   0  0  0  0  0  0  0  0  0  0  0  0
  -20.4165  -15.3229   21.3762 C   0  0  0  0  0  0  0  0  0  0  0  0
  -32.2109  -14.6264   24.4911 C   0  0  0  0  0  0  0  0  0  0  0  0
  -31.0542  -16.7711   25.0334 C   0  0  0  0  0  0  0  0  0  0  0  0
  -23.8238   -9.5048   22.5648 C   0  0  0  0  0  0  0  0  0  0  0  0
  -32.1228  -16.4084   22.7472 C   0  0  0  0  0  0  0  0  0  0  0  0
  -29.9896  -15.1587   23.4372 C   0  0  0  0  0  0  0  0  0  1  0  0
  -22.6718  -14.3076   21.9008 C   0  0  1  0  0  0  0  0  0  0  0  0
  -21.9147  -10.8978   23.3736 C   0  0  2  0  0  0  0  0  0  0  0  0
  -30.0525  -22.6556   21.0780 C   0  0  0  0  0  0  0  0  0  0  0  0
  -21.7293  -15.5154   22.1664 C   0  0  0  0  0  0  0  0  0  0  0  0
  -31.3327  -15.7561   23.9107 C   0  0  0  0  0  0  0  0  0  0  0  0
  -25.0575  -27.4373   19.8899 N   0  0  0  0  0  0  0  0  0  0  0  0
  -26.1963  -26.8167   19.5374 N   0  0  0  0  0  0  0  0  0  0  0  0
  -24.4529  -14.2854   20.1830 N   0  0  0  0  0  0  0  0  0  0  0  0
  -25.9561  -23.1910   18.3627 N   0  0  0  0  0  0  0  0  0  0  0  0
  -28.5424  -26.8469   19.8624 N   0  0  0  0  0  0  0  0  0  0  0  0
  -27.0915  -30.2715   22.4243 N   0  0  0  0  0  0  0  0  0  0  0  0
  -30.6093  -17.7820   21.4566 N   0  0  0  0  0  0  0  0  0  0  0  0
  -27.9091  -22.1633   19.1947 N   0  0  0  0  0  0  0  0  0  0  0  0
  -24.7846  -16.2125   17.1987 N   0  0  0  0  0  0  0  0  0  0  0  0
  -22.1002  -13.0138   22.2581 N   0  0  0  0  0  0  0  0  0  0  0  0
  -22.8346   -9.7569   23.6442 N   0  3  0  0  0  0  0  0  0  0  0  0
  -28.9519  -29.1283   21.7236 O   0  0  0  0  0  0  0  0  0  0  0  0
  -25.4518  -16.6075   19.3944 O   0  0  0  0  0  0  0  0  0  0  0  0
  -22.2109  -14.0480   19.5885 O   0  0  0  0  0  0  0  0  0  0  0  0
  -32.1974  -18.7965   22.8574 O   0  0  0  0  0  0  0  0  0  0  0  0
  -23.7550  -12.4129   23.7674 O   0  0  0  0  0  0  0  0  0  0  0  0
  -26.7310  -21.2219   17.4319 O   0  0  0  0  0  0  0  0  0  0  0  0
  -21.8017  -31.9000   23.0574 O   0  0  0  0  0  0  0  0  0  0  0  0
  -30.1961  -14.1677   22.4314 O   0  0  0  0  0  0  0  0  0  1  0  0
  -17.1933  -29.7357   25.1745 F   0  0  0  0  0  0  0  0  0  0  0  0
  -28.5308  -17.4364   19.6356 F   0  0  0  0  0  0  0  0  0  0  0  0
  -21.1949  -32.2004   25.7377 F   0  0  0  0  0  0  0  0  0  0  0  0
  -31.0803  -22.6775   21.9757 F   0  0  0  0  0  0  0  0  0  0  0  0
  -30.4773  -23.4165   20.0278 F   0  0  0  0  0  0  0  0  0  0  0  0
  -29.0405  -23.3613   21.6591 F   0  0  0  0  0  0  0  0  0  0  0  0
  1  2  1  0  0  0  0
  1  5  2  0  0  0  0
  2  6  2  0  0  0  0
  3  8  2  0  0  0  0
  3 17  1  0  0  0  0
  4  9  1  0  0  0  0
  4 17  2  0  0  0  0
  5 19  1  0  0  0  0
  6 21  1  0  0  0  0
  7 10  2  0  0  0  0
  7 20  1  0  0  0  0
  8 26  1  0  0  0  0
  9 26  2  0  0  0  0
 10 27  1  0  0  0  0
 11 12  2  0  0  0  0
 11 28  1  0  0  0  0
 12 29  1  0  0  0  0
 13 22  1  0  0  0  0
 13 27  2  0  0  0  0
 14 23  2  0  0  0  0
 14 24  1  0  0  0  0
 15 25  2  0  0  0  0
 15 30  1  0  0  0  0
 16 29  2  0  0  0  0
 16 31  1  0  0  0  0
 17 32  1  0  0  0  0
 18 32  1  0  0  0  0
 18 33  2  0  0  0  0
 18 34  1  0  0  0  0
 19 21  2  0  0  0  0
 19 40  1  0  0  0  0
 20 22  2  0  0  0  0
 20 41  1  0  0  0  0
 21 49  1  0  0  0  0
 22 42  1  0  0  0  0
 23 25  1  0  0  0  0
 23 63  1  0  0  0  0
 24 30  2  0  0  0  0
 24 72  1  0  0  0  0
 25 73  1  0  0  0  0
 26 83  1  0  0  0  0
 27 84  1  0  0  0  0
 28 31  2  0  0  0  0
 28 83  1  0  0  0  0
 29 85  1  0  0  0  0
 30 86  1  0  0  0  0
 31 87  1  0  0  0  0
 32 66  2  0  0  0  0
 33 67  1  0  0  0  0
 33 70  1  0  0  0  0
 34 71  1  0  0  0  0
 34 77  2  0  0  0  0
 35 50  1  0  0  0  0
 35 74  1  0  0  0  0
 35 78  2  0  0  0  0
 36 61  1  0  0  0  0
 36 68  1  0  0  0  0
 36 79  2  0  0  0  0
 37 59  1  0  0  0  0
 37 72  1  0  0  0  0
 37 80  2  0  0  0  0
 38 62  1  0  0  0  0
 38 75  1  0  0  0  0
 38 81  2  0  0  0  0
 39 69  1  0  0  0  0
 39 73  1  0  0  0  0
 39 82  2  0  0  0  0
 40 43  1  0  0  0  0
 41 50  1  0  0  0  0
 42 68  1  0  0  0  0
 43 45  1  0  0  0  0
 44 46  1  0  0  0  0
 44 47  1  0  0  0  0
 45 49  1  0  0  0  0
 46 51  1  0  0  0  0
 47 69  1  0  0  0  0
 48 51  1  0  0  0  0
 48 69  1  0  0  0  0
 49 74  1  0  0  0  0
 50 68  1  0  0  0  0
 51 67  1  0  0  0  0
 52 62  1  0  0  0  0
 53 64  1  0  0  0  0
 54 64  1  0  0  0  0
 55 64  1  0  0  0  0
 56 65  1  0  0  0  0
 57 65  1  0  0  0  0
 58 76  1  0  0  0  0
 59 65  1  0  0  0  0
 60 65  1  0  0  0  0
 60 84  1  0  0  0  0
 61 64  1  0  0  0  0
 61 75  1  0  0  0  0
 62 76  1  0  0  0  0
 63 88  1  0  0  0  0
 63 89  1  0  0  0  0
 63 90  1  0  0  0  0
 66 67  1  0  0  0  0
M  CHG  1  76   1
M  ISO  4  39 100  60 101  73 100  84 101
M  END
> <Batch ID>
0168

> <Smiles>
CNC(C)C(=O)NC(C(=O)N1Cc2cc([101O:1][101CH2:1]C(C)(C)CC(=O)Nc3cc(C(F)(F)F)c([100NH:0][100C:0](=O)N4CCCC(n5nc(-c6ccc(Oc7ccc(F)cc7F)cc6)c(C(N)=O)c5N)C4)cc3F)ccc2CC1C(=O)NC1CCCc2ccccc21)C(C)(C)C

> <Shape>
0.251

> <Color>
0.057

> <Negative vol penalty>
0.000

$$$$

  -OEChem-04052304143D

 90 98  0     1  0  0  0  0  0999 V2000
  -28.4136  -34.2453   26.2754 C   0  0  0  0  0  0  0  0  0  0  0  0
  -28.4508  -32.9815   25.6951 C   0  0  0  0  0  0  0  0  0  0  0  0
  -23.6890   -9.6625   21.8179 C   0  0  0  0  0  0  0  0  0  0  0  0
  -24.4723  -10.9230   23.7244 C   0  0  0  0  0  0  0  0  0  0  0  0
  -27.1952  -34.9057   26.4274 C   0  0  0  0  0  0  0  0  0  0  0  0
  -27.2693  -32.3768   25.2674 C   0  0  0  0  0  0  0  0  0  0  0  0
  -27.7192  -30.2533   20.6922 C   0  0  0  0  0  0  0  0  0  0  0  0
  -23.1836   -8.6832   22.6730 C   0  0  0  0  0  0  0  0  0  0  0  0
  -23.9669   -9.9437   24.5795 C   0  0  0  0  0  0  0  0  0  0  0  0
  -28.3666  -29.0204   20.6233 C   0  0  0  0  0  0  0  0  0  0  0  0
  -20.4671   -8.2548   24.6402 C   0  0  0  0  0  0  0  0  0  0  0  0
  -19.1851   -7.7688   24.3834 C   0  0  0  0  0  0  0  0  0  0  0  0
  -28.9686  -18.8049   20.1896 C   0  0  0  0  0  0  0  0  0  0  0  0
  -26.2276  -27.9098   20.5206 C   0  0  0  0  0  0  0  0  0  0  0  0
  -31.2644  -18.1336   19.8495 C   0  0  0  0  0  0  0  0  0  0  0  0
  -20.0835   -5.5426   24.1117 C   0  0  0  0  0  0  0  0  0  0  0  0
  -24.3334  -10.7824   22.3436 C   0  0  0  0  0  0  0  0  0  0  0  0
  -29.3914  -20.1009   20.4852 C   0  0  0  0  0  0  0  0  0  0  0  0
  -24.1841  -12.9349   20.9828 C   0  0  0  0  0  0  0  0  0  0  0  0
  -25.9993  -34.3130   25.9926 C   0  0  0  0  0  0  0  0  0  0  0  0
  -26.3187  -30.3231   20.6868 C   0  0  0  0  0  0  0  0  0  0  0  0
  -26.0335  -33.0294   25.4150 C   0  0  0  0  0  0  0  0  0  0  0  0
  -25.5649  -29.1449   20.5870 C   0  0  0  0  0  0  0  0  0  0  0  0
  -29.9052  -17.8212   19.8718 C   0  0  0  0  0  0  0  0  0  0  0  0
  -31.6872  -19.4295   20.1450 C   0  0  0  0  0  0  0  0  0  0  0  0
  -23.3226   -8.8238   24.0538 C   0  0  0  0  0  0  0  0  0  0  0  0
  -27.6208  -27.8482   20.5404 C   0  0  0  0  0  0  0  0  0  0  0  0
  -21.5573   -7.3847   24.6326 C   0  0  0  0  0  0  0  0  0  0  0  0
  -18.9933   -6.4127   24.1192 C   0  0  0  0  0  0  0  0  0  0  0  0
  -21.3655   -6.0286   24.3684 C   0  0  0  0  0  0  0  0  0  0  0  0
  -30.7507  -20.4132   20.4628 C   0  0  0  0  0  0  0  0  0  0  0  0
  -24.8561  -11.7940   21.4608 C   0  0  0  0  0  0  0  0  0  0  0  0
  -25.1065  -13.5682   20.1861 C   0  0  0  0  0  0  0  0  0  0  0  0
  -28.3908  -21.1457   20.8230 C   0  0  0  0  0  0  0  0  0  0  0  0
  -22.8457  -13.3824   21.2363 C   0  0  0  0  0  0  0  0  0  0  0  0
  -24.1171  -31.3714   22.7259 C   0  0  0  0  0  0  0  0  0  0  0  0
  -28.5561  -24.4805   21.5209 C   0  0  0  0  0  0  0  0  0  0  0  0
  -22.0971  -30.7269   20.2710 C   0  0  0  0  0  0  0  0  0  0  0  0
  -21.4785  -28.9655   17.4142 C   0  0  0  0  0  0  0  0  0  0  0  0
  -30.2741  -15.4114   19.2369 C   0  0  0  0  0  0  0  0  0  0  0  0
  -24.7009  -35.0456   26.2212 C   0  0  0  0  0  0  0  0  0  0  0  0
  -25.6359  -31.6624   20.7347 C   0  0  0  0  0  0  0  0  0  0  0  0
  -24.0592  -29.1669   20.5571 C   0  0  0  0  0  0  0  0  0  0  0  0
  -23.5378  -34.4942   25.4007 C   0  0  0  0  0  0  0  0  0  0  0  0
  -29.6017  -12.0010   18.4662 C   0  0  0  0  0  0  0  0  0  0  0  0
  -23.4964  -32.9719   25.4891 C   0  0  0  0  0  0  0  0  0  0  0  0
  -28.2519  -11.7370   19.1372 C   0  0  0  0  0  0  0  0  0  0  0  0
  -30.4765  -12.9355   19.3000 C   0  0  0  0  0  0  0  0  0  0  0  0
  -28.4899  -13.9368   20.3583 C   0  0  0  0  0  0  0  0  0  0  0  0
  -24.7762  -32.3511   24.9161 C   0  0  1  0  0  0  0  0  0  0  0  0
  -24.1988  -31.5827   21.2405 C   0  0  1  0  0  0  0  0  0  0  0  0
  -27.5483  -13.0524   19.5247 C   0  0  2  0  0  0  0  0  0  0  0  0
  -19.7260  -28.6245   15.6507 C   0  0  0  0  0  0  0  0  0  0  0  0
  -27.2067  -21.9158   24.1793 C   0  0  0  0  0  0  0  0  0  0  0  0
  -26.8339  -24.3882   24.1240 C   0  0  0  0  0  0  0  0  0  0  0  0
  -29.1480  -23.4696   24.3444 C   0  0  0  0  0  0  0  0  0  0  0  0
  -20.4691  -29.0350   22.2196 C   0  0  0  0  0  0  0  0  0  0  0  0
  -19.3311  -27.9877   20.2508 C   0  0  0  0  0  0  0  0  0  0  0  0
  -19.1036  -30.4374   20.6629 C   0  0  0  0  0  0  0  0  0  0  0  0
  -23.2874  -29.9078   15.2697 C   0  0  0  0  0  0  0  0  0  0  0  0
  -27.5665  -25.5219   21.0315 C   0  0  0  0  0  0  0  0  0  1  0  0
  -27.9600  -23.2113   22.1283 C   0  0  2  0  0  0  0  0  0  0  0  0
  -21.3061  -29.5206   19.8259 C   0  0  1  0  0  0  0  0  0  0  0  0
  -20.9699  -29.4018   16.0520 C   0  0  2  0  0  0  0  0  0  0  0  0
  -27.7747  -23.2553   23.6712 C   0  0  0  0  0  0  0  0  0  0  0  0
  -20.0808  -29.2443   20.7423 C   0  0  0  0  0  0  0  0  0  0  0  0
  -26.1087  -11.7050   21.0056 N   0  0  0  0  0  0  0  0  0  0  0  0
  -26.2310  -12.7979   20.2333 N   0  0  0  0  0  0  0  0  0  0  0  0
  -23.4379  -30.5005   20.6128 N   0  0  0  0  0  0  0  0  0  0  0  0
  -29.7457  -14.1623   19.6256 N   0  0  0  0  0  0  0  0  0  0  0  0
  -33.0625  -19.7428   20.1211 N   0  0  0  0  0  0  0  0  0  0  0  0
  -25.0572  -14.7032   19.4569 N   0  0  0  0  0  0  0  0  0  0  0  0
  -22.0321  -12.6124   22.0787 N   0  0  0  0  0  0  0  0  0  0  0  0
  -29.4758  -16.5046   19.5720 N   0  0  0  0  0  0  0  0  0  0  0  0
  -28.8220  -22.1412   21.6870 N   0  0  0  0  0  0  0  0  0  0  0  0
  -24.7371  -32.3575   23.4694 N   0  0  0  0  0  0  0  0  0  0  0  0
  -20.9657  -29.7495   18.4259 N   0  0  0  0  0  0  0  0  0  0  0  0
  -22.0164  -29.1825   15.0138 N   0  3  0  0  0  0  0  0  0  0  0  0
  -27.2593  -21.0677   20.3516 O   0  0  0  0  0  0  0  0  0  0  0  0
  -22.3795  -14.4251   20.7177 O   0  0  0  0  0  0  0  0  0  0  0  0
  -23.5335  -30.3874   23.1650 O   0  0  0  0  0  0  0  0  0  0  0  0
  -29.7714  -24.6486   21.4154 O   0  0  0  0  0  0  0  0  0  0  0  0
  -21.5476  -31.8307   20.3071 O   0  0  0  0  0  0  0  0  0  0  0  0
  -22.2503  -28.0211   17.5659 O   0  0  0  0  0  0  0  0  0  0  0  0
  -31.3420  -15.5026   18.6260 O   0  0  0  0  0  0  0  0  0  0  0  0
  -22.8294   -7.8685   24.8885 O   0  0  0  0  0  0  0  0  0  0  0  0
  -28.2501  -26.6435   20.4738 O   0  0  0  0  0  0  0  0  0  1  0  0
  -17.7619   -5.9459   23.8742 F   0  0  0  0  0  0  0  0  0  0  0  0
  -22.4088   -5.1876   24.3610 F   0  0  0  0  0  0  0  0  0  0  0  0
  -31.1573  -21.6598   20.7475 F   0  0  0  0  0  0  0  0  0  0  0  0
  1  2  1  0  0  0  0
  1  5  2  0  0  0  0
  2  6  2  0  0  0  0
  3  8  2  0  0  0  0
  3 17  1  0  0  0  0
  4  9  1  0  0  0  0
  4 17  2  0  0  0  0
  5 20  1  0  0  0  0
  6 22  1  0  0  0  0
  7 10  2  0  0  0  0
  7 21  1  0  0  0  0
  8 26  1  0  0  0  0
  9 26  2  0  0  0  0
 10 27  1  0  0  0  0
 11 12  2  0  0  0  0
 11 28  1  0  0  0  0
 12 29  1  0  0  0  0
 13 18  1  0  0  0  0
 13 24  2  0  0  0  0
 14 23  1  0  0  0  0
 14 27  2  0  0  0  0
 15 24  1  0  0  0  0
 15 25  2  0  0  0  0
 16 29  2  0  0  0  0
 16 30  1  0  0  0  0
 17 32  1  0  0  0  0
 18 31  2  0  0  0  0
 18 34  1  0  0  0  0
 19 32  1  0  0  0  0
 19 33  2  0  0  0  0
 19 35  1  0  0  0  0
 20 22  2  0  0  0  0
 20 41  1  0  0  0  0
 21 23  2  0  0  0  0
 21 42  1  0  0  0  0
 22 50  1  0  0  0  0
 23 43  1  0  0  0  0
 24 74  1  0  0  0  0
 25 31  1  0  0  0  0
 25 71  1  0  0  0  0
 26 86  1  0  0  0  0
 27 87  1  0  0  0  0
 28 30  2  0  0  0  0
 28 86  1  0  0  0  0
 29 88  1  0  0  0  0
 30 89  1  0  0  0  0
 31 90  1  0  0  0  0
 32 67  2  0  0  0  0
 33 68  1  0  0  0  0
 33 72  1  0  0  0  0
 34 75  1  0  0  0  0
 34 79  2  0  0  0  0
 35 73  1  0  0  0  0
 35 80  2  0  0  0  0
 36 51  1  0  0  0  0
 36 76  1  0  0  0  0
 36 81  2  0  0  0  0
 37 61  1  0  0  0  0
 37 62  1  0  0  0  0
 37 82  2  0  0  0  0
 38 63  1  0  0  0  0
 38 69  1  0  0  0  0
 38 83  2  0  0  0  0
 39 64  1  0  0  0  0
 39 77  1  0  0  0  0
 39 84  2  0  0  0  0
 40 70  1  0  0  0  0
 40 74  1  0  0  0  0
 40 85  2  0  0  0  0
 41 44  1  0  0  0  0
 42 51  1  0  0  0  0
 43 69  1  0  0  0  0
 44 46  1  0  0  0  0
 45 47  1  0  0  0  0
 45 48  1  0  0  0  0
 46 50  1  0  0  0  0
 47 52  1  0  0  0  0
 48 70  1  0  0  0  0
 49 52  1  0  0  0  0
 49 70  1  0  0  0  0
 50 76  1  0  0  0  0
 51 69  1  0  0  0  0
 52 68  1  0  0  0  0
 53 64  1  0  0  0  0
 54 65  1  0  0  0  0
 55 65  1  0  0  0  0
 56 65  1  0  0  0  0
 57 66  1  0  0  0  0
 58 66  1  0  0  0  0
 59 66  1  0  0  0  0
 60 78  1  0  0  0  0
 61 87  1  0  0  0  0
 62 65  1  0  0  0  0
 62 75  1  0  0  0  0
 63 66  1  0  0  0  0
 63 77  1  0  0  0  0
 64 78  1  0  0  0  0
 67 68  1  0  0  0  0
M  CHG  1  78   1
M  ISO  4  40 100  61 101  74 100  87 101
M  END
> <Batch ID>
0168

> <Smiles>
CNC(C)C(=O)NC(C(=O)N1Cc2cc([101O:1][101CH2:1]C(=O)C(NC(=O)c3cc([100NH:0][100C:0](=O)N4CCCC(n5nc(-c6ccc(Oc7ccc(F)cc7F)cc6)c(C(N)=O)c5N)C4)cc(N)c3F)C(C)(C)C)ccc2CC1C(=O)NC1CCCc2ccccc21)C(C)(C)C

> <Shape>
0.315

> <Color>
0.137

> <Negative vol penalty>
0.000

$$$$

  -OEChem-04052304143D

 89 97  0     1  0  0  0  0  0999 V2000
  -16.8881  -26.5044   25.5368 C   0  0  0  0  0  0  0  0  0  0  0  0
  -18.0057  -25.8647   25.0104 C   0  0  0  0  0  0  0  0  0  0  0  0
  -25.1905  -15.1169   23.2797 C   0  0  0  0  0  0  0  0  0  0  0  0
  -24.5730  -16.3166   21.2756 C   0  0  0  0  0  0  0  0  0  0  0  0
  -16.6026  -27.8194   25.1718 C   0  0  0  0  0  0  0  0  0  0  0  0
  -18.8379  -26.5393   24.1178 C   0  0  0  0  0  0  0  0  0  0  0  0
  -24.9151  -25.9785   23.6088 C   0  0  0  0  0  0  0  0  0  0  0  0
  -25.0375  -16.2852   24.0263 C   0  0  0  0  0  0  0  0  0  0  0  0
  -24.4199  -17.4849   22.0221 C   0  0  0  0  0  0  0  0  0  0  0  0
  -25.7199  -25.2491   22.7347 C   0  0  0  0  0  0  0  0  0  0  0  0
  -23.5166  -20.7006   23.4580 C   0  0  0  0  0  0  0  0  0  0  0  0
  -22.3844  -21.4796   23.2198 C   0  0  0  0  0  0  0  0  0  0  0  0
  -25.9659  -27.2025   21.3408 C   0  0  0  0  0  0  0  0  0  0  0  0
  -32.5963  -15.8569   21.4559 C   0  0  0  0  0  0  0  0  0  0  0  0
  -20.9737  -19.6200   23.8436 C   0  0  0  0  0  0  0  0  0  0  0  0
  -24.9583  -15.1326   21.9044 C   0  0  0  0  0  0  0  0  0  0  0  0
  -24.1326  -12.9584   20.8563 C   0  0  0  0  0  0  0  0  0  0  0  0
  -17.4371  -28.5137   24.2817 C   0  0  0  0  0  0  0  0  0  0  0  0
  -24.6203  -27.3247   23.3494 C   0  0  0  0  0  0  0  0  0  0  0  0
  -18.5626  -27.8643   23.7395 C   0  0  0  0  0  0  0  0  0  0  0  0
  -25.1593  -27.9475   22.2146 C   0  0  0  0  0  0  0  0  0  0  0  0
  -33.2060  -17.0556   21.8087 C   0  0  0  0  0  0  0  0  0  0  0  0
  -32.6447  -18.2609   21.4016 C   0  0  0  0  0  0  0  0  0  0  0  0
  -24.6522  -17.4692   23.3975 C   0  0  0  0  0  0  0  0  0  0  0  0
  -26.2430  -25.8603   21.5989 C   0  0  0  0  0  0  0  0  0  0  0  0
  -23.3774  -19.3812   23.8889 C   0  0  0  0  0  0  0  0  0  0  0  0
  -21.1129  -20.9393   23.4127 C   0  0  0  0  0  0  0  0  0  0  0  0
  -22.1060  -18.8409   24.0817 C   0  0  0  0  0  0  0  0  0  0  0  0
  -25.1168  -13.9263   21.1326 C   0  0  0  0  0  0  0  0  0  0  0  0
  -31.4360  -15.9170   20.7010 C   0  0  0  0  0  0  0  0  0  0  0  0
  -31.4824  -18.2133   20.6489 C   0  0  0  0  0  0  0  0  0  0  0  0
  -24.7804  -12.0182   20.0928 C   0  0  0  0  0  0  0  0  0  0  0  0
  -22.7558  -12.9134   21.2540 C   0  0  0  0  0  0  0  0  0  0  0  0
  -29.4044  -21.0267   19.2546 C   0  0  0  0  0  0  0  0  0  0  0  0
  -29.7466  -19.5819   19.4834 C   0  0  0  0  0  0  0  0  0  0  0  0
  -21.9588  -28.9715   22.7946 C   0  0  0  0  0  0  0  0  0  0  0  0
  -28.1812  -23.1382   20.0408 C   0  0  0  0  0  0  0  0  0  0  0  0
  -23.9697  -31.5138   22.9181 C   0  0  0  0  0  0  0  0  0  0  0  0
  -27.1490  -32.7114   22.5945 C   0  0  0  0  0  0  0  0  0  0  0  0
  -29.6569  -14.5006   19.5974 C   0  0  0  0  0  0  0  0  0  0  0  0
  -17.0615  -29.9181   23.8801 C   0  0  0  0  0  0  0  0  0  0  0  0
  -23.7726  -28.1050   24.3162 C   0  0  0  0  0  0  0  0  0  0  0  0
  -24.8894  -29.3958   21.9014 C   0  0  0  0  0  0  0  0  0  0  0  0
  -18.2018  -30.6881   23.2189 C   0  0  0  0  0  0  0  0  0  0  0  0
  -29.4007  -10.6562   19.7430 C   0  0  0  0  0  0  0  0  0  0  0  0
  -18.8848  -29.8268   22.1613 C   0  0  0  0  0  0  0  0  0  0  0  0
  -27.9192  -10.7458   20.0866 C   0  0  0  0  0  0  0  0  0  0  0  0
  -30.0751  -12.0093   19.9519 C   0  0  0  0  0  0  0  0  0  0  0  0
  -28.1603  -12.8055   18.5620 C   0  0  0  0  0  0  0  0  0  0  0  0
  -19.5031  -28.5710   22.7876 C   0  0  1  0  0  0  0  0  0  0  0  0
  -23.1166  -29.3283   23.6833 C   0  0  1  0  0  0  0  0  0  0  0  0
  -27.1979  -11.7891   19.2100 C   0  0  2  0  0  0  0  0  0  0  0  0
  -35.7031  -17.2800   21.7805 C   0  0  0  0  0  0  0  0  0  0  0  0
  -28.4750  -34.8383   22.7184 C   0  0  0  0  0  0  0  0  0  0  0  0
  -22.8811  -32.3483   20.1926 C   0  0  0  0  0  0  0  0  0  0  0  0
  -24.8536  -33.8708   19.9486 C   0  0  0  0  0  0  0  0  0  0  0  0
  -23.2226  -34.2327   21.8010 C   0  0  0  0  0  0  0  0  0  0  0  0
  -28.8164  -31.6792   24.8111 C   0  0  0  0  0  0  0  0  0  0  0  0
  -34.4581  -17.0180   22.6225 C   0  0  0  0  0  0  0  0  0  0  0  0
  -28.5275  -21.6837   20.2902 C   0  0  0  0  0  0  0  0  0  0  0  0
  -27.2753  -23.7838   21.0714 C   0  0  0  0  0  0  0  0  0  1  0  0
  -24.8064  -32.2650   21.9109 C   0  0  1  0  0  0  0  0  0  0  0  0
  -27.9780  -33.6213   23.4829 C   0  0  2  0  0  0  0  0  0  0  0  0
  -23.9446  -33.1514   20.9679 C   0  0  0  0  0  0  0  0  0  0  0  0
  -26.2999  -13.6283   20.5891 N   0  0  0  0  0  0  0  0  0  0  0  0
  -30.8613  -17.0684   20.2869 N   0  0  0  0  0  0  0  0  0  0  0  0
  -26.0634  -12.4626   19.9636 N   0  0  0  0  0  0  0  0  0  0  0  0
  -24.0497  -30.1147   22.8738 N   0  0  0  0  0  0  0  0  0  0  0  0
  -29.3055  -13.1400   19.4124 N   0  0  0  0  0  0  0  0  0  0  0  0
  -33.2479  -19.4863   21.7493 N   0  0  0  0  0  0  0  0  0  0  0  0
  -24.3720  -10.8630   19.5262 N   0  0  0  0  0  0  0  0  0  0  0  0
  -22.2520  -13.9608   22.0372 N   0  0  0  0  0  0  0  0  0  0  0  0
  -30.8979  -19.4299   20.2261 N   0  0  0  0  0  0  0  0  0  0  0  0
  -30.8216  -14.6895   20.3462 N   0  0  0  0  0  0  0  0  0  0  0  0
  -20.7461  -28.8977   23.4529 N   0  0  0  0  0  0  0  0  0  0  0  0
  -25.8040  -33.0030   22.6781 N   0  0  0  0  0  0  0  0  0  0  0  0
  -29.1596  -32.8872   24.0174 N   0  3  0  0  0  0  0  0  0  0  0  0
  -21.9992  -11.9639   20.9385 O   0  0  0  0  0  0  0  0  0  0  0  0
  -29.8447  -21.5501   18.2422 O   0  0  0  0  0  0  0  0  0  0  0  0
  -28.9738  -18.7584   19.0220 O   0  0  0  0  0  0  0  0  0  0  0  0
  -22.1511  -28.7790   21.5997 O   0  0  0  0  0  0  0  0  0  0  0  0
  -28.6223  -23.7708   19.0828 O   0  0  0  0  0  0  0  0  0  0  0  0
  -23.2765  -32.1452   23.7196 O   0  0  0  0  0  0  0  0  0  0  0  0
  -27.6454  -31.8324   21.8934 O   0  0  0  0  0  0  0  0  0  0  0  0
  -28.9784  -15.4148   19.1245 O   0  0  0  0  0  0  0  0  0  0  0  0
  -24.5025  -18.6093   24.1257 O   0  0  0  0  0  0  0  0  0  0  0  0
  -27.0283  -25.1505   20.7437 O   0  0  0  0  0  0  0  0  0  1  0  0
  -20.0257  -21.6880   23.1854 F   0  0  0  0  0  0  0  0  0  0  0  0
  -21.9660  -17.5744   24.4967 F   0  0  0  0  0  0  0  0  0  0  0  0
  1  2  1  0  0  0  0
  1  5  2  0  0  0  0
  2  6  2  0  0  0  0
  3  8  2  0  0  0  0
  3 16  1  0  0  0  0
  4  9  1  0  0  0  0
  4 16  2  0  0  0  0
  5 18  1  0  0  0  0
  6 20  1  0  0  0  0
  7 10  2  0  0  0  0
  7 19  1  0  0  0  0
  8 24  1  0  0  0  0
  9 24  2  0  0  0  0
 10 25  1  0  0  0  0
 11 12  2  0  0  0  0
 11 26  1  0  0  0  0
 12 27  1  0  0  0  0
 13 21  1  0  0  0  0
 13 25  2  0  0  0  0
 14 22  1  0  0  0  0
 14 30  2  0  0  0  0
 15 27  2  0  0  0  0
 15 28  1  0  0  0  0
 16 29  1  0  0  0  0
 17 29  1  0  0  0  0
 17 32  2  0  0  0  0
 17 33  1  0  0  0  0
 18 20  2  0  0  0  0
 18 41  1  0  0  0  0
 19 21  2  0  0  0  0
 19 42  1  0  0  0  0
 20 50  1  0  0  0  0
 21 43  1  0  0  0  0
 22 23  2  0  0  0  0
 22 59  1  0  0  0  0
 23 31  1  0  0  0  0
 23 70  1  0  0  0  0
 24 86  1  0  0  0  0
 25 87  1  0  0  0  0
 26 28  2  0  0  0  0
 26 86  1  0  0  0  0
 27 88  1  0  0  0  0
 28 89  1  0  0  0  0
 29 65  2  0  0  0  0
 30 66  1  0  0  0  0
 30 74  1  0  0  0  0
 31 66  2  0  0  0  0
 31 73  1  0  0  0  0
 32 67  1  0  0  0  0
 32 71  1  0  0  0  0
 33 72  1  0  0  0  0
 33 78  2  0  0  0  0
 34 35  1  0  0  0  0
 34 60  1  0  0  0  0
 34 79  2  0  0  0  0
 35 73  1  0  0  0  0
 35 80  2  0  0  0  0
 36 51  1  0  0  0  0
 36 75  1  0  0  0  0
 36 81  2  0  0  0  0
 37 60  1  0  0  0  0
 37 61  1  0  0  0  0
 37 82  2  0  0  0  0
 38 62  1  0  0  0  0
 38 68  1  0  0  0  0
 38 83  2  0  0  0  0
 39 63  1  0  0  0  0
 39 76  1  0  0  0  0
 39 84  2  0  0  0  0
 40 69  1  0  0  0  0
 40 74  1  0  0  0  0
 40 85  2  0  0  0  0
 41 44  1  0  0  0  0
 42 51  1  0  0  0  0
 43 68  1  0  0  0  0
 44 46  1  0  0  0  0
 45 47  1  0  0  0  0
 45 48  1  0  0  0  0
 46 50  1  0  0  0  0
 47 52  1  0  0  0  0
 48 69  1  0  0  0  0
 49 52  1  0  0  0  0
 49 69  1  0  0  0  0
 50 75  1  0  0  0  0
 51 68  1  0  0  0  0
 52 67  1  0  0  0  0
 53 59  1  0  0  0  0
 54 63  1  0  0  0  0
 55 64  1  0  0  0  0
 56 64  1  0  0  0  0
 57 64  1  0  0  0  0
 58 77  1  0  0  0  0
 61 87  1  0  0  0  0
 62 64  1  0  0  0  0
 62 76  1  0  0  0  0
 63 77  1  0  0  0  0
 65 67  1  0  0  0  0
M  CHG  1  77   1
M  ISO  4  40 100  61 101  74 100  87 101
M  END
> <Batch ID>
0168

> <Smiles>
CCc1cc([100NH:0][100C:0](=O)N2CCCC(n3nc(-c4ccc(Oc5ccc(F)cc5F)cc4)c(C(N)=O)c3N)C2)nc(NC(=O)C(=O)CC(=O)[101CH2:1][101O:1]c2ccc3c(c2)CN(C(=O)C(NC(=O)C(C)NC)C(C)(C)C)C(C(=O)NC2CCCc4ccccc42)C3)c1N

> <Shape>
0.247

> <Color>
0.078

> <Negative vol penalty>
0.000

$$$$

  -OEChem-04052304143D

 86 94  0     1  0  0  0  0  0999 V2000
  -33.0587  -28.5630   19.6203 C   0  0  0  0  0  0  0  0  0  0  0  0
  -32.4271  -28.3745   20.8455 C   0  0  0  0  0  0  0  0  0  0  0  0
  -22.1628  -14.2354   22.6244 C   0  0  0  0  0  0  0  0  0  0  0  0
  -23.6486  -15.2158   20.9910 C   0  0  0  0  0  0  0  0  0  0  0  0
  -32.5350  -27.9752   18.4696 C   0  0  0  0  0  0  0  0  0  0  0  0
  -31.2708  -27.5988   20.9204 C   0  0  0  0  0  0  0  0  0  0  0  0
  -27.8281  -23.1208   25.3263 C   0  0  0  0  0  0  0  0  0  0  0  0
  -20.0811  -27.7093   23.6679 C   0  0  0  0  0  0  0  0  0  0  0  0
  -22.0947  -13.0691   21.8625 C   0  0  0  0  0  0  0  0  0  0  0  0
  -23.5806  -14.0495   20.2290 C   0  0  0  0  0  0  0  0  0  0  0  0
  -26.5725  -22.9286   25.9011 C   0  0  0  0  0  0  0  0  0  0  0  0
  -21.8164   -9.6992   20.5278 C   0  0  0  0  0  0  0  0  0  0  0  0
  -18.9208  -28.3543   23.2397 C   0  0  0  0  0  0  0  0  0  0  0  0
  -21.9334   -8.4804   21.1958 C   0  0  0  0  0  0  0  0  0  0  0  0
  -25.8032  -21.8969   23.8607 C   0  0  0  0  0  0  0  0  0  0  0  0
  -18.6782  -26.7371   21.4612 C   0  0  0  0  0  0  0  0  0  0  0  0
  -24.1285   -9.1193   21.9771 C   0  0  0  0  0  0  0  0  0  0  0  0
  -22.9397  -15.3088   22.1887 C   0  0  0  0  0  0  0  0  0  0  0  0
  -23.9346  -16.8115   23.9942 C   0  0  0  0  0  0  0  0  0  0  0  0
  -31.3771  -27.1840   18.5321 C   0  0  0  0  0  0  0  0  0  0  0  0
  -28.0779  -22.7117   24.0085 C   0  0  0  0  0  0  0  0  0  0  0  0
  -30.7304  -27.0009   19.7693 C   0  0  0  0  0  0  0  0  0  0  0  0
  -27.0636  -22.0827   23.2725 C   0  0  0  0  0  0  0  0  0  0  0  0
  -19.8385  -26.0921   21.8894 C   0  0  0  0  0  0  0  0  0  0  0  0
  -20.5400  -26.5783   22.9927 C   0  0  0  0  0  0  0  0  0  0  0  0
  -22.8036  -12.9761   20.6648 C   0  0  0  0  0  0  0  0  0  0  0  0
  -25.5590  -22.3192   25.1673 C   0  0  0  0  0  0  0  0  0  0  0  0
  -22.8555  -10.6281   20.5843 C   0  0  0  0  0  0  0  0  0  0  0  0
  -18.2193  -27.8682   22.1364 C   0  0  0  0  0  0  0  0  0  0  0  0
  -23.0894   -8.1904   21.9205 C   0  0  0  0  0  0  0  0  0  0  0  0
  -24.0115  -10.3381   21.3090 C   0  0  0  0  0  0  0  0  0  0  0  0
  -23.0101  -16.5141   22.9751 C   0  0  0  0  0  0  0  0  0  0  0  0
  -23.5799  -18.0669   24.4239 C   0  0  0  0  0  0  0  0  0  0  0  0
  -21.6764  -25.4975   24.6460 C   0  0  0  0  0  0  0  0  0  0  0  0
  -25.0172  -16.0234   24.5066 C   0  0  0  0  0  0  0  0  0  0  0  0
  -22.8894  -24.8120   25.1861 C   0  0  0  0  0  0  0  0  0  0  0  0
  -28.8955  -24.1918   21.3170 C   0  0  0  0  0  0  0  0  0  0  0  0
  -29.1106  -21.1632   20.1753 C   0  0  0  0  0  0  0  0  0  0  0  0
  -28.1623  -17.8951   20.4344 C   0  0  0  0  0  0  0  0  0  0  0  0
  -20.8111  -22.5177   21.7074 C   0  0  0  0  0  0  0  0  0  0  0  0
  -30.8217  -26.6078   17.2537 C   0  0  0  0  0  0  0  0  0  0  0  0
  -29.4456  -22.9021   23.4122 C   0  0  0  0  0  0  0  0  0  0  0  0
  -27.2866  -21.6069   21.8610 C   0  0  0  0  0  0  0  0  0  0  0  0
  -29.8043  -25.4924   17.4798 C   0  0  0  0  0  0  0  0  0  0  0  0
  -19.7870  -20.9604   24.8096 C   0  0  0  0  0  0  0  0  0  0  0  0
  -28.7957  -25.8987   18.5495 C   0  0  0  0  0  0  0  0  0  0  0  0
  -20.5962  -19.6626   24.7800 C   0  0  0  0  0  0  0  0  0  0  0  0
  -19.2982  -21.3390   23.4146 C   0  0  0  0  0  0  0  0  0  0  0  0
  -21.1875  -20.1572   22.3623 C   0  0  0  0  0  0  0  0  0  0  0  0
  -29.4881  -26.1459   19.8952 C   0  0  1  0  0  0  0  0  0  0  0  0
  -29.4363  -22.9110   21.8867 C   0  0  1  0  0  0  0  0  0  0  0  0
  -21.7294  -19.7324   23.7392 C   0  0  2  0  0  0  0  0  0  0  0  0
  -28.4733  -15.6607   19.3354 C   0  0  0  0  0  0  0  0  0  0  0  0
  -23.6913  -22.3453   28.0243 C   0  0  0  0  0  0  0  0  0  0  0  0
  -27.2348  -22.0124   17.9236 C   0  0  0  0  0  0  0  0  0  0  0  0
  -26.8339  -19.5892   17.4378 C   0  0  0  0  0  0  0  0  0  0  0  0
  -29.1273  -20.5430   17.2066 C   0  0  0  0  0  0  0  0  0  0  0  0
  -29.3382  -16.7238   22.8847 C   0  0  0  0  0  0  0  0  0  0  0  0
  -20.3102  -24.8831   21.1497 C   0  0  0  0  0  0  0  0  0  0  0  0
  -22.6268  -23.7454   26.2237 C   0  0  0  0  0  0  0  0  0  0  0  0
  -28.1548  -20.1993   19.5149 C   0  0  1  0  0  0  0  0  0  0  0  0
  -28.9674  -16.6083   20.4173 C   0  0  2  0  0  0  0  0  0  0  0  0
  -23.9135  -23.0777   26.7077 C   0  0  2  0  0  0  0  0  0  1  0  0
  -27.8326  -20.5966   18.0466 C   0  0  0  0  0  0  0  0  0  0  0  0
  -22.1338  -17.5011   22.7697 N   0  0  0  0  0  0  0  0  0  0  0  0
  -21.7107  -25.9418   23.4379 N   0  0  0  0  0  0  0  0  0  0  0  0
  -22.5062  -18.4309   23.6658 N   0  0  0  0  0  0  0  0  0  0  0  0
  -28.6390  -21.8214   21.3199 N   0  0  0  0  0  0  0  0  0  0  0  0
  -20.4275  -21.4065   22.4764 N   0  0  0  0  0  0  0  0  0  0  0  0
  -24.0849  -18.8840   25.3725 N   0  0  0  0  0  0  0  0  0  0  0  0
  -25.2422  -14.7562   23.9518 N   0  0  0  0  0  0  0  0  0  0  0  0
  -29.8015  -24.8891   20.5408 N   0  0  0  0  0  0  0  0  0  0  0  0
  -28.7472  -18.8739   19.6590 N   0  0  0  0  0  0  0  0  0  0  0  0
  -20.0352  -23.6591   21.8688 N   0  0  0  0  0  0  0  0  0  0  0  0
  -28.8637  -15.9150   21.7324 N   0  3  0  0  0  0  0  0  0  0  0  0
  -25.7527  -16.4242   25.4404 O   0  0  0  0  0  0  0  0  0  0  0  0
  -23.9777  -25.1451   24.7444 O   0  0  0  0  0  0  0  0  0  0  0  0
  -27.7413  -24.5223   21.5623 O   0  0  0  0  0  0  0  0  0  0  0  0
  -30.2369  -21.3209   19.6974 O   0  0  0  0  0  0  0  0  0  0  0  0
  -27.1169  -18.0185   21.0688 O   0  0  0  0  0  0  0  0  0  0  0  0
  -21.7774  -22.4962   20.9374 O   0  0  0  0  0  0  0  0  0  0  0  0
  -22.7375  -11.8380   19.9211 O   0  0  0  0  0  0  0  0  0  0  0  0
  -24.3324  -22.1309   25.7257 O   0  0  0  0  0  0  0  0  0  1  0  0
  -17.1049  -28.4874   21.7256 F   0  0  0  0  0  0  0  0  0  0  0  0
  -23.2010   -7.0205   22.5633 F   0  0  0  0  0  0  0  0  0  0  0  0
  -25.0126  -11.2270   21.3679 F   0  0  0  0  0  0  0  0  0  0  0  0
  1  2  1  0  0  0  0
  1  5  2  0  0  0  0
  2  6  2  0  0  0  0
  3  9  2  0  0  0  0
  3 18  1  0  0  0  0
  4 10  1  0  0  0  0
  4 18  2  0  0  0  0
  5 20  1  0  0  0  0
  6 22  1  0  0  0  0
  7 11  2  0  0  0  0
  7 21  1  0  0  0  0
  8 13  2  0  0  0  0
  8 25  1  0  0  0  0
  9 26  1  0  0  0  0
 10 26  2  0  0  0  0
 11 27  1  0  0  0  0
 12 14  2  0  0  0  0
 12 28  1  0  0  0  0
 13 29  1  0  0  0  0
 14 30  1  0  0  0  0
 15 23  1  0  0  0  0
 15 27  2  0  0  0  0
 16 24  1  0  0  0  0
 16 29  2  0  0  0  0
 17 30  2  0  0  0  0
 17 31  1  0  0  0  0
 18 32  1  0  0  0  0
 19 32  1  0  0  0  0
 19 33  2  0  0  0  0
 19 35  1  0  0  0  0
 20 22  2  0  0  0  0
 20 41  1  0  0  0  0
 21 23  2  0  0  0  0
 21 42  1  0  0  0  0
 22 50  1  0  0  0  0
 23 43  1  0  0  0  0
 24 25  2  0  0  0  0
 24 59  1  0  0  0  0
 25 66  1  0  0  0  0
 26 82  1  0  0  0  0
 27 83  1  0  0  0  0
 28 31  2  0  0  0  0
 28 82  1  0  0  0  0
 29 84  1  0  0  0  0
 30 85  1  0  0  0  0
 31 86  1  0  0  0  0
 32 65  2  0  0  0  0
 33 67  1  0  0  0  0
 33 70  1  0  0  0  0
 34 36  1  0  0  0  0
 34 66  2  0  0  0  0
 35 71  1  0  0  0  0
 35 76  2  0  0  0  0
 36 60  1  0  0  0  0
 36 77  2  0  0  0  0
 37 51  1  0  0  0  0
 37 72  1  0  0  0  0
 37 78  2  0  0  0  0
 38 61  1  0  0  0  0
 38 68  1  0  0  0  0
 38 79  2  0  0  0  0
 39 62  1  0  0  0  0
 39 73  1  0  0  0  0
 39 80  2  0  0  0  0
 40 69  1  0  0  0  0
 40 74  1  0  0  0  0
 40 81  2  0  0  0  0
 41 44  1  0  0  0  0
 42 51  1  0  0  0  0
 43 68  1  0  0  0  0
 44 46  1  0  0  0  0
 45 47  1  0  0  0  0
 45 48  1  0  0  0  0
 46 50  1  0  0  0  0
 47 52  1  0  0  0  0
 48 69  1  0  0  0  0
 49 52  1  0  0  0  0
 49 69  1  0  0  0  0
 50 72  1  0  0  0  0
 51 68  1  0  0  0  0
 52 67  1  0  0  0  0
 53 62  1  0  0  0  0
 54 63  1  0  0  0  0
 55 64  1  0  0  0  0
 56 64  1  0  0  0  0
 57 64  1  0  0  0  0
 58 75  1  0  0  0  0
 59 74  1  0  0  0  0
 60 63  1  0  0  0  0
 61 64  1  0  0  0  0
 61 73  1  0  0  0  0
 62 75  1  0  0  0  0
 63 83  1  0  0  0  0
 65 67  1  0  0  0  0
M  CHG  1  75   1
M  ISO  4  40 100  63 101  74 100  83 101
M  END
> <Batch ID>
0168

> <Smiles>
CNC(C)C(=O)NC(C(=O)N1Cc2cc([101O:1][101CH:1](C)CC(=O)CNc3ccc(F)cc3C=[100N:0][100C:0](=O)N3CCCC(n4nc(-c5ccc(Oc6ccc(F)cc6F)cc5)c(C(N)=O)c4N)C3)ccc2CC1C(=O)NC1CCCc2ccccc21)C(C)(C)C

> <Shape>
0.207

> <Color>
0.036

> <Negative vol penalty>
0.000

$$$$

  -OEChem-04052304143D

 89 97  0     1  0  0  0  0  0999 V2000
  -39.6023  -29.3056   21.3571 C   0  0  0  0  0  0  0  0  0  0  0  0
  -38.5462  -28.4441   21.6364 C   0  0  0  0  0  0  0  0  0  0  0  0
  -23.0039   -9.8899   19.9795 C   0  0  0  0  0  0  0  0  0  0  0  0
  -23.7275   -9.9423   22.2840 C   0  0  0  0  0  0  0  0  0  0  0  0
  -39.5336  -30.6413   21.7509 C   0  0  0  0  0  0  0  0  0  0  0  0
  -37.4213  -28.9176   22.3107 C   0  0  0  0  0  0  0  0  0  0  0  0
  -31.6162  -27.1526   21.4788 C   0  0  0  0  0  0  0  0  0  0  0  0
  -22.2385   -8.7546   20.2455 C   0  0  0  0  0  0  0  0  0  0  0  0
  -22.9621   -8.8070   22.5501 C   0  0  0  0  0  0  0  0  0  0  0  0
  -30.8004  -26.2563   22.1679 C   0  0  0  0  0  0  0  0  0  0  0  0
  -23.2106   -5.4682   22.0791 C   0  0  0  0  0  0  0  0  0  0  0  0
  -23.7988   -4.4519   22.8318 C   0  0  0  0  0  0  0  0  0  0  0  0
  -29.8713  -28.0862   23.4358 C   0  0  0  0  0  0  0  0  0  0  0  0
  -31.1922  -17.5902   20.5665 C   0  0  0  0  0  0  0  0  0  0  0  0
  -30.6770  -19.8072   21.3766 C   0  0  0  0  0  0  0  0  0  0  0  0
  -22.0735   -4.6932   24.5059 C   0  0  0  0  0  0  0  0  0  0  0  0
  -23.7485  -10.4838   20.9987 C   0  0  0  0  0  0  0  0  0  0  0  0
  -24.1310  -12.9998   20.8223 C   0  0  0  0  0  0  0  0  0  0  0  0
  -38.4031  -31.1337   22.4219 C   0  0  0  0  0  0  0  0  0  0  0  0
  -31.5735  -28.5235   21.7711 C   0  0  0  0  0  0  0  0  0  0  0  0
  -37.3380  -30.2609   22.7151 C   0  0  0  0  0  0  0  0  0  0  0  0
  -30.6857  -28.9981   22.7472 C   0  0  0  0  0  0  0  0  0  0  0  0
  -29.5431  -17.8874   22.3068 C   0  0  0  0  0  0  0  0  0  0  0  0
  -30.2645  -17.0493   21.4567 C   0  0  0  0  0  0  0  0  0  0  0  0
  -29.7493  -19.2664   22.2668 C   0  0  0  0  0  0  0  0  0  0  0  0
  -22.2176   -8.2131   21.5308 C   0  0  0  0  0  0  0  0  0  0  0  0
  -29.9299  -26.7227   23.1486 C   0  0  0  0  0  0  0  0  0  0  0  0
  -22.0538   -6.0971   22.5398 C   0  0  0  0  0  0  0  0  0  0  0  0
  -23.2302   -4.0643   24.0452 C   0  0  0  0  0  0  0  0  0  0  0  0
  -31.3985  -18.9692   20.5264 C   0  0  0  0  0  0  0  0  0  0  0  0
  -21.4853   -5.7096   23.7531 C   0  0  0  0  0  0  0  0  0  0  0  0
  -24.5398  -11.6562   20.7243 C   0  0  0  0  0  0  0  0  0  0  0  0
  -25.2402  -13.7235   20.4585 C   0  0  0  0  0  0  0  0  0  0  0  0
  -22.8622  -13.5448   21.2079 C   0  0  0  0  0  0  0  0  0  0  0  0
  -28.2846  -22.1503   24.1451 C   0  0  0  0  0  0  0  0  0  0  0  0
  -28.3015  -23.6553   24.3282 C   0  0  0  0  0  0  0  0  0  0  0  0
  -33.6667  -30.6496   22.8672 C   0  0  0  0  0  0  0  0  0  0  0  0
  -31.2682  -32.7460   22.2552 C   0  0  0  0  0  0  0  0  0  0  0  0
  -27.9226  -33.2822   21.8475 C   0  0  0  0  0  0  0  0  0  0  0  0
  -30.7184  -14.6910   20.6959 C   0  0  0  0  0  0  0  0  0  0  0  0
  -38.3948  -32.5739   22.8695 C   0  0  0  0  0  0  0  0  0  0  0  0
  -32.4406  -29.4805   21.0001 C   0  0  0  0  0  0  0  0  0  0  0  0
  -30.5870  -30.4627   23.0845 C   0  0  0  0  0  0  0  0  0  0  0  0
  -37.0075  -33.0859   23.2485 C   0  0  0  0  0  0  0  0  0  0  0  0
  -29.6045  -12.2363   18.3698 C   0  0  0  0  0  0  0  0  0  0  0  0
  -36.2939  -32.0798   24.1458 C   0  0  0  0  0  0  0  0  0  0  0  0
  -28.1539  -11.9771   18.7830 C   0  0  0  0  0  0  0  0  0  0  0  0
  -30.5039  -12.4810   19.5801 C   0  0  0  0  0  0  0  0  0  0  0  0
  -28.5868  -13.2680   20.9122 C   0  0  0  0  0  0  0  0  0  0  0  0
  -36.0902  -30.7429   23.4227 C   0  0  1  0  0  0  0  0  0  0  0  0
  -32.6852  -30.7929   21.7386 C   0  0  1  0  0  0  0  0  0  0  0  0
  -27.6301  -13.0802   19.7234 C   0  0  2  0  0  0  0  0  0  0  0  0
  -26.2609  -35.1071   21.3940 C   0  0  0  0  0  0  0  0  0  0  0  0
  -31.5435  -33.7095   25.1372 C   0  0  0  0  0  0  0  0  0  0  0  0
  -29.3035  -34.8049   24.9115 C   0  0  0  0  0  0  0  0  0  0  0  0
  -31.1964  -35.5295   23.4574 C   0  0  0  0  0  0  0  0  0  0  0  0
  -27.0219  -31.9975   19.3381 C   0  0  0  0  0  0  0  0  0  0  0  0
  -29.2057  -21.5490   23.1151 C   0  0  0  0  0  0  0  0  0  0  0  0
  -29.2404  -24.4701   23.4752 C   0  0  0  0  0  0  0  0  0  1  0  0
  -30.0986  -33.2909   23.0388 C   0  0  1  0  0  0  0  0  0  0  0  0
  -27.1453  -34.0325   20.7810 C   0  0  2  0  0  0  0  0  0  0  0  0
  -28.5444  -17.3073   23.2599 C   0  0  0  0  0  0  0  0  0  0  0  0
  -30.5385  -34.3058   24.1315 C   0  0  0  0  0  0  0  0  0  0  0  0
  -25.8095  -11.5311   20.3290 N   0  0  0  0  0  0  0  0  0  0  0  0
  -26.2081  -12.8053   20.1753 N   0  0  0  0  0  0  0  0  0  0  0  0
  -31.4599  -31.3581   22.3075 N   0  0  0  0  0  0  0  0  0  0  0  0
  -29.9471  -13.5415   20.4228 N   0  0  0  0  0  0  0  0  0  0  0  0
  -25.4722  -15.0495   20.3563 N   0  0  0  0  0  0  0  0  0  0  0  0
  -21.8312  -12.6595   21.5509 N   0  0  0  0  0  0  0  0  0  0  0  0
  -30.0725  -15.6456   21.4808 N   0  0  0  0  0  0  0  0  0  0  0  0
  -29.0423  -20.1162   23.1038 N   0  0  0  0  0  0  0  0  0  0  0  0
  -34.9843  -30.8341   22.4938 N   0  0  0  0  0  0  0  0  0  0  0  0
  -29.1677  -33.8363   22.0568 N   0  0  0  0  0  0  0  0  0  0  0  0
  -26.2798  -33.0929   20.0135 N   0  3  0  0  0  0  0  0  0  0  0  0
  -22.6440  -14.7798   21.2312 O   0  0  0  0  0  0  0  0  0  0  0  0
  -27.5147  -21.5121   24.8520 O   0  0  0  0  0  0  0  0  0  0  0  0
  -27.5471  -24.1299   25.1676 O   0  0  0  0  0  0  0  0  0  0  0  0
  -33.2587  -30.3924   23.9937 O   0  0  0  0  0  0  0  0  0  0  0  0
  -31.9810  -33.5224   21.6143 O   0  0  0  0  0  0  0  0  0  0  0  0
  -27.4690  -32.3047   22.4386 O   0  0  0  0  0  0  0  0  0  0  0  0
  -31.8572  -14.8311   20.2426 O   0  0  0  0  0  0  0  0  0  0  0  0
  -21.4706   -7.1055   21.7909 O   0  0  0  0  0  0  0  0  0  0  0  0
  -29.1330  -25.8499   23.8232 O   0  0  0  0  0  0  0  0  0  1  0  0
  -23.7943   -3.0872   24.7672 F   0  0  0  0  0  0  0  0  0  0  0  0
  -32.2895  -19.4882   19.6715 F   0  0  0  0  0  0  0  0  0  0  0  0
  -20.3734   -6.3093   24.2003 F   0  0  0  0  0  0  0  0  0  0  0  0
  -28.4487  -15.9492   23.1838 F   0  0  0  0  0  0  0  0  0  0  0  0
  -28.8241  -17.5771   24.5668 F   0  0  0  0  0  0  0  0  0  0  0  0
  -27.2851  -17.7809   23.0442 F   0  0  0  0  0  0  0  0  0  0  0  0
  1  2  1  0  0  0  0
  1  5  2  0  0  0  0
  2  6  2  0  0  0  0
  3  8  2  0  0  0  0
  3 17  1  0  0  0  0
  4  9  1  0  0  0  0
  4 17  2  0  0  0  0
  5 19  1  0  0  0  0
  6 21  1  0  0  0  0
  7 10  2  0  0  0  0
  7 20  1  0  0  0  0
  8 26  1  0  0  0  0
  9 26  2  0  0  0  0
 10 27  1  0  0  0  0
 11 12  2  0  0  0  0
 11 28  1  0  0  0  0
 12 29  1  0  0  0  0
 13 22  1  0  0  0  0
 13 27  2  0  0  0  0
 14 24  2  0  0  0  0
 14 30  1  0  0  0  0
 15 25  1  0  0  0  0
 15 30  2  0  0  0  0
 16 29  2  0  0  0  0
 16 31  1  0  0  0  0
 17 32  1  0  0  0  0
 18 32  1  0  0  0  0
 18 33  2  0  0  0  0
 18 34  1  0  0  0  0
 19 21  2  0  0  0  0
 19 41  1  0  0  0  0
 20 22  2  0  0  0  0
 20 42  1  0  0  0  0
 21 50  1  0  0  0  0
 22 43  1  0  0  0  0
 23 24  1  0  0  0  0
 23 25  2  0  0  0  0
 23 62  1  0  0  0  0
 24 70  1  0  0  0  0
 25 71  1  0  0  0  0
 26 82  1  0  0  0  0
 27 83  1  0  0  0  0
 28 31  2  0  0  0  0
 28 82  1  0  0  0  0
 29 84  1  0  0  0  0
 30 85  1  0  0  0  0
 31 86  1  0  0  0  0
 32 64  2  0  0  0  0
 33 65  1  0  0  0  0
 33 68  1  0  0  0  0
 34 69  1  0  0  0  0
 34 75  2  0  0  0  0
 35 36  1  0  0  0  0
 35 58  1  0  0  0  0
 35 76  2  0  0  0  0
 36 59  1  0  0  0  0
 36 77  2  0  0  0  0
 37 51  1  0  0  0  0
 37 72  1  0  0  0  0
 37 78  2  0  0  0  0
 38 60  1  0  0  0  0
 38 66  1  0  0  0  0
 38 79  2  0  0  0  0
 39 61  1  0  0  0  0
 39 73  1  0  0  0  0
 39 80  2  0  0  0  0
 40 67  1  0  0  0  0
 40 70  1  0  0  0  0
 40 81  2  0  0  0  0
 41 44  1  0  0  0  0
 42 51  1  0  0  0  0
 43 66  1  0  0  0  0
 44 46  1  0  0  0  0
 45 47  1  0  0  0  0
 45 48  1  0  0  0  0
 46 50  1  0  0  0  0
 47 52  1  0  0  0  0
 48 67  1  0  0  0  0
 49 52  1  0  0  0  0
 49 67  1  0  0  0  0
 50 72  1  0  0  0  0
 51 66  1  0  0  0  0
 52 65  1  0  0  0  0
 53 61  1  0  0  0  0
 54 63  1  0  0  0  0
 55 63  1  0  0  0  0
 56 63  1  0  0  0  0
 57 74  1  0  0  0  0
 58 71  1  0  0  0  0
 59 83  1  0  0  0  0
 60 63  1  0  0  0  0
 60 73  1  0  0  0  0
 61 74  1  0  0  0  0
 62 87  1  0  0  0  0
 62 88  1  0  0  0  0
 62 89  1  0  0  0  0
 64 65  1  0  0  0  0
M  CHG  1  74   1
M  ISO  4  40 100  59 101  70 100  83 101
M  END
> <Batch ID>
0168

> <Smiles>
CNC(C)C(=O)NC(C(=O)N1Cc2cc([101O:1][101CH2:1]C(=O)C(=O)CNc3cc(F)cc([100NH:0][100C:0](=O)N4CCCC(n5nc(-c6ccc(Oc7ccc(F)cc7F)cc6)c(C(N)=O)c5N)C4)c3C(F)(F)F)ccc2CC1C(=O)NC1CCCc2ccccc21)C(C)(C)C

> <Shape>
0.201

> <Color>
0.193

> <Negative vol penalty>
0.000

$$$$

  -OEChem-04052304143D

 87 95  0     1  0  0  0  0  0999 V2000
  -24.3864  -34.0099   24.0727 C   0  0  0  0  0  0  0  0  0  0  0  0
  -25.3392  -33.1850   24.6620 C   0  0  0  0  0  0  0  0  0  0  0  0
  -22.9900   -9.8242   20.0921 C   0  0  0  0  0  0  0  0  0  0  0  0
  -23.6574  -10.0787   22.4001 C   0  0  0  0  0  0  0  0  0  0  0  0
  -23.4067  -33.4615   23.2461 C   0  0  0  0  0  0  0  0  0  0  0  0
  -25.3121  -31.8110   24.4258 C   0  0  0  0  0  0  0  0  0  0  0  0
  -30.1302  -28.0580   23.9714 C   0  0  0  0  0  0  0  0  0  0  0  0
  -22.2112   -8.7203   20.4390 C   0  0  0  0  0  0  0  0  0  0  0  0
  -22.8786   -8.9748   22.7470 C   0  0  0  0  0  0  0  0  0  0  0  0
  -30.7340  -27.1923   24.8823 C   0  0  0  0  0  0  0  0  0  0  0  0
  -23.1174   -5.6064   22.5814 C   0  0  0  0  0  0  0  0  0  0  0  0
  -23.6807   -4.6587   23.4359 C   0  0  0  0  0  0  0  0  0  0  0  0
  -29.4512  -25.3589   23.9811 C   0  0  0  0  0  0  0  0  0  0  0  0
  -30.6407  -18.8722   23.0302 C   0  0  0  0  0  0  0  0  0  0  0  0
  -32.3809  -17.3045   23.6226 C   0  0  0  0  0  0  0  0  0  0  0  0
  -21.9167   -5.0554   25.0384 C   0  0  0  0  0  0  0  0  0  0  0  0
  -23.7132  -10.5034   21.0726 C   0  0  0  0  0  0  0  0  0  0  0  0
  -24.1157  -12.9921   20.6826 C   0  0  0  0  0  0  0  0  0  0  0  0
  -23.3734  -32.0813   22.9919 C   0  0  0  0  0  0  0  0  0  0  0  0
  -29.1727  -27.5818   23.0643 C   0  0  0  0  0  0  0  0  0  0  0  0
  -24.3302  -31.2435   23.5961 C   0  0  0  0  0  0  0  0  0  0  0  0
  -28.8385  -26.2201   23.0580 C   0  0  0  0  0  0  0  0  0  0  0  0
  -30.0570  -17.9121   22.2038 C   0  0  0  0  0  0  0  0  0  0  0  0
  -31.8027  -18.5685   23.7396 C   0  0  0  0  0  0  0  0  0  0  0  0
  -30.6352  -16.6481   22.0868 C   0  0  0  0  0  0  0  0  0  0  0  0
  -22.1555   -8.2956   21.7665 C   0  0  0  0  0  0  0  0  0  0  0  0
  -30.3924  -25.8431   24.8892 C   0  0  0  0  0  0  0  0  0  0  0  0
  -21.9538   -6.2786   22.9553 C   0  0  0  0  0  0  0  0  0  0  0  0
  -23.0803   -4.3832   24.6644 C   0  0  0  0  0  0  0  0  0  0  0  0
  -31.7972  -16.3443   22.7962 C   0  0  0  0  0  0  0  0  0  0  0  0
  -21.3534   -6.0030   24.1838 C   0  0  0  0  0  0  0  0  0  0  0  0
  -24.5183  -11.6435   20.7147 C   0  0  0  0  0  0  0  0  0  0  0  0
  -25.2380  -13.6760   20.2835 C   0  0  0  0  0  0  0  0  0  0  0  0
  -22.8413  -13.5745   20.9865 C   0  0  0  0  0  0  0  0  0  0  0  0
  -32.7355  -21.6164   25.6966 C   0  0  0  0  0  0  0  0  0  0  0  0
  -32.3631  -23.0495   26.0230 C   0  0  0  0  0  0  0  0  0  0  0  0
  -26.0960  -28.1771   22.5319 C   0  0  0  0  0  0  0  0  0  0  0  0
  -26.5587  -26.2196   19.9871 C   0  0  0  0  0  0  0  0  0  0  0  0
  -28.3707  -23.7058   18.5572 C   0  0  0  0  0  0  0  0  0  0  0  0
  -30.7148  -14.6383   20.5700 C   0  0  0  0  0  0  0  0  0  0  0  0
  -22.2667  -31.5285   22.1293 C   0  0  0  0  0  0  0  0  0  0  0  0
  -28.5501  -28.5235   22.0702 C   0  0  0  0  0  0  0  0  0  0  0  0
  -27.8314  -25.6551   22.0911 C   0  0  0  0  0  0  0  0  0  0  0  0
  -22.5337  -30.1108   21.6302 C   0  0  0  0  0  0  0  0  0  0  0  0
  -29.6425  -11.9906   18.4446 C   0  0  0  0  0  0  0  0  0  0  0  0
  -23.0264  -29.2270   22.7717 C   0  0  0  0  0  0  0  0  0  0  0  0
  -28.1807  -11.7752   18.8431 C   0  0  0  0  0  0  0  0  0  0  0  0
  -30.5137  -12.3386   19.6503 C   0  0  0  0  0  0  0  0  0  0  0  0
  -28.5696  -13.2490   20.8590 C   0  0  0  0  0  0  0  0  0  0  0  0
  -24.3488  -29.7514   23.3442 C   0  0  1  0  0  0  0  0  0  0  0  0
  -27.2103  -28.0274   21.5352 C   0  0  1  0  0  0  0  0  0  0  0  0
  -27.6411  -12.9600   19.6682 C   0  0  2  0  0  0  0  0  0  0  0  0
  -29.0895  -18.5560   19.9821 C   0  0  0  0  0  0  0  0  0  0  0  0
  -28.4864  -22.2925   16.4868 C   0  0  0  0  0  0  0  0  0  0  0  0
  -24.1887  -24.5745   20.9804 C   0  0  0  0  0  0  0  0  0  0  0  0
  -24.9369  -22.7175   19.4772 C   0  0  0  0  0  0  0  0  0  0  0  0
  -24.2593  -24.9119   18.5034 C   0  0  0  0  0  0  0  0  0  0  0  0
  -31.0746  -24.7047   17.8864 C   0  0  0  0  0  0  0  0  0  0  0  0
  -28.8137  -18.2661   21.4541 C   0  0  0  0  0  0  0  0  0  0  0  0
  -31.8546  -20.8529   24.7418 C   0  0  0  0  0  0  0  0  0  0  0  0
  -31.1357  -23.6365   25.3733 C   0  0  0  0  0  0  0  0  0  1  0  0
  -26.4523  -24.7327   19.7487 C   0  0  1  0  0  0  0  0  0  0  0  0
  -28.9726  -23.5606   17.1712 C   0  0  2  0  0  0  0  0  0  0  0  0
  -24.9769  -24.2448   19.6971 C   0  0  0  0  0  0  0  0  0  0  0  0
  -25.7965  -11.4784   20.3638 N   0  0  0  0  0  0  0  0  0  0  0  0
  -26.2067  -12.7322   20.1074 N   0  0  0  0  0  0  0  0  0  0  0  0
  -27.2457  -26.6170   21.1429 N   0  0  0  0  0  0  0  0  0  0  0  0
  -29.9431  -13.4722   20.3812 N   0  0  0  0  0  0  0  0  0  0  0  0
  -25.4808  -14.9866   20.0695 N   0  0  0  0  0  0  0  0  0  0  0  0
  -21.7967  -12.7276   21.3812 N   0  0  0  0  0  0  0  0  0  0  0  0
  -30.0560  -15.6617   21.2506 N   0  0  0  0  0  0  0  0  0  0  0  0
  -32.3828  -19.5232   24.5610 N   0  0  0  0  0  0  0  0  0  0  0  0
  -25.4511  -29.3979   22.4756 N   0  0  0  0  0  0  0  0  0  0  0  0
  -27.2153  -24.4580   18.5360 N   0  0  0  0  0  0  0  0  0  0  0  0
  -30.4597  -23.5087   17.2552 N   0  3  0  0  0  0  0  0  0  0  0  0
  -22.6305  -14.8076   20.8944 O   0  0  0  0  0  0  0  0  0  0  0  0
  -33.7380  -21.1651   26.2359 O   0  0  0  0  0  0  0  0  0  0  0  0
  -33.0871  -23.6571   26.8012 O   0  0  0  0  0  0  0  0  0  0  0  0
  -25.8392  -27.2529   23.2945 O   0  0  0  0  0  0  0  0  0  0  0  0
  -26.0572  -26.9998   19.1738 O   0  0  0  0  0  0  0  0  0  0  0  0
  -28.8730  -23.1992   19.5580 O   0  0  0  0  0  0  0  0  0  0  0  0
  -31.8652  -14.7328   20.1345 O   0  0  0  0  0  0  0  0  0  0  0  0
  -21.3954   -7.2185   22.1054 O   0  0  0  0  0  0  0  0  0  0  0  0
  -30.9798  -24.9961   25.7777 O   0  0  0  0  0  0  0  0  0  1  0  0
  -23.6205   -3.4720   25.4843 F   0  0  0  0  0  0  0  0  0  0  0  0
  -32.3629  -15.1332   22.6912 F   0  0  0  0  0  0  0  0  0  0  0  0
  -20.2348   -6.6447   24.5480 F   0  0  0  0  0  0  0  0  0  0  0  0
  1  2  1  0  0  0  0
  1  5  2  0  0  0  0
  2  6  2  0  0  0  0
  3  8  2  0  0  0  0
  3 17  1  0  0  0  0
  4  9  1  0  0  0  0
  4 17  2  0  0  0  0
  5 19  1  0  0  0  0
  6 21  1  0  0  0  0
  7 10  2  0  0  0  0
  7 20  1  0  0  0  0
  8 26  1  0  0  0  0
  9 26  2  0  0  0  0
 10 27  1  0  0  0  0
 11 12  2  0  0  0  0
 11 28  1  0  0  0  0
 12 29  1  0  0  0  0
 13 22  1  0  0  0  0
 13 27  2  0  0  0  0
 14 23  1  0  0  0  0
 14 24  2  0  0  0  0
 15 24  1  0  0  0  0
 15 30  2  0  0  0  0
 16 29  2  0  0  0  0
 16 31  1  0  0  0  0
 17 32  1  0  0  0  0
 18 32  1  0  0  0  0
 18 33  2  0  0  0  0
 18 34  1  0  0  0  0
 19 21  2  0  0  0  0
 19 41  1  0  0  0  0
 20 22  2  0  0  0  0
 20 42  1  0  0  0  0
 21 50  1  0  0  0  0
 22 43  1  0  0  0  0
 23 25  2  0  0  0  0
 23 59  1  0  0  0  0
 24 72  1  0  0  0  0
 25 30  1  0  0  0  0
 25 71  1  0  0  0  0
 26 83  1  0  0  0  0
 27 84  1  0  0  0  0
 28 31  2  0  0  0  0
 28 83  1  0  0  0  0
 29 85  1  0  0  0  0
 30 86  1  0  0  0  0
 31 87  1  0  0  0  0
 32 65  2  0  0  0  0
 33 66  1  0  0  0  0
 33 69  1  0  0  0  0
 34 70  1  0  0  0  0
 34 76  2  0  0  0  0
 35 36  1  0  0  0  0
 35 60  1  0  0  0  0
 35 77  2  0  0  0  0
 36 61  1  0  0  0  0
 36 78  2  0  0  0  0
 37 51  1  0  0  0  0
 37 73  1  0  0  0  0
 37 79  2  0  0  0  0
 38 62  1  0  0  0  0
 38 67  1  0  0  0  0
 38 80  2  0  0  0  0
 39 63  1  0  0  0  0
 39 74  1  0  0  0  0
 39 81  2  0  0  0  0
 40 68  1  0  0  0  0
 40 71  1  0  0  0  0
 40 82  2  0  0  0  0
 41 44  1  0  0  0  0
 42 51  1  0  0  0  0
 43 67  1  0  0  0  0
 44 46  1  0  0  0  0
 45 47  1  0  0  0  0
 45 48  1  0  0  0  0
 46 50  1  0  0  0  0
 47 52  1  0  0  0  0
 48 68  1  0  0  0  0
 49 52  1  0  0  0  0
 49 68  1  0  0  0  0
 50 73  1  0  0  0  0
 51 67  1  0  0  0  0
 52 66  1  0  0  0  0
 53 59  1  0  0  0  0
 54 63  1  0  0  0  0
 55 64  1  0  0  0  0
 56 64  1  0  0  0  0
 57 64  1  0  0  0  0
 58 75  1  0  0  0  0
 60 72  1  0  0  0  0
 61 84  1  0  0  0  0
 62 64  1  0  0  0  0
 62 74  1  0  0  0  0
 63 75  1  0  0  0  0
 65 66  1  0  0  0  0
M  CHG  1  75   1
M  ISO  4  40 100  61 101  71 100  84 101
M  END
> <Batch ID>
0168

> <Smiles>
CCc1cc(NCC(=O)C(=O)[101CH2:1][101O:1]c2ccc3c(c2)CN(C(=O)C(NC(=O)C(C)NC)C(C)(C)C)C(C(=O)NC2CCCc4ccccc42)C3)cc(F)c1[100NH:0][100C:0](=O)N1CCCC(n2nc(-c3ccc(Oc4ccc(F)cc4F)cc3)c(C(N)=O)c2N)C1

> <Shape>
0.311

> <Color>
0.193

> <Negative vol penalty>
0.000

$$$$

  -OEChem-04052304143D

 90 98  0     1  0  0  0  0  0999 V2000
  -35.9292  -28.3671   19.8134 C   0  0  0  0  0  0  0  0  0  0  0  0
  -36.1254  -27.1271   20.4130 C   0  0  0  0  0  0  0  0  0  0  0  0
  -23.0011   -9.8925   19.9802 C   0  0  0  0  0  0  0  0  0  0  0  0
  -23.7270   -9.9421   22.2840 C   0  0  0  0  0  0  0  0  0  0  0  0
  -34.7893  -28.5954   19.0437 C   0  0  0  0  0  0  0  0  0  0  0  0
  -35.1811  -26.1151   20.2440 C   0  0  0  0  0  0  0  0  0  0  0  0
  -37.3008  -21.6329   19.2134 C   0  0  0  0  0  0  0  0  0  0  0  0
  -22.2352   -8.7574   20.2458 C   0  0  0  0  0  0  0  0  0  0  0  0
  -22.9611   -8.8069   22.5497 C   0  0  0  0  0  0  0  0  0  0  0  0
  -37.8533  -20.9290   20.2825 C   0  0  0  0  0  0  0  0  0  0  0  0
  -23.2070   -5.4685   22.0750 C   0  0  0  0  0  0  0  0  0  0  0  0
  -23.7953   -4.4510   22.8261 C   0  0  0  0  0  0  0  0  0  0  0  0
  -31.8535  -18.3429   24.1709 C   0  0  0  0  0  0  0  0  0  0  0  0
  -35.8753  -19.5524   20.3906 C   0  0  0  0  0  0  0  0  0  0  0  0
  -32.0556  -16.5504   22.5637 C   0  0  0  0  0  0  0  0  0  0  0  0
  -22.0718   -4.6917   24.5021 C   0  0  0  0  0  0  0  0  0  0  0  0
  -23.7470  -10.4848   20.9992 C   0  0  0  0  0  0  0  0  0  0  0  0
  -30.4699  -18.3452   23.9944 C   0  0  0  0  0  0  0  0  0  0  0  0
  -24.1309  -13.0008   20.8251 C   0  0  0  0  0  0  0  0  0  0  0  0
  -33.8354  -27.5826   18.8572 C   0  0  0  0  0  0  0  0  0  0  0  0
  -36.0246  -21.3084   18.7311 C   0  0  0  0  0  0  0  0  0  0  0  0
  -34.0268  -26.3305   19.4721 C   0  0  0  0  0  0  0  0  0  0  0  0
  -35.3098  -20.2521   19.3136 C   0  0  0  0  0  0  0  0  0  0  0  0
  -32.6464  -17.4455   23.4555 C   0  0  0  0  0  0  0  0  0  0  0  0
  -30.6720  -16.5526   22.3873 C   0  0  0  0  0  0  0  0  0  0  0  0
  -22.2152   -8.2147   21.5306 C   0  0  0  0  0  0  0  0  0  0  0  0
  -37.1393  -19.8905   20.8731 C   0  0  0  0  0  0  0  0  0  0  0  0
  -22.0511   -6.0977   22.5375 C   0  0  0  0  0  0  0  0  0  0  0  0
  -23.2277   -4.0626   24.0397 C   0  0  0  0  0  0  0  0  0  0  0  0
  -21.4835   -5.7093   23.7510 C   0  0  0  0  0  0  0  0  0  0  0  0
  -29.8791  -17.4500   23.1026 C   0  0  0  0  0  0  0  0  0  0  0  0
  -24.5388  -11.6571   20.7253 C   0  0  0  0  0  0  0  0  0  0  0  0
  -25.2402  -13.7242   20.4610 C   0  0  0  0  0  0  0  0  0  0  0  0
  -29.6467  -19.2823   24.7426 C   0  0  0  0  0  0  0  0  0  0  0  0
  -22.8628  -13.5462   21.2125 C   0  0  0  0  0  0  0  0  0  0  0  0
  -33.2537  -22.8493   18.5043 C   0  0  0  0  0  0  0  0  0  0  0  0
  -36.2382  -18.2119   24.2325 C   0  0  0  0  0  0  0  0  0  0  0  0
  -32.3479  -20.1826   16.8949 C   0  0  0  0  0  0  0  0  0  0  0  0
  -32.8240  -16.8562   16.2992 C   0  0  0  0  0  0  0  0  0  0  0  0
  -30.7193  -14.6880   20.6939 C   0  0  0  0  0  0  0  0  0  0  0  0
  -32.5959  -27.8915   18.0555 C   0  0  0  0  0  0  0  0  0  0  0  0
  -35.4538  -22.0599   17.5598 C   0  0  0  0  0  0  0  0  0  0  0  0
  -33.9446  -19.8511   18.8199 C   0  0  0  0  0  0  0  0  0  0  0  0
  -31.8280  -26.6470   17.6174 C   0  0  0  0  0  0  0  0  0  0  0  0
  -29.6015  -12.2364   18.3664 C   0  0  0  0  0  0  0  0  0  0  0  0
  -31.6715  -25.6778   18.7848 C   0  0  0  0  0  0  0  0  0  0  0  0
  -28.1512  -11.9776   18.7808 C   0  0  0  0  0  0  0  0  0  0  0  0
  -30.5023  -12.4793   19.5761 C   0  0  0  0  0  0  0  0  0  0  0  0
  -28.5869  -13.2661   20.9109 C   0  0  0  0  0  0  0  0  0  0  0  0
  -33.0375  -25.1996   19.2918 C   0  0  1  0  0  0  0  0  0  0  0  0
  -33.9322  -21.9807   17.4832 C   0  0  1  0  0  0  0  0  0  0  0  0
  -27.6290  -13.0802   19.7228 C   0  0  2  0  0  0  0  0  0  0  0  0
  -30.1353  -19.7062   26.0971 C   0  0  0  0  0  0  0  0  0  0  0  0
  -31.9041  -14.9431   14.9608 C   0  0  0  0  0  0  0  0  0  0  0  0
  -29.9879  -19.9753   18.8178 C   0  0  0  0  0  0  0  0  0  0  0  0
  -29.6737  -17.6077   18.0668 C   0  0  0  0  0  0  0  0  0  0  0  0
  -29.4354  -19.4754   16.4305 C   0  0  0  0  0  0  0  0  0  0  0  0
  -39.5023  -20.0891   25.1204 C   0  0  0  0  0  0  0  0  0  0  0  0
  -35.3866  -16.4727   14.8692 C   0  0  0  0  0  0  0  0  0  0  0  0
  -37.1433  -19.3054   24.7867 C   0  0  0  0  0  0  0  0  0  0  0  0
  -34.7626  -18.5520   24.1789 C   0  0  0  0  0  0  0  0  0  0  0  0
  -38.5727  -19.9120   22.7707 C   0  0  0  0  0  0  0  0  0  1  0  0
  -31.7351  -18.8578   17.2801 C   0  0  1  0  0  0  0  0  0  0  0  0
  -32.9255  -16.0690   15.0052 C   0  0  2  0  0  0  0  0  0  0  0  0
  -30.2329  -18.9876   17.6596 C   0  0  0  0  0  0  0  0  0  0  0  0
  -38.5565  -19.3304   24.1884 C   0  0  1  0  0  0  0  0  0  0  0  0
  -25.8080  -11.5316   20.3286 N   0  0  0  0  0  0  0  0  0  0  0  0
  -26.2072  -12.8057   20.1759 N   0  0  0  0  0  0  0  0  0  0  0  0
  -33.4266  -20.6201   17.6763 N   0  0  0  0  0  0  0  0  0  0  0  0
  -29.9470  -13.5393   20.4204 N   0  0  0  0  0  0  0  0  0  0  0  0
  -25.4730  -15.0501   20.3599 N   0  0  0  0  0  0  0  0  0  0  0  0
  -21.8316  -12.6612   21.5556 N   0  0  0  0  0  0  0  0  0  0  0  0
  -30.0747  -15.6422   21.4805 N   0  0  0  0  0  0  0  0  0  0  0  0
  -34.0228  -17.4439   23.6309 N   0  0  0  0  0  0  0  0  0  0  0  0
  -33.5788  -24.1889   18.4087 N   0  0  0  0  0  0  0  0  0  0  0  0
  -31.9942  -17.9495   16.1682 N   0  0  0  0  0  0  0  0  0  0  0  0
  -34.2854  -15.4756   14.8651 N   0  3  0  0  0  0  0  0  0  0  0  0
  -28.5760  -19.7509   24.3506 O   0  0  0  0  0  0  0  0  0  0  0  0
  -22.6455  -14.7814   21.2373 O   0  0  0  0  0  0  0  0  0  0  0  0
  -32.4904  -22.3419   19.3178 O   0  0  0  0  0  0  0  0  0  0  0  0
  -36.6718  -17.1098   23.8991 O   0  0  0  0  0  0  0  0  0  0  0  0
  -31.8909  -20.8029   15.9315 O   0  0  0  0  0  0  0  0  0  0  0  0
  -33.4184  -16.5314   17.3248 O   0  0  0  0  0  0  0  0  0  0  0  0
  -31.8577  -14.8278   20.2397 O   0  0  0  0  0  0  0  0  0  0  0  0
  -21.4678   -7.1072   21.7903 O   0  0  0  0  0  0  0  0  0  0  0  0
  -37.6760  -19.2022   21.9172 O   0  0  0  0  0  0  0  0  0  1  0  0
  -23.7919   -3.0844   24.7601 F   0  0  0  0  0  0  0  0  0  0  0  0
  -20.3725   -6.3092   24.1999 F   0  0  0  0  0  0  0  0  0  0  0  0
  -28.5480  -17.4524   22.9330 F   0  0  0  0  0  0  0  0  0  0  0  0
  -39.0146  -18.0444   24.1228 F   0  0  0  0  0  0  0  0  0  0  0  0
  1  2  1  0  0  0  0
  1  5  2  0  0  0  0
  2  6  2  0  0  0  0
  3  8  2  0  0  0  0
  3 17  1  0  0  0  0
  4  9  1  0  0  0  0
  4 17  2  0  0  0  0
  5 20  1  0  0  0  0
  6 22  1  0  0  0  0
  7 10  2  0  0  0  0
  7 21  1  0  0  0  0
  8 26  1  0  0  0  0
  9 26  2  0  0  0  0
 10 27  1  0  0  0  0
 11 12  2  0  0  0  0
 11 28  1  0  0  0  0
 12 29  1  0  0  0  0
 13 18  1  0  0  0  0
 13 24  2  0  0  0  0
 14 23  1  0  0  0  0
 14 27  2  0  0  0  0
 15 24  1  0  0  0  0
 15 25  2  0  0  0  0
 16 29  2  0  0  0  0
 16 30  1  0  0  0  0
 17 32  1  0  0  0  0
 18 31  2  0  0  0  0
 18 34  1  0  0  0  0
 19 32  1  0  0  0  0
 19 33  2  0  0  0  0
 19 35  1  0  0  0  0
 20 22  2  0  0  0  0
 20 41  1  0  0  0  0
 21 23  2  0  0  0  0
 21 42  1  0  0  0  0
 22 50  1  0  0  0  0
 23 43  1  0  0  0  0
 24 74  1  0  0  0  0
 25 31  1  0  0  0  0
 25 73  1  0  0  0  0
 26 85  1  0  0  0  0
 27 86  1  0  0  0  0
 28 30  2  0  0  0  0
 28 85  1  0  0  0  0
 29 87  1  0  0  0  0
 30 88  1  0  0  0  0
 31 89  1  0  0  0  0
 32 67  2  0  0  0  0
 33 68  1  0  0  0  0
 33 71  1  0  0  0  0
 34 53  1  0  0  0  0
 34 78  2  0  0  0  0
 35 72  1  0  0  0  0
 35 79  2  0  0  0  0
 36 51  1  0  0  0  0
 36 75  1  0  0  0  0
 36 80  2  0  0  0  0
 37 60  1  0  0  0  0
 37 61  1  0  0  0  0
 37 81  2  0  0  0  0
 38 63  1  0  0  0  0
 38 69  1  0  0  0  0
 38 82  2  0  0  0  0
 39 64  1  0  0  0  0
 39 76  1  0  0  0  0
 39 83  2  0  0  0  0
 40 70  1  0  0  0  0
 40 73  1  0  0  0  0
 40 84  2  0  0  0  0
 41 44  1  0  0  0  0
 42 51  1  0  0  0  0
 43 69  1  0  0  0  0
 44 46  1  0  0  0  0
 45 47  1  0  0  0  0
 45 48  1  0  0  0  0
 46 50  1  0  0  0  0
 47 52  1  0  0  0  0
 48 70  1  0  0  0  0
 49 52  1  0  0  0  0
 49 70  1  0  0  0  0
 50 75  1  0  0  0  0
 51 69  1  0  0  0  0
 52 68  1  0  0  0  0
 54 64  1  0  0  0  0
 55 65  1  0  0  0  0
 56 65  1  0  0  0  0
 57 65  1  0  0  0  0
 58 66  1  0  0  0  0
 59 77  1  0  0  0  0
 60 66  1  0  0  0  0
 61 74  1  0  0  0  0
 62 66  1  0  0  0  0
 62 86  1  0  0  0  0
 63 65  1  0  0  0  0
 63 76  1  0  0  0  0
 64 77  1  0  0  0  0
 66 90  1  0  0  0  0
 67 68  1  0  0  0  0
M  CHG  1  77   1
M  ISO  4  40 100  62 101  73 100  86 101
M  END
> <Batch ID>
0168

> <Smiles>
CNC(C)C(=O)NC(C(=O)N1Cc2cc([101O:1][101CH2:1]C(C)(F)CC(=O)CNc3cc([100NH:0][100C:0](=O)N4CCCC(n5nc(-c6ccc(Oc7ccc(F)cc7F)cc6)c(C(N)=O)c5N)C4)c(F)c(C(C)=O)c3)ccc2CC1C(=O)NC1CCCc2ccccc21)C(C)(C)C

> <Shape>
0.191

> <Color>
0.193

> <Negative vol penalty>
0.000

$$$$

  -OEChem-04052304143D

 88 96  0     1  0  0  0  0  0999 V2000
  -29.2935  -33.6481   23.7632 C   0  0  0  0  0  0  0  0  0  0  0  0
  -29.1457  -32.2999   23.4535 C   0  0  0  0  0  0  0  0  0  0  0  0
  -23.1190   -9.9043   21.5294 C   0  0  0  0  0  0  0  0  0  0  0  0
  -23.7357  -11.0278   23.5775 C   0  0  0  0  0  0  0  0  0  0  0  0
  -28.2283  -34.3552   24.3192 C   0  0  0  0  0  0  0  0  0  0  0  0
  -27.9328  -31.6577   23.7006 C   0  0  0  0  0  0  0  0  0  0  0  0
  -26.4596  -28.7345   19.8368 C   0  0  0  0  0  0  0  0  0  0  0  0
  -22.3733   -8.9801   22.2609 C   0  0  0  0  0  0  0  0  0  0  0  0
  -22.9899  -10.1035   24.3090 C   0  0  0  0  0  0  0  0  0  0  0  0
  -27.0813  -27.4936   19.7041 C   0  0  0  0  0  0  0  0  0  0  0  0
  -22.9613   -6.2217   24.1236 C   0  0  0  0  0  0  0  0  0  0  0  0
  -23.0968   -4.8735   23.7926 C   0  0  0  0  0  0  0  0  0  0  0  0
  -25.1798  -26.4363   20.7461 C   0  0  0  0  0  0  0  0  0  0  0  0
  -31.5776  -19.7113   21.6590 C   0  0  0  0  0  0  0  0  0  0  0  0
  -31.8602  -17.3908   21.0485 C   0  0  0  0  0  0  0  0  0  0  0  0
  -20.7369   -4.7604   23.2872 C   0  0  0  0  0  0  0  0  0  0  0  0
  -23.8003  -10.9282   22.1877 C   0  0  0  0  0  0  0  0  0  0  0  0
  -29.6539  -18.3751   21.0666 C   0  0  0  0  0  0  0  0  0  0  0  0
  -24.1224  -13.1052   20.8975 C   0  0  0  0  0  0  0  0  0  0  0  0
  -26.9987  -33.7239   24.5643 C   0  0  0  0  0  0  0  0  0  0  0  0
  -25.1960  -28.8371   20.4361 C   0  0  0  0  0  0  0  0  0  0  0  0
  -26.8506  -32.3568   24.2617 C   0  0  0  0  0  0  0  0  0  0  0  0
  -24.5432  -27.6794   20.8829 C   0  0  0  0  0  0  0  0  0  0  0  0
  -30.2009  -19.5940   21.4675 C   0  0  0  0  0  0  0  0  0  0  0  0
  -30.4836  -17.2735   20.8571 C   0  0  0  0  0  0  0  0  0  0  0  0
  -22.3087   -9.0796   23.6507 C   0  0  0  0  0  0  0  0  0  0  0  0
  -26.4426  -26.3447   20.1614 C   0  0  0  0  0  0  0  0  0  0  0  0
  -21.7136   -6.8393   24.0366 C   0  0  0  0  0  0  0  0  0  0  0  0
  -21.9846   -4.1428   23.3744 C   0  0  0  0  0  0  0  0  0  0  0  0
  -32.4073  -18.6097   21.4494 C   0  0  0  0  0  0  0  0  0  0  0  0
  -20.6015   -6.1086   23.6183 C   0  0  0  0  0  0  0  0  0  0  0  0
  -24.5713  -11.8829   21.4326 C   0  0  0  0  0  0  0  0  0  0  0  0
  -25.2269  -13.6342   20.2758 C   0  0  0  0  0  0  0  0  0  0  0  0
  -27.8976  -23.2028   21.1231 C   0  0  0  0  0  0  0  0  0  0  0  0
  -28.2115  -18.2521   20.8663 C   0  0  0  0  0  0  0  0  0  0  0  0
  -22.8231  -13.7086   20.9573 C   0  0  0  0  0  0  0  0  0  0  0  0
  -28.6417  -22.9559   22.2161 C   0  0  0  0  0  0  0  0  0  0  0  0
  -29.7850  -21.9941   22.0825 C   0  0  0  0  0  0  0  0  0  0  0  0
  -24.0504  -30.2900   23.0207 C   0  0  0  0  0  0  0  0  0  0  0  0
  -21.2015  -29.2645   21.8569 C   0  0  0  0  0  0  0  0  0  0  0  0
  -19.4989  -27.0335   19.9151 C   0  0  0  0  0  0  0  0  0  0  0  0
  -30.6606  -14.8476   20.2013 C   0  0  0  0  0  0  0  0  0  0  0  0
  -25.8910  -34.5178   25.2105 C   0  0  0  0  0  0  0  0  0  0  0  0
  -24.5273  -30.1798   20.5476 C   0  0  0  0  0  0  0  0  0  0  0  0
  -23.1772  -27.7332   21.5151 C   0  0  0  0  0  0  0  0  0  0  0  0
  -24.5200  -33.8568   25.0941 C   0  0  0  0  0  0  0  0  0  0  0  0
  -29.7200  -11.5582   19.2152 C   0  0  0  0  0  0  0  0  0  0  0  0
  -24.6086  -32.3769   25.4528 C   0  0  0  0  0  0  0  0  0  0  0  0
  -28.2597  -11.4500   19.6602 C   0  0  0  0  0  0  0  0  0  0  0  0
  -30.5567  -12.3648   20.2067 C   0  0  0  0  0  0  0  0  0  0  0  0
  -28.5606  -13.5836   20.9809 C   0  0  0  0  0  0  0  0  0  0  0  0
  -25.5427  -31.6313   24.4920 C   0  0  1  0  0  0  0  0  0  0  0  0
  -23.4627  -30.2283   21.6392 C   0  0  1  0  0  0  0  0  0  0  0  0
  -27.6642  -12.8350   19.9810 C   0  0  2  0  0  0  0  0  0  0  0  0
  -27.3872  -17.8408   22.0474 C   0  0  0  0  0  0  0  0  0  0  0  0
  -28.4840  -23.5733   23.5708 C   0  0  0  0  0  0  0  0  0  0  0  0
  -17.1749  -26.4243   19.1906 C   0  0  0  0  0  0  0  0  0  0  0  0
  -20.6880  -27.9923   24.5823 C   0  0  0  0  0  0  0  0  0  0  0  0
  -18.8663  -26.6363   23.5283 C   0  0  0  0  0  0  0  0  0  0  0  0
  -18.7019  -29.1250   23.5690 C   0  0  0  0  0  0  0  0  0  0  0  0
  -20.1322  -27.5288   17.0668 C   0  0  0  0  0  0  0  0  0  0  0  0
  -26.7416  -24.1468   21.0194 C   0  0  0  0  0  0  0  0  0  1  0  0
  -20.3660  -28.0179   22.0207 C   0  0  1  0  0  0  0  0  0  0  0  0
  -18.4224  -27.2299   18.8630 C   0  0  2  0  0  0  0  0  0  0  0  0
  -19.6821  -27.9417   23.4150 C   0  0  0  0  0  0  0  0  0  0  0  0
  -25.8605  -11.6490   21.1733 N   0  0  0  0  0  0  0  0  0  0  0  0
  -26.2311  -12.7316   20.4684 N   0  0  0  0  0  0  0  0  0  0  0  0
  -22.5674  -29.0700   21.6074 N   0  0  0  0  0  0  0  0  0  0  0  0
  -29.9338  -13.6661   20.4591 N   0  0  0  0  0  0  0  0  0  0  0  0
  -25.4275  -14.7787   19.5885 N   0  0  0  0  0  0  0  0  0  0  0  0
  -21.8019  -13.0299   21.6362 N   0  0  0  0  0  0  0  0  0  0  0  0
  -29.3808  -20.7274   21.6859 N   0  0  0  0  0  0  0  0  0  0  0  0
  -29.9543  -16.0244   20.4479 N   0  0  0  0  0  0  0  0  0  0  0  0
  -24.8753  -31.3781   23.2331 N   0  0  0  0  0  0  0  0  0  0  0  0
  -19.4357  -27.9994   20.8970 N   0  0  0  0  0  0  0  0  0  0  0  0
  -18.9209  -26.8012   17.5255 N   0  3  0  0  0  0  0  0  0  0  0  0
  -27.6333  -18.4569   19.8016 O   0  0  0  0  0  0  0  0  0  0  0  0
  -22.5709  -14.8089   20.4104 O   0  0  0  0  0  0  0  0  0  0  0  0
  -30.9165  -22.3709   22.3701 O   0  0  0  0  0  0  0  0  0  0  0  0
  -23.7746  -29.4160   23.8342 O   0  0  0  0  0  0  0  0  0  0  0  0
  -20.6607  -30.3701   21.9399 O   0  0  0  0  0  0  0  0  0  0  0  0
  -20.3121  -26.1129   19.8723 O   0  0  0  0  0  0  0  0  0  0  0  0
  -31.8146  -14.8177   19.7661 O   0  0  0  0  0  0  0  0  0  0  0  0
  -21.5809   -8.1780   24.3648 O   0  0  0  0  0  0  0  0  0  0  0  0
  -27.0474  -25.1323   20.0336 O   0  0  0  0  0  0  0  0  0  1  0  0
  -22.1152   -2.8486   23.0550 F   0  0  0  0  0  0  0  0  0  0  0  0
  -33.7293  -18.7220   21.6333 F   0  0  0  0  0  0  0  0  0  0  0  0
  -19.4005   -6.6968   23.5316 F   0  0  0  0  0  0  0  0  0  0  0  0
  1  2  1  0  0  0  0
  1  5  2  0  0  0  0
  2  6  2  0  0  0  0
  3  8  2  0  0  0  0
  3 17  1  0  0  0  0
  4  9  1  0  0  0  0
  4 17  2  0  0  0  0
  5 20  1  0  0  0  0
  6 22  1  0  0  0  0
  7 10  2  0  0  0  0
  7 21  1  0  0  0  0
  8 26  1  0  0  0  0
  9 26  2  0  0  0  0
 10 27  1  0  0  0  0
 11 12  2  0  0  0  0
 11 28  1  0  0  0  0
 12 29  1  0  0  0  0
 13 23  1  0  0  0  0
 13 27  2  0  0  0  0
 14 24  1  0  0  0  0
 14 30  2  0  0  0  0
 15 25  2  0  0  0  0
 15 30  1  0  0  0  0
 16 29  2  0  0  0  0
 16 31  1  0  0  0  0
 17 32  1  0  0  0  0
 18 24  2  0  0  0  0
 18 25  1  0  0  0  0
 18 35  1  0  0  0  0
 19 32  1  0  0  0  0
 19 33  2  0  0  0  0
 19 36  1  0  0  0  0
 20 22  2  0  0  0  0
 20 43  1  0  0  0  0
 21 23  2  0  0  0  0
 21 44  1  0  0  0  0
 22 52  1  0  0  0  0
 23 45  1  0  0  0  0
 24 72  1  0  0  0  0
 25 73  1  0  0  0  0
 26 84  1  0  0  0  0
 27 85  1  0  0  0  0
 28 31  2  0  0  0  0
 28 84  1  0  0  0  0
 29 86  1  0  0  0  0
 30 87  1  0  0  0  0
 31 88  1  0  0  0  0
 32 66  2  0  0  0  0
 33 67  1  0  0  0  0
 33 70  1  0  0  0  0
 34 37  2  0  0  0  0
 34 62  1  0  0  0  0
 35 55  1  0  0  0  0
 35 77  2  0  0  0  0
 36 71  1  0  0  0  0
 36 78  2  0  0  0  0
 37 38  1  0  0  0  0
 37 56  1  0  0  0  0
 38 72  1  0  0  0  0
 38 79  2  0  0  0  0
 39 53  1  0  0  0  0
 39 74  1  0  0  0  0
 39 80  2  0  0  0  0
 40 63  1  0  0  0  0
 40 68  1  0  0  0  0
 40 81  2  0  0  0  0
 41 64  1  0  0  0  0
 41 75  1  0  0  0  0
 41 82  2  0  0  0  0
 42 69  1  0  0  0  0
 42 73  1  0  0  0  0
 42 83  2  0  0  0  0
 43 46  1  0  0  0  0
 44 53  1  0  0  0  0
 45 68  1  0  0  0  0
 46 48  1  0  0  0  0
 47 49  1  0  0  0  0
 47 50  1  0  0  0  0
 48 52  1  0  0  0  0
 49 54  1  0  0  0  0
 50 69  1  0  0  0  0
 51 54  1  0  0  0  0
 51 69  1  0  0  0  0
 52 74  1  0  0  0  0
 53 68  1  0  0  0  0
 54 67  1  0  0  0  0
 57 64  1  0  0  0  0
 58 65  1  0  0  0  0
 59 65  1  0  0  0  0
 60 65  1  0  0  0  0
 61 76  1  0  0  0  0
 62 85  1  0  0  0  0
 63 65  1  0  0  0  0
 63 75  1  0  0  0  0
 64 76  1  0  0  0  0
 66 67  1  0  0  0  0
M  CHG  1  76   1
M  ISO  4  42 100  62 101  73 100  85 101
M  END
> <Batch ID>
0168

> <Smiles>
CNC(C)C(=O)NC(C(=O)N1Cc2cc([101O:1][101CH2:1]C=C(C)C(=O)Nc3cc(F)cc([100NH:0][100C:0](=O)N4CCCC(n5nc(-c6ccc(Oc7ccc(F)cc7F)cc6)c(C(N)=O)c5N)C4)c3C(C)=O)ccc2CC1C(=O)NC1CCCc2ccccc21)C(C)(C)C

> <Shape>
0.359

> <Color>
0.158

> <Negative vol penalty>
0.000

$$$$

  -OEChem-04052304143D

 88 96  0     1  0  0  0  0  0999 V2000
  -29.9392  -33.5342   25.5082 C   0  0  0  0  0  0  0  0  0  0  0  0
  -29.4721  -32.2713   25.1584 C   0  0  0  0  0  0  0  0  0  0  0  0
  -25.3151   -8.7575   20.3501 C   0  0  0  0  0  0  0  0  0  0  0  0
  -26.1313   -9.4199   22.5254 C   0  0  0  0  0  0  0  0  0  0  0  0
  -29.0556  -34.6110   25.5684 C   0  0  0  0  0  0  0  0  0  0  0  0
  -28.1207  -32.0843   24.8696 C   0  0  0  0  0  0  0  0  0  0  0  0
  -27.3915  -29.2599   20.7301 C   0  0  0  0  0  0  0  0  0  0  0  0
  -25.6595   -7.4339   20.6239 C   0  0  0  0  0  0  0  0  0  0  0  0
  -26.4757   -8.0962   22.7992 C   0  0  0  0  0  0  0  0  0  0  0  0
  -27.5461  -27.8809   20.8648 C   0  0  0  0  0  0  0  0  0  0  0  0
  -27.2392   -4.8348   24.2128 C   0  0  0  0  0  0  0  0  0  0  0  0
  -26.9027   -4.3221   25.4656 C   0  0  0  0  0  0  0  0  0  0  0  0
  -29.2846  -17.9956   24.7331 C   0  0  0  0  0  0  0  0  0  0  0  0
  -25.1508  -27.6322   21.0058 C   0  0  0  0  0  0  0  0  0  0  0  0
  -29.1485  -18.6754   22.0308 C   0  0  0  0  0  0  0  0  0  0  0  0
  -24.5679   -4.7473   25.0124 C   0  0  0  0  0  0  0  0  0  0  0  0
  -25.5510   -9.7506   21.3009 C   0  0  0  0  0  0  0  0  0  0  0  0
  -29.3114  -19.3362   24.3490 C   0  0  0  0  0  0  0  0  0  0  0  0
  -23.9672  -11.7503   21.2873 C   0  0  0  0  0  0  0  0  0  0  0  0
  -27.6945  -34.4391   25.2708 C   0  0  0  0  0  0  0  0  0  0  0  0
  -26.1137  -29.8375   20.7431 C   0  0  0  0  0  0  0  0  0  0  0  0
  -27.2178  -33.1596   24.9272 C   0  0  0  0  0  0  0  0  0  0  0  0
  -24.9825  -29.0185   20.8685 C   0  0  0  0  0  0  0  0  0  0  0  0
  -29.2433  -19.6761   22.9979 C   0  0  0  0  0  0  0  0  0  0  0  0
  -29.1218  -17.3347   22.4149 C   0  0  0  0  0  0  0  0  0  0  0  0
  -26.2398   -7.1032   21.8484 C   0  0  0  0  0  0  0  0  0  0  0  0
  -26.4258  -27.0671   21.0056 C   0  0  0  0  0  0  0  0  0  0  0  0
  -26.2401   -5.3038   23.3598 C   0  0  0  0  0  0  0  0  0  0  0  0
  -25.5671   -4.2784   25.8654 C   0  0  0  0  0  0  0  0  0  0  0  0
  -29.1899  -16.9948   23.7660 C   0  0  0  0  0  0  0  0  0  0  0  0
  -24.9045   -5.2600   23.7596 C   0  0  0  0  0  0  0  0  0  0  0  0
  -25.1960  -11.1181   21.0185 C   0  0  0  0  0  0  0  0  0  0  0  0
  -24.1359  -13.0357   20.8335 C   0  0  0  0  0  0  0  0  0  0  0  0
  -29.4144  -20.3566   25.3847 C   0  0  0  0  0  0  0  0  0  0  0  0
  -22.7796  -11.2228   21.8930 C   0  0  0  0  0  0  0  0  0  0  0  0
  -24.6146  -31.9247   22.6139 C   0  0  0  0  0  0  0  0  0  0  0  0
  -27.9034  -23.7000   21.2580 C   0  0  0  0  0  0  0  0  0  0  0  0
  -22.2978  -31.6938   20.3553 C   0  0  0  0  0  0  0  0  0  0  0  0
  -29.2050  -21.5183   21.2867 C   0  0  0  0  0  0  0  0  0  0  0  0
  -20.8500  -29.8613   17.8668 C   0  0  0  0  0  0  0  0  0  0  0  0
  -28.9486  -16.4890   20.0482 C   0  0  0  0  0  0  0  0  0  0  0  0
  -26.7690  -35.6234   25.3954 C   0  0  0  0  0  0  0  0  0  0  0  0
  -25.9625  -31.3239   20.5699 C   0  0  0  0  0  0  0  0  0  0  0  0
  -23.5878  -29.5871   20.8682 C   0  0  0  0  0  0  0  0  0  0  0  0
  -25.4205  -35.4173   24.7102 C   0  0  0  0  0  0  0  0  0  0  0  0
  -26.5620  -15.5675   17.5720 C   0  0  0  0  0  0  0  0  0  0  0  0
  -24.8444  -34.0503   25.0657 C   0  0  0  0  0  0  0  0  0  0  0  0
  -25.8249  -14.3833   18.2017 C   0  0  0  0  0  0  0  0  0  0  0  0
  -28.0482  -15.5633   17.9252 C   0  0  0  0  0  0  0  0  0  0  0  0
  -27.6079  -14.2948   19.9907 C   0  0  0  0  0  0  0  0  0  0  0  0
  -25.7635  -32.9218   24.5828 C   0  0  1  0  0  0  0  0  0  0  0  0
  -24.6405  -31.8574   21.1131 C   0  0  1  0  0  0  0  0  0  0  0  0
  -26.0951  -14.2924   19.7164 C   0  0  2  0  0  0  0  0  0  0  0  0
  -28.8185  -20.0426   26.7246 C   0  0  0  0  0  0  0  0  0  0  0  0
  -18.9491  -29.9179   16.2295 C   0  0  0  0  0  0  0  0  0  0  0  0
  -20.3430  -31.0435   22.6061 C   0  0  0  0  0  0  0  0  0  0  0  0
  -18.7432  -30.1948   20.8773 C   0  0  0  0  0  0  0  0  0  0  0  0
  -19.4438  -32.5888   20.8574 C   0  0  0  0  0  0  0  0  0  0  0  0
  -22.6880  -29.7272   15.5510 C   0  0  0  0  0  0  0  0  0  0  0  0
  -29.2633  -23.0331   21.2432 C   0  0  0  0  0  0  0  0  0  0  0  0
  -27.9061  -25.2095   21.1242 C   0  0  0  0  0  0  0  0  0  1  0  0
  -21.0926  -30.8089   20.1466 C   0  0  1  0  0  0  0  0  0  0  0  0
  -20.4182  -30.2362   16.4606 C   0  0  2  0  0  0  0  0  0  0  0  0
  -19.9319  -31.1482   21.1239 C   0  0  0  0  0  0  0  0  0  0  0  0
  -26.0799  -11.9346   20.4387 N   0  0  0  0  0  0  0  0  0  0  0  0
  -25.4058  -13.0929   20.3395 N   0  0  0  0  0  0  0  0  0  0  0  0
  -23.4923  -31.0468   20.7022 N   0  0  0  0  0  0  0  0  0  0  0  0
  -28.2270  -15.4797   19.3764 N   0  0  0  0  0  0  0  0  0  0  0  0
  -23.3202  -14.1112   20.8129 N   0  0  0  0  0  0  0  0  0  0  0  0
  -22.7768   -9.8821   22.3015 N   0  0  0  0  0  0  0  0  0  0  0  0
  -29.2707  -21.0298   22.5849 N   0  0  0  0  0  0  0  0  0  0  0  0
  -29.0252  -16.3203   21.4304 N   0  0  0  0  0  0  0  0  0  0  0  0
  -25.6071  -32.7169   23.1588 N   0  0  0  0  0  0  0  0  0  0  0  0
  -20.7396  -30.9260   18.7359 N   0  0  0  0  0  0  0  0  0  0  0  0
  -21.2248  -29.4892   15.4545 N   0  3  0  0  0  0  0  0  0  0  0  0
  -29.9492  -21.4556   25.2384 O   0  0  0  0  0  0  0  0  0  0  0  0
  -21.7457  -11.9152   22.0520 O   0  0  0  0  0  0  0  0  0  0  0  0
  -23.7567  -31.3051   23.2318 O   0  0  0  0  0  0  0  0  0  0  0  0
  -26.8603  -23.0592   21.3785 O   0  0  0  0  0  0  0  0  0  0  0  0
  -22.1851  -32.9134   20.2088 O   0  0  0  0  0  0  0  0  0  0  0  0
  -29.0835  -20.8741   20.2481 O   0  0  0  0  0  0  0  0  0  0  0  0
  -21.2423  -28.7355   18.1652 O   0  0  0  0  0  0  0  0  0  0  0  0
  -29.4377  -17.4478   19.4454 O   0  0  0  0  0  0  0  0  0  0  0  0
  -26.5758   -5.8117   22.1160 O   0  0  0  0  0  0  0  0  0  0  0  0
  -26.5739  -25.7208   21.1380 O   0  0  0  0  0  0  0  0  0  1  0  0
  -25.2439   -3.7847   27.0679 F   0  0  0  0  0  0  0  0  0  0  0  0
  -29.1651  -15.7094   24.1468 F   0  0  0  0  0  0  0  0  0  0  0  0
  -23.9402   -5.7080   22.9440 F   0  0  0  0  0  0  0  0  0  0  0  0
  1  2  1  0  0  0  0
  1  5  2  0  0  0  0
  2  6  2  0  0  0  0
  3  8  2  0  0  0  0
  3 17  1  0  0  0  0
  4  9  1  0  0  0  0
  4 17  2  0  0  0  0
  5 20  1  0  0  0  0
  6 22  1  0  0  0  0
  7 10  2  0  0  0  0
  7 21  1  0  0  0  0
  8 26  1  0  0  0  0
  9 26  2  0  0  0  0
 10 27  1  0  0  0  0
 11 12  2  0  0  0  0
 11 28  1  0  0  0  0
 12 29  1  0  0  0  0
 13 18  1  0  0  0  0
 13 30  2  0  0  0  0
 14 23  1  0  0  0  0
 14 27  2  0  0  0  0
 15 24  1  0  0  0  0
 15 25  2  0  0  0  0
 16 29  2  0  0  0  0
 16 31  1  0  0  0  0
 17 32  1  0  0  0  0
 18 24  2  0  0  0  0
 18 34  1  0  0  0  0
 19 32  1  0  0  0  0
 19 33  2  0  0  0  0
 19 35  1  0  0  0  0
 20 22  2  0  0  0  0
 20 42  1  0  0  0  0
 21 23  2  0  0  0  0
 21 43  1  0  0  0  0
 22 51  1  0  0  0  0
 23 44  1  0  0  0  0
 24 71  1  0  0  0  0
 25 30  1  0  0  0  0
 25 72  1  0  0  0  0
 26 84  1  0  0  0  0
 27 85  1  0  0  0  0
 28 31  2  0  0  0  0
 28 84  1  0  0  0  0
 29 86  1  0  0  0  0
 30 87  1  0  0  0  0
 31 88  1  0  0  0  0
 32 65  2  0  0  0  0
 33 66  1  0  0  0  0
 33 69  1  0  0  0  0
 34 54  1  0  0  0  0
 34 76  2  0  0  0  0
 35 70  1  0  0  0  0
 35 77  2  0  0  0  0
 36 52  1  0  0  0  0
 36 73  1  0  0  0  0
 36 78  2  0  0  0  0
 37 60  1  0  0  0  0
 37 61  1  0  0  0  0
 37 79  2  0  0  0  0
 38 62  1  0  0  0  0
 38 67  1  0  0  0  0
 38 80  2  0  0  0  0
 39 60  1  0  0  0  0
 39 71  1  0  0  0  0
 39 81  2  0  0  0  0
 40 63  1  0  0  0  0
 40 74  1  0  0  0  0
 40 82  2  0  0  0  0
 41 68  1  0  0  0  0
 41 72  1  0  0  0  0
 41 83  2  0  0  0  0
 42 45  1  0  0  0  0
 43 52  1  0  0  0  0
 44 67  1  0  0  0  0
 45 47  1  0  0  0  0
 46 48  1  0  0  0  0
 46 49  1  0  0  0  0
 47 51  1  0  0  0  0
 48 53  1  0  0  0  0
 49 68  1  0  0  0  0
 50 53  1  0  0  0  0
 50 68  1  0  0  0  0
 51 73  1  0  0  0  0
 52 67  1  0  0  0  0
 53 66  1  0  0  0  0
 55 63  1  0  0  0  0
 56 64  1  0  0  0  0
 57 64  1  0  0  0  0
 58 64  1  0  0  0  0
 59 75  1  0  0  0  0
 61 85  1  0  0  0  0
 62 64  1  0  0  0  0
 62 74  1  0  0  0  0
 63 75  1  0  0  0  0
 65 66  1  0  0  0  0
M  CHG  1  75   1
M  ISO  4  41 100  61 101  72 100  85 101
M  END
> <Batch ID>
0168

> <Smiles>
CNC(C)C(=O)NC(C(=O)N1Cc2cc([101O:1][101CH2:1]C(=O)CC(=O)Nc3cc([100NH:0][100C:0](=O)N4CCCC(n5nc(-c6ccc(Oc7ccc(F)cc7F)cc6)c(C(N)=O)c5N)C4)c(F)cc3C(C)=O)ccc2CC1C(=O)NC1CCCc2ccccc21)C(C)(C)C

> <Shape>
0.228

> <Color>
0.089

> <Negative vol penalty>
0.000

$$$$

  -OEChem-04052304143D

 85 93  0     1  0  0  0  0  0999 V2000
  -17.9237  -24.9425   24.8381 C   0  0  0  0  0  0  0  0  0  0  0  0
  -19.2891  -24.6938   24.7420 C   0  0  0  0  0  0  0  0  0  0  0  0
  -23.1477   -9.8133   19.8652 C   0  0  0  0  0  0  0  0  0  0  0  0
  -23.8679   -9.8001   22.1713 C   0  0  0  0  0  0  0  0  0  0  0  0
  -17.3849  -26.0967   24.2710 C   0  0  0  0  0  0  0  0  0  0  0  0
  -20.1164  -25.5987   24.0778 C   0  0  0  0  0  0  0  0  0  0  0  0
  -24.3911  -26.5507   26.6205 C   0  0  0  0  0  0  0  0  0  0  0  0
  -22.4267   -8.6395   20.0836 C   0  0  0  0  0  0  0  0  0  0  0  0
  -23.1469   -8.6262   22.3898 C   0  0  0  0  0  0  0  0  0  0  0  0
  -25.3995  -25.5903   26.5530 C   0  0  0  0  0  0  0  0  0  0  0  0
  -19.9283   -7.7447   22.9230 C   0  0  0  0  0  0  0  0  0  0  0  0
  -19.1527   -7.6681   24.0797 C   0  0  0  0  0  0  0  0  0  0  0  0
  -29.7174  -17.5043   23.3026 C   0  0  0  0  0  0  0  0  0  0  0  0
  -26.5356  -26.9093   24.8830 C   0  0  0  0  0  0  0  0  0  0  0  0
  -31.9298  -16.7149   22.7377 C   0  0  0  0  0  0  0  0  0  0  0  0
  -20.4260   -5.7479   24.8066 C   0  0  0  0  0  0  0  0  0  0  0  0
  -23.8684  -10.3937   20.9090 C   0  0  0  0  0  0  0  0  0  0  0  0
  -30.2692  -18.3861   24.2318 C   0  0  0  0  0  0  0  0  0  0  0  0
  -24.1534  -12.9276   20.8355 C   0  0  0  0  0  0  0  0  0  0  0  0
  -18.2075  -27.0210   23.6079 C   0  0  0  0  0  0  0  0  0  0  0  0
  -24.4420  -27.6943   25.8105 C   0  0  0  0  0  0  0  0  0  0  0  0
  -19.5879  -26.7657   23.5001 C   0  0  0  0  0  0  0  0  0  0  0  0
  -25.5279  -27.8839   24.9440 C   0  0  0  0  0  0  0  0  0  0  0  0
  -30.5477  -16.6686   22.5556 C   0  0  0  0  0  0  0  0  0  0  0  0
  -31.6513  -18.4324   24.4140 C   0  0  0  0  0  0  0  0  0  0  0  0
  -22.4262   -8.0459   21.3459 C   0  0  0  0  0  0  0  0  0  0  0  0
  -26.4705  -25.7681   25.6820 C   0  0  0  0  0  0  0  0  0  0  0  0
  -20.9529   -6.8228   22.7080 C   0  0  0  0  0  0  0  0  0  0  0  0
  -19.4015   -6.6698   25.0215 C   0  0  0  0  0  0  0  0  0  0  0  0
  -32.4817  -17.5968   23.6669 C   0  0  0  0  0  0  0  0  0  0  0  0
  -21.2017   -5.8244   23.6498 C   0  0  0  0  0  0  0  0  0  0  0  0
  -24.6138  -11.6060   20.6839 C   0  0  0  0  0  0  0  0  0  0  0  0
  -25.2339  -13.7079   20.5034 C   0  0  0  0  0  0  0  0  0  0  0  0
  -29.3617  -19.2533   25.0014 C   0  0  0  0  0  0  0  0  0  0  0  0
  -28.5402  -20.1752   24.4750 C   0  0  0  0  0  0  0  0  0  0  0  0
  -22.8643  -13.4072   21.2404 C   0  0  0  0  0  0  0  0  0  0  0  0
  -22.6033  -28.9011   23.5156 C   0  0  0  0  0  0  0  0  0  0  0  0
  -27.9508  -22.5162   25.0971 C   0  0  0  0  0  0  0  0  0  0  0  0
  -24.6583  -31.4024   23.7222 C   0  0  0  0  0  0  0  0  0  0  0  0
  -27.7551  -32.5437   24.5910 C   0  0  0  0  0  0  0  0  0  0  0  0
  -30.6705  -14.8757   20.7901 C   0  0  0  0  0  0  0  0  0  0  0  0
  -17.5724  -28.2309   22.9698 C   0  0  0  0  0  0  0  0  0  0  0  0
  -23.3599  -28.7339   25.9146 C   0  0  0  0  0  0  0  0  0  0  0  0
  -25.6398  -29.1040   24.0680 C   0  0  0  0  0  0  0  0  0  0  0  0
  -18.5736  -29.3250   22.6080 C   0  0  0  0  0  0  0  0  0  0  0  0
  -29.6531  -12.4762   18.3644 C   0  0  0  0  0  0  0  0  0  0  0  0
  -19.7852  -28.7269   21.9000 C   0  0  0  0  0  0  0  0  0  0  0  0
  -28.2135  -12.1446   18.7641 C   0  0  0  0  0  0  0  0  0  0  0  0
  -30.5420  -12.7062   19.5853 C   0  0  0  0  0  0  0  0  0  0  0  0
  -28.5954  -13.3639   20.9445 C   0  0  0  0  0  0  0  0  0  0  0  0
  -20.5217  -27.7356   22.8091 C   0  0  1  0  0  0  0  0  0  0  0  0
  -23.2517  -29.6103   24.6706 C   0  0  1  0  0  0  0  0  0  0  0  0
  -27.6471  -13.1877   19.7473 C   0  0  2  0  0  0  0  0  0  0  0  0
  -29.1532  -34.6275   24.6080 C   0  0  0  0  0  0  0  0  0  0  0  0
  -25.0913  -31.1337   20.7139 C   0  0  0  0  0  0  0  0  0  0  0  0
  -27.1414  -32.5508   20.9527 C   0  0  0  0  0  0  0  0  0  0  0  0
  -24.9043  -33.4886   21.5347 C   0  0  0  0  0  0  0  0  0  0  0  0
  -28.0373  -32.4694   27.5361 C   0  0  0  0  0  0  0  0  0  0  0  0
  -27.6378  -21.0404   25.3004 C   0  0  0  0  0  0  0  0  0  0  0  0
  -27.0879  -23.4807   25.8881 C   0  0  0  0  0  0  0  0  0  1  0  0
  -25.9631  -31.7717   23.0588 C   0  0  1  0  0  0  0  0  0  0  0  0
  -28.1932  -33.7521   25.3985 C   0  0  2  0  0  0  0  0  0  0  0  0
  -25.7722  -32.2122   21.5800 C   0  0  0  0  0  0  0  0  0  0  0  0
  -25.8875  -11.5461   20.2862 N   0  0  0  0  0  0  0  0  0  0  0  0
  -26.2366  -12.8399   20.1851 N   0  0  0  0  0  0  0  0  0  0  0  0
  -24.5536  -30.0889   24.2014 N   0  0  0  0  0  0  0  0  0  0  0  0
  -29.9443  -13.7094   20.4692 N   0  0  0  0  0  0  0  0  0  0  0  0
  -32.2347  -19.3172   25.3497 N   0  0  0  0  0  0  0  0  0  0  0  0
  -25.4145  -15.0448   20.4554 N   0  0  0  0  0  0  0  0  0  0  0  0
  -21.8682  -12.4696   21.5453 N   0  0  0  0  0  0  0  0  0  0  0  0
  -29.9879  -15.7721   21.6118 N   0  0  0  0  0  0  0  0  0  0  0  0
  -21.3268  -28.4434   23.7813 N   0  0  0  0  0  0  0  0  0  0  0  0
  -26.5811  -32.7837   23.9087 N   0  0  0  0  0  0  0  0  0  0  0  0
  -28.8751  -33.3187   26.6508 N   0  3  0  0  0  0  0  0  0  0  0  0
  -22.5985  -14.6309   21.3133 O   0  0  0  0  0  0  0  0  0  0  0  0
  -23.2153  -28.7794   22.4608 O   0  0  0  0  0  0  0  0  0  0  0  0
  -28.8497  -22.9136   24.3569 O   0  0  0  0  0  0  0  0  0  0  0  0
  -23.7676  -32.2503   23.8184 O   0  0  0  0  0  0  0  0  0  0  0  0
  -28.3925  -31.4932   24.5648 O   0  0  0  0  0  0  0  0  0  0  0  0
  -31.8032  -15.0780   20.3450 O   0  0  0  0  0  0  0  0  0  0  0  0
  -21.7226   -6.9006   21.5595 O   0  0  0  0  0  0  0  0  0  0  0  0
  -27.4557  -24.8319   25.6137 O   0  0  0  0  0  0  0  0  0  1  0  0
  -18.6575   -6.5973   26.1330 F   0  0  0  0  0  0  0  0  0  0  0  0
  -33.8116  -17.6311   23.8330 F   0  0  0  0  0  0  0  0  0  0  0  0
  -22.1853   -4.9366   23.4493 F   0  0  0  0  0  0  0  0  0  0  0  0
  1  2  1  0  0  0  0
  1  5  2  0  0  0  0
  2  6  2  0  0  0  0
  3  8  2  0  0  0  0
  3 17  1  0  0  0  0
  4  9  1  0  0  0  0
  4 17  2  0  0  0  0
  5 20  1  0  0  0  0
  6 22  1  0  0  0  0
  7 10  2  0  0  0  0
  7 21  1  0  0  0  0
  8 26  1  0  0  0  0
  9 26  2  0  0  0  0
 10 27  1  0  0  0  0
 11 12  2  0  0  0  0
 11 28  1  0  0  0  0
 12 29  1  0  0  0  0
 13 18  1  0  0  0  0
 13 24  2  0  0  0  0
 14 23  1  0  0  0  0
 14 27  2  0  0  0  0
 15 24  1  0  0  0  0
 15 30  2  0  0  0  0
 16 29  2  0  0  0  0
 16 31  1  0  0  0  0
 17 32  1  0  0  0  0
 18 25  2  0  0  0  0
 18 34  1  0  0  0  0
 19 32  1  0  0  0  0
 19 33  2  0  0  0  0
 19 36  1  0  0  0  0
 20 22  2  0  0  0  0
 20 42  1  0  0  0  0
 21 23  2  0  0  0  0
 21 43  1  0  0  0  0
 22 51  1  0  0  0  0
 23 44  1  0  0  0  0
 24 71  1  0  0  0  0
 25 30  1  0  0  0  0
 25 68  1  0  0  0  0
 26 81  1  0  0  0  0
 27 82  1  0  0  0  0
 28 31  2  0  0  0  0
 28 81  1  0  0  0  0
 29 83  1  0  0  0  0
 30 84  1  0  0  0  0
 31 85  1  0  0  0  0
 32 64  2  0  0  0  0
 33 65  1  0  0  0  0
 33 69  1  0  0  0  0
 34 35  2  0  0  0  0
 35 59  1  0  0  0  0
 36 70  1  0  0  0  0
 36 75  2  0  0  0  0
 37 52  1  0  0  0  0
 37 72  1  0  0  0  0
 37 76  2  0  0  0  0
 38 59  1  0  0  0  0
 38 60  1  0  0  0  0
 38 77  2  0  0  0  0
 39 61  1  0  0  0  0
 39 66  1  0  0  0  0
 39 78  2  0  0  0  0
 40 62  1  0  0  0  0
 40 73  1  0  0  0  0
 40 79  2  0  0  0  0
 41 67  1  0  0  0  0
 41 71  1  0  0  0  0
 41 80  2  0  0  0  0
 42 45  1  0  0  0  0
 43 52  1  0  0  0  0
 44 66  1  0  0  0  0
 45 47  1  0  0  0  0
 46 48  1  0  0  0  0
 46 49  1  0  0  0  0
 47 51  1  0  0  0  0
 48 53  1  0  0  0  0
 49 67  1  0  0  0  0
 50 53  1  0  0  0  0
 50 67  1  0  0  0  0
 51 72  1  0  0  0  0
 52 66  1  0  0  0  0
 53 65  1  0  0  0  0
 54 62  1  0  0  0  0
 55 63  1  0  0  0  0
 56 63  1  0  0  0  0
 57 63  1  0  0  0  0
 58 74  1  0  0  0  0
 60 82  1  0  0  0  0
 61 63  1  0  0  0  0
 61 73  1  0  0  0  0
 62 74  1  0  0  0  0
 64 65  1  0  0  0  0
M  CHG  1  74   1
M  ISO  4  41 100  60 101  71 100  82 101
M  END
> <Batch ID>
0168

> <Smiles>
CNC(C)C(=O)NC(C(=O)N1Cc2cc([101O:1][101CH2:1]C(=O)CC=Cc3cc([100NH:0][100C:0](=O)N4CCCC(n5nc(-c6ccc(Oc7ccc(F)cc7F)cc6)c(C(N)=O)c5N)C4)cc(F)c3N)ccc2CC1C(=O)NC1CCCc2ccccc21)C(C)(C)C

> <Shape>
0.304

> <Color>
0.244

> <Negative vol penalty>
0.000

$$$$

  -OEChem-04052304143D

 84 92  0     1  0  0  0  0  0999 V2000
  -28.1179  -31.6831   27.1677 C   0  0  0  0  0  0  0  0  0  0  0  0
  -28.0398  -30.4868   26.4618 C   0  0  0  0  0  0  0  0  0  0  0  0
  -22.9367  -10.1907   21.3710 C   0  0  0  0  0  0  0  0  0  0  0  0
  -23.7545  -11.0199   23.4878 C   0  0  0  0  0  0  0  0  0  0  0  0
  -26.9854  -32.4843   27.3066 C   0  0  0  0  0  0  0  0  0  0  0  0
  -26.8288  -30.0906   25.8953 C   0  0  0  0  0  0  0  0  0  0  0  0
  -27.3683  -28.3710   21.1628 C   0  0  0  0  0  0  0  0  0  0  0  0
  -22.1479   -9.2561   22.0418 C   0  0  0  0  0  0  0  0  0  0  0  0
  -22.9656  -10.0854   24.1586 C   0  0  0  0  0  0  0  0  0  0  0  0
  -27.8565  -27.0743   21.0082 C   0  0  0  0  0  0  0  0  0  0  0  0
  -19.2046   -9.2169   23.7057 C   0  0  0  0  0  0  0  0  0  0  0  0
  -17.8850   -9.0592   23.2822 C   0  0  0  0  0  0  0  0  0  0  0  0
  -25.6085  -26.2773   20.6473 C   0  0  0  0  0  0  0  0  0  0  0  0
  -30.2161  -18.3070   20.9208 C   0  0  0  0  0  0  0  0  0  0  0  0
  -18.3220   -6.7355   22.7856 C   0  0  0  0  0  0  0  0  0  0  0  0
  -32.0656  -17.3862   20.0257 C   0  0  0  0  0  0  0  0  0  0  0  0
  -23.7400  -11.0725   22.0940 C   0  0  0  0  0  0  0  0  0  0  0  0
  -24.1929  -13.3461   21.0294 C   0  0  0  0  0  0  0  0  0  0  0  0
  -25.7622  -32.1024   26.7333 C   0  0  0  0  0  0  0  0  0  0  0  0
  -25.9930  -28.6293   21.0714 C   0  0  0  0  0  0  0  0  0  0  0  0
  -25.6786  -30.8868   26.0279 C   0  0  0  0  0  0  0  0  0  0  0  0
  -25.1056  -27.5785   20.7985 C   0  0  0  0  0  0  0  0  0  0  0  0
  -30.8072  -17.0899   20.5010 C   0  0  0  0  0  0  0  0  0  0  0  0
  -22.1623   -9.2035   23.4356 C   0  0  0  0  0  0  0  0  0  0  0  0
  -26.9764  -26.0267   20.7534 C   0  0  0  0  0  0  0  0  0  0  0  0
  -20.0830   -8.1339   23.6691 C   0  0  0  0  0  0  0  0  0  0  0  0
  -17.4436   -7.8186   22.8222 C   0  0  0  0  0  0  0  0  0  0  0  0
  -19.6416   -6.8932   23.2091 C   0  0  0  0  0  0  0  0  0  0  0  0
  -24.5555  -12.0378   21.4016 C   0  0  0  0  0  0  0  0  0  0  0  0
  -31.1312  -19.3101   20.6891 C   0  0  0  0  0  0  0  0  0  0  0  0
  -25.3083  -13.8466   20.4034 C   0  0  0  0  0  0  0  0  0  0  0  0
  -22.9583  -14.0464   21.2315 C   0  0  0  0  0  0  0  0  0  0  0  0
  -30.9738  -20.7616   20.9641 C   0  0  0  0  0  0  0  0  0  0  0  0
  -23.7873  -29.7661   23.0580 C   0  0  0  0  0  0  0  0  0  0  0  0
  -28.6566  -22.9457   21.6619 C   0  0  0  0  0  0  0  0  0  0  0  0
  -21.9042  -29.6367   20.4199 C   0  0  0  0  0  0  0  0  0  0  0  0
  -21.2962  -28.2550   17.3592 C   0  0  0  0  0  0  0  0  0  0  0  0
  -30.8189  -14.5974   20.1352 C   0  0  0  0  0  0  0  0  0  0  0  0
  -24.5538  -32.9784   26.9505 C   0  0  0  0  0  0  0  0  0  0  0  0
  -25.4850  -30.0379   21.2140 C   0  0  0  0  0  0  0  0  0  0  0  0
  -23.6222  -27.8062   20.6709 C   0  0  0  0  0  0  0  0  0  0  0  0
  -23.3991  -32.6696   26.0009 C   0  0  0  0  0  0  0  0  0  0  0  0
  -29.5361  -11.5313   18.8582 C   0  0  0  0  0  0  0  0  0  0  0  0
  -23.1571  -31.1654   25.9262 C   0  0  0  0  0  0  0  0  0  0  0  0
  -28.0961  -11.4974   19.3755 C   0  0  0  0  0  0  0  0  0  0  0  0
  -30.4910  -12.1475   19.8791 C   0  0  0  0  0  0  0  0  0  0  0  0
  -28.6548  -13.4356   20.8981 C   0  0  0  0  0  0  0  0  0  0  0  0
  -24.3888  -30.4349   25.3778 C   0  0  1  0  0  0  0  0  0  0  0  0
  -24.0137  -30.1050   21.6117 C   0  0  1  0  0  0  0  0  0  0  0  0
  -27.6453  -12.8827   19.8788 C   0  0  2  0  0  0  0  0  0  0  0  0
  -19.6610  -28.3229   15.4569 C   0  0  0  0  0  0  0  0  0  0  0  0
  -19.9233  -28.0022   22.0674 C   0  0  0  0  0  0  0  0  0  0  0  0
  -18.8220  -27.3102   19.9281 C   0  0  0  0  0  0  0  0  0  0  0  0
  -18.8766  -29.7177   20.5789 C   0  0  0  0  0  0  0  0  0  0  0  0
  -33.4536  -19.4402   19.7507 C   0  0  0  0  0  0  0  0  0  0  0  0
  -23.3760  -29.1444   15.4508 C   0  0  0  0  0  0  0  0  0  0  0  0
  -29.8799  -22.4571   22.4078 C   0  0  0  0  0  0  0  0  0  0  0  0
  -28.6380  -24.4216   21.3177 C   0  0  0  0  0  0  0  0  0  1  0  0
  -21.0039  -28.5961   19.7990 C   0  0  1  0  0  0  0  0  0  0  0  0
  -20.9579  -28.8835   16.0195 C   0  0  2  0  0  0  0  0  0  0  0  0
  -19.6841  -28.4016   20.5976 C   0  0  0  0  0  0  0  0  0  0  0  0
  -25.8036  -11.7265   21.0419 N   0  0  0  0  0  0  0  0  0  0  0  0
  -32.2516  -18.7388   20.1446 N   0  0  0  0  0  0  0  0  0  0  0  0
  -26.2350  -12.8464   20.4370 N   0  0  0  0  0  0  0  0  0  0  0  0
  -23.1736  -29.2000   20.8246 N   0  0  0  0  0  0  0  0  0  0  0  0
  -30.0019  -13.4600   20.3071 N   0  0  0  0  0  0  0  0  0  0  0  0
  -25.5770  -15.0402   19.8328 N   0  0  0  0  0  0  0  0  0  0  0  0
  -21.9151  -13.3843   21.8931 N   0  0  0  0  0  0  0  0  0  0  0  0
  -30.2353  -15.7944   20.5490 N   0  0  0  0  0  0  0  0  0  0  0  0
  -30.1493  -21.1007   22.0340 N   0  0  0  0  0  0  0  0  0  0  0  0
  -24.4666  -30.5843   23.9404 N   0  0  0  0  0  0  0  0  0  0  0  0
  -20.8084  -29.0011   18.4112 N   0  0  0  0  0  0  0  0  0  0  0  0
  -22.0474  -28.6249   15.0361 N   0  3  0  0  0  0  0  0  0  0  0  0
  -22.7796  -15.2188   20.8226 O   0  0  0  0  0  0  0  0  0  0  0  0
  -31.5456  -21.5745   20.2424 O   0  0  0  0  0  0  0  0  0  0  0  0
  -23.0498  -28.8326   23.3515 O   0  0  0  0  0  0  0  0  0  0  0  0
  -27.7095  -22.2061   21.3960 O   0  0  0  0  0  0  0  0  0  0  0  0
  -21.4988  -30.7961   20.5348 O   0  0  0  0  0  0  0  0  0  0  0  0
  -21.9267  -27.2050   17.4621 O   0  0  0  0  0  0  0  0  0  0  0  0
  -31.9422  -14.5194   19.6310 O   0  0  0  0  0  0  0  0  0  0  0  0
  -21.3926   -8.2918   24.0906 O   0  0  0  0  0  0  0  0  0  0  0  0
  -27.4502  -24.7600   20.6028 O   0  0  0  0  0  0  0  0  0  1  0  0
  -16.1760   -7.6669   22.4170 F   0  0  0  0  0  0  0  0  0  0  0  0
  -20.4805   -5.8488   23.1727 F   0  0  0  0  0  0  0  0  0  0  0  0
  1  2  1  0  0  0  0
  1  5  2  0  0  0  0
  2  6  2  0  0  0  0
  3  8  2  0  0  0  0
  3 17  1  0  0  0  0
  4  9  1  0  0  0  0
  4 17  2  0  0  0  0
  5 19  1  0  0  0  0
  6 21  1  0  0  0  0
  7 10  2  0  0  0  0
  7 20  1  0  0  0  0
  8 24  1  0  0  0  0
  9 24  2  0  0  0  0
 10 25  1  0  0  0  0
 11 12  2  0  0  0  0
 11 26  1  0  0  0  0
 12 27  1  0  0  0  0
 13 22  1  0  0  0  0
 13 25  2  0  0  0  0
 14 23  1  0  0  0  0
 14 30  2  0  0  0  0
 15 27  2  0  0  0  0
 15 28  1  0  0  0  0
 16 23  2  0  0  0  0
 16 63  1  0  0  0  0
 17 29  1  0  0  0  0
 18 29  1  0  0  0  0
 18 31  2  0  0  0  0
 18 32  1  0  0  0  0
 19 21  2  0  0  0  0
 19 39  1  0  0  0  0
 20 22  2  0  0  0  0
 20 40  1  0  0  0  0
 21 48  1  0  0  0  0
 22 41  1  0  0  0  0
 23 69  1  0  0  0  0
 24 81  1  0  0  0  0
 25 82  1  0  0  0  0
 26 28  2  0  0  0  0
 26 81  1  0  0  0  0
 27 83  1  0  0  0  0
 28 84  1  0  0  0  0
 29 62  2  0  0  0  0
 30 33  1  0  0  0  0
 30 63  1  0  0  0  0
 31 64  1  0  0  0  0
 31 67  1  0  0  0  0
 32 68  1  0  0  0  0
 32 74  2  0  0  0  0
 33 70  1  0  0  0  0
 33 75  2  0  0  0  0
 34 49  1  0  0  0  0
 34 71  1  0  0  0  0
 34 76  2  0  0  0  0
 35 57  1  0  0  0  0
 35 58  1  0  0  0  0
 35 77  2  0  0  0  0
 36 59  1  0  0  0  0
 36 65  1  0  0  0  0
 36 78  2  0  0  0  0
 37 60  1  0  0  0  0
 37 72  1  0  0  0  0
 37 79  2  0  0  0  0
 38 66  1  0  0  0  0
 38 69  1  0  0  0  0
 38 80  2  0  0  0  0
 39 42  1  0  0  0  0
 40 49  1  0  0  0  0
 41 65  1  0  0  0  0
 42 44  1  0  0  0  0
 43 45  1  0  0  0  0
 43 46  1  0  0  0  0
 44 48  1  0  0  0  0
 45 50  1  0  0  0  0
 46 66  1  0  0  0  0
 47 50  1  0  0  0  0
 47 66  1  0  0  0  0
 48 71  1  0  0  0  0
 49 65  1  0  0  0  0
 50 64  1  0  0  0  0
 51 60  1  0  0  0  0
 52 61  1  0  0  0  0
 53 61  1  0  0  0  0
 54 61  1  0  0  0  0
 55 63  1  0  0  0  0
 56 73  1  0  0  0  0
 57 70  1  0  0  0  0
 58 82  1  0  0  0  0
 59 61  1  0  0  0  0
 59 72  1  0  0  0  0
 60 73  1  0  0  0  0
 62 64  1  0  0  0  0
M  CHG  1  73   1
M  ISO  4  38 100  58 101  69 100  82 101
M  END
> <Batch ID>
0168

> <Smiles>
CNC(C)C(=O)NC(C(=O)N1Cc2cc([101O:1][101CH2:1]C(=O)CNC(=O)c3cc([100NH:0][100C:0](=O)N4CCCC(n5nc(-c6ccc(Oc7ccc(F)cc7F)cc6)c(C(N)=O)c5N)C4)cn3C)ccc2CC1C(=O)NC1CCCc2ccccc21)C(C)(C)C

> <Shape>
0.274

> <Color>
0.148

> <Negative vol penalty>
0.000

$$$$

  -OEChem-04052304143D

 86 94  0     1  0  0  0  0  0999 V2000
  -29.3882  -32.1309   26.6029 C   0  0  0  0  0  0  0  0  0  0  0  0
  -29.1327  -31.0306   25.7909 C   0  0  0  0  0  0  0  0  0  0  0  0
  -23.0605   -9.7284   19.9908 C   0  0  0  0  0  0  0  0  0  0  0  0
  -23.7041   -9.9171   22.3118 C   0  0  0  0  0  0  0  0  0  0  0  0
  -31.2374  -19.0176   20.3480 C   0  0  0  0  0  0  0  0  0  0  0  0
  -28.3339  -32.9272   27.0480 C   0  0  0  0  0  0  0  0  0  0  0  0
  -27.8224  -30.7253   25.4243 C   0  0  0  0  0  0  0  0  0  0  0  0
  -27.3958  -29.5848   20.5088 C   0  0  0  0  0  0  0  0  0  0  0  0
  -31.0715  -17.6359   20.4418 C   0  0  0  0  0  0  0  0  0  0  0  0
  -22.3082   -8.5930   20.2916 C   0  0  0  0  0  0  0  0  0  0  0  0
  -22.9517   -8.7817   22.6127 C   0  0  0  0  0  0  0  0  0  0  0  0
  -27.7959  -28.3088   20.1142 C   0  0  0  0  0  0  0  0  0  0  0  0
  -23.2794   -5.4287   22.3290 C   0  0  0  0  0  0  0  0  0  0  0  0
  -23.8608   -4.4658   23.1539 C   0  0  0  0  0  0  0  0  0  0  0  0
  -25.4910  -27.5972   20.0998 C   0  0  0  0  0  0  0  0  0  0  0  0
  -22.0752   -4.7591   24.7548 C   0  0  0  0  0  0  0  0  0  0  0  0
  -23.7585  -10.3904   21.0009 C   0  0  0  0  0  0  0  0  0  0  0  0
  -30.4614  -19.8683   21.1353 C   0  0  0  0  0  0  0  0  0  0  0  0
  -24.0990  -12.9010   20.7033 C   0  0  0  0  0  0  0  0  0  0  0  0
  -27.0109  -32.6372   26.6788 C   0  0  0  0  0  0  0  0  0  0  0  0
  -26.0389  -29.8740   20.7128 C   0  0  0  0  0  0  0  0  0  0  0  0
  -26.7492  -31.5177   25.8660 C   0  0  0  0  0  0  0  0  0  0  0  0
  -25.0761  -28.8783   20.4945 C   0  0  0  0  0  0  0  0  0  0  0  0
  -30.1294  -17.1048   21.3228 C   0  0  0  0  0  0  0  0  0  0  0  0
  -29.5194  -19.3372   22.0163 C   0  0  0  0  0  0  0  0  0  0  0  0
  -22.2537   -8.1197   21.6026 C   0  0  0  0  0  0  0  0  0  0  0  0
  -26.8436  -27.3140   19.9124 C   0  0  0  0  0  0  0  0  0  0  0  0
  -22.0959   -6.0568   22.7170 C   0  0  0  0  0  0  0  0  0  0  0  0
  -23.2587   -4.1310   24.3668 C   0  0  0  0  0  0  0  0  0  0  0  0
  -21.4938   -5.7220   23.9299 C   0  0  0  0  0  0  0  0  0  0  0  0
  -29.3534  -17.9555   22.1101 C   0  0  0  0  0  0  0  0  0  0  0  0
  -24.5363  -11.5629   20.6906 C   0  0  0  0  0  0  0  0  0  0  0  0
  -25.2060  -13.6275   20.3382 C   0  0  0  0  0  0  0  0  0  0  0  0
  -30.6638  -21.3388   21.0105 C   0  0  0  0  0  0  0  0  0  0  0  0
  -22.8077  -13.4392   21.0171 C   0  0  0  0  0  0  0  0  0  0  0  0
  -24.2916  -30.7960   23.2029 C   0  0  0  0  0  0  0  0  0  0  0  0
  -28.5196  -24.1184   20.1107 C   0  0  0  0  0  0  0  0  0  0  0  0
  -21.9426  -31.0176   20.9768 C   0  0  0  0  0  0  0  0  0  0  0  0
  -20.7172  -30.0275   17.9495 C   0  0  0  0  0  0  0  0  0  0  0  0
  -30.6536  -14.7196   20.7043 C   0  0  0  0  0  0  0  0  0  0  0  0
  -25.8996  -33.4993   27.2233 C   0  0  0  0  0  0  0  0  0  0  0  0
  -25.6215  -31.2626   21.1126 C   0  0  0  0  0  0  0  0  0  0  0  0
  -23.6051  -29.1432   20.6803 C   0  0  0  0  0  0  0  0  0  0  0  0
  -24.5760  -33.3264   26.4828 C   0  0  0  0  0  0  0  0  0  0  0  0
  -29.6664  -12.1232   18.4770 C   0  0  0  0  0  0  0  0  0  0  0  0
  -24.2663  -31.8464   26.2815 C   0  0  0  0  0  0  0  0  0  0  0  0
  -28.2077  -11.8560   18.8554 C   0  0  0  0  0  0  0  0  0  0  0  0
  -30.5192  -12.4499   19.7016 C   0  0  0  0  0  0  0  0  0  0  0  0
  -28.5432  -13.2660   20.9257 C   0  0  0  0  0  0  0  0  0  0  0  0
  -25.3438  -31.1686   25.4266 C   0  0  1  0  0  0  0  0  0  0  0  0
  -24.2550  -31.3043   21.7894 C   0  0  1  0  0  0  0  0  0  0  0  0
  -27.6314  -12.9961   19.7177 C   0  0  2  0  0  0  0  0  0  0  0  0
  -32.0385  -21.8937   21.3254 C   0  0  0  0  0  0  0  0  0  0  0  0
  -18.7574  -30.3518   16.4160 C   0  0  0  0  0  0  0  0  0  0  0  0
  -20.2450  -29.2267   22.7715 C   0  0  0  0  0  0  0  0  0  0  0  0
  -18.7353  -28.8171   20.8167 C   0  0  0  0  0  0  0  0  0  0  0  0
  -19.0042  -31.1266   21.7202 C   0  0  0  0  0  0  0  0  0  0  0  0
  -22.4340  -31.1090   15.7950 C   0  0  0  0  0  0  0  0  0  0  0  0
  -29.8316  -23.5087   20.5532 C   0  0  0  0  0  0  0  0  0  0  0  0
  -28.5184  -25.6261   19.9582 C   0  0  0  0  0  0  0  0  0  1  0  0
  -20.9021  -30.0744   20.4230 C   0  0  1  0  0  0  0  0  0  0  0  0
  -20.1576  -30.8193   16.7815 C   0  0  2  0  0  0  0  0  0  0  0  0
  -19.7495  -29.8054   21.4311 C   0  0  0  0  0  0  0  0  0  0  0  0
  -25.8209  -11.4435   20.3447 N   0  0  0  0  0  0  0  0  0  0  0  0
  -29.6594  -22.0619   20.6519 N   0  0  0  0  0  0  0  0  0  0  0  0
  -26.2002  -12.7159   20.1365 N   0  0  0  0  0  0  0  0  0  0  0  0
  -23.2475  -30.5150   21.0778 N   0  0  0  0  0  0  0  0  0  0  0  0
  -29.9140  -13.5416   20.4677 N   0  0  0  0  0  0  0  0  0  0  0  0
  -28.7248  -20.1840   22.8212 N   0  0  0  0  0  0  0  0  0  0  0  0
  -25.4162  -14.9507   20.1731 N   0  0  0  0  0  0  0  0  0  0  0  0
  -21.7826  -12.5520   21.3727 N   0  0  0  0  0  0  0  0  0  0  0  0
  -29.9633  -15.7006   21.4155 N   0  0  0  0  0  0  0  0  0  0  0  0
  -25.1557  -31.4900   24.0281 N   0  0  0  0  0  0  0  0  0  0  0  0
  -20.4650  -30.6480   19.1548 N   0  0  0  0  0  0  0  0  0  0  0  0
  -21.0320  -30.6648   15.5846 N   0  3  0  0  0  0  0  0  0  0  0  0
  -22.5655  -14.6689   20.9673 O   0  0  0  0  0  0  0  0  0  0  0  0
  -23.5869  -29.8454   23.5216 O   0  0  0  0  0  0  0  0  0  0  0  0
  -27.5159  -23.4427   19.8875 O   0  0  0  0  0  0  0  0  0  0  0  0
  -21.6111  -32.1607   21.3011 O   0  0  0  0  0  0  0  0  0  0  0  0
  -21.3147  -28.9629   17.8072 O   0  0  0  0  0  0  0  0  0  0  0  0
  -31.8043  -14.8593   20.2821 O   0  0  0  0  0  0  0  0  0  0  0  0
  -21.5195   -7.0120   21.8966 O   0  0  0  0  0  0  0  0  0  0  0  0
  -27.2314  -26.0676   19.5279 O   0  0  0  0  0  0  0  0  0  1  0  0
  -23.8163   -3.2053   25.1581 F   0  0  0  0  0  0  0  0  0  0  0  0
  -20.3562   -6.3213   24.3075 F   0  0  0  0  0  0  0  0  0  0  0  0
  -28.4474  -17.4440   22.9577 F   0  0  0  0  0  0  0  0  0  0  0  0
  1  2  1  0  0  0  0
  1  6  2  0  0  0  0
  2  7  2  0  0  0  0
  3 10  2  0  0  0  0
  3 17  1  0  0  0  0
  4 11  1  0  0  0  0
  4 17  2  0  0  0  0
  5  9  2  0  0  0  0
  5 18  1  0  0  0  0
  6 20  1  0  0  0  0
  7 22  1  0  0  0  0
  8 12  2  0  0  0  0
  8 21  1  0  0  0  0
  9 24  1  0  0  0  0
 10 26  1  0  0  0  0
 11 26  2  0  0  0  0
 12 27  1  0  0  0  0
 13 14  2  0  0  0  0
 13 28  1  0  0  0  0
 14 29  1  0  0  0  0
 15 23  1  0  0  0  0
 15 27  2  0  0  0  0
 16 29  2  0  0  0  0
 16 30  1  0  0  0  0
 17 32  1  0  0  0  0
 18 25  2  0  0  0  0
 18 34  1  0  0  0  0
 19 32  1  0  0  0  0
 19 33  2  0  0  0  0
 19 35  1  0  0  0  0
 20 22  2  0  0  0  0
 20 41  1  0  0  0  0
 21 23  2  0  0  0  0
 21 42  1  0  0  0  0
 22 50  1  0  0  0  0
 23 43  1  0  0  0  0
 24 31  2  0  0  0  0
 24 72  1  0  0  0  0
 25 31  1  0  0  0  0
 25 69  1  0  0  0  0
 26 82  1  0  0  0  0
 27 83  1  0  0  0  0
 28 30  2  0  0  0  0
 28 82  1  0  0  0  0
 29 84  1  0  0  0  0
 30 85  1  0  0  0  0
 31 86  1  0  0  0  0
 32 64  2  0  0  0  0
 33 66  1  0  0  0  0
 33 70  1  0  0  0  0
 34 53  1  0  0  0  0
 34 65  2  0  0  0  0
 35 71  1  0  0  0  0
 35 76  2  0  0  0  0
 36 51  1  0  0  0  0
 36 73  1  0  0  0  0
 36 77  2  0  0  0  0
 37 59  1  0  0  0  0
 37 60  1  0  0  0  0
 37 78  2  0  0  0  0
 38 61  1  0  0  0  0
 38 67  1  0  0  0  0
 38 79  2  0  0  0  0
 39 62  1  0  0  0  0
 39 74  1  0  0  0  0
 39 80  2  0  0  0  0
 40 68  1  0  0  0  0
 40 72  1  0  0  0  0
 40 81  2  0  0  0  0
 41 44  1  0  0  0  0
 42 51  1  0  0  0  0
 43 67  1  0  0  0  0
 44 46  1  0  0  0  0
 45 47  1  0  0  0  0
 45 48  1  0  0  0  0
 46 50  1  0  0  0  0
 47 52  1  0  0  0  0
 48 68  1  0  0  0  0
 49 52  1  0  0  0  0
 49 68  1  0  0  0  0
 50 73  1  0  0  0  0
 51 67  1  0  0  0  0
 52 66  1  0  0  0  0
 54 62  1  0  0  0  0
 55 63  1  0  0  0  0
 56 63  1  0  0  0  0
 57 63  1  0  0  0  0
 58 75  1  0  0  0  0
 59 65  1  0  0  0  0
 60 83  1  0  0  0  0
 61 63  1  0  0  0  0
 61 74  1  0  0  0  0
 62 75  1  0  0  0  0
 64 66  1  0  0  0  0
M  CHG  1  75   1
M  ISO  4  40 100  60 101  72 100  83 101
M  END
> <Batch ID>
0168

> <Smiles>
CNC(C)C(=O)NC(C(=O)N1Cc2cc([101O:1][101CH2:1]C(=O)CN=C(C)c3ccc([100NH:0][100C:0](=O)N4CCCC(n5nc(-c6ccc(Oc7ccc(F)cc7F)cc6)c(C(N)=O)c5N)C4)c(F)c3N)ccc2CC1C(=O)NC1CCCc2ccccc21)C(C)(C)C

> <Shape>
0.389

> <Color>
0.242

> <Negative vol penalty>
0.000

$$$$

  -OEChem-04052304143D

 87 95  0     1  0  0  0  0  0999 V2000
  -33.5807  -33.1263   17.4283 C   0  0  0  0  0  0  0  0  0  0  0  0
  -33.6297  -33.0247   18.8149 C   0  0  0  0  0  0  0  0  0  0  0  0
  -23.1408   -9.7145   20.0378 C   0  0  0  0  0  0  0  0  0  0  0  0
  -23.7748   -9.9645   22.3557 C   0  0  0  0  0  0  0  0  0  0  0  0
  -32.2071  -18.0419   23.2972 C   0  0  0  0  0  0  0  0  0  0  0  0
  -32.4978  -32.5947   16.7294 C   0  0  0  0  0  0  0  0  0  0  0  0
  -32.5951  -32.3924   19.5035 C   0  0  0  0  0  0  0  0  0  0  0  0
  -33.8797  -26.6738   23.6914 C   0  0  0  0  0  0  0  0  0  0  0  0
  -31.7039  -17.0538   22.4511 C   0  0  0  0  0  0  0  0  0  0  0  0
  -22.4301   -8.5575   20.3570 C   0  0  0  0  0  0  0  0  0  0  0  0
  -23.0641   -8.8075   22.6749 C   0  0  0  0  0  0  0  0  0  0  0  0
  -34.0756  -25.7058   24.6767 C   0  0  0  0  0  0  0  0  0  0  0  0
  -21.7155   -5.7214   24.0414 C   0  0  0  0  0  0  0  0  0  0  0  0
  -22.3292   -4.7956   24.8851 C   0  0  0  0  0  0  0  0  0  0  0  0
  -31.6899  -25.5935   25.0559 C   0  0  0  0  0  0  0  0  0  0  0  0
  -29.4599  -17.8565   22.8482 C   0  0  0  0  0  0  0  0  0  0  0  0
  -24.1283   -4.5376   23.2933 C   0  0  0  0  0  0  0  0  0  0  0  0
  -23.8132  -10.4180   21.0372 C   0  0  0  0  0  0  0  0  0  0  0  0
  -31.3367  -18.9373   23.9189 C   0  0  0  0  0  0  0  0  0  0  0  0
  -24.0622  -12.9341   20.6986 C   0  0  0  0  0  0  0  0  0  0  0  0
  -31.4541  -31.9470   17.4089 C   0  0  0  0  0  0  0  0  0  0  0  0
  -32.5854  -27.0946   23.3735 C   0  0  0  0  0  0  0  0  0  0  0  0
  -31.4965  -31.8528   18.8131 C   0  0  0  0  0  0  0  0  0  0  0  0
  -31.4866  -26.5537   24.0611 C   0  0  0  0  0  0  0  0  0  0  0  0
  -30.3303  -16.9611   22.2265 C   0  0  0  0  0  0  0  0  0  0  0  0
  -22.3917   -8.1040   21.6756 C   0  0  0  0  0  0  0  0  0  0  0  0
  -32.9834  -25.1672   25.3574 C   0  0  0  0  0  0  0  0  0  0  0  0
  -22.3082   -6.0553   22.8236 C   0  0  0  0  0  0  0  0  0  0  0  0
  -23.5356   -4.2037   24.5111 C   0  0  0  0  0  0  0  0  0  0  0  0
  -29.9632  -18.8446   23.6944 C   0  0  0  0  0  0  0  0  0  0  0  0
  -23.5146   -5.4634   22.4496 C   0  0  0  0  0  0  0  0  0  0  0  0
  -24.5480  -11.6129   20.7080 C   0  0  0  0  0  0  0  0  0  0  0  0
  -25.1422  -13.6944   20.3220 C   0  0  0  0  0  0  0  0  0  0  0  0
  -31.8741  -19.9851   24.8173 C   0  0  0  0  0  0  0  0  0  0  0  0
  -22.7517  -13.4298   21.0031 C   0  0  0  0  0  0  0  0  0  0  0  0
  -32.7292  -21.9514   26.9563 C   0  0  0  0  0  0  0  0  0  0  0  0
  -31.7576  -20.8422   27.1940 C   0  0  0  0  0  0  0  0  0  0  0  0
  -30.4123  -29.2949   21.2492 C   0  0  0  0  0  0  0  0  0  0  0  0
  -28.9837  -26.5903   21.4831 C   0  0  0  0  0  0  0  0  0  0  0  0
  -27.9453  -23.3445   21.6376 C   0  0  0  0  0  0  0  0  0  0  0  0
  -30.5460  -14.9905   20.6720 C   0  0  0  0  0  0  0  0  0  0  0  0
  -30.2813  -31.4296   16.6142 C   0  0  0  0  0  0  0  0  0  0  0  0
  -32.3316  -28.1795   22.3623 C   0  0  0  0  0  0  0  0  0  0  0  0
  -30.1149  -27.0617   23.7099 C   0  0  0  0  0  0  0  0  0  0  0  0
  -29.4083  -30.4448   17.3877 C   0  0  0  0  0  0  0  0  0  0  0  0
  -29.6562  -12.3236   18.4872 C   0  0  0  0  0  0  0  0  0  0  0  0
  -29.1136  -30.9772   18.7865 C   0  0  0  0  0  0  0  0  0  0  0  0
  -28.2080  -12.0097   18.8694 C   0  0  0  0  0  0  0  0  0  0  0  0
  -30.4955  -12.7013   19.7065 C   0  0  0  0  0  0  0  0  0  0  0  0
  -28.4899  -13.4647   20.9165 C   0  0  0  0  0  0  0  0  0  0  0  0
  -30.4056  -31.1523   19.5937 C   0  0  1  0  0  0  0  0  0  0  0  0
  -31.0352  -27.9658   21.5605 C   0  0  1  0  0  0  0  0  0  0  0  0
  -27.5896  -13.1419   19.7128 C   0  0  2  0  0  0  0  0  0  0  0  0
  -26.0936  -21.8306   20.8785 C   0  0  0  0  0  0  0  0  0  0  0  0
  -27.1510  -27.7673   23.6185 C   0  0  0  0  0  0  0  0  0  0  0  0
  -25.7658  -25.6866   23.4756 C   0  0  0  0  0  0  0  0  0  0  0  0
  -26.0063  -27.1623   21.4788 C   0  0  0  0  0  0  0  0  0  0  0  0
  -30.3240  -19.7283   28.9033 C   0  0  0  0  0  0  0  0  0  0  0  0
  -29.8124  -21.6419   20.0968 C   0  0  0  0  0  0  0  0  0  0  0  0
  -32.1402  -23.2624   26.5054 C   0  0  0  0  0  0  0  0  0  1  0  0
  -27.9701  -25.7550   22.2236 C   0  0  1  0  0  0  0  0  0  0  0  0
  -27.4732  -22.3853   20.5599 C   0  0  2  0  0  0  0  0  0  0  0  0
  -26.7511  -26.5913   22.7052 C   0  0  0  0  0  0  0  0  0  0  0  0
  -25.8364  -11.5348   20.3645 N   0  0  0  0  0  0  0  0  0  0  0  0
  -26.1693  -12.8165   20.1356 N   0  0  0  0  0  0  0  0  0  0  0  0
  -29.9870  -27.1947   22.2503 N   0  0  0  0  0  0  0  0  0  0  0  0
  -29.8501  -13.7825   20.4544 N   0  0  0  0  0  0  0  0  0  0  0  0
  -25.3041  -15.0216   20.1353 N   0  0  0  0  0  0  0  0  0  0  0  0
  -32.7316  -20.8476   24.2697 N   0  0  0  0  0  0  0  0  0  0  0  0
  -21.7593  -12.5118   21.3728 N   0  0  0  0  0  0  0  0  0  0  0  0
  -29.8198  -15.9572   21.3667 N   0  0  0  0  0  0  0  0  0  0  0  0
  -30.8737  -29.8729   20.0820 N   0  0  0  0  0  0  0  0  0  0  0  0
  -27.6238  -24.6508   21.3352 N   0  0  0  0  0  0  0  0  0  0  0  0
  -31.4359  -19.9749   26.0868 N   0  3  0  0  0  0  0  0  0  0  0  0
  -31.2864  -20.7162   28.3871 N   0  3  0  0  0  0  0  0  0  0  0  0
  -28.4213  -21.2426   20.4320 N   0  3  0  0  0  0  0  0  0  0  0  0
  -22.4649  -14.6490   20.9331 O   0  0  0  0  0  0  0  0  0  0  0  0
  -33.9145  -21.7207   27.1401 O   0  0  0  0  0  0  0  0  0  0  0  0
  -29.5734  -29.7621   22.0106 O   0  0  0  0  0  0  0  0  0  0  0  0
  -28.8875  -26.7100   20.2585 O   0  0  0  0  0  0  0  0  0  0  0  0
  -28.5366  -22.9718   22.6485 O   0  0  0  0  0  0  0  0  0  0  0  0
  -31.6913  -15.1651   20.2479 O   0  0  0  0  0  0  0  0  0  0  0  0
  -21.6981   -6.9752   21.9874 O   0  0  0  0  0  0  0  0  0  0  0  0
  -33.1815  -24.2193   26.3150 O   0  0  0  0  0  0  0  0  0  1  0  0
  -24.1256   -3.3158   25.3221 F   0  0  0  0  0  0  0  0  0  0  0  0
  -29.1188  -19.6993   24.2887 F   0  0  0  0  0  0  0  0  0  0  0  0
  -24.0894   -5.7811   21.2815 F   0  0  0  0  0  0  0  0  0  0  0  0
  1  2  1  0  0  0  0
  1  6  2  0  0  0  0
  2  7  2  0  0  0  0
  3 10  2  0  0  0  0
  3 18  1  0  0  0  0
  4 11  1  0  0  0  0
  4 18  2  0  0  0  0
  5  9  2  0  0  0  0
  5 19  1  0  0  0  0
  6 21  1  0  0  0  0
  7 23  1  0  0  0  0
  8 12  2  0  0  0  0
  8 22  1  0  0  0  0
  9 25  1  0  0  0  0
 10 26  1  0  0  0  0
 11 26  2  0  0  0  0
 12 27  1  0  0  0  0
 13 14  2  0  0  0  0
 13 28  1  0  0  0  0
 14 29  1  0  0  0  0
 15 24  1  0  0  0  0
 15 27  2  0  0  0  0
 16 25  2  0  0  0  0
 16 30  1  0  0  0  0
 17 29  2  0  0  0  0
 17 31  1  0  0  0  0
 18 32  1  0  0  0  0
 19 30  2  0  0  0  0
 19 34  1  0  0  0  0
 20 32  1  0  0  0  0
 20 33  2  0  0  0  0
 20 35  1  0  0  0  0
 21 23  2  0  0  0  0
 21 42  1  0  0  0  0
 22 24  2  0  0  0  0
 22 43  1  0  0  0  0
 23 51  1  0  0  0  0
 24 44  1  0  0  0  0
 25 71  1  0  0  0  0
 26 83  1  0  0  0  0
 27 84  1  0  0  0  0
 28 31  2  0  0  0  0
 28 83  1  0  0  0  0
 29 85  1  0  0  0  0
 30 86  1  0  0  0  0
 31 87  1  0  0  0  0
 32 64  2  0  0  0  0
 33 65  1  0  0  0  0
 33 68  1  0  0  0  0
 34 69  1  0  0  0  0
 34 74  2  0  0  0  0
 35 70  1  0  0  0  0
 35 77  2  0  0  0  0
 36 37  1  0  0  0  0
 36 60  1  0  0  0  0
 36 78  2  0  0  0  0
 37 74  1  0  0  0  0
 37 75  2  0  0  0  0
 38 52  1  0  0  0  0
 38 72  1  0  0  0  0
 38 79  2  0  0  0  0
 39 61  1  0  0  0  0
 39 66  1  0  0  0  0
 39 80  2  0  0  0  0
 40 62  1  0  0  0  0
 40 73  1  0  0  0  0
 40 81  2  0  0  0  0
 41 67  1  0  0  0  0
 41 71  1  0  0  0  0
 41 82  2  0  0  0  0
 42 45  1  0  0  0  0
 43 52  1  0  0  0  0
 44 66  1  0  0  0  0
 45 47  1  0  0  0  0
 46 48  1  0  0  0  0
 46 49  1  0  0  0  0
 47 51  1  0  0  0  0
 48 53  1  0  0  0  0
 49 67  1  0  0  0  0
 50 53  1  0  0  0  0
 50 67  1  0  0  0  0
 51 72  1  0  0  0  0
 52 66  1  0  0  0  0
 53 65  1  0  0  0  0
 54 62  1  0  0  0  0
 55 63  1  0  0  0  0
 56 63  1  0  0  0  0
 57 63  1  0  0  0  0
 58 75  1  0  0  0  0
 59 76  1  0  0  0  0
 60 84  1  0  0  0  0
 61 63  1  0  0  0  0
 61 73  1  0  0  0  0
 62 76  1  0  0  0  0
 64 65  1  0  0  0  0
M  CHG  3  74   1  75   1  76   1
M  ISO  4  41 100  60 101  71 100  84 101
M  END
> <Batch ID>
0168

> <Smiles>
CN=C(NC(=N)c1ccc([100NH:0][100C:0](=O)N2CCCC(n3nc(-c4ccc(Oc5ccc(F)cc5F)cc4)c(C(N)=O)c3N)C2)cc1F)C(=O)[101CH2:1][101O:1]c1ccc2c(c1)CN(C(=O)C(NC(=O)C(C)NC)C(C)(C)C)C(C(=O)NC1CCCc3ccccc31)C2

> <Shape>
0.211

> <Color>
0.188

> <Negative vol penalty>
0.000

$$$$

  -OEChem-04052304143D

 84 92  0     1  0  0  0  0  0999 V2000
  -20.9471  -25.2471   25.6184 C   0  0  0  0  0  0  0  0  0  0  0  0
  -20.9409  -24.2218   24.6781 C   0  0  0  0  0  0  0  0  0  0  0  0
  -27.7491  -23.2342   20.2663 C   0  0  0  0  0  0  0  0  0  0  0  0
  -29.5734  -23.5351   18.7112 C   0  0  0  0  0  0  0  0  0  0  0  0
  -20.1966  -26.4007   25.3951 C   0  0  0  0  0  0  0  0  0  0  0  0
  -20.1833  -24.3490   23.5144 C   0  0  0  0  0  0  0  0  0  0  0  0
  -22.7208  -22.9048   19.3767 C   0  0  0  0  0  0  0  0  0  0  0  0
  -27.7076  -24.6113   20.4841 C   0  0  0  0  0  0  0  0  0  0  0  0
  -29.5319  -24.9122   18.9290 C   0  0  0  0  0  0  0  0  0  0  0  0
  -22.8336  -21.5347   19.1448 C   0  0  0  0  0  0  0  0  0  0  0  0
  -26.5035  -27.3479   18.9049 C   0  0  0  0  0  0  0  0  0  0  0  0
  -25.2530  -27.9657   18.9119 C   0  0  0  0  0  0  0  0  0  0  0  0
  -21.0329  -21.6634   17.5447 C   0  0  0  0  0  0  0  0  0  0  0  0
  -25.6298  -28.7028   21.1817 C   0  0  0  0  0  0  0  0  0  0  0  0
  -23.7838  -12.9392   19.8724 C   0  0  0  0  0  0  0  0  0  0  0  0
  -28.6820  -22.6961   19.3799 C   0  0  0  0  0  0  0  0  0  0  0  0
  -28.0164  -20.5447   18.1815 C   0  0  0  0  0  0  0  0  0  0  0  0
  -19.4370  -26.5462   24.2235 C   0  0  0  0  0  0  0  0  0  0  0  0
  -21.7543  -23.6638   18.7012 C   0  0  0  0  0  0  0  0  0  0  0  0
  -19.4209  -25.5051   23.2758 C   0  0  0  0  0  0  0  0  0  0  0  0
  -20.9116  -23.0434   17.7679 C   0  0  0  0  0  0  0  0  0  0  0  0
  -28.5990  -25.4503   19.8155 C   0  0  0  0  0  0  0  0  0  0  0  0
  -21.9877  -20.9132   18.2309 C   0  0  0  0  0  0  0  0  0  0  0  0
  -27.3171  -27.4074   20.0363 C   0  0  0  0  0  0  0  0  0  0  0  0
  -24.8161  -28.6432   20.0502 C   0  0  0  0  0  0  0  0  0  0  0  0
  -26.8803  -28.0849   21.1747 C   0  0  0  0  0  0  0  0  0  0  0  0
  -28.7257  -21.2736   19.1549 C   0  0  0  0  0  0  0  0  0  0  0  0
  -24.5321  -11.9515   20.4797 C   0  0  0  0  0  0  0  0  0  0  0  0
  -24.3774  -14.1833   19.8077 C   0  0  0  0  0  0  0  0  0  0  0  0
  -28.4017  -19.2414   18.3801 C   0  0  0  0  0  0  0  0  0  0  0  0
  -26.2351  -13.4075   20.8632 C   0  0  0  0  0  0  0  0  0  0  0  0
  -27.5800  -13.6648   21.4080 C   0  0  0  0  0  0  0  0  0  0  0  0
  -27.0919  -21.0046   17.1867 C   0  0  0  0  0  0  0  0  0  0  0  0
  -19.2383  -25.3927   19.5871 C   0  0  0  0  0  0  0  0  0  0  0  0
  -23.1077  -17.4026   18.3565 C   0  0  0  0  0  0  0  0  0  0  0  0
  -19.1544  -26.1698   16.4388 C   0  0  0  0  0  0  0  0  0  0  0  0
  -19.9643  -25.3436   13.2281 C   0  0  0  0  0  0  0  0  0  0  0  0
  -29.3941  -15.0012   21.8713 C   0  0  0  0  0  0  0  0  0  0  0  0
  -18.6044  -27.7915   24.0482 C   0  0  0  0  0  0  0  0  0  0  0  0
  -21.6632  -25.1456   18.9429 C   0  0  0  0  0  0  0  0  0  0  0  0
  -19.8710  -23.8171   17.0018 C   0  0  0  0  0  0  0  0  0  0  0  0
  -18.1247  -28.0067   22.6151 C   0  0  0  0  0  0  0  0  0  0  0  0
  -32.1052  -17.2830   21.2020 C   0  0  0  0  0  0  0  0  0  0  0  0
  -17.5591  -26.7115   22.0413 C   0  0  0  0  0  0  0  0  0  0  0  0
  -31.4017  -18.4794   20.5614 C   0  0  0  0  0  0  0  0  0  0  0  0
  -31.2380  -16.6323   22.2753 C   0  0  0  0  0  0  0  0  0  0  0  0
  -29.1749  -17.4238   21.1501 C   0  0  0  0  0  0  0  0  0  0  0  0
  -18.6313  -25.6164   21.9896 C   0  0  1  0  0  0  0  0  0  0  0  0
  -20.3009  -25.7278   18.5788 C   0  0  1  0  0  0  0  0  0  0  0  0
  -30.0078  -18.0870   20.0399 C   0  0  1  0  0  0  0  0  0  0  0  0
  -19.7290  -26.1565   10.8657 C   0  0  0  0  0  0  0  0  0  0  0  0
  -16.2368  -25.2767   16.4246 C   0  0  0  0  0  0  0  0  0  0  0  0
  -16.3435  -25.2049   13.9243 C   0  0  0  0  0  0  0  0  0  0  0  0
  -16.6954  -27.3633   15.1245 C   0  0  0  0  0  0  0  0  0  0  0  0
  -22.8971  -25.5298   12.8773 C   0  0  0  0  0  0  0  0  0  0  0  0
  -24.1431  -16.5529   19.0622 C   0  0  0  0  0  0  0  0  0  0  0  0
  -23.0968  -18.8708   18.7354 C   0  0  0  0  0  0  0  0  0  1  0  0
  -18.4945  -25.5890   15.2115 C   0  0  1  0  0  0  0  0  0  0  0  0
  -20.6020  -26.1495   12.1109 C   0  0  2  0  0  0  0  0  0  0  0  0
  -16.9608  -25.8433   15.1869 C   0  0  0  0  0  0  0  0  0  0  0  0
  -29.5026  -20.4977   19.9154 N   0  0  0  0  0  0  0  0  0  0  0  0
  -25.7658  -12.1515   20.9880 N   0  0  0  0  0  0  0  0  0  0  0  0
  -25.6062  -14.4539   20.2948 N   0  0  0  0  0  0  0  0  0  0  0  0
  -28.1295  -14.8330   21.3403 N   0  0  0  0  0  0  0  0  0  0  0  0
  -29.2837  -19.2678   19.4200 N   0  0  0  0  0  0  0  0  0  0  0  0
  -19.8167  -25.2623   17.2776 N   0  0  0  0  0  0  0  0  0  0  0  0
  -29.9111  -16.3043   21.7521 N   0  0  0  0  0  0  0  0  0  0  0  0
  -23.9588  -10.6594   20.5668 N   0  0  0  0  0  0  0  0  0  0  0  0
  -28.0686  -18.0868   17.7649 N   0  0  0  0  0  0  0  0  0  0  0  0
  -26.8087  -22.3756   17.1209 N   0  0  0  0  0  0  0  0  0  0  0  0
  -23.6572  -15.2042   19.2042 N   0  0  0  0  0  0  0  0  0  0  0  0
  -19.5192  -25.8310   20.8671 N   0  0  0  0  0  0  0  0  0  0  0  0
  -19.2097  -26.1385   14.0648 N   0  0  0  0  0  0  0  0  0  0  0  0
  -21.9295  -25.5758   11.7510 N   0  3  0  0  0  0  0  0  0  0  0  0
  -26.5211  -20.2208   16.3909 O   0  0  0  0  0  0  0  0  0  0  0  0
  -18.2371  -24.7832   19.2298 O   0  0  0  0  0  0  0  0  0  0  0  0
  -22.3217  -16.9431   17.5290 O   0  0  0  0  0  0  0  0  0  0  0  0
  -19.0909  -27.3848   16.6418 O   0  0  0  0  0  0  0  0  0  0  0  0
  -20.1170  -24.1296   13.3447 O   0  0  0  0  0  0  0  0  0  0  0  0
  -30.0364  -14.1001   22.4159 O   0  0  0  0  0  0  0  0  0  0  0  0
  -28.5587  -26.7942   20.0276 O   0  0  0  0  0  0  0  0  0  0  0  0
  -22.0952  -19.5759   18.0032 O   0  0  0  0  0  0  0  0  0  1  0  0
  -23.6159  -29.2378   20.0562 F   0  0  0  0  0  0  0  0  0  0  0  0
  -27.6580  -28.1465   22.2642 F   0  0  0  0  0  0  0  0  0  0  0  0
  1  2  1  0  0  0  0
  1  5  2  0  0  0  0
  2  6  2  0  0  0  0
  3  8  2  0  0  0  0
  3 16  1  0  0  0  0
  4  9  1  0  0  0  0
  4 16  2  0  0  0  0
  5 18  1  0  0  0  0
  6 20  1  0  0  0  0
  7 10  2  0  0  0  0
  7 19  1  0  0  0  0
  8 22  1  0  0  0  0
  9 22  2  0  0  0  0
 10 23  1  0  0  0  0
 11 12  2  0  0  0  0
 11 24  1  0  0  0  0
 12 25  1  0  0  0  0
 13 21  1  0  0  0  0
 13 23  2  0  0  0  0
 14 25  2  0  0  0  0
 14 26  1  0  0  0  0
 15 28  2  0  0  0  0
 15 29  1  0  0  0  0
 16 27  1  0  0  0  0
 17 27  1  0  0  0  0
 17 30  2  0  0  0  0
 17 33  1  0  0  0  0
 18 20  2  0  0  0  0
 18 39  1  0  0  0  0
 19 21  2  0  0  0  0
 19 40  1  0  0  0  0
 20 48  1  0  0  0  0
 21 41  1  0  0  0  0
 22 81  1  0  0  0  0
 23 82  1  0  0  0  0
 24 26  2  0  0  0  0
 24 81  1  0  0  0  0
 25 83  1  0  0  0  0
 26 84  1  0  0  0  0
 27 61  2  0  0  0  0
 28 62  1  0  0  0  0
 28 68  1  0  0  0  0
 29 63  2  0  0  0  0
 29 71  1  0  0  0  0
 30 65  1  0  0  0  0
 30 69  1  0  0  0  0
 31 32  1  0  0  0  0
 31 62  2  0  0  0  0
 31 63  1  0  0  0  0
 32 64  2  0  0  0  0
 33 70  1  0  0  0  0
 33 75  2  0  0  0  0
 34 49  1  0  0  0  0
 34 72  1  0  0  0  0
 34 76  2  0  0  0  0
 35 56  1  0  0  0  0
 35 57  1  0  0  0  0
 35 77  2  0  0  0  0
 36 58  1  0  0  0  0
 36 66  1  0  0  0  0
 36 78  2  0  0  0  0
 37 59  1  0  0  0  0
 37 73  1  0  0  0  0
 37 79  2  0  0  0  0
 38 64  1  0  0  0  0
 38 67  1  0  0  0  0
 38 80  2  0  0  0  0
 39 42  1  0  0  0  0
 40 49  1  0  0  0  0
 41 66  1  0  0  0  0
 42 44  1  0  0  0  0
 43 45  1  0  0  0  0
 43 46  1  0  0  0  0
 44 48  1  0  0  0  0
 45 50  1  0  0  0  0
 46 67  1  0  0  0  0
 47 50  1  0  0  0  0
 47 67  1  0  0  0  0
 48 72  1  0  0  0  0
 49 66  1  0  0  0  0
 50 65  1  0  0  0  0
 51 59  1  0  0  0  0
 52 60  1  0  0  0  0
 53 60  1  0  0  0  0
 54 60  1  0  0  0  0
 55 74  1  0  0  0  0
 56 71  1  0  0  0  0
 57 82  1  0  0  0  0
 58 60  1  0  0  0  0
 58 73  1  0  0  0  0
 59 74  1  0  0  0  0
 61 65  1  0  0  0  0
M  CHG  1  74   1
M  ISO  4  38 100  57 101  64 100  82 101
M  END
> <Batch ID>
0168

> <Smiles>
CNC(C)C(=O)NC(C(=O)N1Cc2cc([101O:1][101CH2:1]C(=O)CNc3cc(N)nc(C=[100N:0][100C:0](=O)N4CCCC(n5nc(-c6ccc(Oc7ccc(F)cc7F)cc6)c(C(N)=O)c5N)C4)n3)ccc2CC1C(=O)NC1CCCc2ccccc21)C(C)(C)C

> <Shape>
0.207

> <Color>
0.089

> <Negative vol penalty>
0.000

$$$$

  -OEChem-04052304143D

 86 94  0     1  0  0  0  0  0999 V2000
  -16.3757  -25.5210   15.4299 C   0  0  0  0  0  0  0  0  0  0  0  0
  -17.3213  -25.0523   16.3363 C   0  0  0  0  0  0  0  0  0  0  0  0
  -23.0738   -9.8689   19.9419 C   0  0  0  0  0  0  0  0  0  0  0  0
  -23.8308   -9.8783   22.2362 C   0  0  0  0  0  0  0  0  0  0  0  0
  -15.6927  -24.6235   14.6102 C   0  0  0  0  0  0  0  0  0  0  0  0
  -17.5837  -23.6856   16.4242 C   0  0  0  0  0  0  0  0  0  0  0  0
  -22.5401  -22.6687   16.6362 C   0  0  0  0  0  0  0  0  0  0  0  0
  -22.3288   -8.7166   20.1924 C   0  0  0  0  0  0  0  0  0  0  0  0
  -23.0858   -8.7261   22.4868 C   0  0  0  0  0  0  0  0  0  0  0  0
  -23.1781  -22.8626   17.8606 C   0  0  0  0  0  0  0  0  0  0  0  0
  -19.9416   -5.9781   20.3215 C   0  0  0  0  0  0  0  0  0  0  0  0
  -18.6365   -5.9303   19.8316 C   0  0  0  0  0  0  0  0  0  0  0  0
  -23.0498  -20.4934   18.2958 C   0  0  0  0  0  0  0  0  0  0  0  0
  -29.5201  -17.8860   22.3683 C   0  0  0  0  0  0  0  0  0  0  0  0
  -31.1529  -17.6943   20.5979 C   0  0  0  0  0  0  0  0  0  0  0  0
  -18.0710   -7.8753   21.1485 C   0  0  0  0  0  0  0  0  0  0  0  0
  -23.8249  -10.4497   20.9637 C   0  0  0  0  0  0  0  0  0  0  0  0
  -24.1686  -12.9745   20.8408 C   0  0  0  0  0  0  0  0  0  0  0  0
  -15.9538  -23.2460   14.6813 C   0  0  0  0  0  0  0  0  0  0  0  0
  -22.1418  -21.3849   16.2366 C   0  0  0  0  0  0  0  0  0  0  0  0
  -16.9026  -22.7687   15.6056 C   0  0  0  0  0  0  0  0  0  0  0  0
  -22.4093  -20.2855   17.0648 C   0  0  0  0  0  0  0  0  0  0  0  0
  -29.6886  -19.2706   22.3739 C   0  0  0  0  0  0  0  0  0  0  0  0
  -30.2523  -17.0978   21.4804 C   0  0  0  0  0  0  0  0  0  0  0  0
  -31.3214  -19.0789   20.6034 C   0  0  0  0  0  0  0  0  0  0  0  0
  -22.3348   -8.1452   21.4649 C   0  0  0  0  0  0  0  0  0  0  0  0
  -23.4305  -21.7753   18.6919 C   0  0  0  0  0  0  0  0  0  0  0  0
  -20.3114   -6.9744   21.2249 C   0  0  0  0  0  0  0  0  0  0  0  0
  -17.7012   -6.8790   20.2451 C   0  0  0  0  0  0  0  0  0  0  0  0
  -19.3762   -7.9230   21.6384 C   0  0  0  0  0  0  0  0  0  0  0  0
  -30.5893  -19.8671   21.4914 C   0  0  0  0  0  0  0  0  0  0  0  0
  -24.5951  -11.6397   20.7054 C   0  0  0  0  0  0  0  0  0  0  0  0
  -25.2618  -13.7227   20.4779 C   0  0  0  0  0  0  0  0  0  0  0  0
  -22.8980  -13.4918   21.2575 C   0  0  0  0  0  0  0  0  0  0  0  0
  -19.3559  -20.0059   15.5724 C   0  0  0  0  0  0  0  0  0  0  0  0
  -25.9867  -21.4143   21.2340 C   0  0  0  0  0  0  0  0  0  0  0  0
  -21.2402  -17.5122   14.7045 C   0  0  0  0  0  0  0  0  0  0  0  0
  -24.2318  -15.8982   15.0086 C   0  0  0  0  0  0  0  0  0  0  0  0
  -30.7285  -14.7647   20.6581 C   0  0  0  0  0  0  0  0  0  0  0  0
  -15.1564  -22.3099   13.8081 C   0  0  0  0  0  0  0  0  0  0  0  0
  -21.4786  -21.1889   14.9009 C   0  0  0  0  0  0  0  0  0  0  0  0
  -22.0199  -18.8843   16.6730 C   0  0  0  0  0  0  0  0  0  0  0  0
  -15.7625  -20.9131   13.7000 C   0  0  0  0  0  0  0  0  0  0  0  0
  -29.6153  -12.3485   18.2916 C   0  0  0  0  0  0  0  0  0  0  0  0
  -16.1646  -20.3974   15.0781 C   0  0  0  0  0  0  0  0  0  0  0  0
  -28.1749  -12.0585   18.7197 C   0  0  0  0  0  0  0  0  0  0  0  0
  -30.5291  -12.5783   19.4941 C   0  0  0  0  0  0  0  0  0  0  0  0
  -28.6209  -13.3059   20.8720 C   0  0  0  0  0  0  0  0  0  0  0  0
  -17.2329  -21.2958   15.7131 C   0  0  1  0  0  0  0  0  0  0  0  0
  -20.6555  -19.9066   14.8249 C   0  0  1  0  0  0  0  0  0  0  0  0
  -27.6495  -13.1318   19.6932 C   0  0  2  0  0  0  0  0  0  0  0  0
  -29.7817  -20.9419   24.2688 C   0  0  0  0  0  0  0  0  0  0  0  0
  -25.4639  -13.8653   14.2046 C   0  0  0  0  0  0  0  0  0  0  0  0
  -19.5806  -15.7680   16.5789 C   0  0  0  0  0  0  0  0  0  0  0  0
  -21.3949  -14.0461   16.4699 C   0  0  0  0  0  0  0  0  0  0  0  0
  -20.1655  -14.6928   14.3980 C   0  0  0  0  0  0  0  0  0  0  0  0
  -26.3611  -17.5368   13.7678 C   0  0  0  0  0  0  0  0  0  0  0  0
  -26.9092  -20.3920   21.8439 C   0  0  0  0  0  0  0  0  0  0  0  0
  -24.8529  -20.8872   20.3783 C   0  0  0  0  0  0  0  0  0  1  0  0
  -28.8934  -20.1216   23.3368 C   0  0  1  0  0  0  0  0  0  0  0  0
  -21.8196  -16.3123   15.4142 C   0  0  1  0  0  0  0  0  0  0  0  0
  -25.1864  -15.3416   13.9678 C   0  0  2  0  0  0  0  0  0  0  0  0
  -20.7459  -15.2313   15.7238 C   0  0  0  0  0  0  0  0  0  0  0  0
  -25.8604  -11.5425   20.2888 N   0  0  0  0  0  0  0  0  0  0  0  0
  -26.2384  -12.8256   20.1593 N   0  0  0  0  0  0  0  0  0  0  0  0
  -21.3684  -18.7449   15.3602 N   0  0  0  0  0  0  0  0  0  0  0  0
  -29.9697  -13.6107   20.3694 N   0  0  0  0  0  0  0  0  0  0  0  0
  -32.2327  -19.6798   19.7097 N   0  0  0  0  0  0  0  0  0  0  0  0
  -25.4732  -15.0539   20.4034 N   0  0  0  0  0  0  0  0  0  0  0  0
  -21.8850  -12.5837   21.5947 N   0  0  0  0  0  0  0  0  0  0  0  0
  -30.0807  -15.6913   21.4744 N   0  0  0  0  0  0  0  0  0  0  0  0
  -18.5311  -21.0242   15.1340 N   0  0  0  0  0  0  0  0  0  0  0  0
  -22.9215  -15.8393   14.5832 N   0  0  0  0  0  0  0  0  0  0  0  0
  -26.4826  -16.0759   14.0085 N   0  3  0  0  0  0  0  0  0  0  0  0
  -27.9617  -21.0558   22.6443 N   0  3  0  0  0  0  0  0  0  0  0  0
  -22.6625  -14.7226   21.3129 O   0  0  0  0  0  0  0  0  0  0  0  0
  -19.1184  -19.2161   16.4788 O   0  0  0  0  0  0  0  0  0  0  0  0
  -26.1686  -22.6186   21.4116 O   0  0  0  0  0  0  0  0  0  0  0  0
  -20.7004  -17.3624   13.6055 O   0  0  0  0  0  0  0  0  0  0  0  0
  -24.6102  -16.3375   16.0923 O   0  0  0  0  0  0  0  0  0  0  0  0
  -31.8583  -14.9320   20.1916 O   0  0  0  0  0  0  0  0  0  0  0  0
  -21.6077   -7.0209   21.7098 O   0  0  0  0  0  0  0  0  0  0  0  0
  -24.0525  -21.9619   19.8878 O   0  0  0  0  0  0  0  0  0  1  0  0
  -16.4483   -6.8339   19.7734 F   0  0  0  0  0  0  0  0  0  0  0  0
  -19.7259   -8.8833   22.5053 F   0  0  0  0  0  0  0  0  0  0  0  0
  -30.7501  -21.1990   21.4974 F   0  0  0  0  0  0  0  0  0  0  0  0
  1  2  1  0  0  0  0
  1  5  2  0  0  0  0
  2  6  2  0  0  0  0
  3  8  2  0  0  0  0
  3 17  1  0  0  0  0
  4  9  1  0  0  0  0
  4 17  2  0  0  0  0
  5 19  1  0  0  0  0
  6 21  1  0  0  0  0
  7 10  2  0  0  0  0
  7 20  1  0  0  0  0
  8 26  1  0  0  0  0
  9 26  2  0  0  0  0
 10 27  1  0  0  0  0
 11 12  2  0  0  0  0
 11 28  1  0  0  0  0
 12 29  1  0  0  0  0
 13 22  1  0  0  0  0
 13 27  2  0  0  0  0
 14 23  1  0  0  0  0
 14 24  2  0  0  0  0
 15 24  1  0  0  0  0
 15 25  2  0  0  0  0
 16 29  2  0  0  0  0
 16 30  1  0  0  0  0
 17 32  1  0  0  0  0
 18 32  1  0  0  0  0
 18 33  2  0  0  0  0
 18 34  1  0  0  0  0
 19 21  2  0  0  0  0
 19 40  1  0  0  0  0
 20 22  2  0  0  0  0
 20 41  1  0  0  0  0
 21 49  1  0  0  0  0
 22 42  1  0  0  0  0
 23 31  2  0  0  0  0
 23 60  1  0  0  0  0
 24 71  1  0  0  0  0
 25 31  1  0  0  0  0
 25 68  1  0  0  0  0
 26 82  1  0  0  0  0
 27 83  1  0  0  0  0
 28 30  2  0  0  0  0
 28 82  1  0  0  0  0
 29 84  1  0  0  0  0
 30 85  1  0  0  0  0
 31 86  1  0  0  0  0
 32 64  2  0  0  0  0
 33 65  1  0  0  0  0
 33 69  1  0  0  0  0
 34 70  1  0  0  0  0
 34 76  2  0  0  0  0
 35 50  1  0  0  0  0
 35 72  1  0  0  0  0
 35 77  2  0  0  0  0
 36 58  1  0  0  0  0
 36 59  1  0  0  0  0
 36 78  2  0  0  0  0
 37 61  1  0  0  0  0
 37 66  1  0  0  0  0
 37 79  2  0  0  0  0
 38 62  1  0  0  0  0
 38 73  1  0  0  0  0
 38 80  2  0  0  0  0
 39 67  1  0  0  0  0
 39 71  1  0  0  0  0
 39 81  2  0  0  0  0
 40 43  1  0  0  0  0
 41 50  1  0  0  0  0
 42 66  1  0  0  0  0
 43 45  1  0  0  0  0
 44 46  1  0  0  0  0
 44 47  1  0  0  0  0
 45 49  1  0  0  0  0
 46 51  1  0  0  0  0
 47 67  1  0  0  0  0
 48 51  1  0  0  0  0
 48 67  1  0  0  0  0
 49 72  1  0  0  0  0
 50 66  1  0  0  0  0
 51 65  1  0  0  0  0
 52 60  1  0  0  0  0
 53 62  1  0  0  0  0
 54 63  1  0  0  0  0
 55 63  1  0  0  0  0
 56 63  1  0  0  0  0
 57 74  1  0  0  0  0
 58 75  1  0  0  0  0
 59 83  1  0  0  0  0
 60 75  1  0  0  0  0
 61 63  1  0  0  0  0
 61 73  1  0  0  0  0
 62 74  1  0  0  0  0
 64 65  1  0  0  0  0
M  CHG  2  74   1  75   1
M  ISO  4  39 100  59 101  71 100  83 101
M  END
> <Batch ID>
0168

> <Smiles>
CNC(C)C(=O)NC(C(=O)N1Cc2cc([101O:1][101CH2:1]C(=O)CNC(C)c3cc([100NH:0][100C:0](=O)N4CCCC(n5nc(-c6ccc(Oc7ccc(F)cc7F)cc6)c(C(N)=O)c5N)C4)cc(N)c3F)ccc2CC1C(=O)NC1CCCc2ccccc21)C(C)(C)C

> <Shape>
0.160

> <Color>
0.180

> <Negative vol penalty>
0.000

$$$$

  -OEChem-04052304143D

 89 98  0     1  0  0  0  0  0999 V2000
  -29.2240  -37.5706   22.0469 C   0  0  0  0  0  0  0  0  0  0  0  0
  -29.5174  -36.2900   21.5895 C   0  0  0  0  0  0  0  0  0  0  0  0
  -23.2095   -9.5022   19.8197 C   0  0  0  0  0  0  0  0  0  0  0  0
  -24.8669   -8.1283   20.9164 C   0  0  0  0  0  0  0  0  0  0  0  0
  -28.2834  -37.7491   23.0605 C   0  0  0  0  0  0  0  0  0  0  0  0
  -28.8712  -35.1869   22.1462 C   0  0  0  0  0  0  0  0  0  0  0  0
  -28.7545  -20.0358   20.0346 C   0  0  0  0  0  0  0  0  0  0  0  0
  -27.2156  -30.0459   19.2590 C   0  0  0  0  0  0  0  0  0  0  0  0
  -28.8808  -18.7212   20.4833 C   0  0  0  0  0  0  0  0  0  0  0  0
  -22.2171   -8.5888   20.1753 C   0  0  0  0  0  0  0  0  0  0  0  0
  -23.8744   -7.2149   21.2720 C   0  0  0  0  0  0  0  0  0  0  0  0
  -27.8077  -28.7867   19.1720 C   0  0  0  0  0  0  0  0  0  0  0  0
  -21.4563   -6.9545   23.6183 C   0  0  0  0  0  0  0  0  0  0  0  0
  -21.4621   -6.4699   24.9263 C   0  0  0  0  0  0  0  0  0  0  0  0
  -26.4061  -28.0097   20.9751 C   0  0  0  0  0  0  0  0  0  0  0  0
  -21.7287   -4.2186   24.0910 C   0  0  0  0  0  0  0  0  0  0  0  0
  -24.5344   -9.2719   20.1903 C   0  0  0  0  0  0  0  0  0  0  0  0
  -25.9284  -10.6061   18.5216 C   0  0  0  0  0  0  0  0  0  0  0  0
  -27.6182  -36.6484   23.6232 C   0  0  0  0  0  0  0  0  0  0  0  0
  -26.2203  -30.3000   20.2136 C   0  0  0  0  0  0  0  0  0  0  0  0
  -27.9218  -35.3507   23.1692 C   0  0  0  0  0  0  0  0  0  0  0  0
  -28.2834  -20.2910   18.7467 C   0  0  0  0  0  0  0  0  0  0  0  0
  -25.8011  -29.2723   21.0704 C   0  0  0  0  0  0  0  0  0  0  0  0
  -28.5361  -17.6617   19.6441 C   0  0  0  0  0  0  0  0  0  0  0  0
  -27.9386  -19.2315   17.9075 C   0  0  0  0  0  0  0  0  0  0  0  0
  -22.5495   -7.4452   20.9014 C   0  0  0  0  0  0  0  0  0  0  0  0
  -27.4050  -27.7692   20.0320 C   0  0  0  0  0  0  0  0  0  0  0  0
  -21.5866   -6.0711   22.5467 C   0  0  0  0  0  0  0  0  0  0  0  0
  -21.5984   -5.1020   25.1626 C   0  0  0  0  0  0  0  0  0  0  0  0
  -21.7228   -4.7032   22.7830 C   0  0  0  0  0  0  0  0  0  0  0  0
  -28.0650  -17.9168   18.3562 C   0  0  0  0  0  0  0  0  0  0  0  0
  -25.5601  -10.2148   19.8228 C   0  0  0  0  0  0  0  0  0  0  0  0
  -26.9423  -11.5134   18.7100 C   0  0  0  0  0  0  0  0  0  0  0  0
  -29.5274  -23.9223   18.3474 C   0  0  0  0  0  0  0  0  0  0  0  0
  -28.4054  -24.6278   18.5616 C   0  0  0  0  0  0  0  0  0  0  0  0
  -29.5024  -22.4422   18.2189 C   0  0  0  0  0  0  0  0  0  0  0  0
  -25.4012  -10.1870   17.2559 C   0  0  0  0  0  0  0  0  0  0  0  0
  -25.9417  -32.2673   22.6947 C   0  0  0  0  0  0  0  0  0  0  0  0
  -22.9122  -31.1105   22.7743 C   0  0  0  0  0  0  0  0  0  0  0  0
  -20.7531  -28.5867   21.9897 C   0  0  0  0  0  0  0  0  0  0  0  0
  -29.1211  -15.9041   21.3514 C   0  0  0  0  0  0  0  0  0  0  0  0
  -26.6438  -36.8872   24.7494 C   0  0  0  0  0  0  0  0  0  0  0  0
  -25.5726  -31.6561   20.2768 C   0  0  0  0  0  0  0  0  0  0  0  0
  -24.7223  -29.4880   22.0991 C   0  0  0  0  0  0  0  0  0  0  0  0
  -25.7297  -35.6964   25.0266 C   0  0  0  0  0  0  0  0  0  0  0  0
  -29.5551  -12.7156   22.8753 C   0  0  0  0  0  0  0  0  0  0  0  0
  -26.5373  -34.4033   25.0748 C   0  0  0  0  0  0  0  0  0  0  0  0
  -28.5847  -11.8129   22.1100 C   0  0  0  0  0  0  0  0  0  0  0  0
  -27.1777  -22.5138   19.1712 C   0  0  0  0  0  0  0  0  0  0  0  0
  -28.9862  -14.1192   23.0751 C   0  0  0  0  0  0  0  0  0  0  0  0
  -27.5562  -13.8806   21.0833 C   0  0  0  0  0  0  0  0  0  0  0  0
  -28.1556  -21.7319   18.2849 C   0  0  2  0  0  0  0  0  0  0  0  0
  -27.2237  -34.1311   23.7308 C   0  0  1  0  0  0  0  0  0  0  0  0
  -27.0451  -23.9839   18.7401 C   0  0  2  0  0  0  0  0  0  0  0  0
  -24.9309  -31.9493   21.6294 C   0  0  1  0  0  0  0  0  0  0  0  0
  -28.1122  -12.4753   20.8009 C   0  0  2  0  0  0  0  0  0  0  0  0
  -26.1968  -24.1253   17.4726 C   0  0  0  0  0  0  0  0  0  0  0  0
  -18.3473  -27.9104   22.2175 C   0  0  0  0  0  0  0  0  0  0  0  0
  -23.3871  -30.4182   25.7077 C   0  0  0  0  0  0  0  0  0  0  0  0
  -21.3754  -28.9310   25.6102 C   0  0  0  0  0  0  0  0  0  0  0  0
  -21.1326  -31.3820   25.2151 C   0  0  0  0  0  0  0  0  0  0  0  0
  -26.1726  -19.0453   16.1548 C   0  0  0  0  0  0  0  0  0  0  0  0
  -20.3818  -28.4902   19.0552 C   0  0  0  0  0  0  0  0  0  0  0  0
  -28.4523  -26.1272   18.6671 C   0  0  0  0  0  0  0  0  0  1  0  0
  -22.2304  -29.9446   23.4486 C   0  0  1  0  0  0  0  0  0  0  0  0
  -19.3808  -28.6004   21.3409 C   0  0  2  0  0  0  0  0  0  0  0  0
  -22.0531  -30.1651   24.9774 C   0  0  0  0  0  0  0  0  0  0  0  0
  -26.2814  -10.8235   20.7679 N   0  0  0  0  0  0  0  0  0  0  0  0
  -27.1132  -11.6064   20.0599 N   0  0  0  0  0  0  0  0  0  0  0  0
  -24.1240  -30.8329   22.1260 N   0  0  0  0  0  0  0  0  0  0  0  0
  -28.5635  -14.6853   21.7922 N   0  0  0  0  0  0  0  0  0  0  0  0
  -27.6954  -12.2326   17.8509 N   0  0  0  0  0  0  0  0  0  0  0  0
  -25.9808   -9.0779   16.6249 N   0  0  0  0  0  0  0  0  0  0  0  0
  -28.6676  -16.3274   20.1025 N   0  0  0  0  0  0  0  0  0  0  0  0
  -27.4606  -19.4745   16.6009 N   0  0  0  0  0  0  0  0  0  0  0  0
  -26.2724  -33.6066   22.7746 N   0  0  0  0  0  0  0  0  0  0  0  0
  -20.9808  -29.7295   22.7270 N   0  0  0  0  0  0  0  0  0  0  0  0
  -19.4229  -27.9016   20.0253 N   0  3  0  0  0  0  0  0  0  0  0  0
  -30.5578  -21.8476   18.0025 O   0  0  0  0  0  0  0  0  0  0  0  0
  -24.4552  -10.7886   16.6932 O   0  0  0  0  0  0  0  0  0  0  0  0
  -26.3873  -31.3647   23.3934 O   0  0  0  0  0  0  0  0  0  0  0  0
  -22.3853  -32.2251   22.8149 O   0  0  0  0  0  0  0  0  0  0  0  0
  -21.5425  -27.6539   21.8589 O   0  0  0  0  0  0  0  0  0  0  0  0
  -29.9610  -16.5127   22.0194 O   0  0  0  0  0  0  0  0  0  0  0  0
  -21.5813   -6.5538   21.2487 O   0  0  0  0  0  0  0  0  0  0  0  0
  -27.9818  -26.5394   19.9497 O   0  0  0  0  0  0  0  0  0  1  0  0
  -21.6056   -4.6370   26.4188 F   0  0  0  0  0  0  0  0  0  0  0  0
  -21.8495   -3.8498   21.7576 F   0  0  0  0  0  0  0  0  0  0  0  0
  -27.7341  -16.8966   17.5496 F   0  0  0  0  0  0  0  0  0  0  0  0
  1  2  1  0  0  0  0
  1  5  2  0  0  0  0
  2  6  2  0  0  0  0
  3 10  2  0  0  0  0
  3 17  1  0  0  0  0
  4 11  1  0  0  0  0
  4 17  2  0  0  0  0
  5 19  1  0  0  0  0
  6 21  1  0  0  0  0
  7  9  1  0  0  0  0
  7 22  2  0  0  0  0
  8 12  2  0  0  0  0
  8 20  1  0  0  0  0
  9 24  2  0  0  0  0
 10 26  1  0  0  0  0
 11 26  2  0  0  0  0
 12 27  1  0  0  0  0
 13 14  2  0  0  0  0
 13 28  1  0  0  0  0
 14 29  1  0  0  0  0
 15 23  1  0  0  0  0
 15 27  2  0  0  0  0
 16 29  2  0  0  0  0
 16 30  1  0  0  0  0
 17 32  1  0  0  0  0
 18 32  1  0  0  0  0
 18 33  2  0  0  0  0
 18 37  1  0  0  0  0
 19 21  2  0  0  0  0
 19 42  1  0  0  0  0
 20 23  2  0  0  0  0
 20 43  1  0  0  0  0
 21 53  1  0  0  0  0
 22 25  1  0  0  0  0
 22 52  1  0  0  0  0
 23 44  1  0  0  0  0
 24 31  1  0  0  0  0
 24 74  1  0  0  0  0
 25 31  2  0  0  0  0
 25 75  1  0  0  0  0
 26 85  1  0  0  0  0
 27 86  1  0  0  0  0
 28 30  2  0  0  0  0
 28 85  1  0  0  0  0
 29 87  1  0  0  0  0
 30 88  1  0  0  0  0
 31 89  1  0  0  0  0
 32 68  2  0  0  0  0
 33 69  1  0  0  0  0
 33 72  1  0  0  0  0
 34 35  2  0  0  0  0
 34 36  1  0  0  0  0
 35 54  1  0  0  0  0
 35 64  1  0  0  0  0
 36 52  1  0  0  0  0
 36 79  2  0  0  0  0
 37 73  1  0  0  0  0
 37 80  2  0  0  0  0
 38 55  1  0  0  0  0
 38 76  1  0  0  0  0
 38 81  2  0  0  0  0
 39 65  1  0  0  0  0
 39 70  1  0  0  0  0
 39 82  2  0  0  0  0
 40 66  1  0  0  0  0
 40 77  1  0  0  0  0
 40 83  2  0  0  0  0
 41 71  1  0  0  0  0
 41 74  1  0  0  0  0
 41 84  2  0  0  0  0
 42 45  1  0  0  0  0
 43 55  1  0  0  0  0
 44 70  1  0  0  0  0
 45 47  1  0  0  0  0
 46 48  1  0  0  0  0
 46 50  1  0  0  0  0
 47 53  1  0  0  0  0
 48 56  1  0  0  0  0
 49 52  1  0  0  0  0
 49 54  1  0  0  0  0
 50 71  1  0  0  0  0
 51 56  1  0  0  0  0
 51 71  1  0  0  0  0
 53 76  1  0  0  0  0
 54 57  1  0  0  0  0
 55 70  1  0  0  0  0
 56 69  1  0  0  0  0
 58 66  1  0  0  0  0
 59 67  1  0  0  0  0
 60 67  1  0  0  0  0
 61 67  1  0  0  0  0
 62 75  1  0  0  0  0
 63 78  1  0  0  0  0
 64 86  1  0  0  0  0
 65 67  1  0  0  0  0
 65 77  1  0  0  0  0
 66 78  1  0  0  0  0
 68 69  1  0  0  0  0
M  CHG  1  78   1
M  ISO  4  41 100  64 101  74 100  86 101
M  END
> <Batch ID>
0168

> <Smiles>
CNc1c(C2CC(C)=C([101CH2:1][101O:1]c3ccc4c(c3)CN(C(=O)C(NC(=O)C(C)NC)C(C)(C)C)C(C(=O)NC3CCCc5ccccc53)C4)CC2=O)ccc([100NH:0][100C:0](=O)N2CCCC(n3nc(-c4ccc(Oc5ccc(F)cc5F)cc4)c(C(N)=O)c3N)C2)c1F

> <Shape>
0.330

> <Color>
0.093

> <Negative vol penalty>
0.000

$$$$

  -OEChem-04052304143D

 85 93  0     1  0  0  0  0  0999 V2000
  -16.5416  -30.2795   24.8251 C   0  0  0  0  0  0  0  0  0  0  0  0
  -17.5476  -29.4904   25.3735 C   0  0  0  0  0  0  0  0  0  0  0  0
  -33.0667  -16.9509   23.2793 C   0  0  0  0  0  0  0  0  0  0  0  0
  -22.8279  -10.0883   20.0945 C   0  0  0  0  0  0  0  0  0  0  0  0
  -23.5217  -10.2184   22.4051 C   0  0  0  0  0  0  0  0  0  0  0  0
  -32.3624  -17.9628   23.9316 C   0  0  0  0  0  0  0  0  0  0  0  0
  -16.4212  -30.3908   23.4406 C   0  0  0  0  0  0  0  0  0  0  0  0
  -18.4332  -28.8113   24.5375 C   0  0  0  0  0  0  0  0  0  0  0  0
  -25.2438  -26.6122   24.2268 C   0  0  0  0  0  0  0  0  0  0  0  0
  -32.3952  -16.0662   22.4353 C   0  0  0  0  0  0  0  0  0  0  0  0
  -21.9613   -9.0430   20.4135 C   0  0  0  0  0  0  0  0  0  0  0  0
  -22.6551   -9.1730   22.7241 C   0  0  0  0  0  0  0  0  0  0  0  0
  -25.9942  -25.4613   23.9901 C   0  0  0  0  0  0  0  0  0  0  0  0
  -22.6131   -5.8027   22.4589 C   0  0  0  0  0  0  0  0  0  0  0  0
  -23.0986   -4.7869   23.2822 C   0  0  0  0  0  0  0  0  0  0  0  0
  -25.7397  -25.7912   21.6140 C   0  0  0  0  0  0  0  0  0  0  0  0
  -21.3788   -5.2807   24.9056 C   0  0  0  0  0  0  0  0  0  0  0  0
  -23.6082  -10.6760   21.0903 C   0  0  0  0  0  0  0  0  0  0  0  0
  -30.9866  -18.0900   23.7402 C   0  0  0  0  0  0  0  0  0  0  0  0
  -24.2146  -13.1332   20.7708 C   0  0  0  0  0  0  0  0  0  0  0  0
  -17.3118  -29.7204   22.5873 C   0  0  0  0  0  0  0  0  0  0  0  0
  -24.7255  -27.3565   23.1572 C   0  0  0  0  0  0  0  0  0  0  0  0
  -18.3238  -28.9127   23.1402 C   0  0  0  0  0  0  0  0  0  0  0  0
  -24.9851  -26.9526   21.8398 C   0  0  0  0  0  0  0  0  0  0  0  0
  -30.3151  -17.2054   22.8962 C   0  0  0  0  0  0  0  0  0  0  0  0
  -31.0194  -16.1935   22.2438 C   0  0  0  0  0  0  0  0  0  0  0  0
  -21.8749   -8.5853   21.7283 C   0  0  0  0  0  0  0  0  0  0  0  0
  -26.2399  -25.0490   22.6836 C   0  0  0  0  0  0  0  0  0  0  0  0
  -21.5105   -6.5577   22.8589 C   0  0  0  0  0  0  0  0  0  0  0  0
  -22.4814   -4.5258   24.5055 C   0  0  0  0  0  0  0  0  0  0  0  0
  -20.8933   -6.2966   24.0823 C   0  0  0  0  0  0  0  0  0  0  0  0
  -24.5040  -11.7556   20.7612 C   0  0  0  0  0  0  0  0  0  0  0  0
  -25.3884  -13.7333   20.3854 C   0  0  0  0  0  0  0  0  0  0  0  0
  -30.2630  -19.1692   24.4419 C   0  0  0  0  0  0  0  0  0  0  0  0
  -22.9939  -13.8100   21.0988 C   0  0  0  0  0  0  0  0  0  0  0  0
  -21.8052  -28.1375   22.1748 C   0  0  0  0  0  0  0  0  0  0  0  0
  -28.2689  -22.0095   23.1675 C   0  0  0  0  0  0  0  0  0  0  0  0
  -23.4332  -29.9402   20.0248 C   0  0  0  0  0  0  0  0  0  0  0  0
  -26.3210  -30.4712   18.2855 C   0  0  0  0  0  0  0  0  0  0  0  0
  -30.9270  -14.2297   20.6686 C   0  0  0  0  0  0  0  0  0  0  0  0
  -17.1128  -29.8335   21.0965 C   0  0  0  0  0  0  0  0  0  0  0  0
  -23.9405  -28.6104   23.4289 C   0  0  0  0  0  0  0  0  0  0  0  0
  -24.4684  -27.7278   20.6563 C   0  0  0  0  0  0  0  0  0  0  0  0
  -18.3235  -29.3809   20.2844 C   0  0  0  0  0  0  0  0  0  0  0  0
  -29.6318  -11.7440   18.4730 C   0  0  0  0  0  0  0  0  0  0  0  0
  -18.8529  -28.0510   20.8114 C   0  0  0  0  0  0  0  0  0  0  0  0
  -28.1585  -11.6387   18.8733 C   0  0  0  0  0  0  0  0  0  0  0  0
  -30.5328  -11.9827   19.6834 C   0  0  0  0  0  0  0  0  0  0  0  0
  -28.6749  -13.0149   20.9292 C   0  0  0  0  0  0  0  0  0  0  0  0
  -19.3191  -28.1804   22.2665 C   0  0  1  0  0  0  0  0  0  0  0  0
  -23.0274  -29.0060   22.2725 C   0  0  1  0  0  0  0  0  0  0  0  0
  -27.7217  -12.8392   19.7358 C   0  0  2  0  0  0  0  0  0  0  0  0
  -28.8382  -17.3432   22.6954 C   0  0  0  0  0  0  0  0  0  0  0  0
  -27.3379  -32.0008   16.5757 C   0  0  0  0  0  0  0  0  0  0  0  0
  -21.8204  -28.5591   17.8336 C   0  0  0  0  0  0  0  0  0  0  0  0
  -23.4958  -29.3939   16.1710 C   0  0  0  0  0  0  0  0  0  0  0  0
  -22.1443  -31.0163   17.4991 C   0  0  0  0  0  0  0  0  0  0  0  0
  -28.4466  -31.3365   20.1542 C   0  0  0  0  0  0  0  0  0  0  0  0
  -28.8481  -21.1870   24.2885 C   0  0  0  0  0  0  0  0  0  0  0  0
  -27.4568  -23.2177   23.5898 C   0  0  0  0  0  0  0  0  0  1  0  0
  -23.9859  -29.7117   18.6387 C   0  0  1  0  0  0  0  0  0  0  0  0
  -27.1441  -31.7264   18.0589 C   0  0  2  0  0  0  0  0  0  0  0  0
  -22.8699  -29.6543   17.5577 C   0  0  0  0  0  0  0  0  0  0  0  0
  -25.7628  -11.4956   20.3984 N   0  0  0  0  0  0  0  0  0  0  0  0
  -26.2749  -12.7182   20.1763 N   0  0  0  0  0  0  0  0  0  0  0  0
  -23.7008  -28.9433   20.9737 N   0  0  0  0  0  0  0  0  0  0  0  0
  -30.0607  -13.1376   20.4502 N   0  0  0  0  0  0  0  0  0  0  0  0
  -25.7384  -15.0251   20.2084 N   0  0  0  0  0  0  0  0  0  0  0  0
  -21.8839  -13.0412   21.4746 N   0  0  0  0  0  0  0  0  0  0  0  0
  -30.3576  -15.2836   21.3825 N   0  0  0  0  0  0  0  0  0  0  0  0
  -29.6088  -20.0908   23.7129 N   0  0  0  0  0  0  0  0  0  0  0  0
  -20.6147  -28.8224   22.3270 N   0  0  0  0  0  0  0  0  0  0  0  0
  -24.9787  -30.7576   18.4176 N   0  0  0  0  0  0  0  0  0  0  0  0
  -30.2932  -19.1827   25.7746 N   0  3  0  0  0  0  0  0  0  0  0  0
  -28.4868  -31.5864   18.6903 N   0  3  0  0  0  0  0  0  0  0  0  0
  -22.8858  -15.0585   21.0439 O   0  0  0  0  0  0  0  0  0  0  0  0
  -21.9327  -26.9353   21.9746 O   0  0  0  0  0  0  0  0  0  0  0  0
  -28.4391  -21.7254   21.9827 O   0  0  0  0  0  0  0  0  0  0  0  0
  -22.7939  -30.9689   20.2590 O   0  0  0  0  0  0  0  0  0  0  0  0
  -26.8186  -29.3485   18.3363 O   0  0  0  0  0  0  0  0  0  0  0  0
  -32.0799  -14.2414   20.2295 O   0  0  0  0  0  0  0  0  0  0  0  0
  -21.0292   -7.5654   22.0400 O   0  0  0  0  0  0  0  0  0  0  0  0
  -26.9715  -23.9257   22.4498 O   0  0  0  0  0  0  0  0  0  1  0  0
  -22.9468   -3.5492   25.2954 F   0  0  0  0  0  0  0  0  0  0  0  0
  -19.8330   -7.0178   24.4714 F   0  0  0  0  0  0  0  0  0  0  0  0
  1  2  1  0  0  0  0
  1  7  2  0  0  0  0
  2  8  2  0  0  0  0
  3  6  2  0  0  0  0
  3 10  1  0  0  0  0
  4 11  2  0  0  0  0
  4 18  1  0  0  0  0
  5 12  1  0  0  0  0
  5 18  2  0  0  0  0
  6 19  1  0  0  0  0
  7 21  1  0  0  0  0
  8 23  1  0  0  0  0
  9 13  2  0  0  0  0
  9 22  1  0  0  0  0
 10 26  2  0  0  0  0
 11 27  1  0  0  0  0
 12 27  2  0  0  0  0
 13 28  1  0  0  0  0
 14 15  2  0  0  0  0
 14 29  1  0  0  0  0
 15 30  1  0  0  0  0
 16 24  1  0  0  0  0
 16 28  2  0  0  0  0
 17 30  2  0  0  0  0
 17 31  1  0  0  0  0
 18 32  1  0  0  0  0
 19 25  2  0  0  0  0
 19 34  1  0  0  0  0
 20 32  1  0  0  0  0
 20 33  2  0  0  0  0
 20 35  1  0  0  0  0
 21 23  2  0  0  0  0
 21 41  1  0  0  0  0
 22 24  2  0  0  0  0
 22 42  1  0  0  0  0
 23 50  1  0  0  0  0
 24 43  1  0  0  0  0
 25 26  1  0  0  0  0
 25 53  1  0  0  0  0
 26 70  1  0  0  0  0
 27 82  1  0  0  0  0
 28 83  1  0  0  0  0
 29 31  2  0  0  0  0
 29 82  1  0  0  0  0
 30 84  1  0  0  0  0
 31 85  1  0  0  0  0
 32 64  2  0  0  0  0
 33 65  1  0  0  0  0
 33 68  1  0  0  0  0
 34 71  1  0  0  0  0
 34 74  2  0  0  0  0
 35 69  1  0  0  0  0
 35 76  2  0  0  0  0
 36 51  1  0  0  0  0
 36 72  1  0  0  0  0
 36 77  2  0  0  0  0
 37 59  1  0  0  0  0
 37 60  1  0  0  0  0
 37 78  2  0  0  0  0
 38 61  1  0  0  0  0
 38 66  1  0  0  0  0
 38 79  2  0  0  0  0
 39 62  1  0  0  0  0
 39 73  1  0  0  0  0
 39 80  2  0  0  0  0
 40 67  1  0  0  0  0
 40 70  1  0  0  0  0
 40 81  2  0  0  0  0
 41 44  1  0  0  0  0
 42 51  1  0  0  0  0
 43 66  1  0  0  0  0
 44 46  1  0  0  0  0
 45 47  1  0  0  0  0
 45 48  1  0  0  0  0
 46 50  1  0  0  0  0
 47 52  1  0  0  0  0
 48 67  1  0  0  0  0
 49 52  1  0  0  0  0
 49 67  1  0  0  0  0
 50 72  1  0  0  0  0
 51 66  1  0  0  0  0
 52 65  1  0  0  0  0
 54 62  1  0  0  0  0
 55 63  1  0  0  0  0
 56 63  1  0  0  0  0
 57 63  1  0  0  0  0
 58 75  1  0  0  0  0
 59 71  1  0  0  0  0
 60 83  1  0  0  0  0
 61 63  1  0  0  0  0
 61 73  1  0  0  0  0
 62 75  1  0  0  0  0
 64 65  1  0  0  0  0
M  CHG  2  74   1  75   1
M  ISO  4  40 100  60 101  70 100  83 101
M  END
> <Batch ID>
0168

> <Smiles>
CNC(C)C(=O)NC(C(=O)N1Cc2cc([101O:1][101CH2:1]C(=O)CNC(=N)c3cccc([100NH:0][100C:0](=O)N4CCCC(n5nc(-c6ccc(Oc7ccc(F)cc7F)cc6)c(C(N)=O)c5N)C4)c3C)ccc2CC1C(=O)NC1CCCc2ccccc21)C(C)(C)C

> <Shape>
0.284

> <Color>
0.189

> <Negative vol penalty>
0.000

$$$$

  -OEChem-04052304143D

 83 91  0     1  0  0  0  0  0999 V2000
  -28.3999  -24.0833   17.5348 C   0  0  0  0  0  0  0  0  0  0  0  0
  -27.1850  -24.3335   18.1648 C   0  0  0  0  0  0  0  0  0  0  0  0
  -29.1338  -16.4627   21.6384 C   0  0  0  0  0  0  0  0  0  0  0  0
  -26.9148  -17.1220   20.9469 C   0  0  0  0  0  0  0  0  0  0  0  0
  -29.5742  -24.6378   18.0422 C   0  0  0  0  0  0  0  0  0  0  0  0
  -27.1439  -25.1377   19.3032 C   0  0  0  0  0  0  0  0  0  0  0  0
  -23.3596  -28.5002   19.1709 C   0  0  0  0  0  0  0  0  0  0  0  0
  -28.9022  -15.1753   21.1542 C   0  0  0  0  0  0  0  0  0  0  0  0
  -26.6832  -15.8346   20.4625 C   0  0  0  0  0  0  0  0  0  0  0  0
  -22.0802  -28.0308   19.4650 C   0  0  0  0  0  0  0  0  0  0  0  0
  -25.3760  -12.6245   19.3687 C   0  0  0  0  0  0  0  0  0  0  0  0
  -24.1521  -12.0282   19.6718 C   0  0  0  0  0  0  0  0  0  0  0  0
  -22.2824  -28.9014   21.7056 C   0  0  0  0  0  0  0  0  0  0  0  0
  -24.6484  -12.2081   22.0295 C   0  0  0  0  0  0  0  0  0  0  0  0
  -22.9705  -23.5418   27.3784 C   0  0  0  0  0  0  0  0  0  0  0  0
  -22.4688  -22.8154   25.3645 C   0  0  0  0  0  0  0  0  0  0  0  0
  -28.1401  -17.4361   21.5348 C   0  0  0  0  0  0  0  0  0  0  0  0
  -28.9222  -19.8555   21.3289 C   0  0  0  0  0  0  0  0  0  0  0  0
  -29.5461  -25.4571   19.1818 C   0  0  0  0  0  0  0  0  0  0  0  0
  -24.1156  -29.1653   20.1469 C   0  0  0  0  0  0  0  0  0  0  0  0
  -28.3191  -25.7026   19.8271 C   0  0  0  0  0  0  0  0  0  0  0  0
  -23.5701  -29.3806   21.4206 C   0  0  0  0  0  0  0  0  0  0  0  0
  -23.4664  -22.7740   26.3077 C   0  0  0  0  0  0  0  0  0  0  0  0
  -27.6770  -14.8612   20.5662 C   0  0  0  0  0  0  0  0  0  0  0  0
  -21.5425  -28.2288   20.7334 C   0  0  0  0  0  0  0  0  0  0  0  0
  -26.2362  -13.0125   20.3959 C   0  0  0  0  0  0  0  0  0  0  0  0
  -23.7882  -11.8200   21.0022 C   0  0  0  0  0  0  0  0  0  0  0  0
  -25.8724  -12.8043   21.7263 C   0  0  0  0  0  0  0  0  0  0  0  0
  -28.3785  -18.7660   22.0354 C   0  0  0  0  0  0  0  0  0  0  0  0
  -28.9416  -20.8815   22.2418 C   0  0  0  0  0  0  0  0  0  0  0  0
  -20.1611  -26.8619   22.0350 C   0  0  0  0  0  0  0  0  0  1  0  0
  -29.3696  -19.9331   19.9689 C   0  0  0  0  0  0  0  0  0  0  0  0
  -18.9830  -26.3461   22.4043 C   0  0  0  0  0  0  0  0  0  0  0  0
  -18.9398  -25.3546   23.5242 C   0  0  0  0  0  0  0  0  0  0  0  0
  -26.8872  -28.6106   21.6009 C   0  0  0  0  0  0  0  0  0  0  0  0
  -26.3674  -31.5524   22.8650 C   0  0  0  0  0  0  0  0  0  0  0  0
  -24.1318  -33.9866   23.7154 C   0  0  0  0  0  0  0  0  0  0  0  0
  -25.7286  -22.0458   27.1434 C   0  0  0  0  0  0  0  0  0  0  0  0
  -30.8477  -25.9956   19.7209 C   0  0  0  0  0  0  0  0  0  0  0  0
  -25.4836  -29.6890   19.8056 C   0  0  0  0  0  0  0  0  0  0  0  0
  -24.3328  -30.1065   22.4975 C   0  0  0  0  0  0  0  0  0  0  0  0
  -30.6682  -27.1419   20.7130 C   0  0  0  0  0  0  0  0  0  0  0  0
  -29.2669  -21.6997   26.9491 C   0  0  0  0  0  0  0  0  0  0  0  0
  -29.5868  -26.8005   21.7332 C   0  0  0  0  0  0  0  0  0  0  0  0
  -29.4905  -21.0128   25.6000 C   0  0  0  0  0  0  0  0  0  0  0  0
  -28.0064  -21.1880   27.6442 C   0  0  0  0  0  0  0  0  0  0  0  0
  -27.0078  -20.5552   25.4828 C   0  0  0  0  0  0  0  0  0  0  0  0
  -28.2303  -26.5899   21.0498 C   0  0  1  0  0  0  0  0  0  0  0  0
  -26.3658  -29.9000   21.0323 C   0  0  1  0  0  0  0  0  0  0  0  0
  -28.2303  -21.0845   24.7154 C   0  0  2  0  0  0  0  0  0  0  0  0
  -24.0017  -36.2619   24.7659 C   0  0  0  0  0  0  0  0  0  0  0  0
  -26.7585  -30.3002   25.6199 C   0  0  0  0  0  0  0  0  0  0  0  0
  -25.7013  -32.3379   26.6192 C   0  0  0  0  0  0  0  0  0  0  0  0
  -27.8281  -32.5424   25.3318 C   0  0  0  0  0  0  0  0  0  0  0  0
  -23.0038  -35.1852   21.2558 C   0  0  0  0  0  0  0  0  0  0  0  0
  -20.2700  -24.9975   24.1760 C   0  0  0  0  0  0  0  0  0  0  0  0
  -20.1550  -23.9196   25.2582 C   0  0  0  0  0  0  0  0  0  0  0  0
  -25.6712  -32.0790   24.0967 C   0  0  1  0  0  0  0  0  0  0  0  0
  -24.1294  -35.4839   23.4654 C   0  0  2  0  0  0  0  0  0  0  0  0
  -26.4759  -31.7995   25.3974 C   0  0  0  0  0  0  0  0  0  0  0  0
  -21.7526  -24.0350   27.1386 N   0  0  0  0  0  0  0  0  0  0  0  0
  -28.0746  -19.0713   23.2997 N   0  0  0  0  0  0  0  0  0  0  0  0
  -21.4749  -23.5761   25.9064 N   0  0  0  0  0  0  0  0  0  0  0  0
  -28.4287  -20.3642   23.3948 N   0  0  0  0  0  0  0  0  0  0  0  0
  -25.6689  -30.5941   22.1170 N   0  0  0  0  0  0  0  0  0  0  0  0
  -26.8528  -21.2905   26.7477 N   0  0  0  0  0  0  0  0  0  0  0  0
  -29.3474  -22.1666   22.1627 N   0  0  0  0  0  0  0  0  0  0  0  0
  -29.2788  -18.7858   19.1691 N   0  0  0  0  0  0  0  0  0  0  0  0
  -24.7068  -22.0982   26.1959 N   0  0  0  0  0  0  0  0  0  0  0  0
  -27.6329  -27.8634   20.7093 N   0  0  0  0  0  0  0  0  0  0  0  0
  -25.4125  -33.4928   23.8463 N   0  0  0  0  0  0  0  0  0  0  0  0
  -22.9913  -35.8594   22.5796 N   0  3  0  0  0  0  0  0  0  0  0  0
  -29.8514  -20.9841   19.4823 O   0  0  0  0  0  0  0  0  0  0  0  0
  -17.8798  -24.8377   23.8721 O   0  0  0  0  0  0  0  0  0  0  0  0
  -26.6331  -28.3163   22.7630 O   0  0  0  0  0  0  0  0  0  0  0  0
  -27.4868  -31.9810   22.5733 O   0  0  0  0  0  0  0  0  0  0  0  0
  -23.1006  -33.3223   23.7910 O   0  0  0  0  0  0  0  0  0  0  0  0
  -25.6874  -22.6273   28.2306 O   0  0  0  0  0  0  0  0  0  0  0  0
  -17.7953  -26.6859   21.7937 O   0  0  0  0  0  0  0  0  0  0  0  0
  -27.4507  -13.6051   20.0933 O   0  0  0  0  0  0  0  0  0  0  0  0
  -20.2942  -27.7711   21.0234 O   0  0  0  0  0  0  0  0  0  1  0  0
  -22.6121  -11.2488   21.2932 F   0  0  0  0  0  0  0  0  0  0  0  0
  -26.6941  -13.1761   22.7175 F   0  0  0  0  0  0  0  0  0  0  0  0
  1  2  1  0  0  0  0
  1  5  2  0  0  0  0
  2  6  2  0  0  0  0
  3  8  2  0  0  0  0
  3 17  1  0  0  0  0
  4  9  1  0  0  0  0
  4 17  2  0  0  0  0
  5 19  1  0  0  0  0
  6 21  1  0  0  0  0
  7 10  2  0  0  0  0
  7 20  1  0  0  0  0
  8 24  1  0  0  0  0
  9 24  2  0  0  0  0
 10 25  1  0  0  0  0
 11 12  2  0  0  0  0
 11 26  1  0  0  0  0
 12 27  1  0  0  0  0
 13 22  1  0  0  0  0
 13 25  2  0  0  0  0
 14 27  2  0  0  0  0
 14 28  1  0  0  0  0
 15 23  1  0  0  0  0
 15 61  2  0  0  0  0
 16 23  2  0  0  0  0
 16 63  1  0  0  0  0
 17 29  1  0  0  0  0
 18 29  1  0  0  0  0
 18 30  2  0  0  0  0
 18 32  1  0  0  0  0
 19 21  2  0  0  0  0
 19 39  1  0  0  0  0
 20 22  2  0  0  0  0
 20 40  1  0  0  0  0
 21 48  1  0  0  0  0
 22 41  1  0  0  0  0
 23 69  1  0  0  0  0
 24 80  1  0  0  0  0
 25 81  1  0  0  0  0
 26 28  2  0  0  0  0
 26 80  1  0  0  0  0
 27 82  1  0  0  0  0
 28 83  1  0  0  0  0
 29 62  2  0  0  0  0
 30 64  1  0  0  0  0
 30 67  1  0  0  0  0
 31 33  2  0  0  0  0
 31 81  1  0  0  0  0
 32 68  1  0  0  0  0
 32 73  2  0  0  0  0
 33 34  1  0  0  0  0
 33 79  1  0  0  0  0
 34 56  1  0  0  0  0
 34 74  2  0  0  0  0
 35 49  1  0  0  0  0
 35 70  1  0  0  0  0
 35 75  2  0  0  0  0
 36 58  1  0  0  0  0
 36 65  1  0  0  0  0
 36 76  2  0  0  0  0
 37 59  1  0  0  0  0
 37 71  1  0  0  0  0
 37 77  2  0  0  0  0
 38 66  1  0  0  0  0
 38 69  1  0  0  0  0
 38 78  2  0  0  0  0
 39 42  1  0  0  0  0
 40 49  1  0  0  0  0
 41 65  1  0  0  0  0
 42 44  1  0  0  0  0
 43 45  1  0  0  0  0
 43 46  1  0  0  0  0
 44 48  1  0  0  0  0
 45 50  1  0  0  0  0
 46 66  1  0  0  0  0
 47 50  1  0  0  0  0
 47 66  1  0  0  0  0
 48 70  1  0  0  0  0
 49 65  1  0  0  0  0
 50 64  1  0  0  0  0
 51 59  1  0  0  0  0
 52 60  1  0  0  0  0
 53 60  1  0  0  0  0
 54 60  1  0  0  0  0
 55 72  1  0  0  0  0
 56 57  1  0  0  0  0
 57 63  1  0  0  0  0
 58 60  1  0  0  0  0
 58 71  1  0  0  0  0
 59 72  1  0  0  0  0
 61 63  1  0  0  0  0
 62 64  1  0  0  0  0
M  CHG  1  72   1
M  ISO  4  31 101  38 100  69 100  81 101
M  END
> <Batch ID>
0168

> <Smiles>
CNC(C)C(=O)NC(C(=O)N1Cc2cc([101O:1][101CH2:1]C(=O)C(=O)CCn3cc([100NH:0][100C:0](=O)N4CCCC(n5nc(-c6ccc(Oc7ccc(F)cc7F)cc6)c(C(N)=O)c5N)C4)cn3)ccc2CC1C(=O)NC1CCCc2ccccc21)C(C)(C)C

> <Shape>
0.299

> <Color>
0.074

> <Negative vol penalty>
0.000

$$$$

  -OEChem-04052304143D

 86 94  0     1  0  0  0  0  0999 V2000
  -17.4838  -31.8040   22.2761 C   0  0  0  0  0  0  0  0  0  0  0  0
  -18.7916  -32.2082   22.0277 C   0  0  0  0  0  0  0  0  0  0  0  0
  -25.9683  -13.0737   22.0430 C   0  0  0  0  0  0  0  0  0  0  0  0
  -26.3820  -13.5654   19.7140 C   0  0  0  0  0  0  0  0  0  0  0  0
  -17.2399  -30.5814   22.9002 C   0  0  0  0  0  0  0  0  0  0  0  0
  -19.8564  -31.3904   22.4044 C   0  0  0  0  0  0  0  0  0  0  0  0
  -26.4742  -29.5508   20.3704 C   0  0  0  0  0  0  0  0  0  0  0  0
  -29.5921  -20.6583   17.3596 C   0  0  0  0  0  0  0  0  0  0  0  0
  -24.7992  -12.3983   21.6928 C   0  0  0  0  0  0  0  0  0  0  0  0
  -25.2129  -12.8900   19.3638 C   0  0  0  0  0  0  0  0  0  0  0  0
  -27.7704  -29.4609   20.8759 C   0  0  0  0  0  0  0  0  0  0  0  0
  -23.9492   -9.3754   20.4387 C   0  0  0  0  0  0  0  0  0  0  0  0
  -29.4292  -21.4635   16.2324 C   0  0  0  0  0  0  0  0  0  0  0  0
  -23.7097   -8.1397   21.0396 C   0  0  0  0  0  0  0  0  0  0  0  0
  -27.2265  -27.3340   21.8759 C   0  0  0  0  0  0  0  0  0  0  0  0
  -29.1864  -22.5681   18.7827 C   0  0  0  0  0  0  0  0  0  0  0  0
  -21.6556   -8.9955   21.9806 C   0  0  0  0  0  0  0  0  0  0  0  0
  -26.7597  -13.6573   21.0537 C   0  0  0  0  0  0  0  0  0  0  0  0
  -29.2610  -13.8128   21.5299 C   0  0  0  0  0  0  0  0  0  0  0  0
  -18.3019  -29.7438   23.2760 C   0  0  0  0  0  0  0  0  0  0  0  0
  -25.5396  -28.5364   20.6235 C   0  0  0  0  0  0  0  0  0  0  0  0
  -19.6265  -30.1560   23.0353 C   0  0  0  0  0  0  0  0  0  0  0  0
  -25.9198  -27.4122   21.3703 C   0  0  0  0  0  0  0  0  0  0  0  0
  -29.0236  -23.3734   17.6555 C   0  0  0  0  0  0  0  0  0  0  0  0
  -29.4706  -21.2105   18.6348 C   0  0  0  0  0  0  0  0  0  0  0  0
  -24.4215  -12.3065   20.3531 C   0  0  0  0  0  0  0  0  0  0  0  0
  -28.1459  -28.3538   21.6311 C   0  0  0  0  0  0  0  0  0  0  0  0
  -23.0420  -10.4213   20.6088 C   0  0  0  0  0  0  0  0  0  0  0  0
  -22.5628   -7.9497   21.8105 C   0  0  0  0  0  0  0  0  0  0  0  0
  -29.1450  -22.8211   16.3803 C   0  0  0  0  0  0  0  0  0  0  0  0
  -21.8952  -10.2313   21.3798 C   0  0  0  0  0  0  0  0  0  0  0  0
  -27.9672  -14.3556   21.4149 C   0  0  0  0  0  0  0  0  0  0  0  0
  -30.0488  -14.8774   21.8938 C   0  0  0  0  0  0  0  0  0  0  0  0
  -29.9507  -25.6049   18.1975 C   0  0  0  0  0  0  0  0  0  0  0  0
  -29.7106  -12.4667   21.3260 C   0  0  0  0  0  0  0  0  0  0  0  0
  -22.7402  -28.3886   22.1219 C   0  0  0  0  0  0  0  0  0  0  0  0
  -31.4064  -26.4839   19.7093 C   0  0  0  0  0  0  0  0  0  0  0  0
  -22.7183  -25.3606   20.9586 C   0  0  0  0  0  0  0  0  0  0  0  0
  -24.4988  -22.6853   19.8099 C   0  0  0  0  0  0  0  0  0  0  0  0
  -29.5476  -20.7807   21.1159 C   0  0  0  0  0  0  0  0  0  0  0  0
  -17.9903  -28.4527   23.9906 C   0  0  0  0  0  0  0  0  0  0  0  0
  -24.1532  -28.6357   20.0487 C   0  0  0  0  0  0  0  0  0  0  0  0
  -24.9601  -26.2865   21.6533 C   0  0  0  0  0  0  0  0  0  0  0  0
  -19.1620  -27.4747   24.0202 C   0  0  0  0  0  0  0  0  0  0  0  0
  -29.8519  -19.0600   24.2181 C   0  0  0  0  0  0  0  0  0  0  0  0
  -20.4468  -28.1929   24.4206 C   0  0  0  0  0  0  0  0  0  0  0  0
  -29.5268  -17.6078   23.8606 C   0  0  0  0  0  0  0  0  0  0  0  0
  -28.9954  -20.0449   23.4242 C   0  0  0  0  0  0  0  0  0  0  0  0
  -28.6962  -18.4046   21.6106 C   0  0  0  0  0  0  0  0  0  0  0  0
  -20.8072  -29.2853   23.4066 C   0  0  1  0  0  0  0  0  0  0  0  0
  -23.1321  -27.7883   20.8014 C   0  0  1  0  0  0  0  0  0  0  0  0
  -29.5791  -17.3772   22.3375 C   0  0  2  0  0  0  0  0  0  0  0  0
  -24.9157  -20.4247   18.8034 C   0  0  0  0  0  0  0  0  0  0  0  0
  -22.2311  -24.4009   23.8137 C   0  0  0  0  0  0  0  0  0  0  0  0
  -22.8905  -22.1002   23.0787 C   0  0  0  0  0  0  0  0  0  0  0  0
  -20.8953  -23.2062   22.0693 C   0  0  0  0  0  0  0  0  0  0  0  0
  -24.4753  -23.7774   17.0593 C   0  0  0  0  0  0  0  0  0  0  0  0
  -28.7158  -24.8374   17.8174 C   0  0  0  0  0  0  0  0  0  0  0  0
  -31.6618  -26.6672   21.1936 C   0  0  0  0  0  0  0  0  0  0  0  0
  -31.7490  -28.1332   21.6077 C   0  0  0  0  0  0  0  0  0  0  0  0
  -30.4482  -28.8919   21.3749 C   0  0  0  0  0  0  0  0  0  1  0  0
  -23.2081  -24.0214   21.4542 C   0  0  1  0  0  0  0  0  0  0  0  0
  -24.3187  -21.8063   18.5854 C   0  0  2  0  0  0  0  0  0  0  0  0
  -22.3240  -23.4541   22.6004 C   0  0  0  0  0  0  0  0  0  0  0  0
  -27.9308  -15.6633   21.6841 N   0  0  0  0  0  0  0  0  0  0  0  0
  -30.2399  -25.8019   19.4406 N   0  0  0  0  0  0  0  0  0  0  0  0
  -29.2115  -15.9512   21.9719 N   0  0  0  0  0  0  0  0  0  0  0  0
  -23.6142  -26.4329   21.0748 N   0  0  0  0  0  0  0  0  0  0  0  0
  -29.0979  -19.7683   21.9897 N   0  0  0  0  0  0  0  0  0  0  0  0
  -31.3692  -14.9904   22.1515 N   0  0  0  0  0  0  0  0  0  0  0  0
  -28.7692  -11.4970   20.9548 N   0  0  0  0  0  0  0  0  0  0  0  0
  -29.6353  -20.3919   19.7796 N   0  0  0  0  0  0  0  0  0  0  0  0
  -21.3977  -28.7003   22.2219 N   0  0  0  0  0  0  0  0  0  0  0  0
  -23.2922  -23.1580   20.2812 N   0  0  0  0  0  0  0  0  0  0  0  0
  -24.9822  -22.4238   17.4024 N   0  3  0  0  0  0  0  0  0  0  0  0
  -30.9085  -12.1304   21.4848 O   0  0  0  0  0  0  0  0  0  0  0  0
  -23.5924  -28.5553   22.9866 O   0  0  0  0  0  0  0  0  0  0  0  0
  -32.1784  -26.9580   18.8773 O   0  0  0  0  0  0  0  0  0  0  0  0
  -21.5852  -25.4505   20.4793 O   0  0  0  0  0  0  0  0  0  0  0  0
  -25.5993  -22.9254   20.3015 O   0  0  0  0  0  0  0  0  0  0  0  0
  -29.8598  -21.9013   21.5269 O   0  0  0  0  0  0  0  0  0  0  0  0
  -23.2809  -11.6473   20.0110 O   0  0  0  0  0  0  0  0  0  0  0  0
  -29.4103  -28.2638   22.1262 O   0  0  0  0  0  0  0  0  0  1  0  0
  -22.3321   -6.7625   22.3862 F   0  0  0  0  0  0  0  0  0  0  0  0
  -28.9914  -23.5870   15.2913 F   0  0  0  0  0  0  0  0  0  0  0  0
  -21.0194  -11.2319   21.5458 F   0  0  0  0  0  0  0  0  0  0  0  0
  1  2  1  0  0  0  0
  1  5  2  0  0  0  0
  2  6  2  0  0  0  0
  3  9  2  0  0  0  0
  3 18  1  0  0  0  0
  4 10  1  0  0  0  0
  4 18  2  0  0  0  0
  5 20  1  0  0  0  0
  6 22  1  0  0  0  0
  7 11  2  0  0  0  0
  7 21  1  0  0  0  0
  8 13  2  0  0  0  0
  8 25  1  0  0  0  0
  9 26  1  0  0  0  0
 10 26  2  0  0  0  0
 11 27  1  0  0  0  0
 12 14  2  0  0  0  0
 12 28  1  0  0  0  0
 13 30  1  0  0  0  0
 14 29  1  0  0  0  0
 15 23  1  0  0  0  0
 15 27  2  0  0  0  0
 16 24  1  0  0  0  0
 16 25  2  0  0  0  0
 17 29  2  0  0  0  0
 17 31  1  0  0  0  0
 18 32  1  0  0  0  0
 19 32  1  0  0  0  0
 19 33  2  0  0  0  0
 19 35  1  0  0  0  0
 20 22  2  0  0  0  0
 20 41  1  0  0  0  0
 21 23  2  0  0  0  0
 21 42  1  0  0  0  0
 22 50  1  0  0  0  0
 23 43  1  0  0  0  0
 24 30  2  0  0  0  0
 24 58  1  0  0  0  0
 25 72  1  0  0  0  0
 26 82  1  0  0  0  0
 27 83  1  0  0  0  0
 28 31  2  0  0  0  0
 28 82  1  0  0  0  0
 29 84  1  0  0  0  0
 30 85  1  0  0  0  0
 31 86  1  0  0  0  0
 32 65  2  0  0  0  0
 33 67  1  0  0  0  0
 33 70  1  0  0  0  0
 34 58  1  0  0  0  0
 34 66  2  0  0  0  0
 35 71  1  0  0  0  0
 35 76  2  0  0  0  0
 36 51  1  0  0  0  0
 36 73  1  0  0  0  0
 36 77  2  0  0  0  0
 37 59  1  0  0  0  0
 37 66  1  0  0  0  0
 37 78  2  0  0  0  0
 38 62  1  0  0  0  0
 38 68  1  0  0  0  0
 38 79  2  0  0  0  0
 39 63  1  0  0  0  0
 39 74  1  0  0  0  0
 39 80  2  0  0  0  0
 40 69  1  0  0  0  0
 40 72  1  0  0  0  0
 40 81  2  0  0  0  0
 41 44  1  0  0  0  0
 42 51  1  0  0  0  0
 43 68  1  0  0  0  0
 44 46  1  0  0  0  0
 45 47  1  0  0  0  0
 45 48  1  0  0  0  0
 46 50  1  0  0  0  0
 47 52  1  0  0  0  0
 48 69  1  0  0  0  0
 49 52  1  0  0  0  0
 49 69  1  0  0  0  0
 50 73  1  0  0  0  0
 51 68  1  0  0  0  0
 52 67  1  0  0  0  0
 53 63  1  0  0  0  0
 54 64  1  0  0  0  0
 55 64  1  0  0  0  0
 56 64  1  0  0  0  0
 57 75  1  0  0  0  0
 59 60  1  0  0  0  0
 60 61  1  0  0  0  0
 61 83  1  0  0  0  0
 62 64  1  0  0  0  0
 62 74  1  0  0  0  0
 63 75  1  0  0  0  0
 65 67  1  0  0  0  0
M  CHG  1  75   1
M  ISO  4  40 100  61 101  72 100  83 101
M  END
> <Batch ID>
0168

> <Smiles>
CNC(C)C(=O)NC(C(=O)N1Cc2cc([101O:1][101CH2:1]CCC(=O)NC=Cc3cc([100NH:0][100C:0](=O)N4CCCC(n5nc(-c6ccc(Oc7ccc(F)cc7F)cc6)c(C(N)=O)c5N)C4)ccc3F)ccc2CC1C(=O)NC1CCCc2ccccc21)C(C)(C)C

> <Shape>
0.266

> <Color>
0.078

> <Negative vol penalty>
0.000

$$$$

  -OEChem-04052304143D

 85 93  0     1  0  0  0  0  0999 V2000
  -33.6910  -30.6085   14.5480 C   0  0  0  0  0  0  0  0  0  0  0  0
  -34.2743  -29.5070   15.1659 C   0  0  0  0  0  0  0  0  0  0  0  0
  -23.0341   -9.9075   19.8729 C   0  0  0  0  0  0  0  0  0  0  0  0
  -23.8420   -9.7578   22.1450 C   0  0  0  0  0  0  0  0  0  0  0  0
  -32.4028  -31.0052   14.9044 C   0  0  0  0  0  0  0  0  0  0  0  0
  -33.5701  -28.8022   16.1415 C   0  0  0  0  0  0  0  0  0  0  0  0
  -33.7819  -22.7742   17.2018 C   0  0  0  0  0  0  0  0  0  0  0  0
  -22.2867   -8.7452   20.0621 C   0  0  0  0  0  0  0  0  0  0  0  0
  -23.0945   -8.5955   22.3341 C   0  0  0  0  0  0  0  0  0  0  0  0
  -34.4801  -22.0101   18.1357 C   0  0  0  0  0  0  0  0  0  0  0  0
  -22.8390   -5.4111   20.1209 C   0  0  0  0  0  0  0  0  0  0  0  0
  -22.8781   -4.4455   19.1151 C   0  0  0  0  0  0  0  0  0  0  0  0
  -32.5443  -22.0112   19.5750 C   0  0  0  0  0  0  0  0  0  0  0  0
  -20.4881   -4.6495   18.8264 C   0  0  0  0  0  0  0  0  0  0  0  0
  -30.3278  -18.7083   23.5203 C   0  0  0  0  0  0  0  0  0  0  0  0
  -23.8119  -10.4139   20.9144 C   0  0  0  0  0  0  0  0  0  0  0  0
  -24.1708  -12.9392   20.9540 C   0  0  0  0  0  0  0  0  0  0  0  0
  -31.6787  -30.2992   15.8779 C   0  0  0  0  0  0  0  0  0  0  0  0
  -32.4609  -23.1725   17.4527 C   0  0  0  0  0  0  0  0  0  0  0  0
  -32.2715  -29.1907   16.5123 C   0  0  0  0  0  0  0  0  0  0  0  0
  -31.8306  -22.7782   18.6415 C   0  0  0  0  0  0  0  0  0  0  0  0
  -22.3168   -8.0891   21.2927 C   0  0  0  0  0  0  0  0  0  0  0  0
  -33.8623  -21.6309   19.3239 C   0  0  0  0  0  0  0  0  0  0  0  0
  -21.6244   -5.9959   20.4795 C   0  0  0  0  0  0  0  0  0  0  0  0
  -21.7027   -4.0647   18.4678 C   0  0  0  0  0  0  0  0  0  0  0  0
  -20.4490   -5.6151   19.8322 C   0  0  0  0  0  0  0  0  0  0  0  0
  -29.8316  -17.5089   23.0216 C   0  0  0  0  0  0  0  0  0  0  0  0
  -31.5859  -19.1509   23.1270 C   0  0  0  0  0  0  0  0  0  0  0  0
  -24.5847  -11.6142   20.7194 C   0  0  0  0  0  0  0  0  0  0  0  0
  -30.6264  -16.7951   22.1393 C   0  0  0  0  0  0  0  0  0  0  0  0
  -32.3022  -18.3634   22.2401 C   0  0  0  0  0  0  0  0  0  0  0  0
  -25.2610  -13.7040   20.6177 C   0  0  0  0  0  0  0  0  0  0  0  0
  -22.9135  -13.4343   21.4332 C   0  0  0  0  0  0  0  0  0  0  0  0
  -30.9854  -25.9684   17.7833 C   0  0  0  0  0  0  0  0  0  0  0  0
  -28.3271  -24.1122   17.8837 C   0  0  0  0  0  0  0  0  0  0  0  0
  -26.9510  -21.0542   18.5175 C   0  0  0  0  0  0  0  0  0  0  0  0
  -30.7376  -14.7006   20.7438 C   0  0  0  0  0  0  0  0  0  0  0  0
  -30.3074  -30.7943   16.2638 C   0  0  0  0  0  0  0  0  0  0  0  0
  -31.7125  -23.9740   16.4233 C   0  0  0  0  0  0  0  0  0  0  0  0
  -30.4073  -23.1628   18.9497 C   0  0  0  0  0  0  0  0  0  0  0  0
  -29.4851  -29.7679   17.0389 C   0  0  0  0  0  0  0  0  0  0  0  0
  -29.5549  -12.4561   18.2458 C   0  0  0  0  0  0  0  0  0  0  0  0
  -30.3258  -29.1336   18.1423 C   0  0  0  0  0  0  0  0  0  0  0  0
  -28.1224  -12.1459   18.6859 C   0  0  0  0  0  0  0  0  0  0  0  0
  -30.4968  -12.5990   19.4400 C   0  0  0  0  0  0  0  0  0  0  0  0
  -28.6250  -13.2426   20.9067 C   0  0  0  0  0  0  0  0  0  0  0  0
  -31.5300  -28.3857   17.5574 C   0  0  1  0  0  0  0  0  0  0  0  0
  -30.5431  -24.7579   17.0108 C   0  0  1  0  0  0  0  0  0  0  0  0
  -27.6263  -13.1540   19.7411 C   0  0  2  0  0  0  0  0  0  0  0  0
  -24.7475  -19.8537   18.5482 C   0  0  0  0  0  0  0  0  0  0  0  0
  -27.6136  -25.4939   20.5090 C   0  0  0  0  0  0  0  0  0  0  0  0
  -25.9827  -23.6478   20.9567 C   0  0  0  0  0  0  0  0  0  0  0  0
  -25.6802  -25.1216   18.9669 C   0  0  0  0  0  0  0  0  0  0  0  0
  -36.7693  -17.8143   20.1406 C   0  0  0  0  0  0  0  0  0  0  0  0
  -27.8379  -19.1318   16.4496 C   0  0  0  0  0  0  0  0  0  0  0  0
  -34.3962  -18.0524   20.9193 C   0  0  0  0  0  0  0  0  0  0  0  0
  -35.5393  -19.9960   19.7373 C   0  0  0  0  0  0  0  0  0  1  0  0
  -27.5484  -23.4181   18.9750 C   0  0  1  0  0  0  0  0  0  0  0  0
  -25.9760  -20.2042   17.7230 C   0  0  2  0  0  0  0  0  0  0  0  0
  -26.7337  -24.4146   19.8472 C   0  0  0  0  0  0  0  0  0  0  0  0
  -35.7165  -18.7898   20.6661 C   0  0  2  0  0  0  0  0  0  0  0  0
  -25.8397  -11.5382   20.2687 N   0  0  0  0  0  0  0  0  0  0  0  0
  -31.8533  -17.1928   21.7342 N   0  0  0  0  0  0  0  0  0  0  0  0
  -26.2238  -12.8250   20.2173 N   0  0  0  0  0  0  0  0  0  0  0  0
  -29.7196  -23.9521   17.9146 N   0  0  0  0  0  0  0  0  0  0  0  0
  -29.9644  -13.5730   20.3953 N   0  0  0  0  0  0  0  0  0  0  0  0
  -25.4802  -15.0360   20.6283 N   0  0  0  0  0  0  0  0  0  0  0  0
  -21.9018  -12.5113   21.7314 N   0  0  0  0  0  0  0  0  0  0  0  0
  -30.1148  -15.5736   21.6352 N   0  0  0  0  0  0  0  0  0  0  0  0
  -33.5581  -18.7877   21.8382 N   0  0  0  0  0  0  0  0  0  0  0  0
  -31.1172  -27.1091   17.0147 N   0  0  0  0  0  0  0  0  0  0  0  0
  -26.7375  -22.4012   18.3142 N   0  0  0  0  0  0  0  0  0  0  0  0
  -26.6282  -18.9363   17.2894 N   0  3  0  0  0  0  0  0  0  0  0  0
  -22.6881  -14.6599   21.5768 O   0  0  0  0  0  0  0  0  0  0  0  0
  -31.1905  -25.8747   18.9879 O   0  0  0  0  0  0  0  0  0  0  0  0
  -27.7215  -24.7663   17.0310 O   0  0  0  0  0  0  0  0  0  0  0  0
  -27.8132  -20.5716   19.2485 O   0  0  0  0  0  0  0  0  0  0  0  0
  -31.8579  -14.8927   20.2643 O   0  0  0  0  0  0  0  0  0  0  0  0
  -21.5874   -6.9550   21.4777 O   0  0  0  0  0  0  0  0  0  0  0  0
  -34.5418  -20.8856   20.2375 O   0  0  0  0  0  0  0  0  0  1  0  0
  -21.7406   -3.1385   17.5009 F   0  0  0  0  0  0  0  0  0  0  0  0
  -19.2794   -6.1743   20.1715 F   0  0  0  0  0  0  0  0  0  0  0  0
  -28.6221  -17.0703   23.3930 F   0  0  0  0  0  0  0  0  0  0  0  0
  -36.1705  -19.2561   21.8696 F   0  0  0  0  0  0  0  0  0  0  0  0
  -32.1855  -20.6396   23.7547 Cl  0  0  0  0  0  0  0  0  0  0  0  0
  1  2  1  0  0  0  0
  1  5  2  0  0  0  0
  2  6  2  0  0  0  0
  3  8  2  0  0  0  0
  3 16  1  0  0  0  0
  4  9  1  0  0  0  0
  4 16  2  0  0  0  0
  5 18  1  0  0  0  0
  6 20  1  0  0  0  0
  7 10  2  0  0  0  0
  7 19  1  0  0  0  0
  8 22  1  0  0  0  0
  9 22  2  0  0  0  0
 10 23  1  0  0  0  0
 11 12  2  0  0  0  0
 11 24  1  0  0  0  0
 12 25  1  0  0  0  0
 13 21  1  0  0  0  0
 13 23  2  0  0  0  0
 14 25  2  0  0  0  0
 14 26  1  0  0  0  0
 15 27  2  0  0  0  0
 15 28  1  0  0  0  0
 16 29  1  0  0  0  0
 17 29  1  0  0  0  0
 17 32  2  0  0  0  0
 17 33  1  0  0  0  0
 18 20  2  0  0  0  0
 18 38  1  0  0  0  0
 19 21  2  0  0  0  0
 19 39  1  0  0  0  0
 20 47  1  0  0  0  0
 21 40  1  0  0  0  0
 22 79  1  0  0  0  0
 23 80  1  0  0  0  0
 24 26  2  0  0  0  0
 24 79  1  0  0  0  0
 25 81  1  0  0  0  0
 26 82  1  0  0  0  0
 27 30  1  0  0  0  0
 27 83  1  0  0  0  0
 28 31  2  0  0  0  0
 28 85  1  0  0  0  0
 29 62  2  0  0  0  0
 30 63  2  0  0  0  0
 30 69  1  0  0  0  0
 31 63  1  0  0  0  0
 31 70  1  0  0  0  0
 32 64  1  0  0  0  0
 32 67  1  0  0  0  0
 33 68  1  0  0  0  0
 33 74  2  0  0  0  0
 34 48  1  0  0  0  0
 34 71  1  0  0  0  0
 34 75  2  0  0  0  0
 35 58  1  0  0  0  0
 35 65  1  0  0  0  0
 35 76  2  0  0  0  0
 36 59  1  0  0  0  0
 36 72  1  0  0  0  0
 36 77  2  0  0  0  0
 37 66  1  0  0  0  0
 37 69  1  0  0  0  0
 37 78  2  0  0  0  0
 38 41  1  0  0  0  0
 39 48  1  0  0  0  0
 40 65  1  0  0  0  0
 41 43  1  0  0  0  0
 42 44  1  0  0  0  0
 42 45  1  0  0  0  0
 43 47  1  0  0  0  0
 44 49  1  0  0  0  0
 45 66  1  0  0  0  0
 46 49  1  0  0  0  0
 46 66  1  0  0  0  0
 47 71  1  0  0  0  0
 48 65  1  0  0  0  0
 49 64  1  0  0  0  0
 50 59  1  0  0  0  0
 51 60  1  0  0  0  0
 52 60  1  0  0  0  0
 53 60  1  0  0  0  0
 54 61  1  0  0  0  0
 55 73  1  0  0  0  0
 56 61  1  0  0  0  0
 56 70  1  0  0  0  0
 57 61  1  0  0  0  0
 57 80  1  0  0  0  0
 58 60  1  0  0  0  0
 58 72  1  0  0  0  0
 59 73  1  0  0  0  0
 61 84  1  0  0  0  0
 62 64  1  0  0  0  0
M  CHG  1  73   1
M  ISO  4  37 100  57 101  69 100  80 101
M  END
> <Batch ID>
0168

> <Smiles>
CNC(C)C(=O)NC(C(=O)N1Cc2cc([101O:1][101CH2:1]C(C)(F)CNc3nc([100NH:0][100C:0](=O)N4CCCC(n5nc(-c6ccc(Oc7ccc(F)cc7F)cc6)c(C(N)=O)c5N)C4)c(F)cc3Cl)ccc2CC1C(=O)NC1CCCc2ccccc21)C(C)(C)C

> <Shape>
0.210

> <Color>
0.201

> <Negative vol penalty>
0.000

$$$$

  -OEChem-04052304143D

 87 95  0     1  0  0  0  0  0999 V2000
  -28.9561  -32.2658   25.9433 C   0  0  0  0  0  0  0  0  0  0  0  0
  -28.8860  -31.1564   25.1069 C   0  0  0  0  0  0  0  0  0  0  0  0
  -19.1512  -15.4949   20.1150 C   0  0  0  0  0  0  0  0  0  0  0  0
  -20.4972  -17.4940   19.9453 C   0  0  0  0  0  0  0  0  0  0  0  0
  -27.8079  -32.7264   26.5862 C   0  0  0  0  0  0  0  0  0  0  0  0
  -27.6677  -30.5061   24.9137 C   0  0  0  0  0  0  0  0  0  0  0  0
  -26.8048  -29.4022   20.0473 C   0  0  0  0  0  0  0  0  0  0  0  0
  -18.0702  -16.2599   20.5529 C   0  0  0  0  0  0  0  0  0  0  0  0
  -19.4162  -18.2591   20.3832 C   0  0  0  0  0  0  0  0  0  0  0  0
  -27.4702  -28.2976   19.5173 C   0  0  0  0  0  0  0  0  0  0  0  0
  -16.5701  -19.5256   19.0732 C   0  0  0  0  0  0  0  0  0  0  0  0
  -16.2947  -20.7082   18.3867 C   0  0  0  0  0  0  0  0  0  0  0  0
  -25.4731  -26.9721   19.7887 C   0  0  0  0  0  0  0  0  0  0  0  0
  -29.8423  -15.0817   21.3155 C   0  0  0  0  0  0  0  0  0  0  0  0
  -28.6836  -17.1780   20.9993 C   0  0  0  0  0  0  0  0  0  0  0  0
  -16.6272  -21.9670   20.4219 C   0  0  0  0  0  0  0  0  0  0  0  0
  -20.3647  -16.1119   19.8113 C   0  0  0  0  0  0  0  0  0  0  0  0
  -21.8066  -14.9909   18.0302 C   0  0  0  0  0  0  0  0  0  0  0  0
  -26.5730  -32.0873   26.3932 C   0  0  0  0  0  0  0  0  0  0  0  0
  -25.4696  -29.2970   20.4628 C   0  0  0  0  0  0  0  0  0  0  0  0
  -26.5021  -30.9577   25.5557 C   0  0  0  0  0  0  0  0  0  0  0  0
  -24.7923  -28.0775   20.3212 C   0  0  0  0  0  0  0  0  0  0  0  0
  -31.0277  -15.6704   20.8753 C   0  0  0  0  0  0  0  0  0  0  0  0
  -28.6702  -15.8355   21.3775 C   0  0  0  0  0  0  0  0  0  0  0  0
  -29.8691  -17.7668   20.5590 C   0  0  0  0  0  0  0  0  0  0  0  0
  -31.0411  -17.0129   20.4970 C   0  0  0  0  0  0  0  0  0  0  0  0
  -18.2027  -17.6420   20.6870 C   0  0  0  0  0  0  0  0  0  0  0  0
  -26.8052  -27.0816   19.3906 C   0  0  0  0  0  0  0  0  0  0  0  0
  -16.8740  -19.5637   20.4341 C   0  0  0  0  0  0  0  0  0  0  0  0
  -16.3233  -21.9289   19.0611 C   0  0  0  0  0  0  0  0  0  0  0  0
  -16.9026  -20.7844   21.1084 C   0  0  0  0  0  0  0  0  0  0  0  0
  -21.4819  -15.3221   19.3594 C   0  0  0  0  0  0  0  0  0  0  0  0
  -22.9472  -14.2328   18.1341 C   0  0  0  0  0  0  0  0  0  0  0  0
  -21.1371  -15.3377   16.8107 C   0  0  0  0  0  0  0  0  0  0  0  0
  -23.9488  -29.6392   23.2329 C   0  0  0  0  0  0  0  0  0  0  0  0
  -29.0286  -21.3360   19.7535 C   0  0  0  0  0  0  0  0  0  0  0  0
  -28.1974  -23.7347   19.2975 C   0  0  0  0  0  0  0  0  0  0  0  0
  -21.3103  -29.2469   21.3873 C   0  0  0  0  0  0  0  0  0  0  0  0
  -19.9431  -28.0224   18.5101 C   0  0  0  0  0  0  0  0  0  0  0  0
  -27.2803  -13.9181   22.2365 C   0  0  0  0  0  0  0  0  0  0  0  0
  -25.3683  -32.5930   27.1468 C   0  0  0  0  0  0  0  0  0  0  0  0
  -24.7580  -30.5049   21.0076 C   0  0  0  0  0  0  0  0  0  0  0  0
  -23.3525  -27.9176   20.7336 C   0  0  0  0  0  0  0  0  0  0  0  0
  -24.0429  -32.0745   26.5948 C   0  0  0  0  0  0  0  0  0  0  0  0
  -25.2011  -11.2494   21.1264 C   0  0  0  0  0  0  0  0  0  0  0  0
  -24.1201  -30.5717   26.3447 C   0  0  0  0  0  0  0  0  0  0  0  0
  -24.0441  -11.9606   20.4210 C   0  0  0  0  0  0  0  0  0  0  0  0
  -25.6777  -12.0226   22.3547 C   0  0  0  0  0  0  0  0  0  0  0  0
  -24.8569  -14.1422   21.4045 C   0  0  0  0  0  0  0  0  0  0  0  0
  -25.1940  -30.2405   25.3014 C   0  0  1  0  0  0  0  0  0  0  0  0
  -23.5548  -30.1487   21.8754 C   0  0  1  0  0  0  0  0  0  0  0  0
  -24.3854  -13.4340   20.1239 C   0  0  2  0  0  0  0  0  0  0  0  0
  -32.2673  -14.8376   20.8196 C   0  0  0  0  0  0  0  0  0  0  0  0
  -17.7544  -27.8217   17.2990 C   0  0  0  0  0  0  0  0  0  0  0  0
  -20.4662  -27.0140   23.2877 C   0  0  0  0  0  0  0  0  0  0  0  0
  -18.8387  -26.2435   21.5481 C   0  0  0  0  0  0  0  0  0  0  0  0
  -18.6068  -28.5156   22.5514 C   0  0  0  0  0  0  0  0  0  0  0  0
  -20.9422  -29.5878   16.2057 C   0  0  0  0  0  0  0  0  0  0  0  0
  -27.8776  -22.3241   19.7504 C   0  0  0  0  0  0  0  0  0  0  0  0
  -28.6854  -19.9381   20.2277 C   0  0  0  0  0  0  0  0  0  0  0  0
  -27.0417  -24.7157   19.3369 C   0  0  0  0  0  0  0  0  0  1  0  0
  -20.4925  -28.0637   20.9290 C   0  0  1  0  0  0  0  0  0  0  0  0
  -19.0138  -28.6528   17.4886 C   0  0  2  0  0  0  0  0  0  0  0  0
  -19.6288  -27.4614   22.0730 C   0  0  0  0  0  0  0  0  0  0  0  0
  -22.3463  -14.8157   20.2428 N   0  0  0  0  0  0  0  0  0  0  0  0
  -23.2253  -14.1585   19.4672 N   0  0  0  0  0  0  0  0  0  0  0  0
  -22.7019  -29.1259   21.2666 N   0  0  0  0  0  0  0  0  0  0  0  0
  -25.9867  -13.4086   21.9963 N   0  0  0  0  0  0  0  0  0  0  0  0
  -32.2454  -17.6068   20.0510 N   0  0  0  0  0  0  0  0  0  0  0  0
  -23.7292  -13.6290   17.2142 N   0  0  0  0  0  0  0  0  0  0  0  0
  -19.9786  -16.1231   16.8845 N   0  0  0  0  0  0  0  0  0  0  0  0
  -27.4661  -15.2373   21.8247 N   0  0  0  0  0  0  0  0  0  0  0  0
  -29.8591  -19.1036   20.1878 N   0  0  0  0  0  0  0  0  0  0  0  0
  -24.7094  -30.5281   23.9684 N   0  0  0  0  0  0  0  0  0  0  0  0
  -19.7232  -28.5209   19.7768 N   0  0  0  0  0  0  0  0  0  0  0  0
  -19.6991  -28.7751   16.1709 N   0  3  0  0  0  0  0  0  0  0  0  0
  -21.5446  -14.9485   15.6900 O   0  0  0  0  0  0  0  0  0  0  0  0
  -23.5882  -28.5230   23.5875 O   0  0  0  0  0  0  0  0  0  0  0  0
  -30.1713  -21.6586   19.4317 O   0  0  0  0  0  0  0  0  0  0  0  0
  -29.3090  -24.0640   18.8872 O   0  0  0  0  0  0  0  0  0  0  0  0
  -20.7352  -30.2447   21.8293 O   0  0  0  0  0  0  0  0  0  0  0  0
  -20.7779  -27.1702   18.2146 O   0  0  0  0  0  0  0  0  0  0  0  0
  -28.1666  -13.2257   22.7436 O   0  0  0  0  0  0  0  0  0  0  0  0
  -17.1480  -18.3889   21.1140 O   0  0  0  0  0  0  0  0  0  0  0  0
  -27.4525  -26.0016   18.8742 O   0  0  0  0  0  0  0  0  0  1  0  0
  -16.0603  -23.0646   18.4014 F   0  0  0  0  0  0  0  0  0  0  0  0
  -17.1951  -20.8274   22.4155 F   0  0  0  0  0  0  0  0  0  0  0  0
  1  2  1  0  0  0  0
  1  5  2  0  0  0  0
  2  6  2  0  0  0  0
  3  8  2  0  0  0  0
  3 17  1  0  0  0  0
  4  9  1  0  0  0  0
  4 17  2  0  0  0  0
  5 19  1  0  0  0  0
  6 21  1  0  0  0  0
  7 10  2  0  0  0  0
  7 20  1  0  0  0  0
  8 27  1  0  0  0  0
  9 27  2  0  0  0  0
 10 28  1  0  0  0  0
 11 12  2  0  0  0  0
 11 29  1  0  0  0  0
 12 30  1  0  0  0  0
 13 22  1  0  0  0  0
 13 28  2  0  0  0  0
 14 23  2  0  0  0  0
 14 24  1  0  0  0  0
 15 24  2  0  0  0  0
 15 25  1  0  0  0  0
 16 30  2  0  0  0  0
 16 31  1  0  0  0  0
 17 32  1  0  0  0  0
 18 32  1  0  0  0  0
 18 33  2  0  0  0  0
 18 34  1  0  0  0  0
 19 21  2  0  0  0  0
 19 41  1  0  0  0  0
 20 22  2  0  0  0  0
 20 42  1  0  0  0  0
 21 50  1  0  0  0  0
 22 43  1  0  0  0  0
 23 26  1  0  0  0  0
 23 53  1  0  0  0  0
 24 72  1  0  0  0  0
 25 26  2  0  0  0  0
 25 73  1  0  0  0  0
 26 69  1  0  0  0  0
 27 84  1  0  0  0  0
 28 85  1  0  0  0  0
 29 31  2  0  0  0  0
 29 84  1  0  0  0  0
 30 86  1  0  0  0  0
 31 87  1  0  0  0  0
 32 65  2  0  0  0  0
 33 66  1  0  0  0  0
 33 70  1  0  0  0  0
 34 71  1  0  0  0  0
 34 77  2  0  0  0  0
 35 51  1  0  0  0  0
 35 74  1  0  0  0  0
 35 78  2  0  0  0  0
 36 59  1  0  0  0  0
 36 60  1  0  0  0  0
 36 79  2  0  0  0  0
 37 59  1  0  0  0  0
 37 61  1  0  0  0  0
 37 80  2  0  0  0  0
 38 62  1  0  0  0  0
 38 67  1  0  0  0  0
 38 81  2  0  0  0  0
 39 63  1  0  0  0  0
 39 75  1  0  0  0  0
 39 82  2  0  0  0  0
 40 68  1  0  0  0  0
 40 72  1  0  0  0  0
 40 83  2  0  0  0  0
 41 44  1  0  0  0  0
 42 51  1  0  0  0  0
 43 67  1  0  0  0  0
 44 46  1  0  0  0  0
 45 47  1  0  0  0  0
 45 48  1  0  0  0  0
 46 50  1  0  0  0  0
 47 52  1  0  0  0  0
 48 68  1  0  0  0  0
 49 52  1  0  0  0  0
 49 68  1  0  0  0  0
 50 74  1  0  0  0  0
 51 67  1  0  0  0  0
 52 66  1  0  0  0  0
 54 63  1  0  0  0  0
 55 64  1  0  0  0  0
 56 64  1  0  0  0  0
 57 64  1  0  0  0  0
 58 76  1  0  0  0  0
 60 73  1  0  0  0  0
 61 85  1  0  0  0  0
 62 64  1  0  0  0  0
 62 75  1  0  0  0  0
 63 76  1  0  0  0  0
 65 66  1  0  0  0  0
M  CHG  1  76   1
M  ISO  4  40 100  61 101  72 100  85 101
M  END
> <Batch ID>
0168

> <Smiles>
CNC(C)C(=O)NC(C(=O)N1Cc2cc([101O:1][101CH2:1]C(=O)CC(=O)CNc3cc([100NH:0][100C:0](=O)N4CCCC(n5nc(-c6ccc(Oc7ccc(F)cc7F)cc6)c(C(N)=O)c5N)C4)cc(C)c3N)ccc2CC1C(=O)NC1CCCc2ccccc21)C(C)(C)C

> <Shape>
0.259

> <Color>
0.072

> <Negative vol penalty>
0.000

$$$$

  -OEChem-04052304143D

 84 92  0     1  0  0  0  0  0999 V2000
  -18.4418  -27.4511   19.4288 C   0  0  0  0  0  0  0  0  0  0  0  0
  -19.4504  -26.7747   20.1076 C   0  0  0  0  0  0  0  0  0  0  0  0
  -23.2857   -9.5071   19.9958 C   0  0  0  0  0  0  0  0  0  0  0  0
  -23.8196   -9.8366   22.3289 C   0  0  0  0  0  0  0  0  0  0  0  0
  -18.4940  -28.8391   19.3079 C   0  0  0  0  0  0  0  0  0  0  0  0
  -20.5123  -27.4860   20.6651 C   0  0  0  0  0  0  0  0  0  0  0  0
  -21.6311  -25.9459   25.3578 C   0  0  0  0  0  0  0  0  0  0  0  0
  -22.6005   -8.3356   20.3180 C   0  0  0  0  0  0  0  0  0  0  0  0
  -23.1344   -8.6652   22.6512 C   0  0  0  0  0  0  0  0  0  0  0  0
  -22.3645  -24.7668   25.4831 C   0  0  0  0  0  0  0  0  0  0  0  0
  -19.9243   -7.6919   23.0618 C   0  0  0  0  0  0  0  0  0  0  0  0
  -19.0628   -7.7276   24.1582 C   0  0  0  0  0  0  0  0  0  0  0  0
  -24.3723  -26.0593   25.8262 C   0  0  0  0  0  0  0  0  0  0  0  0
  -31.2599  -18.0020   21.5710 C   0  0  0  0  0  0  0  0  0  0  0  0
  -20.3553   -5.9905   25.2302 C   0  0  0  0  0  0  0  0  0  0  0  0
  -23.8953  -10.2576   21.0012 C   0  0  0  0  0  0  0  0  0  0  0  0
  -24.0764  -12.7712   20.6056 C   0  0  0  0  0  0  0  0  0  0  0  0
  -19.5521  -29.5686   19.8726 C   0  0  0  0  0  0  0  0  0  0  0  0
  -22.2657  -27.1926   25.4551 C   0  0  0  0  0  0  0  0  0  0  0  0
  -20.5794  -28.8849   20.5506 C   0  0  0  0  0  0  0  0  0  0  0  0
  -23.6443  -27.2527   25.7043 C   0  0  0  0  0  0  0  0  0  0  0  0
  -31.1995  -19.3316   22.0798 C   0  0  0  0  0  0  0  0  0  0  0  0
  -22.5248   -7.9147   21.6457 C   0  0  0  0  0  0  0  0  0  0  0  0
  -23.7357  -24.8234   25.7145 C   0  0  0  0  0  0  0  0  0  0  0  0
  -21.0013   -6.8055   23.0495 C   0  0  0  0  0  0  0  0  0  0  0  0
  -19.2783   -6.8769   25.2424 C   0  0  0  0  0  0  0  0  0  0  0  0
  -21.2167   -5.9548   24.1337 C   0  0  0  0  0  0  0  0  0  0  0  0
  -24.6037  -11.4674   20.6689 C   0  0  0  0  0  0  0  0  0  0  0  0
  -29.9728  -19.6169   22.6377 C   0  0  0  0  0  0  0  0  0  0  0  0
  -25.1455  -13.5571   20.2508 C   0  0  0  0  0  0  0  0  0  0  0  0
  -30.0769  -17.3217   21.7597 C   0  0  0  0  0  0  0  0  0  0  0  0
  -22.7398  -13.2308   20.8461 C   0  0  0  0  0  0  0  0  0  0  0  0
  -29.4918  -20.8774   23.2767 C   0  0  0  0  0  0  0  0  0  0  0  0
  -22.6727  -29.6614   23.4947 C   0  0  0  0  0  0  0  0  0  0  0  0
  -26.2649  -22.3596   24.9075 C   0  0  0  0  0  0  0  0  0  0  0  0
  -23.9694  -31.0398   26.1293 C   0  0  0  0  0  0  0  0  0  0  0  0
  -25.4897  -30.6383   29.1582 C   0  0  0  0  0  0  0  0  0  0  0  0
  -30.4869  -15.0398   20.7742 C   0  0  0  0  0  0  0  0  0  0  0  0
  -19.5899  -31.0634   19.6753 C   0  0  0  0  0  0  0  0  0  0  0  0
  -21.4559  -28.4553   25.3442 C   0  0  0  0  0  0  0  0  0  0  0  0
  -24.3696  -28.5659   25.8371 C   0  0  0  0  0  0  0  0  0  0  0  0
  -20.5550  -31.7780   20.6177 C   0  0  0  0  0  0  0  0  0  0  0  0
  -29.7699  -12.2906   18.6283 C   0  0  0  0  0  0  0  0  0  0  0  0
  -21.8964  -31.0528   20.6586 C   0  0  0  0  0  0  0  0  0  0  0  0
  -28.3186  -11.9386   18.9627 C   0  0  0  0  0  0  0  0  0  0  0  0
  -30.5480  -12.7265   19.8686 C   0  0  0  0  0  0  0  0  0  0  0  0
  -28.4728  -13.4534   20.9797 C   0  0  0  0  0  0  0  0  0  0  0  0
  -21.7348  -29.6236   21.1904 C   0  0  1  0  0  0  0  0  0  0  0  0
  -22.2920  -29.6684   24.9482 C   0  0  1  0  0  0  0  0  0  0  0  0
  -27.6315  -13.0707   19.7512 C   0  0  2  0  0  0  0  0  0  0  0  0
  -26.4658  -31.9504   31.0617 C   0  0  0  0  0  0  0  0  0  0  0  0
  -26.4428  -31.6378   24.4456 C   0  0  0  0  0  0  0  0  0  0  0  0
  -27.7003  -32.0604   26.5689 C   0  0  0  0  0  0  0  0  0  0  0  0
  -25.7467  -33.4923   25.9723 C   0  0  0  0  0  0  0  0  0  0  0  0
  -23.5515  -29.5045   31.0860 C   0  0  0  0  0  0  0  0  0  0  0  0
  -28.0694  -20.9251   23.8200 C   0  0  0  0  0  0  0  0  0  0  0  0
  -27.7039  -22.2831   24.4179 C   0  0  0  0  0  0  0  0  0  0  0  0
  -25.8191  -23.7142   25.4225 C   0  0  0  0  0  0  0  0  0  1  0  0
  -25.3540  -31.1114   26.7267 C   0  0  1  0  0  0  0  0  0  0  0  0
  -25.2212  -31.2710   30.5117 C   0  0  2  0  0  0  0  0  0  0  0  0
  -26.2979  -32.0505   25.9240 C   0  0  0  0  0  0  0  0  0  0  0  0
  -25.9065  -11.4234   20.3775 N   0  0  0  0  0  0  0  0  0  0  0  0
  -26.2067  -12.7093   20.1276 N   0  0  0  0  0  0  0  0  0  0  0  0
  -23.5352  -29.7727   25.7148 N   0  0  0  0  0  0  0  0  0  0  0  0
  -29.8393  -13.8044   20.5621 N   0  0  0  0  0  0  0  0  0  0  0  0
  -32.2328  -20.2047   22.0179 N   0  0  0  0  0  0  0  0  0  0  0  0
  -25.2719  -14.8837   20.0352 N   0  0  0  0  0  0  0  0  0  0  0  0
  -21.7636  -12.2900   21.2016 N   0  0  0  0  0  0  0  0  0  0  0  0
  -29.7033  -15.9992   21.4145 N   0  0  0  0  0  0  0  0  0  0  0  0
  -21.5946  -29.6331   22.6308 N   0  0  0  0  0  0  0  0  0  0  0  0
  -25.1766  -31.4940   28.1233 N   0  0  0  0  0  0  0  0  0  0  0  0
  -24.7801  -30.2360   31.4890 N   0  3  0  0  0  0  0  0  0  0  0  0
  -22.4169  -14.4376   20.7326 O   0  0  0  0  0  0  0  0  0  0  0  0
  -30.2532  -21.8391   23.3508 O   0  0  0  0  0  0  0  0  0  0  0  0
  -23.8570  -29.6817   23.1803 O   0  0  0  0  0  0  0  0  0  0  0  0
  -25.5072  -21.3909   24.8953 O   0  0  0  0  0  0  0  0  0  0  0  0
  -23.2952  -32.0689   26.0404 O   0  0  0  0  0  0  0  0  0  0  0  0
  -25.9363  -29.5003   29.0317 O   0  0  0  0  0  0  0  0  0  0  0  0
  -31.6418  -15.2415   20.3900 O   0  0  0  0  0  0  0  0  0  0  0  0
  -21.8561   -6.7718   21.9606 O   0  0  0  0  0  0  0  0  0  0  0  0
  -24.4541  -23.6740   25.8365 O   0  0  0  0  0  0  0  0  0  1  0  0
  -18.4518   -6.9124   26.2959 F   0  0  0  0  0  0  0  0  0  0  0  0
  -22.2504   -5.1019   24.1282 F   0  0  0  0  0  0  0  0  0  0  0  0
  -28.9003  -18.2850   22.5470 S   0  0  0  0  0  0  0  0  0  0  0  0
  1  2  1  0  0  0  0
  1  5  2  0  0  0  0
  2  6  2  0  0  0  0
  3  8  2  0  0  0  0
  3 16  1  0  0  0  0
  4  9  1  0  0  0  0
  4 16  2  0  0  0  0
  5 18  1  0  0  0  0
  6 20  1  0  0  0  0
  7 10  2  0  0  0  0
  7 19  1  0  0  0  0
  8 23  1  0  0  0  0
  9 23  2  0  0  0  0
 10 24  1  0  0  0  0
 11 12  2  0  0  0  0
 11 25  1  0  0  0  0
 12 26  1  0  0  0  0
 13 21  1  0  0  0  0
 13 24  2  0  0  0  0
 14 22  1  0  0  0  0
 14 31  2  0  0  0  0
 15 26  2  0  0  0  0
 15 27  1  0  0  0  0
 16 28  1  0  0  0  0
 17 28  1  0  0  0  0
 17 30  2  0  0  0  0
 17 32  1  0  0  0  0
 18 20  2  0  0  0  0
 18 39  1  0  0  0  0
 19 21  2  0  0  0  0
 19 40  1  0  0  0  0
 20 48  1  0  0  0  0
 21 41  1  0  0  0  0
 22 29  2  0  0  0  0
 22 66  1  0  0  0  0
 23 80  1  0  0  0  0
 24 81  1  0  0  0  0
 25 27  2  0  0  0  0
 25 80  1  0  0  0  0
 26 82  1  0  0  0  0
 27 83  1  0  0  0  0
 28 62  2  0  0  0  0
 29 33  1  0  0  0  0
 29 84  1  0  0  0  0
 30 63  1  0  0  0  0
 30 67  1  0  0  0  0
 31 69  1  0  0  0  0
 31 84  1  0  0  0  0
 32 68  1  0  0  0  0
 32 73  2  0  0  0  0
 33 56  1  0  0  0  0
 33 74  2  0  0  0  0
 34 49  1  0  0  0  0
 34 70  1  0  0  0  0
 34 75  2  0  0  0  0
 35 57  1  0  0  0  0
 35 58  1  0  0  0  0
 35 76  2  0  0  0  0
 36 59  1  0  0  0  0
 36 64  1  0  0  0  0
 36 77  2  0  0  0  0
 37 60  1  0  0  0  0
 37 71  1  0  0  0  0
 37 78  2  0  0  0  0
 38 65  1  0  0  0  0
 38 69  1  0  0  0  0
 38 79  2  0  0  0  0
 39 42  1  0  0  0  0
 40 49  1  0  0  0  0
 41 64  1  0  0  0  0
 42 44  1  0  0  0  0
 43 45  1  0  0  0  0
 43 46  1  0  0  0  0
 44 48  1  0  0  0  0
 45 50  1  0  0  0  0
 46 65  1  0  0  0  0
 47 50  1  0  0  0  0
 47 65  1  0  0  0  0
 48 70  1  0  0  0  0
 49 64  1  0  0  0  0
 50 63  1  0  0  0  0
 51 60  1  0  0  0  0
 52 61  1  0  0  0  0
 53 61  1  0  0  0  0
 54 61  1  0  0  0  0
 55 72  1  0  0  0  0
 56 57  1  0  0  0  0
 58 81  1  0  0  0  0
 59 61  1  0  0  0  0
 59 71  1  0  0  0  0
 60 72  1  0  0  0  0
 62 63  1  0  0  0  0
M  CHG  1  72   1
M  ISO  4  38 100  58 101  69 100  81 101
M  END
> <Batch ID>
0168

> <Smiles>
CNC(C)C(=O)NC(C(=O)N1Cc2cc([101O:1][101CH2:1]C(=O)CCC(=O)c3sc([100NH:0][100C:0](=O)N4CCCC(n5nc(-c6ccc(Oc7ccc(F)cc7F)cc6)c(C(N)=O)c5N)C4)cc3N)ccc2CC1C(=O)NC1CCCc2ccccc21)C(C)(C)C

> <Shape>
0.258

> <Color>
0.198

> <Negative vol penalty>
0.000

$$$$

  -OEChem-04052304143D

 87 95  0     1  0  0  0  0  0999 V2000
  -21.9880  -11.1451   20.2777 C   0  0  0  0  0  0  0  0  0  0  0  0
  -21.6971  -12.4335   20.7146 C   0  0  0  0  0  0  0  0  0  0  0  0
  -29.9163  -28.7163   21.4087 C   0  0  0  0  0  0  0  0  0  0  0  0
  -28.5496  -26.7240   21.4031 C   0  0  0  0  0  0  0  0  0  0  0  0
  -23.3149  -10.7357   20.1526 C   0  0  0  0  0  0  0  0  0  0  0  0
  -22.7329  -13.3129   21.0277 C   0  0  0  0  0  0  0  0  0  0  0  0
  -21.9890  -17.9468   19.1254 C   0  0  0  0  0  0  0  0  0  0  0  0
  -30.9439  -28.0096   22.0334 C   0  0  0  0  0  0  0  0  0  0  0  0
  -29.5772  -26.0173   22.0278 C   0  0  0  0  0  0  0  0  0  0  0  0
  -21.0921  -18.7750   19.7986 C   0  0  0  0  0  0  0  0  0  0  0  0
  -31.7043  -23.7795   23.9455 C   0  0  0  0  0  0  0  0  0  0  0  0
  -31.3641  -22.9492   25.0134 C   0  0  0  0  0  0  0  0  0  0  0  0
  -22.9409  -19.9082   20.8553 C   0  0  0  0  0  0  0  0  0  0  0  0
  -20.3147  -27.1740   22.2127 C   0  0  0  0  0  0  0  0  0  0  0  0
  -30.4939  -24.8544   26.2176 C   0  0  0  0  0  0  0  0  0  0  0  0
  -28.7191  -28.0735   21.0936 C   0  0  0  0  0  0  0  0  0  0  0  0
  -27.4460  -28.9516   19.0648 C   0  0  0  0  0  0  0  0  0  0  0  0
  -24.3677  -11.6137   20.4552 C   0  0  0  0  0  0  0  0  0  0  0  0
  -23.3707  -18.0861   19.3207 C   0  0  0  0  0  0  0  0  0  0  0  0
  -24.0751  -12.9144   20.9078 C   0  0  0  0  0  0  0  0  0  0  0  0
  -23.8534  -19.0822   20.1814 C   0  0  0  0  0  0  0  0  0  0  0  0
  -17.9621  -27.0900   22.7240 C   0  0  0  0  0  0  0  0  0  0  0  0
  -19.1324  -26.4494   22.3281 C   0  0  0  0  0  0  0  0  0  0  0  0
  -30.7744  -26.6602   22.3429 C   0  0  0  0  0  0  0  0  0  0  0  0
  -21.5678  -19.7540   20.6660 C   0  0  0  0  0  0  0  0  0  0  0  0
  -31.4394  -25.1473   24.0137 C   0  0  0  0  0  0  0  0  0  0  0  0
  -30.7589  -23.4866   26.1494 C   0  0  0  0  0  0  0  0  0  0  0  0
  -30.8342  -25.6847   25.1497 C   0  0  0  0  0  0  0  0  0  0  0  0
  -27.6571  -28.8031   20.4487 C   0  0  0  0  0  0  0  0  0  0  0  0
  -26.3157  -29.7262   18.9711 C   0  0  0  0  0  0  0  0  0  0  0  0
  -20.2970  -28.5318   22.4984 C   0  0  0  0  0  0  0  0  0  0  0  0
  -18.0040  -28.4499   22.9969 C   0  0  0  0  0  0  0  0  0  0  0  0
  -28.2038  -28.4353   17.9626 C   0  0  0  0  0  0  0  0  0  0  0  0
  -25.6764  -16.2130   20.4517 C   0  0  0  0  0  0  0  0  0  0  0  0
  -19.9769  -22.8486   21.6933 C   0  0  0  0  0  0  0  0  0  0  0  0
  -27.5908  -18.6500   19.4934 C   0  0  0  0  0  0  0  0  0  0  0  0
  -27.9093  -21.9676   18.7593 C   0  0  0  0  0  0  0  0  0  0  0  0
  -21.6759  -30.6363   22.6247 C   0  0  0  0  0  0  0  0  0  0  0  0
  -25.7856  -11.1106   20.3498 C   0  0  0  0  0  0  0  0  0  0  0  0
  -24.3261  -17.2025   18.5666 C   0  0  0  0  0  0  0  0  0  0  0  0
  -25.3281  -19.2861   20.4103 C   0  0  0  0  0  0  0  0  0  0  0  0
  -26.8285  -12.2252   20.3433 C   0  0  0  0  0  0  0  0  0  0  0  0
  -23.8883  -33.1103   21.3355 C   0  0  0  0  0  0  0  0  0  0  0  0
  -26.5351  -13.2372   21.4463 C   0  0  0  0  0  0  0  0  0  0  0  0
  -25.0840  -32.2995   20.8303 C   0  0  0  0  0  0  0  0  0  0  0  0
  -23.3004  -32.5168   22.6145 C   0  0  0  0  0  0  0  0  0  0  0  0
  -24.1532  -30.2802   22.0317 C   0  0  0  0  0  0  0  0  0  0  0  0
  -25.1715  -13.9055   21.2334 C   0  0  1  0  0  0  0  0  0  0  0  0
  -25.6934  -17.0937   19.2344 C   0  0  1  0  0  0  0  0  0  0  0  0
  -24.7389  -30.8022   20.7095 C   0  0  2  0  0  0  0  0  0  0  0  0
  -29.6051  -23.6723   18.0413 C   0  0  0  0  0  0  0  0  0  0  0  0
  -28.7449  -18.6881   22.3177 C   0  0  0  0  0  0  0  0  0  0  0  0
  -29.6948  -20.9513   21.8241 C   0  0  0  0  0  0  0  0  0  0  0  0
  -30.4348  -18.9733   20.4963 C   0  0  0  0  0  0  0  0  0  0  0  0
  -26.4226  -22.5690   16.2720 C   0  0  0  0  0  0  0  0  0  0  0  0
  -20.3302  -24.2801   22.0369 C   0  0  0  0  0  0  0  0  0  0  0  0
  -21.1427  -21.8802   21.6428 C   0  0  0  0  0  0  0  0  0  1  0  0
  -28.1156  -19.9125   20.1335 C   0  0  1  0  0  0  0  0  0  0  0  0
  -28.5467  -22.6819   17.5812 C   0  0  2  0  0  0  0  0  0  0  0  0
  -16.6825  -26.3290   22.8536 C   0  0  0  0  0  0  0  0  0  0  0  0
  -29.2196  -19.6264   21.1903 C   0  0  0  0  0  0  0  0  0  0  0  0
  -26.7349  -29.4330   21.1815 N   0  0  0  0  0  0  0  0  0  0  0  0
  -25.9335  -29.9849   20.2545 N   0  0  0  0  0  0  0  0  0  0  0  0
  -19.1562  -29.1236   22.8776 N   0  3  0  0  0  0  0  0  0  0  0  0
  -26.2220  -18.3930   19.6548 N   0  0  0  0  0  0  0  0  0  0  0  0
  -22.9942  -31.0973   22.4239 N   0  0  0  0  0  0  0  0  0  0  0  0
  -25.6214  -30.2046   17.9168 N   0  0  0  0  0  0  0  0  0  0  0  0
  -16.8682  -29.1657   23.4008 N   0  0  0  0  0  0  0  0  0  0  0  0
  -29.3373  -27.6579   18.2369 N   0  0  0  0  0  0  0  0  0  0  0  0
  -19.1398  -25.0911   22.0447 N   0  0  0  0  0  0  0  0  0  0  0  0
  -21.4981  -29.2747   22.3824 N   0  0  0  0  0  0  0  0  0  0  0  0
  -25.2604  -14.9188   20.2040 N   0  0  0  0  0  0  0  0  0  0  0  0
  -28.5453  -20.7767   19.0394 N   0  0  0  0  0  0  0  0  0  0  0  0
  -27.5137  -23.4246   16.8052 N   0  3  0  0  0  0  0  0  0  0  0  0
  -27.8947  -28.6705   16.7699 O   0  0  0  0  0  0  0  0  0  0  0  0
  -26.0169  -16.6732   21.5352 O   0  0  0  0  0  0  0  0  0  0  0  0
  -18.8238  -22.4837   21.4677 O   0  0  0  0  0  0  0  0  0  0  0  0
  -28.3655  -17.9224   18.8671 O   0  0  0  0  0  0  0  0  0  0  0  0
  -26.9461  -22.4225   19.3723 O   0  0  0  0  0  0  0  0  0  0  0  0
  -20.7656  -31.3990   22.9588 O   0  0  0  0  0  0  0  0  0  0  0  0
  -31.7770  -25.9702   22.9523 O   0  0  0  0  0  0  0  0  0  0  0  0
  -20.6945  -20.5633   21.3249 O   0  0  0  0  0  0  0  0  0  1  0  0
  -30.4309  -22.6888   27.1742 F   0  0  0  0  0  0  0  0  0  0  0  0
  -30.5761  -26.9978   25.2205 F   0  0  0  0  0  0  0  0  0  0  0  0
  -16.8043  -25.0037   22.5513 F   0  0  0  0  0  0  0  0  0  0  0  0
  -16.1548  -26.3628   24.1117 F   0  0  0  0  0  0  0  0  0  0  0  0
  -15.7054  -26.8065   22.0309 F   0  0  0  0  0  0  0  0  0  0  0  0
  1  2  1  0  0  0  0
  1  5  2  0  0  0  0
  2  6  2  0  0  0  0
  3  8  2  0  0  0  0
  3 16  1  0  0  0  0
  4  9  1  0  0  0  0
  4 16  2  0  0  0  0
  5 18  1  0  0  0  0
  6 20  1  0  0  0  0
  7 10  2  0  0  0  0
  7 19  1  0  0  0  0
  8 24  1  0  0  0  0
  9 24  2  0  0  0  0
 10 25  1  0  0  0  0
 11 12  2  0  0  0  0
 11 26  1  0  0  0  0
 12 27  1  0  0  0  0
 13 21  1  0  0  0  0
 13 25  2  0  0  0  0
 14 23  1  0  0  0  0
 14 31  2  0  0  0  0
 15 27  2  0  0  0  0
 15 28  1  0  0  0  0
 16 29  1  0  0  0  0
 17 29  1  0  0  0  0
 17 30  2  0  0  0  0
 17 33  1  0  0  0  0
 18 20  2  0  0  0  0
 18 39  1  0  0  0  0
 19 21  2  0  0  0  0
 19 40  1  0  0  0  0
 20 48  1  0  0  0  0
 21 41  1  0  0  0  0
 22 23  2  0  0  0  0
 22 32  1  0  0  0  0
 22 60  1  0  0  0  0
 23 70  1  0  0  0  0
 24 81  1  0  0  0  0
 25 82  1  0  0  0  0
 26 28  2  0  0  0  0
 26 81  1  0  0  0  0
 27 83  1  0  0  0  0
 28 84  1  0  0  0  0
 29 62  2  0  0  0  0
 30 63  1  0  0  0  0
 30 67  1  0  0  0  0
 31 64  1  0  0  0  0
 31 71  1  0  0  0  0
 32 64  2  0  0  0  0
 32 68  1  0  0  0  0
 33 69  1  0  0  0  0
 33 75  2  0  0  0  0
 34 49  1  0  0  0  0
 34 72  1  0  0  0  0
 34 76  2  0  0  0  0
 35 56  1  0  0  0  0
 35 57  1  0  0  0  0
 35 77  2  0  0  0  0
 36 58  1  0  0  0  0
 36 65  1  0  0  0  0
 36 78  2  0  0  0  0
 37 59  1  0  0  0  0
 37 73  1  0  0  0  0
 37 79  2  0  0  0  0
 38 66  1  0  0  0  0
 38 71  1  0  0  0  0
 38 80  2  0  0  0  0
 39 42  1  0  0  0  0
 40 49  1  0  0  0  0
 41 65  1  0  0  0  0
 42 44  1  0  0  0  0
 43 45  1  0  0  0  0
 43 46  1  0  0  0  0
 44 48  1  0  0  0  0
 45 50  1  0  0  0  0
 46 66  1  0  0  0  0
 47 50  1  0  0  0  0
 47 66  1  0  0  0  0
 48 72  1  0  0  0  0
 49 65  1  0  0  0  0
 50 63  1  0  0  0  0
 51 59  1  0  0  0  0
 52 61  1  0  0  0  0
 53 61  1  0  0  0  0
 54 61  1  0  0  0  0
 55 74  1  0  0  0  0
 56 70  1  0  0  0  0
 57 82  1  0  0  0  0
 58 61  1  0  0  0  0
 58 73  1  0  0  0  0
 59 74  1  0  0  0  0
 60 85  1  0  0  0  0
 60 86  1  0  0  0  0
 60 87  1  0  0  0  0
 62 63  1  0  0  0  0
M  CHG  2  64   1  74   1
M  ISO  4  38 100  57 101  71 100  82 101
M  END
> <Batch ID>
0168

> <Smiles>
CNC(C)C(=O)NC(C(=O)N1Cc2cc([101O:1][101CH2:1]C(=O)CNc3cc([100NH:0][100C:0](=O)N4CCCC(n5nc(-c6ccc(Oc7ccc(F)cc7F)cc6)c(C(N)=O)c5N)C4)nc(N)c3C(F)(F)F)ccc2CC1C(=O)NC1CCCc2ccccc21)C(C)(C)C

> <Shape>
0.243

> <Color>
0.072

> <Negative vol penalty>
0.000

$$$$

  -OEChem-04052304143D

 88 96  0     1  0  0  0  0  0999 V2000
  -18.5081  -23.0726   21.6151 C   0  0  0  0  0  0  0  0  0  0  0  0
  -19.7809  -22.5171   21.5323 C   0  0  0  0  0  0  0  0  0  0  0  0
  -25.4307  -13.3653   21.5729 C   0  0  0  0  0  0  0  0  0  0  0  0
  -26.1340  -13.3120   19.2621 C   0  0  0  0  0  0  0  0  0  0  0  0
  -18.2931  -24.3852   21.1971 C   0  0  0  0  0  0  0  0  0  0  0  0
  -20.8393  -23.2736   21.0304 C   0  0  0  0  0  0  0  0  0  0  0  0
  -27.9023  -24.1912   21.7971 C   0  0  0  0  0  0  0  0  0  0  0  0
  -25.2180  -11.9872   21.5399 C   0  0  0  0  0  0  0  0  0  0  0  0
  -25.9214  -11.9339   19.2292 C   0  0  0  0  0  0  0  0  0  0  0  0
  -29.0725  -24.2250   21.0399 C   0  0  0  0  0  0  0  0  0  0  0  0
  -24.1470   -8.5372   21.9575 C   0  0  0  0  0  0  0  0  0  0  0  0
  -22.9702   -8.0474   22.5238 C   0  0  0  0  0  0  0  0  0  0  0  0
  -28.5993  -26.5082   20.4215 C   0  0  0  0  0  0  0  0  0  0  0  0
  -21.6733   -9.3664   20.9698 C   0  0  0  0  0  0  0  0  0  0  0  0
  -28.1615  -22.7144   17.2108 C   0  0  0  0  0  0  0  0  0  0  0  0
  -25.8887  -14.0278   20.4339 C   0  0  0  0  0  0  0  0  0  0  0  0
  -27.2972  -16.1205   20.8135 C   0  0  0  0  0  0  0  0  0  0  0  0
  -19.3514  -25.1614   20.6988 C   0  0  0  0  0  0  0  0  0  0  0  0
  -27.0648  -25.3140   21.8634 C   0  0  0  0  0  0  0  0  0  0  0  0
  -20.6380  -24.5974   20.6040 C   0  0  0  0  0  0  0  0  0  0  0  0
  -27.4204  -26.4869   21.1822 C   0  0  0  0  0  0  0  0  0  0  0  0
  -25.4634  -11.2714   20.3681 C   0  0  0  0  0  0  0  0  0  0  0  0
  -29.4197  -25.3826   20.3496 C   0  0  0  0  0  0  0  0  0  0  0  0
  -24.0870   -9.4418   20.8974 C   0  0  0  0  0  0  0  0  0  0  0  0
  -21.7333   -8.4619   22.0300 C   0  0  0  0  0  0  0  0  0  0  0  0
  -22.8501   -9.8563   20.4035 C   0  0  0  0  0  0  0  0  0  0  0  0
  -26.1080  -15.4515   20.4672 C   0  0  0  0  0  0  0  0  0  0  0  0
  -26.7960  -22.8719   17.3329 C   0  0  0  0  0  0  0  0  0  0  0  0
  -28.8611  -23.8420   16.8323 C   0  0  0  0  0  0  0  0  0  0  0  0
  -26.9902  -17.4534   20.6885 C   0  0  0  0  0  0  0  0  0  0  0  0
  -26.9452  -25.0620   16.7428 C   0  0  0  0  0  0  0  0  0  0  0  0
  -28.5659  -15.5851   21.2125 C   0  0  0  0  0  0  0  0  0  0  0  0
  -24.0608  -25.9246   21.0226 C   0  0  0  0  0  0  0  0  0  0  0  0
  -33.1074  -24.1974   17.3502 C   0  0  0  0  0  0  0  0  0  0  0  0
  -24.6362  -28.7584   22.4926 C   0  0  0  0  0  0  0  0  0  0  0  0
  -26.9189  -31.0759   23.5248 C   0  0  0  0  0  0  0  0  0  0  0  0
  -24.6554  -21.6739   17.9064 C   0  0  0  0  0  0  0  0  0  0  0  0
  -19.0607  -26.5600   20.2149 C   0  0  0  0  0  0  0  0  0  0  0  0
  -25.8197  -25.2703   22.7061 C   0  0  0  0  0  0  0  0  0  0  0  0
  -26.5659  -27.7260   21.2373 C   0  0  0  0  0  0  0  0  0  0  0  0
  -20.3118  -27.4180   20.0449 C   0  0  0  0  0  0  0  0  0  0  0  0
  -22.5325  -19.7590   20.0286 C   0  0  0  0  0  0  0  0  0  0  0  0
  -21.3946  -26.6416   19.3023 C   0  0  0  0  0  0  0  0  0  0  0  0
  -23.3713  -18.5227   20.3604 C   0  0  0  0  0  0  0  0  0  0  0  0
  -22.7552  -20.2264   18.5914 C   0  0  0  0  0  0  0  0  0  0  0  0
  -24.9979  -19.2077   18.5516 C   0  0  0  0  0  0  0  0  0  0  0  0
  -21.8166  -25.3943   20.0884 C   0  0  1  0  0  0  0  0  0  0  0  0
  -24.7782  -26.3034   22.2874 C   0  0  1  0  0  0  0  0  0  0  0  0
  -24.8563  -18.7382   20.0087 C   0  0  2  0  0  0  0  0  0  0  0  0
  -26.2696  -26.3651   16.4809 C   0  0  0  0  0  0  0  0  0  0  0  0
  -27.0851  -33.3059   24.6637 C   0  0  0  0  0  0  0  0  0  0  0  0
  -32.6727  -22.8207   15.2807 C   0  0  0  0  0  0  0  0  0  0  0  0
  -33.3326  -25.2079   15.0532 C   0  0  0  0  0  0  0  0  0  0  0  0
  -23.7069  -30.1328   19.9318 C   0  0  0  0  0  0  0  0  0  0  0  0
  -24.7717  -32.2419   20.7601 C   0  0  0  0  0  0  0  0  0  0  0  0
  -22.9005  -31.2045   22.0426 C   0  0  0  0  0  0  0  0  0  0  0  0
  -28.5218  -29.9528   25.7448 C   0  0  0  0  0  0  0  0  0  0  0  0
  -33.0801  -25.4946   18.1532 C   0  0  0  0  0  0  0  0  0  0  0  0
  -32.9554  -25.2740   19.6586 C   0  0  0  0  0  0  0  0  0  0  0  0
  -31.0460  -24.6450   15.9339 C   0  0  0  0  0  0  0  0  0  0  0  0
  -31.6450  -24.5998   20.0475 C   0  0  0  0  0  0  0  0  0  1  0  0
  -25.1745  -30.0995   22.0558 C   0  0  1  0  0  0  0  0  0  0  0  0
  -27.0943  -31.7965   24.8494 C   0  0  2  0  0  0  0  0  0  0  0  0
  -32.5290  -24.2190   15.9155 C   0  0  0  0  0  0  0  0  0  0  0  0
  -24.1537  -30.8958   21.1948 C   0  0  0  0  0  0  0  0  0  0  0  0
  -25.1192  -16.2901   20.1464 N   0  0  0  0  0  0  0  0  0  0  0  0
  -26.1524  -24.0358   17.1058 N   0  0  0  0  0  0  0  0  0  0  0  0
  -28.2829  -25.0365   16.5891 N   0  0  0  0  0  0  0  0  0  0  0  0
  -25.6864  -17.4999   20.2907 N   0  0  0  0  0  0  0  0  0  0  0  0
  -25.3552  -27.6315   22.0696 N   0  0  0  0  0  0  0  0  0  0  0  0
  -24.1843  -20.4138   18.3320 N   0  0  0  0  0  0  0  0  0  0  0  0
  -27.7109  -18.5785   20.8812 N   0  0  0  0  0  0  0  0  0  0  0  0
  -28.7094  -14.1930   21.2890 N   0  0  0  0  0  0  0  0  0  0  0  0
  -26.0361  -21.7413   17.7230 N   0  0  0  0  0  0  0  0  0  0  0  0
  -30.2343  -23.7255   16.6996 N   0  0  0  0  0  0  0  0  0  0  0  0
  -22.6979  -25.7574   21.1773 N   0  0  0  0  0  0  0  0  0  0  0  0
  -25.5946  -30.7866   23.2723 N   0  0  0  0  0  0  0  0  0  0  0  0
  -28.3864  -31.4088   25.4828 N   0  3  0  0  0  0  0  0  0  0  0  0
  -29.5386  -16.3197   21.5087 O   0  0  0  0  0  0  0  0  0  0  0  0
  -24.6966  -25.7952   19.9830 O   0  0  0  0  0  0  0  0  0  0  0  0
  -33.5904  -23.1687   17.8294 O   0  0  0  0  0  0  0  0  0  0  0  0
  -23.6195  -28.7128   23.1896 O   0  0  0  0  0  0  0  0  0  0  0  0
  -27.8619  -30.8007   22.7862 O   0  0  0  0  0  0  0  0  0  0  0  0
  -23.8936  -22.6307   17.7448 O   0  0  0  0  0  0  0  0  0  0  0  0
  -25.2562   -9.9266   20.3357 O   0  0  0  0  0  0  0  0  0  0  0  0
  -30.5610  -25.4180   19.6093 O   0  0  0  0  0  0  0  0  0  1  0  0
  -20.6033   -7.9902   22.5729 F   0  0  0  0  0  0  0  0  0  0  0  0
  -22.7861  -10.7242   19.3844 F   0  0  0  0  0  0  0  0  0  0  0  0
  1  2  1  0  0  0  0
  1  5  2  0  0  0  0
  2  6  2  0  0  0  0
  3  8  2  0  0  0  0
  3 16  1  0  0  0  0
  4  9  1  0  0  0  0
  4 16  2  0  0  0  0
  5 18  1  0  0  0  0
  6 20  1  0  0  0  0
  7 10  2  0  0  0  0
  7 19  1  0  0  0  0
  8 22  1  0  0  0  0
  9 22  2  0  0  0  0
 10 23  1  0  0  0  0
 11 12  2  0  0  0  0
 11 24  1  0  0  0  0
 12 25  1  0  0  0  0
 13 21  1  0  0  0  0
 13 23  2  0  0  0  0
 14 25  2  0  0  0  0
 14 26  1  0  0  0  0
 15 28  2  0  0  0  0
 15 29  1  0  0  0  0
 16 27  1  0  0  0  0
 17 27  1  0  0  0  0
 17 30  2  0  0  0  0
 17 32  1  0  0  0  0
 18 20  2  0  0  0  0
 18 38  1  0  0  0  0
 19 21  2  0  0  0  0
 19 39  1  0  0  0  0
 20 47  1  0  0  0  0
 21 40  1  0  0  0  0
 22 85  1  0  0  0  0
 23 86  1  0  0  0  0
 24 26  2  0  0  0  0
 24 85  1  0  0  0  0
 25 87  1  0  0  0  0
 26 88  1  0  0  0  0
 27 66  2  0  0  0  0
 28 67  1  0  0  0  0
 28 74  1  0  0  0  0
 29 68  2  0  0  0  0
 29 75  1  0  0  0  0
 30 69  1  0  0  0  0
 30 72  1  0  0  0  0
 31 50  1  0  0  0  0
 31 67  2  0  0  0  0
 31 68  1  0  0  0  0
 32 73  1  0  0  0  0
 32 79  2  0  0  0  0
 33 48  1  0  0  0  0
 33 76  1  0  0  0  0
 33 80  2  0  0  0  0
 34 58  1  0  0  0  0
 34 64  1  0  0  0  0
 34 81  2  0  0  0  0
 35 62  1  0  0  0  0
 35 70  1  0  0  0  0
 35 82  2  0  0  0  0
 36 63  1  0  0  0  0
 36 77  1  0  0  0  0
 36 83  2  0  0  0  0
 37 71  1  0  0  0  0
 37 74  1  0  0  0  0
 37 84  2  0  0  0  0
 38 41  1  0  0  0  0
 39 48  1  0  0  0  0
 40 70  1  0  0  0  0
 41 43  1  0  0  0  0
 42 44  1  0  0  0  0
 42 45  1  0  0  0  0
 43 47  1  0  0  0  0
 44 49  1  0  0  0  0
 45 71  1  0  0  0  0
 46 49  1  0  0  0  0
 46 71  1  0  0  0  0
 47 76  1  0  0  0  0
 48 70  1  0  0  0  0
 49 69  1  0  0  0  0
 51 63  1  0  0  0  0
 52 64  1  0  0  0  0
 53 64  1  0  0  0  0
 54 65  1  0  0  0  0
 55 65  1  0  0  0  0
 56 65  1  0  0  0  0
 57 78  1  0  0  0  0
 58 59  1  0  0  0  0
 59 61  1  0  0  0  0
 60 64  1  0  0  0  0
 60 75  1  0  0  0  0
 61 86  1  0  0  0  0
 62 65  1  0  0  0  0
 62 77  1  0  0  0  0
 63 78  1  0  0  0  0
 66 69  1  0  0  0  0
M  CHG  1  78   1
M  ISO  4  37 100  61 101  74 100  86 101
M  END
> <Batch ID>
0168

> <Smiles>
CNC(C)C(=O)NC(C(=O)N1Cc2cc([101O:1][101CH2:1]CCC(=O)C(C)(C)CNc3cc([100NH:0][100C:0](=O)N4CCCC(n5nc(-c6ccc(Oc7ccc(F)cc7F)cc6)c(C(N)=O)c5N)C4)nc(C)n3)ccc2CC1C(=O)NC1CCCc2ccccc21)C(C)(C)C

> <Shape>
0.217

> <Color>
0.068

> <Negative vol penalty>
0.000

$$$$

  -OEChem-04052304143D

 85 93  0     1  0  0  0  0  0999 V2000
  -28.1837  -24.7907   16.9299 C   0  0  0  0  0  0  0  0  0  0  0  0
  -27.0623  -24.9090   17.7446 C   0  0  0  0  0  0  0  0  0  0  0  0
  -26.7889  -12.6066   20.1851 C   0  0  0  0  0  0  0  0  0  0  0  0
  -24.5053  -13.3596   20.4201 C   0  0  0  0  0  0  0  0  0  0  0  0
  -29.3650  -25.4474   17.2722 C   0  0  0  0  0  0  0  0  0  0  0  0
  -27.1218  -25.6833   18.9027 C   0  0  0  0  0  0  0  0  0  0  0  0
  -23.0644  -28.6621   19.4586 C   0  0  0  0  0  0  0  0  0  0  0  0
  -26.4606  -11.4112   20.8244 C   0  0  0  0  0  0  0  0  0  0  0  0
  -24.1769  -12.1641   21.0593 C   0  0  0  0  0  0  0  0  0  0  0  0
  -21.8951  -28.0645   19.9269 C   0  0  0  0  0  0  0  0  0  0  0  0
  -23.5051   -8.9721   20.1761 C   0  0  0  0  0  0  0  0  0  0  0  0
  -22.3296   -8.3313   19.7846 C   0  0  0  0  0  0  0  0  0  0  0  0
  -22.3573  -28.9076   22.1393 C   0  0  0  0  0  0  0  0  0  0  0  0
  -24.3461  -23.0691   22.1052 C   0  0  0  0  0  0  0  0  0  0  0  0
  -21.4768   -8.5197   22.0372 C   0  0  0  0  0  0  0  0  0  0  0  0
  -22.7184  -21.4208   21.5665 C   0  0  0  0  0  0  0  0  0  0  0  0
  -25.8113  -13.5809   19.9830 C   0  0  0  0  0  0  0  0  0  0  0  0
  -26.0964  -15.0850   17.9424 C   0  0  0  0  0  0  0  0  0  0  0  0
  -29.4361  -26.2380   18.4301 C   0  0  0  0  0  0  0  0  0  0  0  0
  -23.8960  -29.3790   20.3310 C   0  0  0  0  0  0  0  0  0  0  0  0
  -28.3055  -26.3501   19.2616 C   0  0  0  0  0  0  0  0  0  0  0  0
  -23.5353  -29.5156   21.6791 C   0  0  0  0  0  0  0  0  0  0  0  0
  -23.3129  -23.9722   22.3299 C   0  0  0  0  0  0  0  0  0  0  0  0
  -24.0517  -21.7672   21.7160 C   0  0  0  0  0  0  0  0  0  0  0  0
  -25.1546  -11.1899   21.2614 C   0  0  0  0  0  0  0  0  0  0  0  0
  -21.5429  -28.1847   21.2681 C   0  0  0  0  0  0  0  0  0  0  0  0
  -23.6665   -9.3866   21.4981 C   0  0  0  0  0  0  0  0  0  0  0  0
  -21.3155   -8.1051   20.7152 C   0  0  0  0  0  0  0  0  0  0  0  0
  -22.6523   -9.1605   22.4287 C   0  0  0  0  0  0  0  0  0  0  0  0
  -26.1501  -14.8162   19.3232 C   0  0  0  0  0  0  0  0  0  0  0  0
  -22.0128  -23.5271   22.1528 C   0  0  0  0  0  0  0  0  0  0  0  0
  -26.5138  -16.3887   17.8299 C   0  0  0  0  0  0  0  0  0  0  0  0
  -25.7043  -14.2324   16.8584 C   0  0  0  0  0  0  0  0  0  0  0  0
  -18.7714  -25.3795   22.6197 C   0  0  0  0  0  0  0  0  0  0  0  0
  -19.6043  -24.1821   22.2634 C   0  0  0  0  0  0  0  0  0  0  0  0
  -26.8979  -29.0699   21.3291 C   0  0  0  0  0  0  0  0  0  0  0  0
  -26.3060  -31.9221   22.7563 C   0  0  0  0  0  0  0  0  0  0  0  0
  -24.0100  -34.1096   24.0173 C   0  0  0  0  0  0  0  0  0  0  0  0
  -26.4579  -21.0319   21.5905 C   0  0  0  0  0  0  0  0  0  0  0  0
  -30.7490  -26.8906   18.7839 C   0  0  0  0  0  0  0  0  0  0  0  0
  -25.1401  -30.0403   19.8045 C   0  0  0  0  0  0  0  0  0  0  0  0
  -24.3834  -30.2917   22.6521 C   0  0  0  0  0  0  0  0  0  0  0  0
  -30.6179  -27.9946   19.8300 C   0  0  0  0  0  0  0  0  0  0  0  0
  -29.3083  -19.6254   19.9861 C   0  0  0  0  0  0  0  0  0  0  0  0
  -29.7431  -27.5298   20.9900 C   0  0  0  0  0  0  0  0  0  0  0  0
  -28.8152  -18.2594   19.5031 C   0  0  0  0  0  0  0  0  0  0  0  0
  -28.7046  -20.0005   21.3384 C   0  0  0  0  0  0  0  0  0  0  0  0
  -26.7462  -18.5651   20.9218 C   0  0  0  0  0  0  0  0  0  0  0  0
  -28.3233  -27.2010   20.5129 C   0  0  1  0  0  0  0  0  0  0  0  0
  -26.1769  -30.3128   20.8900 C   0  0  1  0  0  0  0  0  0  0  0  0
  -27.2766  -18.1728   19.5331 C   0  0  2  0  0  0  0  0  0  0  0  0
  -23.6321  -25.3680   22.7456 C   0  0  0  0  0  0  0  0  0  0  0  0
  -23.8308  -36.3408   25.1518 C   0  0  0  0  0  0  0  0  0  0  0  0
  -27.2317  -30.6615   25.3762 C   0  0  0  0  0  0  0  0  0  0  0  0
  -26.1550  -32.5666   26.5925 C   0  0  0  0  0  0  0  0  0  0  0  0
  -28.0297  -33.0025   25.0057 C   0  0  0  0  0  0  0  0  0  0  0  0
  -22.4098  -35.2393   21.7987 C   0  0  0  0  0  0  0  0  0  0  0  0
  -18.3941  -26.2987   21.4788 C   0  0  0  0  0  0  0  0  0  0  0  0
  -19.6136  -26.8820   20.7813 C   0  0  0  0  0  0  0  0  0  1  0  0
  -25.7615  -32.3544   24.0963 C   0  0  1  0  0  0  0  0  0  0  0  0
  -23.8291  -35.6040   23.8214 C   0  0  2  0  0  0  0  0  0  0  0  0
  -26.7793  -32.1299   25.2500 C   0  0  0  0  0  0  0  0  0  0  0  0
  -21.6877  -22.2702   21.7756 N   0  0  0  0  0  0  0  0  0  0  0  0
  -26.5687  -15.8649   20.0368 N   0  0  0  0  0  0  0  0  0  0  0  0
  -26.7820  -16.8052   19.1006 N   0  0  0  0  0  0  0  0  0  0  0  0
  -25.5934  -30.9147   22.0906 N   0  0  0  0  0  0  0  0  0  0  0  0
  -27.2443  -19.8996   21.2903 N   0  0  0  0  0  0  0  0  0  0  0  0
  -26.6740  -17.2079   16.7689 N   0  0  0  0  0  0  0  0  0  0  0  0
  -25.3030  -12.9218   17.1507 N   0  0  0  0  0  0  0  0  0  0  0  0
  -25.0833  -20.8250   21.4800 N   0  0  0  0  0  0  0  0  0  0  0  0
  -20.9538  -24.4368   22.3790 N   0  0  0  0  0  0  0  0  0  0  0  0
  -27.5642  -28.4162   20.3101 N   0  0  0  0  0  0  0  0  0  0  0  0
  -25.3361  -33.7407   23.9360 N   0  0  0  0  0  0  0  0  0  0  0  0
  -22.5382  -35.8834   23.1312 N   0  3  0  0  0  0  0  0  0  0  0  0
  -25.7252  -14.6162   15.6643 O   0  0  0  0  0  0  0  0  0  0  0  0
  -18.4554  -25.5124   23.7924 O   0  0  0  0  0  0  0  0  0  0  0  0
  -18.9998  -23.1686   21.9548 O   0  0  0  0  0  0  0  0  0  0  0  0
  -26.8544  -28.7299   22.5056 O   0  0  0  0  0  0  0  0  0  0  0  0
  -27.3220  -32.4634   22.3132 O   0  0  0  0  0  0  0  0  0  0  0  0
  -23.0695  -33.3464   24.2255 O   0  0  0  0  0  0  0  0  0  0  0  0
  -26.9672  -22.1135   21.8949 O   0  0  0  0  0  0  0  0  0  0  0  0
  -24.8337  -10.0234   21.8850 O   0  0  0  0  0  0  0  0  0  0  0  0
  -20.4024  -27.6018   21.7279 O   0  0  0  0  0  0  0  0  0  1  0  0
  -20.1861   -7.4911   20.3388 F   0  0  0  0  0  0  0  0  0  0  0  0
  -22.8010   -9.5575   23.6999 F   0  0  0  0  0  0  0  0  0  0  0  0
  1  2  1  0  0  0  0
  1  5  2  0  0  0  0
  2  6  2  0  0  0  0
  3  8  2  0  0  0  0
  3 17  1  0  0  0  0
  4  9  1  0  0  0  0
  4 17  2  0  0  0  0
  5 19  1  0  0  0  0
  6 21  1  0  0  0  0
  7 10  2  0  0  0  0
  7 20  1  0  0  0  0
  8 25  1  0  0  0  0
  9 25  2  0  0  0  0
 10 26  1  0  0  0  0
 11 12  2  0  0  0  0
 11 27  1  0  0  0  0
 12 28  1  0  0  0  0
 13 22  1  0  0  0  0
 13 26  2  0  0  0  0
 14 23  1  0  0  0  0
 14 24  2  0  0  0  0
 15 28  2  0  0  0  0
 15 29  1  0  0  0  0
 16 24  1  0  0  0  0
 16 63  2  0  0  0  0
 17 30  1  0  0  0  0
 18 30  1  0  0  0  0
 18 32  2  0  0  0  0
 18 33  1  0  0  0  0
 19 21  2  0  0  0  0
 19 40  1  0  0  0  0
 20 22  2  0  0  0  0
 20 41  1  0  0  0  0
 21 49  1  0  0  0  0
 22 42  1  0  0  0  0
 23 31  2  0  0  0  0
 23 52  1  0  0  0  0
 24 70  1  0  0  0  0
 25 82  1  0  0  0  0
 26 83  1  0  0  0  0
 27 29  2  0  0  0  0
 27 82  1  0  0  0  0
 28 84  1  0  0  0  0
 29 85  1  0  0  0  0
 30 64  2  0  0  0  0
 31 63  1  0  0  0  0
 31 71  1  0  0  0  0
 32 65  1  0  0  0  0
 32 68  1  0  0  0  0
 33 69  1  0  0  0  0
 33 75  2  0  0  0  0
 34 35  1  0  0  0  0
 34 58  1  0  0  0  0
 34 76  2  0  0  0  0
 35 71  1  0  0  0  0
 35 77  2  0  0  0  0
 36 50  1  0  0  0  0
 36 72  1  0  0  0  0
 36 78  2  0  0  0  0
 37 60  1  0  0  0  0
 37 66  1  0  0  0  0
 37 79  2  0  0  0  0
 38 61  1  0  0  0  0
 38 73  1  0  0  0  0
 38 80  2  0  0  0  0
 39 67  1  0  0  0  0
 39 70  1  0  0  0  0
 39 81  2  0  0  0  0
 40 43  1  0  0  0  0
 41 50  1  0  0  0  0
 42 66  1  0  0  0  0
 43 45  1  0  0  0  0
 44 46  1  0  0  0  0
 44 47  1  0  0  0  0
 45 49  1  0  0  0  0
 46 51  1  0  0  0  0
 47 67  1  0  0  0  0
 48 51  1  0  0  0  0
 48 67  1  0  0  0  0
 49 72  1  0  0  0  0
 50 66  1  0  0  0  0
 51 65  1  0  0  0  0
 53 61  1  0  0  0  0
 54 62  1  0  0  0  0
 55 62  1  0  0  0  0
 56 62  1  0  0  0  0
 57 74  1  0  0  0  0
 58 59  1  0  0  0  0
 59 83  1  0  0  0  0
 60 62  1  0  0  0  0
 60 73  1  0  0  0  0
 61 74  1  0  0  0  0
 64 65  1  0  0  0  0
M  CHG  1  74   1
M  ISO  4  39 100  59 101  70 100  83 101
M  END
> <Batch ID>
0168

> <Smiles>
CNC(C)C(=O)NC(C(=O)N1Cc2cc([101O:1][101CH2:1]CC(=O)C(=O)Nc3ncc([100NH:0][100C:0](=O)N4CCCC(n5nc(-c6ccc(Oc7ccc(F)cc7F)cc6)c(C(N)=O)c5N)C4)cc3C)ccc2CC1C(=O)NC1CCCc2ccccc21)C(C)(C)C

> <Shape>
0.308

> <Color>
0.074

> <Negative vol penalty>
0.000

$$$$

  -OEChem-04052304143D

 88 96  0     1  0  0  0  0  0999 V2000
  -23.2353  -35.0762   26.0531 C   0  0  0  0  0  0  0  0  0  0  0  0
  -24.2784  -34.3899   25.4397 C   0  0  0  0  0  0  0  0  0  0  0  0
  -24.3306   -8.3997   21.4398 C   0  0  0  0  0  0  0  0  0  0  0  0
  -23.7558  -10.0737   23.0843 C   0  0  0  0  0  0  0  0  0  0  0  0
  -22.0259  -34.4281   26.3001 C   0  0  0  0  0  0  0  0  0  0  0  0
  -24.1130  -33.0545   25.0738 C   0  0  0  0  0  0  0  0  0  0  0  0
  -26.5050  -30.2546   20.1805 C   0  0  0  0  0  0  0  0  0  0  0  0
  -23.9997   -7.3940   22.3479 C   0  0  0  0  0  0  0  0  0  0  0  0
  -23.4249   -9.0680   23.9924 C   0  0  0  0  0  0  0  0  0  0  0  0
  -27.6266  -29.4424   20.0196 C   0  0  0  0  0  0  0  0  0  0  0  0
  -21.1904   -5.9232   23.5214 C   0  0  0  0  0  0  0  0  0  0  0  0
  -20.4201   -4.8575   23.0562 C   0  0  0  0  0  0  0  0  0  0  0  0
  -26.2603  -21.0121   19.3085 C   0  0  0  0  0  0  0  0  0  0  0  0
  -26.2322  -27.4853   20.2311 C   0  0  0  0  0  0  0  0  0  0  0  0
  -27.8543  -19.2054   19.4884 C   0  0  0  0  0  0  0  0  0  0  0  0
  -22.1896   -3.3214   23.6447 C   0  0  0  0  0  0  0  0  0  0  0  0
  -24.2087   -9.7396   21.8080 C   0  0  0  0  0  0  0  0  0  0  0  0
  -25.2486  -20.0921   19.0334 C   0  0  0  0  0  0  0  0  0  0  0  0
  -23.6960  -11.3998   19.9402 C   0  0  0  0  0  0  0  0  0  0  0  0
  -21.8422  -33.0869   25.9283 C   0  0  0  0  0  0  0  0  0  0  0  0
  -25.2380  -29.6875   20.3791 C   0  0  0  0  0  0  0  0  0  0  0  0
  -22.9004  -32.3874   25.3172 C   0  0  0  0  0  0  0  0  0  0  0  0
  -25.0957  -28.2926   20.3916 C   0  0  0  0  0  0  0  0  0  0  0  0
  -27.5632  -20.5687   19.5359 C   0  0  0  0  0  0  0  0  0  0  0  0
  -26.8425  -18.2854   19.2133 C   0  0  0  0  0  0  0  0  0  0  0  0
  -23.5469   -7.7281   23.6242 C   0  0  0  0  0  0  0  0  0  0  0  0
  -27.4908  -28.0575   20.0478 C   0  0  0  0  0  0  0  0  0  0  0  0
  -22.4604   -5.6880   24.0482 C   0  0  0  0  0  0  0  0  0  0  0  0
  -20.9196   -3.5566   23.1178 C   0  0  0  0  0  0  0  0  0  0  0  0
  -22.9600   -4.3872   24.1099 C   0  0  0  0  0  0  0  0  0  0  0  0
  -25.5397  -18.7288   18.9859 C   0  0  0  0  0  0  0  0  0  0  0  0
  -24.5509  -10.7790   20.8706 C   0  0  0  0  0  0  0  0  0  0  0  0
  -24.4955  -12.3105   19.2938 C   0  0  0  0  0  0  0  0  0  0  0  0
  -23.8912  -20.5585   18.7972 C   0  0  0  0  0  0  0  0  0  0  0  0
  -22.3037  -11.1734   19.6833 C   0  0  0  0  0  0  0  0  0  0  0  0
  -29.6764  -23.6182   19.6973 C   0  0  0  0  0  0  0  0  0  0  0  0
  -29.6824  -25.1341   19.7277 C   0  0  0  0  0  0  0  0  0  0  0  0
  -23.0847  -29.7699   22.7158 C   0  0  0  0  0  0  0  0  0  0  0  0
  -21.2795  -28.1233   20.5822 C   0  0  0  0  0  0  0  0  0  0  0  0
  -21.1650  -26.0839   17.8482 C   0  0  0  0  0  0  0  0  0  0  0  0
  -28.3818  -16.2972   19.3677 C   0  0  0  0  0  0  0  0  0  0  0  0
  -20.5331  -32.4148   26.2585 C   0  0  0  0  0  0  0  0  0  0  0  0
  -24.0341  -30.5773   20.5242 C   0  0  0  0  0  0  0  0  0  0  0  0
  -23.7546  -27.6339   20.5814 C   0  0  0  0  0  0  0  0  0  0  0  0
  -20.3109  -31.1083   25.5008 C   0  0  0  0  0  0  0  0  0  0  0  0
  -29.5195  -12.9233   19.3718 C   0  0  0  0  0  0  0  0  0  0  0  0
  -21.5648  -30.2412   25.5530 C   0  0  0  0  0  0  0  0  0  0  0  0
  -28.2579  -12.1157   19.6856 C   0  0  0  0  0  0  0  0  0  0  0  0
  -29.5521  -14.2447   20.1377 C   0  0  0  0  0  0  0  0  0  0  0  0
  -27.0938  -14.2740   20.2969 C   0  0  0  0  0  0  0  0  0  0  0  0
  -22.7509  -30.9454   24.8831 C   0  0  1  0  0  0  0  0  0  0  0  0
  -22.8688  -29.8949   21.2341 C   0  0  1  0  0  0  0  0  0  0  0  0
  -26.9847  -12.9642   19.4992 C   0  0  2  0  0  0  0  0  0  0  0  0
  -23.4608  -21.8185   19.4901 C   0  0  0  0  0  0  0  0  0  0  0  0
  -19.5471  -24.8743   16.3593 C   0  0  0  0  0  0  0  0  0  0  0  0
  -20.8645  -26.0158   22.7493 C   0  0  0  0  0  0  0  0  0  0  0  0
  -20.0826  -24.4391   20.9686 C   0  0  0  0  0  0  0  0  0  0  0  0
  -18.8228  -26.5472   21.4063 C   0  0  0  0  0  0  0  0  0  0  0  0
  -22.0546  -27.5916   15.4619 C   0  0  0  0  0  0  0  0  0  0  0  0
  -28.3591  -22.9088   19.8769 C   0  0  0  0  0  0  0  0  0  0  0  0
  -28.3722  -25.8517   19.9312 C   0  0  0  0  0  0  0  0  0  1  0  0
  -21.0726  -26.6633   20.2586 C   0  0  1  0  0  0  0  0  0  0  0  0
  -20.3426  -26.1526   16.5741 C   0  0  2  0  0  0  0  0  0  0  0  0
  -20.2363  -25.9285   21.3440 C   0  0  0  0  0  0  0  0  0  0  0  0
  -25.7979  -11.2550   20.8226 N   0  0  0  0  0  0  0  0  0  0  0  0
  -25.7325  -12.1845   19.8542 N   0  0  0  0  0  0  0  0  0  0  0  0
  -22.6084  -28.5467   20.7253 N   0  0  0  0  0  0  0  0  0  0  0  0
  -28.3159  -14.9964   19.9102 N   0  0  0  0  0  0  0  0  0  0  0  0
  -24.2540  -13.1987   18.3063 N   0  0  0  0  0  0  0  0  0  0  0  0
  -21.6345  -10.2007   20.4384 N   0  0  0  0  0  0  0  0  0  0  0  0
  -27.1413  -16.9011   19.1655 N   0  0  0  0  0  0  0  0  0  0  0  0
  -28.5688  -21.4836   19.8087 N   0  0  0  0  0  0  0  0  0  0  0  0
  -22.6423  -30.8587   23.4426 N   0  0  0  0  0  0  0  0  0  0  0  0
  -20.4876  -26.6202   18.9228 N   0  0  0  0  0  0  0  0  0  0  0  0
  -21.2305  -26.3573   15.3948 N   0  3  0  0  0  0  0  0  0  0  0  0
  -23.0664  -19.9949   18.0750 O   0  0  0  0  0  0  0  0  0  0  0  0
  -21.6758  -11.8033   18.7987 O   0  0  0  0  0  0  0  0  0  0  0  0
  -30.7535  -23.0605   19.5282 O   0  0  0  0  0  0  0  0  0  0  0  0
  -30.7599  -25.6969   19.5816 O   0  0  0  0  0  0  0  0  0  0  0  0
  -23.6122  -28.7597   23.1664 O   0  0  0  0  0  0  0  0  0  0  0  0
  -20.2985  -28.8623   20.6965 O   0  0  0  0  0  0  0  0  0  0  0  0
  -22.2938  -25.5994   17.8871 O   0  0  0  0  0  0  0  0  0  0  0  0
  -29.4582  -16.8252   19.0768 O   0  0  0  0  0  0  0  0  0  0  0  0
  -23.2237   -6.7470   24.5104 O   0  0  0  0  0  0  0  0  0  0  0  0
  -28.5841  -27.2623   19.8917 O   0  0  0  0  0  0  0  0  0  1  0  0
  -20.1791   -2.5332   22.6724 F   0  0  0  0  0  0  0  0  0  0  0  0
  -24.1789   -4.1549   24.6161 F   0  0  0  0  0  0  0  0  0  0  0  0
  -24.5662  -17.8440   18.7212 F   0  0  0  0  0  0  0  0  0  0  0  0
  1  2  1  0  0  0  0
  1  5  2  0  0  0  0
  2  6  2  0  0  0  0
  3  8  2  0  0  0  0
  3 17  1  0  0  0  0
  4  9  1  0  0  0  0
  4 17  2  0  0  0  0
  5 20  1  0  0  0  0
  6 22  1  0  0  0  0
  7 10  2  0  0  0  0
  7 21  1  0  0  0  0
  8 26  1  0  0  0  0
  9 26  2  0  0  0  0
 10 27  1  0  0  0  0
 11 12  2  0  0  0  0
 11 28  1  0  0  0  0
 12 29  1  0  0  0  0
 13 18  1  0  0  0  0
 13 24  2  0  0  0  0
 14 23  1  0  0  0  0
 14 27  2  0  0  0  0
 15 24  1  0  0  0  0
 15 25  2  0  0  0  0
 16 29  2  0  0  0  0
 16 30  1  0  0  0  0
 17 32  1  0  0  0  0
 18 31  2  0  0  0  0
 18 34  1  0  0  0  0
 19 32  1  0  0  0  0
 19 33  2  0  0  0  0
 19 35  1  0  0  0  0
 20 22  2  0  0  0  0
 20 42  1  0  0  0  0
 21 23  2  0  0  0  0
 21 43  1  0  0  0  0
 22 51  1  0  0  0  0
 23 44  1  0  0  0  0
 24 72  1  0  0  0  0
 25 31  1  0  0  0  0
 25 71  1  0  0  0  0
 26 84  1  0  0  0  0
 27 85  1  0  0  0  0
 28 30  2  0  0  0  0
 28 84  1  0  0  0  0
 29 86  1  0  0  0  0
 30 87  1  0  0  0  0
 31 88  1  0  0  0  0
 32 65  2  0  0  0  0
 33 66  1  0  0  0  0
 33 69  1  0  0  0  0
 34 54  1  0  0  0  0
 34 76  2  0  0  0  0
 35 70  1  0  0  0  0
 35 77  2  0  0  0  0
 36 37  1  0  0  0  0
 36 60  1  0  0  0  0
 36 78  2  0  0  0  0
 37 61  1  0  0  0  0
 37 79  2  0  0  0  0
 38 52  1  0  0  0  0
 38 73  1  0  0  0  0
 38 80  2  0  0  0  0
 39 62  1  0  0  0  0
 39 67  1  0  0  0  0
 39 81  2  0  0  0  0
 40 63  1  0  0  0  0
 40 74  1  0  0  0  0
 40 82  2  0  0  0  0
 41 68  1  0  0  0  0
 41 71  1  0  0  0  0
 41 83  2  0  0  0  0
 42 45  1  0  0  0  0
 43 52  1  0  0  0  0
 44 67  1  0  0  0  0
 45 47  1  0  0  0  0
 46 48  1  0  0  0  0
 46 49  1  0  0  0  0
 47 51  1  0  0  0  0
 48 53  1  0  0  0  0
 49 68  1  0  0  0  0
 50 53  1  0  0  0  0
 50 68  1  0  0  0  0
 51 73  1  0  0  0  0
 52 67  1  0  0  0  0
 53 66  1  0  0  0  0
 55 63  1  0  0  0  0
 56 64  1  0  0  0  0
 57 64  1  0  0  0  0
 58 64  1  0  0  0  0
 59 75  1  0  0  0  0
 60 72  1  0  0  0  0
 61 85  1  0  0  0  0
 62 64  1  0  0  0  0
 62 74  1  0  0  0  0
 63 75  1  0  0  0  0
 65 66  1  0  0  0  0
M  CHG  1  75   1
M  ISO  4  41 100  61 101  71 100  85 101
M  END
> <Batch ID>
0168

> <Smiles>
CNC(C)C(=O)NC(C(=O)N1Cc2cc([101O:1][101CH2:1]C(=O)C(=O)CNc3cc([100NH:0][100C:0](=O)N4CCCC(n5nc(-c6ccc(Oc7ccc(F)cc7F)cc6)c(C(N)=O)c5N)C4)c(F)c(C(C)=O)c3)ccc2CC1C(=O)NC1CCCc2ccccc21)C(C)(C)C

> <Shape>
0.283

> <Color>
0.104

> <Negative vol penalty>
0.000

$$$$

  -OEChem-04052304143D

 88 96  0     1  0  0  0  0  0999 V2000
  -22.3604  -34.4361   15.6260 C   0  0  0  0  0  0  0  0  0  0  0  0
  -22.6830  -33.0910   15.7746 C   0  0  0  0  0  0  0  0  0  0  0  0
  -23.3523   -9.5846   21.1399 C   0  0  0  0  0  0  0  0  0  0  0  0
  -23.9123  -10.5205   23.2958 C   0  0  0  0  0  0  0  0  0  0  0  0
  -22.8758  -35.3778   16.5157 C   0  0  0  0  0  0  0  0  0  0  0  0
  -23.5222  -32.6869   16.8124 C   0  0  0  0  0  0  0  0  0  0  0  0
  -23.2156  -27.4466   19.9668 C   0  0  0  0  0  0  0  0  0  0  0  0
  -22.6745   -8.5405   21.7692 C   0  0  0  0  0  0  0  0  0  0  0  0
  -23.2345   -9.4764   23.9251 C   0  0  0  0  0  0  0  0  0  0  0  0
  -23.9128  -26.2441   19.8580 C   0  0  0  0  0  0  0  0  0  0  0  0
  -19.6785   -8.0562   23.2598 C   0  0  0  0  0  0  0  0  0  0  0  0
  -18.4242   -7.7041   22.7614 C   0  0  0  0  0  0  0  0  0  0  0  0
  -25.4362  -26.9787   21.5781 C   0  0  0  0  0  0  0  0  0  0  0  0
  -31.3181  -18.1928   20.3125 C   0  0  0  0  0  0  0  0  0  0  0  0
  -19.2320   -5.4735   22.3043 C   0  0  0  0  0  0  0  0  0  0  0  0
  -23.9713  -10.5746   21.9032 C   0  0  0  0  0  0  0  0  0  0  0  0
  -24.1401  -12.8936   20.8536 C   0  0  0  0  0  0  0  0  0  0  0  0
  -23.7140  -34.9839   17.5706 C   0  0  0  0  0  0  0  0  0  0  0  0
  -23.6307  -28.4302   20.8759 C   0  0  0  0  0  0  0  0  0  0  0  0
  -24.0504  -33.6244   17.7162 C   0  0  0  0  0  0  0  0  0  0  0  0
  -24.7411  -28.1917   21.6983 C   0  0  0  0  0  0  0  0  0  0  0  0
  -31.2596  -19.6095   20.4532 C   0  0  0  0  0  0  0  0  0  0  0  0
  -22.6156   -8.4864   23.1618 C   0  0  0  0  0  0  0  0  0  0  0  0
  -25.0250  -26.0112   20.6616 C   0  0  0  0  0  0  0  0  0  0  0  0
  -20.7096   -7.1170   23.2804 C   0  0  0  0  0  0  0  0  0  0  0  0
  -18.2009   -6.4127   22.2837 C   0  0  0  0  0  0  0  0  0  0  0  0
  -20.4863   -5.8256   22.8026 C   0  0  0  0  0  0  0  0  0  0  0  0
  -24.6721  -11.6531   21.2537 C   0  0  0  0  0  0  0  0  0  0  0  0
  -30.0388  -20.0320   20.9313 C   0  0  0  0  0  0  0  0  0  0  0  0
  -25.2026  -13.5572   20.2905 C   0  0  0  0  0  0  0  0  0  0  0  0
  -30.1396  -17.5865   20.6888 C   0  0  0  0  0  0  0  0  0  0  0  0
  -22.8050  -13.4006   20.9798 C   0  0  0  0  0  0  0  0  0  0  0  0
  -29.6693  -21.4391   21.1847 C   0  0  0  0  0  0  0  0  0  0  0  0
  -24.6604  -31.4269   20.6233 C   0  0  0  0  0  0  0  0  0  0  0  0
  -27.8390  -23.8015   20.0624 C   0  0  0  0  0  0  0  0  0  0  0  0
  -24.5176  -31.3371   23.8628 C   0  0  0  0  0  0  0  0  0  0  0  0
  -24.5490  -29.4609   26.7133 C   0  0  0  0  0  0  0  0  0  0  0  0
  -30.5452  -15.1250   20.3382 C   0  0  0  0  0  0  0  0  0  0  0  0
  -24.2849  -36.0440   18.4788 C   0  0  0  0  0  0  0  0  0  0  0  0
  -22.8520  -29.7111   21.0000 C   0  0  0  0  0  0  0  0  0  0  0  0
  -25.2154  -29.2071   22.7045 C   0  0  0  0  0  0  0  0  0  0  0  0
  -24.8657  -35.4866   19.7759 C   0  0  0  0  0  0  0  0  0  0  0  0
  -29.8118  -11.9056   19.0062 C   0  0  0  0  0  0  0  0  0  0  0  0
  -25.7473  -34.2753   19.4889 C   0  0  0  0  0  0  0  0  0  0  0  0
  -28.3655  -11.6549   19.4392 C   0  0  0  0  0  0  0  0  0  0  0  0
  -30.6028  -12.6545   20.0772 C   0  0  0  0  0  0  0  0  0  0  0  0
  -28.5385  -13.6500   20.9809 C   0  0  0  0  0  0  0  0  0  0  0  0
  -24.9375  -33.1440   18.8441 C   0  0  1  0  0  0  0  0  0  0  0  0
  -23.6701  -30.8523   21.5964 C   0  0  1  0  0  0  0  0  0  0  0  0
  -27.6841  -12.9556   19.9079 C   0  0  2  0  0  0  0  0  0  0  0  0
  -24.4538  -29.6724   29.2120 C   0  0  0  0  0  0  0  0  0  0  0  0
  -27.4220  -32.2717   23.8919 C   0  0  0  0  0  0  0  0  0  0  0  0
  -27.5548  -31.5580   26.2879 C   0  0  0  0  0  0  0  0  0  0  0  0
  -25.9609  -33.3530   25.6095 C   0  0  0  0  0  0  0  0  0  0  0  0
  -22.0572  -27.8716   26.8690 C   0  0  0  0  0  0  0  0  0  0  0  0
  -27.1046  -24.8723   20.8463 C   0  0  0  0  0  0  0  0  0  1  0  0
  -29.3358  -23.7130   20.2818 C   0  0  2  0  0  0  0  0  0  0  0  0
  -25.4764  -30.9568   24.9650 C   0  0  1  0  0  0  0  0  0  0  0  0
  -23.6501  -29.4721   27.9366 C   0  0  2  0  0  0  0  0  0  0  0  0
  -26.5960  -32.0163   25.1684 C   0  0  0  0  0  0  0  0  0  0  0  0
  -30.1060  -24.5044   19.2525 C   0  0  0  0  0  0  0  0  0  0  0  0
  -25.9715  -11.5333   20.9688 N   0  0  0  0  0  0  0  0  0  0  0  0
  -26.2649  -12.7069   20.3836 N   0  0  0  0  0  0  0  0  0  0  0  0
  -24.4246  -30.4464   22.7839 N   0  0  0  0  0  0  0  0  0  0  0  0
  -29.8989  -13.8776   20.4688 N   0  0  0  0  0  0  0  0  0  0  0  0
  -32.2921  -20.4318   20.1488 N   0  0  0  0  0  0  0  0  0  0  0  0
  -25.3224  -14.7793   19.7296 N   0  0  0  0  0  0  0  0  0  0  0  0
  -21.8359  -12.5878   21.5836 N   0  0  0  0  0  0  0  0  0  0  0  0
  -29.7661  -16.2198   20.7108 N   0  0  0  0  0  0  0  0  0  0  0  0
  -29.6966  -22.3039   20.1598 N   0  0  0  0  0  0  0  0  0  0  0  0
  -24.1546  -32.4496   19.8438 N   0  0  0  0  0  0  0  0  0  0  0  0
  -24.6607  -30.7145   26.1500 N   0  0  0  0  0  0  0  0  0  0  0  0
  -29.3271  -21.7850   22.4259 N   0  3  0  0  0  0  0  0  0  0  0  0
  -22.9081  -28.1844   28.0460 N   0  3  0  0  0  0  0  0  0  0  0  0
  -22.4771  -14.5343   20.5546 O   0  0  0  0  0  0  0  0  0  0  0  0
  -25.7994  -30.9767   20.5838 O   0  0  0  0  0  0  0  0  0  0  0  0
  -27.2480  -23.0559   19.2808 O   0  0  0  0  0  0  0  0  0  0  0  0
  -23.8695  -32.3823   23.9589 O   0  0  0  0  0  0  0  0  0  0  0  0
  -25.1001  -28.4426   26.3010 O   0  0  0  0  0  0  0  0  0  0  0  0
  -31.6949  -15.2175   19.9005 O   0  0  0  0  0  0  0  0  0  0  0  0
  -21.9540   -7.4678   23.7762 O   0  0  0  0  0  0  0  0  0  0  0  0
  -25.7076  -24.8386   20.5570 O   0  0  0  0  0  0  0  0  0  1  0  0
  -16.9959   -6.0743   21.8066 F   0  0  0  0  0  0  0  0  0  0  0  0
  -21.4727   -4.9186   22.8209 F   0  0  0  0  0  0  0  0  0  0  0  0
  -31.4387  -24.3601   19.4166 F   0  0  0  0  0  0  0  0  0  0  0  0
  -29.8209  -25.8225   19.3186 F   0  0  0  0  0  0  0  0  0  0  0  0
  -29.8083  -24.0817   18.0030 F   0  0  0  0  0  0  0  0  0  0  0  0
  -28.9695  -18.7236   21.2087 S   0  0  0  0  0  0  0  0  0  0  0  0
  1  2  1  0  0  0  0
  1  5  2  0  0  0  0
  2  6  2  0  0  0  0
  3  8  2  0  0  0  0
  3 16  1  0  0  0  0
  4  9  1  0  0  0  0
  4 16  2  0  0  0  0
  5 18  1  0  0  0  0
  6 20  1  0  0  0  0
  7 10  2  0  0  0  0
  7 19  1  0  0  0  0
  8 23  1  0  0  0  0
  9 23  2  0  0  0  0
 10 24  1  0  0  0  0
 11 12  2  0  0  0  0
 11 25  1  0  0  0  0
 12 26  1  0  0  0  0
 13 21  1  0  0  0  0
 13 24  2  0  0  0  0
 14 22  1  0  0  0  0
 14 31  2  0  0  0  0
 15 26  2  0  0  0  0
 15 27  1  0  0  0  0
 16 28  1  0  0  0  0
 17 28  1  0  0  0  0
 17 30  2  0  0  0  0
 17 32  1  0  0  0  0
 18 20  2  0  0  0  0
 18 39  1  0  0  0  0
 19 21  2  0  0  0  0
 19 40  1  0  0  0  0
 20 48  1  0  0  0  0
 21 41  1  0  0  0  0
 22 29  2  0  0  0  0
 22 66  1  0  0  0  0
 23 81  1  0  0  0  0
 24 82  1  0  0  0  0
 25 27  2  0  0  0  0
 25 81  1  0  0  0  0
 26 83  1  0  0  0  0
 27 84  1  0  0  0  0
 28 62  2  0  0  0  0
 29 33  1  0  0  0  0
 29 88  1  0  0  0  0
 30 63  1  0  0  0  0
 30 67  1  0  0  0  0
 31 69  1  0  0  0  0
 31 88  1  0  0  0  0
 32 68  1  0  0  0  0
 32 75  2  0  0  0  0
 33 70  1  0  0  0  0
 33 73  2  0  0  0  0
 34 49  1  0  0  0  0
 34 71  1  0  0  0  0
 34 76  2  0  0  0  0
 35 56  1  0  0  0  0
 35 57  1  0  0  0  0
 35 77  2  0  0  0  0
 36 58  1  0  0  0  0
 36 64  1  0  0  0  0
 36 78  2  0  0  0  0
 37 59  1  0  0  0  0
 37 72  1  0  0  0  0
 37 79  2  0  0  0  0
 38 65  1  0  0  0  0
 38 69  1  0  0  0  0
 38 80  2  0  0  0  0
 39 42  1  0  0  0  0
 40 49  1  0  0  0  0
 41 64  1  0  0  0  0
 42 44  1  0  0  0  0
 43 45  1  0  0  0  0
 43 46  1  0  0  0  0
 44 48  1  0  0  0  0
 45 50  1  0  0  0  0
 46 65  1  0  0  0  0
 47 50  1  0  0  0  0
 47 65  1  0  0  0  0
 48 71  1  0  0  0  0
 49 64  1  0  0  0  0
 50 63  1  0  0  0  0
 51 59  1  0  0  0  0
 52 60  1  0  0  0  0
 53 60  1  0  0  0  0
 54 60  1  0  0  0  0
 55 74  1  0  0  0  0
 56 82  1  0  0  0  0
 57 61  1  0  0  0  0
 57 70  1  0  0  0  0
 58 60  1  0  0  0  0
 58 72  1  0  0  0  0
 59 74  1  0  0  0  0
 61 85  1  0  0  0  0
 61 86  1  0  0  0  0
 61 87  1  0  0  0  0
 62 63  1  0  0  0  0
M  CHG  2  73   1  74   1
M  ISO  4  38 100  56 101  69 100  82 101
M  END
> <Batch ID>
0168

> <Smiles>
CNC(C)C(=O)NC(C(=O)N1Cc2cc([101O:1][101CH2:1]C(=O)C(NC(=N)c3sc([100NH:0][100C:0](=O)N4CCCC(n5nc(-c6ccc(Oc7ccc(F)cc7F)cc6)c(C(N)=O)c5N)C4)cc3N)C(F)(F)F)ccc2CC1C(=O)NC1CCCc2ccccc21)C(C)(C)C

> <Shape>
0.312

> <Color>
0.151

> <Negative vol penalty>
0.000

$$$$

  -OEChem-04052304143D

 85 93  0     1  0  0  0  0  0999 V2000
  -23.9203  -32.7428   23.3757 C   0  0  0  0  0  0  0  0  0  0  0  0
  -22.6629  -32.2369   23.0623 C   0  0  0  0  0  0  0  0  0  0  0  0
  -31.6479  -20.0088   18.7155 C   0  0  0  0  0  0  0  0  0  0  0  0
  -29.4940  -20.7853   19.4868 C   0  0  0  0  0  0  0  0  0  0  0  0
  -25.0590  -32.1863   22.7945 C   0  0  0  0  0  0  0  0  0  0  0  0
  -22.5432  -31.1749   22.1667 C   0  0  0  0  0  0  0  0  0  0  0  0
  -19.4078  -24.9964   24.1381 C   0  0  0  0  0  0  0  0  0  0  0  0
  -31.7382  -21.1077   17.8612 C   0  0  0  0  0  0  0  0  0  0  0  0
  -29.5843  -21.8843   18.6325 C   0  0  0  0  0  0  0  0  0  0  0  0
  -18.6338  -23.8600   24.3743 C   0  0  0  0  0  0  0  0  0  0  0  0
  -29.4105  -25.0858   16.9184 C   0  0  0  0  0  0  0  0  0  0  0  0
  -29.0645  -26.3363   17.4305 C   0  0  0  0  0  0  0  0  0  0  0  0
  -19.1876  -23.0132   22.1779 C   0  0  0  0  0  0  0  0  0  0  0  0
  -23.5464  -15.4463   21.6760 C   0  0  0  0  0  0  0  0  0  0  0  0
  -21.6184  -14.0573   22.0720 C   0  0  0  0  0  0  0  0  0  0  0  0
  -30.8006  -26.1335   19.0985 C   0  0  0  0  0  0  0  0  0  0  0  0
  -30.5258  -19.8475   19.5282 C   0  0  0  0  0  0  0  0  0  0  0  0
  -30.8794  -18.6315   21.7427 C   0  0  0  0  0  0  0  0  0  0  0  0
  -24.9540  -31.1107   21.8987 C   0  0  0  0  0  0  0  0  0  0  0  0
  -20.0878  -25.1384   22.9254 C   0  0  0  0  0  0  0  0  0  0  0  0
  -23.6815  -30.6044   21.5719 C   0  0  0  0  0  0  0  0  0  0  0  0
  -19.9744  -24.1434   21.9405 C   0  0  0  0  0  0  0  0  0  0  0  0
  -22.2274  -15.3083   22.0976 C   0  0  0  0  0  0  0  0  0  0  0  0
  -30.7064  -22.0455   17.8198 C   0  0  0  0  0  0  0  0  0  0  0  0
  -18.5238  -22.8710   23.3965 C   0  0  0  0  0  0  0  0  0  0  0  0
  -30.4514  -24.3591   17.4965 C   0  0  0  0  0  0  0  0  0  0  0  0
  -29.7596  -26.8602   18.5205 C   0  0  0  0  0  0  0  0  0  0  0  0
  -31.1465  -24.8830   18.5865 C   0  0  0  0  0  0  0  0  0  0  0  0
  -30.4317  -18.7122   20.4105 C   0  0  0  0  0  0  0  0  0  0  0  0
  -30.5591  -17.3550   22.1358 C   0  0  0  0  0  0  0  0  0  0  0  0
  -24.2285  -14.3209   21.2359 C   0  0  0  0  0  0  0  0  0  0  0  0
  -22.3492  -12.9671   21.6218 C   0  0  0  0  0  0  0  0  0  0  0  0
  -31.5269  -19.6218   22.5525 C   0  0  0  0  0  0  0  0  0  0  0  0
  -22.3766  -27.2315   20.8143 C   0  0  0  0  0  0  0  0  0  0  0  0
  -19.6455  -17.8297   23.1308 C   0  0  0  0  0  0  0  0  0  0  0  0
  -23.2282  -24.3103   20.4248 C   0  0  0  0  0  0  0  0  0  0  0  0
  -24.1166  -21.0212   20.5964 C   0  0  0  0  0  0  0  0  0  0  0  0
  -26.4127  -13.4481   20.3337 C   0  0  0  0  0  0  0  0  0  0  0  0
  -26.2097  -30.5731   21.2594 C   0  0  0  0  0  0  0  0  0  0  0  0
  -20.8833  -26.3744   22.6038 C   0  0  0  0  0  0  0  0  0  0  0  0
  -20.6957  -24.3550   20.6375 C   0  0  0  0  0  0  0  0  0  0  0  0
  -26.0240  -29.2052   20.6079 C   0  0  0  0  0  0  0  0  0  0  0  0
  -29.9367  -12.9420   20.3830 C   0  0  0  0  0  0  0  0  0  0  0  0
  -24.7552  -29.1849   19.7614 C   0  0  0  0  0  0  0  0  0  0  0  0
  -30.5041  -14.3564   20.5230 C   0  0  0  0  0  0  0  0  0  0  0  0
  -28.6916  -12.9154   19.4983 C   0  0  0  0  0  0  0  0  0  0  0  0
  -28.2010  -15.2711   20.0270 C   0  0  0  0  0  0  0  0  0  0  0  0
  -23.5126  -29.4370   20.6239 C   0  0  1  0  0  0  0  0  0  0  0  0
  -22.1303  -26.0842   21.7494 C   0  0  1  0  0  0  0  0  0  0  0  0
  -29.4183  -15.3583   20.9620 C   0  0  2  0  0  0  0  0  0  0  0  0
  -25.7882  -19.3826   19.6919 C   0  0  0  0  0  0  0  0  0  0  0  0
  -21.7262  -24.2487   17.7708 C   0  0  0  0  0  0  0  0  0  0  0  0
  -22.7796  -22.0253   17.3074 C   0  0  0  0  0  0  0  0  0  0  0  0
  -24.2110  -24.0515   17.5684 C   0  0  0  0  0  0  0  0  0  0  0  0
  -25.1707  -20.4284   23.2976 C   0  0  0  0  0  0  0  0  0  0  0  0
  -18.1412  -18.0286   23.2506 C   0  0  0  0  0  0  0  0  0  0  0  0
  -20.0824  -16.4782   22.6032 C   0  0  0  0  0  0  0  0  0  0  0  0
  -17.7425  -19.3729   23.8516 C   0  0  0  0  0  0  0  0  0  0  0  0
  -18.1705  -20.5544   22.9891 C   0  0  0  0  0  0  0  0  0  1  0  0
  -23.0942  -23.0523   19.6046 C   0  0  1  0  0  0  0  0  0  0  0  0
  -25.4605  -20.3508   20.8180 C   0  0  2  0  0  0  0  0  0  0  0  0
  -22.9374  -23.3485   18.0864 C   0  0  0  0  0  0  0  0  0  0  0  0
  -29.8699  -17.5774   19.9856 N   0  0  0  0  0  0  0  0  0  0  0  0
  -29.9626  -16.7714   21.0570 N   0  0  0  0  0  0  0  0  0  0  0  0
  -23.6179  -13.1282   21.2216 N   0  3  0  0  0  0  0  0  0  0  0  0
  -22.0423  -24.8914   20.8900 N   0  0  0  0  0  0  0  0  0  0  0  0
  -27.7054  -13.8866   19.9769 N   0  0  0  0  0  0  0  0  0  0  0  0
  -30.7325  -16.6861   23.2955 N   0  0  0  0  0  0  0  0  0  0  0  0
  -31.7811  -20.8811   21.9922 N   0  0  0  0  0  0  0  0  0  0  0  0
  -21.5204  -16.4160   22.5430 N   0  0  0  0  0  0  0  0  0  0  0  0
  -25.5718  -14.4555   20.8056 N   0  0  0  0  0  0  0  0  0  0  0  0
  -23.1523  -28.2401   21.3533 N   0  0  0  0  0  0  0  0  0  0  0  0
  -24.2488  -22.2242   19.9357 N   0  0  0  0  0  0  0  0  0  0  0  0
  -25.4566  -19.5943   22.1020 N   0  3  0  0  0  0  0  0  0  0  0  0
  -31.8847  -19.3913   23.7324 O   0  0  0  0  0  0  0  0  0  0  0  0
  -21.8996  -27.2043   19.6858 O   0  0  0  0  0  0  0  0  0  0  0  0
  -20.4502  -18.6977   23.4663 O   0  0  0  0  0  0  0  0  0  0  0  0
  -24.3522  -24.7706   20.6439 O   0  0  0  0  0  0  0  0  0  0  0  0
  -23.0554  -20.5253   20.9687 O   0  0  0  0  0  0  0  0  0  0  0  0
  -26.0850  -12.2613   20.2541 O   0  0  0  0  0  0  0  0  0  0  0  0
  -30.7942  -23.1181   16.9865 O   0  0  0  0  0  0  0  0  0  0  0  0
  -17.7702  -21.7621   23.6354 O   0  0  0  0  0  0  0  0  0  1  0  0
  -29.4283  -28.0617   19.0111 F   0  0  0  0  0  0  0  0  0  0  0  0
  -32.1482  -24.1901   19.1452 F   0  0  0  0  0  0  0  0  0  0  0  0
  -21.7817  -11.7538   21.5885 F   0  0  0  0  0  0  0  0  0  0  0  0
  1  2  1  0  0  0  0
  1  5  2  0  0  0  0
  2  6  2  0  0  0  0
  3  8  2  0  0  0  0
  3 17  1  0  0  0  0
  4  9  1  0  0  0  0
  4 17  2  0  0  0  0
  5 19  1  0  0  0  0
  6 21  1  0  0  0  0
  7 10  2  0  0  0  0
  7 20  1  0  0  0  0
  8 24  1  0  0  0  0
  9 24  2  0  0  0  0
 10 25  1  0  0  0  0
 11 12  2  0  0  0  0
 11 26  1  0  0  0  0
 12 27  1  0  0  0  0
 13 22  1  0  0  0  0
 13 25  2  0  0  0  0
 14 23  2  0  0  0  0
 14 31  1  0  0  0  0
 15 23  1  0  0  0  0
 15 32  2  0  0  0  0
 16 27  2  0  0  0  0
 16 28  1  0  0  0  0
 17 29  1  0  0  0  0
 18 29  1  0  0  0  0
 18 30  2  0  0  0  0
 18 33  1  0  0  0  0
 19 21  2  0  0  0  0
 19 39  1  0  0  0  0
 20 22  2  0  0  0  0
 20 40  1  0  0  0  0
 21 48  1  0  0  0  0
 22 41  1  0  0  0  0
 23 70  1  0  0  0  0
 24 81  1  0  0  0  0
 25 82  1  0  0  0  0
 26 28  2  0  0  0  0
 26 81  1  0  0  0  0
 27 83  1  0  0  0  0
 28 84  1  0  0  0  0
 29 63  2  0  0  0  0
 30 64  1  0  0  0  0
 30 68  1  0  0  0  0
 31 65  2  0  0  0  0
 31 71  1  0  0  0  0
 32 65  1  0  0  0  0
 32 85  1  0  0  0  0
 33 69  1  0  0  0  0
 33 75  2  0  0  0  0
 34 49  1  0  0  0  0
 34 72  1  0  0  0  0
 34 76  2  0  0  0  0
 35 56  1  0  0  0  0
 35 57  1  0  0  0  0
 35 77  2  0  0  0  0
 36 60  1  0  0  0  0
 36 66  1  0  0  0  0
 36 78  2  0  0  0  0
 37 61  1  0  0  0  0
 37 73  1  0  0  0  0
 37 79  2  0  0  0  0
 38 67  1  0  0  0  0
 38 71  1  0  0  0  0
 38 80  2  0  0  0  0
 39 42  1  0  0  0  0
 40 49  1  0  0  0  0
 41 66  1  0  0  0  0
 42 44  1  0  0  0  0
 43 45  1  0  0  0  0
 43 46  1  0  0  0  0
 44 48  1  0  0  0  0
 45 50  1  0  0  0  0
 46 67  1  0  0  0  0
 47 50  1  0  0  0  0
 47 67  1  0  0  0  0
 48 72  1  0  0  0  0
 49 66  1  0  0  0  0
 50 64  1  0  0  0  0
 51 61  1  0  0  0  0
 52 62  1  0  0  0  0
 53 62  1  0  0  0  0
 54 62  1  0  0  0  0
 55 74  1  0  0  0  0
 56 58  1  0  0  0  0
 57 70  1  0  0  0  0
 58 59  1  0  0  0  0
 59 82  1  0  0  0  0
 60 62  1  0  0  0  0
 60 73  1  0  0  0  0
 61 74  1  0  0  0  0
 63 64  1  0  0  0  0
M  CHG  2  65   1  74   1
M  ISO  4  38 100  59 101  71 100  82 101
M  END
> <Batch ID>
0168

> <Smiles>
CNC(C)C(=O)NC(C(=O)N1Cc2cc([101O:1][101CH2:1]CCC(=O)CNc3cc(F)nc([100NH:0][100C:0](=O)N4CCCC(n5nc(-c6ccc(Oc7ccc(F)cc7F)cc6)c(C(N)=O)c5N)C4)c3)ccc2CC1C(=O)NC1CCCc2ccccc21)C(C)(C)C

> <Shape>
0.236

> <Color>
0.056

> <Negative vol penalty>
0.000

$$$$

  -OEChem-04052304143D

 86 94  0     1  0  0  0  0  0999 V2000
  -23.0990  -20.9863   27.9171 C   0  0  0  0  0  0  0  0  0  0  0  0
  -24.2623  -21.7433   27.8220 C   0  0  0  0  0  0  0  0  0  0  0  0
  -27.0000  -12.6886   20.9698 C   0  0  0  0  0  0  0  0  0  0  0  0
  -26.4372  -13.4224   18.7378 C   0  0  0  0  0  0  0  0  0  0  0  0
  -22.1846  -20.9802   26.8646 C   0  0  0  0  0  0  0  0  0  0  0  0
  -24.5124  -22.4938   26.6737 C   0  0  0  0  0  0  0  0  0  0  0  0
  -27.5992  -28.6026   24.5593 C   0  0  0  0  0  0  0  0  0  0  0  0
  -26.2750  -11.5144   20.7666 C   0  0  0  0  0  0  0  0  0  0  0  0
  -25.7122  -12.2481   18.5346 C   0  0  0  0  0  0  0  0  0  0  0  0
  -28.5350  -29.0746   23.6399 C   0  0  0  0  0  0  0  0  0  0  0  0
  -24.2730   -8.4851   20.9630 C   0  0  0  0  0  0  0  0  0  0  0  0
  -23.4220   -8.0616   21.9838 C   0  0  0  0  0  0  0  0  0  0  0  0
  -26.8462  -29.0501   21.9176 C   0  0  0  0  0  0  0  0  0  0  0  0
  -28.7745  -23.7932   18.4136 C   0  0  0  0  0  0  0  0  0  0  0  0
  -30.8716  -23.1740   16.6811 C   0  0  0  0  0  0  0  0  0  0  0  0
  -22.1819  -10.1276   21.8069 C   0  0  0  0  0  0  0  0  0  0  0  0
  -27.0810  -13.6426   19.9554 C   0  0  0  0  0  0  0  0  0  0  0  0
  -29.1933  -15.0715   19.8917 C   0  0  0  0  0  0  0  0  0  0  0  0
  -22.4191  -21.7386   25.7068 C   0  0  0  0  0  0  0  0  0  0  0  0
  -26.2804  -28.3401   24.1616 C   0  0  0  0  0  0  0  0  0  0  0  0
  -23.6010  -22.4968   25.6041 C   0  0  0  0  0  0  0  0  0  0  0  0
  -25.8950  -28.5773   22.8344 C   0  0  0  0  0  0  0  0  0  0  0  0
  -29.2096  -24.7346   17.4809 C   0  0  0  0  0  0  0  0  0  0  0  0
  -29.3879  -22.5421   18.4801 C   0  0  0  0  0  0  0  0  0  0  0  0
  -30.2582  -24.4250   16.6146 C   0  0  0  0  0  0  0  0  0  0  0  0
  -25.6312  -11.2942   19.5490 C   0  0  0  0  0  0  0  0  0  0  0  0
  -28.1593  -29.2956   22.3181 C   0  0  0  0  0  0  0  0  0  0  0  0
  -24.0786   -9.7298   20.3642 C   0  0  0  0  0  0  0  0  0  0  0  0
  -22.3764   -8.8829   22.4057 C   0  0  0  0  0  0  0  0  0  0  0  0
  -30.4364  -22.2326   17.6139 C   0  0  0  0  0  0  0  0  0  0  0  0
  -23.0330  -10.5510   20.7861 C   0  0  0  0  0  0  0  0  0  0  0  0
  -27.8293  -14.8560   20.1649 C   0  0  0  0  0  0  0  0  0  0  0  0
  -29.4162  -16.3749   20.2630 C   0  0  0  0  0  0  0  0  0  0  0  0
  -30.1715  -14.1738   19.3504 C   0  0  0  0  0  0  0  0  0  0  0  0
  -24.4394  -25.7506   24.0671 C   0  0  0  0  0  0  0  0  0  0  0  0
  -22.1521  -27.8847   23.2088 C   0  0  0  0  0  0  0  0  0  0  0  0
  -29.3069  -27.4208   19.3783 C   0  0  0  0  0  0  0  0  0  0  0  0
  -21.3847  -30.9170   21.8438 C   0  0  0  0  0  0  0  0  0  0  0  0
  -27.9170  -21.7364   20.3599 C   0  0  0  0  0  0  0  0  0  0  0  0
  -21.4243  -21.6630   24.5757 C   0  0  0  0  0  0  0  0  0  0  0  0
  -25.2762  -27.8567   25.1717 C   0  0  0  0  0  0  0  0  0  0  0  0
  -24.4864  -28.3304   22.3616 C   0  0  0  0  0  0  0  0  0  0  0  0
  -21.5842  -22.7807   23.5483 C   0  0  0  0  0  0  0  0  0  0  0  0
  -26.4983  -19.6109   22.8391 C   0  0  0  0  0  0  0  0  0  0  0  0
  -23.0515  -22.9495   23.1672 C   0  0  0  0  0  0  0  0  0  0  0  0
  -26.8303  -18.2021   22.3419 C   0  0  0  0  0  0  0  0  0  0  0  0
  -26.1759  -20.5583   21.6850 C   0  0  0  0  0  0  0  0  0  0  0  0
  -27.5231  -19.2053   20.1282 C   0  0  0  0  0  0  0  0  0  0  0  0
  -23.8960  -23.3434   24.3850 C   0  0  1  0  0  0  0  0  0  0  0  0
  -24.0913  -27.1344   24.5378 C   0  0  1  0  0  0  0  0  0  0  0  0
  -27.9181  -18.2315   21.2504 C   0  0  2  0  0  0  0  0  0  0  0  0
  -19.4275  -32.3672   21.2408 C   0  0  0  0  0  0  0  0  0  0  0  0
  -31.4614  -29.7470   21.5809 C   0  0  0  0  0  0  0  0  0  0  0  0
  -21.6047  -26.1292   20.7739 C   0  0  0  0  0  0  0  0  0  0  0  0
  -20.3688  -28.0521   19.7525 C   0  0  0  0  0  0  0  0  0  0  0  0
  -19.5576  -27.0413   21.8839 C   0  0  0  0  0  0  0  0  0  0  0  0
  -22.2665  -33.0684   23.6749 C   0  0  0  0  0  0  0  0  0  0  0  0
  -28.5317  -26.0732   17.4312 C   0  0  0  0  0  0  0  0  0  0  0  0
  -30.2632  -28.5556   19.7151 C   0  0  0  0  0  0  0  0  0  0  0  0
  -21.6558  -28.4517   21.9007 C   0  0  1  0  0  0  0  0  0  0  0  0
  -20.4556  -32.0243   22.3076 C   0  0  2  0  0  0  0  0  0  0  0  0
  -30.2249  -28.9473   21.1920 C   0  0  2  0  0  0  0  0  0  1  0  0
  -20.8238  -27.4215   21.0859 C   0  0  0  0  0  0  0  0  0  0  0  0
  -27.2279  -15.9360   20.6711 N   0  0  0  0  0  0  0  0  0  0  0  0
  -28.2188  -16.8426   20.7188 N   0  0  0  0  0  0  0  0  0  0  0  0
  -23.5427  -27.8521   23.3853 N   0  0  0  0  0  0  0  0  0  0  0  0
  -27.2523  -20.5370   20.6921 N   0  0  0  0  0  0  0  0  0  0  0  0
  -30.7121  -25.3656   15.6641 N   0  0  0  0  0  0  0  0  0  0  0  0
  -30.5177  -17.1551   20.2410 N   0  0  0  0  0  0  0  0  0  0  0  0
  -29.7735  -12.8704   19.0231 N   0  0  0  0  0  0  0  0  0  0  0  0
  -28.9441  -21.5875   19.4286 N   0  0  0  0  0  0  0  0  0  0  0  0
  -23.7206  -24.7475   24.6889 N   0  0  0  0  0  0  0  0  0  0  0  0
  -29.3415  -27.1119   18.0259 N   0  0  0  0  0  0  0  0  0  0  0  0
  -20.9326  -29.6741   22.2338 N   0  0  0  0  0  0  0  0  0  0  0  0
  -21.2340  -33.2553   22.6232 N   0  3  0  0  0  0  0  0  0  0  0  0
  -31.3670  -14.5122   19.1779 O   0  0  0  0  0  0  0  0  0  0  0  0
  -25.2955  -25.6039   23.2027 O   0  0  0  0  0  0  0  0  0  0  0  0
  -21.3359  -27.4920   24.0462 O   0  0  0  0  0  0  0  0  0  0  0  0
  -28.6014  -26.8630   20.2141 O   0  0  0  0  0  0  0  0  0  0  0  0
  -22.4071  -31.1327   21.1968 O   0  0  0  0  0  0  0  0  0  0  0  0
  -27.6164  -22.8117   20.8847 O   0  0  0  0  0  0  0  0  0  0  0  0
  -24.9239  -10.1484   19.3503 O   0  0  0  0  0  0  0  0  0  0  0  0
  -29.0709  -29.7556   21.4185 O   0  0  0  0  0  0  0  0  0  1  0  0
  -21.5583   -8.4755   23.3849 F   0  0  0  0  0  0  0  0  0  0  0  0
  -31.0334  -21.0334   17.6689 F   0  0  0  0  0  0  0  0  0  0  0  0
  -22.8405  -11.7474   20.2138 F   0  0  0  0  0  0  0  0  0  0  0  0
  1  2  1  0  0  0  0
  1  5  2  0  0  0  0
  2  6  2  0  0  0  0
  3  8  2  0  0  0  0
  3 17  1  0  0  0  0
  4  9  1  0  0  0  0
  4 17  2  0  0  0  0
  5 19  1  0  0  0  0
  6 21  1  0  0  0  0
  7 10  2  0  0  0  0
  7 20  1  0  0  0  0
  8 26  1  0  0  0  0
  9 26  2  0  0  0  0
 10 27  1  0  0  0  0
 11 12  2  0  0  0  0
 11 28  1  0  0  0  0
 12 29  1  0  0  0  0
 13 22  1  0  0  0  0
 13 27  2  0  0  0  0
 14 23  1  0  0  0  0
 14 24  2  0  0  0  0
 15 25  1  0  0  0  0
 15 30  2  0  0  0  0
 16 29  2  0  0  0  0
 16 31  1  0  0  0  0
 17 32  1  0  0  0  0
 18 32  1  0  0  0  0
 18 33  2  0  0  0  0
 18 34  1  0  0  0  0
 19 21  2  0  0  0  0
 19 40  1  0  0  0  0
 20 22  2  0  0  0  0
 20 41  1  0  0  0  0
 21 49  1  0  0  0  0
 22 42  1  0  0  0  0
 23 25  2  0  0  0  0
 23 58  1  0  0  0  0
 24 30  1  0  0  0  0
 24 71  1  0  0  0  0
 25 68  1  0  0  0  0
 26 82  1  0  0  0  0
 27 83  1  0  0  0  0
 28 31  2  0  0  0  0
 28 82  1  0  0  0  0
 29 84  1  0  0  0  0
 30 85  1  0  0  0  0
 31 86  1  0  0  0  0
 32 64  2  0  0  0  0
 33 65  1  0  0  0  0
 33 69  1  0  0  0  0
 34 70  1  0  0  0  0
 34 76  2  0  0  0  0
 35 50  1  0  0  0  0
 35 72  1  0  0  0  0
 35 77  2  0  0  0  0
 36 60  1  0  0  0  0
 36 66  1  0  0  0  0
 36 78  2  0  0  0  0
 37 59  1  0  0  0  0
 37 73  1  0  0  0  0
 37 79  2  0  0  0  0
 38 61  1  0  0  0  0
 38 74  1  0  0  0  0
 38 80  2  0  0  0  0
 39 67  1  0  0  0  0
 39 71  1  0  0  0  0
 39 81  2  0  0  0  0
 40 43  1  0  0  0  0
 41 50  1  0  0  0  0
 42 66  1  0  0  0  0
 43 45  1  0  0  0  0
 44 46  1  0  0  0  0
 44 47  1  0  0  0  0
 45 49  1  0  0  0  0
 46 51  1  0  0  0  0
 47 67  1  0  0  0  0
 48 51  1  0  0  0  0
 48 67  1  0  0  0  0
 49 72  1  0  0  0  0
 50 66  1  0  0  0  0
 51 65  1  0  0  0  0
 52 61  1  0  0  0  0
 53 62  1  0  0  0  0
 54 63  1  0  0  0  0
 55 63  1  0  0  0  0
 56 63  1  0  0  0  0
 57 75  1  0  0  0  0
 58 73  1  0  0  0  0
 59 62  1  0  0  0  0
 60 63  1  0  0  0  0
 60 74  1  0  0  0  0
 61 75  1  0  0  0  0
 62 83  1  0  0  0  0
 64 65  1  0  0  0  0
M  CHG  1  75   1
M  ISO  4  39 100  62 101  71 100  83 101
M  END
> <Batch ID>
0168

> <Smiles>
CNC(C)C(=O)NC(C(=O)N1Cc2cc([101O:1][101CH:1](C)CC(=O)NCc3cc([100NH:0][100C:0](=O)N4CCCC(n5nc(-c6ccc(Oc7ccc(F)cc7F)cc6)c(C(N)=O)c5N)C4)c(F)cc3N)ccc2CC1C(=O)NC1CCCc2ccccc21)C(C)(C)C

> <Shape>
0.233

> <Color>
0.070

> <Negative vol penalty>
0.000

$$$$

  -OEChem-04052304143D

 88 96  0     1  0  0  0  0  0999 V2000
  -27.1872  -13.7657   19.6853 C   0  0  0  0  0  0  0  0  0  0  0  0
  -27.1311  -15.1553   19.7207 C   0  0  0  0  0  0  0  0  0  0  0  0
  -29.6496  -20.4446   18.0478 C   0  0  0  0  0  0  0  0  0  0  0  0
  -28.3661  -20.5977   20.0889 C   0  0  0  0  0  0  0  0  0  0  0  0
  -26.1185  -13.0135   20.1710 C   0  0  0  0  0  0  0  0  0  0  0  0
  -26.0057  -15.7935   20.2409 C   0  0  0  0  0  0  0  0  0  0  0  0
  -24.0934  -21.6812   23.8457 C   0  0  0  0  0  0  0  0  0  0  0  0
  -30.1576  -19.2126   18.4596 C   0  0  0  0  0  0  0  0  0  0  0  0
  -28.8740  -19.3656   20.5007 C   0  0  0  0  0  0  0  0  0  0  0  0
  -23.2025  -22.7507   23.7667 C   0  0  0  0  0  0  0  0  0  0  0  0
  -31.7335  -18.1779   21.8586 C   0  0  0  0  0  0  0  0  0  0  0  0
  -32.1752  -18.0669   23.1770 C   0  0  0  0  0  0  0  0  0  0  0  0
  -21.4499  -21.3482   24.6502 C   0  0  0  0  0  0  0  0  0  0  0  0
  -24.5502  -28.6958   21.5157 C   0  0  0  0  0  0  0  0  0  0  0  0
  -25.7498  -30.5673   20.5697 C   0  0  0  0  0  0  0  0  0  0  0  0
  -30.5539  -16.3200   23.5732 C   0  0  0  0  0  0  0  0  0  0  0  0
  -28.7539  -21.1372   18.8625 C   0  0  0  0  0  0  0  0  0  0  0  0
  -23.4116  -30.7923   21.1344 C   0  0  0  0  0  0  0  0  0  0  0  0
  -27.0613  -22.6405   17.6864 C   0  0  0  0  0  0  0  0  0  0  0  0
  -24.9835  -13.6427   20.7062 C   0  0  0  0  0  0  0  0  0  0  0  0
  -23.6658  -20.4321   24.3181 C   0  0  0  0  0  0  0  0  0  0  0  0
  -24.9202  -15.0490   20.7330 C   0  0  0  0  0  0  0  0  0  0  0  0
  -22.3380  -20.2652   24.7366 C   0  0  0  0  0  0  0  0  0  0  0  0
  -25.7294  -29.2446   21.0121 C   0  0  0  0  0  0  0  0  0  0  0  0
  -23.3912  -29.4696   21.5768 C   0  0  0  0  0  0  0  0  0  0  0  0
  -29.7698  -18.6730   19.6860 C   0  0  0  0  0  0  0  0  0  0  0  0
  -21.8798  -22.5835   24.1662 C   0  0  0  0  0  0  0  0  0  0  0  0
  -30.7019  -17.3599   21.3975 C   0  0  0  0  0  0  0  0  0  0  0  0
  -31.5854  -17.1380   24.0343 C   0  0  0  0  0  0  0  0  0  0  0  0
  -24.5909  -31.3412   20.6308 C   0  0  0  0  0  0  0  0  0  0  0  0
  -30.1122  -16.4310   22.2547 C   0  0  0  0  0  0  0  0  0  0  0  0
  -28.2293  -22.4103   18.4379 C   0  0  0  0  0  0  0  0  0  0  0  0
  -27.0048  -24.0060   17.5494 C   0  0  0  0  0  0  0  0  0  0  0  0
  -22.2160  -31.6242   21.1884 C   0  0  0  0  0  0  0  0  0  0  0  0
  -26.1123  -21.7038   17.1594 C   0  0  0  0  0  0  0  0  0  0  0  0
  -20.7333  -27.2733   23.0268 C   0  0  0  0  0  0  0  0  0  0  0  0
  -20.4145  -25.8910   23.5620 C   0  0  0  0  0  0  0  0  0  0  0  0
  -23.4765  -17.5105   23.0802 C   0  0  0  0  0  0  0  0  0  0  0  0
  -22.6281  -16.7058   26.1059 C   0  0  0  0  0  0  0  0  0  0  0  0
  -21.3222  -17.6795   29.1047 C   0  0  0  0  0  0  0  0  0  0  0  0
  -28.1592  -28.8492   20.4770 C   0  0  0  0  0  0  0  0  0  0  0  0
  -23.8331  -12.7878   21.1759 C   0  0  0  0  0  0  0  0  0  0  0  0
  -24.6458  -19.2958   24.4224 C   0  0  0  0  0  0  0  0  0  0  0  0
  -21.8340  -18.9500   25.2703 C   0  0  0  0  0  0  0  0  0  0  0  0
  -22.8357  -13.5382   22.0546 C   0  0  0  0  0  0  0  0  0  0  0  0
  -30.3008  -27.6813   17.8834 C   0  0  0  0  0  0  0  0  0  0  0  0
  -22.4852  -14.8864   21.4330 C   0  0  0  0  0  0  0  0  0  0  0  0
  -29.8719  -26.2254   17.6872 C   0  0  0  0  0  0  0  0  0  0  0  0
  -30.2434  -28.0964   19.3524 C   0  0  0  0  0  0  0  0  0  0  0  0
  -28.5301  -26.3896   19.8225 C   0  0  0  0  0  0  0  0  0  0  0  0
  -23.7271  -15.7778   21.3123 C   0  0  1  0  0  0  0  0  0  0  0  0
  -23.9736  -17.9263   24.4357 C   0  0  1  0  0  0  0  0  0  0  0  0
  -28.5095  -25.9449   18.3509 C   0  0  2  0  0  0  0  0  0  0  0  0
  -22.2826  -32.8759   22.0116 C   0  0  0  0  0  0  0  0  0  0  0  0
  -20.7186  -16.7903   31.3724 C   0  0  0  0  0  0  0  0  0  0  0  0
  -20.1427  -15.3876   24.9248 C   0  0  0  0  0  0  0  0  0  0  0  0
  -19.1452  -15.3716   27.2211 C   0  0  0  0  0  0  0  0  0  0  0  0
  -21.2370  -14.0921   26.7629 C   0  0  0  0  0  0  0  0  0  0  0  0
  -23.2195  -19.5066   30.4541 C   0  0  0  0  0  0  0  0  0  0  0  0
  -22.1381  -27.5463   22.5548 C   0  0  0  0  0  0  0  0  0  0  0  0
  -21.5161  -24.8621   23.5901 C   0  0  0  0  0  0  0  0  0  1  0  0
  -21.3252  -16.6168   26.8630 C   0  0  1  0  0  0  0  0  0  0  0  0
  -21.7954  -17.4560   30.5297 C   0  0  2  0  0  0  0  0  0  0  0  0
  -20.4712  -15.3914   26.4311 C   0  0  0  0  0  0  0  0  0  0  0  0
  -28.8687  -23.5390   18.7559 N   0  0  0  0  0  0  0  0  0  0  0  0
  -28.0998  -24.4917   18.2015 N   0  0  0  0  0  0  0  0  0  0  0  0
  -22.8289  -17.8675   25.3469 N   0  0  0  0  0  0  0  0  0  0  0  0
  -28.9222  -27.8049   19.9132 N   0  0  0  0  0  0  0  0  0  0  0  0
  -26.1257  -24.8265   16.9360 N   0  0  0  0  0  0  0  0  0  0  0  0
  -26.3217  -20.3378   17.3927 N   0  0  0  0  0  0  0  0  0  0  0  0
  -26.9065  -28.4583   20.9487 N   0  0  0  0  0  0  0  0  0  0  0  0
  -22.2292  -28.9053   22.0809 N   0  0  0  0  0  0  0  0  0  0  0  0
  -24.0611  -16.3557   22.5963 N   0  0  0  0  0  0  0  0  0  0  0  0
  -21.6742  -16.6325   28.2795 N   0  0  0  0  0  0  0  0  0  0  0  0
  -22.1542  -18.7549   31.1661 N   0  3  0  0  0  0  0  0  0  0  0  0
  -21.1574  -31.3723   20.6129 O   0  0  0  0  0  0  0  0  0  0  0  0
  -25.1173  -22.0664   16.4872 O   0  0  0  0  0  0  0  0  0  0  0  0
  -19.8202  -28.0892   23.0129 O   0  0  0  0  0  0  0  0  0  0  0  0
  -19.2695  -25.6840   23.9430 O   0  0  0  0  0  0  0  0  0  0  0  0
  -22.6244  -18.1865   22.5156 O   0  0  0  0  0  0  0  0  0  0  0  0
  -23.4411  -15.7819   26.1906 O   0  0  0  0  0  0  0  0  0  0  0  0
  -20.6990  -18.6809   28.7591 O   0  0  0  0  0  0  0  0  0  0  0  0
  -28.5745  -30.0104   20.5122 O   0  0  0  0  0  0  0  0  0  0  0  0
  -30.2650  -17.4707   20.0881 O   0  0  0  0  0  0  0  0  0  0  0  0
  -21.0080  -23.6256   24.0895 O   0  0  0  0  0  0  0  0  0  1  0  0
  -32.0108  -17.0305   25.2999 F   0  0  0  0  0  0  0  0  0  0  0  0
  -24.6235  -32.6116   20.2037 F   0  0  0  0  0  0  0  0  0  0  0  0
  -29.1216  -15.6416   21.8171 F   0  0  0  0  0  0  0  0  0  0  0  0
  1  2  1  0  0  0  0
  1  5  2  0  0  0  0
  2  6  2  0  0  0  0
  3  8  2  0  0  0  0
  3 17  1  0  0  0  0
  4  9  1  0  0  0  0
  4 17  2  0  0  0  0
  5 20  1  0  0  0  0
  6 22  1  0  0  0  0
  7 10  2  0  0  0  0
  7 21  1  0  0  0  0
  8 26  1  0  0  0  0
  9 26  2  0  0  0  0
 10 27  1  0  0  0  0
 11 12  2  0  0  0  0
 11 28  1  0  0  0  0
 12 29  1  0  0  0  0
 13 23  1  0  0  0  0
 13 27  2  0  0  0  0
 14 24  2  0  0  0  0
 14 25  1  0  0  0  0
 15 24  1  0  0  0  0
 15 30  2  0  0  0  0
 16 29  2  0  0  0  0
 16 31  1  0  0  0  0
 17 32  1  0  0  0  0
 18 25  2  0  0  0  0
 18 30  1  0  0  0  0
 18 34  1  0  0  0  0
 19 32  1  0  0  0  0
 19 33  2  0  0  0  0
 19 35  1  0  0  0  0
 20 22  2  0  0  0  0
 20 42  1  0  0  0  0
 21 23  2  0  0  0  0
 21 43  1  0  0  0  0
 22 51  1  0  0  0  0
 23 44  1  0  0  0  0
 24 71  1  0  0  0  0
 25 72  1  0  0  0  0
 26 84  1  0  0  0  0
 27 85  1  0  0  0  0
 28 31  2  0  0  0  0
 28 84  1  0  0  0  0
 29 86  1  0  0  0  0
 30 87  1  0  0  0  0
 31 88  1  0  0  0  0
 32 65  2  0  0  0  0
 33 66  1  0  0  0  0
 33 69  1  0  0  0  0
 34 54  1  0  0  0  0
 34 76  2  0  0  0  0
 35 70  1  0  0  0  0
 35 77  2  0  0  0  0
 36 37  1  0  0  0  0
 36 60  1  0  0  0  0
 36 78  2  0  0  0  0
 37 61  1  0  0  0  0
 37 79  2  0  0  0  0
 38 52  1  0  0  0  0
 38 73  1  0  0  0  0
 38 80  2  0  0  0  0
 39 62  1  0  0  0  0
 39 67  1  0  0  0  0
 39 81  2  0  0  0  0
 40 63  1  0  0  0  0
 40 74  1  0  0  0  0
 40 82  2  0  0  0  0
 41 68  1  0  0  0  0
 41 71  1  0  0  0  0
 41 83  2  0  0  0  0
 42 45  1  0  0  0  0
 43 52  1  0  0  0  0
 44 67  1  0  0  0  0
 45 47  1  0  0  0  0
 46 48  1  0  0  0  0
 46 49  1  0  0  0  0
 47 51  1  0  0  0  0
 48 53  1  0  0  0  0
 49 68  1  0  0  0  0
 50 53  1  0  0  0  0
 50 68  1  0  0  0  0
 51 73  1  0  0  0  0
 52 67  1  0  0  0  0
 53 66  1  0  0  0  0
 55 63  1  0  0  0  0
 56 64  1  0  0  0  0
 57 64  1  0  0  0  0
 58 64  1  0  0  0  0
 59 75  1  0  0  0  0
 60 72  1  0  0  0  0
 61 85  1  0  0  0  0
 62 64  1  0  0  0  0
 62 74  1  0  0  0  0
 63 75  1  0  0  0  0
 65 66  1  0  0  0  0
M  CHG  1  75   1
M  ISO  4  41 100  61 101  71 100  85 101
M  END
> <Batch ID>
0168

> <Smiles>
CNC(C)C(=O)NC(C(=O)N1Cc2cc([101O:1][101CH2:1]C(=O)C(=O)CNc3cc([100NH:0][100C:0](=O)N4CCCC(n5nc(-c6ccc(Oc7ccc(F)cc7F)cc6)c(C(N)=O)c5N)C4)cc(F)c3C(C)=O)ccc2CC1C(=O)NC1CCCc2ccccc21)C(C)(C)C

> <Shape>
0.214

> <Color>
0.055

> <Negative vol penalty>
0.000

$$$$

  -OEChem-04052304143D

 86 94  0     1  0  0  0  0  0999 V2000
  -17.2854  -30.4198   24.6633 C   0  0  0  0  0  0  0  0  0  0  0  0
  -18.5565  -30.9503   24.8587 C   0  0  0  0  0  0  0  0  0  0  0  0
  -26.5545  -12.7999   21.7261 C   0  0  0  0  0  0  0  0  0  0  0  0
  -26.1927  -14.2329   19.8149 C   0  0  0  0  0  0  0  0  0  0  0  0
  -17.1350  -29.1921   24.0198 C   0  0  0  0  0  0  0  0  0  0  0  0
  -19.6782  -30.2529   24.4116 C   0  0  0  0  0  0  0  0  0  0  0  0
  -26.2480  -31.3473   21.7744 C   0  0  0  0  0  0  0  0  0  0  0  0
  -25.2687  -12.2797   21.5794 C   0  0  0  0  0  0  0  0  0  0  0  0
  -24.9069  -13.7126   19.6682 C   0  0  0  0  0  0  0  0  0  0  0  0
  -27.5738  -30.9785   21.9984 C   0  0  0  0  0  0  0  0  0  0  0  0
  -23.7066  -10.0165   19.6119 C   0  0  0  0  0  0  0  0  0  0  0  0
  -23.5523   -8.6334   19.7062 C   0  0  0  0  0  0  0  0  0  0  0  0
  -27.1880  -28.9041   20.8291 C   0  0  0  0  0  0  0  0  0  0  0  0
  -29.4861  -22.9300   21.6305 C   0  0  0  0  0  0  0  0  0  0  0  0
  -22.0575   -8.9281   21.5813 C   0  0  0  0  0  0  0  0  0  0  0  0
  -28.6654  -24.0662   19.7090 C   0  0  0  0  0  0  0  0  0  0  0  0
  -27.0165  -13.7766   20.8438 C   0  0  0  0  0  0  0  0  0  0  0  0
  -29.5295  -13.8317   20.4084 C   0  0  0  0  0  0  0  0  0  0  0  0
  -18.2548  -28.4839   23.5560 C   0  0  0  0  0  0  0  0  0  0  0  0
  -25.3779  -30.4910   21.0843 C   0  0  0  0  0  0  0  0  0  0  0  0
  -19.5427  -29.0139   23.7625 C   0  0  0  0  0  0  0  0  0  0  0  0
  -25.8524  -29.2655   20.5954 C   0  0  0  0  0  0  0  0  0  0  0  0
  -29.0343  -24.1069   21.0439 C   0  0  0  0  0  0  0  0  0  0  0  0
  -29.5541  -21.7648   20.8749 C   0  0  0  0  0  0  0  0  0  0  0  0
  -24.4448  -12.7360   20.5505 C   0  0  0  0  0  0  0  0  0  0  0  0
  -28.0432  -29.7555   21.5283 C   0  0  0  0  0  0  0  0  0  0  0  0
  -23.0365  -10.8554   20.5024 C   0  0  0  0  0  0  0  0  0  0  0  0
  -22.7277   -8.0893   20.6909 C   0  0  0  0  0  0  0  0  0  0  0  0
  -22.2119  -10.3112   21.4870 C   0  0  0  0  0  0  0  0  0  0  0  0
  -28.3445  -14.3148   20.9951 C   0  0  0  0  0  0  0  0  0  0  0  0
  -29.1616  -21.8289   19.5476 C   0  0  0  0  0  0  0  0  0  0  0  0
  -30.5082  -14.6829   20.8603 C   0  0  0  0  0  0  0  0  0  0  0  0
  -29.7279  -12.7136   19.5331 C   0  0  0  0  0  0  0  0  0  0  0  0
  -29.0758  -26.9032   23.5619 C   0  0  0  0  0  0  0  0  0  0  0  0
  -29.2931  -25.4877   23.1101 C   0  0  0  0  0  0  0  0  0  0  0  0
  -22.6786  -28.9769   21.8086 C   0  0  0  0  0  0  0  0  0  0  0  0
  -22.7322  -28.1911   18.6618 C   0  0  0  0  0  0  0  0  0  0  0  0
  -24.5676  -27.7282   15.8222 C   0  0  0  0  0  0  0  0  0  0  0  0
  -30.4325  -20.3468   22.7628 C   0  0  0  0  0  0  0  0  0  0  0  0
  -18.0453  -27.1381   22.9081 C   0  0  0  0  0  0  0  0  0  0  0  0
  -23.9579  -30.9152   20.8276 C   0  0  0  0  0  0  0  0  0  0  0  0
  -24.9642  -28.3191   19.8312 C   0  0  0  0  0  0  0  0  0  0  0  0
  -19.2613  -26.6402   22.1312 C   0  0  0  0  0  0  0  0  0  0  0  0
  -31.5926  -17.5081   24.5720 C   0  0  0  0  0  0  0  0  0  0  0  0
  -20.5318  -26.8190   22.9563 C   0  0  0  0  0  0  0  0  0  0  0  0
  -31.0042  -16.3229   23.8031 C   0  0  0  0  0  0  0  0  0  0  0  0
  -30.6308  -18.6945   24.6082 C   0  0  0  0  0  0  0  0  0  0  0  0
  -29.5439  -17.9445   22.5284 C   0  0  0  0  0  0  0  0  0  0  0  0
  -20.7822  -28.2991   23.2698 C   0  0  1  0  0  0  0  0  0  0  0  0
  -23.0222  -29.7401   20.5608 C   0  0  1  0  0  0  0  0  0  0  0  0
  -30.5025  -16.7485   22.4093 C   0  0  2  0  0  0  0  0  0  0  0  0
  -24.3383  -27.0495   13.4171 C   0  0  0  0  0  0  0  0  0  0  0  0
  -30.8887  -30.2880   23.3378 C   0  0  0  0  0  0  0  0  0  0  0  0
  -22.4542  -25.2745   19.5139 C   0  0  0  0  0  0  0  0  0  0  0  0
  -23.1776  -24.6058   17.2122 C   0  0  0  0  0  0  0  0  0  0  0  0
  -21.0785  -25.9164   17.5264 C   0  0  0  0  0  0  0  0  0  0  0  0
  -25.5745  -30.3424   14.8678 C   0  0  0  0  0  0  0  0  0  0  0  0
  -30.2328  -27.8582   23.3602 C   0  0  0  0  0  0  0  0  0  0  0  0
  -23.3118  -27.0557   17.8532 C   0  0  1  0  0  0  0  0  0  0  0  0
  -24.3594  -28.2113   14.3982 C   0  0  2  0  0  0  0  0  0  0  0  0
  -29.7624  -29.2900   23.1043 C   0  0  2  0  0  0  0  0  0  1  0  0
  -22.5220  -25.7298   18.0425 C   0  0  0  0  0  0  0  0  0  0  0  0
  -28.7176  -22.9535   18.9430 N   0  0  0  0  0  0  0  0  0  0  0  0
  -28.5494  -15.3894   21.7614 N   0  0  0  0  0  0  0  0  0  0  0  0
  -29.8746  -15.5886   21.6594 N   0  0  0  0  0  0  0  0  0  0  0  0
  -23.5821  -28.7762   19.6112 N   0  0  0  0  0  0  0  0  0  0  0  0
  -30.2012  -19.0439   23.2524 N   0  0  0  0  0  0  0  0  0  0  0  0
  -31.8402  -14.7375   20.6482 N   0  0  0  0  0  0  0  0  0  0  0  0
  -28.6142  -11.9448   19.1684 N   0  0  0  0  0  0  0  0  0  0  0  0
  -28.9540  -25.3080   21.7864 N   0  0  0  0  0  0  0  0  0  0  0  0
  -30.0105  -20.5528   21.4498 N   0  0  0  0  0  0  0  0  0  0  0  0
  -21.3308  -28.9748   22.1136 N   0  0  0  0  0  0  0  0  0  0  0  0
  -23.3691  -27.5252   16.4731 N   0  0  0  0  0  0  0  0  0  0  0  0
  -25.4540  -29.1416   14.0016 N   0  3  0  0  0  0  0  0  0  0  0  0
  -30.8617  -12.3956   19.1007 O   0  0  0  0  0  0  0  0  0  0  0  0
  -27.9880  -27.1748   24.0470 O   0  0  0  0  0  0  0  0  0  0  0  0
  -29.7492  -24.7148   23.9363 O   0  0  0  0  0  0  0  0  0  0  0  0
  -23.5700  -28.4290   22.4465 O   0  0  0  0  0  0  0  0  0  0  0  0
  -21.5707  -28.5505   18.4537 O   0  0  0  0  0  0  0  0  0  0  0  0
  -25.6820  -27.5453   16.3072 O   0  0  0  0  0  0  0  0  0  0  0  0
  -30.9903  -21.2080   23.4478 O   0  0  0  0  0  0  0  0  0  0  0  0
  -23.1901  -12.2283   20.4069 O   0  0  0  0  0  0  0  0  0  0  0  0
  -29.3366  -29.3929   21.7461 O   0  0  0  0  0  0  0  0  0  1  0  0
  -22.5783   -6.7611   20.7804 F   0  0  0  0  0  0  0  0  0  0  0  0
  -21.5646  -11.1121   22.3445 F   0  0  0  0  0  0  0  0  0  0  0  0
  -29.2177  -20.7163   18.7972 F   0  0  0  0  0  0  0  0  0  0  0  0
  1  2  1  0  0  0  0
  1  5  2  0  0  0  0
  2  6  2  0  0  0  0
  3  8  2  0  0  0  0
  3 17  1  0  0  0  0
  4  9  1  0  0  0  0
  4 17  2  0  0  0  0
  5 19  1  0  0  0  0
  6 21  1  0  0  0  0
  7 10  2  0  0  0  0
  7 20  1  0  0  0  0
  8 25  1  0  0  0  0
  9 25  2  0  0  0  0
 10 26  1  0  0  0  0
 11 12  2  0  0  0  0
 11 27  1  0  0  0  0
 12 28  1  0  0  0  0
 13 22  1  0  0  0  0
 13 26  2  0  0  0  0
 14 23  2  0  0  0  0
 14 24  1  0  0  0  0
 15 28  2  0  0  0  0
 15 29  1  0  0  0  0
 16 23  1  0  0  0  0
 16 63  2  0  0  0  0
 17 30  1  0  0  0  0
 18 30  1  0  0  0  0
 18 32  2  0  0  0  0
 18 33  1  0  0  0  0
 19 21  2  0  0  0  0
 19 40  1  0  0  0  0
 20 22  2  0  0  0  0
 20 41  1  0  0  0  0
 21 49  1  0  0  0  0
 22 42  1  0  0  0  0
 23 70  1  0  0  0  0
 24 31  2  0  0  0  0
 24 71  1  0  0  0  0
 25 82  1  0  0  0  0
 26 83  1  0  0  0  0
 27 29  2  0  0  0  0
 27 82  1  0  0  0  0
 28 84  1  0  0  0  0
 29 85  1  0  0  0  0
 30 64  2  0  0  0  0
 31 63  1  0  0  0  0
 31 86  1  0  0  0  0
 32 65  1  0  0  0  0
 32 68  1  0  0  0  0
 33 69  1  0  0  0  0
 33 75  2  0  0  0  0
 34 35  1  0  0  0  0
 34 58  1  0  0  0  0
 34 76  2  0  0  0  0
 35 70  1  0  0  0  0
 35 77  2  0  0  0  0
 36 50  1  0  0  0  0
 36 72  1  0  0  0  0
 36 78  2  0  0  0  0
 37 59  1  0  0  0  0
 37 66  1  0  0  0  0
 37 79  2  0  0  0  0
 38 60  1  0  0  0  0
 38 73  1  0  0  0  0
 38 80  2  0  0  0  0
 39 67  1  0  0  0  0
 39 71  1  0  0  0  0
 39 81  2  0  0  0  0
 40 43  1  0  0  0  0
 41 50  1  0  0  0  0
 42 66  1  0  0  0  0
 43 45  1  0  0  0  0
 44 46  1  0  0  0  0
 44 47  1  0  0  0  0
 45 49  1  0  0  0  0
 46 51  1  0  0  0  0
 47 67  1  0  0  0  0
 48 51  1  0  0  0  0
 48 67  1  0  0  0  0
 49 72  1  0  0  0  0
 50 66  1  0  0  0  0
 51 65  1  0  0  0  0
 52 60  1  0  0  0  0
 53 61  1  0  0  0  0
 54 62  1  0  0  0  0
 55 62  1  0  0  0  0
 56 62  1  0  0  0  0
 57 74  1  0  0  0  0
 58 61  1  0  0  0  0
 59 62  1  0  0  0  0
 59 73  1  0  0  0  0
 60 74  1  0  0  0  0
 61 83  1  0  0  0  0
 64 65  1  0  0  0  0
M  CHG  1  74   1
M  ISO  4  39 100  61 101  71 100  83 101
M  END
> <Batch ID>
0168

> <Smiles>
CNC(C)C(=O)NC(C(=O)N1Cc2cc([101O:1][101CH:1](C)CC(=O)C(=O)Nc3cnc(F)c([100NH:0][100C:0](=O)N4CCCC(n5nc(-c6ccc(Oc7ccc(F)cc7F)cc6)c(C(N)=O)c5N)C4)c3)ccc2CC1C(=O)NC1CCCc2ccccc21)C(C)(C)C

> <Shape>
0.314

> <Color>
0.108

> <Negative vol penalty>
0.000

$$$$

  -OEChem-04052304143D

 87 95  0     1  0  0  0  0  0999 V2000
  -27.8011  -37.5296   22.9848 C   0  0  0  0  0  0  0  0  0  0  0  0
  -28.3149  -36.5651   22.1239 C   0  0  0  0  0  0  0  0  0  0  0  0
  -25.0429   -7.3013   19.7689 C   0  0  0  0  0  0  0  0  0  0  0  0
  -23.7702   -9.2992   19.2936 C   0  0  0  0  0  0  0  0  0  0  0  0
  -27.0443  -37.1435   24.0903 C   0  0  0  0  0  0  0  0  0  0  0  0
  -28.0731  -35.2138   22.3686 C   0  0  0  0  0  0  0  0  0  0  0  0
  -27.0522  -29.0129   18.9302 C   0  0  0  0  0  0  0  0  0  0  0  0
  -23.9613   -6.7815   20.4800 C   0  0  0  0  0  0  0  0  0  0  0  0
  -22.6886   -8.7794   20.0047 C   0  0  0  0  0  0  0  0  0  0  0  0
  -27.5340  -27.7049   18.9021 C   0  0  0  0  0  0  0  0  0  0  0  0
  -22.5757   -7.1666   23.5388 C   0  0  0  0  0  0  0  0  0  0  0  0
  -22.8382   -6.5717   24.7728 C   0  0  0  0  0  0  0  0  0  0  0  0
  -27.2741  -16.6617   19.1380 C   0  0  0  0  0  0  0  0  0  0  0  0
  -26.1465  -27.1593   20.7984 C   0  0  0  0  0  0  0  0  0  0  0  0
  -21.9250   -4.4870   23.9621 C   0  0  0  0  0  0  0  0  0  0  0  0
  -29.2127  -16.9603   20.4832 C   0  0  0  0  0  0  0  0  0  0  0  0
  -24.9473   -8.5602   19.1757 C   0  0  0  0  0  0  0  0  0  0  0  0
  -26.8692  -17.9444   19.4905 C   0  0  0  0  0  0  0  0  0  0  0  0
  -26.3331   -8.9426   17.0683 C   0  0  0  0  0  0  0  0  0  0  0  0
  -26.7850  -35.7873   24.3433 C   0  0  0  0  0  0  0  0  0  0  0  0
  -26.1205  -29.4074   19.9011 C   0  0  0  0  0  0  0  0  0  0  0  0
  -27.3132  -34.8091   23.4793 C   0  0  0  0  0  0  0  0  0  0  0  0
  -25.6525  -28.4722   20.8352 C   0  0  0  0  0  0  0  0  0  0  0  0
  -28.4669  -16.1529   19.6395 C   0  0  0  0  0  0  0  0  0  0  0  0
  -22.7842   -7.5205   20.5979 C   0  0  0  0  0  0  0  0  0  0  0  0
  -27.0834  -26.7786   19.8380 C   0  0  0  0  0  0  0  0  0  0  0  0
  -21.9878   -6.4217   22.5164 C   0  0  0  0  0  0  0  0  0  0  0  0
  -22.5128   -5.2319   24.9845 C   0  0  0  0  0  0  0  0  0  0  0  0
  -21.6625   -5.0819   22.7280 C   0  0  0  0  0  0  0  0  0  0  0  0
  -26.0644   -9.0979   18.4415 C   0  0  0  0  0  0  0  0  0  0  0  0
  -27.6864  -18.6715   20.3410 C   0  0  0  0  0  0  0  0  0  0  0  0
  -27.4997   -9.6387   16.8659 C   0  0  0  0  0  0  0  0  0  0  0  0
  -25.6178  -18.4687   18.9605 C   0  0  0  0  0  0  0  0  0  0  0  0
  -25.5941   -8.2328   16.0654 C   0  0  0  0  0  0  0  0  0  0  0  0
  -26.1057  -31.5362   22.2615 C   0  0  0  0  0  0  0  0  0  0  0  0
  -27.6797  -23.2350   20.6573 C   0  0  0  0  0  0  0  0  0  0  0  0
  -22.9965  -30.6484   22.5199 C   0  0  0  0  0  0  0  0  0  0  0  0
  -27.9605  -20.8674   21.5351 C   0  0  0  0  0  0  0  0  0  0  0  0
  -20.6060  -28.2751   21.9721 C   0  0  0  0  0  0  0  0  0  0  0  0
  -30.0722  -14.2131   19.7227 C   0  0  0  0  0  0  0  0  0  0  0  0
  -26.0014  -35.4160   25.5773 C   0  0  0  0  0  0  0  0  0  0  0  0
  -25.5904  -30.8151   19.9014 C   0  0  0  0  0  0  0  0  0  0  0  0
  -24.6375  -28.8401   21.8854 C   0  0  0  0  0  0  0  0  0  0  0  0
  -25.4758  -33.9829   25.5568 C   0  0  0  0  0  0  0  0  0  0  0  0
  -31.4902  -11.0002   19.1368 C   0  0  0  0  0  0  0  0  0  0  0  0
  -26.5733  -33.0180   25.1195 C   0  0  0  0  0  0  0  0  0  0  0  0
  -30.2849  -10.1350   18.7611 C   0  0  0  0  0  0  0  0  0  0  0  0
  -31.1394  -12.0237   20.2152 C   0  0  0  0  0  0  0  0  0  0  0  0
  -28.7704  -12.0024   19.5396 C   0  0  0  0  0  0  0  0  0  0  0  0
  -27.0517  -33.3346   23.6974 C   0  0  1  0  0  0  0  0  0  0  0  0
  -25.0300  -31.2422   21.2545 C   0  0  1  0  0  0  0  0  0  0  0  0
  -29.0581  -10.9996   18.4103 C   0  0  2  0  0  0  0  0  0  0  0  0
  -25.1785  -17.9778   17.6128 C   0  0  0  0  0  0  0  0  0  0  0  0
  -18.1636  -27.8208   22.3261 C   0  0  0  0  0  0  0  0  0  0  0  0
  -23.5299  -30.0949   25.4727 C   0  0  0  0  0  0  0  0  0  0  0  0
  -21.3997  -28.7812   25.5396 C   0  0  0  0  0  0  0  0  0  0  0  0
  -21.3450  -31.2159   24.9996 C   0  0  0  0  0  0  0  0  0  0  0  0
  -20.1104  -28.0350   19.0642 C   0  0  0  0  0  0  0  0  0  0  0  0
  -27.2340  -22.1926   21.6618 C   0  0  0  0  0  0  0  0  0  0  0  0
  -27.0478  -24.6048   20.8019 C   0  0  0  0  0  0  0  0  0  1  0  0
  -22.2481  -29.5871   23.2898 C   0  0  1  0  0  0  0  0  0  0  0  0
  -19.2146  -28.3666   21.3721 C   0  0  2  0  0  0  0  0  0  0  0  0
  -22.1513  -29.9130   24.8070 C   0  0  0  0  0  0  0  0  0  0  0  0
  -28.8519  -18.2109   20.8481 N   0  0  0  0  0  0  0  0  0  0  0  0
  -26.9862   -9.8346   19.0672 N   0  0  0  0  0  0  0  0  0  0  0  0
  -27.8456  -10.1484   18.0827 N   0  0  0  0  0  0  0  0  0  0  0  0
  -24.1541  -30.2302   21.8484 N   0  0  0  0  0  0  0  0  0  0  0  0
  -29.9706  -12.8087   19.8121 N   0  0  0  0  0  0  0  0  0  0  0  0
  -28.2532   -9.8582   15.7675 N   0  0  0  0  0  0  0  0  0  0  0  0
  -24.4174   -7.5725   16.4446 N   0  0  0  0  0  0  0  0  0  0  0  0
  -28.9064  -14.8497   19.2982 N   0  0  0  0  0  0  0  0  0  0  0  0
  -27.2863  -19.9788   20.7080 N   0  0  0  0  0  0  0  0  0  0  0  0
  -26.1035  -32.8388   22.7230 N   0  0  0  0  0  0  0  0  0  0  0  0
  -20.9570  -29.4363   22.6275 N   0  0  0  0  0  0  0  0  0  0  0  0
  -19.1458  -27.5893   20.1024 N   0  3  0  0  0  0  0  0  0  0  0  0
  -24.8980  -19.2869   19.5341 O   0  0  0  0  0  0  0  0  0  0  0  0
  -25.9750   -8.1717   14.8718 O   0  0  0  0  0  0  0  0  0  0  0  0
  -26.8793  -30.6468   22.5963 O   0  0  0  0  0  0  0  0  0  0  0  0
  -28.4980  -22.9858   19.7733 O   0  0  0  0  0  0  0  0  0  0  0  0
  -22.5657  -31.8042   22.5087 O   0  0  0  0  0  0  0  0  0  0  0  0
  -29.0327  -20.6928   22.1082 O   0  0  0  0  0  0  0  0  0  0  0  0
  -21.3096  -27.2723   21.8727 O   0  0  0  0  0  0  0  0  0  0  0  0
  -31.1245  -14.8051   19.9760 O   0  0  0  0  0  0  0  0  0  0  0  0
  -21.7286   -7.0135   21.2916 O   0  0  0  0  0  0  0  0  0  0  0  0
  -27.5525  -25.5015   19.8132 O   0  0  0  0  0  0  0  0  0  1  0  0
  -22.7663   -4.6603   26.1690 F   0  0  0  0  0  0  0  0  0  0  0  0
  -21.0986   -4.3609   21.7492 F   0  0  0  0  0  0  0  0  0  0  0  0
  1  2  1  0  0  0  0
  1  5  2  0  0  0  0
  2  6  2  0  0  0  0
  3  8  2  0  0  0  0
  3 17  1  0  0  0  0
  4  9  1  0  0  0  0
  4 17  2  0  0  0  0
  5 20  1  0  0  0  0
  6 22  1  0  0  0  0
  7 10  2  0  0  0  0
  7 21  1  0  0  0  0
  8 25  1  0  0  0  0
  9 25  2  0  0  0  0
 10 26  1  0  0  0  0
 11 12  2  0  0  0  0
 11 27  1  0  0  0  0
 12 28  1  0  0  0  0
 13 18  1  0  0  0  0
 13 24  2  0  0  0  0
 14 23  1  0  0  0  0
 14 26  2  0  0  0  0
 15 28  2  0  0  0  0
 15 29  1  0  0  0  0
 16 24  1  0  0  0  0
 16 64  2  0  0  0  0
 17 30  1  0  0  0  0
 18 31  2  0  0  0  0
 18 33  1  0  0  0  0
 19 30  1  0  0  0  0
 19 32  2  0  0  0  0
 19 34  1  0  0  0  0
 20 22  2  0  0  0  0
 20 41  1  0  0  0  0
 21 23  2  0  0  0  0
 21 42  1  0  0  0  0
 22 50  1  0  0  0  0
 23 43  1  0  0  0  0
 24 71  1  0  0  0  0
 25 84  1  0  0  0  0
 26 85  1  0  0  0  0
 27 29  2  0  0  0  0
 27 84  1  0  0  0  0
 28 86  1  0  0  0  0
 29 87  1  0  0  0  0
 30 65  2  0  0  0  0
 31 64  1  0  0  0  0
 31 72  1  0  0  0  0
 32 66  1  0  0  0  0
 32 69  1  0  0  0  0
 33 53  1  0  0  0  0
 33 76  2  0  0  0  0
 34 70  1  0  0  0  0
 34 77  2  0  0  0  0
 35 51  1  0  0  0  0
 35 73  1  0  0  0  0
 35 78  2  0  0  0  0
 36 59  1  0  0  0  0
 36 60  1  0  0  0  0
 36 79  2  0  0  0  0
 37 61  1  0  0  0  0
 37 67  1  0  0  0  0
 37 80  2  0  0  0  0
 38 59  1  0  0  0  0
 38 72  1  0  0  0  0
 38 81  2  0  0  0  0
 39 62  1  0  0  0  0
 39 74  1  0  0  0  0
 39 82  2  0  0  0  0
 40 68  1  0  0  0  0
 40 71  1  0  0  0  0
 40 83  2  0  0  0  0
 41 44  1  0  0  0  0
 42 51  1  0  0  0  0
 43 67  1  0  0  0  0
 44 46  1  0  0  0  0
 45 47  1  0  0  0  0
 45 48  1  0  0  0  0
 46 50  1  0  0  0  0
 47 52  1  0  0  0  0
 48 68  1  0  0  0  0
 49 52  1  0  0  0  0
 49 68  1  0  0  0  0
 50 73  1  0  0  0  0
 51 67  1  0  0  0  0
 52 66  1  0  0  0  0
 54 62  1  0  0  0  0
 55 63  1  0  0  0  0
 56 63  1  0  0  0  0
 57 63  1  0  0  0  0
 58 75  1  0  0  0  0
 60 85  1  0  0  0  0
 61 63  1  0  0  0  0
 61 74  1  0  0  0  0
 62 75  1  0  0  0  0
 65 66  1  0  0  0  0
M  CHG  1  75   1
M  ISO  4  40 100  60 101  71 100  85 101
M  END
> <Batch ID>
0168

> <Smiles>
CNC(C)C(=O)NC(C(=O)N1Cc2cc([101O:1][101CH2:1]C(=O)CC(=O)Nc3ncc([100NH:0][100C:0](=O)N4CCCC(n5nc(-c6ccc(Oc7ccc(F)cc7F)cc6)c(C(N)=O)c5N)C4)cc3C(C)=O)ccc2CC1C(=O)NC1CCCc2ccccc21)C(C)(C)C

> <Shape>
0.294

> <Color>
0.089

> <Negative vol penalty>
0.000

$$$$

  -OEChem-04052304143D

 84 92  0     1  0  0  0  0  0999 V2000
  -34.4844  -32.0364   21.2466 C   0  0  0  0  0  0  0  0  0  0  0  0
  -34.0772  -30.9102   21.9546 C   0  0  0  0  0  0  0  0  0  0  0  0
  -23.0463   -9.8476   19.9394 C   0  0  0  0  0  0  0  0  0  0  0  0
  -23.7737   -9.8604   22.2433 C   0  0  0  0  0  0  0  0  0  0  0  0
  -33.7661  -32.4512   20.1259 C   0  0  0  0  0  0  0  0  0  0  0  0
  -32.9509  -30.1987   21.5430 C   0  0  0  0  0  0  0  0  0  0  0  0
  -33.6993  -25.1903   21.5710 C   0  0  0  0  0  0  0  0  0  0  0  0
  -22.3031   -8.6921   20.1805 C   0  0  0  0  0  0  0  0  0  0  0  0
  -23.0304   -8.7049   22.4844 C   0  0  0  0  0  0  0  0  0  0  0  0
  -33.6463  -24.5455   22.8060 C   0  0  0  0  0  0  0  0  0  0  0  0
  -23.3410   -5.3832   21.9358 C   0  0  0  0  0  0  0  0  0  0  0  0
  -23.9500   -4.3611   22.6638 C   0  0  0  0  0  0  0  0  0  0  0  0
  -30.5756  -18.7036   23.6789 C   0  0  0  0  0  0  0  0  0  0  0  0
  -32.3631  -17.1196   24.0430 C   0  0  0  0  0  0  0  0  0  0  0  0
  -31.3911  -23.8334   22.3307 C   0  0  0  0  0  0  0  0  0  0  0  0
  -22.2240   -4.5309   24.3459 C   0  0  0  0  0  0  0  0  0  0  0  0
  -23.7816  -10.4317   20.9708 C   0  0  0  0  0  0  0  0  0  0  0  0
  -31.7630  -18.3483   24.3187 C   0  0  0  0  0  0  0  0  0  0  0  0
  -24.1161  -12.9579   20.8522 C   0  0  0  0  0  0  0  0  0  0  0  0
  -32.6360  -31.7388   19.6946 C   0  0  0  0  0  0  0  0  0  0  0  0
  -32.5928  -25.1707   20.7098 C   0  0  0  0  0  0  0  0  0  0  0  0
  -32.2160  -30.6051   20.4162 C   0  0  0  0  0  0  0  0  0  0  0  0
  -31.4334  -24.4765   21.0842 C   0  0  0  0  0  0  0  0  0  0  0  0
  -29.9882  -17.8303   22.7635 C   0  0  0  0  0  0  0  0  0  0  0  0
  -30.5883  -16.6017   22.4878 C   0  0  0  0  0  0  0  0  0  0  0  0
  -22.2951   -8.1208   21.4529 C   0  0  0  0  0  0  0  0  0  0  0  0
  -32.4911  -23.8694   23.1872 C   0  0  0  0  0  0  0  0  0  0  0  0
  -22.1736   -5.9793   22.4129 C   0  0  0  0  0  0  0  0  0  0  0  0
  -23.3915   -3.9349   23.8688 C   0  0  0  0  0  0  0  0  0  0  0  0
  -31.7758  -16.2463   23.1276 C   0  0  0  0  0  0  0  0  0  0  0  0
  -21.6151   -5.5531   23.6179 C   0  0  0  0  0  0  0  0  0  0  0  0
  -24.5500  -11.6250   20.7223 C   0  0  0  0  0  0  0  0  0  0  0  0
  -25.2106  -13.7108   20.5033 C   0  0  0  0  0  0  0  0  0  0  0  0
  -32.3849  -19.2709   25.2895 C   0  0  0  0  0  0  0  0  0  0  0  0
  -22.8380  -13.4697   21.2524 C   0  0  0  0  0  0  0  0  0  0  0  0
  -30.6770  -27.3825   19.4682 C   0  0  0  0  0  0  0  0  0  0  0  0
  -29.4759  -24.8594   17.8208 C   0  0  0  0  0  0  0  0  0  0  0  0
  -28.9969  -21.4857   17.6322 C   0  0  0  0  0  0  0  0  0  0  0  0
  -30.6701  -14.7762   20.7537 C   0  0  0  0  0  0  0  0  0  0  0  0
  -31.8641  -32.2529   18.5052 C   0  0  0  0  0  0  0  0  0  0  0  0
  -32.6753  -25.8485   19.3696 C   0  0  0  0  0  0  0  0  0  0  0  0
  -30.2254  -24.4083   20.1872 C   0  0  0  0  0  0  0  0  0  0  0  0
  -30.9006  -31.2267   17.9146 C   0  0  0  0  0  0  0  0  0  0  0  0
  -29.5978  -12.3552   18.3732 C   0  0  0  0  0  0  0  0  0  0  0  0
  -30.0958  -30.5517   19.0207 C   0  0  0  0  0  0  0  0  0  0  0  0
  -28.1533  -12.0591   18.7829 C   0  0  0  0  0  0  0  0  0  0  0  0
  -30.4950  -12.5889   19.5874 C   0  0  0  0  0  0  0  0  0  0  0  0
  -28.5662  -13.3084   20.9406 C   0  0  0  0  0  0  0  0  0  0  0  0
  -31.0139  -29.7926   19.9863 C   0  0  1  0  0  0  0  0  0  0  0  0
  -31.3075  -26.1982   18.7916 C   0  0  1  0  0  0  0  0  0  0  0  0
  -27.6107  -13.1301   19.7494 C   0  0  2  0  0  0  0  0  0  0  0  0
  -27.9478  -19.7228   16.1869 C   0  0  0  0  0  0  0  0  0  0  0  0
  -26.7173  -25.6619   18.8484 C   0  0  0  0  0  0  0  0  0  0  0  0
  -25.8881  -23.3939   18.1875 C   0  0  0  0  0  0  0  0  0  0  0  0
  -26.7716  -24.9518   16.4511 C   0  0  0  0  0  0  0  0  0  0  0  0
  -31.5976  -20.1498   17.1733 C   0  0  0  0  0  0  0  0  0  0  0  0
  -33.3789  -21.4872   25.7331 C   0  0  0  0  0  0  0  0  0  0  0  0
  -33.6628  -22.7309   24.9155 C   0  0  0  0  0  0  0  0  0  1  0  0
  -28.3795  -23.8499   18.0611 C   0  0  1  0  0  0  0  0  0  0  0  0
  -29.2177  -20.4987   16.5002 C   0  0  2  0  0  0  0  0  0  0  0  0
  -26.9610  -24.4671   17.9050 C   0  0  0  0  0  0  0  0  0  0  0  0
  -25.8210  -11.5331   20.3221 N   0  0  0  0  0  0  0  0  0  0  0  0
  -26.1951  -12.8179   20.1973 N   0  0  0  0  0  0  0  0  0  0  0  0
  -30.3529  -25.0922   18.8897 N   0  0  0  0  0  0  0  0  0  0  0  0
  -29.9201  -13.6189   20.4553 N   0  0  0  0  0  0  0  0  0  0  0  0
  -28.7850  -18.2102   22.1273 N   0  0  0  0  0  0  0  0  0  0  0  0
  -25.4173  -15.0429   20.4314 N   0  0  0  0  0  0  0  0  0  0  0  0
  -32.5502  -18.8466   26.5424 N   0  0  0  0  0  0  0  0  0  0  0  0
  -21.8247  -12.5574   21.5766 N   0  0  0  0  0  0  0  0  0  0  0  0
  -30.0079  -15.7000   21.5616 N   0  0  0  0  0  0  0  0  0  0  0  0
  -31.4338  -28.5368   19.4024 N   0  0  0  0  0  0  0  0  0  0  0  0
  -28.6479  -22.7337   17.1609 N   0  0  0  0  0  0  0  0  0  0  0  0
  -32.7500  -20.4872   24.8667 N   0  3  0  0  0  0  0  0  0  0  0  0
  -30.2860  -19.5250   16.8629 N   0  3  0  0  0  0  0  0  0  0  0  0
  -22.5966  -14.6996   21.3047 O   0  0  0  0  0  0  0  0  0  0  0  0
  -29.5842  -27.2585   20.0085 O   0  0  0  0  0  0  0  0  0  0  0  0
  -29.5558  -25.4155   16.7226 O   0  0  0  0  0  0  0  0  0  0  0  0
  -29.1180  -21.1793   18.8162 O   0  0  0  0  0  0  0  0  0  0  0  0
  -31.8050  -14.9483   20.3018 O   0  0  0  0  0  0  0  0  0  0  0  0
  -21.5698   -6.9934   21.6886 O   0  0  0  0  0  0  0  0  0  0  0  0
  -32.4365  -23.2397   24.3924 O   0  0  0  0  0  0  0  0  0  1  0  0
  -23.9755   -2.9523   24.5670 F   0  0  0  0  0  0  0  0  0  0  0  0
  -32.3624  -15.0684   22.8709 F   0  0  0  0  0  0  0  0  0  0  0  0
  -20.4930   -6.1211   24.0807 F   0  0  0  0  0  0  0  0  0  0  0  0
  1  2  1  0  0  0  0
  1  5  2  0  0  0  0
  2  6  2  0  0  0  0
  3  8  2  0  0  0  0
  3 17  1  0  0  0  0
  4  9  1  0  0  0  0
  4 17  2  0  0  0  0
  5 20  1  0  0  0  0
  6 22  1  0  0  0  0
  7 10  2  0  0  0  0
  7 21  1  0  0  0  0
  8 26  1  0  0  0  0
  9 26  2  0  0  0  0
 10 27  1  0  0  0  0
 11 12  2  0  0  0  0
 11 28  1  0  0  0  0
 12 29  1  0  0  0  0
 13 18  1  0  0  0  0
 13 24  2  0  0  0  0
 14 18  2  0  0  0  0
 14 30  1  0  0  0  0
 15 23  1  0  0  0  0
 15 27  2  0  0  0  0
 16 29  2  0  0  0  0
 16 31  1  0  0  0  0
 17 32  1  0  0  0  0
 18 34  1  0  0  0  0
 19 32  1  0  0  0  0
 19 33  2  0  0  0  0
 19 35  1  0  0  0  0
 20 22  2  0  0  0  0
 20 40  1  0  0  0  0
 21 23  2  0  0  0  0
 21 41  1  0  0  0  0
 22 49  1  0  0  0  0
 23 42  1  0  0  0  0
 24 25  1  0  0  0  0
 24 66  1  0  0  0  0
 25 30  2  0  0  0  0
 25 70  1  0  0  0  0
 26 80  1  0  0  0  0
 27 81  1  0  0  0  0
 28 31  2  0  0  0  0
 28 80  1  0  0  0  0
 29 82  1  0  0  0  0
 30 83  1  0  0  0  0
 31 84  1  0  0  0  0
 32 62  2  0  0  0  0
 33 63  1  0  0  0  0
 33 67  1  0  0  0  0
 34 68  1  0  0  0  0
 34 73  2  0  0  0  0
 35 69  1  0  0  0  0
 35 75  2  0  0  0  0
 36 50  1  0  0  0  0
 36 71  1  0  0  0  0
 36 76  2  0  0  0  0
 37 59  1  0  0  0  0
 37 64  1  0  0  0  0
 37 77  2  0  0  0  0
 38 60  1  0  0  0  0
 38 72  1  0  0  0  0
 38 78  2  0  0  0  0
 39 65  1  0  0  0  0
 39 70  1  0  0  0  0
 39 79  2  0  0  0  0
 40 43  1  0  0  0  0
 41 50  1  0  0  0  0
 42 64  1  0  0  0  0
 43 45  1  0  0  0  0
 44 46  1  0  0  0  0
 44 47  1  0  0  0  0
 45 49  1  0  0  0  0
 46 51  1  0  0  0  0
 47 65  1  0  0  0  0
 48 51  1  0  0  0  0
 48 65  1  0  0  0  0
 49 71  1  0  0  0  0
 50 64  1  0  0  0  0
 51 63  1  0  0  0  0
 52 60  1  0  0  0  0
 53 61  1  0  0  0  0
 54 61  1  0  0  0  0
 55 61  1  0  0  0  0
 56 74  1  0  0  0  0
 57 58  1  0  0  0  0
 57 73  1  0  0  0  0
 58 81  1  0  0  0  0
 59 61  1  0  0  0  0
 59 72  1  0  0  0  0
 60 74  1  0  0  0  0
 62 63  1  0  0  0  0
M  CHG  2  73   1  74   1
M  ISO  4  39 100  58 101  70 100  81 101
M  END
> <Batch ID>
0168

> <Smiles>
CNC(C)C(=O)NC(C(=O)N1Cc2cc([101O:1][101CH2:1]CNC(=N)c3cc(N)c([100NH:0][100C:0](=O)N4CCCC(n5nc(-c6ccc(Oc7ccc(F)cc7F)cc6)c(C(N)=O)c5N)C4)c(F)c3)ccc2CC1C(=O)NC1CCCc2ccccc21)C(C)(C)C

> <Shape>
0.246

> <Color>
0.193

> <Negative vol penalty>
0.000

$$$$

  -OEChem-04052304143D

 86 94  0     1  0  0  0  0  0999 V2000
  -28.3777  -24.0912   17.3050 C   0  0  0  0  0  0  0  0  0  0  0  0
  -27.2146  -24.7839   17.6217 C   0  0  0  0  0  0  0  0  0  0  0  0
  -25.0361  -12.6471   19.4704 C   0  0  0  0  0  0  0  0  0  0  0  0
  -24.9405  -13.1518   21.8312 C   0  0  0  0  0  0  0  0  0  0  0  0
  -29.5116  -24.2400   18.1009 C   0  0  0  0  0  0  0  0  0  0  0  0
  -27.1886  -25.6347   18.7273 C   0  0  0  0  0  0  0  0  0  0  0  0
  -23.1480  -28.3723   19.3459 C   0  0  0  0  0  0  0  0  0  0  0  0
  -25.9214  -23.7162   22.5866 C   0  0  0  0  0  0  0  0  0  0  0  0
  -25.2425  -11.2999   19.7668 C   0  0  0  0  0  0  0  0  0  0  0  0
  -25.1468  -11.8045   22.1275 C   0  0  0  0  0  0  0  0  0  0  0  0
  -21.9290  -27.8347   19.7566 C   0  0  0  0  0  0  0  0  0  0  0  0
  -23.3171   -8.9643   22.2045 C   0  0  0  0  0  0  0  0  0  0  0  0
  -25.4827  -24.7461   23.4188 C   0  0  0  0  0  0  0  0  0  0  0  0
  -22.5139   -8.3884   23.1887 C   0  0  0  0  0  0  0  0  0  0  0  0
  -22.2956  -28.7122   21.9735 C   0  0  0  0  0  0  0  0  0  0  0  0
  -23.6931  -22.7826   22.5675 C   0  0  0  0  0  0  0  0  0  0  0  0
  -24.4819   -7.8664   24.4894 C   0  0  0  0  0  0  0  0  0  0  0  0
  -24.8852  -13.5732   20.5026 C   0  0  0  0  0  0  0  0  0  0  0  0
  -23.4383  -15.6152   20.0083 C   0  0  0  0  0  0  0  0  0  0  0  0
  -29.4948  -25.0836   19.2238 C   0  0  0  0  0  0  0  0  0  0  0  0
  -23.9565  -29.0757   20.2504 C   0  0  0  0  0  0  0  0  0  0  0  0
  -28.3300  -25.8167   19.5290 C   0  0  0  0  0  0  0  0  0  0  0  0
  -23.5233  -29.2599   21.5712 C   0  0  0  0  0  0  0  0  0  0  0  0
  -23.2545  -23.8125   23.3997 C   0  0  0  0  0  0  0  0  0  0  0  0
  -25.0265  -22.7345   22.1609 C   0  0  0  0  0  0  0  0  0  0  0  0
  -25.2977  -10.8785   21.0953 C   0  0  0  0  0  0  0  0  0  0  0  0
  -21.5039  -28.0021   21.0713 C   0  0  0  0  0  0  0  0  0  0  0  0
  -24.7028   -8.9911   22.3626 C   0  0  0  0  0  0  0  0  0  0  0  0
  -23.0962   -7.8395   24.3312 C   0  0  0  0  0  0  0  0  0  0  0  0
  -24.1493  -24.7943   23.8253 C   0  0  0  0  0  0  0  0  0  0  0  0
  -25.2851   -8.4422   23.5050 C   0  0  0  0  0  0  0  0  0  0  0  0
  -24.6726  -14.9651   20.1971 C   0  0  0  0  0  0  0  0  0  0  0  0
  -23.7745  -16.9203   19.7438 C   0  0  0  0  0  0  0  0  0  0  0  0
  -22.1068  -15.0865   20.0670 C   0  0  0  0  0  0  0  0  0  0  0  0
  -26.8788  -28.6685   21.4327 C   0  0  0  0  0  0  0  0  0  0  0  0
  -26.3253  -31.5766   22.7588 C   0  0  0  0  0  0  0  0  0  0  0  0
  -24.0538  -33.8866   23.8318 C   0  0  0  0  0  0  0  0  0  0  0  0
  -19.7970  -25.0482   23.0309 C   0  0  0  0  0  0  0  0  0  0  0  0
  -26.7612  -21.4948   20.8192 C   0  0  0  0  0  0  0  0  0  0  0  0
  -30.7527  -25.2135   20.0461 C   0  0  0  0  0  0  0  0  0  0  0  0
  -25.2563  -29.6724   19.7848 C   0  0  0  0  0  0  0  0  0  0  0  0
  -24.3448  -30.0243   22.5759 C   0  0  0  0  0  0  0  0  0  0  0  0
  -30.4972  -25.7840   21.4373 C   0  0  0  0  0  0  0  0  0  0  0  0
  -28.2668  -19.0264   18.7413 C   0  0  0  0  0  0  0  0  0  0  0  0
  -29.6483  -27.0424   21.3352 C   0  0  0  0  0  0  0  0  0  0  0  0
  -27.3644  -17.8032   18.9193 C   0  0  0  0  0  0  0  0  0  0  0  0
  -28.4179  -19.8137   20.0417 C   0  0  0  0  0  0  0  0  0  0  0  0
  -26.2527  -18.9739   20.8637 C   0  0  0  0  0  0  0  0  0  0  0  0
  -28.2689  -26.7241   20.7444 C   0  0  1  0  0  0  0  0  0  0  0  0
  -26.2381  -29.9288   20.9240 C   0  0  1  0  0  0  0  0  0  0  0  0
  -26.0180  -18.1854   19.5649 C   0  0  2  0  0  0  0  0  0  0  0  0
  -23.9028  -36.1504   24.9042 C   0  0  0  0  0  0  0  0  0  0  0  0
  -17.7518  -26.2432   22.1727 C   0  0  0  0  0  0  0  0  0  0  0  0
  -18.5392  -24.1621   21.0408 C   0  0  0  0  0  0  0  0  0  0  0  0
  -27.0411  -30.3438   25.4565 C   0  0  0  0  0  0  0  0  0  0  0  0
  -25.9764  -32.3206   26.5640 C   0  0  0  0  0  0  0  0  0  0  0  0
  -27.9579  -32.6404   25.0829 C   0  0  0  0  0  0  0  0  0  0  0  0
  -22.6361  -35.0262   21.4972 C   0  0  0  0  0  0  0  0  0  0  0  0
  -21.8185  -23.8631   23.8351 C   0  0  0  0  0  0  0  0  0  0  0  0
  -19.8725  -26.2902   20.8190 C   0  0  0  0  0  0  0  0  0  1  0  0
  -25.7217  -32.0637   24.0540 C   0  0  1  0  0  0  0  0  0  0  0  0
  -23.9481  -35.3820   23.5926 C   0  0  2  0  0  0  0  0  0  0  0  0
  -19.0004  -25.4417   21.7663 C   0  0  0  0  0  0  0  0  0  0  0  0
  -26.6595  -31.8260   25.2712 C   0  0  0  0  0  0  0  0  0  0  0  0
  -25.7151  -15.7894   20.0637 N   0  0  0  0  0  0  0  0  0  0  0  0
  -25.1367  -16.9707   19.7881 N   0  0  0  0  0  0  0  0  0  0  0  0
  -25.6110  -30.5833   22.0741 N   0  0  0  0  0  0  0  0  0  0  0  0
  -27.1021  -20.1444   20.5932 N   0  0  0  0  0  0  0  0  0  0  0  0
  -23.0348  -18.0183   19.4798 N   0  0  0  0  0  0  0  0  0  0  0  0
  -21.9408  -13.7240   20.3507 N   0  0  0  0  0  0  0  0  0  0  0  0
  -25.4724  -21.6889   21.3148 N   0  0  0  0  0  0  0  0  0  0  0  0
  -27.5755  -27.9633   20.4700 N   0  0  0  0  0  0  0  0  0  0  0  0
  -20.9485  -24.3181   22.7763 N   0  0  0  0  0  0  0  0  0  0  0  0
  -25.3656  -33.4619   23.8381 N   0  0  0  0  0  0  0  0  0  0  0  0
  -22.7130  -35.6970   22.8205 N   0  3  0  0  0  0  0  0  0  0  0  0
  -21.0950  -15.7976   19.8572 O   0  0  0  0  0  0  0  0  0  0  0  0
  -26.7518  -28.3595   22.6118 O   0  0  0  0  0  0  0  0  0  0  0  0
  -27.3876  -32.0649   22.3654 O   0  0  0  0  0  0  0  0  0  0  0  0
  -23.0711  -33.1679   24.0002 O   0  0  0  0  0  0  0  0  0  0  0  0
  -19.4288  -25.3629   24.1632 O   0  0  0  0  0  0  0  0  0  0  0  0
  -27.5445  -22.4132   20.5642 O   0  0  0  0  0  0  0  0  0  0  0  0
  -25.4988   -9.5639   21.3849 O   0  0  0  0  0  0  0  0  0  0  0  0
  -20.3148  -27.4779   21.4749 O   0  0  0  0  0  0  0  0  0  1  0  0
  -22.3246   -7.2880   25.2770 F   0  0  0  0  0  0  0  0  0  0  0  0
  -23.7376  -25.7871   24.6260 F   0  0  0  0  0  0  0  0  0  0  0  0
  -26.6156   -8.4661   23.6631 F   0  0  0  0  0  0  0  0  0  0  0  0
  1  2  1  0  0  0  0
  1  5  2  0  0  0  0
  2  6  2  0  0  0  0
  3  9  2  0  0  0  0
  3 18  1  0  0  0  0
  4 10  1  0  0  0  0
  4 18  2  0  0  0  0
  5 20  1  0  0  0  0
  6 22  1  0  0  0  0
  7 11  2  0  0  0  0
  7 21  1  0  0  0  0
  8 13  2  0  0  0  0
  8 25  1  0  0  0  0
  9 26  1  0  0  0  0
 10 26  2  0  0  0  0
 11 27  1  0  0  0  0
 12 14  2  0  0  0  0
 12 28  1  0  0  0  0
 13 30  1  0  0  0  0
 14 29  1  0  0  0  0
 15 23  1  0  0  0  0
 15 27  2  0  0  0  0
 16 24  1  0  0  0  0
 16 25  2  0  0  0  0
 17 29  2  0  0  0  0
 17 31  1  0  0  0  0
 18 32  1  0  0  0  0
 19 32  1  0  0  0  0
 19 33  2  0  0  0  0
 19 34  1  0  0  0  0
 20 22  2  0  0  0  0
 20 40  1  0  0  0  0
 21 23  2  0  0  0  0
 21 41  1  0  0  0  0
 22 49  1  0  0  0  0
 23 42  1  0  0  0  0
 24 30  2  0  0  0  0
 24 59  1  0  0  0  0
 25 71  1  0  0  0  0
 26 82  1  0  0  0  0
 27 83  1  0  0  0  0
 28 31  2  0  0  0  0
 28 82  1  0  0  0  0
 29 84  1  0  0  0  0
 30 85  1  0  0  0  0
 31 86  1  0  0  0  0
 32 65  2  0  0  0  0
 33 66  1  0  0  0  0
 33 69  1  0  0  0  0
 34 70  1  0  0  0  0
 34 76  2  0  0  0  0
 35 50  1  0  0  0  0
 35 72  1  0  0  0  0
 35 77  2  0  0  0  0
 36 61  1  0  0  0  0
 36 67  1  0  0  0  0
 36 78  2  0  0  0  0
 37 62  1  0  0  0  0
 37 74  1  0  0  0  0
 37 79  2  0  0  0  0
 38 63  1  0  0  0  0
 38 73  1  0  0  0  0
 38 80  2  0  0  0  0
 39 68  1  0  0  0  0
 39 71  1  0  0  0  0
 39 81  2  0  0  0  0
 40 43  1  0  0  0  0
 41 50  1  0  0  0  0
 42 67  1  0  0  0  0
 43 45  1  0  0  0  0
 44 46  1  0  0  0  0
 44 47  1  0  0  0  0
 45 49  1  0  0  0  0
 46 51  1  0  0  0  0
 47 68  1  0  0  0  0
 48 51  1  0  0  0  0
 48 68  1  0  0  0  0
 49 72  1  0  0  0  0
 50 67  1  0  0  0  0
 51 66  1  0  0  0  0
 52 62  1  0  0  0  0
 53 63  1  0  0  0  0
 54 63  1  0  0  0  0
 55 64  1  0  0  0  0
 56 64  1  0  0  0  0
 57 64  1  0  0  0  0
 58 75  1  0  0  0  0
 59 73  1  0  0  0  0
 60 63  1  0  0  0  0
 60 83  1  0  0  0  0
 61 64  1  0  0  0  0
 61 74  1  0  0  0  0
 62 75  1  0  0  0  0
 65 66  1  0  0  0  0
M  CHG  1  75   1
M  ISO  4  39 100  60 101  71 100  83 101
M  END
> <Batch ID>
0168

> <Smiles>
CNC(C)C(=O)NC(C(=O)N1Cc2cc([101O:1][101CH2:1]C(C)(C)C(=O)NCc3cc([100NH:0][100C:0](=O)N4CCCC(n5nc(-c6ccc(Oc7ccc(F)cc7F)cc6)c(C(N)=O)c5N)C4)ccc3F)ccc2CC1C(=O)NC1CCCc2ccccc21)C(C)(C)C

> <Shape>
0.296

> <Color>
0.076

> <Negative vol penalty>
0.000

$$$$

  -OEChem-04052304143D

 90 98  0     1  0  0  0  0  0999 V2000
  -32.4103  -24.7830   17.8031 C   0  0  0  0  0  0  0  0  0  0  0  0
  -31.0822  -24.5452   18.1424 C   0  0  0  0  0  0  0  0  0  0  0  0
  -24.6876   -8.9222   21.7111 C   0  0  0  0  0  0  0  0  0  0  0  0
  -23.0401   -9.9063   20.2433 C   0  0  0  0  0  0  0  0  0  0  0  0
  -24.8079  -19.7642   17.5731 C   0  0  0  0  0  0  0  0  0  0  0  0
  -33.1676  -25.6870   18.5469 C   0  0  0  0  0  0  0  0  0  0  0  0
  -30.5110  -25.2106   19.2266 C   0  0  0  0  0  0  0  0  0  0  0  0
  -25.8915  -27.0072   18.1886 C   0  0  0  0  0  0  0  0  0  0  0  0
  -25.6548  -18.7154   17.9314 C   0  0  0  0  0  0  0  0  0  0  0  0
  -23.6675   -8.4099   22.5126 C   0  0  0  0  0  0  0  0  0  0  0  0
  -22.0199   -9.3939   21.0448 C   0  0  0  0  0  0  0  0  0  0  0  0
  -24.8363  -26.0960   18.2011 C   0  0  0  0  0  0  0  0  0  0  0  0
  -21.5158   -5.8025   22.4423 C   0  0  0  0  0  0  0  0  0  0  0  0
  -21.6267   -4.4778   22.8647 C   0  0  0  0  0  0  0  0  0  0  0  0
  -24.2258  -26.8423   20.4123 C   0  0  0  0  0  0  0  0  0  0  0  0
  -24.2252  -17.1605   16.7584 C   0  0  0  0  0  0  0  0  0  0  0  0
  -21.6036   -5.2101   25.1670 C   0  0  0  0  0  0  0  0  0  0  0  0
  -24.3739   -9.6705   20.5764 C   0  0  0  0  0  0  0  0  0  0  0  0
  -23.6696  -19.5112   16.8076 C   0  0  0  0  0  0  0  0  0  0  0  0
  -26.0369   -9.5750   18.6444 C   0  0  0  0  0  0  0  0  0  0  0  0
  -32.6025  -26.3709   19.6348 C   0  0  0  0  0  0  0  0  0  0  0  0
  -26.1287  -27.8365   19.2942 C   0  0  0  0  0  0  0  0  0  0  0  0
  -31.2618  -26.1235   19.9865 C   0  0  0  0  0  0  0  0  0  0  0  0
  -25.2831  -27.7650   20.4104 C   0  0  0  0  0  0  0  0  0  0  0  0
  -25.3634  -17.4136   17.5240 C   0  0  0  0  0  0  0  0  0  0  0  0
  -22.3337   -8.6457   22.1795 C   0  0  0  0  0  0  0  0  0  0  0  0
  -24.0050  -26.0114   19.3141 C   0  0  0  0  0  0  0  0  0  0  0  0
  -21.4489   -6.8310   23.3822 C   0  0  0  0  0  0  0  0  0  0  0  0
  -21.6706   -4.1816   24.2270 C   0  0  0  0  0  0  0  0  0  0  0  0
  -23.3783  -18.2094   16.4002 C   0  0  0  0  0  0  0  0  0  0  0  0
  -21.4927   -6.5348   24.7445 C   0  0  0  0  0  0  0  0  0  0  0  0
  -25.4272  -10.2005   19.7484 C   0  0  0  0  0  0  0  0  0  0  0  0
  -26.9689  -10.4839   18.2063 C   0  0  0  0  0  0  0  0  0  0  0  0
  -22.7747  -20.6237   16.4304 C   0  0  0  0  0  0  0  0  0  0  0  0
  -25.7835   -8.2876   18.0665 C   0  0  0  0  0  0  0  0  0  0  0  0
  -28.5332  -28.2167   21.3381 C   0  0  0  0  0  0  0  0  0  0  0  0
  -21.6128  -23.3827   18.3357 C   0  0  0  0  0  0  0  0  0  0  0  0
  -26.7297  -30.6972   22.3947 C   0  0  0  0  0  0  0  0  0  0  0  0
  -23.6402  -32.1191   22.6775 C   0  0  0  0  0  0  0  0  0  0  0  0
  -27.3936  -16.4281   18.6436 C   0  0  0  0  0  0  0  0  0  0  0  0
  -33.4742  -27.3034   20.4381 C   0  0  0  0  0  0  0  0  0  0  0  0
  -27.2549  -28.8329   19.2544 C   0  0  0  0  0  0  0  0  0  0  0  0
  -25.4829  -28.6473   21.6145 C   0  0  0  0  0  0  0  0  0  0  0  0
  -32.6854  -28.2474   21.3419 C   0  0  0  0  0  0  0  0  0  0  0  0
  -29.7684  -14.0338   19.7859 C   0  0  0  0  0  0  0  0  0  0  0  0
  -31.6083  -27.4815   22.1035 C   0  0  0  0  0  0  0  0  0  0  0  0
  -28.9818  -12.7210   19.7996 C   0  0  0  0  0  0  0  0  0  0  0  0
  -28.9011  -15.2190   20.2060 C   0  0  0  0  0  0  0  0  0  0  0  0
  -26.8589  -14.0526   19.4723 C   0  0  0  0  0  0  0  0  0  0  0  0
  -30.5993  -26.8443   21.1405 C   0  0  1  0  0  0  0  0  0  0  0  0
  -27.7168  -29.2683   20.6416 C   0  0  1  0  0  0  0  0  0  0  0  0
  -27.6734  -12.8396   18.9937 C   0  0  2  0  0  0  0  0  0  0  0  0
  -22.4765  -34.1300   23.6259 C   0  0  0  0  0  0  0  0  0  0  0  0
  -17.3825  -22.3325   16.5969 C   0  0  0  0  0  0  0  0  0  0  0  0
  -19.1440  -23.2810   15.1048 C   0  0  0  0  0  0  0  0  0  0  0  0
  -18.7915  -24.2501   17.3784 C   0  0  0  0  0  0  0  0  0  0  0  0
  -26.9459  -29.4997   25.1927 C   0  0  0  0  0  0  0  0  0  0  0  0
  -25.0373  -30.9621   25.8904 C   0  0  0  0  0  0  0  0  0  0  0  0
  -27.1700  -31.9889   25.1032 C   0  0  0  0  0  0  0  0  0  0  0  0
  -22.7110  -32.9863   20.0048 C   0  0  0  0  0  0  0  0  0  0  0  0
  -22.8034  -24.3073   18.1705 C   0  0  0  0  0  0  0  0  0  1  0  0
  -19.8671  -21.9541   17.1029 C   0  0  0  0  0  0  0  0  0  0  0  0
  -21.3069  -22.4709   17.1587 C   0  0  2  0  0  0  0  0  0  0  0  0
  -25.6439  -30.8648   23.4300 C   0  0  1  0  0  0  0  0  0  0  0  0
  -23.1516  -33.5298   22.4025 C   0  0  2  0  0  0  0  0  0  0  0  0
  -18.7922  -22.9422   16.5680 C   0  0  0  0  0  0  0  0  0  0  0  0
  -26.1965  -30.8107   24.8823 C   0  0  0  0  0  0  0  0  0  0  0  0
  -25.9297  -11.4130   19.9964 N   0  0  0  0  0  0  0  0  0  0  0  0
  -26.8650  -11.5566   19.0421 N   0  0  0  0  0  0  0  0  0  0  0  0
  -26.6014  -29.6009   21.5301 N   0  0  0  0  0  0  0  0  0  0  0  0
  -27.6814  -15.2702   19.3968 N   0  0  0  0  0  0  0  0  0  0  0  0
  -27.8589  -10.4621   17.1915 N   0  0  0  0  0  0  0  0  0  0  0  0
  -24.7914   -7.4811   18.6406 N   0  0  0  0  0  0  0  0  0  0  0  0
  -26.2242  -16.3486   17.8881 N   0  0  0  0  0  0  0  0  0  0  0  0
  -22.1974  -21.3351   17.4065 N   0  0  0  0  0  0  0  0  0  0  0  0
  -29.6707  -27.8400   20.6498 N   0  0  0  0  0  0  0  0  0  0  0  0
  -24.9528  -32.1064   23.0995 N   0  0  0  0  0  0  0  0  0  0  0  0
  -22.5833  -20.8639   15.1332 N   0  3  0  0  0  0  0  0  0  0  0  0
  -22.1729  -33.5292   21.2786 N   0  3  0  0  0  0  0  0  0  0  0  0
  -26.4293   -7.8581   17.0806 O   0  0  0  0  0  0  0  0  0  0  0  0
  -28.1597  -27.7804   22.4206 O   0  0  0  0  0  0  0  0  0  0  0  0
  -20.9599  -23.3486   19.3782 O   0  0  0  0  0  0  0  0  0  0  0  0
  -27.6537  -31.5132   22.3499 O   0  0  0  0  0  0  0  0  0  0  0  0
  -22.9275  -31.1279   22.5360 O   0  0  0  0  0  0  0  0  0  0  0  0
  -28.1445  -17.4069   18.6458 O   0  0  0  0  0  0  0  0  0  0  0  0
  -21.3380   -8.1456   22.9612 O   0  0  0  0  0  0  0  0  0  0  0  0
  -22.9748  -25.1224   19.3292 O   0  0  0  0  0  0  0  0  0  1  0  0
  -21.7755   -2.9093   24.6326 F   0  0  0  0  0  0  0  0  0  0  0  0
  -22.2858  -17.9561   15.6660 F   0  0  0  0  0  0  0  0  0  0  0  0
  -21.4276   -7.5185   25.6522 F   0  0  0  0  0  0  0  0  0  0  0  0
  1  2  1  0  0  0  0
  1  6  2  0  0  0  0
  2  7  2  0  0  0  0
  3 10  2  0  0  0  0
  3 18  1  0  0  0  0
  4 11  1  0  0  0  0
  4 18  2  0  0  0  0
  5  9  2  0  0  0  0
  5 19  1  0  0  0  0
  6 21  1  0  0  0  0
  7 23  1  0  0  0  0
  8 12  2  0  0  0  0
  8 22  1  0  0  0  0
  9 25  1  0  0  0  0
 10 26  1  0  0  0  0
 11 26  2  0  0  0  0
 12 27  1  0  0  0  0
 13 14  2  0  0  0  0
 13 28  1  0  0  0  0
 14 29  1  0  0  0  0
 15 24  1  0  0  0  0
 15 27  2  0  0  0  0
 16 25  2  0  0  0  0
 16 30  1  0  0  0  0
 17 29  2  0  0  0  0
 17 31  1  0  0  0  0
 18 32  1  0  0  0  0
 19 30  2  0  0  0  0
 19 34  1  0  0  0  0
 20 32  1  0  0  0  0
 20 33  2  0  0  0  0
 20 35  1  0  0  0  0
 21 23  2  0  0  0  0
 21 41  1  0  0  0  0
 22 24  2  0  0  0  0
 22 42  1  0  0  0  0
 23 50  1  0  0  0  0
 24 43  1  0  0  0  0
 25 74  1  0  0  0  0
 26 86  1  0  0  0  0
 27 87  1  0  0  0  0
 28 31  2  0  0  0  0
 28 86  1  0  0  0  0
 29 88  1  0  0  0  0
 30 89  1  0  0  0  0
 31 90  1  0  0  0  0
 32 68  2  0  0  0  0
 33 69  1  0  0  0  0
 33 72  1  0  0  0  0
 34 75  1  0  0  0  0
 34 78  2  0  0  0  0
 35 73  1  0  0  0  0
 35 80  2  0  0  0  0
 36 51  1  0  0  0  0
 36 76  1  0  0  0  0
 36 81  2  0  0  0  0
 37 61  1  0  0  0  0
 37 63  1  0  0  0  0
 37 82  2  0  0  0  0
 38 64  1  0  0  0  0
 38 70  1  0  0  0  0
 38 83  2  0  0  0  0
 39 65  1  0  0  0  0
 39 77  1  0  0  0  0
 39 84  2  0  0  0  0
 40 71  1  0  0  0  0
 40 74  1  0  0  0  0
 40 85  2  0  0  0  0
 41 44  1  0  0  0  0
 42 51  1  0  0  0  0
 43 70  1  0  0  0  0
 44 46  1  0  0  0  0
 45 47  1  0  0  0  0
 45 48  1  0  0  0  0
 46 50  1  0  0  0  0
 47 52  1  0  0  0  0
 48 71  1  0  0  0  0
 49 52  1  0  0  0  0
 49 71  1  0  0  0  0
 50 76  1  0  0  0  0
 51 70  1  0  0  0  0
 52 69  1  0  0  0  0
 53 65  1  0  0  0  0
 54 66  1  0  0  0  0
 55 66  1  0  0  0  0
 56 66  1  0  0  0  0
 57 67  1  0  0  0  0
 58 67  1  0  0  0  0
 59 67  1  0  0  0  0
 60 79  1  0  0  0  0
 61 87  1  0  0  0  0
 62 63  1  0  0  0  0
 62 66  1  0  0  0  0
 63 75  1  0  0  0  0
 64 67  1  0  0  0  0
 64 77  1  0  0  0  0
 65 79  1  0  0  0  0
 68 69  1  0  0  0  0
M  CHG  2  78   1  79   1
M  ISO  4  40 100  61 101  74 100  87 101
M  END
> <Batch ID>
0168

> <Smiles>
CNC(C)C(=O)NC(C(=O)N1Cc2cc([101O:1][101CH2:1]C(=O)C(CC(C)(C)C)NC(=N)c3ccc([100NH:0][100C:0](=O)N4CCCC(n5nc(-c6ccc(Oc7ccc(F)cc7F)cc6)c(C(N)=O)c5N)C4)cc3F)ccc2CC1C(=O)NC1CCCc2ccccc21)C(C)(C)C

> <Shape>
0.252

> <Color>
0.073

> <Negative vol penalty>
0.000

$$$$

  -OEChem-04052304143D

 86 94  0     1  0  0  0  0  0999 V2000
  -29.8523  -11.8413   19.8511 C   0  0  0  0  0  0  0  0  0  0  0  0
  -29.5684  -12.6117   20.9741 C   0  0  0  0  0  0  0  0  0  0  0  0
  -25.4606  -26.8500   18.9469 C   0  0  0  0  0  0  0  0  0  0  0  0
  -25.5674  -26.2265   21.2786 C   0  0  0  0  0  0  0  0  0  0  0  0
  -29.2079  -12.1073   18.6436 C   0  0  0  0  0  0  0  0  0  0  0  0
  -28.6408  -13.6494   20.8901 C   0  0  0  0  0  0  0  0  0  0  0  0
  -25.4317  -13.7085   24.8072 C   0  0  0  0  0  0  0  0  0  0  0  0
  -24.2109  -27.4319   19.1597 C   0  0  0  0  0  0  0  0  0  0  0  0
  -24.3177  -26.8084   21.4914 C   0  0  0  0  0  0  0  0  0  0  0  0
  -25.9029  -14.2366   26.0084 C   0  0  0  0  0  0  0  0  0  0  0  0
  -20.9961  -27.8122   22.5727 C   0  0  0  0  0  0  0  0  0  0  0  0
  -20.0685  -27.0972   23.3303 C   0  0  0  0  0  0  0  0  0  0  0  0
  -24.7756  -16.3149   25.5298 C   0  0  0  0  0  0  0  0  0  0  0  0
  -29.3610  -19.2352   23.6943 C   0  0  0  0  0  0  0  0  0  0  0  0
  -30.0421  -17.4966   22.1785 C   0  0  0  0  0  0  0  0  0  0  0  0
  -20.1463  -25.2943   21.7239 C   0  0  0  0  0  0  0  0  0  0  0  0
  -26.1388  -26.2472   20.0063 C   0  0  0  0  0  0  0  0  0  0  0  0
  -28.6873  -26.2681   19.8960 C   0  0  0  0  0  0  0  0  0  0  0  0
  -28.2648  -13.1426   18.5472 C   0  0  0  0  0  0  0  0  0  0  0  0
  -24.6367  -14.4846   23.9517 C   0  0  0  0  0  0  0  0  0  0  0  0
  -27.9842  -13.9304   19.6799 C   0  0  0  0  0  0  0  0  0  0  0  0
  -24.2935  -15.7934   24.3195 C   0  0  0  0  0  0  0  0  0  0  0  0
  -29.5502  -18.7791   22.3945 C   0  0  0  0  0  0  0  0  0  0  0  0
  -23.6395  -27.4112   20.4320 C   0  0  0  0  0  0  0  0  0  0  0  0
  -25.5773  -15.5409   26.3685 C   0  0  0  0  0  0  0  0  0  0  0  0
  -21.4987  -27.2683   21.3906 C   0  0  0  0  0  0  0  0  0  0  0  0
  -19.6436  -25.8382   22.9059 C   0  0  0  0  0  0  0  0  0  0  0  0
  -21.0739  -26.0094   20.9663 C   0  0  0  0  0  0  0  0  0  0  0  0
  -27.4295  -25.6455   19.7870 C   0  0  0  0  0  0  0  0  0  0  0  0
  -29.6763  -18.3769   24.7352 C   0  0  0  0  0  0  0  0  0  0  0  0
  -30.3271  -16.7161   23.2873 C   0  0  0  0  0  0  0  0  0  0  0  0
  -29.5884  -25.2775   19.5907 C   0  0  0  0  0  0  0  0  0  0  0  0
  -29.0122  -27.6209   20.2425 C   0  0  0  0  0  0  0  0  0  0  0  0
  -27.9719  -16.6358   28.8357 C   0  0  0  0  0  0  0  0  0  0  0  0
  -28.2906  -17.9221   28.1315 C   0  0  0  0  0  0  0  0  0  0  0  0
  -24.9369  -15.5677   20.9784 C   0  0  0  0  0  0  0  0  0  0  0  0
  -21.8868  -16.5664   21.4492 C   0  0  0  0  0  0  0  0  0  0  0  0
  -19.4400  -17.4655   23.6519 C   0  0  0  0  0  0  0  0  0  0  0  0
  -29.3753  -19.3161   19.9394 C   0  0  0  0  0  0  0  0  0  0  0  0
  -27.6289  -13.4229   17.2086 C   0  0  0  0  0  0  0  0  0  0  0  0
  -24.1142  -13.8912   22.6721 C   0  0  0  0  0  0  0  0  0  0  0  0
  -23.4262  -16.6612   23.4459 C   0  0  0  0  0  0  0  0  0  0  0  0
  -26.3825  -14.2998   17.2981 C   0  0  0  0  0  0  0  0  0  0  0  0
  -30.0066  -21.2573   17.0222 C   0  0  0  0  0  0  0  0  0  0  0  0
  -26.6374  -15.4987   18.2061 C   0  0  0  0  0  0  0  0  0  0  0  0
  -29.5375  -22.6609   17.4121 C   0  0  0  0  0  0  0  0  0  0  0  0
  -29.1125  -20.1735   17.6219 C   0  0  0  0  0  0  0  0  0  0  0  0
  -28.4473  -21.6675   19.4644 C   0  0  0  0  0  0  0  0  0  0  0  0
  -26.9658  -15.0489   19.6348 C   0  0  1  0  0  0  0  0  0  0  0  0
  -23.7375  -14.9448   21.6350 C   0  0  1  0  0  0  0  0  0  0  0  0
  -29.3550  -22.7907   18.9371 C   0  0  2  0  0  0  0  0  0  0  0  0
  -30.7218  -19.5335   26.7255 C   0  0  0  0  0  0  0  0  0  0  0  0
  -17.0644  -18.2695   23.7369 C   0  0  0  0  0  0  0  0  0  0  0  0
  -22.8028  -19.3538   20.6119 C   0  0  0  0  0  0  0  0  0  0  0  0
  -20.6971  -20.2696   21.6097 C   0  0  0  0  0  0  0  0  0  0  0  0
  -20.5770  -18.6694   19.6999 C   0  0  0  0  0  0  0  0  0  0  0  0
  -18.5657  -15.0823   25.1733 C   0  0  0  0  0  0  0  0  0  0  0  0
  -27.2875  -15.5693   28.0208 C   0  0  0  0  0  0  0  0  0  1  0  0
  -29.4829  -18.8396   26.1632 C   0  0  2  0  0  0  0  0  0  0  0  0
  -21.2440  -17.8222   21.9867 C   0  0  1  0  0  0  0  0  0  0  0  0
  -17.9820  -17.0570   23.7597 C   0  0  2  0  0  0  0  0  0  0  0  0
  -21.3482  -19.0133   20.9928 C   0  0  0  0  0  0  0  0  0  0  0  0
  -27.5194  -24.3590   19.4393 N   0  0  0  0  0  0  0  0  0  0  0  0
  -30.1562  -17.1246   24.5646 N   0  0  0  0  0  0  0  0  0  0  0  0
  -28.8445  -24.1652   19.3272 N   0  0  0  0  0  0  0  0  0  0  0  0
  -22.9452  -16.0379   22.2018 N   0  0  0  0  0  0  0  0  0  0  0  0
  -28.9892  -20.3578   19.0696 N   0  0  0  0  0  0  0  0  0  0  0  0
  -30.9366  -25.2582   19.5246 N   0  0  0  0  0  0  0  0  0  0  0  0
  -27.9648  -28.5077   20.5268 N   0  0  0  0  0  0  0  0  0  0  0  0
  -29.2441  -19.6181   21.2945 N   0  0  0  0  0  0  0  0  0  0  0  0
  -29.0800  -17.7473   27.0182 N   0  0  0  0  0  0  0  0  0  0  0  0
  -25.7585  -14.6630   20.3333 N   0  0  0  0  0  0  0  0  0  0  0  0
  -19.8766  -17.4600   22.3440 N   0  0  0  0  0  0  0  0  0  0  0  0
  -17.7451  -16.3122   25.0286 N   0  3  0  0  0  0  0  0  0  0  0  0
  -30.1955  -28.0355   20.2822 O   0  0  0  0  0  0  0  0  0  0  0  0
  -28.3066  -16.5355   30.0066 O   0  0  0  0  0  0  0  0  0  0  0  0
  -27.8123  -18.9511   28.5820 O   0  0  0  0  0  0  0  0  0  0  0  0
  -25.1038  -16.7796   21.0504 O   0  0  0  0  0  0  0  0  0  0  0  0
  -21.4608  -16.0686   20.4041 O   0  0  0  0  0  0  0  0  0  0  0  0
  -20.1223  -17.7635   24.6298 O   0  0  0  0  0  0  0  0  0  0  0  0
  -29.8172  -18.2457   19.5141 O   0  0  0  0  0  0  0  0  0  0  0  0
  -22.4202  -27.9791   20.6401 O   0  0  0  0  0  0  0  0  0  0  0  0
  -26.0364  -16.0591   27.5401 O   0  0  0  0  0  0  0  0  0  1  0  0
  -18.7540  -25.1510   23.6343 F   0  0  0  0  0  0  0  0  0  0  0  0
  -21.5541  -25.4811   19.8322 F   0  0  0  0  0  0  0  0  0  0  0  0
  -30.8033  -15.4766   23.0927 F   0  0  0  0  0  0  0  0  0  0  0  0
  1  2  1  0  0  0  0
  1  5  2  0  0  0  0
  2  6  2  0  0  0  0
  3  8  2  0  0  0  0
  3 17  1  0  0  0  0
  4  9  1  0  0  0  0
  4 17  2  0  0  0  0
  5 19  1  0  0  0  0
  6 21  1  0  0  0  0
  7 10  2  0  0  0  0
  7 20  1  0  0  0  0
  8 24  1  0  0  0  0
  9 24  2  0  0  0  0
 10 25  1  0  0  0  0
 11 12  2  0  0  0  0
 11 26  1  0  0  0  0
 12 27  1  0  0  0  0
 13 22  1  0  0  0  0
 13 25  2  0  0  0  0
 14 23  2  0  0  0  0
 14 30  1  0  0  0  0
 15 23  1  0  0  0  0
 15 31  2  0  0  0  0
 16 27  2  0  0  0  0
 16 28  1  0  0  0  0
 17 29  1  0  0  0  0
 18 29  1  0  0  0  0
 18 32  2  0  0  0  0
 18 33  1  0  0  0  0
 19 21  2  0  0  0  0
 19 40  1  0  0  0  0
 20 22  2  0  0  0  0
 20 41  1  0  0  0  0
 21 49  1  0  0  0  0
 22 42  1  0  0  0  0
 23 70  1  0  0  0  0
 24 82  1  0  0  0  0
 25 83  1  0  0  0  0
 26 28  2  0  0  0  0
 26 82  1  0  0  0  0
 27 84  1  0  0  0  0
 28 85  1  0  0  0  0
 29 63  2  0  0  0  0
 30 59  1  0  0  0  0
 30 64  2  0  0  0  0
 31 64  1  0  0  0  0
 31 86  1  0  0  0  0
 32 65  1  0  0  0  0
 32 68  1  0  0  0  0
 33 69  1  0  0  0  0
 33 75  2  0  0  0  0
 34 35  1  0  0  0  0
 34 58  1  0  0  0  0
 34 76  2  0  0  0  0
 35 71  1  0  0  0  0
 35 77  2  0  0  0  0
 36 50  1  0  0  0  0
 36 72  1  0  0  0  0
 36 78  2  0  0  0  0
 37 60  1  0  0  0  0
 37 66  1  0  0  0  0
 37 79  2  0  0  0  0
 38 61  1  0  0  0  0
 38 73  1  0  0  0  0
 38 80  2  0  0  0  0
 39 67  1  0  0  0  0
 39 70  1  0  0  0  0
 39 81  2  0  0  0  0
 40 43  1  0  0  0  0
 41 50  1  0  0  0  0
 42 66  1  0  0  0  0
 43 45  1  0  0  0  0
 44 46  1  0  0  0  0
 44 47  1  0  0  0  0
 45 49  1  0  0  0  0
 46 51  1  0  0  0  0
 47 67  1  0  0  0  0
 48 51  1  0  0  0  0
 48 67  1  0  0  0  0
 49 72  1  0  0  0  0
 50 66  1  0  0  0  0
 51 65  1  0  0  0  0
 52 59  1  0  0  0  0
 53 61  1  0  0  0  0
 54 62  1  0  0  0  0
 55 62  1  0  0  0  0
 56 62  1  0  0  0  0
 57 74  1  0  0  0  0
 58 83  1  0  0  0  0
 59 71  1  0  0  0  0
 60 62  1  0  0  0  0
 60 73  1  0  0  0  0
 61 74  1  0  0  0  0
 63 65  1  0  0  0  0
M  CHG  1  74   1
M  ISO  4  39 100  58 101  70 100  83 101
M  END
> <Batch ID>
0168

> <Smiles>
CNC(C)C(=O)NC(C(=O)N1Cc2cc([101O:1][101CH2:1]C(=O)C(=O)NC(C)c3cc([100NH:0][100C:0](=O)N4CCCC(n5nc(-c6ccc(Oc7ccc(F)cc7F)cc6)c(C(N)=O)c5N)C4)cc(F)n3)ccc2CC1C(=O)NC1CCCc2ccccc21)C(C)(C)C

> <Shape>
0.207

> <Color>
0.059

> <Negative vol penalty>
0.000

$$$$

  -OEChem-04052304143D

 89 97  0     1  0  0  0  0  0999 V2000
  -31.1923  -25.7448   14.4823 C   0  0  0  0  0  0  0  0  0  0  0  0
  -29.8131  -25.8814   14.6023 C   0  0  0  0  0  0  0  0  0  0  0  0
  -23.9327   -9.7639   22.0682 C   0  0  0  0  0  0  0  0  0  0  0  0
  -22.2830  -10.3168   20.3919 C   0  0  0  0  0  0  0  0  0  0  0  0
  -31.9690  -25.5039   15.6148 C   0  0  0  0  0  0  0  0  0  0  0  0
  -29.2095  -25.7760   15.8549 C   0  0  0  0  0  0  0  0  0  0  0  0
  -24.3100  -28.8602   17.8519 C   0  0  0  0  0  0  0  0  0  0  0  0
  -23.4481   -8.4568   22.1140 C   0  0  0  0  0  0  0  0  0  0  0  0
  -21.7985   -9.0096   20.4376 C   0  0  0  0  0  0  0  0  0  0  0  0
  -22.9600  -28.5226   17.9378 C   0  0  0  0  0  0  0  0  0  0  0  0
  -20.8375   -6.8156   23.4982 C   0  0  0  0  0  0  0  0  0  0  0  0
  -20.6467   -6.2396   24.7541 C   0  0  0  0  0  0  0  0  0  0  0  0
  -23.2723  -27.8854   20.2434 C   0  0  0  0  0  0  0  0  0  0  0  0
  -22.3871  -21.8688   17.7348 C   0  0  0  0  0  0  0  0  0  0  0  0
  -22.0689  -20.9305   19.9383 C   0  0  0  0  0  0  0  0  0  0  0  0
  -22.2191   -4.4935   24.1922 C   0  0  0  0  0  0  0  0  0  0  0  0
  -23.3501  -10.6940   21.2072 C   0  0  0  0  0  0  0  0  0  0  0  0
  -23.4555  -19.7840   18.3259 C   0  0  0  0  0  0  0  0  0  0  0  0
  -24.8662  -12.5461   20.3248 C   0  0  0  0  0  0  0  0  0  0  0  0
  -31.3757  -25.4051   16.8832 C   0  0  0  0  0  0  0  0  0  0  0  0
  -25.1550  -28.7024   18.9598 C   0  0  0  0  0  0  0  0  0  0  0  0
  -29.9788  -25.5322   17.0053 C   0  0  0  0  0  0  0  0  0  0  0  0
  -24.6320  -28.2242   20.1697 C   0  0  0  0  0  0  0  0  0  0  0  0
  -21.8188  -21.9382   19.0068 C   0  0  0  0  0  0  0  0  0  0  0  0
  -23.2054  -20.7916   17.3943 C   0  0  0  0  0  0  0  0  0  0  0  0
  -22.8873  -19.8534   19.5979 C   0  0  0  0  0  0  0  0  0  0  0  0
  -22.3810   -8.0796   21.2987 C   0  0  0  0  0  0  0  0  0  0  0  0
  -22.4416  -28.0324   19.1328 C   0  0  0  0  0  0  0  0  0  0  0  0
  -21.7191   -6.2305   22.5892 C   0  0  0  0  0  0  0  0  0  0  0  0
  -21.3375   -5.0786   25.1011 C   0  0  0  0  0  0  0  0  0  0  0  0
  -22.4099   -5.0695   22.9362 C   0  0  0  0  0  0  0  0  0  0  0  0
  -23.8498  -12.0446   21.1598 C   0  0  0  0  0  0  0  0  0  0  0  0
  -24.9653  -13.8734   20.6638 C   0  0  0  0  0  0  0  0  0  0  0  0
  -24.3117  -18.6552   17.9688 C   0  0  0  0  0  0  0  0  0  0  0  0
  -25.6505  -11.8725   19.3315 C   0  0  0  0  0  0  0  0  0  0  0  0
  -27.7455  -26.9665   19.5759 C   0  0  0  0  0  0  0  0  0  0  0  0
  -19.7758  -25.0825   19.1448 C   0  0  0  0  0  0  0  0  0  0  0  0
  -27.7511  -28.6662   22.3387 C   0  0  0  0  0  0  0  0  0  0  0  0
  -25.9856  -30.4793   24.6284 C   0  0  0  0  0  0  0  0  0  0  0  0
  -22.6265  -18.7821   21.8630 C   0  0  0  0  0  0  0  0  0  0  0  0
  -32.2511  -25.0968   18.0721 C   0  0  0  0  0  0  0  0  0  0  0  0
  -26.6031  -29.0964   18.8587 C   0  0  0  0  0  0  0  0  0  0  0  0
  -25.4928  -28.0554   21.3941 C   0  0  0  0  0  0  0  0  0  0  0  0
  -31.5759  -25.3716   19.4133 C   0  0  0  0  0  0  0  0  0  0  0  0
  -22.9494  -16.4451   24.5297 C   0  0  0  0  0  0  0  0  0  0  0  0
  -30.1635  -24.7955   19.4279 C   0  0  0  0  0  0  0  0  0  0  0  0
  -23.2961  -15.1332   23.8220 C   0  0  0  0  0  0  0  0  0  0  0  0
  -21.9546  -17.2785   23.7238 C   0  0  0  0  0  0  0  0  0  0  0  0
  -22.6901  -16.2220   21.6233 C   0  0  0  0  0  0  0  0  0  0  0  0
  -29.2900  -25.4489   18.3502 C   0  0  1  0  0  0  0  0  0  0  0  0
  -27.4831  -28.4102   19.8990 C   0  0  1  0  0  0  0  0  0  0  0  0
  -23.7388  -15.3781   22.3661 C   0  0  2  0  0  0  0  0  0  0  0  0
  -23.6496  -17.4557   17.3631 C   0  0  0  0  0  0  0  0  0  0  0  0
  -26.2555  -31.7076   26.8000 C   0  0  0  0  0  0  0  0  0  0  0  0
  -18.5562  -25.9163   17.1114 C   0  0  0  0  0  0  0  0  0  0  0  0
  -27.8462  -26.0055   23.8291 C   0  0  0  0  0  0  0  0  0  0  0  0
  -27.1624  -27.2242   25.9064 C   0  0  0  0  0  0  0  0  0  0  0  0
  -29.3170  -27.7889   24.7833 C   0  0  0  0  0  0  0  0  0  0  0  0
  -25.1502  -33.0457   23.4142 C   0  0  0  0  0  0  0  0  0  0  0  0
  -20.6913  -24.0930   18.4489 C   0  0  0  0  0  0  0  0  0  0  0  0
  -20.4901  -27.2439   18.0255 C   0  0  0  0  0  0  0  0  0  1  0  0
  -27.1382  -28.4853   23.7064 C   0  0  1  0  0  0  0  0  0  0  0  0
  -26.2648  -31.8200   25.2834 C   0  0  2  0  0  0  0  0  0  0  0  0
  -19.3244  -26.3183   18.3644 C   0  0  2  0  0  0  0  0  0  0  0  0
  -27.8499  -27.3772   24.5329 C   0  0  0  0  0  0  0  0  0  0  0  0
  -23.3398  -12.9772   21.9686 N   0  0  0  0  0  0  0  0  0  0  0  0
  -24.0386  -14.0781   21.6434 N   0  0  0  0  0  0  0  0  0  0  0  0
  -26.9035  -28.4484   21.2432 N   0  0  0  0  0  0  0  0  0  0  0  0
  -22.4424  -17.4733   22.3567 N   0  0  0  0  0  0  0  0  0  0  0  0
  -23.7696  -20.7423   16.0998 N   0  0  0  0  0  0  0  0  0  0  0  0
  -25.7539  -14.8737   20.2166 N   0  0  0  0  0  0  0  0  0  0  0  0
  -25.4194  -10.5080   19.1099 N   0  0  0  0  0  0  0  0  0  0  0  0
  -23.1252  -18.8428   20.5621 N   0  0  0  0  0  0  0  0  0  0  0  0
  -21.0048  -23.0081   19.3461 N   0  0  0  0  0  0  0  0  0  0  0  0
  -28.8555  -26.7611   18.7789 N   0  0  0  0  0  0  0  0  0  0  0  0
  -27.1501  -29.8012   24.3363 N   0  0  0  0  0  0  0  0  0  0  0  0
  -25.2344  -32.8182   24.8798 N   0  3  0  0  0  0  0  0  0  0  0  0
  -25.5290  -18.6205   18.1344 O   0  0  0  0  0  0  0  0  0  0  0  0
  -26.5415  -12.4593   18.6717 O   0  0  0  0  0  0  0  0  0  0  0  0
  -26.9973  -26.1027   20.0182 O   0  0  0  0  0  0  0  0  0  0  0  0
  -19.3916  -24.9138   20.3043 O   0  0  0  0  0  0  0  0  0  0  0  0
  -28.9361  -28.9958   22.2458 O   0  0  0  0  0  0  0  0  0  0  0  0
  -24.8481  -30.0725   24.4022 O   0  0  0  0  0  0  0  0  0  0  0  0
  -22.3870  -19.7759   22.5536 O   0  0  0  0  0  0  0  0  0  0  0  0
  -21.9081   -6.8041   21.3430 O   0  0  0  0  0  0  0  0  0  0  0  0
  -21.1244  -27.7015   19.2191 O   0  0  0  0  0  0  0  0  0  1  0  0
  -21.1553   -4.5264   26.3078 F   0  0  0  0  0  0  0  0  0  0  0  0
  -23.2591   -4.5036   22.0677 F   0  0  0  0  0  0  0  0  0  0  0  0
  -18.4541  -27.0427   19.1370 F   0  0  0  0  0  0  0  0  0  0  0  0
  1  2  1  0  0  0  0
  1  5  2  0  0  0  0
  2  6  2  0  0  0  0
  3  8  2  0  0  0  0
  3 17  1  0  0  0  0
  4  9  1  0  0  0  0
  4 17  2  0  0  0  0
  5 20  1  0  0  0  0
  6 22  1  0  0  0  0
  7 10  2  0  0  0  0
  7 21  1  0  0  0  0
  8 27  1  0  0  0  0
  9 27  2  0  0  0  0
 10 28  1  0  0  0  0
 11 12  2  0  0  0  0
 11 29  1  0  0  0  0
 12 30  1  0  0  0  0
 13 23  1  0  0  0  0
 13 28  2  0  0  0  0
 14 24  1  0  0  0  0
 14 25  2  0  0  0  0
 15 24  2  0  0  0  0
 15 26  1  0  0  0  0
 16 30  2  0  0  0  0
 16 31  1  0  0  0  0
 17 32  1  0  0  0  0
 18 25  1  0  0  0  0
 18 26  2  0  0  0  0
 18 34  1  0  0  0  0
 19 32  1  0  0  0  0
 19 33  2  0  0  0  0
 19 35  1  0  0  0  0
 20 22  2  0  0  0  0
 20 41  1  0  0  0  0
 21 23  2  0  0  0  0
 21 42  1  0  0  0  0
 22 50  1  0  0  0  0
 23 43  1  0  0  0  0
 24 74  1  0  0  0  0
 25 70  1  0  0  0  0
 26 73  1  0  0  0  0
 27 85  1  0  0  0  0
 28 86  1  0  0  0  0
 29 31  2  0  0  0  0
 29 85  1  0  0  0  0
 30 87  1  0  0  0  0
 31 88  1  0  0  0  0
 32 66  2  0  0  0  0
 33 67  1  0  0  0  0
 33 71  1  0  0  0  0
 34 53  1  0  0  0  0
 34 78  2  0  0  0  0
 35 72  1  0  0  0  0
 35 79  2  0  0  0  0
 36 51  1  0  0  0  0
 36 75  1  0  0  0  0
 36 80  2  0  0  0  0
 37 60  1  0  0  0  0
 37 64  1  0  0  0  0
 37 81  2  0  0  0  0
 38 62  1  0  0  0  0
 38 68  1  0  0  0  0
 38 82  2  0  0  0  0
 39 63  1  0  0  0  0
 39 76  1  0  0  0  0
 39 83  2  0  0  0  0
 40 69  1  0  0  0  0
 40 73  1  0  0  0  0
 40 84  2  0  0  0  0
 41 44  1  0  0  0  0
 42 51  1  0  0  0  0
 43 68  1  0  0  0  0
 44 46  1  0  0  0  0
 45 47  1  0  0  0  0
 45 48  1  0  0  0  0
 46 50  1  0  0  0  0
 47 52  1  0  0  0  0
 48 69  1  0  0  0  0
 49 52  1  0  0  0  0
 49 69  1  0  0  0  0
 50 75  1  0  0  0  0
 51 68  1  0  0  0  0
 52 67  1  0  0  0  0
 54 63  1  0  0  0  0
 55 64  1  0  0  0  0
 56 65  1  0  0  0  0
 57 65  1  0  0  0  0
 58 65  1  0  0  0  0
 59 77  1  0  0  0  0
 60 74  1  0  0  0  0
 61 64  1  0  0  0  0
 61 86  1  0  0  0  0
 62 65  1  0  0  0  0
 62 76  1  0  0  0  0
 63 77  1  0  0  0  0
 64 89  1  0  0  0  0
 66 67  1  0  0  0  0
M  CHG  1  77   1
M  ISO  4  40 100  61 101  73 100  86 101
M  END
> <Batch ID>
0168

> <Smiles>
CNC(C)C(=O)NC(C(=O)N1Cc2cc([101O:1][101CH2:1]C(C)(F)C(=O)CNc3cc(N)c(C(C)=O)c([100NH:0][100C:0](=O)N4CCCC(n5nc(-c6ccc(Oc7ccc(F)cc7F)cc6)c(C(N)=O)c5N)C4)c3)ccc2CC1C(=O)NC1CCCc2ccccc21)C(C)(C)C

> <Shape>
0.231

> <Color>
0.105

> <Negative vol penalty>
0.000

$$$$

  -OEChem-04052304143D

 89 97  0     1  0  0  0  0  0999 V2000
  -30.5220  -35.7679   21.3301 C   0  0  0  0  0  0  0  0  0  0  0  0
  -30.4531  -34.4995   20.7629 C   0  0  0  0  0  0  0  0  0  0  0  0
  -24.1774   -9.6104   22.3508 C   0  0  0  0  0  0  0  0  0  0  0  0
  -23.9927   -9.6511   19.9422 C   0  0  0  0  0  0  0  0  0  0  0  0
  -29.8966  -36.0194   22.5506 C   0  0  0  0  0  0  0  0  0  0  0  0
  -29.7597  -33.4814   21.4164 C   0  0  0  0  0  0  0  0  0  0  0  0
  -26.5343  -28.9691   18.8200 C   0  0  0  0  0  0  0  0  0  0  0  0
  -22.9782   -8.9027   22.4309 C   0  0  0  0  0  0  0  0  0  0  0  0
  -22.7934   -8.9432   20.0222 C   0  0  0  0  0  0  0  0  0  0  0  0
  -26.8413  -27.6385   18.5387 C   0  0  0  0  0  0  0  0  0  0  0  0
  -21.9343   -5.7145   22.0077 C   0  0  0  0  0  0  0  0  0  0  0  0
  -21.8853   -4.6173   22.8675 C   0  0  0  0  0  0  0  0  0  0  0  0
  -25.7815  -26.9650   20.5985 C   0  0  0  0  0  0  0  0  0  0  0  0
  -26.2221  -18.2696   16.6963 C   0  0  0  0  0  0  0  0  0  0  0  0
  -26.3194  -16.1205   15.5968 C   0  0  0  0  0  0  0  0  0  0  0  0
  -20.1011   -5.6705   24.1101 C   0  0  0  0  0  0  0  0  0  0  0  0
  -24.6847   -9.9847   21.1064 C   0  0  0  0  0  0  0  0  0  0  0  0
  -25.5837  -18.0705   14.3747 C   0  0  0  0  0  0  0  0  0  0  0  0
  -27.2208  -10.1814   20.9144 C   0  0  0  0  0  0  0  0  0  0  0  0
  -29.1870  -35.0065   23.2147 C   0  0  0  0  0  0  0  0  0  0  0  0
  -25.8572  -29.3093   19.9999 C   0  0  0  0  0  0  0  0  0  0  0  0
  -29.1254  -33.7193   22.6476 C   0  0  0  0  0  0  0  0  0  0  0  0
  -25.4649  -28.3003   20.8911 C   0  0  0  0  0  0  0  0  0  0  0  0
  -26.4997  -16.9033   16.7372 C   0  0  0  0  0  0  0  0  0  0  0  0
  -25.7641  -18.8532   15.5151 C   0  0  0  0  0  0  0  0  0  0  0  0
  -22.2862   -8.5690   21.2666 C   0  0  0  0  0  0  0  0  0  0  0  0
  -26.4674  -26.6365   19.4294 C   0  0  0  0  0  0  0  0  0  0  0  0
  -21.0667   -6.7899   22.1992 C   0  0  0  0  0  0  0  0  0  0  0  0
  -20.9687   -4.5952   23.9186 C   0  0  0  0  0  0  0  0  0  0  0  0
  -25.8613  -16.7041   14.4156 C   0  0  0  0  0  0  0  0  0  0  0  0
  -20.1501   -6.7679   23.2504 C   0  0  0  0  0  0  0  0  0  0  0  0
  -25.9232  -10.7163   21.0231 C   0  0  0  0  0  0  0  0  0  0  0  0
  -28.0427  -11.2809   20.8690 C   0  0  0  0  0  0  0  0  0  0  0  0
  -25.1080  -18.6541   13.1267 C   0  0  0  0  0  0  0  0  0  0  0  0
  -27.6453   -8.8131   20.8592 C   0  0  0  0  0  0  0  0  0  0  0  0
  -25.3680  -23.5648   17.3178 C   0  0  0  0  0  0  0  0  0  0  0  0
  -25.2743  -22.4865   16.2561 C   0  0  0  0  0  0  0  0  0  0  0  0
  -26.5447  -31.0766   22.5509 C   0  0  0  0  0  0  0  0  0  0  0  0
  -23.4564  -30.4587   23.3275 C   0  0  0  0  0  0  0  0  0  0  0  0
  -20.7377  -28.4224   22.9974 C   0  0  0  0  0  0  0  0  0  0  0  0
  -27.1954  -16.9431   19.1581 C   0  0  0  0  0  0  0  0  0  0  0  0
  -28.5672  -35.3134   24.5550 C   0  0  0  0  0  0  0  0  0  0  0  0
  -25.5099  -30.7465   20.2757 C   0  0  0  0  0  0  0  0  0  0  0  0
  -24.7183  -28.6109   22.1618 C   0  0  0  0  0  0  0  0  0  0  0  0
  -27.5362  -34.2795   25.0004 C   0  0  0  0  0  0  0  0  0  0  0  0
  -28.3012  -15.8268   22.3531 C   0  0  0  0  0  0  0  0  0  0  0  0
  -28.0739  -32.8668   24.7955 C   0  0  0  0  0  0  0  0  0  0  0  0
  -27.9404  -14.3396   22.3624 C   0  0  0  0  0  0  0  0  0  0  0  0
  -27.2480  -16.6614   21.6265 C   0  0  0  0  0  0  0  0  0  0  0  0
  -26.5605  -14.7169   20.2790 C   0  0  0  0  0  0  0  0  0  0  0  0
  -28.3617  -32.5955   23.3140 C   0  0  1  0  0  0  0  0  0  0  0  0
  -25.2707  -31.0301   21.7555 C   0  0  1  0  0  0  0  0  0  0  0  0
  -27.6242  -13.8276   20.9434 C   0  0  2  0  0  0  0  0  0  0  0  0
  -26.0022  -18.5430   11.9279 C   0  0  0  0  0  0  0  0  0  0  0  0
  -18.3695  -28.1554   23.7833 C   0  0  0  0  0  0  0  0  0  0  0  0
  -24.4675  -29.4474   26.0229 C   0  0  0  0  0  0  0  0  0  0  0  0
  -22.2460  -28.3443   26.3638 C   0  0  0  0  0  0  0  0  0  0  0  0
  -22.3836  -30.8250   26.1405 C   0  0  0  0  0  0  0  0  0  0  0  0
  -19.6765  -28.6417   20.2434 C   0  0  0  0  0  0  0  0  0  0  0  0
  -25.8295  -23.1651   18.7035 C   0  0  0  0  0  0  0  0  0  0  0  0
  -25.6582  -21.0798   16.6360 C   0  0  0  0  0  0  0  0  0  0  0  0
  -25.8737  -24.3456   19.6642 C   0  0  0  0  0  0  0  0  0  1  0  0
  -22.7449  -29.3751   24.1011 C   0  0  1  0  0  0  0  0  0  0  0  0
  -19.2793  -28.7283   22.7078 C   0  0  2  0  0  0  0  0  0  0  0  0
  -22.9763  -29.4919   25.6341 C   0  0  0  0  0  0  0  0  0  0  0  0
  -25.9161  -12.0518   21.0457 N   0  0  0  0  0  0  0  0  0  0  0  0
  -27.2195  -12.3653   20.9506 N   0  0  0  0  0  0  0  0  0  0  0  0
  -24.4075  -30.0318   22.3899 N   0  0  0  0  0  0  0  0  0  0  0  0
  -27.0033  -16.1200   20.2878 N   0  0  0  0  0  0  0  0  0  0  0  0
  -29.3820  -11.4163   20.7679 N   0  0  0  0  0  0  0  0  0  0  0  0
  -26.6701   -7.8081   20.9178 N   0  0  0  0  0  0  0  0  0  0  0  0
  -26.9638  -16.3100   17.9374 N   0  0  0  0  0  0  0  0  0  0  0  0
  -25.4939  -20.2131   15.4952 N   0  0  0  0  0  0  0  0  0  0  0  0
  -27.1312  -32.3268   22.6011 N   0  0  0  0  0  0  0  0  0  0  0  0
  -21.3433  -29.4415   23.7016 N   0  0  0  0  0  0  0  0  0  0  0  0
  -18.8789  -28.1474   21.3951 N   0  3  0  0  0  0  0  0  0  0  0  0
  -24.0312  -19.2339   12.9869 O   0  0  0  0  0  0  0  0  0  0  0  0
  -28.8548   -8.4908   20.7773 O   0  0  0  0  0  0  0  0  0  0  0  0
  -25.0565  -24.7015   16.9867 O   0  0  0  0  0  0  0  0  0  0  0  0
  -24.8937  -22.8318   15.1445 O   0  0  0  0  0  0  0  0  0  0  0  0
  -26.9636  -30.0543   23.0810 O   0  0  0  0  0  0  0  0  0  0  0  0
  -23.1735  -31.6400   23.5420 O   0  0  0  0  0  0  0  0  0  0  0  0
  -21.2840  -27.3816   22.6383 O   0  0  0  0  0  0  0  0  0  0  0  0
  -27.5664  -18.1149   19.2644 O   0  0  0  0  0  0  0  0  0  0  0  0
  -21.1160   -7.8782   21.3443 O   0  0  0  0  0  0  0  0  0  0  0  0
  -26.7663  -25.3370   19.1576 O   0  0  0  0  0  0  0  0  0  1  0  0
  -20.9207   -3.5407   24.7432 F   0  0  0  0  0  0  0  0  0  0  0  0
  -25.6931  -15.9415   13.3258 F   0  0  0  0  0  0  0  0  0  0  0  0
  -19.3132   -7.7975   23.4387 F   0  0  0  0  0  0  0  0  0  0  0  0
  1  2  1  0  0  0  0
  1  5  2  0  0  0  0
  2  6  2  0  0  0  0
  3  8  2  0  0  0  0
  3 17  1  0  0  0  0
  4  9  1  0  0  0  0
  4 17  2  0  0  0  0
  5 20  1  0  0  0  0
  6 22  1  0  0  0  0
  7 10  2  0  0  0  0
  7 21  1  0  0  0  0
  8 26  1  0  0  0  0
  9 26  2  0  0  0  0
 10 27  1  0  0  0  0
 11 12  2  0  0  0  0
 11 28  1  0  0  0  0
 12 29  1  0  0  0  0
 13 23  1  0  0  0  0
 13 27  2  0  0  0  0
 14 24  2  0  0  0  0
 14 25  1  0  0  0  0
 15 24  1  0  0  0  0
 15 30  2  0  0  0  0
 16 29  2  0  0  0  0
 16 31  1  0  0  0  0
 17 32  1  0  0  0  0
 18 25  2  0  0  0  0
 18 30  1  0  0  0  0
 18 34  1  0  0  0  0
 19 32  1  0  0  0  0
 19 33  2  0  0  0  0
 19 35  1  0  0  0  0
 20 22  2  0  0  0  0
 20 42  1  0  0  0  0
 21 23  2  0  0  0  0
 21 43  1  0  0  0  0
 22 51  1  0  0  0  0
 23 44  1  0  0  0  0
 24 72  1  0  0  0  0
 25 73  1  0  0  0  0
 26 85  1  0  0  0  0
 27 86  1  0  0  0  0
 28 31  2  0  0  0  0
 28 85  1  0  0  0  0
 29 87  1  0  0  0  0
 30 88  1  0  0  0  0
 31 89  1  0  0  0  0
 32 66  2  0  0  0  0
 33 67  1  0  0  0  0
 33 70  1  0  0  0  0
 34 54  1  0  0  0  0
 34 77  2  0  0  0  0
 35 71  1  0  0  0  0
 35 78  2  0  0  0  0
 36 37  1  0  0  0  0
 36 60  1  0  0  0  0
 36 79  2  0  0  0  0
 37 61  1  0  0  0  0
 37 80  2  0  0  0  0
 38 52  1  0  0  0  0
 38 74  1  0  0  0  0
 38 81  2  0  0  0  0
 39 63  1  0  0  0  0
 39 68  1  0  0  0  0
 39 82  2  0  0  0  0
 40 64  1  0  0  0  0
 40 75  1  0  0  0  0
 40 83  2  0  0  0  0
 41 69  1  0  0  0  0
 41 72  1  0  0  0  0
 41 84  2  0  0  0  0
 42 45  1  0  0  0  0
 43 52  1  0  0  0  0
 44 68  1  0  0  0  0
 45 47  1  0  0  0  0
 46 48  1  0  0  0  0
 46 49  1  0  0  0  0
 47 51  1  0  0  0  0
 48 53  1  0  0  0  0
 49 69  1  0  0  0  0
 50 53  1  0  0  0  0
 50 69  1  0  0  0  0
 51 74  1  0  0  0  0
 52 68  1  0  0  0  0
 53 67  1  0  0  0  0
 55 64  1  0  0  0  0
 56 65  1  0  0  0  0
 57 65  1  0  0  0  0
 58 65  1  0  0  0  0
 59 76  1  0  0  0  0
 60 62  1  0  0  0  0
 61 73  1  0  0  0  0
 62 86  1  0  0  0  0
 63 65  1  0  0  0  0
 63 75  1  0  0  0  0
 64 76  1  0  0  0  0
 66 67  1  0  0  0  0
M  CHG  1  76   1
M  ISO  4  41 100  62 101  72 100  86 101
M  END
> <Batch ID>
0168

> <Smiles>
CNC(C)C(=O)NC(C(=O)N1Cc2cc([101O:1][101CH2:1]CC(=O)C(=O)CNc3cc([100NH:0][100C:0](=O)N4CCCC(n5nc(-c6ccc(Oc7ccc(F)cc7F)cc6)c(C(N)=O)c5N)C4)cc(F)c3C(C)=O)ccc2CC1C(=O)NC1CCCc2ccccc21)C(C)(C)C

> <Shape>
0.225

> <Color>
0.085

> <Negative vol penalty>
0.000

$$$$

  -OEChem-04052304143D

 85 93  0     1  0  0  0  0  0999 V2000
  -18.2314  -29.5768   25.9350 C   0  0  0  0  0  0  0  0  0  0  0  0
  -19.5763  -29.2685   26.1132 C   0  0  0  0  0  0  0  0  0  0  0  0
  -24.5353   -9.7380   21.4832 C   0  0  0  0  0  0  0  0  0  0  0  0
  -24.8917  -10.8255   23.6110 C   0  0  0  0  0  0  0  0  0  0  0  0
  -17.6261  -29.3613   24.6976 C   0  0  0  0  0  0  0  0  0  0  0  0
  -20.3163  -28.7434   25.0545 C   0  0  0  0  0  0  0  0  0  0  0  0
  -26.2293  -29.7664   23.8314 C   0  0  0  0  0  0  0  0  0  0  0  0
  -29.9966  -19.8814   21.4095 C   0  0  0  0  0  0  0  0  0  0  0  0
  -30.1089  -21.1751   21.9187 C   0  0  0  0  0  0  0  0  0  0  0  0
  -24.2300   -8.5475   22.1427 C   0  0  0  0  0  0  0  0  0  0  0  0
  -24.5864   -9.6349   24.2705 C   0  0  0  0  0  0  0  0  0  0  0  0
  -27.3832  -29.0307   24.0980 C   0  0  0  0  0  0  0  0  0  0  0  0
  -23.0053   -5.3178   23.2761 C   0  0  0  0  0  0  0  0  0  0  0  0
  -21.8932   -4.5997   22.8366 C   0  0  0  0  0  0  0  0  0  0  0  0
  -27.2783  -28.0757   21.8852 C   0  0  0  0  0  0  0  0  0  0  0  0
  -20.4750   -6.4911   23.3350 C   0  0  0  0  0  0  0  0  0  0  0  0
  -24.8662  -10.8770   22.2173 C   0  0  0  0  0  0  0  0  0  0  0  0
  -24.2864  -13.1275   21.1652 C   0  0  0  0  0  0  0  0  0  0  0  0
  -18.3615  -28.8423   23.6204 C   0  0  0  0  0  0  0  0  0  0  0  0
  -25.5840  -29.6538   22.5915 C   0  0  0  0  0  0  0  0  0  0  0  0
  -19.7199  -28.5194   23.8019 C   0  0  0  0  0  0  0  0  0  0  0  0
  -26.1178  -28.8130   21.6045 C   0  0  0  0  0  0  0  0  0  0  0  0
  -28.7397  -19.2917   21.2744 C   0  0  0  0  0  0  0  0  0  0  0  0
  -28.9644  -21.8791   22.2929 C   0  0  0  0  0  0  0  0  0  0  0  0
  -27.5952  -19.9957   21.6486 C   0  0  0  0  0  0  0  0  0  0  0  0
  -24.2555   -8.4959   23.5364 C   0  0  0  0  0  0  0  0  0  0  0  0
  -27.9063  -28.1831   23.1259 C   0  0  0  0  0  0  0  0  0  0  0  0
  -22.8523   -6.6226   23.7451 C   0  0  0  0  0  0  0  0  0  0  0  0
  -20.6281   -5.1863   22.8661 C   0  0  0  0  0  0  0  0  0  0  0  0
  -21.5871   -7.2092   23.7746 C   0  0  0  0  0  0  0  0  0  0  0  0
  -27.7075  -21.2894   22.1579 C   0  0  0  0  0  0  0  0  0  0  0  0
  -25.1822  -12.1070   21.5365 C   0  0  0  0  0  0  0  0  0  0  0  0
  -25.0750  -14.0703   20.5522 C   0  0  0  0  0  0  0  0  0  0  0  0
  -22.8683  -13.2154   21.3573 C   0  0  0  0  0  0  0  0  0  0  0  0
  -29.9834  -25.2684   23.5710 C   0  0  0  0  0  0  0  0  0  0  0  0
  -30.2450  -23.9037   23.0025 C   0  0  0  0  0  0  0  0  0  0  0  0
  -22.7104  -28.6859   21.6381 C   0  0  0  0  0  0  0  0  0  0  0  0
  -23.7466  -29.7315   18.7476 C   0  0  0  0  0  0  0  0  0  0  0  0
  -26.3811  -30.4467   16.6994 C   0  0  0  0  0  0  0  0  0  0  0  0
  -29.7032  -17.1587   20.3424 C   0  0  0  0  0  0  0  0  0  0  0  0
  -17.6519  -28.5823   22.3152 C   0  0  0  0  0  0  0  0  0  0  0  0
  -24.3552  -30.4744   22.3100 C   0  0  0  0  0  0  0  0  0  0  0  0
  -25.4744  -28.6719   20.2501 C   0  0  0  0  0  0  0  0  0  0  0  0
  -18.6002  -28.3734   21.1374 C   0  0  0  0  0  0  0  0  0  0  0  0
  -29.9011  -13.8503   19.0416 C   0  0  0  0  0  0  0  0  0  0  0  0
  -19.7202  -27.4104   21.5181 C   0  0  0  0  0  0  0  0  0  0  0  0
  -28.6174  -13.1857   19.5442 C   0  0  0  0  0  0  0  0  0  0  0  0
  -30.4824  -14.8144   20.0742 C   0  0  0  0  0  0  0  0  0  0  0  0
  -28.2601  -15.1613   21.0793 C   0  0  0  0  0  0  0  0  0  0  0  0
  -20.5622  -27.9714   22.6704 C   0  0  1  0  0  0  0  0  0  0  0  0
  -23.4900  -29.8921   21.1966 C   0  0  1  0  0  0  0  0  0  0  0  0
  -27.6021  -14.2302   20.0479 C   0  0  2  0  0  0  0  0  0  0  0  0
  -26.9136  -31.2474   14.3815 C   0  0  0  0  0  0  0  0  0  0  0  0
  -23.0289  -26.9823   17.6356 C   0  0  0  0  0  0  0  0  0  0  0  0
  -24.4262  -27.5075   15.6256 C   0  0  0  0  0  0  0  0  0  0  0  0
  -22.4234  -28.8997   16.1485 C   0  0  0  0  0  0  0  0  0  0  0  0
  -27.8012  -32.8323   17.7246 C   0  0  0  0  0  0  0  0  0  0  0  0
  -29.1648  -26.2059   22.7223 C   0  0  0  0  0  0  0  0  0  1  0  0
  -24.4899  -29.1105   17.5896 C   0  0  1  0  0  0  0  0  0  0  0  0
  -26.6814  -31.6533   15.8286 C   0  0  2  0  0  0  0  0  0  0  0  0
  -23.6034  -28.1260   16.7759 C   0  0  0  0  0  0  0  0  0  0  0  0
  -26.4433  -12.3760   21.1883 N   0  0  0  0  0  0  0  0  0  0  0  0
  -26.3456  -13.5763   20.5918 N   0  0  0  0  0  0  0  0  0  0  0  0
  -24.2713  -29.4902   20.0252 N   0  0  0  0  0  0  0  0  0  0  0  0
  -29.4651  -15.7772   20.5020 N   0  0  0  0  0  0  0  0  0  0  0  0
  -26.3136  -19.4144   21.5205 N   0  0  0  0  0  0  0  0  0  0  0  0
  -24.7985  -15.2654   19.9886 N   0  0  0  0  0  0  0  0  0  0  0  0
  -22.2152  -12.1586   22.0060 N   0  0  0  0  0  0  0  0  0  0  0  0
  -29.0816  -23.1905   22.8097 N   0  0  0  0  0  0  0  0  0  0  0  0
  -28.6515  -17.9765   20.7546 N   0  0  0  0  0  0  0  0  0  0  0  0
  -21.4758  -28.9825   22.1832 N   0  0  0  0  0  0  0  0  0  0  0  0
  -25.0254  -30.2190   16.8067 N   0  0  0  0  0  0  0  0  0  0  0  0
  -27.8996  -32.3568   16.3206 N   0  3  0  0  0  0  0  0  0  0  0  0
  -22.1977  -14.1944   20.9508 O   0  0  0  0  0  0  0  0  0  0  0  0
  -30.4653  -25.5278   24.6633 O   0  0  0  0  0  0  0  0  0  0  0  0
  -31.4127  -23.6040   22.8164 O   0  0  0  0  0  0  0  0  0  0  0  0
  -23.1925  -27.5686   21.4934 O   0  0  0  0  0  0  0  0  0  0  0  0
  -22.7417  -30.4118   18.5261 O   0  0  0  0  0  0  0  0  0  0  0  0
  -27.2613  -29.7713   17.2283 O   0  0  0  0  0  0  0  0  0  0  0  0
  -30.7511  -17.5840   19.8493 O   0  0  0  0  0  0  0  0  0  0  0  0
  -23.9575   -7.3345   24.1803 O   0  0  0  0  0  0  0  0  0  0  0  0
  -29.0321  -27.4634   23.3837 O   0  0  0  0  0  0  0  0  0  1  0  0
  -19.5604   -4.4972   22.4426 F   0  0  0  0  0  0  0  0  0  0  0  0
  -21.4340   -8.4627   24.2230 F   0  0  0  0  0  0  0  0  0  0  0  0
  -26.6068  -21.9667   22.5195 F   0  0  0  0  0  0  0  0  0  0  0  0
  1  2  1  0  0  0  0
  1  5  2  0  0  0  0
  2  6  2  0  0  0  0
  3 10  2  0  0  0  0
  3 17  1  0  0  0  0
  4 11  1  0  0  0  0
  4 17  2  0  0  0  0
  5 19  1  0  0  0  0
  6 21  1  0  0  0  0
  7 12  2  0  0  0  0
  7 20  1  0  0  0  0
  8  9  2  0  0  0  0
  8 23  1  0  0  0  0
  9 24  1  0  0  0  0
 10 26  1  0  0  0  0
 11 26  2  0  0  0  0
 12 27  1  0  0  0  0
 13 14  2  0  0  0  0
 13 28  1  0  0  0  0
 14 29  1  0  0  0  0
 15 22  1  0  0  0  0
 15 27  2  0  0  0  0
 16 29  2  0  0  0  0
 16 30  1  0  0  0  0
 17 32  1  0  0  0  0
 18 32  1  0  0  0  0
 18 33  2  0  0  0  0
 18 34  1  0  0  0  0
 19 21  2  0  0  0  0
 19 41  1  0  0  0  0
 20 22  2  0  0  0  0
 20 42  1  0  0  0  0
 21 50  1  0  0  0  0
 22 43  1  0  0  0  0
 23 25  2  0  0  0  0
 23 70  1  0  0  0  0
 24 31  2  0  0  0  0
 24 69  1  0  0  0  0
 25 31  1  0  0  0  0
 25 66  1  0  0  0  0
 26 81  1  0  0  0  0
 27 82  1  0  0  0  0
 28 30  2  0  0  0  0
 28 81  1  0  0  0  0
 29 83  1  0  0  0  0
 30 84  1  0  0  0  0
 31 85  1  0  0  0  0
 32 62  2  0  0  0  0
 33 63  1  0  0  0  0
 33 67  1  0  0  0  0
 34 68  1  0  0  0  0
 34 74  2  0  0  0  0
 35 36  1  0  0  0  0
 35 58  1  0  0  0  0
 35 75  2  0  0  0  0
 36 69  1  0  0  0  0
 36 76  2  0  0  0  0
 37 51  1  0  0  0  0
 37 71  1  0  0  0  0
 37 77  2  0  0  0  0
 38 59  1  0  0  0  0
 38 64  1  0  0  0  0
 38 78  2  0  0  0  0
 39 60  1  0  0  0  0
 39 72  1  0  0  0  0
 39 79  2  0  0  0  0
 40 65  1  0  0  0  0
 40 70  1  0  0  0  0
 40 80  2  0  0  0  0
 41 44  1  0  0  0  0
 42 51  1  0  0  0  0
 43 64  1  0  0  0  0
 44 46  1  0  0  0  0
 45 47  1  0  0  0  0
 45 48  1  0  0  0  0
 46 50  1  0  0  0  0
 47 52  1  0  0  0  0
 48 65  1  0  0  0  0
 49 52  1  0  0  0  0
 49 65  1  0  0  0  0
 50 71  1  0  0  0  0
 51 64  1  0  0  0  0
 52 63  1  0  0  0  0
 53 60  1  0  0  0  0
 54 61  1  0  0  0  0
 55 61  1  0  0  0  0
 56 61  1  0  0  0  0
 57 73  1  0  0  0  0
 58 82  1  0  0  0  0
 59 61  1  0  0  0  0
 59 72  1  0  0  0  0
 60 73  1  0  0  0  0
 62 63  1  0  0  0  0
M  CHG  1  73   1
M  ISO  4  40 100  58 101  70 100  82 101
M  END
> <Batch ID>
0168

> <Smiles>
CNC(C)C(=O)NC(C(=O)N1Cc2cc([101O:1][101CH2:1]C(=O)C(=O)Nc3ccc([100NH:0][100C:0](=O)N4CCCC(n5nc(-c6ccc(Oc7ccc(F)cc7F)cc6)c(C(N)=O)c5N)C4)c(N)c3F)ccc2CC1C(=O)NC1CCCc2ccccc21)C(C)(C)C

> <Shape>
0.271

> <Color>
0.138

> <Negative vol penalty>
0.000

$$$$

  -OEChem-04052304143D

 86 94  0     1  0  0  0  0  0999 V2000
  -24.9137  -31.3683   24.6810 C   0  0  0  0  0  0  0  0  0  0  0  0
  -25.3156  -30.0545   24.8998 C   0  0  0  0  0  0  0  0  0  0  0  0
  -23.4851   -9.7034   20.6460 C   0  0  0  0  0  0  0  0  0  0  0  0
  -24.0107  -10.3335   22.9184 C   0  0  0  0  0  0  0  0  0  0  0  0
  -24.6101  -31.7973   23.3896 C   0  0  0  0  0  0  0  0  0  0  0  0
  -25.4132  -29.1686   23.8274 C   0  0  0  0  0  0  0  0  0  0  0  0
  -29.6604  -26.4141   23.9631 C   0  0  0  0  0  0  0  0  0  0  0  0
  -32.6526  -16.6386   23.7293 C   0  0  0  0  0  0  0  0  0  0  0  0
  -32.1762  -15.6561   22.8613 C   0  0  0  0  0  0  0  0  0  0  0  0
  -22.8485   -8.5532   21.1122 C   0  0  0  0  0  0  0  0  0  0  0  0
  -23.3740   -9.1833   23.3846 C   0  0  0  0  0  0  0  0  0  0  0  0
  -29.6924  -25.3364   24.8470 C   0  0  0  0  0  0  0  0  0  0  0  0
  -20.2068   -8.1399   23.9326 C   0  0  0  0  0  0  0  0  0  0  0  0
  -19.3471   -8.2735   25.0228 C   0  0  0  0  0  0  0  0  0  0  0  0
  -29.2151  -23.8331   23.0217 C   0  0  0  0  0  0  0  0  0  0  0  0
  -20.7110   -6.7315   26.2874 C   0  0  0  0  0  0  0  0  0  0  0  0
  -24.0663  -10.5936   21.5492 C   0  0  0  0  0  0  0  0  0  0  0  0
  -24.1449  -13.0462   20.8518 C   0  0  0  0  0  0  0  0  0  0  0  0
  -24.7133  -30.9189   22.2995 C   0  0  0  0  0  0  0  0  0  0  0  0
  -29.3944  -26.2104   22.6015 C   0  0  0  0  0  0  0  0  0  0  0  0
  -25.1094  -29.5859   22.5203 C   0  0  0  0  0  0  0  0  0  0  0  0
  -29.1829  -24.9097   22.1222 C   0  0  0  0  0  0  0  0  0  0  0  0
  -32.1802  -16.6995   25.0404 C   0  0  0  0  0  0  0  0  0  0  0  0
  -31.2274  -14.7346   23.3043 C   0  0  0  0  0  0  0  0  0  0  0  0
  -31.2314  -15.7780   25.4834 C   0  0  0  0  0  0  0  0  0  0  0  0
  -22.7929   -8.2931   22.4815 C   0  0  0  0  0  0  0  0  0  0  0  0
  -29.4669  -24.0460   24.3768 C   0  0  0  0  0  0  0  0  0  0  0  0
  -21.3186   -7.3020   24.0197 C   0  0  0  0  0  0  0  0  0  0  0  0
  -19.5992   -7.5694   26.2003 C   0  0  0  0  0  0  0  0  0  0  0  0
  -21.5707   -6.5979   25.1971 C   0  0  0  0  0  0  0  0  0  0  0  0
  -30.7550  -14.7955   24.6154 C   0  0  0  0  0  0  0  0  0  0  0  0
  -24.7245  -11.7816   21.0682 C   0  0  0  0  0  0  0  0  0  0  0  0
  -25.1806  -13.8253   20.3971 C   0  0  0  0  0  0  0  0  0  0  0  0
  -30.4133  -22.0037   25.0126 C   0  0  0  0  0  0  0  0  0  1  0  0
  -22.7914  -13.4779   21.0447 C   0  0  0  0  0  0  0  0  0  0  0  0
  -30.5934  -20.8943   25.7462 C   0  0  0  0  0  0  0  0  0  0  0  0
  -31.6636  -19.9368   25.3198 C   0  0  0  0  0  0  0  0  0  0  0  0
  -27.1141  -27.1502   20.5963 C   0  0  0  0  0  0  0  0  0  0  0  0
  -29.0059  -25.7139   18.3872 C   0  0  0  0  0  0  0  0  0  0  0  0
  -31.4195  -23.3998   17.7045 C   0  0  0  0  0  0  0  0  0  0  0  0
  -31.1093  -13.5436   21.0876 C   0  0  0  0  0  0  0  0  0  0  0  0
  -24.3291  -31.4154   20.9282 C   0  0  0  0  0  0  0  0  0  0  0  0
  -29.3898  -27.3805   21.6565 C   0  0  0  0  0  0  0  0  0  0  0  0
  -28.9131  -24.6353   20.6660 C   0  0  0  0  0  0  0  0  0  0  0  0
  -24.8188  -30.5166   19.7956 C   0  0  0  0  0  0  0  0  0  0  0  0
  -29.3210  -13.5292   18.0088 C   0  0  0  0  0  0  0  0  0  0  0  0
  -24.5215  -29.0536   20.1086 C   0  0  0  0  0  0  0  0  0  0  0  0
  -27.8854  -13.2005   18.4249 C   0  0  0  0  0  0  0  0  0  0  0  0
  -30.3439  -12.7712   18.8532 C   0  0  0  0  0  0  0  0  0  0  0  0
  -28.7479  -12.5922   20.7213 C   0  0  0  0  0  0  0  0  0  0  0  0
  -25.2512  -28.6019   21.3794 C   0  0  1  0  0  0  0  0  0  0  0  0
  -28.6003  -27.1136   20.3787 C   0  0  1  0  0  0  0  0  0  0  0  0
  -27.6830  -13.3814   19.9422 C   0  0  2  0  0  0  0  0  0  0  0  0
  -32.7344  -22.4276   15.8010 C   0  0  0  0  0  0  0  0  0  0  0  0
  -26.5625  -24.1021   17.5258 C   0  0  0  0  0  0  0  0  0  0  0  0
  -28.1055  -22.5308   16.3348 C   0  0  0  0  0  0  0  0  0  0  0  0
  -27.9870  -24.9243   15.6419 C   0  0  0  0  0  0  0  0  0  0  0  0
  -33.9892  -24.2887   18.8732 C   0  0  0  0  0  0  0  0  0  0  0  0
  -32.7106  -17.7671   25.9532 C   0  0  0  0  0  0  0  0  0  0  0  0
  -29.1183  -24.3192   17.8204 C   0  0  1  0  0  0  0  0  0  0  0  0
  -32.6979  -23.4878   16.8907 C   0  0  2  0  0  0  0  0  0  0  0  0
  -27.9465  -23.9742   16.8586 C   0  0  0  0  0  0  0  0  0  0  0  0
  -26.0273  -11.7545   20.7749 N   0  0  0  0  0  0  0  0  0  0  0  0
  -26.2749  -13.0117   20.3695 N   0  0  0  0  0  0  0  0  0  0  0  0
  -28.9126  -25.8130   19.7826 N   0  0  0  0  0  0  0  0  0  0  0  0
  -30.0926  -12.9931   20.2789 N   0  0  0  0  0  0  0  0  0  0  0  0
  -30.7435  -15.8276   26.8079 N   0  0  0  0  0  0  0  0  0  0  0  0
  -25.2529  -15.1201   20.0221 N   0  0  0  0  0  0  0  0  0  0  0  0
  -21.8548  -12.5490   21.5181 N   0  0  0  0  0  0  0  0  0  0  0  0
  -30.7443  -13.7392   22.4192 N   0  0  0  0  0  0  0  0  0  0  0  0
  -31.7548  -18.8336   26.1510 N   0  0  0  0  0  0  0  0  0  0  0  0
  -26.6483  -28.3507   21.0977 N   0  0  0  0  0  0  0  0  0  0  0  0
  -30.4395  -24.2329   17.2077 N   0  0  0  0  0  0  0  0  0  0  0  0
  -33.8860  -23.2986   17.7703 N   0  3  0  0  0  0  0  0  0  0  0  0
  -22.4198  -14.6484   20.7887 O   0  0  0  0  0  0  0  0  0  0  0  0
  -32.3682  -20.1391   24.3348 O   0  0  0  0  0  0  0  0  0  0  0  0
  -26.4396  -26.1630   20.3278 O   0  0  0  0  0  0  0  0  0  0  0  0
  -29.0081  -26.6802   17.6204 O   0  0  0  0  0  0  0  0  0  0  0  0
  -31.3008  -22.6628   18.6809 O   0  0  0  0  0  0  0  0  0  0  0  0
  -32.2128  -13.8463   20.6265 O   0  0  0  0  0  0  0  0  0  0  0  0
  -29.8589  -20.5777   26.8679 O   0  0  0  0  0  0  0  0  0  0  0  0
  -22.1716   -7.1710   22.9367 O   0  0  0  0  0  0  0  0  0  0  0  0
  -29.4968  -22.9923   25.2375 O   0  0  0  0  0  0  0  0  0  1  0  0
  -18.7744   -7.6990   27.2477 F   0  0  0  0  0  0  0  0  0  0  0  0
  -22.6379   -5.7924   25.2871 F   0  0  0  0  0  0  0  0  0  0  0  0
  -29.8418  -13.9087   25.0402 F   0  0  0  0  0  0  0  0  0  0  0  0
  1  2  1  0  0  0  0
  1  5  2  0  0  0  0
  2  6  2  0  0  0  0
  3 10  2  0  0  0  0
  3 17  1  0  0  0  0
  4 11  1  0  0  0  0
  4 17  2  0  0  0  0
  5 19  1  0  0  0  0
  6 21  1  0  0  0  0
  7 12  2  0  0  0  0
  7 20  1  0  0  0  0
  8  9  2  0  0  0  0
  8 23  1  0  0  0  0
  9 24  1  0  0  0  0
 10 26  1  0  0  0  0
 11 26  2  0  0  0  0
 12 27  1  0  0  0  0
 13 14  2  0  0  0  0
 13 28  1  0  0  0  0
 14 29  1  0  0  0  0
 15 22  1  0  0  0  0
 15 27  2  0  0  0  0
 16 29  2  0  0  0  0
 16 30  1  0  0  0  0
 17 32  1  0  0  0  0
 18 32  1  0  0  0  0
 18 33  2  0  0  0  0
 18 35  1  0  0  0  0
 19 21  2  0  0  0  0
 19 42  1  0  0  0  0
 20 22  2  0  0  0  0
 20 43  1  0  0  0  0
 21 51  1  0  0  0  0
 22 44  1  0  0  0  0
 23 25  2  0  0  0  0
 23 59  1  0  0  0  0
 24 31  2  0  0  0  0
 24 70  1  0  0  0  0
 25 31  1  0  0  0  0
 25 67  1  0  0  0  0
 26 82  1  0  0  0  0
 27 83  1  0  0  0  0
 28 30  2  0  0  0  0
 28 82  1  0  0  0  0
 29 84  1  0  0  0  0
 30 85  1  0  0  0  0
 31 86  1  0  0  0  0
 32 63  2  0  0  0  0
 33 64  1  0  0  0  0
 33 68  1  0  0  0  0
 34 36  2  0  0  0  0
 34 83  1  0  0  0  0
 35 69  1  0  0  0  0
 35 75  2  0  0  0  0
 36 37  1  0  0  0  0
 36 81  1  0  0  0  0
 37 71  1  0  0  0  0
 37 76  2  0  0  0  0
 38 52  1  0  0  0  0
 38 72  1  0  0  0  0
 38 77  2  0  0  0  0
 39 60  1  0  0  0  0
 39 65  1  0  0  0  0
 39 78  2  0  0  0  0
 40 61  1  0  0  0  0
 40 73  1  0  0  0  0
 40 79  2  0  0  0  0
 41 66  1  0  0  0  0
 41 70  1  0  0  0  0
 41 80  2  0  0  0  0
 42 45  1  0  0  0  0
 43 52  1  0  0  0  0
 44 65  1  0  0  0  0
 45 47  1  0  0  0  0
 46 48  1  0  0  0  0
 46 49  1  0  0  0  0
 47 51  1  0  0  0  0
 48 53  1  0  0  0  0
 49 66  1  0  0  0  0
 50 53  1  0  0  0  0
 50 66  1  0  0  0  0
 51 72  1  0  0  0  0
 52 65  1  0  0  0  0
 53 64  1  0  0  0  0
 54 61  1  0  0  0  0
 55 62  1  0  0  0  0
 56 62  1  0  0  0  0
 57 62  1  0  0  0  0
 58 74  1  0  0  0  0
 59 71  1  0  0  0  0
 60 62  1  0  0  0  0
 60 73  1  0  0  0  0
 61 74  1  0  0  0  0
 63 64  1  0  0  0  0
M  CHG  1  74   1
M  ISO  4  34 101  41 100  70 100  83 101
M  END
> <Batch ID>
0168

> <Smiles>
CNC(C)C(=O)NC(C(=O)N1Cc2cc([101O:1][101CH2:1]C(=O)C(=O)NCc3ccc([100NH:0][100C:0](=O)N4CCCC(n5nc(-c6ccc(Oc7ccc(F)cc7F)cc6)c(C(N)=O)c5N)C4)c(F)c3N)ccc2CC1C(=O)NC1CCCc2ccccc21)C(C)(C)C

> <Shape>
0.261

> <Color>
0.156

> <Negative vol penalty>
0.000

$$$$

  -OEChem-04052304143D

 86 94  0     1  0  0  0  0  0999 V2000
  -23.3669  -23.5793   18.2307 C   0  0  0  0  0  0  0  0  0  0  0  0
  -24.4788  -22.8592   18.6557 C   0  0  0  0  0  0  0  0  0  0  0  0
  -21.8900  -30.9519   22.1440 C   0  0  0  0  0  0  0  0  0  0  0  0
  -23.1207  -29.5030   23.6350 C   0  0  0  0  0  0  0  0  0  0  0  0
  -22.0891  -23.1815   18.6218 C   0  0  0  0  0  0  0  0  0  0  0  0
  -24.3136  -21.7416   19.4731 C   0  0  0  0  0  0  0  0  0  0  0  0
  -27.1538  -17.8178   17.9961 C   0  0  0  0  0  0  0  0  0  0  0  0
  -20.7789  -30.8720   22.9834 C   0  0  0  0  0  0  0  0  0  0  0  0
  -22.0096  -29.4231   24.4745 C   0  0  0  0  0  0  0  0  0  0  0  0
  -28.5076  -17.8511   18.3276 C   0  0  0  0  0  0  0  0  0  0  0  0
  -18.2929  -28.6728   23.6218 C   0  0  0  0  0  0  0  0  0  0  0  0
  -17.0479  -28.4614   23.0294 C   0  0  0  0  0  0  0  0  0  0  0  0
  -28.0834  -16.3699   20.1837 C   0  0  0  0  0  0  0  0  0  0  0  0
  -28.7627  -24.1690   20.7385 C   0  0  0  0  0  0  0  0  0  0  0  0
  -16.2530  -30.5461   23.9562 C   0  0  0  0  0  0  0  0  0  0  0  0
  -29.8713  -22.6326   18.7406 C   0  0  0  0  0  0  0  0  0  0  0  0
  -23.0609  -30.2673   22.4697 C   0  0  0  0  0  0  0  0  0  0  0  0
  -30.2137  -22.3699   20.0594 C   0  0  0  0  0  0  0  0  0  0  0  0
  -25.2516  -31.2929   21.6595 C   0  0  0  0  0  0  0  0  0  0  0  0
  -21.9075  -22.0528   19.4364 C   0  0  0  0  0  0  0  0  0  0  0  0
  -26.2513  -17.0676   18.7637 C   0  0  0  0  0  0  0  0  0  0  0  0
  -23.0323  -21.3292   19.8765 C   0  0  0  0  0  0  0  0  0  0  0  0
  -26.7191  -16.3266   19.8583 C   0  0  0  0  0  0  0  0  0  0  0  0
  -29.6510  -23.1490   21.0658 C   0  0  0  0  0  0  0  0  0  0  0  0
  -20.8387  -30.1077   24.1487 C   0  0  0  0  0  0  0  0  0  0  0  0
  -28.9721  -17.1295   19.4233 C   0  0  0  0  0  0  0  0  0  0  0  0
  -18.5179  -29.8208   24.3814 C   0  0  0  0  0  0  0  0  0  0  0  0
  -16.0280  -29.3980   23.1966 C   0  0  0  0  0  0  0  0  0  0  0  0
  -17.4980  -30.7575   24.5486 C   0  0  0  0  0  0  0  0  0  0  0  0
  -24.2088  -30.3490   21.6027 C   0  0  0  0  0  0  0  0  0  0  0  0
  -26.0889  -30.9421   20.6288 C   0  0  0  0  0  0  0  0  0  0  0  0
  -28.4571  -24.3862   19.4025 C   0  0  0  0  0  0  0  0  0  0  0  0
  -31.1605  -21.2776   20.3610 C   0  0  0  0  0  0  0  0  0  0  0  0
  -25.4461  -32.3889   22.5633 C   0  0  0  0  0  0  0  0  0  0  0  0
  -23.6928  -17.7514   20.5215 C   0  0  0  0  0  0  0  0  0  0  0  0
  -31.3050  -16.5563   21.8563 C   0  0  0  0  0  0  0  0  0  0  0  0
  -23.4641  -14.5232   20.7424 C   0  0  0  0  0  0  0  0  0  0  0  0
  -25.0260  -11.4920   20.6052 C   0  0  0  0  0  0  0  0  0  0  0  0
  -27.1278  -25.7895   17.7869 C   0  0  0  0  0  0  0  0  0  0  0  0
  -20.5101  -21.6892   19.8721 C   0  0  0  0  0  0  0  0  0  0  0  0
  -24.7985  -17.0207   18.3769 C   0  0  0  0  0  0  0  0  0  0  0  0
  -25.7944  -15.4894   20.7024 C   0  0  0  0  0  0  0  0  0  0  0  0
  -20.3956  -20.2737   20.4320 C   0  0  0  0  0  0  0  0  0  0  0  0
  -26.0522  -28.8507   16.3208 C   0  0  0  0  0  0  0  0  0  0  0  0
  -21.5214  -19.9993   21.4239 C   0  0  0  0  0  0  0  0  0  0  0  0
  -25.5580  -29.6705   17.5148 C   0  0  0  0  0  0  0  0  0  0  0  0
  -25.7240  -27.3669   16.4769 C   0  0  0  0  0  0  0  0  0  0  0  0
  -25.6791  -27.5807   18.9308 C   0  0  0  0  0  0  0  0  0  0  0  0
  -22.8922  -20.0967   20.7435 C   0  0  1  0  0  0  0  0  0  0  0  0
  -23.8840  -16.6341   19.5352 C   0  0  1  0  0  0  0  0  0  0  0  0
  -26.0440  -29.0719   18.8494 C   0  0  2  0  0  0  0  0  0  0  0  0
  -31.0620  -16.5521   23.3441 C   0  0  0  0  0  0  0  0  0  0  0  0
  -24.5852   -9.0352   20.8650 C   0  0  0  0  0  0  0  0  0  0  0  0
  -23.3767  -14.8620   23.7735 C   0  0  0  0  0  0  0  0  0  0  0  0
  -23.8932  -12.4219   23.9912 C   0  0  0  0  0  0  0  0  0  0  0  0
  -21.7895  -13.1543   22.8684 C   0  0  0  0  0  0  0  0  0  0  0  0
  -25.8391  -10.9328   17.8150 C   0  0  0  0  0  0  0  0  0  0  0  0
  -31.5062  -18.8890   20.8822 C   0  0  0  0  0  0  0  0  0  0  0  0
  -30.6305  -17.6564   21.0444 C   0  0  1  0  0  0  0  0  0  1  0  0
  -24.0016  -13.4755   21.6871 C   0  0  1  0  0  0  0  0  0  0  0  0
  -24.6611  -10.2021   19.8927 C   0  0  2  0  0  0  0  0  0  0  0  0
  -23.2826  -13.4957   23.0655 C   0  0  0  0  0  0  0  0  0  0  0  0
  -24.3668  -29.4650   20.6139 N   0  0  0  0  0  0  0  0  0  0  0  0
  -25.5187  -29.8520   20.0400 N   0  0  0  0  0  0  0  0  0  0  0  0
  -29.0133  -23.6210   18.4534 N   0  3  0  0  0  0  0  0  0  0  0  0
  -24.3818  -15.4808   20.2878 N   0  0  0  0  0  0  0  0  0  0  0  0
  -26.2183  -26.8679   17.7620 N   0  0  0  0  0  0  0  0  0  0  0  0
  -29.9695  -22.9189   22.4221 N   0  0  0  0  0  0  0  0  0  0  0  0
  -27.2498  -31.4628   20.1778 N   0  0  0  0  0  0  0  0  0  0  0  0
  -32.4607  -21.5680   20.4067 N   0  0  0  0  0  0  0  0  0  0  0  0
  -24.4896  -32.6075   23.5641 N   0  0  0  0  0  0  0  0  0  0  0  0
  -27.5533  -25.4235   19.0635 N   0  0  0  0  0  0  0  0  0  0  0  0
  -23.1596  -18.9018   19.9721 N   0  0  0  0  0  0  0  0  0  0  0  0
  -23.9057  -12.2021   20.9817 N   0  0  0  0  0  0  0  0  0  0  0  0
  -30.6684  -20.0517   20.5710 N   0  3  0  0  0  0  0  0  0  0  0  0
  -25.6771   -9.8805   18.8510 N   0  3  0  0  0  0  0  0  0  0  0  0
  -26.4303  -33.1616   22.4755 O   0  0  0  0  0  0  0  0  0  0  0  0
  -24.0044  -17.5818   21.6945 O   0  0  0  0  0  0  0  0  0  0  0  0
  -32.0136  -15.6977   21.3302 O   0  0  0  0  0  0  0  0  0  0  0  0
  -22.2756  -14.4889   20.4141 O   0  0  0  0  0  0  0  0  0  0  0  0
  -26.1887  -11.8335   20.8107 O   0  0  0  0  0  0  0  0  0  0  0  0
  -27.5226  -25.2495   16.7504 O   0  0  0  0  0  0  0  0  0  0  0  0
  -19.7548  -30.0297   24.9682 O   0  0  0  0  0  0  0  0  0  0  0  0
  -30.2929  -17.1608   19.7495 O   0  0  0  0  0  0  0  0  0  1  0  0
  -14.8329  -29.1956   22.6264 F   0  0  0  0  0  0  0  0  0  0  0  0
  -17.7086  -31.8629   25.2762 F   0  0  0  0  0  0  0  0  0  0  0  0
  1  2  1  0  0  0  0
  1  5  2  0  0  0  0
  2  6  2  0  0  0  0
  3  8  2  0  0  0  0
  3 17  1  0  0  0  0
  4  9  1  0  0  0  0
  4 17  2  0  0  0  0
  5 20  1  0  0  0  0
  6 22  1  0  0  0  0
  7 10  2  0  0  0  0
  7 21  1  0  0  0  0
  8 25  1  0  0  0  0
  9 25  2  0  0  0  0
 10 26  1  0  0  0  0
 11 12  2  0  0  0  0
 11 27  1  0  0  0  0
 12 28  1  0  0  0  0
 13 23  1  0  0  0  0
 13 26  2  0  0  0  0
 14 24  1  0  0  0  0
 14 32  2  0  0  0  0
 15 28  2  0  0  0  0
 15 29  1  0  0  0  0
 16 18  1  0  0  0  0
 16 65  2  0  0  0  0
 17 30  1  0  0  0  0
 18 24  2  0  0  0  0
 18 33  1  0  0  0  0
 19 30  1  0  0  0  0
 19 31  2  0  0  0  0
 19 34  1  0  0  0  0
 20 22  2  0  0  0  0
 20 40  1  0  0  0  0
 21 23  2  0  0  0  0
 21 41  1  0  0  0  0
 22 49  1  0  0  0  0
 23 42  1  0  0  0  0
 24 68  1  0  0  0  0
 25 83  1  0  0  0  0
 26 84  1  0  0  0  0
 27 29  2  0  0  0  0
 27 83  1  0  0  0  0
 28 85  1  0  0  0  0
 29 86  1  0  0  0  0
 30 63  2  0  0  0  0
 31 64  1  0  0  0  0
 31 69  1  0  0  0  0
 32 65  1  0  0  0  0
 32 72  1  0  0  0  0
 33 70  1  0  0  0  0
 33 75  2  0  0  0  0
 34 71  1  0  0  0  0
 34 77  2  0  0  0  0
 35 50  1  0  0  0  0
 35 73  1  0  0  0  0
 35 78  2  0  0  0  0
 36 52  1  0  0  0  0
 36 59  1  0  0  0  0
 36 79  2  0  0  0  0
 37 60  1  0  0  0  0
 37 66  1  0  0  0  0
 37 80  2  0  0  0  0
 38 61  1  0  0  0  0
 38 74  1  0  0  0  0
 38 81  2  0  0  0  0
 39 67  1  0  0  0  0
 39 72  1  0  0  0  0
 39 82  2  0  0  0  0
 40 43  1  0  0  0  0
 41 50  1  0  0  0  0
 42 66  1  0  0  0  0
 43 45  1  0  0  0  0
 44 46  1  0  0  0  0
 44 47  1  0  0  0  0
 45 49  1  0  0  0  0
 46 51  1  0  0  0  0
 47 67  1  0  0  0  0
 48 51  1  0  0  0  0
 48 67  1  0  0  0  0
 49 73  1  0  0  0  0
 50 66  1  0  0  0  0
 51 64  1  0  0  0  0
 53 61  1  0  0  0  0
 54 62  1  0  0  0  0
 55 62  1  0  0  0  0
 56 62  1  0  0  0  0
 57 76  1  0  0  0  0
 58 59  1  0  0  0  0
 58 75  1  0  0  0  0
 59 84  1  0  0  0  0
 60 62  1  0  0  0  0
 60 74  1  0  0  0  0
 61 76  1  0  0  0  0
 63 64  1  0  0  0  0
M  CHG  3  65   1  75   1  76   1
M  ISO  4  39 100  59 101  72 100  84 101
M  END
> <Batch ID>
0168

> <Smiles>
CNC(C)C(=O)NC(C(=O)N1Cc2cc([101O:1][101CH:1](CNC(=N)c3cnc([100NH:0][100C:0](=O)N4CCCC(n5nc(-c6ccc(Oc7ccc(F)cc7F)cc6)c(C(N)=O)c5N)C4)cc3N)C(C)=O)ccc2CC1C(=O)NC1CCCc2ccccc21)C(C)(C)C

> <Shape>
0.252

> <Color>
0.072

> <Negative vol penalty>
0.000

$$$$

  -OEChem-04052304143D

 84 92  0     1  0  0  0  0  0999 V2000
  -28.2470  -33.4328   26.0897 C   0  0  0  0  0  0  0  0  0  0  0  0
  -28.3891  -32.3456   25.2334 C   0  0  0  0  0  0  0  0  0  0  0  0
  -24.1296   -9.3929   22.3862 C   0  0  0  0  0  0  0  0  0  0  0  0
  -24.7810   -8.5282   20.2264 C   0  0  0  0  0  0  0  0  0  0  0  0
  -27.0285  -33.6618   26.7275 C   0  0  0  0  0  0  0  0  0  0  0  0
  -27.3130  -31.4861   25.0152 C   0  0  0  0  0  0  0  0  0  0  0  0
  -26.7067  -30.3357   20.1209 C   0  0  0  0  0  0  0  0  0  0  0  0
  -23.0018   -8.5723   22.3746 C   0  0  0  0  0  0  0  0  0  0  0  0
  -23.6532   -7.7075   20.2148 C   0  0  0  0  0  0  0  0  0  0  0  0
  -27.5684  -29.3827   19.5794 C   0  0  0  0  0  0  0  0  0  0  0  0
  -22.2811   -5.3206   22.9579 C   0  0  0  0  0  0  0  0  0  0  0  0
  -21.9794   -4.6169   24.1238 C   0  0  0  0  0  0  0  0  0  0  0  0
  -29.7801  -20.7020   20.4722 C   0  0  0  0  0  0  0  0  0  0  0  0
  -25.8475  -27.7073   19.8051 C   0  0  0  0  0  0  0  0  0  0  0  0
  -19.8407   -5.7342   24.2448 C   0  0  0  0  0  0  0  0  0  0  0  0
  -25.0192   -9.3709   21.3121 C   0  0  0  0  0  0  0  0  0  0  0  0
  -30.5957  -19.5584   20.6460 C   0  0  0  0  0  0  0  0  0  0  0  0
  -27.4586   -9.9058   21.8327 C   0  0  0  0  0  0  0  0  0  0  0  0
  -25.9341  -32.8102   26.5095 C   0  0  0  0  0  0  0  0  0  0  0  0
  -25.4105  -29.9786   20.5194 C   0  0  0  0  0  0  0  0  0  0  0  0
  -26.0791  -31.7031   25.6517 C   0  0  0  0  0  0  0  0  0  0  0  0
  -24.9705  -28.6582   20.3491 C   0  0  0  0  0  0  0  0  0  0  0  0
  -22.7635   -7.7296   21.2889 C   0  0  0  0  0  0  0  0  0  0  0  0
  -27.1398  -28.0677   19.4241 C   0  0  0  0  0  0  0  0  0  0  0  0
  -21.3626   -6.2312   22.4354 C   0  0  0  0  0  0  0  0  0  0  0  0
  -20.7592   -4.8237   24.7673 C   0  0  0  0  0  0  0  0  0  0  0  0
  -20.1424   -6.4380   23.0789 C   0  0  0  0  0  0  0  0  0  0  0  0
  -26.1841  -10.2188   21.3232 C   0  0  0  0  0  0  0  0  0  0  0  0
  -31.8651  -19.9342   20.2727 C   0  0  0  0  0  0  0  0  0  0  0  0
  -28.2063  -11.0352   21.6051 C   0  0  0  0  0  0  0  0  0  0  0  0
  -30.6094  -21.6952   20.0053 C   0  0  0  0  0  0  0  0  0  0  0  0
  -30.2103  -18.2827   21.1059 C   0  0  0  0  0  0  0  0  0  0  0  0
  -28.9438  -17.8793   21.4635 C   0  0  0  0  0  0  0  0  0  0  0  0
  -27.9249   -8.7017   22.4559 C   0  0  0  0  0  0  0  0  0  0  0  0
  -28.6970  -16.4965   21.9194 C   0  0  0  0  0  0  0  0  0  0  0  0
  -23.8309  -29.9820   23.2777 C   0  0  0  0  0  0  0  0  0  0  0  0
  -21.3244  -29.1462   21.3958 C   0  0  0  0  0  0  0  0  0  0  0  0
  -20.2290  -27.7463   18.4826 C   0  0  0  0  0  0  0  0  0  0  0  0
  -24.6510  -33.0710   27.2580 C   0  0  0  0  0  0  0  0  0  0  0  0
  -24.4842  -31.0242   21.0771 C   0  0  0  0  0  0  0  0  0  0  0  0
  -23.5817  -28.2281   20.7423 C   0  0  0  0  0  0  0  0  0  0  0  0
  -23.4481  -32.3281   26.6823 C   0  0  0  0  0  0  0  0  0  0  0  0
  -27.2351  -15.1417   18.8439 C   0  0  0  0  0  0  0  0  0  0  0  0
  -23.8028  -30.8702   26.4070 C   0  0  0  0  0  0  0  0  0  0  0  0
  -26.8933  -13.7202   19.2826 C   0  0  0  0  0  0  0  0  0  0  0  0
  -27.0710  -16.1467   19.9830 C   0  0  0  0  0  0  0  0  0  0  0  0
  -27.4934  -14.3630   21.6505 C   0  0  0  0  0  0  0  0  0  0  0  0
  -24.9276  -30.7624   25.3703 C   0  0  1  0  0  0  0  0  0  0  0  0
  -23.3605  -30.4361   21.9249 C   0  0  1  0  0  0  0  0  0  0  0  0
  -27.6969  -13.3284   20.5327 C   0  0  1  0  0  0  0  0  0  0  0  0
  -33.1574  -19.2323   20.2175 C   0  0  0  0  0  0  0  0  0  0  0  0
  -18.1244  -27.1695   17.2435 C   0  0  0  0  0  0  0  0  0  0  0  0
  -20.8911  -26.7600   23.2475 C   0  0  0  0  0  0  0  0  0  0  0  0
  -19.4472  -25.7367   21.4766 C   0  0  0  0  0  0  0  0  0  0  0  0
  -18.7928  -27.9077   22.5164 C   0  0  0  0  0  0  0  0  0  0  0  0
  -20.9408  -29.5126   16.2171 C   0  0  0  0  0  0  0  0  0  0  0  0
  -29.0665  -23.6385   19.7429 C   0  0  0  0  0  0  0  0  0  0  0  0
  -27.8084  -25.7873   19.3319 C   0  0  0  0  0  0  0  0  0  1  0  0
  -20.7422  -27.8416   20.9078 C   0  0  1  0  0  0  0  0  0  0  0  0
  -19.2076  -28.2144   17.4617 C   0  0  2  0  0  0  0  0  0  0  0  0
  -19.9952  -27.0689   22.0314 C   0  0  0  0  0  0  0  0  0  0  0  0
  -29.1490  -25.0798   19.2665 C   0  0  0  0  0  0  0  0  0  0  0  0
  -26.1220  -11.4507   20.8107 N   0  0  0  0  0  0  0  0  0  0  0  0
  -27.3668  -11.9217   20.9971 N   0  0  0  0  0  0  0  0  0  0  0  0
  -27.8011  -15.7204   21.1863 N   0  0  0  0  0  0  0  0  0  0  0  0
  -22.7154  -29.2857   21.2888 N   0  0  0  0  0  0  0  0  0  0  0  0
  -29.4933  -11.3466   21.8678 N   0  0  0  0  0  0  0  0  0  0  0  0
  -27.0254   -7.6381   22.6112 N   0  0  0  0  0  0  0  0  0  0  0  0
  -30.3673  -23.0149   19.6613 N   0  0  0  0  0  0  0  0  0  0  0  0
  -24.4089  -30.9813   24.0371 N   0  0  0  0  0  0  0  0  0  0  0  0
  -19.9110  -28.1714   19.7551 N   0  0  0  0  0  0  0  0  0  0  0  0
  -19.8690  -28.4859   16.1541 N   0  3  0  0  0  0  0  0  0  0  0  0
  -29.0998   -8.5786   22.8778 O   0  0  0  0  0  0  0  0  0  0  0  0
  -29.2965  -16.1141   22.9259 O   0  0  0  0  0  0  0  0  0  0  0  0
  -23.6792  -28.8119   23.6087 O   0  0  0  0  0  0  0  0  0  0  0  0
  -20.5719  -30.0124   21.8486 O   0  0  0  0  0  0  0  0  0  0  0  0
  -21.2088  -27.0681   18.1818 O   0  0  0  0  0  0  0  0  0  0  0  0
  -31.8820  -21.2353   19.8810 O   0  0  0  0  0  0  0  0  0  0  0  0
  -21.6632   -6.9285   21.2774 O   0  0  0  0  0  0  0  0  0  0  0  0
  -27.9790  -27.1354   18.8964 O   0  0  0  0  0  0  0  0  0  1  0  0
  -20.4690   -4.1467   25.8861 F   0  0  0  0  0  0  0  0  0  0  0  0
  -19.2555   -7.3106   22.5811 F   0  0  0  0  0  0  0  0  0  0  0  0
  -30.0478  -25.7570   20.0259 F   0  0  0  0  0  0  0  0  0  0  0  0
  -29.6063  -25.1092   17.9884 F   0  0  0  0  0  0  0  0  0  0  0  0
  1  2  1  0  0  0  0
  1  5  2  0  0  0  0
  2  6  2  0  0  0  0
  3  8  2  0  0  0  0
  3 16  1  0  0  0  0
  4  9  1  0  0  0  0
  4 16  2  0  0  0  0
  5 19  1  0  0  0  0
  6 21  1  0  0  0  0
  7 10  2  0  0  0  0
  7 20  1  0  0  0  0
  8 23  1  0  0  0  0
  9 23  2  0  0  0  0
 10 24  1  0  0  0  0
 11 12  2  0  0  0  0
 11 25  1  0  0  0  0
 12 26  1  0  0  0  0
 13 17  1  0  0  0  0
 13 31  2  0  0  0  0
 14 22  1  0  0  0  0
 14 24  2  0  0  0  0
 15 26  2  0  0  0  0
 15 27  1  0  0  0  0
 16 28  1  0  0  0  0
 17 29  2  0  0  0  0
 17 32  1  0  0  0  0
 18 28  1  0  0  0  0
 18 30  2  0  0  0  0
 18 34  1  0  0  0  0
 19 21  2  0  0  0  0
 19 39  1  0  0  0  0
 20 22  2  0  0  0  0
 20 40  1  0  0  0  0
 21 48  1  0  0  0  0
 22 41  1  0  0  0  0
 23 79  1  0  0  0  0
 24 80  1  0  0  0  0
 25 27  2  0  0  0  0
 25 79  1  0  0  0  0
 26 81  1  0  0  0  0
 27 82  1  0  0  0  0
 28 63  2  0  0  0  0
 29 51  1  0  0  0  0
 29 78  1  0  0  0  0
 30 64  1  0  0  0  0
 30 67  1  0  0  0  0
 31 69  1  0  0  0  0
 31 78  1  0  0  0  0
 32 33  2  0  0  0  0
 33 35  1  0  0  0  0
 34 68  1  0  0  0  0
 34 73  2  0  0  0  0
 35 65  1  0  0  0  0
 35 74  2  0  0  0  0
 36 49  1  0  0  0  0
 36 70  1  0  0  0  0
 36 75  2  0  0  0  0
 37 59  1  0  0  0  0
 37 66  1  0  0  0  0
 37 76  2  0  0  0  0
 38 60  1  0  0  0  0
 38 71  1  0  0  0  0
 38 77  2  0  0  0  0
 39 42  1  0  0  0  0
 40 49  1  0  0  0  0
 41 66  1  0  0  0  0
 42 44  1  0  0  0  0
 43 45  1  0  0  0  0
 43 46  1  0  0  0  0
 44 48  1  0  0  0  0
 45 50  1  0  0  0  0
 46 65  1  0  0  0  0
 47 50  1  0  0  0  0
 47 65  1  0  0  0  0
 48 70  1  0  0  0  0
 49 66  1  0  0  0  0
 50 64  1  0  0  0  0
 52 60  1  0  0  0  0
 53 61  1  0  0  0  0
 54 61  1  0  0  0  0
 55 61  1  0  0  0  0
 56 72  1  0  0  0  0
 57 62  1  0  0  0  0
 57 69  1  0  0  0  0
 58 62  1  0  0  0  0
 58 80  1  0  0  0  0
 59 61  1  0  0  0  0
 59 71  1  0  0  0  0
 60 72  1  0  0  0  0
 62 83  1  0  0  0  0
 62 84  1  0  0  0  0
 63 64  1  0  0  0  0
M  CHG  1  72   1
M  ISO  4  33 100  35 100  58 101  80 101
M  END
> <Batch ID>
0168

> <Smiles>
CNC(C)C(=O)NC(C(=O)N1Cc2cc([101O:1][101CH2:1]C(F)(F)CNc3cc(C=[100CH:0][100C:0](=O)N4CCCC(n5nc(-c6ccc(Oc7ccc(F)cc7F)cc6)c(C(N)=O)c5N)C4)c(C)o3)ccc2CC1C(=O)NC1CCCc2ccccc21)C(C)(C)C

> <Shape>
0.321

> <Color>
0.099

> <Negative vol penalty>
0.000

$$$$

  -OEChem-04052304143D

 84 92  0     1  0  0  0  0  0999 V2000
  -36.1640  -29.0581   15.8086 C   0  0  0  0  0  0  0  0  0  0  0  0
  -36.1136  -27.9869   16.6948 C   0  0  0  0  0  0  0  0  0  0  0  0
  -23.0020   -9.9564   19.8773 C   0  0  0  0  0  0  0  0  0  0  0  0
  -23.8190   -9.7728   22.1436 C   0  0  0  0  0  0  0  0  0  0  0  0
  -35.0146  -29.8050   15.5536 C   0  0  0  0  0  0  0  0  0  0  0  0
  -34.9140  -27.6626   17.3274 C   0  0  0  0  0  0  0  0  0  0  0  0
  -33.9871  -22.6842   17.3002 C   0  0  0  0  0  0  0  0  0  0  0  0
  -22.2304   -8.8094   20.0625 C   0  0  0  0  0  0  0  0  0  0  0  0
  -23.0473   -8.6257   22.3288 C   0  0  0  0  0  0  0  0  0  0  0  0
  -34.6779  -21.9028   18.2255 C   0  0  0  0  0  0  0  0  0  0  0  0
  -20.3216   -5.7235   19.8235 C   0  0  0  0  0  0  0  0  0  0  0  0
  -20.3303   -4.7637   18.8114 C   0  0  0  0  0  0  0  0  0  0  0  0
  -30.5073  -18.5691   23.5453 C   0  0  0  0  0  0  0  0  0  0  0  0
  -31.7728  -18.9863   23.1483 C   0  0  0  0  0  0  0  0  0  0  0  0
  -32.7324  -21.8825   19.6517 C   0  0  0  0  0  0  0  0  0  0  0  0
  -22.7169   -4.5014   19.0809 C   0  0  0  0  0  0  0  0  0  0  0  0
  -23.7964  -10.4382   20.9178 C   0  0  0  0  0  0  0  0  0  0  0  0
  -24.2108  -12.9547   20.9733 C   0  0  0  0  0  0  0  0  0  0  0  0
  -33.7981  -29.4838   16.1761 C   0  0  0  0  0  0  0  0  0  0  0  0
  -32.6651  -23.0803   17.5492 C   0  0  0  0  0  0  0  0  0  0  0  0
  -33.7476  -28.4068   17.0816 C   0  0  0  0  0  0  0  0  0  0  0  0
  -32.0262  -22.6667   18.7268 C   0  0  0  0  0  0  0  0  0  0  0  0
  -22.2530   -8.1440   21.2883 C   0  0  0  0  0  0  0  0  0  0  0  0
  -34.0515  -21.5043   19.4028 C   0  0  0  0  0  0  0  0  0  0  0  0
  -21.5105   -6.0723   20.4643 C   0  0  0  0  0  0  0  0  0  0  0  0
  -21.5280   -4.1527   18.4401 C   0  0  0  0  0  0  0  0  0  0  0  0
  -29.9817  -17.3848   23.0408 C   0  0  0  0  0  0  0  0  0  0  0  0
  -22.7081   -5.4613   20.0930 C   0  0  0  0  0  0  0  0  0  0  0  0
  -24.5942  -11.6227   20.7269 C   0  0  0  0  0  0  0  0  0  0  0  0
  -32.4667  -18.1898   22.2518 C   0  0  0  0  0  0  0  0  0  0  0  0
  -30.7557  -16.6601   22.1489 C   0  0  0  0  0  0  0  0  0  0  0  0
  -25.3155  -13.6979   20.6362 C   0  0  0  0  0  0  0  0  0  0  0  0
  -22.9673  -13.4737   21.4632 C   0  0  0  0  0  0  0  0  0  0  0  0
  -31.1920  -25.8727   17.9182 C   0  0  0  0  0  0  0  0  0  0  0  0
  -28.5300  -24.0197   17.9689 C   0  0  0  0  0  0  0  0  0  0  0  0
  -27.1448  -20.9536   18.5407 C   0  0  0  0  0  0  0  0  0  0  0  0
  -30.8133  -14.5738   20.7381 C   0  0  0  0  0  0  0  0  0  0  0  0
  -32.5932  -30.3495   15.9051 C   0  0  0  0  0  0  0  0  0  0  0  0
  -31.9249  -23.9008   16.5288 C   0  0  0  0  0  0  0  0  0  0  0  0
  -30.6016  -23.0484   19.0322 C   0  0  0  0  0  0  0  0  0  0  0  0
  -31.2746  -29.7085   16.3303 C   0  0  0  0  0  0  0  0  0  0  0  0
  -29.5679  -12.3736   18.2310 C   0  0  0  0  0  0  0  0  0  0  0  0
  -31.3969  -29.1138   17.7296 C   0  0  0  0  0  0  0  0  0  0  0  0
  -28.1314  -12.0917   18.6771 C   0  0  0  0  0  0  0  0  0  0  0  0
  -30.5193  -12.4873   19.4208 C   0  0  0  0  0  0  0  0  0  0  0  0
  -28.6702  -13.1611   20.9027 C   0  0  0  0  0  0  0  0  0  0  0  0
  -32.4593  -28.0087   17.7685 C   0  0  1  0  0  0  0  0  0  0  0  0
  -30.7528  -24.6765   17.1220 C   0  0  1  0  0  0  0  0  0  0  0  0
  -27.6634  -13.1027   19.7422 C   0  0  2  0  0  0  0  0  0  0  0  0
  -24.9392  -19.7565   18.5360 C   0  0  0  0  0  0  0  0  0  0  0  0
  -27.8012  -25.3571   20.6128 C   0  0  0  0  0  0  0  0  0  0  0  0
  -26.1645  -23.5064   21.0177 C   0  0  0  0  0  0  0  0  0  0  0  0
  -25.8776  -25.0148   19.0518 C   0  0  0  0  0  0  0  0  0  0  0  0
  -36.9469  -17.6692   20.1728 C   0  0  0  0  0  0  0  0  0  0  0  0
  -28.0424  -19.0655   16.4458 C   0  0  0  0  0  0  0  0  0  0  0  0
  -34.5689  -17.8979   20.9398 C   0  0  0  0  0  0  0  0  0  0  0  0
  -35.7231  -19.8597   19.7991 C   0  0  0  0  0  0  0  0  0  1  0  0
  -27.7429  -23.3082   19.0428 C   0  0  1  0  0  0  0  0  0  0  0  0
  -26.1737  -20.1190   17.7252 C   0  0  2  0  0  0  0  0  0  0  0  0
  -26.9241  -24.2909   19.9267 C   0  0  0  0  0  0  0  0  0  0  0  0
  -35.8921  -18.6373   20.7081 C   0  0  2  0  0  0  0  0  0  0  0  0
  -25.8448  -11.5225   20.2685 N   0  0  0  0  0  0  0  0  0  0  0  0
  -31.9891  -17.0332   21.7400 N   0  0  0  0  0  0  0  0  0  0  0  0
  -26.2567  -12.8010   20.2241 N   0  0  0  0  0  0  0  0  0  0  0  0
  -29.9221  -23.8566   18.0063 N   0  0  0  0  0  0  0  0  0  0  0  0
  -30.0137  -13.4658   20.3860 N   0  0  0  0  0  0  0  0  0  0  0  0
  -25.5639  -15.0247   20.6549 N   0  0  0  0  0  0  0  0  0  0  0  0
  -21.9373  -12.5709   21.7606 N   0  0  0  0  0  0  0  0  0  0  0  0
  -30.2147  -15.4537   21.6392 N   0  0  0  0  0  0  0  0  0  0  0  0
  -33.7259  -18.6188   21.8656 N   0  0  0  0  0  0  0  0  0  0  0  0
  -31.9375  -26.7857   17.1970 N   0  0  0  0  0  0  0  0  0  0  0  0
  -26.9348  -22.3042   18.3593 N   0  0  0  0  0  0  0  0  0  0  0  0
  -26.8268  -18.8577   17.2741 N   0  3  0  0  0  0  0  0  0  0  0  0
  -22.7696  -14.7028   21.6167 O   0  0  0  0  0  0  0  0  0  0  0  0
  -30.8764  -25.9616   19.0990 O   0  0  0  0  0  0  0  0  0  0  0  0
  -27.9312  -24.6894   17.1236 O   0  0  0  0  0  0  0  0  0  0  0  0
  -28.0013  -20.4570   19.2689 O   0  0  0  0  0  0  0  0  0  0  0  0
  -31.9349  -14.7448   20.2535 O   0  0  0  0  0  0  0  0  0  0  0  0
  -21.5000   -7.0248   21.4694 O   0  0  0  0  0  0  0  0  0  0  0  0
  -34.7237  -20.7422   20.3079 O   0  0  0  0  0  0  0  0  0  1  0  0
  -21.5361   -3.2299   17.4692 F   0  0  0  0  0  0  0  0  0  0  0  0
  -28.7636  -16.9719   23.4138 F   0  0  0  0  0  0  0  0  0  0  0  0
  -23.8533   -5.7914   20.7057 F   0  0  0  0  0  0  0  0  0  0  0  0
  -36.3388  -19.0820   21.9225 F   0  0  0  0  0  0  0  0  0  0  0  0
  1  2  1  0  0  0  0
  1  5  2  0  0  0  0
  2  6  2  0  0  0  0
  3  8  2  0  0  0  0
  3 17  1  0  0  0  0
  4  9  1  0  0  0  0
  4 17  2  0  0  0  0
  5 19  1  0  0  0  0
  6 21  1  0  0  0  0
  7 10  2  0  0  0  0
  7 20  1  0  0  0  0
  8 23  1  0  0  0  0
  9 23  2  0  0  0  0
 10 24  1  0  0  0  0
 11 12  2  0  0  0  0
 11 25  1  0  0  0  0
 12 26  1  0  0  0  0
 13 14  2  0  0  0  0
 13 27  1  0  0  0  0
 14 30  1  0  0  0  0
 15 22  1  0  0  0  0
 15 24  2  0  0  0  0
 16 26  2  0  0  0  0
 16 28  1  0  0  0  0
 17 29  1  0  0  0  0
 18 29  1  0  0  0  0
 18 32  2  0  0  0  0
 18 33  1  0  0  0  0
 19 21  2  0  0  0  0
 19 38  1  0  0  0  0
 20 22  2  0  0  0  0
 20 39  1  0  0  0  0
 21 47  1  0  0  0  0
 22 40  1  0  0  0  0
 23 79  1  0  0  0  0
 24 80  1  0  0  0  0
 25 28  2  0  0  0  0
 25 79  1  0  0  0  0
 26 81  1  0  0  0  0
 27 31  2  0  0  0  0
 27 82  1  0  0  0  0
 28 83  1  0  0  0  0
 29 62  2  0  0  0  0
 30 63  2  0  0  0  0
 30 70  1  0  0  0  0
 31 63  1  0  0  0  0
 31 69  1  0  0  0  0
 32 64  1  0  0  0  0
 32 67  1  0  0  0  0
 33 68  1  0  0  0  0
 33 74  2  0  0  0  0
 34 48  1  0  0  0  0
 34 71  1  0  0  0  0
 34 75  2  0  0  0  0
 35 58  1  0  0  0  0
 35 65  1  0  0  0  0
 35 76  2  0  0  0  0
 36 59  1  0  0  0  0
 36 72  1  0  0  0  0
 36 77  2  0  0  0  0
 37 66  1  0  0  0  0
 37 69  1  0  0  0  0
 37 78  2  0  0  0  0
 38 41  1  0  0  0  0
 39 48  1  0  0  0  0
 40 65  1  0  0  0  0
 41 43  1  0  0  0  0
 42 44  1  0  0  0  0
 42 45  1  0  0  0  0
 43 47  1  0  0  0  0
 44 49  1  0  0  0  0
 45 66  1  0  0  0  0
 46 49  1  0  0  0  0
 46 66  1  0  0  0  0
 47 71  1  0  0  0  0
 48 65  1  0  0  0  0
 49 64  1  0  0  0  0
 50 59  1  0  0  0  0
 51 60  1  0  0  0  0
 52 60  1  0  0  0  0
 53 60  1  0  0  0  0
 54 61  1  0  0  0  0
 55 73  1  0  0  0  0
 56 61  1  0  0  0  0
 56 70  1  0  0  0  0
 57 61  1  0  0  0  0
 57 80  1  0  0  0  0
 58 60  1  0  0  0  0
 58 72  1  0  0  0  0
 59 73  1  0  0  0  0
 61 84  1  0  0  0  0
 62 64  1  0  0  0  0
M  CHG  1  73   1
M  ISO  4  37 100  57 101  69 100  80 101
M  END
> <Batch ID>
0168

> <Smiles>
CNC(C)C(=O)NC(C(=O)N1Cc2cc([101O:1][101CH2:1]C(C)(F)CNc3ccc(F)c([100NH:0][100C:0](=O)N4CCCC(n5nc(-c6ccc(Oc7ccc(F)cc7F)cc6)c(C(N)=O)c5N)C4)n3)ccc2CC1C(=O)NC1CCCc2ccccc21)C(C)(C)C

> <Shape>
0.213

> <Color>
0.202

> <Negative vol penalty>
0.000

$$$$

  -OEChem-04052304143D

 88 96  0     1  0  0  0  0  0999 V2000
  -27.2763  -33.2207   27.1604 C   0  0  0  0  0  0  0  0  0  0  0  0
  -27.6586  -32.2685   26.2209 C   0  0  0  0  0  0  0  0  0  0  0  0
  -22.2015  -10.0498   23.1018 C   0  0  0  0  0  0  0  0  0  0  0  0
  -23.2933  -10.0761   20.9467 C   0  0  0  0  0  0  0  0  0  0  0  0
  -25.9461  -33.2983   27.5709 C   0  0  0  0  0  0  0  0  0  0  0  0
  -26.7111  -31.3927   25.6922 C   0  0  0  0  0  0  0  0  0  0  0  0
  -27.1209  -30.8878   20.6701 C   0  0  0  0  0  0  0  0  0  0  0  0
  -21.7339   -8.7602   22.8492 C   0  0  0  0  0  0  0  0  0  0  0  0
  -22.8257   -8.7865   20.6941 C   0  0  0  0  0  0  0  0  0  0  0  0
  -28.1388  -30.0625   20.1940 C   0  0  0  0  0  0  0  0  0  0  0  0
  -20.5542   -5.3224   22.9227 C   0  0  0  0  0  0  0  0  0  0  0  0
  -20.6627   -4.3811   23.9463 C   0  0  0  0  0  0  0  0  0  0  0  0
  -26.5390  -28.2862   19.8705 C   0  0  0  0  0  0  0  0  0  0  0  0
  -27.4610  -18.9708   20.5370 C   0  0  0  0  0  0  0  0  0  0  0  0
  -23.0619   -4.6653   23.9533 C   0  0  0  0  0  0  0  0  0  0  0  0
  -26.8061  -21.5969   20.1900 C   0  0  0  0  0  0  0  0  0  0  0  0
  -22.9812  -10.7078   22.1506 C   0  0  0  0  0  0  0  0  0  0  0  0
  -24.6766  -12.3993   23.0292 C   0  0  0  0  0  0  0  0  0  0  0  0
  -24.9800  -32.4294   27.0399 C   0  0  0  0  0  0  0  0  0  0  0  0
  -25.8041  -30.4142   20.7603 C   0  0  0  0  0  0  0  0  0  0  0  0
  -25.3670  -31.4579   26.0971 C   0  0  0  0  0  0  0  0  0  0  0  0
  -25.5058  -29.1084   20.3456 C   0  0  0  0  0  0  0  0  0  0  0  0
  -28.4734  -19.9181   20.4318 C   0  0  0  0  0  0  0  0  0  0  0  0
  -28.1481  -21.2583   20.2548 C   0  0  0  0  0  0  0  0  0  0  0  0
  -22.0460   -8.1285   21.6454 C   0  0  0  0  0  0  0  0  0  0  0  0
  -27.8484  -28.7606   19.7969 C   0  0  0  0  0  0  0  0  0  0  0  0
  -21.6996   -5.9351   22.4143 C   0  0  0  0  0  0  0  0  0  0  0  0
  -21.9165   -4.0526   24.4616 C   0  0  0  0  0  0  0  0  0  0  0  0
  -22.9534   -5.6065   22.9296 C   0  0  0  0  0  0  0  0  0  0  0  0
  -23.4640  -12.0402   22.4107 C   0  0  0  0  0  0  0  0  0  0  0  0
  -26.1498  -19.4118   20.4597 C   0  0  0  0  0  0  0  0  0  0  0  0
  -24.6637  -13.7727   23.0385 C   0  0  0  0  0  0  0  0  0  0  0  0
  -25.7212  -11.5660   23.5487 C   0  0  0  0  0  0  0  0  0  0  0  0
  -30.1278  -24.4089   19.8748 C   0  0  0  0  0  0  0  0  0  0  0  0
  -30.0541  -25.9096   19.6709 C   0  0  0  0  0  0  0  0  0  0  0  0
  -23.7406  -29.9623   23.1355 C   0  0  0  0  0  0  0  0  0  0  0  0
  -21.7017  -29.2627   20.7115 C   0  0  0  0  0  0  0  0  0  0  0  0
  -21.2808  -28.2171   17.4902 C   0  0  0  0  0  0  0  0  0  0  0  0
  -23.7484  -18.6525   20.5179 C   0  0  0  0  0  0  0  0  0  0  0  0
  -23.5634  -32.5202   27.5495 C   0  0  0  0  0  0  0  0  0  0  0  0
  -24.7128  -31.3257   21.2508 C   0  0  0  0  0  0  0  0  0  0  0  0
  -24.1048  -28.5585   20.4036 C   0  0  0  0  0  0  0  0  0  0  0  0
  -22.5498  -31.8019   26.6625 C   0  0  0  0  0  0  0  0  0  0  0  0
  -20.9398  -17.0390   21.9964 C   0  0  0  0  0  0  0  0  0  0  0  0
  -23.0598  -30.4150   26.2841 C   0  0  0  0  0  0  0  0  0  0  0  0
  -21.4459  -15.6242   22.2868 C   0  0  0  0  0  0  0  0  0  0  0  0
  -21.5096  -17.5880   20.6895 C   0  0  0  0  0  0  0  0  0  0  0  0
  -23.4789  -16.1188   20.8694 C   0  0  0  0  0  0  0  0  0  0  0  0
  -24.3636  -30.5065   25.4821 C   0  0  1  0  0  0  0  0  0  0  0  0
  -23.4985  -30.5712   21.7833 C   0  0  1  0  0  0  0  0  0  0  0  0
  -22.9833  -15.5484   22.2083 C   0  0  2  0  0  0  0  0  0  0  0  0
  -19.4955  -27.7070   15.8021 C   0  0  0  0  0  0  0  0  0  0  0  0
  -21.1129  -26.6283   22.1338 C   0  0  0  0  0  0  0  0  0  0  0  0
  -20.1082  -25.7824   20.0023 C   0  0  0  0  0  0  0  0  0  0  0  0
  -19.1072  -27.7558   21.1540 C   0  0  0  0  0  0  0  0  0  0  0  0
  -22.2672  -30.3087   15.6432 C   0  0  0  0  0  0  0  0  0  0  0  0
  -28.8355  -23.6383   19.9568 C   0  0  0  0  0  0  0  0  0  0  0  0
  -28.6944  -26.5510   19.5566 C   0  0  0  0  0  0  0  0  0  1  0  0
  -21.3224  -28.0084   19.9619 C   0  0  1  0  0  0  0  0  0  0  0  0
  -20.4358  -28.7666   16.3551 C   0  0  2  0  0  0  0  0  0  0  0  0
  -29.8965  -19.4721   20.5135 C   0  0  0  0  0  0  0  0  0  0  0  0
  -20.4395  -27.0531   20.8136 C   0  0  0  0  0  0  0  0  0  0  0  0
  -25.7949  -20.7050   20.2883 N   0  0  0  0  0  0  0  0  0  0  0  0
  -22.7338  -13.0999   22.0533 N   0  0  0  0  0  0  0  0  0  0  0  0
  -23.4897  -14.1385   22.4484 N   0  0  0  0  0  0  0  0  0  0  0  0
  -23.0734  -29.4864   20.8964 N   0  0  0  0  0  0  0  0  0  0  0  0
  -22.9707  -17.4877   20.6886 N   0  0  0  0  0  0  0  0  0  0  0  0
  -25.5421  -14.6911   23.4940 N   0  0  0  0  0  0  0  0  0  0  0  0
  -25.5739  -10.1752   23.4579 N   0  0  0  0  0  0  0  0  0  0  0  0
  -29.1235  -22.2375   20.1430 N   0  0  0  0  0  0  0  0  0  0  0  0
  -25.1255  -18.4386   20.5673 N   0  0  0  0  0  0  0  0  0  0  0  0
  -24.0884  -30.8776   24.1106 N   0  0  0  0  0  0  0  0  0  0  0  0
  -20.6989  -28.4487   18.7186 N   0  0  0  0  0  0  0  0  0  0  0  0
  -21.3075  -29.2466   15.2457 N   0  3  0  0  0  0  0  0  0  0  0  0
  -26.7472  -12.0404   24.0926 O   0  0  0  0  0  0  0  0  0  0  0  0
  -31.2442  -23.9132   19.9621 O   0  0  0  0  0  0  0  0  0  0  0  0
  -31.1119  -26.5228   19.6075 O   0  0  0  0  0  0  0  0  0  0  0  0
  -23.6194  -28.7519   23.2835 O   0  0  0  0  0  0  0  0  0  0  0  0
  -20.8140  -30.0199   21.1117 O   0  0  0  0  0  0  0  0  0  0  0  0
  -22.3484  -27.6370   17.3054 O   0  0  0  0  0  0  0  0  0  0  0  0
  -23.2308  -19.7623   20.3682 O   0  0  0  0  0  0  0  0  0  0  0  0
  -21.5901   -6.8700   21.3986 O   0  0  0  0  0  0  0  0  0  0  0  0
  -28.8402  -27.9527   19.3325 O   0  0  0  0  0  0  0  0  0  1  0  0
  -22.0204   -3.1498   25.4457 F   0  0  0  0  0  0  0  0  0  0  0  0
  -24.0572   -6.1927   22.4461 F   0  0  0  0  0  0  0  0  0  0  0  0
  -30.0368  -18.1257   20.6898 F   0  0  0  0  0  0  0  0  0  0  0  0
  -30.6238  -19.7644   19.3959 F   0  0  0  0  0  0  0  0  0  0  0  0
  -30.5671  -20.0508   21.5508 F   0  0  0  0  0  0  0  0  0  0  0  0
  1  2  1  0  0  0  0
  1  5  2  0  0  0  0
  2  6  2  0  0  0  0
  3  8  2  0  0  0  0
  3 17  1  0  0  0  0
  4  9  1  0  0  0  0
  4 17  2  0  0  0  0
  5 19  1  0  0  0  0
  6 21  1  0  0  0  0
  7 10  2  0  0  0  0
  7 20  1  0  0  0  0
  8 25  1  0  0  0  0
  9 25  2  0  0  0  0
 10 26  1  0  0  0  0
 11 12  2  0  0  0  0
 11 27  1  0  0  0  0
 12 28  1  0  0  0  0
 13 22  1  0  0  0  0
 13 26  2  0  0  0  0
 14 23  1  0  0  0  0
 14 31  2  0  0  0  0
 15 28  2  0  0  0  0
 15 29  1  0  0  0  0
 16 24  1  0  0  0  0
 16 63  2  0  0  0  0
 17 30  1  0  0  0  0
 18 30  1  0  0  0  0
 18 32  2  0  0  0  0
 18 33  1  0  0  0  0
 19 21  2  0  0  0  0
 19 40  1  0  0  0  0
 20 22  2  0  0  0  0
 20 41  1  0  0  0  0
 21 49  1  0  0  0  0
 22 42  1  0  0  0  0
 23 24  2  0  0  0  0
 23 61  1  0  0  0  0
 24 70  1  0  0  0  0
 25 82  1  0  0  0  0
 26 83  1  0  0  0  0
 27 29  2  0  0  0  0
 27 82  1  0  0  0  0
 28 84  1  0  0  0  0
 29 85  1  0  0  0  0
 30 64  2  0  0  0  0
 31 63  1  0  0  0  0
 31 71  1  0  0  0  0
 32 65  1  0  0  0  0
 32 68  1  0  0  0  0
 33 69  1  0  0  0  0
 33 75  2  0  0  0  0
 34 35  1  0  0  0  0
 34 57  1  0  0  0  0
 34 76  2  0  0  0  0
 35 58  1  0  0  0  0
 35 77  2  0  0  0  0
 36 50  1  0  0  0  0
 36 72  1  0  0  0  0
 36 78  2  0  0  0  0
 37 59  1  0  0  0  0
 37 66  1  0  0  0  0
 37 79  2  0  0  0  0
 38 60  1  0  0  0  0
 38 73  1  0  0  0  0
 38 80  2  0  0  0  0
 39 67  1  0  0  0  0
 39 71  1  0  0  0  0
 39 81  2  0  0  0  0
 40 43  1  0  0  0  0
 41 50  1  0  0  0  0
 42 66  1  0  0  0  0
 43 45  1  0  0  0  0
 44 46  1  0  0  0  0
 44 47  1  0  0  0  0
 45 49  1  0  0  0  0
 46 51  1  0  0  0  0
 47 67  1  0  0  0  0
 48 51  1  0  0  0  0
 48 67  1  0  0  0  0
 49 72  1  0  0  0  0
 50 66  1  0  0  0  0
 51 65  1  0  0  0  0
 52 60  1  0  0  0  0
 53 62  1  0  0  0  0
 54 62  1  0  0  0  0
 55 62  1  0  0  0  0
 56 74  1  0  0  0  0
 57 70  1  0  0  0  0
 58 83  1  0  0  0  0
 59 62  1  0  0  0  0
 59 73  1  0  0  0  0
 60 74  1  0  0  0  0
 61 86  1  0  0  0  0
 61 87  1  0  0  0  0
 61 88  1  0  0  0  0
 64 65  1  0  0  0  0
M  CHG  1  74   1
M  ISO  4  39 100  58 101  71 100  83 101
M  END
> <Batch ID>
0168

> <Smiles>
CNC(C)C(=O)NC(C(=O)N1Cc2cc([101O:1][101CH2:1]C(=O)C(=O)CNc3cnc([100NH:0][100C:0](=O)N4CCCC(n5nc(-c6ccc(Oc7ccc(F)cc7F)cc6)c(C(N)=O)c5N)C4)cc3C(F)(F)F)ccc2CC1C(=O)NC1CCCc2ccccc21)C(C)(C)C

> <Shape>
0.285

> <Color>
0.087

> <Negative vol penalty>
0.000

$$$$

  -OEChem-04052304143D

 84 92  0     1  0  0  0  0  0999 V2000
  -31.5278  -34.5369   23.6706 C   0  0  0  0  0  0  0  0  0  0  0  0
  -31.3173  -33.3792   22.9285 C   0  0  0  0  0  0  0  0  0  0  0  0
  -23.4249   -9.9695   22.1747 C   0  0  0  0  0  0  0  0  0  0  0  0
  -24.3024  -11.3822   23.9273 C   0  0  0  0  0  0  0  0  0  0  0  0
  -30.6942  -34.8342   24.7479 C   0  0  0  0  0  0  0  0  0  0  0  0
  -30.2737  -32.5174   23.2640 C   0  0  0  0  0  0  0  0  0  0  0  0
  -26.8577  -29.1985   19.4141 C   0  0  0  0  0  0  0  0  0  0  0  0
  -22.8309   -9.1490   23.1336 C   0  0  0  0  0  0  0  0  0  0  0  0
  -23.7083  -10.5616   24.8861 C   0  0  0  0  0  0  0  0  0  0  0  0
  -26.9171  -27.8620   19.0214 C   0  0  0  0  0  0  0  0  0  0  0  0
  -20.0747   -9.1980   25.0917 C   0  0  0  0  0  0  0  0  0  0  0  0
  -18.7571   -8.7956   24.8739 C   0  0  0  0  0  0  0  0  0  0  0  0
  -29.5663  -18.4859   18.9329 C   0  0  0  0  0  0  0  0  0  0  0  0
  -25.2593  -27.3063   20.6833 C   0  0  0  0  0  0  0  0  0  0  0  0
  -19.4604   -6.4843   24.8895 C   0  0  0  0  0  0  0  0  0  0  0  0
  -24.1607  -11.0861   22.5716 C   0  0  0  0  0  0  0  0  0  0  0  0
  -30.4229  -19.4296   18.3174 C   0  0  0  0  0  0  0  0  0  0  0  0
  -24.2078  -13.0609   20.9574 C   0  0  0  0  0  0  0  0  0  0  0  0
  -29.6338  -33.9805   25.0908 C   0  0  0  0  0  0  0  0  0  0  0  0
  -26.0052  -29.5977   20.4534 C   0  0  0  0  0  0  0  0  0  0  0  0
  -29.4259  -32.8028   24.3477 C   0  0  0  0  0  0  0  0  0  0  0  0
  -25.1891  -28.6488   21.0856 C   0  0  0  0  0  0  0  0  0  0  0  0
  -22.9726   -9.4450   24.4893 C   0  0  0  0  0  0  0  0  0  0  0  0
  -26.1200  -26.9152   19.6579 C   0  0  0  0  0  0  0  0  0  0  0  0
  -21.0853   -8.2436   25.2082 C   0  0  0  0  0  0  0  0  0  0  0  0
  -18.4499   -7.4388   24.7729 C   0  0  0  0  0  0  0  0  0  0  0  0
  -20.7781   -6.8867   25.1072 C   0  0  0  0  0  0  0  0  0  0  0  0
  -24.7751  -11.9338   21.5816 C   0  0  0  0  0  0  0  0  0  0  0  0
  -25.1869  -13.5109   20.1057 C   0  0  0  0  0  0  0  0  0  0  0  0
  -30.1836  -17.2643   18.7974 C   0  0  0  0  0  0  0  0  0  0  0  0
  -31.5028  -18.7174   17.8498 C   0  0  0  0  0  0  0  0  0  0  0  0
  -30.2272  -20.9036   18.1842 C   0  0  0  0  0  0  0  0  0  0  0  0
  -22.9117  -13.6487   21.1320 C   0  0  0  0  0  0  0  0  0  0  0  0
  -26.4226  -30.9135   23.3167 C   0  0  0  0  0  0  0  0  0  0  0  0
  -27.5971  -23.6604   19.0513 C   0  0  0  0  0  0  0  0  0  0  0  0
  -23.1809  -31.0304   23.3044 C   0  0  0  0  0  0  0  0  0  0  0  0
  -20.2412  -29.7801   22.1036 C   0  0  0  0  0  0  0  0  0  0  0  0
  -30.5012  -14.7759   19.0281 C   0  0  0  0  0  0  0  0  0  0  0  0
  -28.7885  -34.3197   26.2929 C   0  0  0  0  0  0  0  0  0  0  0  0
  -25.9332  -31.0476   20.8472 C   0  0  0  0  0  0  0  0  0  0  0  0
  -24.2421  -29.0293   22.1932 C   0  0  0  0  0  0  0  0  0  0  0  0
  -27.4743  -33.5452   26.3514 C   0  0  0  0  0  0  0  0  0  0  0  0
  -29.5400  -11.3668   18.6651 C   0  0  0  0  0  0  0  0  0  0  0  0
  -27.7140  -32.0651   26.0714 C   0  0  0  0  0  0  0  0  0  0  0  0
  -28.1680  -11.3032   19.3402 C   0  0  0  0  0  0  0  0  0  0  0  0
  -30.4872  -12.3181   19.3943 C   0  0  0  0  0  0  0  0  0  0  0  0
  -28.5883  -13.6073   20.2895 C   0  0  0  0  0  0  0  0  0  0  0  0
  -28.2892  -31.8557   24.6653 C   0  0  1  0  0  0  0  0  0  0  0  0
  -25.4070  -31.2566   22.2638 C   0  0  1  0  0  0  0  0  0  0  0  0
  -27.5789  -12.7114   19.5533 C   0  0  2  0  0  0  0  0  0  0  0  0
  -17.7550  -30.0532   22.3073 C   0  0  0  0  0  0  0  0  0  0  0  0
  -23.2429  -29.5738   25.9848 C   0  0  0  0  0  0  0  0  0  0  0  0
  -20.8165  -29.0413   25.6725 C   0  0  0  0  0  0  0  0  0  0  0  0
  -21.5590  -31.4170   25.8379 C   0  0  0  0  0  0  0  0  0  0  0  0
  -19.9683  -30.4909   19.2437 C   0  0  0  0  0  0  0  0  0  0  0  0
  -28.9651  -21.5290   18.7644 C   0  0  0  0  0  0  0  0  0  0  0  0
  -28.8836  -23.0367   18.5294 C   0  0  0  0  0  0  0  0  0  0  0  0
  -27.4197  -25.1377   18.7596 C   0  0  0  0  0  0  0  0  0  1  0  0
  -22.0758  -30.0999   23.7426 C   0  0  1  0  0  0  0  0  0  0  0  0
  -19.0064  -30.4669   21.5486 C   0  0  2  0  0  0  0  0  0  0  0  0
  -21.9427  -30.0252   25.2899 C   0  0  0  0  0  0  0  0  0  0  0  0
  -26.0181  -11.6831   21.1620 N   0  0  0  0  0  0  0  0  0  0  0  0
  -26.2399  -12.6589   20.2650 N   0  0  0  0  0  0  0  0  0  0  0  0
  -24.2124  -30.4582   22.5466 N   0  0  0  0  0  0  0  0  0  0  0  0
  -29.8637  -13.6333   19.5563 N   0  0  0  0  0  0  0  0  0  0  0  0
  -25.2411  -14.5482   19.2434 N   0  0  0  0  0  0  0  0  0  0  0  0
  -32.6177  -19.0917   17.1869 N   0  0  0  0  0  0  0  0  0  0  0  0
  -22.0289  -13.0599   22.0475 N   0  0  0  0  0  0  0  0  0  0  0  0
  -29.7987  -15.9660   19.2145 N   0  0  0  0  0  0  0  0  0  0  0  0
  -27.2443  -31.9667   23.6702 N   0  0  0  0  0  0  0  0  0  0  0  0
  -20.8679  -30.5508   23.0600 N   0  0  0  0  0  0  0  0  0  0  0  0
  -18.8216  -30.1183   20.1115 N   0  3  0  0  0  0  0  0  0  0  0  0
  -31.0869  -21.5724   17.6152 O   0  0  0  0  0  0  0  0  0  0  0  0
  -22.5413  -14.6561   20.4829 O   0  0  0  0  0  0  0  0  0  0  0  0
  -26.4571  -29.7777   23.7755 O   0  0  0  0  0  0  0  0  0  0  0  0
  -26.7533  -23.0183   19.6743 O   0  0  0  0  0  0  0  0  0  0  0  0
  -23.1270  -32.2226   23.6167 O   0  0  0  0  0  0  0  0  0  0  0  0
  -20.6106  -28.6694   21.7291 O   0  0  0  0  0  0  0  0  0  0  0  0
  -31.5769  -14.7000   18.4289 O   0  0  0  0  0  0  0  0  0  0  0  0
  -31.3647  -17.3967   18.1384 O   0  0  0  0  0  0  0  0  0  0  0  0
  -22.3928   -8.6447   25.4252 O   0  0  0  0  0  0  0  0  0  0  0  0
  -26.1765  -25.6100   19.2770 O   0  0  0  0  0  0  0  0  0  1  0  0
  -17.1842   -7.0524   24.5654 F   0  0  0  0  0  0  0  0  0  0  0  0
  -21.7444   -5.9651   25.2196 F   0  0  0  0  0  0  0  0  0  0  0  0
  1  2  1  0  0  0  0
  1  5  2  0  0  0  0
  2  6  2  0  0  0  0
  3  8  2  0  0  0  0
  3 16  1  0  0  0  0
  4  9  1  0  0  0  0
  4 16  2  0  0  0  0
  5 19  1  0  0  0  0
  6 21  1  0  0  0  0
  7 10  2  0  0  0  0
  7 20  1  0  0  0  0
  8 23  1  0  0  0  0
  9 23  2  0  0  0  0
 10 24  1  0  0  0  0
 11 12  2  0  0  0  0
 11 25  1  0  0  0  0
 12 26  1  0  0  0  0
 13 17  1  0  0  0  0
 13 30  2  0  0  0  0
 14 22  1  0  0  0  0
 14 24  2  0  0  0  0
 15 26  2  0  0  0  0
 15 27  1  0  0  0  0
 16 28  1  0  0  0  0
 17 31  2  0  0  0  0
 17 32  1  0  0  0  0
 18 28  1  0  0  0  0
 18 29  2  0  0  0  0
 18 33  1  0  0  0  0
 19 21  2  0  0  0  0
 19 39  1  0  0  0  0
 20 22  2  0  0  0  0
 20 40  1  0  0  0  0
 21 48  1  0  0  0  0
 22 41  1  0  0  0  0
 23 81  1  0  0  0  0
 24 82  1  0  0  0  0
 25 27  2  0  0  0  0
 25 81  1  0  0  0  0
 26 83  1  0  0  0  0
 27 84  1  0  0  0  0
 28 62  2  0  0  0  0
 29 63  1  0  0  0  0
 29 66  1  0  0  0  0
 30 69  1  0  0  0  0
 30 80  1  0  0  0  0
 31 67  1  0  0  0  0
 31 80  1  0  0  0  0
 32 56  1  0  0  0  0
 32 73  2  0  0  0  0
 33 68  1  0  0  0  0
 33 74  2  0  0  0  0
 34 49  1  0  0  0  0
 34 70  1  0  0  0  0
 34 75  2  0  0  0  0
 35 57  1  0  0  0  0
 35 58  1  0  0  0  0
 35 76  2  0  0  0  0
 36 59  1  0  0  0  0
 36 64  1  0  0  0  0
 36 77  2  0  0  0  0
 37 60  1  0  0  0  0
 37 71  1  0  0  0  0
 37 78  2  0  0  0  0
 38 65  1  0  0  0  0
 38 69  1  0  0  0  0
 38 79  2  0  0  0  0
 39 42  1  0  0  0  0
 40 49  1  0  0  0  0
 41 64  1  0  0  0  0
 42 44  1  0  0  0  0
 43 45  1  0  0  0  0
 43 46  1  0  0  0  0
 44 48  1  0  0  0  0
 45 50  1  0  0  0  0
 46 65  1  0  0  0  0
 47 50  1  0  0  0  0
 47 65  1  0  0  0  0
 48 70  1  0  0  0  0
 49 64  1  0  0  0  0
 50 63  1  0  0  0  0
 51 60  1  0  0  0  0
 52 61  1  0  0  0  0
 53 61  1  0  0  0  0
 54 61  1  0  0  0  0
 55 72  1  0  0  0  0
 56 57  1  0  0  0  0
 58 82  1  0  0  0  0
 59 61  1  0  0  0  0
 59 71  1  0  0  0  0
 60 72  1  0  0  0  0
 62 63  1  0  0  0  0
M  CHG  1  72   1
M  ISO  4  38 100  58 101  69 100  82 101
M  END
> <Batch ID>
0168

> <Smiles>
CNC(C)C(=O)NC(C(=O)N1Cc2cc([101O:1][101CH2:1]C(=O)CCC(=O)c3cc([100NH:0][100C:0](=O)N4CCCC(n5nc(-c6ccc(Oc7ccc(F)cc7F)cc6)c(C(N)=O)c5N)C4)oc3N)ccc2CC1C(=O)NC1CCCc2ccccc21)C(C)(C)C

> <Shape>
0.265

> <Color>
0.143

> <Negative vol penalty>
0.000

$$$$

  -OEChem-04052304143D

 85 93  0     1  0  0  0  0  0999 V2000
  -18.8285  -33.5711   23.9104 C   0  0  0  0  0  0  0  0  0  0  0  0
  -20.2104  -33.4678   24.0337 C   0  0  0  0  0  0  0  0  0  0  0  0
  -25.2799  -13.6534   22.1986 C   0  0  0  0  0  0  0  0  0  0  0  0
  -25.5396  -14.3486   19.8994 C   0  0  0  0  0  0  0  0  0  0  0  0
  -18.0601  -32.4252   23.7097 C   0  0  0  0  0  0  0  0  0  0  0  0
  -20.8245  -32.2182   23.9575 C   0  0  0  0  0  0  0  0  0  0  0  0
  -26.3132  -30.9543   21.5527 C   0  0  0  0  0  0  0  0  0  0  0  0
  -24.3413  -12.6999   21.8043 C   0  0  0  0  0  0  0  0  0  0  0  0
  -24.6010  -13.3950   19.5050 C   0  0  0  0  0  0  0  0  0  0  0  0
  -27.5695  -30.7701   22.1283 C   0  0  0  0  0  0  0  0  0  0  0  0
  -24.3543   -9.6221   20.4044 C   0  0  0  0  0  0  0  0  0  0  0  0
  -24.4647   -8.3413   20.9457 C   0  0  0  0  0  0  0  0  0  0  0  0
  -29.3512  -24.0415   19.8735 C   0  0  0  0  0  0  0  0  0  0  0  0
  -27.2176  -28.3836   22.1181 C   0  0  0  0  0  0  0  0  0  0  0  0
  -22.2556   -8.5544   21.9004 C   0  0  0  0  0  0  0  0  0  0  0  0
  -29.9934  -22.1982   18.5147 C   0  0  0  0  0  0  0  0  0  0  0  0
  -25.8790  -14.4778   21.2461 C   0  0  0  0  0  0  0  0  0  0  0  0
  -30.1399  -24.8643   19.0770 C   0  0  0  0  0  0  0  0  0  0  0  0
  -28.2416  -15.2924   21.7584 C   0  0  0  0  0  0  0  0  0  0  0  0
  -18.6661  -31.1620   23.6214 C   0  0  0  0  0  0  0  0  0  0  0  0
  -25.4937  -29.8533   21.2650 C   0  0  0  0  0  0  0  0  0  0  0  0
  -20.0634  -31.0542   23.7568 C   0  0  0  0  0  0  0  0  0  0  0  0
  -25.9523  -28.5564   21.5365 C   0  0  0  0  0  0  0  0  0  0  0  0
  -29.2712  -22.6819   19.5937 C   0  0  0  0  0  0  0  0  0  0  0  0
  -24.0019  -12.5707   20.4575 C   0  0  0  0  0  0  0  0  0  0  0  0
  -28.0208  -29.4848   22.4138 C   0  0  0  0  0  0  0  0  0  0  0  0
  -23.1946  -10.3691   20.6111 C   0  0  0  0  0  0  0  0  0  0  0  0
  -23.4154   -7.8074   21.6936 C   0  0  0  0  0  0  0  0  0  0  0  0
  -22.1452   -9.8352   21.3591 C   0  0  0  0  0  0  0  0  0  0  0  0
  -26.8482  -15.4633   21.6529 C   0  0  0  0  0  0  0  0  0  0  0  0
  -30.8234  -24.2829   18.0213 C   0  0  0  0  0  0  0  0  0  0  0  0
  -28.7065  -16.5143   22.1795 C   0  0  0  0  0  0  0  0  0  0  0  0
  -30.2426  -26.3195   19.3555 C   0  0  0  0  0  0  0  0  0  0  0  0
  -29.0439  -14.1328   21.4989 C   0  0  0  0  0  0  0  0  0  0  0  0
  -22.6301  -28.8738   22.2366 C   0  0  0  0  0  0  0  0  0  0  0  0
  -23.0657  -26.6033   19.9613 C   0  0  0  0  0  0  0  0  0  0  0  0
  -25.2408  -24.7936   18.0532 C   0  0  0  0  0  0  0  0  0  0  0  0
  -30.1375  -28.0054   21.1574 C   0  0  0  0  0  0  0  0  0  0  0  0
  -27.7048  -22.1614   21.4968 C   0  0  0  0  0  0  0  0  0  0  0  0
  -17.7894  -29.9466   23.4510 C   0  0  0  0  0  0  0  0  0  0  0  0
  -24.1521  -30.0673   20.6195 C   0  0  0  0  0  0  0  0  0  0  0  0
  -25.1194  -27.3400   21.2282 C   0  0  0  0  0  0  0  0  0  0  0  0
  -18.5536  -28.7018   23.0073 C   0  0  0  0  0  0  0  0  0  0  0  0
  -26.6803  -20.4262   24.4322 C   0  0  0  0  0  0  0  0  0  0  0  0
  -19.8204  -28.5283   23.8391 C   0  0  0  0  0  0  0  0  0  0  0  0
  -26.7549  -18.9524   24.0267 C   0  0  0  0  0  0  0  0  0  0  0  0
  -26.2000  -21.3076   23.2806 C   0  0  0  0  0  0  0  0  0  0  0  0
  -27.0268  -19.6835   21.6229 C   0  0  0  0  0  0  0  0  0  0  0  0
  -20.7687  -29.7192   23.6549 C   0  0  1  0  0  0  0  0  0  0  0  0
  -23.1895  -28.9049   20.8424 C   0  0  1  0  0  0  0  0  0  0  0  0
  -27.5677  -18.7649   22.7307 C   0  0  2  0  0  0  0  0  0  0  0  0
  -25.3016  -22.9868   16.3128 C   0  0  0  0  0  0  0  0  0  0  0  0
  -31.2600  -28.0895   23.4011 C   0  0  0  0  0  0  0  0  0  0  0  0
  -22.4893  -24.5163   22.1113 C   0  0  0  0  0  0  0  0  0  0  0  0
  -23.4783  -22.7849   20.5972 C   0  0  0  0  0  0  0  0  0  0  0  0
  -21.4431  -24.0419   19.8898 C   0  0  0  0  0  0  0  0  0  0  0  0
  -26.5326  -26.5792   16.0779 C   0  0  0  0  0  0  0  0  0  0  0  0
  -23.6778  -25.2236   19.9311 C   0  0  1  0  0  0  0  0  0  0  0  0
  -25.2612  -24.4856   16.5669 C   0  0  2  0  0  0  0  0  0  0  0  0
  -29.9302  -28.0893   22.6638 C   0  0  1  0  0  0  0  0  0  1  0  0
  -22.7873  -24.1645   20.6401 C   0  0  0  0  0  0  0  0  0  0  0  0
  -30.7702  -22.9664   17.7184 N   0  0  0  0  0  0  0  0  0  0  0  0
  -26.4537  -16.6966   21.9807 N   0  0  0  0  0  0  0  0  0  0  0  0
  -27.6062  -17.3116   22.2964 N   0  0  0  0  0  0  0  0  0  0  0  0
  -23.8124  -27.6015   20.6031 N   0  0  0  0  0  0  0  0  0  0  0  0
  -27.0191  -21.0793   22.0881 N   0  0  0  0  0  0  0  0  0  0  0  0
  -29.9451  -16.9736   22.4575 N   0  0  0  0  0  0  0  0  0  0  0  0
  -28.4052  -12.9601   21.0730 N   0  0  0  0  0  0  0  0  0  0  0  0
  -28.4775  -21.8177   20.3881 N   0  0  0  0  0  0  0  0  0  0  0  0
  -30.1024  -26.6897   20.6920 N   0  0  0  0  0  0  0  0  0  0  0  0
  -21.4738  -29.6136   22.3955 N   0  0  0  0  0  0  0  0  0  0  0  0
  -23.9539  -24.9301   18.5289 N   0  0  0  0  0  0  0  0  0  0  0  0
  -26.4566  -25.1033   15.9262 N   0  3  0  0  0  0  0  0  0  0  0  0
  -30.4140  -27.0966   18.4203 O   0  0  0  0  0  0  0  0  0  0  0  0
  -30.2884  -14.1316   21.6562 O   0  0  0  0  0  0  0  0  0  0  0  0
  -23.2041  -28.2254   23.1036 O   0  0  0  0  0  0  0  0  0  0  0  0
  -21.9689  -26.7900   19.4286 O   0  0  0  0  0  0  0  0  0  0  0  0
  -26.2642  -24.8986   18.7257 O   0  0  0  0  0  0  0  0  0  0  0  0
  -30.2951  -29.0029   20.4572 O   0  0  0  0  0  0  0  0  0  0  0  0
  -27.6347  -23.3037   21.9575 O   0  0  0  0  0  0  0  0  0  0  0  0
  -23.0862  -11.6402   20.0724 O   0  0  0  0  0  0  0  0  0  0  0  0
  -29.2464  -29.3022   22.9762 O   0  0  0  0  0  0  0  0  0  1  0  0
  -23.5209   -6.5769   22.2121 F   0  0  0  0  0  0  0  0  0  0  0  0
  -21.0282  -10.5476   21.5601 F   0  0  0  0  0  0  0  0  0  0  0  0
  -31.5915  -25.0571   17.2374 F   0  0  0  0  0  0  0  0  0  0  0  0
  1  2  1  0  0  0  0
  1  5  2  0  0  0  0
  2  6  2  0  0  0  0
  3  8  2  0  0  0  0
  3 17  1  0  0  0  0
  4  9  1  0  0  0  0
  4 17  2  0  0  0  0
  5 20  1  0  0  0  0
  6 22  1  0  0  0  0
  7 10  2  0  0  0  0
  7 21  1  0  0  0  0
  8 25  1  0  0  0  0
  9 25  2  0  0  0  0
 10 26  1  0  0  0  0
 11 12  2  0  0  0  0
 11 27  1  0  0  0  0
 12 28  1  0  0  0  0
 13 18  1  0  0  0  0
 13 24  2  0  0  0  0
 14 23  1  0  0  0  0
 14 26  2  0  0  0  0
 15 28  2  0  0  0  0
 15 29  1  0  0  0  0
 16 24  1  0  0  0  0
 16 62  2  0  0  0  0
 17 30  1  0  0  0  0
 18 31  2  0  0  0  0
 18 33  1  0  0  0  0
 19 30  1  0  0  0  0
 19 32  2  0  0  0  0
 19 34  1  0  0  0  0
 20 22  2  0  0  0  0
 20 40  1  0  0  0  0
 21 23  2  0  0  0  0
 21 41  1  0  0  0  0
 22 49  1  0  0  0  0
 23 42  1  0  0  0  0
 24 69  1  0  0  0  0
 25 81  1  0  0  0  0
 26 82  1  0  0  0  0
 27 29  2  0  0  0  0
 27 81  1  0  0  0  0
 28 83  1  0  0  0  0
 29 84  1  0  0  0  0
 30 63  2  0  0  0  0
 31 62  1  0  0  0  0
 31 85  1  0  0  0  0
 32 64  1  0  0  0  0
 32 67  1  0  0  0  0
 33 70  1  0  0  0  0
 33 74  2  0  0  0  0
 34 68  1  0  0  0  0
 34 75  2  0  0  0  0
 35 50  1  0  0  0  0
 35 71  1  0  0  0  0
 35 76  2  0  0  0  0
 36 58  1  0  0  0  0
 36 65  1  0  0  0  0
 36 77  2  0  0  0  0
 37 59  1  0  0  0  0
 37 72  1  0  0  0  0
 37 78  2  0  0  0  0
 38 60  1  0  0  0  0
 38 70  1  0  0  0  0
 38 79  2  0  0  0  0
 39 66  1  0  0  0  0
 39 69  1  0  0  0  0
 39 80  2  0  0  0  0
 40 43  1  0  0  0  0
 41 50  1  0  0  0  0
 42 65  1  0  0  0  0
 43 45  1  0  0  0  0
 44 46  1  0  0  0  0
 44 47  1  0  0  0  0
 45 49  1  0  0  0  0
 46 51  1  0  0  0  0
 47 66  1  0  0  0  0
 48 51  1  0  0  0  0
 48 66  1  0  0  0  0
 49 71  1  0  0  0  0
 50 65  1  0  0  0  0
 51 64  1  0  0  0  0
 52 59  1  0  0  0  0
 53 60  1  0  0  0  0
 54 61  1  0  0  0  0
 55 61  1  0  0  0  0
 56 61  1  0  0  0  0
 57 73  1  0  0  0  0
 58 61  1  0  0  0  0
 58 72  1  0  0  0  0
 59 73  1  0  0  0  0
 60 82  1  0  0  0  0
 63 64  1  0  0  0  0
M  CHG  1  73   1
M  ISO  4  39 100  60 101  69 100  82 101
M  END
> <Batch ID>
0168

> <Smiles>
CNC(C)C(=O)NC(C(=O)N1Cc2cc([101O:1][101CH:1](C)C(=O)NC(=O)c3cc([100NH:0][100C:0](=O)N4CCCC(n5nc(-c6ccc(Oc7ccc(F)cc7F)cc6)c(C(N)=O)c5N)C4)cnc3F)ccc2CC1C(=O)NC1CCCc2ccccc21)C(C)(C)C

> <Shape>
0.274

> <Color>
0.060

> <Negative vol penalty>
0.000

$$$$

  -OEChem-04052304143D

 87 95  0     1  0  0  0  0  0999 V2000
  -28.5504  -34.2781   15.2814 C   0  0  0  0  0  0  0  0  0  0  0  0
  -28.1524  -32.9507   15.4043 C   0  0  0  0  0  0  0  0  0  0  0  0
  -23.7011   -8.9460   19.8426 C   0  0  0  0  0  0  0  0  0  0  0  0
  -23.2827  -10.5275   21.6205 C   0  0  0  0  0  0  0  0  0  0  0  0
  -28.9330  -34.9975   16.4128 C   0  0  0  0  0  0  0  0  0  0  0  0
  -28.1377  -32.3416   16.6586 C   0  0  0  0  0  0  0  0  0  0  0  0
  -24.1693  -28.1278   18.6588 C   0  0  0  0  0  0  0  0  0  0  0  0
  -22.8882   -8.0109   20.4831 C   0  0  0  0  0  0  0  0  0  0  0  0
  -22.4697   -9.5923   22.2610 C   0  0  0  0  0  0  0  0  0  0  0  0
  -24.2423  -26.7385   18.7487 C   0  0  0  0  0  0  0  0  0  0  0  0
  -19.5786   -7.4176   20.8409 C   0  0  0  0  0  0  0  0  0  0  0  0
  -18.6572   -6.7180   20.0616 C   0  0  0  0  0  0  0  0  0  0  0  0
  -24.9225  -26.9296   21.0553 C   0  0  0  0  0  0  0  0  0  0  0  0
  -30.7927  -18.3089   19.2294 C   0  0  0  0  0  0  0  0  0  0  0  0
  -19.7091   -4.6351   20.6879 C   0  0  0  0  0  0  0  0  0  0  0  0
  -23.8985  -10.2043   20.4114 C   0  0  0  0  0  0  0  0  0  0  0  0
  -24.3437  -12.1329   18.8020 C   0  0  0  0  0  0  0  0  0  0  0  0
  -28.9138  -34.3998   17.6829 C   0  0  0  0  0  0  0  0  0  0  0  0
  -24.4833  -28.9302   19.7652 C   0  0  0  0  0  0  0  0  0  0  0  0
  -28.5217  -33.0533   17.8078 C   0  0  0  0  0  0  0  0  0  0  0  0
  -24.8501  -28.3288   20.9776 C   0  0  0  0  0  0  0  0  0  0  0  0
  -30.4419  -19.6310   18.8659 C   0  0  0  0  0  0  0  0  0  0  0  0
  -22.2724   -8.3340   21.6922 C   0  0  0  0  0  0  0  0  0  0  0  0
  -24.6218  -26.1392   19.9462 C   0  0  0  0  0  0  0  0  0  0  0  0
  -20.5653   -6.7259   21.5436 C   0  0  0  0  0  0  0  0  0  0  0  0
  -18.7224   -5.3268   19.9851 C   0  0  0  0  0  0  0  0  0  0  0  0
  -20.6305   -5.3347   21.4671 C   0  0  0  0  0  0  0  0  0  0  0  0
  -24.7386  -11.1706   19.7505 C   0  0  0  0  0  0  0  0  0  0  0  0
  -25.5028  -12.7978   18.4844 C   0  0  0  0  0  0  0  0  0  0  0  0
  -29.6103  -17.6130   19.3268 C   0  0  0  0  0  0  0  0  0  0  0  0
  -29.0701  -19.6486   18.7668 C   0  0  0  0  0  0  0  0  0  0  0  0
  -23.0452  -12.4017   18.2567 C   0  0  0  0  0  0  0  0  0  0  0  0
  -26.6813  -31.1427   20.3798 C   0  0  0  0  0  0  0  0  0  0  0  0
  -25.7457  -22.7784   19.1758 C   0  0  0  0  0  0  0  0  0  0  0  0
  -25.0080  -31.4808   23.1381 C   0  0  0  0  0  0  0  0  0  0  0  0
  -32.6968  -20.7369   18.7380 C   0  0  0  0  0  0  0  0  0  0  0  0
  -26.7746  -20.5977   18.3752 C   0  0  0  0  0  0  0  0  0  0  0  0
  -22.8859  -30.1010   25.4271 C   0  0  0  0  0  0  0  0  0  0  0  0
  -30.2655  -15.2680   19.9736 C   0  0  0  0  0  0  0  0  0  0  0  0
  -29.3812  -35.2034   18.8705 C   0  0  0  0  0  0  0  0  0  0  0  0
  -24.3738  -30.4266   19.6597 C   0  0  0  0  0  0  0  0  0  0  0  0
  -25.1778  -29.1448   22.2004 C   0  0  0  0  0  0  0  0  0  0  0  0
  -28.9795  -34.5969   20.2125 C   0  0  0  0  0  0  0  0  0  0  0  0
  -30.3239  -11.7282   19.5952 C   0  0  0  0  0  0  0  0  0  0  0  0
  -29.2749  -33.1005   20.2319 C   0  0  0  0  0  0  0  0  0  0  0  0
  -28.8436  -11.3467   19.5238 C   0  0  0  0  0  0  0  0  0  0  0  0
  -30.5674  -12.8756   20.5739 C   0  0  0  0  0  0  0  0  0  0  0  0
  -28.2600  -13.6868   20.2790 C   0  0  0  0  0  0  0  0  0  0  0  0
  -28.4688  -32.3650   19.1545 C   0  0  1  0  0  0  0  0  0  0  0  0
  -25.2133  -31.1620   20.6997 C   0  0  1  0  0  0  0  0  0  0  0  0
  -27.9564  -12.5786   19.2576 C   0  0  2  0  0  0  0  0  0  0  0  0
  -33.2513  -22.1042   18.4255 C   0  0  0  0  0  0  0  0  0  0  0  0
  -21.7272  -30.6069   27.5948 C   0  0  0  0  0  0  0  0  0  0  0  0
  -27.6347  -31.0697   24.6353 C   0  0  0  0  0  0  0  0  0  0  0  0
  -26.3032  -30.6373   26.7110 C   0  0  0  0  0  0  0  0  0  0  0  0
  -26.1634  -32.8570   25.5814 C   0  0  0  0  0  0  0  0  0  0  0  0
  -20.2097  -29.7684   24.2081 C   0  0  0  0  0  0  0  0  0  0  0  0
  -26.1399  -21.9205   17.9914 C   0  0  0  0  0  0  0  0  0  0  0  0
  -25.0249  -24.0699   18.8457 C   0  0  0  0  0  0  0  0  0  1  0  0
  -25.0655  -30.8485   24.5077 C   0  0  1  0  0  0  0  0  0  0  0  0
  -21.6219  -30.6333   26.0779 C   0  0  2  0  0  0  0  0  0  0  0  0
  -26.2874  -31.3375   25.3355 C   0  0  0  0  0  0  0  0  0  0  0  0
  -26.0464  -11.2166   20.0180 N   0  0  0  0  0  0  0  0  0  0  0  0
  -26.4833  -12.2158   19.2327 N   0  0  0  0  0  0  0  0  0  0  0  0
  -25.0621  -30.6042   22.0452 N   0  0  0  0  0  0  0  0  0  0  0  0
  -29.6954  -14.0090   20.2576 N   0  0  0  0  0  0  0  0  0  0  0  0
  -25.7687  -13.8176   17.6408 N   0  0  0  0  0  0  0  0  0  0  0  0
  -21.9635  -11.6244   18.6925 N   0  0  0  0  0  0  0  0  0  0  0  0
  -31.2863  -20.6948   18.6513 N   0  0  0  0  0  0  0  0  0  0  0  0
  -28.1591  -20.6819   18.4408 N   0  0  0  0  0  0  0  0  0  0  0  0
  -29.3400  -16.2613   19.6551 N   0  0  0  0  0  0  0  0  0  0  0  0
  -27.0968  -32.1907   19.5808 N   0  0  0  0  0  0  0  0  0  0  0  0
  -23.7748  -31.1136   25.1342 N   0  0  0  0  0  0  0  0  0  0  0  0
  -20.4460  -29.8117   25.6741 N   0  3  0  0  0  0  0  0  0  0  0  0
  -22.8528  -13.2936   17.3959 O   0  0  0  0  0  0  0  0  0  0  0  0
  -27.3851  -30.2443   20.8262 O   0  0  0  0  0  0  0  0  0  0  0  0
  -26.0002  -22.4531   20.3346 O   0  0  0  0  0  0  0  0  0  0  0  0
  -24.9113  -32.7068   23.0416 O   0  0  0  0  0  0  0  0  0  0  0  0
  -33.4435  -19.8069   19.0250 O   0  0  0  0  0  0  0  0  0  0  0  0
  -26.0705  -19.6199   18.6129 O   0  0  0  0  0  0  0  0  0  0  0  0
  -23.0682  -28.9061   25.2046 O   0  0  0  0  0  0  0  0  0  0  0  0
  -31.4864  -15.4448   19.9838 O   0  0  0  0  0  0  0  0  0  0  0  0
  -28.5555  -18.4224   19.0461 O   0  0  0  0  0  0  0  0  0  0  0  0
  -21.4789   -7.4219   22.3174 O   0  0  0  0  0  0  0  0  0  0  0  0
  -24.6945  -24.7833   20.0365 O   0  0  0  0  0  0  0  0  0  1  0  0
  -17.8366   -4.6550   19.2380 F   0  0  0  0  0  0  0  0  0  0  0  0
  -21.5755   -4.6647   22.1408 F   0  0  0  0  0  0  0  0  0  0  0  0
  1  2  1  0  0  0  0
  1  5  2  0  0  0  0
  2  6  2  0  0  0  0
  3  8  2  0  0  0  0
  3 16  1  0  0  0  0
  4  9  1  0  0  0  0
  4 16  2  0  0  0  0
  5 18  1  0  0  0  0
  6 20  1  0  0  0  0
  7 10  2  0  0  0  0
  7 19  1  0  0  0  0
  8 23  1  0  0  0  0
  9 23  2  0  0  0  0
 10 24  1  0  0  0  0
 11 12  2  0  0  0  0
 11 25  1  0  0  0  0
 12 26  1  0  0  0  0
 13 21  1  0  0  0  0
 13 24  2  0  0  0  0
 14 22  1  0  0  0  0
 14 30  2  0  0  0  0
 15 26  2  0  0  0  0
 15 27  1  0  0  0  0
 16 28  1  0  0  0  0
 17 28  1  0  0  0  0
 17 29  2  0  0  0  0
 17 32  1  0  0  0  0
 18 20  2  0  0  0  0
 18 40  1  0  0  0  0
 19 21  2  0  0  0  0
 19 41  1  0  0  0  0
 20 49  1  0  0  0  0
 21 42  1  0  0  0  0
 22 31  2  0  0  0  0
 22 69  1  0  0  0  0
 23 84  1  0  0  0  0
 24 85  1  0  0  0  0
 25 27  2  0  0  0  0
 25 84  1  0  0  0  0
 26 86  1  0  0  0  0
 27 87  1  0  0  0  0
 28 63  2  0  0  0  0
 29 64  1  0  0  0  0
 29 67  1  0  0  0  0
 30 71  1  0  0  0  0
 30 83  1  0  0  0  0
 31 70  1  0  0  0  0
 31 83  1  0  0  0  0
 32 68  1  0  0  0  0
 32 75  2  0  0  0  0
 33 50  1  0  0  0  0
 33 72  1  0  0  0  0
 33 76  2  0  0  0  0
 34 58  1  0  0  0  0
 34 59  1  0  0  0  0
 34 77  2  0  0  0  0
 35 60  1  0  0  0  0
 35 65  1  0  0  0  0
 35 78  2  0  0  0  0
 36 52  1  0  0  0  0
 36 69  1  0  0  0  0
 36 79  2  0  0  0  0
 37 58  1  0  0  0  0
 37 70  1  0  0  0  0
 37 80  2  0  0  0  0
 38 61  1  0  0  0  0
 38 73  1  0  0  0  0
 38 81  2  0  0  0  0
 39 66  1  0  0  0  0
 39 71  1  0  0  0  0
 39 82  2  0  0  0  0
 40 43  1  0  0  0  0
 41 50  1  0  0  0  0
 42 65  1  0  0  0  0
 43 45  1  0  0  0  0
 44 46  1  0  0  0  0
 44 47  1  0  0  0  0
 45 49  1  0  0  0  0
 46 51  1  0  0  0  0
 47 66  1  0  0  0  0
 48 51  1  0  0  0  0
 48 66  1  0  0  0  0
 49 72  1  0  0  0  0
 50 65  1  0  0  0  0
 51 64  1  0  0  0  0
 53 61  1  0  0  0  0
 54 62  1  0  0  0  0
 55 62  1  0  0  0  0
 56 62  1  0  0  0  0
 57 74  1  0  0  0  0
 59 85  1  0  0  0  0
 60 62  1  0  0  0  0
 60 73  1  0  0  0  0
 61 74  1  0  0  0  0
 63 64  1  0  0  0  0
M  CHG  1  74   1
M  ISO  4  39 100  59 101  71 100  85 101
M  END
> <Batch ID>
0168

> <Smiles>
CNC(C)C(=O)NC(C(=O)N1Cc2cc([101O:1][101CH2:1]C(=O)CC(=O)Nc3oc([100NH:0][100C:0](=O)N4CCCC(n5nc(-c6ccc(Oc7ccc(F)cc7F)cc6)c(C(N)=O)c5N)C4)cc3NC(C)=O)ccc2CC1C(=O)NC1CCCc2ccccc21)C(C)(C)C

> <Shape>
0.237

> <Color>
0.096

> <Negative vol penalty>
0.000

$$$$

  -OEChem-04052304143D

 84 92  0     1  0  0  0  0  0999 V2000
  -28.8073  -16.1729   39.3851 C   0  0  0  0  0  0  0  0  0  0  0  0
  -29.0381  -15.7178   38.0909 C   0  0  0  0  0  0  0  0  0  0  0  0
  -23.2884   -9.8002   19.9132 C   0  0  0  0  0  0  0  0  0  0  0  0
  -23.7419   -9.9400   22.2821 C   0  0  0  0  0  0  0  0  0  0  0  0
  -27.7130  -16.9957   39.6487 C   0  0  0  0  0  0  0  0  0  0  0  0
  -28.1740  -16.0843   37.0597 C   0  0  0  0  0  0  0  0  0  0  0  0
  -30.6402  -17.4916   32.8665 C   0  0  0  0  0  0  0  0  0  0  0  0
  -22.5627   -8.6273   20.1213 C   0  0  0  0  0  0  0  0  0  0  0  0
  -23.0162   -8.7670   22.4902 C   0  0  0  0  0  0  0  0  0  0  0  0
  -31.1586  -16.4777   32.0621 C   0  0  0  0  0  0  0  0  0  0  0  0
  -19.7698   -7.8545   22.7110 C   0  0  0  0  0  0  0  0  0  0  0  0
  -18.8687   -7.8320   23.7754 C   0  0  0  0  0  0  0  0  0  0  0  0
  -30.9134  -13.0958   25.1252 C   0  0  0  0  0  0  0  0  0  0  0  0
  -29.2687  -16.6964   30.5790 C   0  0  0  0  0  0  0  0  0  0  0  0
  -20.0764   -5.9848   24.7587 C   0  0  0  0  0  0  0  0  0  0  0  0
  -32.8019  -13.5215   23.7436 C   0  0  0  0  0  0  0  0  0  0  0  0
  -23.8780  -10.4565   20.9936 C   0  0  0  0  0  0  0  0  0  0  0  0
  -31.7057  -13.3586   26.2371 C   0  0  0  0  0  0  0  0  0  0  0  0
  -24.1361  -12.9867   20.7959 C   0  0  0  0  0  0  0  0  0  0  0  0
  -26.8405  -17.3803   38.6184 C   0  0  0  0  0  0  0  0  0  0  0  0
  -29.4247  -18.1091   32.5386 C   0  0  0  0  0  0  0  0  0  0  0  0
  -27.0663  -16.9119   37.3100 C   0  0  0  0  0  0  0  0  0  0  0  0
  -28.7384  -17.7197   31.3795 C   0  0  0  0  0  0  0  0  0  0  0  0
  -31.4643  -13.1766   23.8511 C   0  0  0  0  0  0  0  0  0  0  0  0
  -22.4266   -8.1107   21.4098 C   0  0  0  0  0  0  0  0  0  0  0  0
  -30.4714  -16.0779   30.9198 C   0  0  0  0  0  0  0  0  0  0  0  0
  -20.8242   -6.9422   22.6703 C   0  0  0  0  0  0  0  0  0  0  0  0
  -19.0220   -6.8972   24.7993 C   0  0  0  0  0  0  0  0  0  0  0  0
  -20.9774   -6.0074   23.6941 C   0  0  0  0  0  0  0  0  0  0  0  0
  -24.6282  -11.6679   20.7793 C   0  0  0  0  0  0  0  0  0  0  0  0
  -33.0326  -13.6952   26.0228 C   0  0  0  0  0  0  0  0  0  0  0  0
  -25.2369  -13.7672   20.5399 C   0  0  0  0  0  0  0  0  0  0  0  0
  -31.1410  -13.2782   27.6089 C   0  0  0  0  0  0  0  0  0  0  0  0
  -22.8031  -13.4637   21.0225 C   0  0  0  0  0  0  0  0  0  0  0  0
  -26.5852  -18.3605   33.9450 C   0  0  0  0  0  0  0  0  0  0  0  0
  -25.9663  -20.3536   31.4617 C   0  0  0  0  0  0  0  0  0  0  0  0
  -26.6927  -21.3168   28.2693 C   0  0  0  0  0  0  0  0  0  0  0  0
  -31.0986  -12.9550   21.3685 C   0  0  0  0  0  0  0  0  0  0  0  0
  -25.6442  -18.2326   38.9605 C   0  0  0  0  0  0  0  0  0  0  0  0
  -28.8924  -19.2197   33.4021 C   0  0  0  0  0  0  0  0  0  0  0  0
  -27.4397  -18.3649   30.9724 C   0  0  0  0  0  0  0  0  0  0  0  0
  -24.9895  -18.8802   37.7431 C   0  0  0  0  0  0  0  0  0  0  0  0
  -29.4612  -13.6601   18.2864 C   0  0  0  0  0  0  0  0  0  0  0  0
  -24.8118  -17.8576   36.6253 C   0  0  0  0  0  0  0  0  0  0  0  0
  -27.9904  -13.3551   18.5792 C   0  0  0  0  0  0  0  0  0  0  0  0
  -30.3956  -12.6850   19.0003 C   0  0  0  0  0  0  0  0  0  0  0  0
  -28.7047  -12.2554   20.7397 C   0  0  0  0  0  0  0  0  0  0  0  0
  -26.1656  -17.3078   36.1601 C   0  0  1  0  0  0  0  0  0  0  0  0
  -27.3882  -19.4248   33.2520 C   0  0  1  0  0  0  0  0  0  0  0  0
  -27.7271  -13.2512   20.0943 C   0  0  2  0  0  0  0  0  0  0  0  0
  -25.9929  -22.9497   26.4969 C   0  0  0  0  0  0  0  0  0  0  0  0
  -23.4933  -18.6625   30.8836 C   0  0  0  0  0  0  0  0  0  0  0  0
  -23.3834  -19.7229   28.6182 C   0  0  0  0  0  0  0  0  0  0  0  0
  -23.1448  -21.1293   30.6647 C   0  0  0  0  0  0  0  0  0  0  0  0
  -29.3696  -22.5775   28.2101 C   0  0  0  0  0  0  0  0  0  0  0  0
  -31.6274  -12.7706   29.9883 C   0  0  0  0  0  0  0  0  0  0  0  0
  -25.4126  -20.1846   30.0675 C   0  0  1  0  0  0  0  0  0  0  0  0
  -26.9355  -22.6863   27.6609 C   0  0  2  0  0  0  0  0  0  0  0  0
  -31.7663  -14.0739   30.7587 C   0  0  2  0  0  0  0  0  0  1  0  0
  -23.8820  -19.9111   30.0669 C   0  0  0  0  0  0  0  0  0  0  0  0
  -33.6031  -13.7838   24.8004 N   0  0  0  0  0  0  0  0  0  0  0  0
  -25.9395  -11.6099   20.5321 N   0  0  0  0  0  0  0  0  0  0  0  0
  -26.2807  -12.9021   20.3910 N   0  0  0  0  0  0  0  0  0  0  0  0
  -26.9570  -19.4417   31.8527 N   0  0  0  0  0  0  0  0  0  0  0  0
  -30.0905  -12.6423   20.4321 N   0  0  0  0  0  0  0  0  0  0  0  0
  -25.4042  -15.1022   20.4299 N   0  0  0  0  0  0  0  0  0  0  0  0
  -21.7912  -12.5262   21.2707 N   0  0  0  0  0  0  0  0  0  0  0  0
  -30.6829  -12.9127   22.6989 N   0  0  0  0  0  0  0  0  0  0  0  0
  -32.0285  -12.9150   28.6142 N   0  0  0  0  0  0  0  0  0  0  0  0
  -26.8312  -18.2639   35.3013 N   0  0  0  0  0  0  0  0  0  0  0  0
  -25.8069  -21.3764   29.3243 N   0  0  0  0  0  0  0  0  0  0  0  0
  -28.3366  -22.7914   27.1641 N   0  3  0  0  0  0  0  0  0  0  0  0
  -29.9472  -13.5098   27.7808 O   0  0  0  0  0  0  0  0  0  0  0  0
  -22.5147  -14.6840   20.9890 O   0  0  0  0  0  0  0  0  0  0  0  0
  -25.7996  -17.6786   33.2974 O   0  0  0  0  0  0  0  0  0  0  0  0
  -25.5409  -21.2658   32.1749 O   0  0  0  0  0  0  0  0  0  0  0  0
  -27.2318  -20.2958   27.8481 O   0  0  0  0  0  0  0  0  0  0  0  0
  -32.2389  -13.2659   21.0149 O   0  0  0  0  0  0  0  0  0  0  0  0
  -21.7184   -6.9663   21.6132 O   0  0  0  0  0  0  0  0  0  0  0  0
  -30.9747  -15.0881   30.1332 O   0  0  0  0  0  0  0  0  0  1  0  0
  -18.1575   -6.8767   25.8222 F   0  0  0  0  0  0  0  0  0  0  0  0
  -21.9891   -5.1291   23.6612 F   0  0  0  0  0  0  0  0  0  0  0  0
  -33.8180  -13.9539   27.0812 F   0  0  0  0  0  0  0  0  0  0  0  0
  -33.0699  -14.4602   30.7357 F   0  0  0  0  0  0  0  0  0  0  0  0
  1  2  1  0  0  0  0
  1  5  2  0  0  0  0
  2  6  2  0  0  0  0
  3  8  2  0  0  0  0
  3 17  1  0  0  0  0
  4  9  1  0  0  0  0
  4 17  2  0  0  0  0
  5 20  1  0  0  0  0
  6 22  1  0  0  0  0
  7 10  2  0  0  0  0
  7 21  1  0  0  0  0
  8 25  1  0  0  0  0
  9 25  2  0  0  0  0
 10 26  1  0  0  0  0
 11 12  2  0  0  0  0
 11 27  1  0  0  0  0
 12 28  1  0  0  0  0
 13 18  1  0  0  0  0
 13 24  2  0  0  0  0
 14 23  1  0  0  0  0
 14 26  2  0  0  0  0
 15 28  2  0  0  0  0
 15 29  1  0  0  0  0
 16 24  1  0  0  0  0
 16 61  2  0  0  0  0
 17 30  1  0  0  0  0
 18 31  2  0  0  0  0
 18 33  1  0  0  0  0
 19 30  1  0  0  0  0
 19 32  2  0  0  0  0
 19 34  1  0  0  0  0
 20 22  2  0  0  0  0
 20 39  1  0  0  0  0
 21 23  2  0  0  0  0
 21 40  1  0  0  0  0
 22 48  1  0  0  0  0
 23 41  1  0  0  0  0
 24 68  1  0  0  0  0
 25 79  1  0  0  0  0
 26 80  1  0  0  0  0
 27 29  2  0  0  0  0
 27 79  1  0  0  0  0
 28 81  1  0  0  0  0
 29 82  1  0  0  0  0
 30 62  2  0  0  0  0
 31 61  1  0  0  0  0
 31 83  1  0  0  0  0
 32 63  1  0  0  0  0
 32 66  1  0  0  0  0
 33 69  1  0  0  0  0
 33 73  2  0  0  0  0
 34 67  1  0  0  0  0
 34 74  2  0  0  0  0
 35 49  1  0  0  0  0
 35 70  1  0  0  0  0
 35 75  2  0  0  0  0
 36 57  1  0  0  0  0
 36 64  1  0  0  0  0
 36 76  2  0  0  0  0
 37 58  1  0  0  0  0
 37 71  1  0  0  0  0
 37 77  2  0  0  0  0
 38 65  1  0  0  0  0
 38 68  1  0  0  0  0
 38 78  2  0  0  0  0
 39 42  1  0  0  0  0
 40 49  1  0  0  0  0
 41 64  1  0  0  0  0
 42 44  1  0  0  0  0
 43 45  1  0  0  0  0
 43 46  1  0  0  0  0
 44 48  1  0  0  0  0
 45 50  1  0  0  0  0
 46 65  1  0  0  0  0
 47 50  1  0  0  0  0
 47 65  1  0  0  0  0
 48 70  1  0  0  0  0
 49 64  1  0  0  0  0
 50 63  1  0  0  0  0
 51 58  1  0  0  0  0
 52 60  1  0  0  0  0
 53 60  1  0  0  0  0
 54 60  1  0  0  0  0
 55 72  1  0  0  0  0
 56 59  1  0  0  0  0
 56 69  1  0  0  0  0
 57 60  1  0  0  0  0
 57 71  1  0  0  0  0
 58 72  1  0  0  0  0
 59 80  1  0  0  0  0
 59 84  1  0  0  0  0
 62 63  1  0  0  0  0
M  CHG  1  72   1
M  ISO  4  38 100  59 101  68 100  80 101
M  END
> <Batch ID>
0168

> <Smiles>
CNC(C)C(=O)NC(C(=O)N1Cc2cc([101O:1][101CH:1](F)CNC(=O)c3cc([100NH:0][100C:0](=O)N4CCCC(n5nc(-c6ccc(Oc7ccc(F)cc7F)cc6)c(C(N)=O)c5N)C4)cnc3F)ccc2CC1C(=O)NC1CCCc2ccccc21)C(C)(C)C

> <Shape>
0.133

> <Color>
0.171

> <Negative vol penalty>
0.000

$$$$

  -OEChem-04052304143D

 87 95  0     1  0  0  0  0  0999 V2000
  -16.8281  -28.5964   24.0999 C   0  0  0  0  0  0  0  0  0  0  0  0
  -17.5645  -27.8095   23.2203 C   0  0  0  0  0  0  0  0  0  0  0  0
  -24.8784  -16.9903   23.4938 C   0  0  0  0  0  0  0  0  0  0  0  0
  -26.4157  -11.1420   21.2926 C   0  0  0  0  0  0  0  0  0  0  0  0
  -25.5089  -12.8483   19.8423 C   0  0  0  0  0  0  0  0  0  0  0  0
  -17.1490  -29.9432   24.2644 C   0  0  0  0  0  0  0  0  0  0  0  0
  -18.6217  -28.3692   22.5037 C   0  0  0  0  0  0  0  0  0  0  0  0
  -22.7408  -25.4234   22.4993 C   0  0  0  0  0  0  0  0  0  0  0  0
  -26.2395  -16.7469   23.3098 C   0  0  0  0  0  0  0  0  0  0  0  0
  -24.1519  -17.6658   22.5131 C   0  0  0  0  0  0  0  0  0  0  0  0
  -25.1326  -10.8563   21.7589 C   0  0  0  0  0  0  0  0  0  0  0  0
  -24.2257  -12.5626   20.3086 C   0  0  0  0  0  0  0  0  0  0  0  0
  -22.7415  -24.3311   21.6329 C   0  0  0  0  0  0  0  0  0  0  0  0
  -20.7528  -12.5303   21.3798 C   0  0  0  0  0  0  0  0  0  0  0  0
  -19.9267  -13.6061   21.7050 C   0  0  0  0  0  0  0  0  0  0  0  0
  -24.0864  -25.5807   20.0681 C   0  0  0  0  0  0  0  0  0  0  0  0
  -26.1477  -17.8545   21.1646 C   0  0  0  0  0  0  0  0  0  0  0  0
  -21.5268  -14.3337   23.3625 C   0  0  0  0  0  0  0  0  0  0  0  0
  -26.6039  -12.1380   20.3343 C   0  0  0  0  0  0  0  0  0  0  0  0
  -28.5847  -11.8481   18.7532 C   0  0  0  0  0  0  0  0  0  0  0  0
  -18.2168  -30.5174   23.5568 C   0  0  0  0  0  0  0  0  0  0  0  0
  -23.4049  -26.6084   22.1511 C   0  0  0  0  0  0  0  0  0  0  0  0
  -18.9564  -29.7253   22.6579 C   0  0  0  0  0  0  0  0  0  0  0  0
  -24.0948  -26.6857   20.9329 C   0  0  0  0  0  0  0  0  0  0  0  0
  -26.8741  -17.1790   22.1453 C   0  0  0  0  0  0  0  0  0  0  0  0
  -24.7866  -18.0979   21.3486 C   0  0  0  0  0  0  0  0  0  0  0  0
  -24.0375  -11.5666   21.2669 C   0  0  0  0  0  0  0  0  0  0  0  0
  -23.4119  -24.4106   20.4158 C   0  0  0  0  0  0  0  0  0  0  0  0
  -21.9659  -12.3561   22.0460 C   0  0  0  0  0  0  0  0  0  0  0  0
  -20.3137  -14.5078   22.6963 C   0  0  0  0  0  0  0  0  0  0  0  0
  -22.3529  -13.2579   23.0373 C   0  0  0  0  0  0  0  0  0  0  0  0
  -27.9293  -12.4340   19.8527 C   0  0  0  0  0  0  0  0  0  0  0  0
  -29.8101  -12.4673   18.7141 C   0  0  0  0  0  0  0  0  0  0  0  0
  -28.1268  -10.8348   17.8480 C   0  0  0  0  0  0  0  0  0  0  0  0
  -22.5109  -29.6180   21.6547 C   0  0  0  0  0  0  0  0  0  0  0  0
  -22.8351  -21.0835   18.9464 C   0  0  0  0  0  0  0  0  0  0  0  0
  -25.7074  -30.1191   21.4224 C   0  0  0  0  0  0  0  0  0  0  0  0
  -28.8017  -28.8346   20.7730 C   0  0  0  0  0  0  0  0  0  0  0  0
  -29.1222  -16.2751   22.8344 C   0  0  0  0  0  0  0  0  0  0  0  0
  -18.4960  -31.9891   23.7323 C   0  0  0  0  0  0  0  0  0  0  0  0
  -23.4172  -27.7684   23.1085 C   0  0  0  0  0  0  0  0  0  0  0  0
  -24.8402  -27.9280   20.5211 C   0  0  0  0  0  0  0  0  0  0  0  0
  -19.8683  -32.4144   23.2163 C   0  0  0  0  0  0  0  0  0  0  0  0
  -31.5073  -13.5104   22.5030 C   0  0  0  0  0  0  0  0  0  0  0  0
  -20.1258  -31.8228   21.8341 C   0  0  0  0  0  0  0  0  0  0  0  0
  -31.9689  -13.5880   21.0531 C   0  0  0  0  0  0  0  0  0  0  0  0
  -31.1654  -14.8925   23.0386 C   0  0  0  0  0  0  0  0  0  0  0  0
  -30.4928  -15.6443   20.7579 C   0  0  0  0  0  0  0  0  0  0  0  0
  -20.1260  -30.2901   21.8813 C   0  0  1  0  0  0  0  0  0  0  0  0
  -23.6940  -29.1041   22.4252 C   0  0  1  0  0  0  0  0  0  0  0  0
  -30.9416  -14.2950   20.1559 C   0  0  2  0  0  0  0  0  0  0  0  0
  -31.2178  -29.4962   20.6247 C   0  0  0  0  0  0  0  0  0  0  0  0
  -25.1779  -31.4382   18.7225 C   0  0  0  0  0  0  0  0  0  0  0  0
  -27.6186  -31.2127   18.2122 C   0  0  0  0  0  0  0  0  0  0  0  0
  -26.8732  -32.6084   20.1407 C   0  0  0  0  0  0  0  0  0  0  0  0
  -29.5652  -26.9711   22.9419 C   0  0  0  0  0  0  0  0  0  0  0  0
  -22.7082  -22.1793   19.9892 C   0  0  0  0  0  0  0  0  0  1  0  0
  -22.6542  -19.0632   20.4844 C   0  0  0  0  0  0  0  0  0  0  0  0
  -26.7152  -30.0900   20.2989 C   0  0  1  0  0  0  0  0  0  0  0  0
  -30.1176  -28.9499   21.5212 C   0  0  2  0  0  0  0  0  0  0  0  0
  -20.6368  -19.9275   19.2520 C   0  0  0  0  0  0  0  0  0  0  0  0
  -22.1470  -19.7433   19.2117 C   0  0  1  0  0  0  0  0  0  0  0  0
  -26.5807  -31.3145   19.3502 C   0  0  0  0  0  0  0  0  0  0  0  0
  -28.6764  -13.3545   20.4677 N   0  0  0  0  0  0  0  0  0  0  0  0
  -29.8141  -13.3517   19.7523 N   0  0  0  0  0  0  0  0  0  0  0  0
  -24.8176  -29.0376   21.4885 N   0  0  0  0  0  0  0  0  0  0  0  0
  -30.1891  -15.5920   22.2000 N   0  0  0  0  0  0  0  0  0  0  0  0
  -30.8738  -12.3360   17.8933 N   0  0  0  0  0  0  0  0  0  0  0  0
  -26.8416  -10.3065   18.0313 N   0  0  0  0  0  0  0  0  0  0  0  0
  -28.2567  -16.9316   21.9591 N   0  0  0  0  0  0  0  0  0  0  0  0
  -24.0652  -18.7690   20.3755 N   0  0  0  0  0  0  0  0  0  0  0  0
  -21.3763  -29.8013   22.4219 N   0  0  0  0  0  0  0  0  0  0  0  0
  -28.0251  -29.9632   20.9287 N   0  0  0  0  0  0  0  0  0  0  0  0
  -30.5439  -27.6149   22.0282 N   0  3  0  0  0  0  0  0  0  0  0  0
  -28.8425  -10.3987   16.9147 O   0  0  0  0  0  0  0  0  0  0  0  0
  -22.6198  -29.8338   20.4533 O   0  0  0  0  0  0  0  0  0  0  0  0
  -23.4705  -21.2600   17.9047 O   0  0  0  0  0  0  0  0  0  0  0  0
  -25.7142  -31.0630   22.2166 O   0  0  0  0  0  0  0  0  0  0  0  0
  -28.4952  -27.8440   20.1133 O   0  0  0  0  0  0  0  0  0  0  0  0
  -28.9991  -16.2934   24.0618 O   0  0  0  0  0  0  0  0  0  0  0  0
  -22.7852  -11.2880   21.7215 O   0  0  0  0  0  0  0  0  0  0  0  0
  -23.4136  -23.3461   19.5681 O   0  0  0  0  0  0  0  0  0  1  0  0
  -19.5210  -15.5418   23.0074 F   0  0  0  0  0  0  0  0  0  0  0  0
  -23.5177  -13.0964   23.6800 F   0  0  0  0  0  0  0  0  0  0  0  0
  -20.0340  -18.7278   19.4521 F   0  0  0  0  0  0  0  0  0  0  0  0
  -20.1994  -20.3813   18.0497 F   0  0  0  0  0  0  0  0  0  0  0  0
  -22.4037  -18.8912   18.1689 F   0  0  0  0  0  0  0  0  0  0  0  0
  1  2  1  0  0  0  0
  1  6  2  0  0  0  0
  2  7  2  0  0  0  0
  3  9  1  0  0  0  0
  3 10  2  0  0  0  0
  4 11  2  0  0  0  0
  4 19  1  0  0  0  0
  5 12  1  0  0  0  0
  5 19  2  0  0  0  0
  6 21  1  0  0  0  0
  7 23  1  0  0  0  0
  8 13  2  0  0  0  0
  8 22  1  0  0  0  0
  9 25  2  0  0  0  0
 10 26  1  0  0  0  0
 11 27  1  0  0  0  0
 12 27  2  0  0  0  0
 13 28  1  0  0  0  0
 14 15  2  0  0  0  0
 14 29  1  0  0  0  0
 15 30  1  0  0  0  0
 16 24  1  0  0  0  0
 16 28  2  0  0  0  0
 17 25  1  0  0  0  0
 17 26  2  0  0  0  0
 18 30  2  0  0  0  0
 18 31  1  0  0  0  0
 19 32  1  0  0  0  0
 20 32  1  0  0  0  0
 20 33  2  0  0  0  0
 20 34  1  0  0  0  0
 21 23  2  0  0  0  0
 21 40  1  0  0  0  0
 22 24  2  0  0  0  0
 22 41  1  0  0  0  0
 23 49  1  0  0  0  0
 24 42  1  0  0  0  0
 25 70  1  0  0  0  0
 26 71  1  0  0  0  0
 27 81  1  0  0  0  0
 28 82  1  0  0  0  0
 29 31  2  0  0  0  0
 29 81  1  0  0  0  0
 30 83  1  0  0  0  0
 31 84  1  0  0  0  0
 32 64  2  0  0  0  0
 33 65  1  0  0  0  0
 33 68  1  0  0  0  0
 34 69  1  0  0  0  0
 34 75  2  0  0  0  0
 35 50  1  0  0  0  0
 35 72  1  0  0  0  0
 35 76  2  0  0  0  0
 36 57  1  0  0  0  0
 36 62  1  0  0  0  0
 36 77  2  0  0  0  0
 37 59  1  0  0  0  0
 37 66  1  0  0  0  0
 37 78  2  0  0  0  0
 38 60  1  0  0  0  0
 38 73  1  0  0  0  0
 38 79  2  0  0  0  0
 39 67  1  0  0  0  0
 39 70  1  0  0  0  0
 39 80  2  0  0  0  0
 40 43  1  0  0  0  0
 41 50  1  0  0  0  0
 42 66  1  0  0  0  0
 43 45  1  0  0  0  0
 44 46  1  0  0  0  0
 44 47  1  0  0  0  0
 45 49  1  0  0  0  0
 46 51  1  0  0  0  0
 47 67  1  0  0  0  0
 48 51  1  0  0  0  0
 48 67  1  0  0  0  0
 49 72  1  0  0  0  0
 50 66  1  0  0  0  0
 51 65  1  0  0  0  0
 52 60  1  0  0  0  0
 53 63  1  0  0  0  0
 54 63  1  0  0  0  0
 55 63  1  0  0  0  0
 56 74  1  0  0  0  0
 57 82  1  0  0  0  0
 58 62  1  0  0  0  0
 58 71  1  0  0  0  0
 59 63  1  0  0  0  0
 59 73  1  0  0  0  0
 60 74  1  0  0  0  0
 61 62  1  0  0  0  0
 61 85  1  0  0  0  0
 61 86  1  0  0  0  0
 62 87  1  0  0  0  0
 64 65  1  0  0  0  0
M  CHG  1  74   1
M  ISO  4  39 100  57 101  70 100  82 101
M  END
> <Batch ID>
0168

> <Smiles>
CNC(C)C(=O)NC(C(=O)N1Cc2cc([101O:1][101CH2:1]C(=O)C(F)(CNc3cccc([100NH:0][100C:0](=O)N4CCCC(n5nc(-c6ccc(Oc7ccc(F)cc7F)cc6)c(C(N)=O)c5N)C4)c3)C(F)F)ccc2CC1C(=O)NC1CCCc2ccccc21)C(C)(C)C

> <Shape>
0.235

> <Color>
0.068

> <Negative vol penalty>
0.000

$$$$

  -OEChem-04052304143D

 87 95  0     1  0  0  0  0  0999 V2000
  -19.7415  -23.9325   23.5879 C   0  0  0  0  0  0  0  0  0  0  0  0
  -21.0277  -24.1491   23.1039 C   0  0  0  0  0  0  0  0  0  0  0  0
  -23.7355   -9.8218   22.1415 C   0  0  0  0  0  0  0  0  0  0  0  0
  -24.6908   -8.4518   20.3958 C   0  0  0  0  0  0  0  0  0  0  0  0
  -18.8188  -24.9776   23.6040 C   0  0  0  0  0  0  0  0  0  0  0  0
  -21.3916  -25.4108   22.6347 C   0  0  0  0  0  0  0  0  0  0  0  0
  -25.9414  -26.8697   24.3129 C   0  0  0  0  0  0  0  0  0  0  0  0
  -22.6021   -9.0090   22.1592 C   0  0  0  0  0  0  0  0  0  0  0  0
  -23.5574   -7.6389   20.4135 C   0  0  0  0  0  0  0  0  0  0  0  0
  -27.0580  -26.3215   23.6834 C   0  0  0  0  0  0  0  0  0  0  0  0
  -21.7154   -5.9982   23.4168 C   0  0  0  0  0  0  0  0  0  0  0  0
  -21.2186   -5.6056   24.6597 C   0  0  0  0  0  0  0  0  0  0  0  0
  -30.3664  -20.5836   19.4467 C   0  0  0  0  0  0  0  0  0  0  0  0
  -27.3037  -28.3355   22.3785 C   0  0  0  0  0  0  0  0  0  0  0  0
  -31.5851  -21.5805   17.6142 C   0  0  0  0  0  0  0  0  0  0  0  0
  -19.1168   -6.6877   24.1614 C   0  0  0  0  0  0  0  0  0  0  0  0
  -24.7798   -9.5432   21.2597 C   0  0  0  0  0  0  0  0  0  0  0  0
  -30.6554  -19.3135   18.9480 C   0  0  0  0  0  0  0  0  0  0  0  0
  -27.1222  -10.2254   22.0050 C   0  0  0  0  0  0  0  0  0  0  0  0
  -19.1746  -26.2553   23.1438 C   0  0  0  0  0  0  0  0  0  0  0  0
  -25.4902  -28.1528   23.9716 C   0  0  0  0  0  0  0  0  0  0  0  0
  -20.4724  -26.4737   22.6435 C   0  0  0  0  0  0  0  0  0  0  0  0
  -26.1825  -28.8987   23.0070 C   0  0  0  0  0  0  0  0  0  0  0  0
  -31.4093  -19.1768   17.7824 C   0  0  0  0  0  0  0  0  0  0  0  0
  -30.8312  -21.7172   18.7797 C   0  0  0  0  0  0  0  0  0  0  0  0
  -31.8742  -20.3103   17.1155 C   0  0  0  0  0  0  0  0  0  0  0  0
  -22.5130   -7.9175   21.2952 C   0  0  0  0  0  0  0  0  0  0  0  0
  -27.7377  -27.0533   22.7140 C   0  0  0  0  0  0  0  0  0  0  0  0
  -20.9129   -6.7357   22.5463 C   0  0  0  0  0  0  0  0  0  0  0  0
  -19.9193   -5.9503   25.0319 C   0  0  0  0  0  0  0  0  0  0  0  0
  -19.6136   -7.0804   22.9185 C   0  0  0  0  0  0  0  0  0  0  0  0
  -25.9507  -10.3828   21.2406 C   0  0  0  0  0  0  0  0  0  0  0  0
  -27.9253  -11.2718   21.6221 C   0  0  0  0  0  0  0  0  0  0  0  0
  -30.1540  -18.1509   19.6697 C   0  0  0  0  0  0  0  0  0  0  0  0
  -28.8537  -17.8708   19.8909 C   0  0  0  0  0  0  0  0  0  0  0  0
  -27.4549   -9.2229   22.9745 C   0  0  0  0  0  0  0  0  0  0  0  0
  -28.5034  -16.6434   20.6336 C   0  0  0  0  0  0  0  0  0  0  0  0
  -22.8114  -29.3327   22.7324 C   0  0  0  0  0  0  0  0  0  0  0  0
  -29.6568  -24.7056   20.7220 C   0  0  0  0  0  0  0  0  0  0  0  0
  -24.2438  -32.1787   23.3415 C   0  0  0  0  0  0  0  0  0  0  0  0
  -27.1380  -33.9188   23.8341 C   0  0  0  0  0  0  0  0  0  0  0  0
  -18.1285  -27.3417   23.1370 C   0  0  0  0  0  0  0  0  0  0  0  0
  -24.3000  -28.7404   24.6790 C   0  0  0  0  0  0  0  0  0  0  0  0
  -25.7508  -30.2885   22.6191 C   0  0  0  0  0  0  0  0  0  0  0  0
  -18.7079  -28.7441   22.9701 C   0  0  0  0  0  0  0  0  0  0  0  0
  -27.5006  -14.5398   17.8050 C   0  0  0  0  0  0  0  0  0  0  0  0
  -19.7343  -28.7668   21.8418 C   0  0  0  0  0  0  0  0  0  0  0  0
  -27.0582  -13.2694   18.5261 C   0  0  0  0  0  0  0  0  0  0  0  0
  -27.1883  -15.7962   18.6165 C   0  0  0  0  0  0  0  0  0  0  0  0
  -27.3009  -14.4942   20.7218 C   0  0  0  0  0  0  0  0  0  0  0  0
  -20.9125  -27.8346   22.1490 C   0  0  1  0  0  0  0  0  0  0  0  0
  -23.6224  -29.8532   23.8852 C   0  0  1  0  0  0  0  0  0  0  0  0
  -27.6480  -13.2151   19.9443 C   0  0  1  0  0  0  0  0  0  0  0  0
  -27.9923  -36.2374   24.2717 C   0  0  0  0  0  0  0  0  0  0  0  0
  -23.7576  -32.9069   20.4187 C   0  0  0  0  0  0  0  0  0  0  0  0
  -25.4270  -34.7553   20.6740 C   0  0  0  0  0  0  0  0  0  0  0  0
  -23.3397  -34.7646   22.0400 C   0  0  0  0  0  0  0  0  0  0  0  0
  -28.3392  -33.1139   26.4164 C   0  0  0  0  0  0  0  0  0  0  0  0
  -29.7742  -23.2173   20.4703 C   0  0  0  0  0  0  0  0  0  0  0  0
  -28.8617  -25.1012   21.9510 C   0  0  0  0  0  0  0  0  0  1  0  0
  -31.7243  -17.8159   17.2406 C   0  0  0  0  0  0  0  0  0  0  0  0
  -25.1640  -33.0980   22.5754 C   0  0  1  0  0  0  0  0  0  0  0  0
  -27.5390  -34.9268   24.8959 C   0  0  2  0  0  0  0  0  0  0  0  0
  -24.4293  -33.8543   21.4327 C   0  0  0  0  0  0  0  0  0  0  0  0
  -26.0007  -11.4457   20.4331 N   0  0  0  0  0  0  0  0  0  0  0  0
  -27.2135  -11.9656   20.6882 N   0  0  0  0  0  0  0  0  0  0  0  0
  -27.7120  -15.6958   19.9870 N   0  0  0  0  0  0  0  0  0  0  0  0
  -24.5776  -30.8169   23.3346 N   0  0  0  0  0  0  0  0  0  0  0  0
  -32.6392  -20.1938   15.9338 N   0  0  0  0  0  0  0  0  0  0  0  0
  -29.1638  -11.6570   21.9965 N   0  0  0  0  0  0  0  0  0  0  0  0
  -26.5149   -8.2200   23.2481 N   0  0  0  0  0  0  0  0  0  0  0  0
  -30.5439  -22.9807   19.2758 N   0  0  0  0  0  0  0  0  0  0  0  0
  -21.8114  -28.4527   23.0999 N   0  0  0  0  0  0  0  0  0  0  0  0
  -25.7865  -33.9702   23.5654 N   0  0  0  0  0  0  0  0  0  0  0  0
  -28.6553  -34.3900   25.7245 N   0  3  0  0  0  0  0  0  0  0  0  0
  -28.5467   -9.2259   23.5921 O   0  0  0  0  0  0  0  0  0  0  0  0
  -28.9297  -16.5342   21.7847 O   0  0  0  0  0  0  0  0  0  0  0  0
  -23.0725  -29.7033   21.5939 O   0  0  0  0  0  0  0  0  0  0  0  0
  -30.1682  -25.5474   19.9847 O   0  0  0  0  0  0  0  0  0  0  0  0
  -23.2689  -32.6523   23.9305 O   0  0  0  0  0  0  0  0  0  0  0  0
  -27.9437  -33.1640   23.2941 O   0  0  0  0  0  0  0  0  0  0  0  0
  -21.4073   -7.1240   21.3124 O   0  0  0  0  0  0  0  0  0  0  0  0
  -28.8275  -26.5203   22.0975 O   0  0  0  0  0  0  0  0  0  1  0  0
  -19.4419   -5.5719   26.2248 F   0  0  0  0  0  0  0  0  0  0  0  0
  -18.8376   -7.7877   22.0859 F   0  0  0  0  0  0  0  0  0  0  0  0
  -33.0662  -17.6312   17.1660 F   0  0  0  0  0  0  0  0  0  0  0  0
  -31.2409  -17.6815   15.9803 F   0  0  0  0  0  0  0  0  0  0  0  0
  1  2  1  0  0  0  0
  1  5  2  0  0  0  0
  2  6  2  0  0  0  0
  3  8  2  0  0  0  0
  3 17  1  0  0  0  0
  4  9  1  0  0  0  0
  4 17  2  0  0  0  0
  5 20  1  0  0  0  0
  6 22  1  0  0  0  0
  7 10  2  0  0  0  0
  7 21  1  0  0  0  0
  8 27  1  0  0  0  0
  9 27  2  0  0  0  0
 10 28  1  0  0  0  0
 11 12  2  0  0  0  0
 11 29  1  0  0  0  0
 12 30  1  0  0  0  0
 13 18  1  0  0  0  0
 13 25  2  0  0  0  0
 14 23  1  0  0  0  0
 14 28  2  0  0  0  0
 15 25  1  0  0  0  0
 15 26  2  0  0  0  0
 16 30  2  0  0  0  0
 16 31  1  0  0  0  0
 17 32  1  0  0  0  0
 18 24  2  0  0  0  0
 18 34  1  0  0  0  0
 19 32  1  0  0  0  0
 19 33  2  0  0  0  0
 19 36  1  0  0  0  0
 20 22  2  0  0  0  0
 20 42  1  0  0  0  0
 21 23  2  0  0  0  0
 21 43  1  0  0  0  0
 22 51  1  0  0  0  0
 23 44  1  0  0  0  0
 24 26  1  0  0  0  0
 24 61  1  0  0  0  0
 25 72  1  0  0  0  0
 26 69  1  0  0  0  0
 27 82  1  0  0  0  0
 28 83  1  0  0  0  0
 29 31  2  0  0  0  0
 29 82  1  0  0  0  0
 30 84  1  0  0  0  0
 31 85  1  0  0  0  0
 32 65  2  0  0  0  0
 33 66  1  0  0  0  0
 33 70  1  0  0  0  0
 34 35  2  0  0  0  0
 35 37  1  0  0  0  0
 36 71  1  0  0  0  0
 36 76  2  0  0  0  0
 37 67  1  0  0  0  0
 37 77  2  0  0  0  0
 38 52  1  0  0  0  0
 38 73  1  0  0  0  0
 38 78  2  0  0  0  0
 39 59  1  0  0  0  0
 39 60  1  0  0  0  0
 39 79  2  0  0  0  0
 40 62  1  0  0  0  0
 40 68  1  0  0  0  0
 40 80  2  0  0  0  0
 41 63  1  0  0  0  0
 41 74  1  0  0  0  0
 41 81  2  0  0  0  0
 42 45  1  0  0  0  0
 43 52  1  0  0  0  0
 44 68  1  0  0  0  0
 45 47  1  0  0  0  0
 46 48  1  0  0  0  0
 46 49  1  0  0  0  0
 47 51  1  0  0  0  0
 48 53  1  0  0  0  0
 49 67  1  0  0  0  0
 50 53  1  0  0  0  0
 50 67  1  0  0  0  0
 51 73  1  0  0  0  0
 52 68  1  0  0  0  0
 53 66  1  0  0  0  0
 54 63  1  0  0  0  0
 55 64  1  0  0  0  0
 56 64  1  0  0  0  0
 57 64  1  0  0  0  0
 58 75  1  0  0  0  0
 59 72  1  0  0  0  0
 60 83  1  0  0  0  0
 61 86  1  0  0  0  0
 61 87  1  0  0  0  0
 62 64  1  0  0  0  0
 62 74  1  0  0  0  0
 63 75  1  0  0  0  0
 65 66  1  0  0  0  0
M  CHG  1  75   1
M  ISO  4  35 100  37 100  60 101  83 101
M  END
> <Batch ID>
0168

> <Smiles>
CNC(C)C(=O)NC(C(=O)N1Cc2cc([101O:1][101CH2:1]C(=O)CNc3cc(N)c(C(F)F)c(C=[100CH:0][100C:0](=O)N4CCCC(n5nc(-c6ccc(Oc7ccc(F)cc7F)cc6)c(C(N)=O)c5N)C4)c3)ccc2CC1C(=O)NC1CCCc2ccccc21)C(C)(C)C

> <Shape>
0.266

> <Color>
0.108

> <Negative vol penalty>
0.000

$$$$

  -OEChem-04052304143D

 86 94  0     1  0  0  0  0  0999 V2000
  -30.8280  -28.3095   26.6140 C   0  0  0  0  0  0  0  0  0  0  0  0
  -30.4489  -27.0699   26.1091 C   0  0  0  0  0  0  0  0  0  0  0  0
  -29.8082  -23.3637   19.2253 C   0  0  0  0  0  0  0  0  0  0  0  0
  -27.5284  -23.0890   19.9762 C   0  0  0  0  0  0  0  0  0  0  0  0
  -29.8698  -29.1588   27.1658 C   0  0  0  0  0  0  0  0  0  0  0  0
  -29.1114  -26.6783   26.1567 C   0  0  0  0  0  0  0  0  0  0  0  0
  -24.2800  -22.8551   22.5020 C   0  0  0  0  0  0  0  0  0  0  0  0
  -29.4319  -24.4910   18.4952 C   0  0  0  0  0  0  0  0  0  0  0  0
  -27.1521  -24.2164   19.2462 C   0  0  0  0  0  0  0  0  0  0  0  0
  -23.3590  -21.8248   22.6863 C   0  0  0  0  0  0  0  0  0  0  0  0
  -25.6605  -27.2325   17.8692 C   0  0  0  0  0  0  0  0  0  0  0  0
  -24.8280  -28.1618   18.4929 C   0  0  0  0  0  0  0  0  0  0  0  0
  -21.7788  -23.4073   23.5906 C   0  0  0  0  0  0  0  0  0  0  0  0
  -24.3220  -15.5437   21.3328 C   0  0  0  0  0  0  0  0  0  0  0  0
  -25.3838  -13.4925   20.6242 C   0  0  0  0  0  0  0  0  0  0  0  0
  -26.4958  -28.5058   20.2067 C   0  0  0  0  0  0  0  0  0  0  0  0
  -28.8564  -22.6626   19.9658 C   0  0  0  0  0  0  0  0  0  0  0  0
  -29.6888  -21.4583   22.0549 C   0  0  0  0  0  0  0  0  0  0  0  0
  -28.5184  -28.7815   27.2115 C   0  0  0  0  0  0  0  0  0  0  0  0
  -23.9608  -24.1697   22.8714 C   0  0  0  0  0  0  0  0  0  0  0  0
  -28.1344  -27.5228   26.7109 C   0  0  0  0  0  0  0  0  0  0  0  0
  -22.6966  -24.4529   23.4077 C   0  0  0  0  0  0  0  0  0  0  0  0
  -25.4262  -14.8751   20.8043 C   0  0  0  0  0  0  0  0  0  0  0  0
  -23.1754  -14.8297   21.6812 C   0  0  0  0  0  0  0  0  0  0  0  0
  -23.1331  -13.4472   21.5012 C   0  0  0  0  0  0  0  0  0  0  0  0
  -28.1038  -24.9174   18.5056 C   0  0  0  0  0  0  0  0  0  0  0  0
  -22.1092  -22.1003   23.2333 C   0  0  0  0  0  0  0  0  0  0  0  0
  -26.9106  -26.9398   18.4143 C   0  0  0  0  0  0  0  0  0  0  0  0
  -25.2456  -28.7985   19.6616 C   0  0  0  0  0  0  0  0  0  0  0  0
  -24.2373  -12.7786   20.9727 C   0  0  0  0  0  0  0  0  0  0  0  0
  -27.3283  -27.5765   19.5830 C   0  0  0  0  0  0  0  0  0  0  0  0
  -29.2444  -21.4976   20.7197 C   0  0  0  0  0  0  0  0  0  0  0  0
  -29.9283  -20.1279   22.2981 C   0  0  0  0  0  0  0  0  0  0  0  0
  -29.8688  -22.5287   22.9917 C   0  0  0  0  0  0  0  0  0  0  0  0
  -20.7352  -17.3397   22.9988 C   0  0  0  0  0  0  0  0  0  0  0  0
  -20.5003  -18.8052   23.3083 C   0  0  0  0  0  0  0  0  0  0  0  0
  -25.1383  -26.2634   24.9532 C   0  0  0  0  0  0  0  0  0  0  0  0
  -22.9968  -28.2627   23.5607 C   0  0  0  0  0  0  0  0  0  0  0  0
  -20.0965  -28.6306   21.8000 C   0  0  0  0  0  0  0  0  0  0  0  0
  -27.7732  -15.0900   19.9146 C   0  0  0  0  0  0  0  0  0  0  0  0
  -27.5261  -29.7135   27.8605 C   0  0  0  0  0  0  0  0  0  0  0  0
  -24.9556  -25.2742   22.6414 C   0  0  0  0  0  0  0  0  0  0  0  0
  -22.2974  -25.8506   23.8019 C   0  0  0  0  0  0  0  0  0  0  0  0
  -26.0729  -29.3799   27.5329 C   0  0  0  0  0  0  0  0  0  0  0  0
  -31.1894  -16.0815   20.0686 C   0  0  0  0  0  0  0  0  0  0  0  0
  -25.8201  -27.8839   27.6902 C   0  0  0  0  0  0  0  0  0  0  0  0
  -31.1189  -17.5781   20.3806 C   0  0  0  0  0  0  0  0  0  0  0  0
  -30.0654  -15.6440   19.1311 C   0  0  0  0  0  0  0  0  0  0  0  0
  -28.6426  -17.5105   19.8801 C   0  0  0  0  0  0  0  0  0  0  0  0
  -26.6897  -27.0727   26.7221 C   0  0  1  0  0  0  0  0  0  0  0  0
  -24.7138  -26.4906   23.5298 C   0  0  1  0  0  0  0  0  0  0  0  0
  -29.7162  -17.9857   20.8726 C   0  0  2  0  0  0  0  0  0  0  0  0
  -18.5825  -30.3881   20.8430 C   0  0  0  0  0  0  0  0  0  0  0  0
  -21.9204  -28.8531   26.3541 C   0  0  0  0  0  0  0  0  0  0  0  0
  -19.8741  -29.8215   25.2851 C   0  0  0  0  0  0  0  0  0  0  0  0
  -22.1060  -30.8526   24.8635 C   0  0  0  0  0  0  0  0  0  0  0  0
  -20.4903  -27.6329   19.0416 C   0  0  0  0  0  0  0  0  0  0  0  0
  -22.0667  -16.9404   22.4170 C   0  0  0  0  0  0  0  0  0  0  0  0
  -21.6104  -19.7846   23.0225 C   0  0  0  0  0  0  0  0  0  1  0  0
  -21.5519  -28.6226   23.8091 C   0  0  1  0  0  0  0  0  0  0  0  0
  -19.7598  -29.4633   20.5762 C   0  0  2  0  0  0  0  0  0  0  0  0
  -21.3710  -29.5107   25.0724 C   0  0  0  0  0  0  0  0  0  0  0  0
  -29.2033  -20.2883   20.1541 N   0  0  0  0  0  0  0  0  0  0  0  0
  -29.6250  -19.4766   21.1387 N   0  0  0  0  0  0  0  0  0  0  0  0
  -23.3069  -26.8954   23.5633 N   0  0  0  0  0  0  0  0  0  0  0  0
  -28.7663  -16.0604   19.6637 N   0  0  0  0  0  0  0  0  0  0  0  0
  -21.9801  -12.7075   21.8477 N   0  0  0  0  0  0  0  0  0  0  0  0
  -30.3667  -19.4633   23.3883 N   0  0  0  0  0  0  0  0  0  0  0  0
  -29.5758  -23.8352   22.5778 N   0  0  0  0  0  0  0  0  0  0  0  0
  -26.5913  -15.5999   20.4509 N   0  0  0  0  0  0  0  0  0  0  0  0
  -22.0892  -15.5141   22.2051 N   0  0  0  0  0  0  0  0  0  0  0  0
  -26.1350  -27.1170   25.3861 N   0  0  0  0  0  0  0  0  0  0  0  0
  -21.0651  -29.2315   22.5759 N   0  0  0  0  0  0  0  0  0  0  0  0
  -19.4123  -28.5793   19.4278 N   0  3  0  0  0  0  0  0  0  0  0  0
  -30.2931  -22.3342   24.1561 O   0  0  0  0  0  0  0  0  0  0  0  0
  -19.8183  -16.5653   23.2425 O   0  0  0  0  0  0  0  0  0  0  0  0
  -19.4135  -19.1151   23.7794 O   0  0  0  0  0  0  0  0  0  0  0  0
  -24.6003  -25.3800   25.6104 O   0  0  0  0  0  0  0  0  0  0  0  0
  -23.8186  -29.1614   23.3643 O   0  0  0  0  0  0  0  0  0  0  0  0
  -19.5520  -27.5564   22.0452 O   0  0  0  0  0  0  0  0  0  0  0  0
  -27.9676  -13.8913   19.6971 O   0  0  0  0  0  0  0  0  0  0  0  0
  -27.7363  -26.0176   17.7935 O   0  0  0  0  0  0  0  0  0  0  0  0
  -21.2086  -21.0964   23.4148 O   0  0  0  0  0  0  0  0  0  1  0  0
  -24.4467  -29.6920   20.2595 F   0  0  0  0  0  0  0  0  0  0  0  0
  -24.2078  -11.4500   20.7950 F   0  0  0  0  0  0  0  0  0  0  0  0
  -28.5287  -27.3003   20.1107 F   0  0  0  0  0  0  0  0  0  0  0  0
  1  2  1  0  0  0  0
  1  5  2  0  0  0  0
  2  6  2  0  0  0  0
  3  8  2  0  0  0  0
  3 17  1  0  0  0  0
  4  9  1  0  0  0  0
  4 17  2  0  0  0  0
  5 19  1  0  0  0  0
  6 21  1  0  0  0  0
  7 10  2  0  0  0  0
  7 20  1  0  0  0  0
  8 26  1  0  0  0  0
  9 26  2  0  0  0  0
 10 27  1  0  0  0  0
 11 12  2  0  0  0  0
 11 28  1  0  0  0  0
 12 29  1  0  0  0  0
 13 22  1  0  0  0  0
 13 27  2  0  0  0  0
 14 23  2  0  0  0  0
 14 24  1  0  0  0  0
 15 23  1  0  0  0  0
 15 30  2  0  0  0  0
 16 29  2  0  0  0  0
 16 31  1  0  0  0  0
 17 32  1  0  0  0  0
 18 32  1  0  0  0  0
 18 33  2  0  0  0  0
 18 34  1  0  0  0  0
 19 21  2  0  0  0  0
 19 41  1  0  0  0  0
 20 22  2  0  0  0  0
 20 42  1  0  0  0  0
 21 50  1  0  0  0  0
 22 43  1  0  0  0  0
 23 70  1  0  0  0  0
 24 25  2  0  0  0  0
 24 71  1  0  0  0  0
 25 30  1  0  0  0  0
 25 67  1  0  0  0  0
 26 82  1  0  0  0  0
 27 83  1  0  0  0  0
 28 31  2  0  0  0  0
 28 82  1  0  0  0  0
 29 84  1  0  0  0  0
 30 85  1  0  0  0  0
 31 86  1  0  0  0  0
 32 63  2  0  0  0  0
 33 64  1  0  0  0  0
 33 68  1  0  0  0  0
 34 69  1  0  0  0  0
 34 75  2  0  0  0  0
 35 36  1  0  0  0  0
 35 58  1  0  0  0  0
 35 76  2  0  0  0  0
 36 59  1  0  0  0  0
 36 77  2  0  0  0  0
 37 51  1  0  0  0  0
 37 72  1  0  0  0  0
 37 78  2  0  0  0  0
 38 60  1  0  0  0  0
 38 65  1  0  0  0  0
 38 79  2  0  0  0  0
 39 61  1  0  0  0  0
 39 73  1  0  0  0  0
 39 80  2  0  0  0  0
 40 66  1  0  0  0  0
 40 70  1  0  0  0  0
 40 81  2  0  0  0  0
 41 44  1  0  0  0  0
 42 51  1  0  0  0  0
 43 65  1  0  0  0  0
 44 46  1  0  0  0  0
 45 47  1  0  0  0  0
 45 48  1  0  0  0  0
 46 50  1  0  0  0  0
 47 52  1  0  0  0  0
 48 66  1  0  0  0  0
 49 52  1  0  0  0  0
 49 66  1  0  0  0  0
 50 72  1  0  0  0  0
 51 65  1  0  0  0  0
 52 64  1  0  0  0  0
 53 61  1  0  0  0  0
 54 62  1  0  0  0  0
 55 62  1  0  0  0  0
 56 62  1  0  0  0  0
 57 74  1  0  0  0  0
 58 71  1  0  0  0  0
 59 83  1  0  0  0  0
 60 62  1  0  0  0  0
 60 73  1  0  0  0  0
 61 74  1  0  0  0  0
 63 64  1  0  0  0  0
M  CHG  1  74   1
M  ISO  4  40 100  59 101  70 100  83 101
M  END
> <Batch ID>
0168

> <Smiles>
CNC(C)C(=O)NC(C(=O)N1Cc2cc([101O:1][101CH2:1]C(=O)C(=O)CNc3cc([100NH:0][100C:0](=O)N4CCCC(n5nc(-c6ccc(Oc7ccc(F)cc7F)cc6)c(C(N)=O)c5N)C4)cc(F)c3N)ccc2CC1C(=O)NC1CCCc2ccccc21)C(C)(C)C

> <Shape>
0.201

> <Color>
0.073

> <Negative vol penalty>
0.000

$$$$

  -OEChem-04052304143D

 90 98  0     1  0  0  0  0  0999 V2000
  -18.1731  -32.1065   22.5903 C   0  0  0  0  0  0  0  0  0  0  0  0
  -18.1628  -30.8828   21.9287 C   0  0  0  0  0  0  0  0  0  0  0  0
  -23.2285   -9.7078   20.0553 C   0  0  0  0  0  0  0  0  0  0  0  0
  -23.7907  -10.0205   22.3841 C   0  0  0  0  0  0  0  0  0  0  0  0
  -30.9413  -19.3863   20.2474 C   0  0  0  0  0  0  0  0  0  0  0  0
  -19.3832  -32.6698   22.9930 C   0  0  0  0  0  0  0  0  0  0  0  0
  -19.3630  -30.2221   21.6685 C   0  0  0  0  0  0  0  0  0  0  0  0
  -20.5610  -23.5799   24.1859 C   0  0  0  0  0  0  0  0  0  0  0  0
  -30.8251  -18.0054   20.4056 C   0  0  0  0  0  0  0  0  0  0  0  0
  -22.5248   -8.5484   20.3808 C   0  0  0  0  0  0  0  0  0  0  0  0
  -23.0868   -8.8611   22.7097 C   0  0  0  0  0  0  0  0  0  0  0  0
  -20.7818  -22.2287   24.4536 C   0  0  0  0  0  0  0  0  0  0  0  0
  -19.5079   -7.7481   21.6813 C   0  0  0  0  0  0  0  0  0  0  0  0
  -18.2507   -7.5694   21.1043 C   0  0  0  0  0  0  0  0  0  0  0  0
  -29.1631  -19.7194   21.8487 C   0  0  0  0  0  0  0  0  0  0  0  0
  -22.9938  -22.3880   23.4896 C   0  0  0  0  0  0  0  0  0  0  0  0
  -19.0165   -5.5254   20.0686 C   0  0  0  0  0  0  0  0  0  0  0  0
  -23.8616  -10.4439   21.0570 C   0  0  0  0  0  0  0  0  0  0  0  0
  -30.1103  -20.2434   20.9690 C   0  0  0  0  0  0  0  0  0  0  0  0
  -24.0857  -12.9549   20.6666 C   0  0  0  0  0  0  0  0  0  0  0  0
  -20.5980  -32.0112   22.7462 C   0  0  0  0  0  0  0  0  0  0  0  0
  -21.5629  -24.3449   23.5821 C   0  0  0  0  0  0  0  0  0  0  0  0
  -20.5906  -30.7778   22.0671 C   0  0  0  0  0  0  0  0  0  0  0  0
  -22.7831  -23.7449   23.2302 C   0  0  0  0  0  0  0  0  0  0  0  0
  -29.8779  -17.4814   21.2853 C   0  0  0  0  0  0  0  0  0  0  0  0
  -29.0469  -18.3384   22.0069 C   0  0  0  0  0  0  0  0  0  0  0  0
  -22.4539   -8.1250   21.7080 C   0  0  0  0  0  0  0  0  0  0  0  0
  -21.9951  -21.6342   24.1061 C   0  0  0  0  0  0  0  0  0  0  0  0
  -20.5195   -6.8154   21.4519 C   0  0  0  0  0  0  0  0  0  0  0  0
  -18.0049   -6.4581   20.2980 C   0  0  0  0  0  0  0  0  0  0  0  0
  -20.2738   -5.7041   20.6455 C   0  0  0  0  0  0  0  0  0  0  0  0
  -24.5892  -11.6413   20.7213 C   0  0  0  0  0  0  0  0  0  0  0  0
  -25.1659  -13.7218   20.3038 C   0  0  0  0  0  0  0  0  0  0  0  0
  -30.2321  -21.6832   20.8039 C   0  0  0  0  0  0  0  0  0  0  0  0
  -22.7602  -13.4385   20.9212 C   0  0  0  0  0  0  0  0  0  0  0  0
  -22.6301  -27.7055   22.3003 C   0  0  0  0  0  0  0  0  0  0  0  0
  -25.0568  -26.4832   23.7241 C   0  0  0  0  0  0  0  0  0  0  0  0
  -27.4240  -24.0327   23.8928 C   0  0  0  0  0  0  0  0  0  0  0  0
  -30.5387  -15.1035   20.7803 C   0  0  0  0  0  0  0  0  0  0  0  0
  -21.8843  -32.6820   23.1585 C   0  0  0  0  0  0  0  0  0  0  0  0
  -21.3461  -25.7889   23.2192 C   0  0  0  0  0  0  0  0  0  0  0  0
  -23.8191  -24.5984   22.5511 C   0  0  0  0  0  0  0  0  0  0  0  0
  -23.0844  -31.7387   23.1770 C   0  0  0  0  0  0  0  0  0  0  0  0
  -29.7503  -12.3742   18.6339 C   0  0  0  0  0  0  0  0  0  0  0  0
  -23.1215  -30.8969   21.9055 C   0  0  0  0  0  0  0  0  0  0  0  0
  -28.2959  -12.0483   18.9811 C   0  0  0  0  0  0  0  0  0  0  0  0
  -30.5481  -12.7921   19.8679 C   0  0  0  0  0  0  0  0  0  0  0  0
  -28.4974  -13.5542   21.0007 C   0  0  0  0  0  0  0  0  0  0  0  0
  -21.8698  -30.0188   21.7886 C   0  0  1  0  0  0  0  0  0  0  0  0
  -22.6178  -26.6443   23.3609 C   0  0  1  0  0  0  0  0  0  0  0  0
  -27.6375  -13.1907   19.7792 C   0  0  2  0  0  0  0  0  0  0  0  0
  -29.5528  -22.8949   24.5794 C   0  0  0  0  0  0  0  0  0  0  0  0
  -22.7290  -19.3226   26.4750 C   0  0  0  0  0  0  0  0  0  0  0  0
  -26.2401  -28.1165   21.4358 C   0  0  0  0  0  0  0  0  0  0  0  0
  -28.3964  -26.8885   21.7686 C   0  0  0  0  0  0  0  0  0  0  0  0
  -27.4754  -28.3074   23.6019 C   0  0  0  0  0  0  0  0  0  0  0  0
  -26.1752  -22.9126   26.3310 C   0  0  0  0  0  0  0  0  0  0  0  0
  -27.2110  -18.6726   23.6633 C   0  0  0  0  0  0  0  0  0  0  0  0
  -24.2821  -19.1065   24.4666 C   0  0  0  0  0  0  0  0  0  0  0  0
  -26.3547  -26.1083   23.0544 C   0  0  1  0  0  0  0  0  0  0  0  0
  -28.2412  -23.4995   25.0557 C   0  0  2  0  0  0  0  0  0  0  0  0
  -26.3039  -17.8159   24.5532 C   0  0  1  0  0  0  0  0  0  0  0  0
  -23.2996  -19.9953   25.2330 C   0  0  1  0  0  0  0  0  0  1  0  0
  -27.0926  -27.3410   22.4599 C   0  0  0  0  0  0  0  0  0  0  0  0
  -27.0859  -16.9647   25.5458 C   0  0  0  0  0  0  0  0  0  0  0  0
  -25.8881  -11.5739   20.4173 N   0  0  0  0  0  0  0  0  0  0  0  0
  -31.0905  -22.2424   20.0036 N   0  0  0  0  0  0  0  0  0  0  0  0
  -26.2099  -12.8547   20.1681 N   0  0  0  0  0  0  0  0  0  0  0  0
  -23.8883  -25.9167   23.2007 N   0  0  0  0  0  0  0  0  0  0  0  0
  -29.8662  -13.8809   20.5710 N   0  0  0  0  0  0  0  0  0  0  0  0
  -25.3149  -15.0465   20.0907 N   0  0  0  0  0  0  0  0  0  0  0  0
  -21.7701  -12.5150   21.2834 N   0  0  0  0  0  0  0  0  0  0  0  0
  -29.7791  -16.0754   21.4306 N   0  0  0  0  0  0  0  0  0  0  0  0
  -28.1000  -17.8400   22.8867 N   0  0  0  0  0  0  0  0  0  0  0  0
  -21.9762  -28.8684   22.6603 N   0  0  0  0  0  0  0  0  0  0  0  0
  -27.1281  -25.3705   24.0474 N   0  0  0  0  0  0  0  0  0  0  0  0
  -25.4073  -18.6929   25.2939 N   0  0  0  0  0  0  0  0  0  0  0  0
  -27.4776  -22.4491   25.7868 N   0  3  0  0  0  0  0  0  0  0  0  0
  -22.4588  -14.6514   20.8142 O   0  0  0  0  0  0  0  0  0  0  0  0
  -23.1925  -27.4872   21.2336 O   0  0  0  0  0  0  0  0  0  0  0  0
  -25.0752  -27.2615   24.6818 O   0  0  0  0  0  0  0  0  0  0  0  0
  -27.0856  -23.3333   22.9405 O   0  0  0  0  0  0  0  0  0  0  0  0
  -31.6934  -15.2848   20.3856 O   0  0  0  0  0  0  0  0  0  0  0  0
  -21.7670   -6.9938   22.0260 O   0  0  0  0  0  0  0  0  0  0  0  0
  -22.2056  -20.3158   24.3745 O   0  0  0  0  0  0  0  0  0  1  0  0
  -16.7970   -6.2858   19.7452 F   0  0  0  0  0  0  0  0  0  0  0  0
  -21.2413   -4.8041   20.4225 F   0  0  0  0  0  0  0  0  0  0  0  0
  -27.8990  -16.0948   24.9037 F   0  0  0  0  0  0  0  0  0  0  0  0
  -27.8707  -17.7283   26.3380 F   0  0  0  0  0  0  0  0  0  0  0  0
  -26.2680  -16.2487   26.3475 F   0  0  0  0  0  0  0  0  0  0  0  0
  1  2  1  0  0  0  0
  1  6  2  0  0  0  0
  2  7  2  0  0  0  0
  3 10  2  0  0  0  0
  3 18  1  0  0  0  0
  4 11  1  0  0  0  0
  4 18  2  0  0  0  0
  5  9  2  0  0  0  0
  5 19  1  0  0  0  0
  6 21  1  0  0  0  0
  7 23  1  0  0  0  0
  8 12  2  0  0  0  0
  8 22  1  0  0  0  0
  9 25  1  0  0  0  0
 10 27  1  0  0  0  0
 11 27  2  0  0  0  0
 12 28  1  0  0  0  0
 13 14  2  0  0  0  0
 13 29  1  0  0  0  0
 14 30  1  0  0  0  0
 15 19  2  0  0  0  0
 15 26  1  0  0  0  0
 16 24  1  0  0  0  0
 16 28  2  0  0  0  0
 17 30  2  0  0  0  0
 17 31  1  0  0  0  0
 18 32  1  0  0  0  0
 19 34  1  0  0  0  0
 20 32  1  0  0  0  0
 20 33  2  0  0  0  0
 20 35  1  0  0  0  0
 21 23  2  0  0  0  0
 21 40  1  0  0  0  0
 22 24  2  0  0  0  0
 22 41  1  0  0  0  0
 23 49  1  0  0  0  0
 24 42  1  0  0  0  0
 25 26  2  0  0  0  0
 25 73  1  0  0  0  0
 26 74  1  0  0  0  0
 27 84  1  0  0  0  0
 28 85  1  0  0  0  0
 29 31  2  0  0  0  0
 29 84  1  0  0  0  0
 30 86  1  0  0  0  0
 31 87  1  0  0  0  0
 32 66  2  0  0  0  0
 33 68  1  0  0  0  0
 33 71  1  0  0  0  0
 34 67  2  0  0  0  0
 35 72  1  0  0  0  0
 35 79  2  0  0  0  0
 36 50  1  0  0  0  0
 36 75  1  0  0  0  0
 36 80  2  0  0  0  0
 37 60  1  0  0  0  0
 37 69  1  0  0  0  0
 37 81  2  0  0  0  0
 38 61  1  0  0  0  0
 38 76  1  0  0  0  0
 38 82  2  0  0  0  0
 39 70  1  0  0  0  0
 39 73  1  0  0  0  0
 39 83  2  0  0  0  0
 40 43  1  0  0  0  0
 41 50  1  0  0  0  0
 42 69  1  0  0  0  0
 43 45  1  0  0  0  0
 44 46  1  0  0  0  0
 44 47  1  0  0  0  0
 45 49  1  0  0  0  0
 46 51  1  0  0  0  0
 47 70  1  0  0  0  0
 48 51  1  0  0  0  0
 48 70  1  0  0  0  0
 49 75  1  0  0  0  0
 50 69  1  0  0  0  0
 51 68  1  0  0  0  0
 52 61  1  0  0  0  0
 53 63  1  0  0  0  0
 54 64  1  0  0  0  0
 55 64  1  0  0  0  0
 56 64  1  0  0  0  0
 57 78  1  0  0  0  0
 58 62  1  0  0  0  0
 58 74  1  0  0  0  0
 59 63  1  0  0  0  0
 59 77  1  0  0  0  0
 60 64  1  0  0  0  0
 60 76  1  0  0  0  0
 61 78  1  0  0  0  0
 62 65  1  0  0  0  0
 62 77  1  0  0  0  0
 63 85  1  0  0  0  0
 65 88  1  0  0  0  0
 65 89  1  0  0  0  0
 65 90  1  0  0  0  0
 66 68  1  0  0  0  0
M  CHG  1  78   1
M  ISO  4  39 100  63 101  73 100  85 101
M  END
> <Batch ID>
0168

> <Smiles>
CNC(C)C(=O)NC(C(=O)N1Cc2cc([101O:1][101CH:1](C)CNC(CNc3cc(C=N)ccc3[100NH:0][100C:0](=O)N3CCCC(n4nc(-c5ccc(Oc6ccc(F)cc6F)cc5)c(C(N)=O)c4N)C3)C(F)(F)F)ccc2CC1C(=O)NC1CCCc2ccccc21)C(C)(C)C

> <Shape>
0.218

> <Color>
0.177

> <Negative vol penalty>
0.000

$$$$

  -OEChem-04052304143D

 88 96  0     1  0  0  0  0  0999 V2000
  -17.8455  -30.6366   23.3615 C   0  0  0  0  0  0  0  0  0  0  0  0
  -19.2259  -30.7887   23.2796 C   0  0  0  0  0  0  0  0  0  0  0  0
  -25.7520  -12.6566   21.8765 C   0  0  0  0  0  0  0  0  0  0  0  0
  -25.9374  -13.5832   19.6531 C   0  0  0  0  0  0  0  0  0  0  0  0
  -17.2770  -29.3686   23.2479 C   0  0  0  0  0  0  0  0  0  0  0  0
  -20.0388  -29.6725   23.0853 C   0  0  0  0  0  0  0  0  0  0  0  0
  -25.2497  -29.4270   19.8771 C   0  0  0  0  0  0  0  0  0  0  0  0
  -24.5195  -12.0966   21.5404 C   0  0  0  0  0  0  0  0  0  0  0  0
  -24.7049  -13.0232   19.3169 C   0  0  0  0  0  0  0  0  0  0  0  0
  -26.5896  -29.4780   20.2590 C   0  0  0  0  0  0  0  0  0  0  0  0
  -21.3180  -13.1320   21.2198 C   0  0  0  0  0  0  0  0  0  0  0  0
  -20.2752  -13.2645   22.1365 C   0  0  0  0  0  0  0  0  0  0  0  0
  -26.6796  -27.0675   20.2438 C   0  0  0  0  0  0  0  0  0  0  0  0
  -30.5195  -23.0874   17.8441 C   0  0  0  0  0  0  0  0  0  0  0  0
  -20.1113  -10.8595   22.2977 C   0  0  0  0  0  0  0  0  0  0  0  0
  -26.4609  -13.4000   20.9329 C   0  0  0  0  0  0  0  0  0  0  0  0
  -29.7206  -20.8674   18.3302 C   0  0  0  0  0  0  0  0  0  0  0  0
  -29.0036  -13.3877   21.1389 C   0  0  0  0  0  0  0  0  0  0  0  0
  -18.0826  -28.2375   23.0424 C   0  0  0  0  0  0  0  0  0  0  0  0
  -24.6106  -28.1935   19.6860 C   0  0  0  0  0  0  0  0  0  0  0  0
  -19.4807  -28.3880   22.9702 C   0  0  0  0  0  0  0  0  0  0  0  0
  -25.3322  -27.0035   19.8570 C   0  0  0  0  0  0  0  0  0  0  0  0
  -30.0582  -21.8503   17.4047 C   0  0  0  0  0  0  0  0  0  0  0  0
  -23.9960  -12.2799   20.2606 C   0  0  0  0  0  0  0  0  0  0  0  0
  -27.3040  -28.2982   20.4452 C   0  0  0  0  0  0  0  0  0  0  0  0
  -21.7575  -11.8632   20.8419 C   0  0  0  0  0  0  0  0  0  0  0  0
  -19.6718  -12.1283   22.6755 C   0  0  0  0  0  0  0  0  0  0  0  0
  -21.1541  -10.7270   21.3808 C   0  0  0  0  0  0  0  0  0  0  0  0
  -27.7338  -13.9792   21.2797 C   0  0  0  0  0  0  0  0  0  0  0  0
  -29.8785  -14.3375   21.6067 C   0  0  0  0  0  0  0  0  0  0  0  0
  -30.6325  -23.3124   19.2087 C   0  0  0  0  0  0  0  0  0  0  0  0
  -29.8539  -21.1485   19.6825 C   0  0  0  0  0  0  0  0  0  0  0  0
  -29.2353  -19.5652   17.8817 C   0  0  0  0  0  0  0  0  0  0  0  0
  -29.3602  -12.0954   20.6305 C   0  0  0  0  0  0  0  0  0  0  0  0
  -31.8956  -26.7713   19.7662 C   0  0  0  0  0  0  0  0  0  0  0  0
  -30.8649  -27.7713   20.2237 C   0  0  0  0  0  0  0  0  0  0  0  0
  -22.1479  -26.7094   21.0411 C   0  0  0  0  0  0  0  0  0  0  0  0
  -22.6482  -24.5490   18.6737 C   0  0  0  0  0  0  0  0  0  0  0  0
  -24.8101  -23.1617   16.4268 C   0  0  0  0  0  0  0  0  0  0  0  0
  -29.5946  -20.2906   22.0369 C   0  0  0  0  0  0  0  0  0  0  0  0
  -17.4261  -26.8815   22.9730 C   0  0  0  0  0  0  0  0  0  0  0  0
  -23.1721  -28.1558   19.2481 C   0  0  0  0  0  0  0  0  0  0  0  0
  -24.6980  -25.6540   19.6448 C   0  0  0  0  0  0  0  0  0  0  0  0
  -18.3296  -25.7962   22.3934 C   0  0  0  0  0  0  0  0  0  0  0  0
  -30.1432  -17.9873   24.6960 C   0  0  0  0  0  0  0  0  0  0  0  0
  -19.7155  -25.8607   23.0274 C   0  0  0  0  0  0  0  0  0  0  0  0
  -29.7089  -16.6432   24.1068 C   0  0  0  0  0  0  0  0  0  0  0  0
  -29.2571  -19.1326   24.2095 C   0  0  0  0  0  0  0  0  0  0  0  0
  -28.6827  -17.8889   22.1621 C   0  0  0  0  0  0  0  0  0  0  0  0
  -20.3940  -27.2044   22.7351 C   0  0  1  0  0  0  0  0  0  0  0  0
  -22.4804  -26.8375   19.5814 C   0  0  1  0  0  0  0  0  0  0  0  0
  -29.5857  -16.7141   22.5721 C   0  0  2  0  0  0  0  0  0  0  0  0
  -30.2573  -18.4959   17.6422 C   0  0  0  0  0  0  0  0  0  0  0  0
  -24.9406  -21.3905   14.6540 C   0  0  0  0  0  0  0  0  0  0  0  0
  -22.7843  -22.3994   20.8349 C   0  0  0  0  0  0  0  0  0  0  0  0
  -23.8370  -20.8731   19.1525 C   0  0  0  0  0  0  0  0  0  0  0  0
  -21.5256  -21.7336   18.7790 C   0  0  0  0  0  0  0  0  0  0  0  0
  -25.4501  -25.1468   14.3270 C   0  0  0  0  0  0  0  0  0  0  0  0
  -31.4734  -25.6380   18.8771 C   0  0  0  0  0  0  0  0  0  0  0  0
  -29.4508  -27.2770   20.3813 C   0  0  0  0  0  0  0  0  0  1  0  0
  -23.4896  -23.3048   18.5221 C   0  0  1  0  0  0  0  0  0  0  0  0
  -24.6665  -22.8574   14.9466 C   0  0  2  0  0  0  0  0  0  0  0  0
  -22.9208  -22.1030   19.3281 C   0  0  0  0  0  0  0  0  0  0  0  0
  -27.7925  -15.2093   21.7967 N   0  0  0  0  0  0  0  0  0  0  0  0
  -33.1092  -26.9402   20.1742 N   0  0  0  0  0  0  0  0  0  0  0  0
  -29.1096  -15.3986   21.9850 N   0  0  0  0  0  0  0  0  0  0  0  0
  -30.3005  -22.3483   20.0782 N   0  3  0  0  0  0  0  0  0  0  0  0
  -23.2874  -25.6694   19.2232 N   0  0  0  0  0  0  0  0  0  0  0  0
  -29.1909  -19.1398   22.7465 N   0  0  0  0  0  0  0  0  0  0  0  0
  -29.9410  -21.6151   16.0168 N   0  0  0  0  0  0  0  0  0  0  0  0
  -31.2229  -14.3601   21.7275 N   0  0  0  0  0  0  0  0  0  0  0  0
  -28.3368  -11.2445   20.1913 N   0  0  0  0  0  0  0  0  0  0  0  0
  -29.5186  -20.1689   20.6498 N   0  0  0  0  0  0  0  0  0  0  0  0
  -31.0866  -24.5260   19.7059 N   0  0  0  0  0  0  0  0  0  0  0  0
  -20.9128  -27.2254   21.3842 N   0  0  0  0  0  0  0  0  0  0  0  0
  -23.6043  -23.0619   17.0881 N   0  0  0  0  0  0  0  0  0  0  0  0
  -25.6219  -23.6814   14.1533 N   0  3  0  0  0  0  0  0  0  0  0  0
  -28.0540  -19.2881   17.6834 O   0  0  0  0  0  0  0  0  0  0  0  0
  -30.5499  -11.7005   20.5828 O   0  0  0  0  0  0  0  0  0  0  0  0
  -31.2340  -28.9211   20.4157 O   0  0  0  0  0  0  0  0  0  0  0  0
  -22.9518  -26.1802   21.7997 O   0  0  0  0  0  0  0  0  0  0  0  0
  -21.4693  -24.5298   18.3111 O   0  0  0  0  0  0  0  0  0  0  0  0
  -25.8852  -23.4548   16.9454 O   0  0  0  0  0  0  0  0  0  0  0  0
  -30.0051  -21.2995   22.6162 O   0  0  0  0  0  0  0  0  0  0  0  0
  -22.7934  -11.7334   19.9322 O   0  0  0  0  0  0  0  0  0  0  0  0
  -28.6117  -28.3452   20.8186 O   0  0  0  0  0  0  0  0  0  1  0  0
  -18.6714  -12.2557   23.5571 F   0  0  0  0  0  0  0  0  0  0  0  0
  -21.5727   -9.5054   21.0225 F   0  0  0  0  0  0  0  0  0  0  0  0
  1  2  1  0  0  0  0
  1  5  2  0  0  0  0
  2  6  2  0  0  0  0
  3  8  2  0  0  0  0
  3 16  1  0  0  0  0
  4  9  1  0  0  0  0
  4 16  2  0  0  0  0
  5 19  1  0  0  0  0
  6 21  1  0  0  0  0
  7 10  2  0  0  0  0
  7 20  1  0  0  0  0
  8 24  1  0  0  0  0
  9 24  2  0  0  0  0
 10 25  1  0  0  0  0
 11 12  2  0  0  0  0
 11 26  1  0  0  0  0
 12 27  1  0  0  0  0
 13 22  1  0  0  0  0
 13 25  2  0  0  0  0
 14 23  2  0  0  0  0
 14 31  1  0  0  0  0
 15 27  2  0  0  0  0
 15 28  1  0  0  0  0
 16 29  1  0  0  0  0
 17 23  1  0  0  0  0
 17 32  2  0  0  0  0
 17 33  1  0  0  0  0
 18 29  1  0  0  0  0
 18 30  2  0  0  0  0
 18 34  1  0  0  0  0
 19 21  2  0  0  0  0
 19 41  1  0  0  0  0
 20 22  2  0  0  0  0
 20 42  1  0  0  0  0
 21 50  1  0  0  0  0
 22 43  1  0  0  0  0
 23 70  1  0  0  0  0
 24 85  1  0  0  0  0
 25 86  1  0  0  0  0
 26 28  2  0  0  0  0
 26 85  1  0  0  0  0
 27 87  1  0  0  0  0
 28 88  1  0  0  0  0
 29 64  2  0  0  0  0
 30 66  1  0  0  0  0
 30 71  1  0  0  0  0
 31 67  2  0  0  0  0
 31 74  1  0  0  0  0
 32 67  1  0  0  0  0
 32 73  1  0  0  0  0
 33 53  1  0  0  0  0
 33 78  2  0  0  0  0
 34 72  1  0  0  0  0
 34 79  2  0  0  0  0
 35 36  1  0  0  0  0
 35 59  1  0  0  0  0
 35 65  2  0  0  0  0
 36 60  1  0  0  0  0
 36 80  2  0  0  0  0
 37 51  1  0  0  0  0
 37 75  1  0  0  0  0
 37 81  2  0  0  0  0
 38 61  1  0  0  0  0
 38 68  1  0  0  0  0
 38 82  2  0  0  0  0
 39 62  1  0  0  0  0
 39 76  1  0  0  0  0
 39 83  2  0  0  0  0
 40 69  1  0  0  0  0
 40 73  1  0  0  0  0
 40 84  2  0  0  0  0
 41 44  1  0  0  0  0
 42 51  1  0  0  0  0
 43 68  1  0  0  0  0
 44 46  1  0  0  0  0
 45 47  1  0  0  0  0
 45 48  1  0  0  0  0
 46 50  1  0  0  0  0
 47 52  1  0  0  0  0
 48 69  1  0  0  0  0
 49 52  1  0  0  0  0
 49 69  1  0  0  0  0
 50 75  1  0  0  0  0
 51 68  1  0  0  0  0
 52 66  1  0  0  0  0
 54 62  1  0  0  0  0
 55 63  1  0  0  0  0
 56 63  1  0  0  0  0
 57 63  1  0  0  0  0
 58 77  1  0  0  0  0
 59 74  1  0  0  0  0
 60 86  1  0  0  0  0
 61 63  1  0  0  0  0
 61 76  1  0  0  0  0
 62 77  1  0  0  0  0
 64 66  1  0  0  0  0
M  CHG  2  67   1  77   1
M  ISO  4  40 100  60 101  73 100  86 101
M  END
> <Batch ID>
0168

> <Smiles>
CNC(C)C(=O)NC(C(=O)N1Cc2cc([101O:1][101CH2:1]C(=O)C(=N)CNc3cc(N)c(C(C)=O)c([100NH:0][100C:0](=O)N4CCCC(n5nc(-c6ccc(Oc7ccc(F)cc7F)cc6)c(C(N)=O)c5N)C4)n3)ccc2CC1C(=O)NC1CCCc2ccccc21)C(C)(C)C

> <Shape>
0.280

> <Color>
0.052

> <Negative vol penalty>
0.000

$$$$

  -OEChem-04052304143D

 88 96  0     1  0  0  0  0  0999 V2000
  -21.7457  -12.2641   19.7727 C   0  0  0  0  0  0  0  0  0  0  0  0
  -21.6799  -13.5992   20.1583 C   0  0  0  0  0  0  0  0  0  0  0  0
  -29.9290  -28.1409   18.8483 C   0  0  0  0  0  0  0  0  0  0  0  0
  -29.4379  -26.4745   20.5272 C   0  0  0  0  0  0  0  0  0  0  0  0
  -22.9496  -11.5685   19.8758 C   0  0  0  0  0  0  0  0  0  0  0  0
  -22.8178  -14.2391   20.6483 C   0  0  0  0  0  0  0  0  0  0  0  0
  -23.4568  -18.8548   18.6653 C   0  0  0  0  0  0  0  0  0  0  0  0
  -31.2787  -27.7928   18.8975 C   0  0  0  0  0  0  0  0  0  0  0  0
  -30.7877  -26.1262   20.5764 C   0  0  0  0  0  0  0  0  0  0  0  0
  -22.6668  -19.8829   19.1778 C   0  0  0  0  0  0  0  0  0  0  0  0
  -34.1569  -25.0448   21.4062 C   0  0  0  0  0  0  0  0  0  0  0  0
  -34.7366  -24.8722   22.6631 C   0  0  0  0  0  0  0  0  0  0  0  0
  -17.4080  -27.7505   22.6295 C   0  0  0  0  0  0  0  0  0  0  0  0
  -24.5167  -20.6167   20.5411 C   0  0  0  0  0  0  0  0  0  0  0  0
  -19.1532  -29.3492   23.1150 C   0  0  0  0  0  0  0  0  0  0  0  0
  -34.2041  -27.1614   23.2230 C   0  0  0  0  0  0  0  0  0  0  0  0
  -29.0085  -27.4818   19.6632 C   0  0  0  0  0  0  0  0  0  0  0  0
  -18.3406  -26.9220   22.0053 C   0  0  0  0  0  0  0  0  0  0  0  0
  -26.6237  -27.2912   18.7777 C   0  0  0  0  0  0  0  0  0  0  0  0
  -24.1052  -12.2029   20.3582 C   0  0  0  0  0  0  0  0  0  0  0  0
  -24.7815  -18.6930   19.0957 C   0  0  0  0  0  0  0  0  0  0  0  0
  -24.0380  -13.5509   20.7592 C   0  0  0  0  0  0  0  0  0  0  0  0
  -25.3222  -19.5873   20.0306 C   0  0  0  0  0  0  0  0  0  0  0  0
  -20.0857  -28.5207   22.4908 C   0  0  0  0  0  0  0  0  0  0  0  0
  -31.7081  -26.7854   19.7615 C   0  0  0  0  0  0  0  0  0  0  0  0
  -23.1958  -20.7623   20.1180 C   0  0  0  0  0  0  0  0  0  0  0  0
  -33.6009  -26.2757   21.0576 C   0  0  0  0  0  0  0  0  0  0  0  0
  -34.7601  -25.9305   23.5715 C   0  0  0  0  0  0  0  0  0  0  0  0
  -17.8143  -28.9641   23.1843 C   0  0  0  0  0  0  0  0  0  0  0  0
  -33.6245  -27.3340   21.9660 C   0  0  0  0  0  0  0  0  0  0  0  0
  -19.6794  -27.3071   21.9360 C   0  0  0  0  0  0  0  0  0  0  0  0
  -27.6141  -27.8414   19.6133 C   0  0  0  0  0  0  0  0  0  0  0  0
  -25.4763  -27.9670   19.1141 C   0  0  0  0  0  0  0  0  0  0  0  0
  -17.9071  -25.6377   21.4196 C   0  0  0  0  0  0  0  0  0  0  0  0
  -26.7313  -26.2612   17.7861 C   0  0  0  0  0  0  0  0  0  0  0  0
  -26.3875  -16.3981   20.5984 C   0  0  0  0  0  0  0  0  0  0  0  0
  -20.4212  -22.2897   21.8708 C   0  0  0  0  0  0  0  0  0  0  0  0
  -28.9303  -18.3191   19.9932 C   0  0  0  0  0  0  0  0  0  0  0  0
  -30.0992  -21.4578   19.3382 C   0  0  0  0  0  0  0  0  0  0  0  0
  -22.0110  -30.0872   22.9220 C   0  0  0  0  0  0  0  0  0  0  0  0
  -25.3722  -11.3965   20.4960 C   0  0  0  0  0  0  0  0  0  0  0  0
  -25.6289  -17.5952   18.5133 C   0  0  0  0  0  0  0  0  0  0  0  0
  -26.7450  -19.4691   20.5103 C   0  0  0  0  0  0  0  0  0  0  0  0
  -26.6232  -12.2532   20.6733 C   0  0  0  0  0  0  0  0  0  0  0  0
  -24.7994  -32.0881   21.9743 C   0  0  0  0  0  0  0  0  0  0  0  0
  -26.3813  -13.3423   21.7136 C   0  0  0  0  0  0  0  0  0  0  0  0
  -25.6988  -31.1164   21.2068 C   0  0  0  0  0  0  0  0  0  0  0  0
  -24.1037  -31.4074   23.1517 C   0  0  0  0  0  0  0  0  0  0  0  0
  -24.2654  -29.2117   22.0463 C   0  0  0  0  0  0  0  0  0  0  0  0
  -25.2567  -14.2867   21.2723 C   0  0  1  0  0  0  0  0  0  0  0  0
  -26.8051  -17.2110   19.4057 C   0  0  1  0  0  0  0  0  0  0  0  0
  -24.9374  -29.8357   20.8122 C   0  0  2  0  0  0  0  0  0  0  0  0
  -32.2284  -22.7214   18.9292 C   0  0  0  0  0  0  0  0  0  0  0  0
  -29.5714  -18.1991   22.9739 C   0  0  0  0  0  0  0  0  0  0  0  0
  -31.0710  -20.1792   22.6600 C   0  0  0  0  0  0  0  0  0  0  0  0
  -31.5642  -18.0424   21.4711 C   0  0  0  0  0  0  0  0  0  0  0  0
  -29.2246  -22.2860   16.6349 C   0  0  0  0  0  0  0  0  0  0  0  0
  -21.0220  -21.5286   20.7042 C   0  0  0  0  0  0  0  0  0  1  0  0
  -18.0929  -23.1755   21.3989 C   0  0  0  0  0  0  0  0  0  0  0  0
  -18.9270  -22.1122   22.0988 C   0  0  2  0  0  0  0  0  0  0  0  0
  -29.6079  -19.4562   20.7191 C   0  0  1  0  0  0  0  0  0  0  0  0
  -31.0688  -21.9732   18.2901 C   0  0  2  0  0  0  0  0  0  0  0  0
  -30.4262  -18.9705   21.9487 C   0  0  0  0  0  0  0  0  0  0  0  0
  -27.1377  -28.7936   20.4197 N   0  0  0  0  0  0  0  0  0  0  0  0
  -25.8353  -28.8470   20.0924 N   0  0  0  0  0  0  0  0  0  0  0  0
  -27.5315  -18.3756   19.9159 N   0  0  0  0  0  0  0  0  0  0  0  0
  -23.3997  -30.2046   22.7017 N   0  0  0  0  0  0  0  0  0  0  0  0
  -24.2055  -27.8886   18.6656 N   0  0  0  0  0  0  0  0  0  0  0  0
  -27.9843  -25.6726   17.5673 N   0  0  0  0  0  0  0  0  0  0  0  0
  -21.4450  -28.9150   22.4217 N   0  0  0  0  0  0  0  0  0  0  0  0
  -18.4535  -24.5061   21.8853 N   0  0  0  0  0  0  0  0  0  0  0  0
  -25.7413  -15.2196   20.2776 N   0  0  0  0  0  0  0  0  0  0  0  0
  -30.3973  -20.1664   19.7186 N   0  0  0  0  0  0  0  0  0  0  0  0
  -16.9918  -25.6661   20.4507 N   0  3  0  0  0  0  0  0  0  0  0  0
  -18.6174  -22.1319   23.5587 N   0  3  0  0  0  0  0  0  0  0  0  0
  -30.3732  -22.8981   17.3512 N   0  3  0  0  0  0  0  0  0  0  0  0
  -25.7488  -25.8856   17.1025 O   0  0  0  0  0  0  0  0  0  0  0  0
  -26.6346  -16.8090   21.7261 O   0  0  0  0  0  0  0  0  0  0  0  0
  -21.1115  -23.0067   22.5957 O   0  0  0  0  0  0  0  0  0  0  0  0
  -29.6174  -17.4177   19.5063 O   0  0  0  0  0  0  0  0  0  0  0  0
  -29.1725  -22.1345   19.7785 O   0  0  0  0  0  0  0  0  0  0  0  0
  -21.3663  -30.9743   23.4870 O   0  0  0  0  0  0  0  0  0  0  0  0
  -33.0251  -26.4453   19.8096 O   0  0  0  0  0  0  0  0  0  0  0  0
  -22.4266  -21.7663   20.6203 O   0  0  0  0  0  0  0  0  0  1  0  0
  -35.3154  -25.7641   24.7790 F   0  0  0  0  0  0  0  0  0  0  0  0
  -16.9189  -29.7594   23.7838 F   0  0  0  0  0  0  0  0  0  0  0  0
  -33.0908  -28.5184   21.6373 F   0  0  0  0  0  0  0  0  0  0  0  0
  -20.5752  -26.5095   21.3350 F   0  0  0  0  0  0  0  0  0  0  0  0
  1  2  1  0  0  0  0
  1  5  2  0  0  0  0
  2  6  2  0  0  0  0
  3  8  2  0  0  0  0
  3 17  1  0  0  0  0
  4  9  1  0  0  0  0
  4 17  2  0  0  0  0
  5 20  1  0  0  0  0
  6 22  1  0  0  0  0
  7 10  2  0  0  0  0
  7 21  1  0  0  0  0
  8 25  1  0  0  0  0
  9 25  2  0  0  0  0
 10 26  1  0  0  0  0
 11 12  2  0  0  0  0
 11 27  1  0  0  0  0
 12 28  1  0  0  0  0
 13 18  1  0  0  0  0
 13 29  2  0  0  0  0
 14 23  1  0  0  0  0
 14 26  2  0  0  0  0
 15 24  2  0  0  0  0
 15 29  1  0  0  0  0
 16 28  2  0  0  0  0
 16 30  1  0  0  0  0
 17 32  1  0  0  0  0
 18 31  2  0  0  0  0
 18 34  1  0  0  0  0
 19 32  1  0  0  0  0
 19 33  2  0  0  0  0
 19 35  1  0  0  0  0
 20 22  2  0  0  0  0
 20 41  1  0  0  0  0
 21 23  2  0  0  0  0
 21 42  1  0  0  0  0
 22 50  1  0  0  0  0
 23 43  1  0  0  0  0
 24 31  1  0  0  0  0
 24 70  1  0  0  0  0
 25 83  1  0  0  0  0
 26 84  1  0  0  0  0
 27 30  2  0  0  0  0
 27 83  1  0  0  0  0
 28 85  1  0  0  0  0
 29 86  1  0  0  0  0
 30 87  1  0  0  0  0
 31 88  1  0  0  0  0
 32 64  2  0  0  0  0
 33 65  1  0  0  0  0
 33 68  1  0  0  0  0
 34 71  1  0  0  0  0
 34 74  2  0  0  0  0
 35 69  1  0  0  0  0
 35 77  2  0  0  0  0
 36 51  1  0  0  0  0
 36 72  1  0  0  0  0
 36 78  2  0  0  0  0
 37 58  1  0  0  0  0
 37 60  1  0  0  0  0
 37 79  2  0  0  0  0
 38 61  1  0  0  0  0
 38 66  1  0  0  0  0
 38 80  2  0  0  0  0
 39 62  1  0  0  0  0
 39 73  1  0  0  0  0
 39 81  2  0  0  0  0
 40 67  1  0  0  0  0
 40 70  1  0  0  0  0
 40 82  2  0  0  0  0
 41 44  1  0  0  0  0
 42 51  1  0  0  0  0
 43 66  1  0  0  0  0
 44 46  1  0  0  0  0
 45 47  1  0  0  0  0
 45 48  1  0  0  0  0
 46 50  1  0  0  0  0
 47 52  1  0  0  0  0
 48 67  1  0  0  0  0
 49 52  1  0  0  0  0
 49 67  1  0  0  0  0
 50 72  1  0  0  0  0
 51 66  1  0  0  0  0
 52 65  1  0  0  0  0
 53 62  1  0  0  0  0
 54 63  1  0  0  0  0
 55 63  1  0  0  0  0
 56 63  1  0  0  0  0
 57 76  1  0  0  0  0
 58 84  1  0  0  0  0
 59 60  1  0  0  0  0
 59 71  1  0  0  0  0
 60 75  1  0  0  0  0
 61 63  1  0  0  0  0
 61 73  1  0  0  0  0
 62 76  1  0  0  0  0
 64 65  1  0  0  0  0
M  CHG  3  74   1  75   1  76   1
M  ISO  4  40 100  58 101  70 100  84 101
M  END
> <Batch ID>
0168

> <Smiles>
CNC(C)C(=O)NC(C(=O)N1Cc2cc([101O:1][101CH2:1]C(=O)C(N)CNC(=N)c3cc(F)cc([100NH:0][100C:0](=O)N4CCCC(n5nc(-c6ccc(Oc7ccc(F)cc7F)cc6)c(C(N)=O)c5N)C4)c3F)ccc2CC1C(=O)NC1CCCc2ccccc21)C(C)(C)C

> <Shape>
0.280

> <Color>
0.086

> <Negative vol penalty>
0.000

$$$$

  -OEChem-04052304143D

 83 91  0     1  0  0  0  0  0999 V2000
  -26.3629  -37.7745   21.5995 C   0  0  0  0  0  0  0  0  0  0  0  0
  -27.0674  -36.6243   21.2587 C   0  0  0  0  0  0  0  0  0  0  0  0
  -24.1837  -10.3586   23.0977 C   0  0  0  0  0  0  0  0  0  0  0  0
  -23.4953  -12.6663   23.2913 C   0  0  0  0  0  0  0  0  0  0  0  0
  -25.3165  -37.7032   22.5180 C   0  0  0  0  0  0  0  0  0  0  0  0
  -26.7264  -35.4022   21.8371 C   0  0  0  0  0  0  0  0  0  0  0  0
  -26.9671  -29.8832   19.1935 C   0  0  0  0  0  0  0  0  0  0  0  0
  -23.5815  -10.0760   24.3237 C   0  0  0  0  0  0  0  0  0  0  0  0
  -22.8930  -12.3838   24.5173 C   0  0  0  0  0  0  0  0  0  0  0  0
  -27.9122  -28.8595   19.2437 C   0  0  0  0  0  0  0  0  0  0  0  0
  -20.4595   -9.5155   25.4949 C   0  0  0  0  0  0  0  0  0  0  0  0
  -19.6793   -8.3626   25.5835 C   0  0  0  0  0  0  0  0  0  0  0  0
  -26.6338  -27.7726   20.9768 C   0  0  0  0  0  0  0  0  0  0  0  0
  -30.4388  -18.5531   19.5126 C   0  0  0  0  0  0  0  0  0  0  0  0
  -21.1302   -7.5142   27.3191 C   0  0  0  0  0  0  0  0  0  0  0  0
  -28.1916  -18.8381   20.2376 C   0  0  0  0  0  0  0  0  0  0  0  0
  -24.1407  -11.6538   22.5815 C   0  0  0  0  0  0  0  0  0  0  0  0
  -24.1703  -11.8767   20.0405 C   0  0  0  0  0  0  0  0  0  0  0  0
  -24.9562  -36.4779   23.1008 C   0  0  0  0  0  0  0  0  0  0  0  0
  -25.8520  -29.8648   20.0435 C   0  0  0  0  0  0  0  0  0  0  0  0
  -25.6750  -35.3146   22.7654 C   0  0  0  0  0  0  0  0  0  0  0  0
  -25.6747  -28.7959   20.9335 C   0  0  0  0  0  0  0  0  0  0  0  0
  -30.5448  -19.9347   19.3973 C   0  0  0  0  0  0  0  0  0  0  0  0
  -29.2432  -17.9864   19.9401 C   0  0  0  0  0  0  0  0  0  0  0  0
  -22.9361  -11.0886   25.0335 C   0  0  0  0  0  0  0  0  0  0  0  0
  -27.7472  -27.8054   20.1375 C   0  0  0  0  0  0  0  0  0  0  0  0
  -21.5750   -9.6677   26.3183 C   0  0  0  0  0  0  0  0  0  0  0  0
  -20.0147   -7.3620   26.4956 C   0  0  0  0  0  0  0  0  0  0  0  0
  -21.9104   -8.6671   27.2305 C   0  0  0  0  0  0  0  0  0  0  0  0
  -24.7631  -11.9464   21.3154 C   0  0  0  0  0  0  0  0  0  0  0  0
  -29.4349  -20.6992   19.7190 C   0  0  0  0  0  0  0  0  0  0  0  0
  -25.1706  -12.2486   19.1759 C   0  0  0  0  0  0  0  0  0  0  0  0
  -22.8347  -11.5089   19.6707 C   0  0  0  0  0  0  0  0  0  0  0  0
  -24.7577  -31.7596   22.3492 C   0  0  0  0  0  0  0  0  0  0  0  0
  -29.0511  -24.4260   19.9326 C   0  0  0  0  0  0  0  0  0  0  0  0
  -22.2164  -29.7454   22.2630 C   0  0  0  0  0  0  0  0  0  0  0  0
  -20.9934  -26.6558   21.4847 C   0  0  0  0  0  0  0  0  0  0  0  0
  -30.0702  -15.6105   19.8058 C   0  0  0  0  0  0  0  0  0  0  0  0
  -23.8486  -36.4586   24.1242 C   0  0  0  0  0  0  0  0  0  0  0  0
  -24.8277  -30.9630   19.9583 C   0  0  0  0  0  0  0  0  0  0  0  0
  -24.4844  -28.7189   21.8532 C   0  0  0  0  0  0  0  0  0  0  0  0
  -23.3069  -35.0601   24.4092 C   0  0  0  0  0  0  0  0  0  0  0  0
  -29.9388  -12.2187   18.7310 C   0  0  0  0  0  0  0  0  0  0  0  0
  -24.4534  -34.0750   24.6138 C   0  0  0  0  0  0  0  0  0  0  0  0
  -28.5404  -11.7594   19.1503 C   0  0  0  0  0  0  0  0  0  0  0  0
  -30.5525  -13.1734   19.7535 C   0  0  0  0  0  0  0  0  0  0  0  0
  -28.3182  -13.8694   20.5234 C   0  0  0  0  0  0  0  0  0  0  0  0
  -25.3190  -33.9661   23.3527 C   0  0  1  0  0  0  0  0  0  0  0  0
  -23.9975  -31.1057   21.2301 C   0  0  1  0  0  0  0  0  0  0  0  0
  -27.6330  -12.9572   19.4929 C   0  0  2  0  0  0  0  0  0  0  0  0
  -31.8280  -20.5389   18.9382 C   0  0  0  0  0  0  0  0  0  0  0  0
  -18.8871  -25.2940   21.5628 C   0  0  0  0  0  0  0  0  0  0  0  0
  -22.5834  -29.3547   25.2668 C   0  0  0  0  0  0  0  0  0  0  0  0
  -21.1244  -27.3260   25.1106 C   0  0  0  0  0  0  0  0  0  0  0  0
  -20.2045  -29.5697   24.5257 C   0  0  0  0  0  0  0  0  0  0  0  0
  -20.9595  -26.3266   18.5437 C   0  0  0  0  0  0  0  0  0  0  0  0
  -28.6570  -23.0043   20.2728 C   0  0  0  0  0  0  0  0  0  0  0  0
  -28.2013  -25.5106   20.5657 C   0  0  0  0  0  0  0  0  0  1  0  0
  -21.8488  -28.4577   22.9599 C   0  0  1  0  0  0  0  0  0  0  0  0
  -19.7502  -26.2262   20.7269 C   0  0  2  0  0  0  0  0  0  0  0  0
  -21.4638  -28.6792   24.4499 C   0  0  0  0  0  0  0  0  0  0  0  0
  -28.2569  -20.1847   20.1377 N   0  0  0  0  0  0  0  0  0  0  0  0
  -26.0411  -12.3320   21.2695 N   0  0  0  0  0  0  0  0  0  0  0  0
  -26.2595  -12.5079   19.9551 N   0  0  0  0  0  0  0  0  0  0  0  0
  -23.5139  -29.8198   21.7367 N   0  0  0  0  0  0  0  0  0  0  0  0
  -29.6388  -14.2852   20.0254 N   0  0  0  0  0  0  0  0  0  0  0  0
  -25.2163  -12.3756   17.8327 N   0  0  0  0  0  0  0  0  0  0  0  0
  -21.9344  -11.1544   20.6847 N   0  0  0  0  0  0  0  0  0  0  0  0
  -29.1046  -16.5820   20.0677 N   0  0  0  0  0  0  0  0  0  0  0  0
  -29.5357  -22.0783   19.6052 N   0  0  0  0  0  0  0  0  0  0  0  0
  -24.6659  -33.1383   22.3614 N   0  0  0  0  0  0  0  0  0  0  0  0
  -20.7973  -27.8442   22.1559 N   0  0  0  0  0  0  0  0  0  0  0  0
  -20.1278  -25.5175   19.4715 N   0  3  0  0  0  0  0  0  0  0  0  0
  -22.4559  -11.4790   18.4753 O   0  0  0  0  0  0  0  0  0  0  0  0
  -25.3801  -31.0646   23.1437 O   0  0  0  0  0  0  0  0  0  0  0  0
  -29.9963  -24.6954   19.1924 O   0  0  0  0  0  0  0  0  0  0  0  0
  -21.3808  -30.6491   22.1821 O   0  0  0  0  0  0  0  0  0  0  0  0
  -22.0333  -26.0007   21.4845 O   0  0  0  0  0  0  0  0  0  0  0  0
  -31.2031  -15.8635   19.3883 O   0  0  0  0  0  0  0  0  0  0  0  0
  -22.3481  -10.8132   26.2297 O   0  0  0  0  0  0  0  0  0  0  0  0
  -28.6685  -26.8053   20.1891 O   0  0  0  0  0  0  0  0  0  1  0  0
  -19.2645   -6.2556   26.5816 F   0  0  0  0  0  0  0  0  0  0  0  0
  -22.9802   -8.8082   28.0250 F   0  0  0  0  0  0  0  0  0  0  0  0
  1  2  1  0  0  0  0
  1  5  2  0  0  0  0
  2  6  2  0  0  0  0
  3  8  2  0  0  0  0
  3 17  1  0  0  0  0
  4  9  1  0  0  0  0
  4 17  2  0  0  0  0
  5 19  1  0  0  0  0
  6 21  1  0  0  0  0
  7 10  2  0  0  0  0
  7 20  1  0  0  0  0
  8 25  1  0  0  0  0
  9 25  2  0  0  0  0
 10 26  1  0  0  0  0
 11 12  2  0  0  0  0
 11 27  1  0  0  0  0
 12 28  1  0  0  0  0
 13 22  1  0  0  0  0
 13 26  2  0  0  0  0
 14 23  1  0  0  0  0
 14 24  2  0  0  0  0
 15 28  2  0  0  0  0
 15 29  1  0  0  0  0
 16 24  1  0  0  0  0
 16 62  2  0  0  0  0
 17 30  1  0  0  0  0
 18 30  1  0  0  0  0
 18 32  2  0  0  0  0
 18 33  1  0  0  0  0
 19 21  2  0  0  0  0
 19 39  1  0  0  0  0
 20 22  2  0  0  0  0
 20 40  1  0  0  0  0
 21 48  1  0  0  0  0
 22 41  1  0  0  0  0
 23 31  2  0  0  0  0
 23 51  1  0  0  0  0
 24 69  1  0  0  0  0
 25 80  1  0  0  0  0
 26 81  1  0  0  0  0
 27 29  2  0  0  0  0
 27 80  1  0  0  0  0
 28 82  1  0  0  0  0
 29 83  1  0  0  0  0
 30 63  2  0  0  0  0
 31 62  1  0  0  0  0
 31 70  1  0  0  0  0
 32 64  1  0  0  0  0
 32 67  1  0  0  0  0
 33 68  1  0  0  0  0
 33 74  2  0  0  0  0
 34 49  1  0  0  0  0
 34 71  1  0  0  0  0
 34 75  2  0  0  0  0
 35 57  1  0  0  0  0
 35 58  1  0  0  0  0
 35 76  2  0  0  0  0
 36 59  1  0  0  0  0
 36 65  1  0  0  0  0
 36 77  2  0  0  0  0
 37 60  1  0  0  0  0
 37 72  1  0  0  0  0
 37 78  2  0  0  0  0
 38 66  1  0  0  0  0
 38 69  1  0  0  0  0
 38 79  2  0  0  0  0
 39 42  1  0  0  0  0
 40 49  1  0  0  0  0
 41 65  1  0  0  0  0
 42 44  1  0  0  0  0
 43 45  1  0  0  0  0
 43 46  1  0  0  0  0
 44 48  1  0  0  0  0
 45 50  1  0  0  0  0
 46 66  1  0  0  0  0
 47 50  1  0  0  0  0
 47 66  1  0  0  0  0
 48 71  1  0  0  0  0
 49 65  1  0  0  0  0
 50 64  1  0  0  0  0
 52 60  1  0  0  0  0
 53 61  1  0  0  0  0
 54 61  1  0  0  0  0
 55 61  1  0  0  0  0
 56 73  1  0  0  0  0
 57 70  1  0  0  0  0
 58 81  1  0  0  0  0
 59 61  1  0  0  0  0
 59 72  1  0  0  0  0
 60 73  1  0  0  0  0
 63 64  1  0  0  0  0
M  CHG  1  73   1
M  ISO  4  38 100  58 101  69 100  81 101
M  END
> <Batch ID>
0168

> <Smiles>
CNC(C)C(=O)NC(C(=O)N1Cc2cc([101O:1][101CH2:1]C(=O)CNc3ncc([100NH:0][100C:0](=O)N4CCCC(n5nc(-c6ccc(Oc7ccc(F)cc7F)cc6)c(C(N)=O)c5N)C4)cc3C)ccc2CC1C(=O)NC1CCCc2ccccc21)C(C)(C)C

> <Shape>
0.316

> <Color>
0.099

> <Negative vol penalty>
0.000

$$$$

  -OEChem-04052304143D

 87 95  0     1  0  0  0  0  0999 V2000
  -27.1294  -34.1726   25.8290 C   0  0  0  0  0  0  0  0  0  0  0  0
  -27.4729  -32.9815   25.1975 C   0  0  0  0  0  0  0  0  0  0  0  0
  -30.0173  -10.6273   16.6645 C   0  0  0  0  0  0  0  0  0  0  0  0
  -30.8644  -12.8896   16.7064 C   0  0  0  0  0  0  0  0  0  0  0  0
  -25.8099  -34.3984   26.2186 C   0  0  0  0  0  0  0  0  0  0  0  0
  -26.4972  -32.0150   24.9562 C   0  0  0  0  0  0  0  0  0  0  0  0
  -26.7927  -30.0801   20.2857 C   0  0  0  0  0  0  0  0  0  0  0  0
  -30.5781  -10.4408   15.4010 C   0  0  0  0  0  0  0  0  0  0  0  0
  -31.4252  -12.7030   15.4430 C   0  0  0  0  0  0  0  0  0  0  0  0
  -27.7836  -29.1274   20.0527 C   0  0  0  0  0  0  0  0  0  0  0  0
  -29.8402  -11.2533   12.2042 C   0  0  0  0  0  0  0  0  0  0  0  0
  -29.0548  -10.6331   11.2325 C   0  0  0  0  0  0  0  0  0  0  0  0
  -24.2027  -18.7476   20.0352 C   0  0  0  0  0  0  0  0  0  0  0  0
  -25.2102  -20.8994   19.5973 C   0  0  0  0  0  0  0  0  0  0  0  0
  -26.1420  -27.3740   20.2758 C   0  0  0  0  0  0  0  0  0  0  0  0
  -30.6916   -8.8669   11.0368 C   0  0  0  0  0  0  0  0  0  0  0  0
  -30.1604  -11.8518   17.3172 C   0  0  0  0  0  0  0  0  0  0  0  0
  -24.0727  -20.1059   19.7459 C   0  0  0  0  0  0  0  0  0  0  0  0
  -30.1878  -11.7951   19.8674 C   0  0  0  0  0  0  0  0  0  0  0  0
  -24.8156  -33.4383   25.9732 C   0  0  0  0  0  0  0  0  0  0  0  0
  -25.4688  -29.6856   20.5267 C   0  0  0  0  0  0  0  0  0  0  0  0
  -25.1633  -32.2276   25.3440 C   0  0  0  0  0  0  0  0  0  0  0  0
  -25.1356  -28.3237   20.5090 C   0  0  0  0  0  0  0  0  0  0  0  0
  -25.4703  -18.1828   20.1761 C   0  0  0  0  0  0  0  0  0  0  0  0
  -26.4778  -20.3345   19.7381 C   0  0  0  0  0  0  0  0  0  0  0  0
  -31.2820  -11.4786   14.7903 C   0  0  0  0  0  0  0  0  0  0  0  0
  -27.4589  -27.7740   20.0506 C   0  0  0  0  0  0  0  0  0  0  0  0
  -31.0514  -10.6803   12.5921 C   0  0  0  0  0  0  0  0  0  0  0  0
  -29.4805   -9.4399   10.6488 C   0  0  0  0  0  0  0  0  0  0  0  0
  -31.4770   -9.4871   12.0085 C   0  0  0  0  0  0  0  0  0  0  0  0
  -26.6078  -18.9762   20.0274 C   0  0  0  0  0  0  0  0  0  0  0  0
  -29.5808  -12.0453   18.6221 C   0  0  0  0  0  0  0  0  0  0  0  0
  -29.2304  -12.1374   20.7909 C   0  0  0  0  0  0  0  0  0  0  0  0
  -22.7510  -20.6950   19.5987 C   0  0  0  0  0  0  0  0  0  0  0  0
  -31.4997  -11.2980   20.1630 C   0  0  0  0  0  0  0  0  0  0  0  0
  -28.9934  -23.0909   19.4844 C   0  0  0  0  0  0  0  0  0  0  0  0
  -29.2102  -24.5899   19.5543 C   0  0  0  0  0  0  0  0  0  0  0  0
  -23.4462  -29.9867   22.9603 C   0  0  0  0  0  0  0  0  0  0  0  0
  -21.3439  -28.6726   20.8684 C   0  0  0  0  0  0  0  0  0  0  0  0
  -20.8354  -26.7576   18.0897 C   0  0  0  0  0  0  0  0  0  0  0  0
  -24.5720  -15.8768   20.6471 C   0  0  0  0  0  0  0  0  0  0  0  0
  -23.4120  -33.7073   26.4550 C   0  0  0  0  0  0  0  0  0  0  0  0
  -24.4064  -30.7268   20.7498 C   0  0  0  0  0  0  0  0  0  0  0  0
  -23.7253  -27.8492   20.7422 C   0  0  0  0  0  0  0  0  0  0  0  0
  -22.3659  -32.7905   25.8262 C   0  0  0  0  0  0  0  0  0  0  0  0
  -24.4799  -12.3863   21.3435 C   0  0  0  0  0  0  0  0  0  0  0  0
  -22.8400  -31.3409   25.8552 C   0  0  0  0  0  0  0  0  0  0  0  0
  -25.8353  -11.8810   20.8435 C   0  0  0  0  0  0  0  0  0  0  0  0
  -23.9190  -13.4877   20.4457 C   0  0  0  0  0  0  0  0  0  0  0  0
  -26.1842  -14.1091   19.7030 C   0  0  0  0  0  0  0  0  0  0  0  0
  -24.1285  -31.1654   25.0425 C   0  0  1  0  0  0  0  0  0  0  0  0
  -23.1884  -30.1879   21.4937 C   0  0  1  0  0  0  0  0  0  0  0  0
  -26.8197  -13.0441   20.6116 C   0  0  2  0  0  0  0  0  0  0  0  0
  -19.0056  -25.8298   16.6446 C   0  0  0  0  0  0  0  0  0  0  0  0
  -20.7316  -26.5729   22.9959 C   0  0  0  0  0  0  0  0  0  0  0  0
  -19.6661  -25.1766   21.2118 C   0  0  0  0  0  0  0  0  0  0  0  0
  -18.7291  -27.4221   21.7617 C   0  0  0  0  0  0  0  0  0  0  0  0
  -21.8252  -28.2056   15.7059 C   0  0  0  0  0  0  0  0  0  0  0  0
  -27.5993  -22.5632   19.7050 C   0  0  0  0  0  0  0  0  0  0  0  0
  -28.0213  -25.4733   19.8361 C   0  0  0  0  0  0  0  0  0  1  0  0
  -20.9238  -27.2660   20.5163 C   0  0  1  0  0  0  0  0  0  0  0  0
  -19.9783  -26.9794   16.8566 C   0  0  2  0  0  0  0  0  0  0  0  0
  -20.0397  -26.6179   21.6189 C   0  0  0  0  0  0  0  0  0  0  0  0
  -28.3343  -12.5104   18.7401 N   0  0  0  0  0  0  0  0  0  0  0  0
  -28.1502  -12.5551   20.0706 N   0  0  0  0  0  0  0  0  0  0  0  0
  -22.7233  -28.9052   20.9620 N   0  0  0  0  0  0  0  0  0  0  0  0
  -24.9047  -14.5572   20.2746 N   0  0  0  0  0  0  0  0  0  0  0  0
  -29.2156  -12.1186   22.1406 N   0  0  0  0  0  0  0  0  0  0  0  0
  -32.3561  -10.9963   19.0954 N   0  0  0  0  0  0  0  0  0  0  0  0
  -25.5996  -16.8025   20.4694 N   0  0  0  0  0  0  0  0  0  0  0  0
  -27.6069  -21.1256   19.5898 N   0  0  0  0  0  0  0  0  0  0  0  0
  -23.8324  -31.1342   23.6263 N   0  0  0  0  0  0  0  0  0  0  0  0
  -20.2837  -27.3466   19.2078 N   0  0  0  0  0  0  0  0  0  0  0  0
  -20.8364  -27.0986   15.6440 N   0  3  0  0  0  0  0  0  0  0  0  0
  -22.5701  -21.8888   19.3437 O   0  0  0  0  0  0  0  0  0  0  0  0
  -31.8948  -11.1108   21.3387 O   0  0  0  0  0  0  0  0  0  0  0  0
  -29.9751  -22.3967   19.2518 O   0  0  0  0  0  0  0  0  0  0  0  0
  -30.3481  -25.0042   19.3743 O   0  0  0  0  0  0  0  0  0  0  0  0
  -23.3036  -28.8731   23.4516 O   0  0  0  0  0  0  0  0  0  0  0  0
  -20.4800  -29.5350   21.0466 O   0  0  0  0  0  0  0  0  0  0  0  0
  -21.8870  -26.1221   18.0645 O   0  0  0  0  0  0  0  0  0  0  0  0
  -23.4667  -16.1595   21.1166 O   0  0  0  0  0  0  0  0  0  0  0  0
  -31.8296  -11.2968   13.5575 O   0  0  0  0  0  0  0  0  0  0  0  0
  -28.4243  -26.8421   19.8241 O   0  0  0  0  0  0  0  0  0  1  0  0
  -28.7254   -8.8437    9.7169 F   0  0  0  0  0  0  0  0  0  0  0  0
  -32.6391   -8.9312   12.3779 F   0  0  0  0  0  0  0  0  0  0  0  0
  -27.8276  -18.4336   20.1630 F   0  0  0  0  0  0  0  0  0  0  0  0
  1  2  1  0  0  0  0
  1  5  2  0  0  0  0
  2  6  2  0  0  0  0
  3  8  2  0  0  0  0
  3 17  1  0  0  0  0
  4  9  1  0  0  0  0
  4 17  2  0  0  0  0
  5 20  1  0  0  0  0
  6 22  1  0  0  0  0
  7 10  2  0  0  0  0
  7 21  1  0  0  0  0
  8 26  1  0  0  0  0
  9 26  2  0  0  0  0
 10 27  1  0  0  0  0
 11 12  2  0  0  0  0
 11 28  1  0  0  0  0
 12 29  1  0  0  0  0
 13 18  1  0  0  0  0
 13 24  2  0  0  0  0
 14 18  2  0  0  0  0
 14 25  1  0  0  0  0
 15 23  1  0  0  0  0
 15 27  2  0  0  0  0
 16 29  2  0  0  0  0
 16 30  1  0  0  0  0
 17 32  1  0  0  0  0
 18 34  1  0  0  0  0
 19 32  1  0  0  0  0
 19 33  2  0  0  0  0
 19 35  1  0  0  0  0
 20 22  2  0  0  0  0
 20 42  1  0  0  0  0
 21 23  2  0  0  0  0
 21 43  1  0  0  0  0
 22 51  1  0  0  0  0
 23 44  1  0  0  0  0
 24 31  1  0  0  0  0
 24 70  1  0  0  0  0
 25 31  2  0  0  0  0
 25 71  1  0  0  0  0
 26 83  1  0  0  0  0
 27 84  1  0  0  0  0
 28 30  2  0  0  0  0
 28 83  1  0  0  0  0
 29 85  1  0  0  0  0
 30 86  1  0  0  0  0
 31 87  1  0  0  0  0
 32 64  2  0  0  0  0
 33 65  1  0  0  0  0
 33 68  1  0  0  0  0
 34 75  2  0  0  0  0
 35 69  1  0  0  0  0
 35 76  2  0  0  0  0
 36 37  1  0  0  0  0
 36 59  1  0  0  0  0
 36 77  2  0  0  0  0
 37 60  1  0  0  0  0
 37 78  2  0  0  0  0
 38 52  1  0  0  0  0
 38 72  1  0  0  0  0
 38 79  2  0  0  0  0
 39 61  1  0  0  0  0
 39 66  1  0  0  0  0
 39 80  2  0  0  0  0
 40 62  1  0  0  0  0
 40 73  1  0  0  0  0
 40 81  2  0  0  0  0
 41 67  1  0  0  0  0
 41 70  1  0  0  0  0
 41 82  2  0  0  0  0
 42 45  1  0  0  0  0
 43 52  1  0  0  0  0
 44 66  1  0  0  0  0
 45 47  1  0  0  0  0
 46 48  1  0  0  0  0
 46 49  1  0  0  0  0
 47 51  1  0  0  0  0
 48 53  1  0  0  0  0
 49 67  1  0  0  0  0
 50 53  1  0  0  0  0
 50 67  1  0  0  0  0
 51 72  1  0  0  0  0
 52 66  1  0  0  0  0
 53 65  1  0  0  0  0
 54 62  1  0  0  0  0
 55 63  1  0  0  0  0
 56 63  1  0  0  0  0
 57 63  1  0  0  0  0
 58 74  1  0  0  0  0
 59 71  1  0  0  0  0
 60 84  1  0  0  0  0
 61 63  1  0  0  0  0
 61 73  1  0  0  0  0
 62 74  1  0  0  0  0
 64 65  1  0  0  0  0
M  CHG  1  74   1
M  ISO  4  41 100  60 101  70 100  84 101
M  END
> <Batch ID>
0168

> <Smiles>
CNC(C)C(=O)NC(C(=O)N1Cc2cc([101O:1][101CH2:1]C(=O)C(=O)CNc3cc(C=O)cc([100NH:0][100C:0](=O)N4CCCC(n5nc(-c6ccc(Oc7ccc(F)cc7F)cc6)c(C(N)=O)c5N)C4)c3F)ccc2CC1C(=O)NC1CCCc2ccccc21)C(C)(C)C

> <Shape>
0.273

> <Color>
0.102

> <Negative vol penalty>
0.000

$$$$

  -OEChem-04052304143D

 89 97  0     1  0  0  0  0  0999 V2000
  -25.9501  -35.4056   21.9624 C   0  0  0  0  0  0  0  0  0  0  0  0
  -26.5089  -34.1317   21.9471 C   0  0  0  0  0  0  0  0  0  0  0  0
  -23.4387  -10.1547   22.3351 C   0  0  0  0  0  0  0  0  0  0  0  0
  -23.8555   -9.7217   19.9950 C   0  0  0  0  0  0  0  0  0  0  0  0
  -24.6580  -35.5929   22.4516 C   0  0  0  0  0  0  0  0  0  0  0  0
  -25.7763  -33.0444   22.4220 C   0  0  0  0  0  0  0  0  0  0  0  0
  -26.0856  -29.0127   19.3732 C   0  0  0  0  0  0  0  0  0  0  0  0
  -22.5919   -9.0477   22.3892 C   0  0  0  0  0  0  0  0  0  0  0  0
  -23.0086   -8.6146   20.0491 C   0  0  0  0  0  0  0  0  0  0  0  0
  -27.2501  -28.2494   19.4432 C   0  0  0  0  0  0  0  0  0  0  0  0
  -22.8961   -5.6869   22.6026 C   0  0  0  0  0  0  0  0  0  0  0  0
  -23.0308   -4.8201   23.6871 C   0  0  0  0  0  0  0  0  0  0  0  0
  -26.1078  -26.6454   20.8365 C   0  0  0  0  0  0  0  0  0  0  0  0
  -29.4595  -19.9251   18.6815 C   0  0  0  0  0  0  0  0  0  0  0  0
  -31.1386  -19.7842   20.4130 C   0  0  0  0  0  0  0  0  0  0  0  0
  -20.7395   -5.2542   24.3186 C   0  0  0  0  0  0  0  0  0  0  0  0
  -24.0705  -10.4918   21.1380 C   0  0  0  0  0  0  0  0  0  0  0  0
  -26.3314  -11.6584   21.3239 C   0  0  0  0  0  0  0  0  0  0  0  0
  -23.9056  -34.5059   22.9238 C   0  0  0  0  0  0  0  0  0  0  0  0
  -24.9246  -28.6030   20.0445 C   0  0  0  0  0  0  0  0  0  0  0  0
  -24.4734  -33.2176   22.9192 C   0  0  0  0  0  0  0  0  0  0  0  0
  -24.9291  -27.4040   20.7714 C   0  0  0  0  0  0  0  0  0  0  0  0
  -29.5880  -18.5564   18.4455 C   0  0  0  0  0  0  0  0  0  0  0  0
  -30.4918  -17.8015   19.1933 C   0  0  0  0  0  0  0  0  0  0  0  0
  -30.2348  -20.5390   19.6652 C   0  0  0  0  0  0  0  0  0  0  0  0
  -31.2671  -18.4155   20.1770 C   0  0  0  0  0  0  0  0  0  0  0  0
  -22.3769   -8.2776   21.2462 C   0  0  0  0  0  0  0  0  0  0  0  0
  -27.2622  -27.0670   20.1773 C   0  0  0  0  0  0  0  0  0  0  0  0
  -21.6832   -6.3375   22.3762 C   0  0  0  0  0  0  0  0  0  0  0  0
  -21.9525   -4.6037   24.5451 C   0  0  0  0  0  0  0  0  0  0  0  0
  -20.6049   -6.1211   23.2342 C   0  0  0  0  0  0  0  0  0  0  0  0
  -24.9449  -11.6356   21.0814 C   0  0  0  0  0  0  0  0  0  0  0  0
  -26.6899  -12.9721   21.1438 C   0  0  0  0  0  0  0  0  0  0  0  0
  -28.3537  -25.0366   19.7810 C   0  0  0  0  0  0  0  0  0  1  0  0
  -27.2163  -10.5880   21.6800 C   0  0  0  0  0  0  0  0  0  0  0  0
  -29.4096  -24.2143   19.8013 C   0  0  0  0  0  0  0  0  0  0  0  0
  -29.2584  -22.8228   19.2636 C   0  0  0  0  0  0  0  0  0  0  0  0
  -23.1287  -29.8204   22.3675 C   0  0  0  0  0  0  0  0  0  0  0  0
  -21.2164  -27.2911   21.6835 C   0  0  0  0  0  0  0  0  0  0  0  0
  -20.9234  -24.1474   20.3882 C   0  0  0  0  0  0  0  0  0  0  0  0
  -26.4274  -17.7351   18.2473 C   0  0  0  0  0  0  0  0  0  0  0  0
  -22.5306  -34.7648   23.4869 C   0  0  0  0  0  0  0  0  0  0  0  0
  -23.6688  -29.4240   19.9371 C   0  0  0  0  0  0  0  0  0  0  0  0
  -23.7032  -26.9097   21.4934 C   0  0  0  0  0  0  0  0  0  0  0  0
  -21.6814  -33.5038   23.6245 C   0  0  0  0  0  0  0  0  0  0  0  0
  -23.8420  -17.1192   20.6165 C   0  0  0  0  0  0  0  0  0  0  0  0
  -22.4911  -32.3825   24.2679 C   0  0  0  0  0  0  0  0  0  0  0  0
  -24.0091  -15.6387   20.9636 C   0  0  0  0  0  0  0  0  0  0  0  0
  -24.1441  -17.3913   19.1446 C   0  0  0  0  0  0  0  0  0  0  0  0
  -25.6241  -15.4241   19.0286 C   0  0  0  0  0  0  0  0  0  0  0  0
  -23.7011  -32.0094   23.4028 C   0  0  1  0  0  0  0  0  0  0  0  0
  -22.6925  -29.1752   21.0826 C   0  0  1  0  0  0  0  0  0  0  0  0
  -25.3846  -15.1094   20.5152 C   0  0  2  0  0  0  0  0  0  0  0  0
  -19.2425  -22.3242   20.0033 C   0  0  0  0  0  0  0  0  0  0  0  0
  -21.3321  -26.5628   24.6443 C   0  0  0  0  0  0  0  0  0  0  0  0
  -20.4702  -24.2893   24.0472 C   0  0  0  0  0  0  0  0  0  0  0  0
  -19.0765  -26.3080   23.5946 C   0  0  0  0  0  0  0  0  0  0  0  0
  -21.3052  -24.2553   17.4553 C   0  0  0  0  0  0  0  0  0  0  0  0
  -28.7470  -17.9237   17.3855 C   0  0  0  0  0  0  0  0  0  0  0  0
  -21.1161  -25.8649   22.1679 C   0  0  1  0  0  0  0  0  0  0  0  0
  -19.9253  -23.5485   19.4137 C   0  0  2  0  0  0  0  0  0  0  0  0
  -30.6269  -16.3333   18.9371 C   0  0  0  0  0  0  0  0  0  0  0  0
  -20.5226  -25.7663   23.6016 C   0  0  0  0  0  0  0  0  0  0  0  0
  -24.4558  -12.8391   20.7711 N   0  0  0  0  0  0  0  0  0  0  0  0
  -25.5409  -13.6306   20.8174 N   0  0  0  0  0  0  0  0  0  0  0  0
  -22.5018  -27.7507   21.3634 N   0  0  0  0  0  0  0  0  0  0  0  0
  -25.4633  -16.8660   18.7841 N   0  0  0  0  0  0  0  0  0  0  0  0
  -32.1876  -17.6683   20.9448 N   0  0  0  0  0  0  0  0  0  0  0  0
  -27.8726  -13.6166   21.2344 N   0  0  0  0  0  0  0  0  0  0  0  0
  -26.6828   -9.3000   21.8241 N   0  0  0  0  0  0  0  0  0  0  0  0
  -30.1033  -21.9280   19.9057 N   0  0  0  0  0  0  0  0  0  0  0  0
  -23.2886  -31.1904   22.2832 N   0  0  0  0  0  0  0  0  0  0  0  0
  -20.3545  -25.1423   21.1549 N   0  0  0  0  0  0  0  0  0  0  0  0
  -27.6529  -17.1574   17.9390 N   0  0  0  0  0  0  0  0  0  0  0  0
  -20.6107  -23.1433   18.1539 N   0  3  0  0  0  0  0  0  0  0  0  0
  -28.4408  -10.7713   21.8810 O   0  0  0  0  0  0  0  0  0  0  0  0
  -28.4628  -22.5784   18.3629 O   0  0  0  0  0  0  0  0  0  0  0  0
  -23.3058  -29.1269   23.3622 O   0  0  0  0  0  0  0  0  0  0  0  0
  -20.1912  -27.9701   21.5857 O   0  0  0  0  0  0  0  0  0  0  0  0
  -22.0898  -23.7679   20.4644 O   0  0  0  0  0  0  0  0  0  0  0  0
  -26.2137  -18.9380   18.0618 O   0  0  0  0  0  0  0  0  0  0  0  0
  -30.6389  -24.5970   20.2982 O   0  0  0  0  0  0  0  0  0  0  0  0
  -21.5508   -7.1971   21.2986 O   0  0  0  0  0  0  0  0  0  0  0  0
  -28.3977  -26.3203   20.2478 O   0  0  0  0  0  0  0  0  0  1  0  0
  -22.0815   -3.7701   25.5856 F   0  0  0  0  0  0  0  0  0  0  0  0
  -19.4368   -6.7423   23.0210 F   0  0  0  0  0  0  0  0  0  0  0  0
  -29.8058  -15.8775   17.9479 F   0  0  0  0  0  0  0  0  0  0  0  0
  -31.8844  -15.9625   18.5613 F   0  0  0  0  0  0  0  0  0  0  0  0
  -30.3328  -15.5843   20.0372 F   0  0  0  0  0  0  0  0  0  0  0  0
  1  2  1  0  0  0  0
  1  5  2  0  0  0  0
  2  6  2  0  0  0  0
  3  8  2  0  0  0  0
  3 17  1  0  0  0  0
  4  9  1  0  0  0  0
  4 17  2  0  0  0  0
  5 19  1  0  0  0  0
  6 21  1  0  0  0  0
  7 10  2  0  0  0  0
  7 20  1  0  0  0  0
  8 27  1  0  0  0  0
  9 27  2  0  0  0  0
 10 28  1  0  0  0  0
 11 12  2  0  0  0  0
 11 29  1  0  0  0  0
 12 30  1  0  0  0  0
 13 22  1  0  0  0  0
 13 28  2  0  0  0  0
 14 23  1  0  0  0  0
 14 25  2  0  0  0  0
 15 25  1  0  0  0  0
 15 26  2  0  0  0  0
 16 30  2  0  0  0  0
 16 31  1  0  0  0  0
 17 32  1  0  0  0  0
 18 32  1  0  0  0  0
 18 33  2  0  0  0  0
 18 35  1  0  0  0  0
 19 21  2  0  0  0  0
 19 42  1  0  0  0  0
 20 22  2  0  0  0  0
 20 43  1  0  0  0  0
 21 51  1  0  0  0  0
 22 44  1  0  0  0  0
 23 24  2  0  0  0  0
 23 59  1  0  0  0  0
 24 26  1  0  0  0  0
 24 62  1  0  0  0  0
 25 71  1  0  0  0  0
 26 68  1  0  0  0  0
 27 83  1  0  0  0  0
 28 84  1  0  0  0  0
 29 31  2  0  0  0  0
 29 83  1  0  0  0  0
 30 85  1  0  0  0  0
 31 86  1  0  0  0  0
 32 64  2  0  0  0  0
 33 65  1  0  0  0  0
 33 69  1  0  0  0  0
 34 36  2  0  0  0  0
 34 84  1  0  0  0  0
 35 70  1  0  0  0  0
 35 76  2  0  0  0  0
 36 37  1  0  0  0  0
 36 82  1  0  0  0  0
 37 71  1  0  0  0  0
 37 77  2  0  0  0  0
 38 52  1  0  0  0  0
 38 72  1  0  0  0  0
 38 78  2  0  0  0  0
 39 60  1  0  0  0  0
 39 66  1  0  0  0  0
 39 79  2  0  0  0  0
 40 61  1  0  0  0  0
 40 73  1  0  0  0  0
 40 80  2  0  0  0  0
 41 67  1  0  0  0  0
 41 74  1  0  0  0  0
 41 81  2  0  0  0  0
 42 45  1  0  0  0  0
 43 52  1  0  0  0  0
 44 66  1  0  0  0  0
 45 47  1  0  0  0  0
 46 48  1  0  0  0  0
 46 49  1  0  0  0  0
 47 51  1  0  0  0  0
 48 53  1  0  0  0  0
 49 67  1  0  0  0  0
 50 53  1  0  0  0  0
 50 67  1  0  0  0  0
 51 72  1  0  0  0  0
 52 66  1  0  0  0  0
 53 65  1  0  0  0  0
 54 61  1  0  0  0  0
 55 63  1  0  0  0  0
 56 63  1  0  0  0  0
 57 63  1  0  0  0  0
 58 75  1  0  0  0  0
 59 74  1  0  0  0  0
 60 63  1  0  0  0  0
 60 73  1  0  0  0  0
 61 75  1  0  0  0  0
 62 87  1  0  0  0  0
 62 88  1  0  0  0  0
 62 89  1  0  0  0  0
 64 65  1  0  0  0  0
M  CHG  1  75   1
M  ISO  4  34 101  41 100  74 100  84 101
M  END
> <Batch ID>
0168

> <Smiles>
CNC(C)C(=O)NC(C(=O)N1Cc2cc([101O:1][101CH2:1]C(=O)C(=O)Nc3cc(N)c(C(F)(F)F)c(C[100NH:0][100C:0](=O)N4CCCC(n5nc(-c6ccc(Oc7ccc(F)cc7F)cc6)c(C(N)=O)c5N)C4)c3)ccc2CC1C(=O)NC1CCCc2ccccc21)C(C)(C)C

> <Shape>
0.296

> <Color>
0.126

> <Negative vol penalty>
0.000

$$$$

  -OEChem-04052304143D

 88 96  0     1  0  0  0  0  0999 V2000
  -26.5663  -35.5026   26.5042 C   0  0  0  0  0  0  0  0  0  0  0  0
  -27.0393  -34.2761   26.0489 C   0  0  0  0  0  0  0  0  0  0  0  0
  -23.0577   -9.8492   19.9165 C   0  0  0  0  0  0  0  0  0  0  0  0
  -23.8954   -9.7544   22.1807 C   0  0  0  0  0  0  0  0  0  0  0  0
  -25.2157  -35.8212   26.3694 C   0  0  0  0  0  0  0  0  0  0  0  0
  -26.1616  -33.3668   25.4595 C   0  0  0  0  0  0  0  0  0  0  0  0
  -27.3990  -29.4965   20.8774 C   0  0  0  0  0  0  0  0  0  0  0  0
  -22.3268   -8.6821   20.1381 C   0  0  0  0  0  0  0  0  0  0  0  0
  -23.1643   -8.5873   22.4023 C   0  0  0  0  0  0  0  0  0  0  0  0
  -27.7254  -28.1412   20.8566 C   0  0  0  0  0  0  0  0  0  0  0  0
  -19.9613   -7.7466   23.0764 C   0  0  0  0  0  0  0  0  0  0  0  0
  -19.2449   -7.6491   24.2692 C   0  0  0  0  0  0  0  0  0  0  0  0
  -30.2760  -19.0843   22.8282 C   0  0  0  0  0  0  0  0  0  0  0  0
  -25.4109  -27.5962   20.4499 C   0  0  0  0  0  0  0  0  0  0  0  0
  -20.5172   -5.6860   24.8730 C   0  0  0  0  0  0  0  0  0  0  0  0
  -23.8421  -10.3854   20.9378 C   0  0  0  0  0  0  0  0  0  0  0  0
  -30.5849  -19.8055   21.6750 C   0  0  0  0  0  0  0  0  0  0  0  0
  -24.1711  -12.9150   20.9229 C   0  0  0  0  0  0  0  0  0  0  0  0
  -24.3228  -34.9193   25.7693 C   0  0  0  0  0  0  0  0  0  0  0  0
  -26.0721  -29.9119   20.6951 C   0  0  0  0  0  0  0  0  0  0  0  0
  -24.7975  -33.6731   25.3177 C   0  0  0  0  0  0  0  0  0  0  0  0
  -25.0707  -28.9575   20.4662 C   0  0  0  0  0  0  0  0  0  0  0  0
  -30.2567  -17.0382   21.5435 C   0  0  0  0  0  0  0  0  0  0  0  0
  -22.3800   -8.0512   21.3809 C   0  0  0  0  0  0  0  0  0  0  0  0
  -26.7309  -27.1907   20.6457 C   0  0  0  0  0  0  0  0  0  0  0  0
  -20.9557   -6.8138   22.7818 C   0  0  0  0  0  0  0  0  0  0  0  0
  -19.5228   -6.6188   25.1675 C   0  0  0  0  0  0  0  0  0  0  0  0
  -30.1119  -17.7006   22.7625 C   0  0  0  0  0  0  0  0  0  0  0  0
  -21.2337   -5.7835   23.6801 C   0  0  0  0  0  0  0  0  0  0  0  0
  -30.7297  -19.1431   20.4560 C   0  0  0  0  0  0  0  0  0  0  0  0
  -30.5656  -17.7595   20.3902 C   0  0  0  0  0  0  0  0  0  0  0  0
  -24.5979  -11.5906   20.7094 C   0  0  0  0  0  0  0  0  0  0  0  0
  -25.2476  -13.6858   20.5578 C   0  0  0  0  0  0  0  0  0  0  0  0
  -30.7578  -21.2703   21.7475 C   0  0  0  0  0  0  0  0  0  0  0  0
  -22.9139  -13.4047   21.4080 C   0  0  0  0  0  0  0  0  0  0  0  0
  -23.9500  -31.4825   22.4653 C   0  0  0  0  0  0  0  0  0  0  0  0
  -28.6014  -24.0176   20.7906 C   0  0  0  0  0  0  0  0  0  0  0  0
  -22.1725  -31.3498   19.7551 C   0  0  0  0  0  0  0  0  0  0  0  0
  -21.5177  -29.7855   16.7936 C   0  0  0  0  0  0  0  0  0  0  0  0
  -30.7130  -14.7494   20.5951 C   0  0  0  0  0  0  0  0  0  0  0  0
  -22.8627  -35.2887   25.6884 C   0  0  0  0  0  0  0  0  0  0  0  0
  -25.7407  -31.3791   20.6937 C   0  0  0  0  0  0  0  0  0  0  0  0
  -23.6343  -29.3526   20.2449 C   0  0  0  0  0  0  0  0  0  0  0  0
  -22.0686  -34.4233   24.7135 C   0  0  0  0  0  0  0  0  0  0  0  0
  -29.5267  -12.4416   18.1572 C   0  0  0  0  0  0  0  0  0  0  0  0
  -22.3972  -32.9480   24.9195 C   0  0  0  0  0  0  0  0  0  0  0  0
  -28.1036  -12.1234   18.6214 C   0  0  0  0  0  0  0  0  0  0  0  0
  -30.4815  -12.6194   19.3364 C   0  0  0  0  0  0  0  0  0  0  0  0
  -28.6203  -13.2701   20.8134 C   0  0  0  0  0  0  0  0  0  0  0  0
  -23.8811  -32.6705   24.6505 C   0  0  1  0  0  0  0  0  0  0  0  0
  -24.2749  -31.6608   21.0092 C   0  0  1  0  0  0  0  0  0  0  0  0
  -27.6085  -13.1464   19.6625 C   0  0  2  0  0  0  0  0  0  0  0  0
  -30.9548  -23.9515   19.9157 C   0  0  0  0  0  0  0  0  0  0  0  0
  -19.9815  -29.8831   14.8117 C   0  0  0  0  0  0  0  0  0  0  0  0
  -19.9369  -30.1232   21.4307 C   0  0  0  0  0  0  0  0  0  0  0  0
  -18.8434  -29.3832   19.3035 C   0  0  0  0  0  0  0  0  0  0  0  0
  -19.1754  -31.8144   19.7530 C   0  0  0  0  0  0  0  0  0  0  0  0
  -23.7678  -30.2402   14.9255 C   0  0  0  0  0  0  0  0  0  0  0  0
  -28.4168  -25.5232   20.8276 C   0  0  0  0  0  0  0  0  0  1  0  0
  -30.0107  -23.5069   21.0152 C   0  0  2  0  0  0  0  0  0  0  0  0
  -21.1736  -30.3759   19.1784 C   0  0  1  0  0  0  0  0  0  0  0  0
  -21.3153  -30.3288   15.3906 C   0  0  2  0  0  0  0  0  0  0  0  0
  -19.8090  -30.4163   19.9224 C   0  0  0  0  0  0  0  0  0  0  0  0
  -25.8481  -11.5204   20.2445 N   0  0  0  0  0  0  0  0  0  0  0  0
  -26.2160  -12.8104   20.1628 N   0  0  0  0  0  0  0  0  0  0  0  0
  -23.3594  -30.7989   20.2588 N   0  0  0  0  0  0  0  0  0  0  0  0
  -29.9493  -13.6060   20.2788 N   0  0  0  0  0  0  0  0  0  0  0  0
  -25.4509  -15.0203   20.5392 N   0  0  0  0  0  0  0  0  0  0  0  0
  -21.9171  -12.4760   21.7371 N   0  0  0  0  0  0  0  0  0  0  0  0
  -30.0908  -15.6326   21.4768 N   0  0  0  0  0  0  0  0  0  0  0  0
  -29.9488  -22.0487   21.0134 N   0  0  0  0  0  0  0  0  0  0  0  0
  -24.1359  -32.6206   23.2267 N   0  0  0  0  0  0  0  0  0  0  0  0
  -21.0864  -30.6764   17.7535 N   0  0  0  0  0  0  0  0  0  0  0  0
  -31.7153  -21.7513   22.5405 N   0  3  0  0  0  0  0  0  0  0  0  0
  -22.4018  -29.8522   14.4888 N   0  3  0  0  0  0  0  0  0  0  0  0
  -22.6755  -14.6302   21.5300 O   0  0  0  0  0  0  0  0  0  0  0  0
  -23.5582  -30.3935   22.8680 O   0  0  0  0  0  0  0  0  0  0  0  0
  -27.6533  -23.2586   20.5886 O   0  0  0  0  0  0  0  0  0  0  0  0
  -21.9125  -32.5556   19.7522 O   0  0  0  0  0  0  0  0  0  0  0  0
  -22.0060  -28.6797   17.0156 O   0  0  0  0  0  0  0  0  0  0  0  0
  -31.8249  -14.9451   20.0978 O   0  0  0  0  0  0  0  0  0  0  0  0
  -21.6666   -6.9124   21.5976 O   0  0  0  0  0  0  0  0  0  0  0  0
  -27.0467  -25.8672   20.6257 O   0  0  0  0  0  0  0  0  0  1  0  0
  -18.8358   -6.5262   26.3136 F   0  0  0  0  0  0  0  0  0  0  0  0
  -29.8160  -17.0177   23.8775 F   0  0  0  0  0  0  0  0  0  0  0  0
  -22.1886   -4.8851   23.4032 F   0  0  0  0  0  0  0  0  0  0  0  0
  -31.0259  -19.8276   19.3423 F   0  0  0  0  0  0  0  0  0  0  0  0
  -30.7078  -17.1333   19.2134 F   0  0  0  0  0  0  0  0  0  0  0  0
  1  2  1  0  0  0  0
  1  5  2  0  0  0  0
  2  6  2  0  0  0  0
  3  8  2  0  0  0  0
  3 16  1  0  0  0  0
  4  9  1  0  0  0  0
  4 16  2  0  0  0  0
  5 19  1  0  0  0  0
  6 21  1  0  0  0  0
  7 10  2  0  0  0  0
  7 20  1  0  0  0  0
  8 24  1  0  0  0  0
  9 24  2  0  0  0  0
 10 25  1  0  0  0  0
 11 12  2  0  0  0  0
 11 26  1  0  0  0  0
 12 27  1  0  0  0  0
 13 17  1  0  0  0  0
 13 28  2  0  0  0  0
 14 22  1  0  0  0  0
 14 25  2  0  0  0  0
 15 27  2  0  0  0  0
 15 29  1  0  0  0  0
 16 32  1  0  0  0  0
 17 30  2  0  0  0  0
 17 34  1  0  0  0  0
 18 32  1  0  0  0  0
 18 33  2  0  0  0  0
 18 35  1  0  0  0  0
 19 21  2  0  0  0  0
 19 41  1  0  0  0  0
 20 22  2  0  0  0  0
 20 42  1  0  0  0  0
 21 50  1  0  0  0  0
 22 43  1  0  0  0  0
 23 28  1  0  0  0  0
 23 31  2  0  0  0  0
 23 70  1  0  0  0  0
 24 82  1  0  0  0  0
 25 83  1  0  0  0  0
 26 29  2  0  0  0  0
 26 82  1  0  0  0  0
 27 84  1  0  0  0  0
 28 85  1  0  0  0  0
 29 86  1  0  0  0  0
 30 31  1  0  0  0  0
 30 87  1  0  0  0  0
 31 88  1  0  0  0  0
 32 64  2  0  0  0  0
 33 65  1  0  0  0  0
 33 68  1  0  0  0  0
 34 71  1  0  0  0  0
 34 74  2  0  0  0  0
 35 69  1  0  0  0  0
 35 76  2  0  0  0  0
 36 51  1  0  0  0  0
 36 72  1  0  0  0  0
 36 77  2  0  0  0  0
 37 59  1  0  0  0  0
 37 60  1  0  0  0  0
 37 78  2  0  0  0  0
 38 61  1  0  0  0  0
 38 66  1  0  0  0  0
 38 79  2  0  0  0  0
 39 62  1  0  0  0  0
 39 73  1  0  0  0  0
 39 80  2  0  0  0  0
 40 67  1  0  0  0  0
 40 70  1  0  0  0  0
 40 81  2  0  0  0  0
 41 44  1  0  0  0  0
 42 51  1  0  0  0  0
 43 66  1  0  0  0  0
 44 46  1  0  0  0  0
 45 47  1  0  0  0  0
 45 48  1  0  0  0  0
 46 50  1  0  0  0  0
 47 52  1  0  0  0  0
 48 67  1  0  0  0  0
 49 52  1  0  0  0  0
 49 67  1  0  0  0  0
 50 72  1  0  0  0  0
 51 66  1  0  0  0  0
 52 65  1  0  0  0  0
 53 60  1  0  0  0  0
 54 62  1  0  0  0  0
 55 63  1  0  0  0  0
 56 63  1  0  0  0  0
 57 63  1  0  0  0  0
 58 75  1  0  0  0  0
 59 83  1  0  0  0  0
 60 71  1  0  0  0  0
 61 63  1  0  0  0  0
 61 73  1  0  0  0  0
 62 75  1  0  0  0  0
 64 65  1  0  0  0  0
M  CHG  2  74   1  75   1
M  ISO  4  40 100  59 101  70 100  83 101
M  END
> <Batch ID>
0168

> <Smiles>
CNC(C)C(=O)NC(C(=O)N1Cc2cc([101O:1][101CH2:1]C(=O)C(C)NC(=N)c3cc(F)c([100NH:0][100C:0](=O)N4CCCC(n5nc(-c6ccc(Oc7ccc(F)cc7F)cc6)c(C(N)=O)c5N)C4)c(F)c3F)ccc2CC1C(=O)NC1CCCc2ccccc21)C(C)(C)C

> <Shape>
0.339

> <Color>
0.219

> <Negative vol penalty>
0.000

$$$$

  -OEChem-04052304143D

 85 93  0     1  0  0  0  0  0999 V2000
  -25.8205  -35.3049   26.5171 C   0  0  0  0  0  0  0  0  0  0  0  0
  -26.5298  -34.3129   25.8476 C   0  0  0  0  0  0  0  0  0  0  0  0
  -23.1581   -9.8710   21.6546 C   0  0  0  0  0  0  0  0  0  0  0  0
  -23.8293  -10.9936   23.6860 C   0  0  0  0  0  0  0  0  0  0  0  0
  -24.4660  -35.1254   26.7942 C   0  0  0  0  0  0  0  0  0  0  0  0
  -25.8851  -33.1402   25.4558 C   0  0  0  0  0  0  0  0  0  0  0  0
  -26.9765  -29.8491   20.4077 C   0  0  0  0  0  0  0  0  0  0  0  0
  -22.4291   -8.9486   22.4052 C   0  0  0  0  0  0  0  0  0  0  0  0
  -23.1003  -10.0711   24.4366 C   0  0  0  0  0  0  0  0  0  0  0  0
  -27.7259  -28.6949   20.1843 C   0  0  0  0  0  0  0  0  0  0  0  0
  -19.4446   -8.8298   23.9899 C   0  0  0  0  0  0  0  0  0  0  0  0
  -18.1585   -8.5112   23.5540 C   0  0  0  0  0  0  0  0  0  0  0  0
  -25.7268  -27.3623   20.4011 C   0  0  0  0  0  0  0  0  0  0  0  0
  -29.5602  -18.3309   20.5279 C   0  0  0  0  0  0  0  0  0  0  0  0
  -18.8084   -6.1952   23.3290 C   0  0  0  0  0  0  0  0  0  0  0  0
  -32.0516  -18.7770   19.5084 C   0  0  0  0  0  0  0  0  0  0  0  0
  -23.8582  -10.8935   22.2950 C   0  0  0  0  0  0  0  0  0  0  0  0
  -24.1521  -13.0695   20.9965 C   0  0  0  0  0  0  0  0  0  0  0  0
  -23.8020  -33.9540   26.3971 C   0  0  0  0  0  0  0  0  0  0  0  0
  -25.5961  -29.7675   20.6407 C   0  0  0  0  0  0  0  0  0  0  0  0
  -24.5207  -32.9442   25.7291 C   0  0  0  0  0  0  0  0  0  0  0  0
  -24.9618  -28.5172   20.6247 C   0  0  0  0  0  0  0  0  0  0  0  0
  -29.9926  -19.6376   20.3310 C   0  0  0  0  0  0  0  0  0  0  0  0
  -31.2607  -19.8735   19.8119 C   0  0  0  0  0  0  0  0  0  0  0  0
  -22.4002   -9.0486   23.7962 C   0  0  0  0  0  0  0  0  0  0  0  0
  -27.1016  -27.4510   20.1838 C   0  0  0  0  0  0  0  0  0  0  0  0
  -20.4127   -7.8311   24.0952 C   0  0  0  0  0  0  0  0  0  0  0  0
  -17.8404   -7.1939   23.2236 C   0  0  0  0  0  0  0  0  0  0  0  0
  -20.0946   -6.5138   23.7648 C   0  0  0  0  0  0  0  0  0  0  0  0
  -24.6118  -11.8463   21.5203 C   0  0  0  0  0  0  0  0  0  0  0  0
  -30.4270  -17.3034   20.1922 C   0  0  0  0  0  0  0  0  0  0  0  0
  -25.2417  -13.5959   20.3466 C   0  0  0  0  0  0  0  0  0  0  0  0
  -22.8561  -13.6758   21.0891 C   0  0  0  0  0  0  0  0  0  0  0  0
  -23.6805  -30.5318   23.0594 C   0  0  0  0  0  0  0  0  0  0  0  0
  -28.4226  -21.4213   19.4739 C   0  0  0  0  0  0  0  0  0  0  0  0
  -28.0758  -23.9237   19.7473 C   0  0  0  0  0  0  0  0  0  0  0  0
  -21.3469  -29.7217   20.9569 C   0  0  0  0  0  0  0  0  0  0  0  0
  -20.4326  -27.9606   18.1803 C   0  0  0  0  0  0  0  0  0  0  0  0
  -30.6744  -14.7971   20.1333 C   0  0  0  0  0  0  0  0  0  0  0  0
  -22.3481  -33.7849   26.7607 C   0  0  0  0  0  0  0  0  0  0  0  0
  -24.7975  -31.0242   20.8535 C   0  0  0  0  0  0  0  0  0  0  0  0
  -23.4791  -28.3772   20.8495 C   0  0  0  0  0  0  0  0  0  0  0  0
  -21.6504  -32.6738   25.9804 C   0  0  0  0  0  0  0  0  0  0  0  0
  -29.7016  -11.5096   19.1725 C   0  0  0  0  0  0  0  0  0  0  0  0
  -22.5090  -31.4131   25.9634 C   0  0  0  0  0  0  0  0  0  0  0  0
  -28.2529  -11.4048   19.6546 C   0  0  0  0  0  0  0  0  0  0  0  0
  -30.5651  -12.3146   20.1421 C   0  0  0  0  0  0  0  0  0  0  0  0
  -28.5921  -13.5380   20.9665 C   0  0  0  0  0  0  0  0  0  0  0  0
  -23.8506  -31.6688   25.2660 C   0  0  1  0  0  0  0  0  0  0  0  0
  -23.4843  -30.7800   21.5906 C   0  0  1  0  0  0  0  0  0  0  0  0
  -27.6689  -12.7911   19.9901 C   0  0  2  0  0  0  0  0  0  0  0  0
  -18.4484  -27.4674   16.7253 C   0  0  0  0  0  0  0  0  0  0  0  0
  -20.2598  -27.8259   23.0862 C   0  0  0  0  0  0  0  0  0  0  0  0
  -18.9152  -26.7010   21.2988 C   0  0  0  0  0  0  0  0  0  0  0  0
  -18.5108  -29.1033   21.8357 C   0  0  0  0  0  0  0  0  0  0  0  0
  -21.7406  -29.1347   15.7992 C   0  0  0  0  0  0  0  0  0  0  0  0
  -29.0712  -20.7750   20.6848 C   0  0  0  0  0  0  0  0  0  0  0  0
  -27.4503  -22.5463   19.7525 C   0  0  0  0  0  0  0  0  0  0  0  0
  -27.1266  -25.0817   19.9798 C   0  0  0  0  0  0  0  0  0  1  0  0
  -20.6198  -28.4461   20.6060 C   0  0  1  0  0  0  0  0  0  0  0  0
  -19.6560  -28.3664   16.9407 C   0  0  2  0  0  0  0  0  0  0  0  0
  -19.6047  -28.0212   21.7043 C   0  0  0  0  0  0  0  0  0  0  0  0
  -31.6660  -17.4935   19.6858 N   0  0  0  0  0  0  0  0  0  0  0  0
  -25.8935  -11.6095   21.2283 N   0  0  0  0  0  0  0  0  0  0  0  0
  -26.2484  -12.6910   20.5139 N   0  0  0  0  0  0  0  0  0  0  0  0
  -22.7425  -29.6346   21.0594 N   0  0  0  0  0  0  0  0  0  0  0  0
  -29.9518  -13.6172   20.4099 N   0  0  0  0  0  0  0  0  0  0  0  0
  -31.7420  -21.1772   19.5973 N   0  0  0  0  0  0  0  0  0  0  0  0
  -25.4272  -14.7397   19.6541 N   0  0  0  0  0  0  0  0  0  0  0  0
  -21.8510  -12.9996   21.7940 N   0  0  0  0  0  0  0  0  0  0  0  0
  -29.9772  -15.9755   20.3975 N   0  0  0  0  0  0  0  0  0  0  0  0
  -23.6793  -31.6795   23.8290 N   0  0  0  0  0  0  0  0  0  0  0  0
  -20.0228  -28.6646   19.2929 N   0  0  0  0  0  0  0  0  0  0  0  0
  -20.5260  -28.2818   15.7337 N   0  3  0  0  0  0  0  0  0  0  0  0
  -22.5925  -14.7766   20.5485 O   0  0  0  0  0  0  0  0  0  0  0  0
  -23.8211  -29.3839   23.4647 O   0  0  0  0  0  0  0  0  0  0  0  0
  -28.6734  -21.0802   18.3181 O   0  0  0  0  0  0  0  0  0  0  0  0
  -29.2790  -24.0963   19.5578 O   0  0  0  0  0  0  0  0  0  0  0  0
  -20.7011  -30.7589   21.1267 O   0  0  0  0  0  0  0  0  0  0  0  0
  -21.3120  -27.1022   18.1642 O   0  0  0  0  0  0  0  0  0  0  0  0
  -31.8168  -14.7645   19.6688 O   0  0  0  0  0  0  0  0  0  0  0  0
  -21.6888   -8.1488   24.5289 O   0  0  0  0  0  0  0  0  0  0  0  0
  -27.8308  -26.3227   19.9667 O   0  0  0  0  0  0  0  0  0  1  0  0
  -16.6048   -6.8879   22.8065 F   0  0  0  0  0  0  0  0  0  0  0  0
  -21.0200   -5.5498   23.8652 F   0  0  0  0  0  0  0  0  0  0  0  0
  1  2  1  0  0  0  0
  1  5  2  0  0  0  0
  2  6  2  0  0  0  0
  3  8  2  0  0  0  0
  3 17  1  0  0  0  0
  4  9  1  0  0  0  0
  4 17  2  0  0  0  0
  5 19  1  0  0  0  0
  6 21  1  0  0  0  0
  7 10  2  0  0  0  0
  7 20  1  0  0  0  0
  8 25  1  0  0  0  0
  9 25  2  0  0  0  0
 10 26  1  0  0  0  0
 11 12  2  0  0  0  0
 11 27  1  0  0  0  0
 12 28  1  0  0  0  0
 13 22  1  0  0  0  0
 13 26  2  0  0  0  0
 14 23  1  0  0  0  0
 14 31  2  0  0  0  0
 15 28  2  0  0  0  0
 15 29  1  0  0  0  0
 16 24  1  0  0  0  0
 16 63  2  0  0  0  0
 17 30  1  0  0  0  0
 18 30  1  0  0  0  0
 18 32  2  0  0  0  0
 18 33  1  0  0  0  0
 19 21  2  0  0  0  0
 19 40  1  0  0  0  0
 20 22  2  0  0  0  0
 20 41  1  0  0  0  0
 21 49  1  0  0  0  0
 22 42  1  0  0  0  0
 23 24  2  0  0  0  0
 23 57  1  0  0  0  0
 24 68  1  0  0  0  0
 25 82  1  0  0  0  0
 26 83  1  0  0  0  0
 27 29  2  0  0  0  0
 27 82  1  0  0  0  0
 28 84  1  0  0  0  0
 29 85  1  0  0  0  0
 30 64  2  0  0  0  0
 31 63  1  0  0  0  0
 31 71  1  0  0  0  0
 32 65  1  0  0  0  0
 32 69  1  0  0  0  0
 33 70  1  0  0  0  0
 33 75  2  0  0  0  0
 34 50  1  0  0  0  0
 34 72  1  0  0  0  0
 34 76  2  0  0  0  0
 35 57  1  0  0  0  0
 35 58  1  0  0  0  0
 35 77  2  0  0  0  0
 36 58  1  0  0  0  0
 36 59  1  0  0  0  0
 36 78  2  0  0  0  0
 37 60  1  0  0  0  0
 37 66  1  0  0  0  0
 37 79  2  0  0  0  0
 38 61  1  0  0  0  0
 38 73  1  0  0  0  0
 38 80  2  0  0  0  0
 39 67  1  0  0  0  0
 39 71  1  0  0  0  0
 39 81  2  0  0  0  0
 40 43  1  0  0  0  0
 41 50  1  0  0  0  0
 42 66  1  0  0  0  0
 43 45  1  0  0  0  0
 44 46  1  0  0  0  0
 44 47  1  0  0  0  0
 45 49  1  0  0  0  0
 46 51  1  0  0  0  0
 47 67  1  0  0  0  0
 48 51  1  0  0  0  0
 48 67  1  0  0  0  0
 49 72  1  0  0  0  0
 50 66  1  0  0  0  0
 51 65  1  0  0  0  0
 52 61  1  0  0  0  0
 53 62  1  0  0  0  0
 54 62  1  0  0  0  0
 55 62  1  0  0  0  0
 56 74  1  0  0  0  0
 59 83  1  0  0  0  0
 60 62  1  0  0  0  0
 60 73  1  0  0  0  0
 61 74  1  0  0  0  0
 64 65  1  0  0  0  0
M  CHG  1  74   1
M  ISO  4  39 100  59 101  71 100  83 101
M  END
> <Batch ID>
0168

> <Smiles>
CNC(C)C(=O)NC(C(=O)N1Cc2cc([101O:1][101CH2:1]C(=O)CC(=O)Cc3cc([100NH:0][100C:0](=O)N4CCCC(n5nc(-c6ccc(Oc7ccc(F)cc7F)cc6)c(C(N)=O)c5N)C4)ncc3N)ccc2CC1C(=O)NC1CCCc2ccccc21)C(C)(C)C

> <Shape>
0.309

> <Color>
0.174

> <Negative vol penalty>
0.000

$$$$

  -OEChem-04052304143D

 86 94  0     1  0  0  0  0  0999 V2000
  -19.3128  -24.7756   20.3722 C   0  0  0  0  0  0  0  0  0  0  0  0
  -20.2804  -24.4496   21.3172 C   0  0  0  0  0  0  0  0  0  0  0  0
  -32.8261  -17.2191   23.4763 C   0  0  0  0  0  0  0  0  0  0  0  0
  -23.0027   -9.9266   19.9423 C   0  0  0  0  0  0  0  0  0  0  0  0
  -23.8496   -9.8008   22.2015 C   0  0  0  0  0  0  0  0  0  0  0  0
  -18.6682  -26.0104   20.4336 C   0  0  0  0  0  0  0  0  0  0  0  0
  -20.6047  -25.3587   22.3236 C   0  0  0  0  0  0  0  0  0  0  0  0
  -20.9551  -23.1720   26.8777 C   0  0  0  0  0  0  0  0  0  0  0  0
  -32.0713  -18.0558   24.2984 C   0  0  0  0  0  0  0  0  0  0  0  0
  -32.1899  -16.3928   22.5499 C   0  0  0  0  0  0  0  0  0  0  0  0
  -22.2505   -8.7723   20.1600 C   0  0  0  0  0  0  0  0  0  0  0  0
  -23.0973   -8.6465   22.4192 C   0  0  0  0  0  0  0  0  0  0  0  0
  -22.1218  -22.4606   27.1544 C   0  0  0  0  0  0  0  0  0  0  0  0
  -23.3134   -5.3552   21.6767 C   0  0  0  0  0  0  0  0  0  0  0  0
  -23.9393   -4.2846   22.3152 C   0  0  0  0  0  0  0  0  0  0  0  0
  -22.9667  -24.3436   28.4032 C   0  0  0  0  0  0  0  0  0  0  0  0
  -30.0442  -17.2397   23.2679 C   0  0  0  0  0  0  0  0  0  0  0  0
  -22.3073   -4.3909   24.0935 C   0  0  0  0  0  0  0  0  0  0  0  0
  -23.8023  -10.4409   20.9631 C   0  0  0  0  0  0  0  0  0  0  0  0
  -24.1798  -12.9638   20.9630 C   0  0  0  0  0  0  0  0  0  0  0  0
  -18.9779  -26.9312   21.4470 C   0  0  0  0  0  0  0  0  0  0  0  0
  -20.7898  -24.4807   27.3534 C   0  0  0  0  0  0  0  0  0  0  0  0
  -19.9646  -26.6075   22.3978 C   0  0  0  0  0  0  0  0  0  0  0  0
  -21.7959  -25.0685   28.1334 C   0  0  0  0  0  0  0  0  0  0  0  0
  -30.6804  -18.0661   24.1942 C   0  0  0  0  0  0  0  0  0  0  0  0
  -30.7990  -16.4030   22.4457 C   0  0  0  0  0  0  0  0  0  0  0  0
  -22.2978   -8.1323   21.3984 C   0  0  0  0  0  0  0  0  0  0  0  0
  -23.1290  -23.0474   27.9148 C   0  0  0  0  0  0  0  0  0  0  0  0
  -22.1844   -5.9437   22.2467 C   0  0  0  0  0  0  0  0  0  0  0  0
  -23.4362   -3.8024   23.5235 C   0  0  0  0  0  0  0  0  0  0  0  0
  -21.6814   -5.4616   23.4550 C   0  0  0  0  0  0  0  0  0  0  0  0
  -24.5800  -11.6329   20.7386 C   0  0  0  0  0  0  0  0  0  0  0  0
  -25.2692  -13.7162   20.5974 C   0  0  0  0  0  0  0  0  0  0  0  0
  -26.7803  -20.2948   26.2265 C   0  0  0  0  0  0  0  0  0  0  0  0
  -22.9347  -13.4743   21.4577 C   0  0  0  0  0  0  0  0  0  0  0  0
  -28.0973  -20.0621   26.0893 C   0  0  0  0  0  0  0  0  0  0  0  0
  -26.2000  -21.2651   27.2045 C   0  0  0  0  0  0  0  0  0  0  0  0
  -28.5336  -19.0539   25.0604 C   0  0  0  0  0  0  0  0  0  0  0  0
  -20.3982  -27.3281   25.9958 C   0  0  0  0  0  0  0  0  0  0  0  0
  -19.9671  -28.2970   29.0614 C   0  0  0  0  0  0  0  0  0  0  0  0
  -20.5275  -27.7409   32.3816 C   0  0  0  0  0  0  0  0  0  0  0  0
  -30.7541  -14.6743   20.6138 C   0  0  0  0  0  0  0  0  0  0  0  0
  -18.2882  -28.2724   21.4446 C   0  0  0  0  0  0  0  0  0  0  0  0
  -19.5141  -25.2249   27.0687 C   0  0  0  0  0  0  0  0  0  0  0  0
  -21.6588  -26.4634   28.6846 C   0  0  0  0  0  0  0  0  0  0  0  0
  -18.4222  -29.0286   22.7639 C   0  0  0  0  0  0  0  0  0  0  0  0
  -29.5115  -12.4059   18.1669 C   0  0  0  0  0  0  0  0  0  0  0  0
  -19.8664  -28.9956   23.2538 C   0  0  0  0  0  0  0  0  0  0  0  0
  -28.0848  -12.1120   18.6363 C   0  0  0  0  0  0  0  0  0  0  0  0
  -30.4754  -12.5575   19.3424 C   0  0  0  0  0  0  0  0  0  0  0  0
  -28.6344  -13.2340   20.8331 C   0  0  0  0  0  0  0  0  0  0  0  0
  -20.3262  -27.5570   23.5193 C   0  0  1  0  0  0  0  0  0  0  0  0
  -19.6701  -26.7391   27.1708 C   0  0  1  0  0  0  0  0  0  0  0  0
  -27.6147  -13.1374   19.6866 C   0  0  2  0  0  0  0  0  0  0  0  0
  -20.0833  -28.7262   34.6463 C   0  0  0  0  0  0  0  0  0  0  0  0
  -22.1304  -30.3922   28.5715 C   0  0  0  0  0  0  0  0  0  0  0  0
  -22.3117  -30.6839   31.0514 C   0  0  0  0  0  0  0  0  0  0  0  0
  -20.1676  -31.2078   29.8892 C   0  0  0  0  0  0  0  0  0  0  0  0
  -19.0029  -25.3568   33.2479 C   0  0  0  0  0  0  0  0  0  0  0  0
  -24.6919  -21.3958   27.2179 C   0  0  0  0  0  0  0  0  0  1  0  0
  -20.8719  -28.7950   30.1624 C   0  0  1  0  0  0  0  0  0  0  0  0
  -19.5933  -27.7612   33.5780 C   0  0  2  0  0  0  0  0  0  0  0  0
  -21.3741  -30.2441   29.9067 C   0  0  0  0  0  0  0  0  0  0  0  0
  -25.8263  -11.5417   20.2669 N   0  0  0  0  0  0  0  0  0  0  0  0
  -26.2186  -12.8249   20.1918 N   0  0  0  0  0  0  0  0  0  0  0  0
  -20.3955  -27.1527   28.3737 N   0  0  0  0  0  0  0  0  0  0  0  0
  -29.9669  -13.5479   20.2939 N   0  0  0  0  0  0  0  0  0  0  0  0
  -25.4980  -15.0466   20.5865 N   0  0  0  0  0  0  0  0  0  0  0  0
  -21.9219  -12.5627   21.7858 N   0  0  0  0  0  0  0  0  0  0  0  0
  -29.9150  -18.9158   25.0286 N   0  0  0  0  0  0  0  0  0  0  0  0
  -30.1534  -15.5634   21.5044 N   0  0  0  0  0  0  0  0  0  0  0  0
  -19.7941  -27.0805   24.7779 N   0  0  0  0  0  0  0  0  0  0  0  0
  -20.1286  -28.6311   31.4070 N   0  0  0  0  0  0  0  0  0  0  0  0
  -19.4952  -26.4021   34.1816 N   0  3  0  0  0  0  0  0  0  0  0  0
  -22.7206  -14.7033   21.5889 O   0  0  0  0  0  0  0  0  0  0  0  0
  -26.8979  -21.9029   27.9888 O   0  0  0  0  0  0  0  0  0  0  0  0
  -27.7150  -18.4603   24.3664 O   0  0  0  0  0  0  0  0  0  0  0  0
  -21.4308  -27.9616   26.1806 O   0  0  0  0  0  0  0  0  0  0  0  0
  -18.9154  -28.8968   28.8251 O   0  0  0  0  0  0  0  0  0  0  0  0
  -21.5145  -27.0113   32.3194 O   0  0  0  0  0  0  0  0  0  0  0  0
  -31.8671  -14.8518   20.1121 O   0  0  0  0  0  0  0  0  0  0  0  0
  -29.0855  -20.6842   26.8224 O   0  0  0  0  0  0  0  0  0  0  0  0
  -21.5637   -7.0061   21.6112 O   0  0  0  0  0  0  0  0  0  0  0  0
  -24.2691  -22.3555   28.1857 O   0  0  0  0  0  0  0  0  0  1  0  0
  -24.0365   -2.7733   24.1357 F   0  0  0  0  0  0  0  0  0  0  0  0
  -20.5964   -6.0221   24.0068 F   0  0  0  0  0  0  0  0  0  0  0  0
  1  2  1  0  0  0  0
  1  6  2  0  0  0  0
  2  7  2  0  0  0  0
  3  9  2  0  0  0  0
  3 10  1  0  0  0  0
  4 11  2  0  0  0  0
  4 19  1  0  0  0  0
  5 12  1  0  0  0  0
  5 19  2  0  0  0  0
  6 21  1  0  0  0  0
  7 23  1  0  0  0  0
  8 13  2  0  0  0  0
  8 22  1  0  0  0  0
  9 25  1  0  0  0  0
 10 26  2  0  0  0  0
 11 27  1  0  0  0  0
 12 27  2  0  0  0  0
 13 28  1  0  0  0  0
 14 15  2  0  0  0  0
 14 29  1  0  0  0  0
 15 30  1  0  0  0  0
 16 24  1  0  0  0  0
 16 28  2  0  0  0  0
 17 25  2  0  0  0  0
 17 26  1  0  0  0  0
 18 30  2  0  0  0  0
 18 31  1  0  0  0  0
 19 32  1  0  0  0  0
 20 32  1  0  0  0  0
 20 33  2  0  0  0  0
 20 35  1  0  0  0  0
 21 23  2  0  0  0  0
 21 43  1  0  0  0  0
 22 24  2  0  0  0  0
 22 44  1  0  0  0  0
 23 52  1  0  0  0  0
 24 45  1  0  0  0  0
 25 70  1  0  0  0  0
 26 71  1  0  0  0  0
 27 83  1  0  0  0  0
 28 84  1  0  0  0  0
 29 31  2  0  0  0  0
 29 83  1  0  0  0  0
 30 85  1  0  0  0  0
 31 86  1  0  0  0  0
 32 64  2  0  0  0  0
 33 65  1  0  0  0  0
 33 68  1  0  0  0  0
 34 36  2  0  0  0  0
 34 37  1  0  0  0  0
 35 69  1  0  0  0  0
 35 75  2  0  0  0  0
 36 38  1  0  0  0  0
 36 82  1  0  0  0  0
 37 60  1  0  0  0  0
 37 76  2  0  0  0  0
 38 70  1  0  0  0  0
 38 77  2  0  0  0  0
 39 53  1  0  0  0  0
 39 72  1  0  0  0  0
 39 78  2  0  0  0  0
 40 61  1  0  0  0  0
 40 66  1  0  0  0  0
 40 79  2  0  0  0  0
 41 62  1  0  0  0  0
 41 73  1  0  0  0  0
 41 80  2  0  0  0  0
 42 67  1  0  0  0  0
 42 71  1  0  0  0  0
 42 81  2  0  0  0  0
 43 46  1  0  0  0  0
 44 53  1  0  0  0  0
 45 66  1  0  0  0  0
 46 48  1  0  0  0  0
 47 49  1  0  0  0  0
 47 50  1  0  0  0  0
 48 52  1  0  0  0  0
 49 54  1  0  0  0  0
 50 67  1  0  0  0  0
 51 54  1  0  0  0  0
 51 67  1  0  0  0  0
 52 72  1  0  0  0  0
 53 66  1  0  0  0  0
 54 65  1  0  0  0  0
 55 62  1  0  0  0  0
 56 63  1  0  0  0  0
 57 63  1  0  0  0  0
 58 63  1  0  0  0  0
 59 74  1  0  0  0  0
 60 84  1  0  0  0  0
 61 63  1  0  0  0  0
 61 73  1  0  0  0  0
 62 74  1  0  0  0  0
 64 65  1  0  0  0  0
M  CHG  1  74   1
M  ISO  4  42 100  60 101  71 100  84 101
M  END
> <Batch ID>
0168

> <Smiles>
CNC(C)C(=O)NC(C(=O)N1Cc2cc([101O:1][101CH2:1]C(=O)CC(=O)C(=O)Nc3cccc([100NH:0][100C:0](=O)N4CCCC(n5nc(-c6ccc(Oc7ccc(F)cc7F)cc6)c(C(N)=O)c5N)C4)c3)ccc2CC1C(=O)NC1CCCc2ccccc21)C(C)(C)C

> <Shape>
0.224

> <Color>
0.207

> <Negative vol penalty>
0.000

$$$$

  -OEChem-04052304143D

 85 93  0     1  0  0  0  0  0999 V2000
  -18.6150  -32.6730   24.3443 C   0  0  0  0  0  0  0  0  0  0  0  0
  -19.9969  -32.6292   24.4992 C   0  0  0  0  0  0  0  0  0  0  0  0
  -26.4488  -13.8046   21.6904 C   0  0  0  0  0  0  0  0  0  0  0  0
  -25.5002  -14.5901   19.6119 C   0  0  0  0  0  0  0  0  0  0  0  0
  -17.9246  -31.5345   23.9309 C   0  0  0  0  0  0  0  0  0  0  0  0
  -20.6890  -31.4463   24.2418 C   0  0  0  0  0  0  0  0  0  0  0  0
  -26.3071  -30.9112   21.8637 C   0  0  0  0  0  0  0  0  0  0  0  0
  -25.5799  -12.7136   21.6747 C   0  0  0  0  0  0  0  0  0  0  0  0
  -24.6313  -13.4991   19.5961 C   0  0  0  0  0  0  0  0  0  0  0  0
  -27.5568  -30.7056   22.4467 C   0  0  0  0  0  0  0  0  0  0  0  0
  -21.7383  -12.5964   21.0951 C   0  0  0  0  0  0  0  0  0  0  0  0
  -20.4004  -12.8380   20.7833 C   0  0  0  0  0  0  0  0  0  0  0  0
  -27.3536  -28.3377   22.0330 C   0  0  0  0  0  0  0  0  0  0  0  0
  -31.3031  -25.1527   17.4546 C   0  0  0  0  0  0  0  0  0  0  0  0
  -30.4474  -22.9186   17.7373 C   0  0  0  0  0  0  0  0  0  0  0  0
  -20.5764  -11.3577   18.8820 C   0  0  0  0  0  0  0  0  0  0  0  0
  -26.4090  -14.7429   20.6590 C   0  0  0  0  0  0  0  0  0  0  0  0
  -28.5947  -15.9395   20.1126 C   0  0  0  0  0  0  0  0  0  0  0  0
  -18.6097  -30.3398   23.6590 C   0  0  0  0  0  0  0  0  0  0  0  0
  -25.5653  -29.8284   21.3700 C   0  0  0  0  0  0  0  0  0  0  0  0
  -20.0069  -30.2903   23.8257 C   0  0  0  0  0  0  0  0  0  0  0  0
  -26.0959  -28.5325   21.4419 C   0  0  0  0  0  0  0  0  0  0  0  0
  -31.2393  -23.8259   17.0399 C   0  0  0  0  0  0  0  0  0  0  0  0
  -24.6711  -12.5608   20.6276 C   0  0  0  0  0  0  0  0  0  0  0  0
  -28.0790  -29.4184   22.5340 C   0  0  0  0  0  0  0  0  0  0  0  0
  -22.4953  -11.7356   20.3004 C   0  0  0  0  0  0  0  0  0  0  0  0
  -19.8194  -12.2186   19.6768 C   0  0  0  0  0  0  0  0  0  0  0  0
  -21.9143  -11.1162   19.1939 C   0  0  0  0  0  0  0  0  0  0  0  0
  -27.3059  -15.8704   20.6749 C   0  0  0  0  0  0  0  0  0  0  0  0
  -30.5677  -25.5420   18.5651 C   0  0  0  0  0  0  0  0  0  0  0  0
  -29.0252  -17.2125   20.3962 C   0  0  0  0  0  0  0  0  0  0  0  0
  -29.7337  -23.3644   18.8407 C   0  0  0  0  0  0  0  0  0  0  0  0
  -29.3362  -14.9421   19.3977 C   0  0  0  0  0  0  0  0  0  0  0  0
  -30.5727  -26.9344   19.0817 C   0  0  0  0  0  0  0  0  0  0  0  0
  -22.7430  -28.5409   22.0633 C   0  0  0  0  0  0  0  0  0  0  0  0
  -23.3785  -26.7068   19.4643 C   0  0  0  0  0  0  0  0  0  0  0  0
  -25.7113  -25.3644   17.3660 C   0  0  0  0  0  0  0  0  0  0  0  0
  -30.3157  -28.2899   21.1303 C   0  0  0  0  0  0  0  0  0  0  0  0
  -28.1434  -22.7030   20.6791 C   0  0  0  0  0  0  0  0  0  0  0  0
  -17.8147  -29.1217   23.2602 C   0  0  0  0  0  0  0  0  0  0  0  0
  -24.2306  -30.0700   20.7199 C   0  0  0  0  0  0  0  0  0  0  0  0
  -25.3483  -27.3387   20.9086 C   0  0  0  0  0  0  0  0  0  0  0  0
  -18.6659  -28.0129   22.6467 C   0  0  0  0  0  0  0  0  0  0  0  0
  -27.0766  -20.7442   23.4543 C   0  0  0  0  0  0  0  0  0  0  0  0
  -19.9185  -27.7761   23.4844 C   0  0  0  0  0  0  0  0  0  0  0  0
  -27.1471  -19.3073   22.9324 C   0  0  0  0  0  0  0  0  0  0  0  0
  -26.6142  -21.7185   22.3724 C   0  0  0  0  0  0  0  0  0  0  0  0
  -27.4498  -20.2275   20.5982 C   0  0  0  0  0  0  0  0  0  0  0  0
  -20.7959  -29.0328   23.5323 C   0  0  1  0  0  0  0  0  0  0  0  0
  -23.3362  -28.8341   20.7143 C   0  0  1  0  0  0  0  0  0  0  0  0
  -27.9731  -19.2192   21.6341 C   0  0  2  0  0  0  0  0  0  0  0  0
  -25.9298  -23.8771   15.3567 C   0  0  0  0  0  0  0  0  0  0  0  0
  -31.3710  -28.0647   23.3967 C   0  0  0  0  0  0  0  0  0  0  0  0
  -22.8755  -24.2634   21.2212 C   0  0  0  0  0  0  0  0  0  0  0  0
  -24.0095  -22.8655   19.4811 C   0  0  0  0  0  0  0  0  0  0  0  0
  -21.9200  -24.1050   18.9154 C   0  0  0  0  0  0  0  0  0  0  0  0
  -26.9421  -27.5227   15.7580 C   0  0  0  0  0  0  0  0  0  0  0  0
  -24.0754  -25.3882   19.2309 C   0  0  1  0  0  0  0  0  0  0  0  0
  -25.7900  -25.3084   15.8511 C   0  0  2  0  0  0  0  0  0  0  0  0
  -30.0638  -28.1112   22.6215 C   0  0  1  0  0  0  0  0  0  1  0  0
  -23.2336  -24.1776   19.7240 C   0  0  0  0  0  0  0  0  0  0  0  0
  -26.9417  -17.0089   21.2709 N   0  0  0  0  0  0  0  0  0  0  0  0
  -28.0080  -17.8054   21.0847 N   0  0  0  0  0  0  0  0  0  0  0  0
  -29.8132  -24.6476   19.2183 N   0  3  0  0  0  0  0  0  0  0  0  0
  -24.0446  -27.6257   20.2876 N   0  0  0  0  0  0  0  0  0  0  0  0
  -27.4450  -21.5814   21.1742 N   0  0  0  0  0  0  0  0  0  0  0  0
  -31.9761  -23.4019   15.9150 N   0  0  0  0  0  0  0  0  0  0  0  0
  -30.1710  -17.8714   20.1215 N   0  0  0  0  0  0  0  0  0  0  0  0
  -28.7450  -13.6878   19.1944 N   0  0  0  0  0  0  0  0  0  0  0  0
  -28.9263  -22.4444   19.5545 N   0  0  0  0  0  0  0  0  0  0  0  0
  -30.3745  -27.0696   20.4547 N   0  0  0  0  0  0  0  0  0  0  0  0
  -21.5394  -29.1774   22.2990 N   0  0  0  0  0  0  0  0  0  0  0  0
  -24.4061  -25.3471   17.8106 N   0  0  0  0  0  0  0  0  0  0  0  0
  -26.9615  -26.0904   15.3641 N   0  3  0  0  0  0  0  0  0  0  0  0
  -30.4955  -15.1515   18.9667 O   0  0  0  0  0  0  0  0  0  0  0  0
  -30.7204  -27.8641   18.2931 O   0  0  0  0  0  0  0  0  0  0  0  0
  -23.3328  -27.7914   22.8328 O   0  0  0  0  0  0  0  0  0  0  0  0
  -22.2867  -26.9168   18.9299 O   0  0  0  0  0  0  0  0  0  0  0  0
  -26.7079  -25.4143   18.0835 O   0  0  0  0  0  0  0  0  0  0  0  0
  -30.4299  -29.3969   20.6090 O   0  0  0  0  0  0  0  0  0  0  0  0
  -28.0748  -23.8050   21.2294 O   0  0  0  0  0  0  0  0  0  0  0  0
  -23.8232  -11.4962   20.6118 O   0  0  0  0  0  0  0  0  0  0  0  0
  -29.2982  -29.2150   23.1032 O   0  0  0  0  0  0  0  0  0  1  0  0
  -18.5342  -12.4494   19.3783 F   0  0  0  0  0  0  0  0  0  0  0  0
  -22.6362  -10.2872   18.4273 F   0  0  0  0  0  0  0  0  0  0  0  0
  1  2  1  0  0  0  0
  1  5  2  0  0  0  0
  2  6  2  0  0  0  0
  3  8  2  0  0  0  0
  3 17  1  0  0  0  0
  4  9  1  0  0  0  0
  4 17  2  0  0  0  0
  5 19  1  0  0  0  0
  6 21  1  0  0  0  0
  7 10  2  0  0  0  0
  7 20  1  0  0  0  0
  8 24  1  0  0  0  0
  9 24  2  0  0  0  0
 10 25  1  0  0  0  0
 11 12  2  0  0  0  0
 11 26  1  0  0  0  0
 12 27  1  0  0  0  0
 13 22  1  0  0  0  0
 13 25  2  0  0  0  0
 14 23  2  0  0  0  0
 14 30  1  0  0  0  0
 15 23  1  0  0  0  0
 15 32  2  0  0  0  0
 16 27  2  0  0  0  0
 16 28  1  0  0  0  0
 17 29  1  0  0  0  0
 18 29  1  0  0  0  0
 18 31  2  0  0  0  0
 18 33  1  0  0  0  0
 19 21  2  0  0  0  0
 19 40  1  0  0  0  0
 20 22  2  0  0  0  0
 20 41  1  0  0  0  0
 21 49  1  0  0  0  0
 22 42  1  0  0  0  0
 23 67  1  0  0  0  0
 24 82  1  0  0  0  0
 25 83  1  0  0  0  0
 26 28  2  0  0  0  0
 26 82  1  0  0  0  0
 27 84  1  0  0  0  0
 28 85  1  0  0  0  0
 29 62  2  0  0  0  0
 30 34  1  0  0  0  0
 30 64  2  0  0  0  0
 31 63  1  0  0  0  0
 31 68  1  0  0  0  0
 32 64  1  0  0  0  0
 32 70  1  0  0  0  0
 33 69  1  0  0  0  0
 33 75  2  0  0  0  0
 34 71  1  0  0  0  0
 34 76  2  0  0  0  0
 35 50  1  0  0  0  0
 35 72  1  0  0  0  0
 35 77  2  0  0  0  0
 36 58  1  0  0  0  0
 36 65  1  0  0  0  0
 36 78  2  0  0  0  0
 37 59  1  0  0  0  0
 37 73  1  0  0  0  0
 37 79  2  0  0  0  0
 38 60  1  0  0  0  0
 38 71  1  0  0  0  0
 38 80  2  0  0  0  0
 39 66  1  0  0  0  0
 39 70  1  0  0  0  0
 39 81  2  0  0  0  0
 40 43  1  0  0  0  0
 41 50  1  0  0  0  0
 42 65  1  0  0  0  0
 43 45  1  0  0  0  0
 44 46  1  0  0  0  0
 44 47  1  0  0  0  0
 45 49  1  0  0  0  0
 46 51  1  0  0  0  0
 47 66  1  0  0  0  0
 48 51  1  0  0  0  0
 48 66  1  0  0  0  0
 49 72  1  0  0  0  0
 50 65  1  0  0  0  0
 51 63  1  0  0  0  0
 52 59  1  0  0  0  0
 53 60  1  0  0  0  0
 54 61  1  0  0  0  0
 55 61  1  0  0  0  0
 56 61  1  0  0  0  0
 57 74  1  0  0  0  0
 58 61  1  0  0  0  0
 58 73  1  0  0  0  0
 59 74  1  0  0  0  0
 60 83  1  0  0  0  0
 62 63  1  0  0  0  0
M  CHG  2  64   1  74   1
M  ISO  4  39 100  60 101  70 100  83 101
M  END
> <Batch ID>
0168

> <Smiles>
CNC(C)C(=O)NC(C(=O)N1Cc2cc([101O:1][101CH:1](C)C(=O)NC(=O)c3cc(N)cc([100NH:0][100C:0](=O)N4CCCC(n5nc(-c6ccc(Oc7ccc(F)cc7F)cc6)c(C(N)=O)c5N)C4)n3)ccc2CC1C(=O)NC1CCCc2ccccc21)C(C)(C)C

> <Shape>
0.272

> <Color>
0.051

> <Negative vol penalty>
0.000

$$$$

  -OEChem-04052304143D

 85 93  0     1  0  0  0  0  0999 V2000
  -37.2247  -29.1507   16.3055 C   0  0  0  0  0  0  0  0  0  0  0  0
  -36.5973  -28.9707   17.5340 C   0  0  0  0  0  0  0  0  0  0  0  0
  -23.0732   -9.8697   19.9426 C   0  0  0  0  0  0  0  0  0  0  0  0
  -23.8311   -9.8785   22.2367 C   0  0  0  0  0  0  0  0  0  0  0  0
  -30.4659  -18.3416   24.0427 C   0  0  0  0  0  0  0  0  0  0  0  0
  -37.4488  -28.0562   15.4715 C   0  0  0  0  0  0  0  0  0  0  0  0
  -36.1924  -27.6961   17.9288 C   0  0  0  0  0  0  0  0  0  0  0  0
  -36.1643  -25.4408   23.6225 C   0  0  0  0  0  0  0  0  0  0  0  0
  -29.8793  -17.4568   23.1379 C   0  0  0  0  0  0  0  0  0  0  0  0
  -22.3281   -8.7175   20.1931 C   0  0  0  0  0  0  0  0  0  0  0  0
  -23.0859   -8.7263   22.4872 C   0  0  0  0  0  0  0  0  0  0  0  0
  -35.1529  -25.3046   24.5725 C   0  0  0  0  0  0  0  0  0  0  0  0
  -22.8973   -5.3989   20.4881 C   0  0  0  0  0  0  0  0  0  0  0  0
  -22.9641   -4.3682   19.5506 C   0  0  0  0  0  0  0  0  0  0  0  0
  -34.8017  -23.0259   23.8630 C   0  0  0  0  0  0  0  0  0  0  0  0
  -32.0638  -16.6067   22.5528 C   0  0  0  0  0  0  0  0  0  0  0  0
  -20.5800   -4.5357   19.1966 C   0  0  0  0  0  0  0  0  0  0  0  0
  -23.8247  -10.4502   20.9644 C   0  0  0  0  0  0  0  0  0  0  0  0
  -31.8515  -18.3590   24.2025 C   0  0  0  0  0  0  0  0  0  0  0  0
  -24.1689  -12.9750   20.8420 C   0  0  0  0  0  0  0  0  0  0  0  0
  -37.0552  -26.7660   15.8604 C   0  0  0  0  0  0  0  0  0  0  0  0
  -36.4951  -24.3722   22.7769 C   0  0  0  0  0  0  0  0  0  0  0  0
  -36.4103  -26.5834   17.0986 C   0  0  0  0  0  0  0  0  0  0  0  0
  -35.8193  -23.1503   22.9049 C   0  0  0  0  0  0  0  0  0  0  0  0
  -30.6782  -16.5894   22.3930 C   0  0  0  0  0  0  0  0  0  0  0  0
  -22.3344   -8.1458   21.4654 C   0  0  0  0  0  0  0  0  0  0  0  0
  -34.4695  -24.0980   24.6909 C   0  0  0  0  0  0  0  0  0  0  0  0
  -21.6718   -5.9979   20.7799 C   0  0  0  0  0  0  0  0  0  0  0  0
  -21.8055   -3.9367   18.9048 C   0  0  0  0  0  0  0  0  0  0  0  0
  -32.6504  -17.4916   23.4576 C   0  0  0  0  0  0  0  0  0  0  0  0
  -20.5132   -5.5664   20.1341 C   0  0  0  0  0  0  0  0  0  0  0  0
  -24.5951  -11.6402   20.7061 C   0  0  0  0  0  0  0  0  0  0  0  0
  -25.2620  -13.7231   20.4789 C   0  0  0  0  0  0  0  0  0  0  0  0
  -32.4698  -19.2977   25.1611 C   0  0  0  0  0  0  0  0  0  0  0  0
  -22.8985  -13.4923   21.2592 C   0  0  0  0  0  0  0  0  0  0  0  0
  -36.4337  -23.8963   19.6347 C   0  0  0  0  0  0  0  0  0  0  0  0
  -37.8889  -21.1061   20.4217 C   0  0  0  0  0  0  0  0  0  0  0  0
  -38.4814  -18.7123   22.7808 C   0  0  0  0  0  0  0  0  0  0  0  0
  -32.7946  -21.6777   25.7986 C   0  0  0  0  0  0  0  0  0  0  0  0
  -30.7289  -14.7641   20.6574 C   0  0  0  0  0  0  0  0  0  0  0  0
  -37.2762  -25.6206   14.9045 C   0  0  0  0  0  0  0  0  0  0  0  0
  -37.6067  -24.5267   21.7754 C   0  0  0  0  0  0  0  0  0  0  0  0
  -36.1502  -21.9662   22.0349 C   0  0  0  0  0  0  0  0  0  0  0  0
  -37.1537  -24.2476   15.5604 C   0  0  0  0  0  0  0  0  0  0  0  0
  -29.6146  -12.3488   18.2907 C   0  0  0  0  0  0  0  0  0  0  0  0
  -35.9073  -24.1843   16.4375 C   0  0  0  0  0  0  0  0  0  0  0  0
  -28.1743  -12.0589   18.7193 C   0  0  0  0  0  0  0  0  0  0  0  0
  -30.5288  -12.5781   19.4929 C   0  0  0  0  0  0  0  0  0  0  0  0
  -28.6212  -13.3056   20.8717 C   0  0  0  0  0  0  0  0  0  0  0  0
  -35.9788  -25.2126   17.5728 C   0  0  1  0  0  0  0  0  0  0  0  0
  -37.5107  -23.5366   20.6188 C   0  0  1  0  0  0  0  0  0  0  0  0
  -27.6493  -13.1320   19.6932 C   0  0  2  0  0  0  0  0  0  0  0  0
  -39.6776  -16.5322   23.1180 C   0  0  0  0  0  0  0  0  0  0  0  0
  -31.1582  -23.5518   25.9915 C   0  0  0  0  0  0  0  0  0  0  0  0
  -35.7101  -19.6690   18.8412 C   0  0  0  0  0  0  0  0  0  0  0  0
  -36.3835  -17.5433   19.9798 C   0  0  0  0  0  0  0  0  0  0  0  0
  -38.0121  -18.7452   18.5218 C   0  0  0  0  0  0  0  0  0  0  0  0
  -40.1838  -19.8443   24.9208 C   0  0  0  0  0  0  0  0  0  0  0  0
  -37.4164  -19.7174   20.7784 C   0  0  1  0  0  0  0  0  0  0  0  0
  -39.7660  -18.0456   23.2389 C   0  0  2  0  0  0  0  0  0  0  0  0
  -32.4210  -23.0591   25.3077 C   0  0  1  0  0  0  0  0  0  1  0  0
  -36.8727  -18.9414   19.5455 C   0  0  0  0  0  0  0  0  0  0  0  0
  -25.8602  -11.5428   20.2890 N   0  0  0  0  0  0  0  0  0  0  0  0
  -26.2384  -12.8259   20.1597 N   0  0  0  0  0  0  0  0  0  0  0  0
  -37.2405  -22.1689   21.0665 N   0  0  0  0  0  0  0  0  0  0  0  0
  -29.9699  -13.6103   20.3687 N   0  0  0  0  0  0  0  0  0  0  0  0
  -25.4736  -15.0543   20.4046 N   0  0  0  0  0  0  0  0  0  0  0  0
  -21.8855  -12.5844   21.5965 N   0  0  0  0  0  0  0  0  0  0  0  0
  -30.0816  -15.6906   21.4742 N   0  0  0  0  0  0  0  0  0  0  0  0
  -32.2755  -20.6104   24.9740 N   0  0  0  0  0  0  0  0  0  0  0  0
  -36.8531  -24.7426   18.6260 N   0  0  0  0  0  0  0  0  0  0  0  0
  -38.5358  -19.0650   21.4490 N   0  0  0  0  0  0  0  0  0  0  0  0
  -33.1880  -18.7824   26.1584 N   0  3  0  0  0  0  0  0  0  0  0  0
  -40.0484  -18.3878   24.6616 N   0  3  0  0  0  0  0  0  0  0  0  0
  -22.6632  -14.7232   21.3150 O   0  0  0  0  0  0  0  0  0  0  0  0
  -35.3061  -23.4387   19.7789 O   0  0  0  0  0  0  0  0  0  0  0  0
  -38.8045  -21.2425   19.6065 O   0  0  0  0  0  0  0  0  0  0  0  0
  -37.5240  -18.8981   23.5288 O   0  0  0  0  0  0  0  0  0  0  0  0
  -33.4868  -21.4486   26.7808 O   0  0  0  0  0  0  0  0  0  0  0  0
  -31.8586  -14.9314   20.1906 O   0  0  0  0  0  0  0  0  0  0  0  0
  -21.6073   -7.0216   21.7103 O   0  0  0  0  0  0  0  0  0  0  0  0
  -33.4815  -23.9626   25.6168 O   0  0  0  0  0  0  0  0  0  1  0  0
  -21.8700   -2.9480   18.0034 F   0  0  0  0  0  0  0  0  0  0  0  0
  -33.9829  -17.5023   23.6028 F   0  0  0  0  0  0  0  0  0  0  0  0
  -19.3333   -6.1388   20.4094 F   0  0  0  0  0  0  0  0  0  0  0  0
  1  2  1  0  0  0  0
  1  6  2  0  0  0  0
  2  7  2  0  0  0  0
  3 10  2  0  0  0  0
  3 18  1  0  0  0  0
  4 11  1  0  0  0  0
  4 18  2  0  0  0  0
  5  9  2  0  0  0  0
  5 19  1  0  0  0  0
  6 21  1  0  0  0  0
  7 23  1  0  0  0  0
  8 12  2  0  0  0  0
  8 22  1  0  0  0  0
  9 25  1  0  0  0  0
 10 26  1  0  0  0  0
 11 26  2  0  0  0  0
 12 27  1  0  0  0  0
 13 14  2  0  0  0  0
 13 28  1  0  0  0  0
 14 29  1  0  0  0  0
 15 24  1  0  0  0  0
 15 27  2  0  0  0  0
 16 25  2  0  0  0  0
 16 30  1  0  0  0  0
 17 29  2  0  0  0  0
 17 31  1  0  0  0  0
 18 32  1  0  0  0  0
 19 30  2  0  0  0  0
 19 34  1  0  0  0  0
 20 32  1  0  0  0  0
 20 33  2  0  0  0  0
 20 35  1  0  0  0  0
 21 23  2  0  0  0  0
 21 41  1  0  0  0  0
 22 24  2  0  0  0  0
 22 42  1  0  0  0  0
 23 50  1  0  0  0  0
 24 43  1  0  0  0  0
 25 69  1  0  0  0  0
 26 81  1  0  0  0  0
 27 82  1  0  0  0  0
 28 31  2  0  0  0  0
 28 81  1  0  0  0  0
 29 83  1  0  0  0  0
 30 84  1  0  0  0  0
 31 85  1  0  0  0  0
 32 63  2  0  0  0  0
 33 64  1  0  0  0  0
 33 67  1  0  0  0  0
 34 70  1  0  0  0  0
 34 73  2  0  0  0  0
 35 68  1  0  0  0  0
 35 75  2  0  0  0  0
 36 51  1  0  0  0  0
 36 71  1  0  0  0  0
 36 76  2  0  0  0  0
 37 59  1  0  0  0  0
 37 65  1  0  0  0  0
 37 77  2  0  0  0  0
 38 60  1  0  0  0  0
 38 72  1  0  0  0  0
 38 78  2  0  0  0  0
 39 61  1  0  0  0  0
 39 70  1  0  0  0  0
 39 79  2  0  0  0  0
 40 66  1  0  0  0  0
 40 69  1  0  0  0  0
 40 80  2  0  0  0  0
 41 44  1  0  0  0  0
 42 51  1  0  0  0  0
 43 65  1  0  0  0  0
 44 46  1  0  0  0  0
 45 47  1  0  0  0  0
 45 48  1  0  0  0  0
 46 50  1  0  0  0  0
 47 52  1  0  0  0  0
 48 66  1  0  0  0  0
 49 52  1  0  0  0  0
 49 66  1  0  0  0  0
 50 71  1  0  0  0  0
 51 65  1  0  0  0  0
 52 64  1  0  0  0  0
 53 60  1  0  0  0  0
 54 61  1  0  0  0  0
 55 62  1  0  0  0  0
 56 62  1  0  0  0  0
 57 62  1  0  0  0  0
 58 74  1  0  0  0  0
 59 62  1  0  0  0  0
 59 72  1  0  0  0  0
 60 74  1  0  0  0  0
 61 82  1  0  0  0  0
 63 64  1  0  0  0  0
M  CHG  2  73   1  74   1
M  ISO  4  40 100  61 101  69 100  82 101
M  END
> <Batch ID>
0168

> <Smiles>
CNC(C)C(=O)NC(C(=O)N1Cc2cc([101O:1][101CH:1](C)C(=O)NC(=N)c3ccc([100NH:0][100C:0](=O)N4CCCC(n5nc(-c6ccc(Oc7ccc(F)cc7F)cc6)c(C(N)=O)c5N)C4)cc3F)ccc2CC1C(=O)NC1CCCc2ccccc21)C(C)(C)C

> <Shape>
0.149

> <Color>
0.187

> <Negative vol penalty>
0.000

$$$$

  -OEChem-04052304143D

 85 93  0     1  0  0  0  0  0999 V2000
  -23.4813   -5.8558   23.5557 C   0  0  0  0  0  0  0  0  0  0  0  0
  -24.5855   -5.9459   22.7142 C   0  0  0  0  0  0  0  0  0  0  0  0
  -25.9660  -30.1266   20.0160 C   0  0  0  0  0  0  0  0  0  0  0  0
  -25.0775  -28.9497   21.9297 C   0  0  0  0  0  0  0  0  0  0  0  0
  -22.3959   -6.7118   23.3738 C   0  0  0  0  0  0  0  0  0  0  0  0
  -24.6044   -6.8914   21.6895 C   0  0  0  0  0  0  0  0  0  0  0  0
  -29.7807  -11.8897   21.3510 C   0  0  0  0  0  0  0  0  0  0  0  0
  -27.1687  -20.1097   24.4461 C   0  0  0  0  0  0  0  0  0  0  0  0
  -24.7575  -30.8083   19.8740 C   0  0  0  0  0  0  0  0  0  0  0  0
  -23.8689  -29.6315   21.7879 C   0  0  0  0  0  0  0  0  0  0  0  0
  -30.8535  -12.7450   21.0984 C   0  0  0  0  0  0  0  0  0  0  0  0
  -22.6331  -32.6879   22.5308 C   0  0  0  0  0  0  0  0  0  0  0  0
  -22.0470  -33.2115   23.6832 C   0  0  0  0  0  0  0  0  0  0  0  0
  -27.3454  -21.1900   23.5888 C   0  0  0  0  0  0  0  0  0  0  0  0
  -29.6957  -13.6468   19.1764 C   0  0  0  0  0  0  0  0  0  0  0  0
  -20.0869  -31.8507   23.3046 C   0  0  0  0  0  0  0  0  0  0  0  0
  -26.1260  -29.1972   21.0438 C   0  0  0  0  0  0  0  0  0  0  0  0
  -28.4896  -28.8882   21.9523 C   0  0  0  0  0  0  0  0  0  0  0  0
  -22.4057   -7.6748   22.3524 C   0  0  0  0  0  0  0  0  0  0  0  0
  -28.6535  -11.9206   20.5253 C   0  0  0  0  0  0  0  0  0  0  0  0
  -23.5176   -7.7602   21.4929 C   0  0  0  0  0  0  0  0  0  0  0  0
  -28.6129  -12.8012   19.4318 C   0  0  0  0  0  0  0  0  0  0  0  0
  -27.6996  -18.8691   24.1108 C   0  0  0  0  0  0  0  0  0  0  0  0
  -23.7089  -30.5609   20.7600 C   0  0  0  0  0  0  0  0  0  0  0  0
  -30.8111  -13.6212   20.0137 C   0  0  0  0  0  0  0  0  0  0  0  0
  -21.9460  -31.7457   21.7653 C   0  0  0  0  0  0  0  0  0  0  0  0
  -20.7739  -32.7930   24.0701 C   0  0  0  0  0  0  0  0  0  0  0  0
  -20.6730  -31.3271   22.1523 C   0  0  0  0  0  0  0  0  0  0  0  0
  -27.3740  -28.4921   21.1905 C   0  0  0  0  0  0  0  0  0  0  0  0
  -28.0550  -20.9792   22.4176 C   0  0  0  0  0  0  0  0  0  0  0  0
  -28.3932  -18.7622   22.9161 C   0  0  0  0  0  0  0  0  0  0  0  0
  -29.4083  -27.8849   21.7630 C   0  0  0  0  0  0  0  0  0  0  0  0
  -28.6786  -30.0583   22.7590 C   0  0  0  0  0  0  0  0  0  0  0  0
  -25.2386  -10.5516   19.7902 C   0  0  0  0  0  0  0  0  0  0  0  0
  -31.1445  -17.5282   21.6024 C   0  0  0  0  0  0  0  0  0  0  0  0
  -25.1067  -13.5790   19.3126 C   0  0  0  0  0  0  0  0  0  0  0  0
  -25.2234  -16.6814   19.8264 C   0  0  0  0  0  0  0  0  0  0  0  0
  -28.9047  -22.1056   20.3306 C   0  0  0  0  0  0  0  0  0  0  0  0
  -21.1892   -8.5464   22.1649 C   0  0  0  0  0  0  0  0  0  0  0  0
  -27.5008  -10.9741   20.7233 C   0  0  0  0  0  0  0  0  0  0  0  0
  -27.3944  -12.7754   18.5501 C   0  0  0  0  0  0  0  0  0  0  0  0
  -21.4464   -9.7713   21.2909 C   0  0  0  0  0  0  0  0  0  0  0  0
  -30.7440  -24.5862   18.5584 C   0  0  0  0  0  0  0  0  0  0  0  0
  -22.2145   -9.3779   20.0331 C   0  0  0  0  0  0  0  0  0  0  0  0
  -30.1944  -25.9054   19.1060 C   0  0  0  0  0  0  0  0  0  0  0  0
  -29.6520  -23.5253   18.4330 C   0  0  0  0  0  0  0  0  0  0  0  0
  -28.3233  -24.6079   20.2026 C   0  0  0  0  0  0  0  0  0  0  0  0
  -23.5860   -8.7895   20.3856 C   0  0  1  0  0  0  0  0  0  0  0  0
  -26.1388  -11.6004   20.3742 C   0  0  1  0  0  0  0  0  0  0  0  0
  -29.3988  -25.6872   20.4079 C   0  0  2  0  0  0  0  0  0  0  0  0
  -24.4925  -19.0552   19.4681 C   0  0  0  0  0  0  0  0  0  0  0  0
  -25.3508  -13.0945   16.3110 C   0  0  0  0  0  0  0  0  0  0  0  0
  -24.8281  -15.5161   15.9495 C   0  0  0  0  0  0  0  0  0  0  0  0
  -23.1492  -14.0291   17.0416 C   0  0  0  0  0  0  0  0  0  0  0  0
  -24.5219  -17.0186   22.6818 C   0  0  0  0  0  0  0  0  0  0  0  0
  -32.0466  -17.3094   20.3960 C   0  0  0  0  0  0  0  0  0  0  0  0
  -29.6686  -17.2832   21.3631 C   0  0  0  0  0  0  0  0  0  0  0  0
  -33.1539  -16.2868   20.6310 C   0  0  0  0  0  0  0  0  0  0  0  0
  -32.6156  -14.8877   20.9066 C   0  0  0  0  0  0  0  0  0  1  0  0
  -25.2208  -14.7093   18.3214 C   0  0  1  0  0  0  0  0  0  0  0  0
  -24.3296  -17.8053   20.3190 C   0  0  2  0  0  0  0  0  0  0  0  0
  -24.6592  -14.3295   16.9222 C   0  0  0  0  0  0  0  0  0  0  0  0
  -27.5645  -27.3281   20.5638 N   0  0  0  0  0  0  0  0  0  0  0  0
  -28.5854  -19.7889   22.0578 N   0  0  0  0  0  0  0  0  0  0  0  0
  -28.8106  -26.9841   20.9314 N   0  0  0  0  0  0  0  0  0  0  0  0
  -26.1795  -12.6813   19.3746 N   0  0  0  0  0  0  0  0  0  0  0  0
  -28.9438  -23.3699   19.7054 N   0  0  0  0  0  0  0  0  0  0  0  0
  -27.5198  -17.7742   24.9767 N   0  0  0  0  0  0  0  0  0  0  0  0
  -30.6611  -27.6941   22.2283 N   0  0  0  0  0  0  0  0  0  0  0  0
  -27.6327  -30.9874   22.8438 N   0  0  0  0  0  0  0  0  0  0  0  0
  -28.2309  -22.0867   21.5513 N   0  0  0  0  0  0  0  0  0  0  0  0
  -28.9275  -17.5282   22.5740 N   0  0  0  0  0  0  0  0  0  0  0  0
  -24.5148   -9.8442   20.7310 N   0  0  0  0  0  0  0  0  0  0  0  0
  -24.5660  -15.8590   18.9361 N   0  0  0  0  0  0  0  0  0  0  0  0
  -24.6619  -18.1507   21.7301 N   0  3  0  0  0  0  0  0  0  0  0  0
  -29.7494  -30.2816   23.3730 O   0  0  0  0  0  0  0  0  0  0  0  0
  -25.2014  -10.3956   18.5753 O   0  0  0  0  0  0  0  0  0  0  0  0
  -31.5825  -17.9052   22.6885 O   0  0  0  0  0  0  0  0  0  0  0  0
  -24.0926  -13.4887   20.0103 O   0  0  0  0  0  0  0  0  0  0  0  0
  -26.3893  -16.5487   20.1919 O   0  0  0  0  0  0  0  0  0  0  0  0
  -29.4535  -21.1187   19.8338 O   0  0  0  0  0  0  0  0  0  0  0  0
  -22.5296  -31.2262   20.6220 O   0  0  0  0  0  0  0  0  0  0  0  0
  -31.8599  -14.4567   19.7755 O   0  0  0  0  0  0  0  0  0  1  0  0
  -20.2119  -33.2947   25.1776 F   0  0  0  0  0  0  0  0  0  0  0  0
  -20.0085  -30.4214   21.4215 F   0  0  0  0  0  0  0  0  0  0  0  0
  1  2  1  0  0  0  0
  1  5  2  0  0  0  0
  2  6  2  0  0  0  0
  3  9  2  0  0  0  0
  3 17  1  0  0  0  0
  4 10  1  0  0  0  0
  4 17  2  0  0  0  0
  5 19  1  0  0  0  0
  6 21  1  0  0  0  0
  7 11  2  0  0  0  0
  7 20  1  0  0  0  0
  8 14  2  0  0  0  0
  8 23  1  0  0  0  0
  9 24  1  0  0  0  0
 10 24  2  0  0  0  0
 11 25  1  0  0  0  0
 12 13  2  0  0  0  0
 12 26  1  0  0  0  0
 13 27  1  0  0  0  0
 14 30  1  0  0  0  0
 15 22  1  0  0  0  0
 15 25  2  0  0  0  0
 16 27  2  0  0  0  0
 16 28  1  0  0  0  0
 17 29  1  0  0  0  0
 18 29  1  0  0  0  0
 18 32  2  0  0  0  0
 18 33  1  0  0  0  0
 19 21  2  0  0  0  0
 19 39  1  0  0  0  0
 20 22  2  0  0  0  0
 20 40  1  0  0  0  0
 21 48  1  0  0  0  0
 22 41  1  0  0  0  0
 23 31  2  0  0  0  0
 23 68  1  0  0  0  0
 24 82  1  0  0  0  0
 25 83  1  0  0  0  0
 26 28  2  0  0  0  0
 26 82  1  0  0  0  0
 27 84  1  0  0  0  0
 28 85  1  0  0  0  0
 29 63  2  0  0  0  0
 30 64  2  0  0  0  0
 30 71  1  0  0  0  0
 31 64  1  0  0  0  0
 31 72  1  0  0  0  0
 32 65  1  0  0  0  0
 32 69  1  0  0  0  0
 33 70  1  0  0  0  0
 33 76  2  0  0  0  0
 34 49  1  0  0  0  0
 34 73  1  0  0  0  0
 34 77  2  0  0  0  0
 35 56  1  0  0  0  0
 35 57  1  0  0  0  0
 35 78  2  0  0  0  0
 36 60  1  0  0  0  0
 36 66  1  0  0  0  0
 36 79  2  0  0  0  0
 37 61  1  0  0  0  0
 37 74  1  0  0  0  0
 37 80  2  0  0  0  0
 38 67  1  0  0  0  0
 38 71  1  0  0  0  0
 38 81  2  0  0  0  0
 39 42  1  0  0  0  0
 40 49  1  0  0  0  0
 41 66  1  0  0  0  0
 42 44  1  0  0  0  0
 43 45  1  0  0  0  0
 43 46  1  0  0  0  0
 44 48  1  0  0  0  0
 45 50  1  0  0  0  0
 46 67  1  0  0  0  0
 47 50  1  0  0  0  0
 47 67  1  0  0  0  0
 48 73  1  0  0  0  0
 49 66  1  0  0  0  0
 50 65  1  0  0  0  0
 51 61  1  0  0  0  0
 52 62  1  0  0  0  0
 53 62  1  0  0  0  0
 54 62  1  0  0  0  0
 55 75  1  0  0  0  0
 56 58  1  0  0  0  0
 57 72  1  0  0  0  0
 58 59  1  0  0  0  0
 59 83  1  0  0  0  0
 60 62  1  0  0  0  0
 60 74  1  0  0  0  0
 61 75  1  0  0  0  0
 63 65  1  0  0  0  0
M  CHG  1  75   1
M  ISO  4  38 100  59 101  71 100  83 101
M  END
> <Batch ID>
0168

> <Smiles>
CNC(C)C(=O)NC(C(=O)N1Cc2cc([101O:1][101CH2:1]CCC(=O)CNc3nc([100NH:0][100C:0](=O)N4CCCC(n5nc(-c6ccc(Oc7ccc(F)cc7F)cc6)c(C(N)=O)c5N)C4)ccc3N)ccc2CC1C(=O)NC1CCCc2ccccc21)C(C)(C)C

> <Shape>
0.274

> <Color>
0.065

> <Negative vol penalty>
0.000

$$$$

  -OEChem-04052304143D

 83 91  0     1  0  0  0  0  0999 V2000
  -21.5095  -31.2854   14.5877 C   0  0  0  0  0  0  0  0  0  0  0  0
  -22.7353  -30.8401   15.0720 C   0  0  0  0  0  0  0  0  0  0  0  0
  -26.8368  -11.5830   21.0741 C   0  0  0  0  0  0  0  0  0  0  0  0
  -26.4673  -12.3960   18.8292 C   0  0  0  0  0  0  0  0  0  0  0  0
  -20.8142  -32.2847   15.2673 C   0  0  0  0  0  0  0  0  0  0  0  0
  -23.2670  -31.3946   16.2357 C   0  0  0  0  0  0  0  0  0  0  0  0
  -25.1171  -27.8897   19.3882 C   0  0  0  0  0  0  0  0  0  0  0  0
  -25.7214  -10.7537   20.9573 C   0  0  0  0  0  0  0  0  0  0  0  0
  -25.3519  -11.5666   18.7124 C   0  0  0  0  0  0  0  0  0  0  0  0
  -26.3669  -27.3535   19.0813 C   0  0  0  0  0  0  0  0  0  0  0  0
  -24.7314   -8.2996   18.1110 C   0  0  0  0  0  0  0  0  0  0  0  0
  -24.5886   -7.5704   16.9306 C   0  0  0  0  0  0  0  0  0  0  0  0
  -27.3872  -28.8187   20.7034 C   0  0  0  0  0  0  0  0  0  0  0  0
  -22.4775   -8.6667   16.5085 C   0  0  0  0  0  0  0  0  0  0  0  0
  -28.3363  -20.3075   16.7166 C   0  0  0  0  0  0  0  0  0  0  0  0
  -27.2097  -12.4043   20.0100 C   0  0  0  0  0  0  0  0  0  0  0  0
  -29.6930  -12.9483   19.7974 C   0  0  0  0  0  0  0  0  0  0  0  0
  -21.3330  -32.8449   16.4453 C   0  0  0  0  0  0  0  0  0  0  0  0
  -24.9942  -28.9039   20.3488 C   0  0  0  0  0  0  0  0  0  0  0  0
  -22.5786  -32.4032   16.9310 C   0  0  0  0  0  0  0  0  0  0  0  0
  -26.1344  -29.3644   21.0225 C   0  0  0  0  0  0  0  0  0  0  0  0
  -24.9789  -10.7455   19.7765 C   0  0  0  0  0  0  0  0  0  0  0  0
  -27.5026  -27.8200   19.7369 C   0  0  0  0  0  0  0  0  0  0  0  0
  -23.7471   -9.2123   18.4903 C   0  0  0  0  0  0  0  0  0  0  0  0
  -23.4617   -7.7539   16.1293 C   0  0  0  0  0  0  0  0  0  0  0  0
  -22.6202   -9.3959   17.6890 C   0  0  0  0  0  0  0  0  0  0  0  0
  -28.3615  -13.2616   20.1303 C   0  0  0  0  0  0  0  0  0  0  0  0
  -28.6052  -20.6078   18.0356 C   0  0  0  0  0  0  0  0  0  0  0  0
  -30.3985  -14.0889   20.0935 C   0  0  0  0  0  0  0  0  0  0  0  0
  -28.8041  -22.6223   17.1916 C   0  0  0  0  0  0  0  0  0  0  0  0
  -30.2429  -11.7346   19.2679 C   0  0  0  0  0  0  0  0  0  0  0  0
  -29.4637  -26.3260   17.4118 C   0  0  0  0  0  0  0  0  0  0  0  0
  -29.1748  -27.4108   18.1536 C   0  0  0  0  0  0  0  0  0  1  0  0
  -29.3304  -24.9473   17.9906 C   0  0  0  0  0  0  0  0  0  0  0  0
  -23.9922  -31.9202   20.3106 C   0  0  0  0  0  0  0  0  0  0  0  0
  -24.4057  -31.6892   23.5196 C   0  0  0  0  0  0  0  0  0  0  0  0
  -25.9612  -30.1471   26.1367 C   0  0  0  0  0  0  0  0  0  0  0  0
  -28.8788  -19.8583   20.4251 C   0  0  0  0  0  0  0  0  0  0  0  0
  -20.5675  -33.9559   17.1192 C   0  0  0  0  0  0  0  0  0  0  0  0
  -23.6355  -29.4531   20.6876 C   0  0  0  0  0  0  0  0  0  0  0  0
  -26.0536  -30.4374   22.0764 C   0  0  0  0  0  0  0  0  0  0  0  0
  -21.0223  -34.2278   18.5508 C   0  0  0  0  0  0  0  0  0  0  0  0
  -30.3259  -17.8854   23.0118 C   0  0  0  0  0  0  0  0  0  0  0  0
  -22.5445  -34.2952   18.6236 C   0  0  0  0  0  0  0  0  0  0  0  0
  -30.1129  -16.4474   22.5332 C   0  0  0  0  0  0  0  0  0  0  0  0
  -29.1448  -18.7843   22.6501 C   0  0  0  0  0  0  0  0  0  0  0  0
  -28.5495  -17.3286   20.7538 C   0  0  0  0  0  0  0  0  0  0  0  0
  -23.1764  -32.9626   18.2037 C   0  0  1  0  0  0  0  0  0  0  0  0
  -23.6921  -30.8430   21.3141 C   0  0  1  0  0  0  0  0  0  0  0  0
  -29.7415  -16.4003   21.0380 C   0  0  2  0  0  0  0  0  0  0  0  0
  -29.2946  -28.8211   17.6542 C   0  0  0  0  0  0  0  0  0  0  0  0
  -26.1252  -30.2018   28.6402 C   0  0  0  0  0  0  0  0  0  0  0  0
  -26.1528  -34.1848   23.3482 C   0  0  0  0  0  0  0  0  0  0  0  0
  -27.0317  -33.6413   25.6286 C   0  0  0  0  0  0  0  0  0  0  0  0
  -24.6056  -34.1274   25.3122 C   0  0  0  0  0  0  0  0  0  0  0  0
  -24.9564  -27.3739   26.3790 C   0  0  0  0  0  0  0  0  0  0  0  0
  -25.5512  -31.9389   24.4706 C   0  0  1  0  0  0  0  0  0  0  0  0
  -25.4220  -29.5865   27.4404 C   0  0  2  0  0  0  0  0  0  0  0  0
  -25.8374  -33.4542   24.6687 C   0  0  0  0  0  0  0  0  0  0  0  0
  -28.2266  -14.5040   20.6019 N   0  0  0  0  0  0  0  0  0  0  0  0
  -28.8741  -21.9346   18.3098 N   0  0  0  0  0  0  0  0  0  0  0  0
  -29.4824  -14.9813   20.5676 N   0  0  0  0  0  0  0  0  0  0  0  0
  -24.7036  -30.9472   22.3678 N   0  0  0  0  0  0  0  0  0  0  0  0
  -28.8534  -18.6914   21.2179 N   0  0  0  0  0  0  0  0  0  0  0  0
  -31.7068  -14.4056   19.9921 N   0  0  0  0  0  0  0  0  0  0  0  0
  -29.3771  -10.6603   19.0221 N   0  0  0  0  0  0  0  0  0  0  0  0
  -28.6182  -19.6420   19.0723 N   0  0  0  0  0  0  0  0  0  0  0  0
  -29.0098  -24.0125   17.0154 N   0  0  0  0  0  0  0  0  0  0  0  0
  -23.0785  -31.9965   19.2767 N   0  0  0  0  0  0  0  0  0  0  0  0
  -25.2228  -31.2270   25.7010 N   0  0  0  0  0  0  0  0  0  0  0  0
  -25.6157  -28.1096   27.4885 N   0  3  0  0  0  0  0  0  0  0  0  0
  -31.4683  -11.6012   19.0355 O   0  0  0  0  0  0  0  0  0  0  0  0
  -29.4968  -24.7505   19.1892 O   0  0  0  0  0  0  0  0  0  0  0  0
  -24.9789  -32.6307   20.4637 O   0  0  0  0  0  0  0  0  0  0  0  0
  -23.2863  -32.1299   23.7922 O   0  0  0  0  0  0  0  0  0  0  0  0
  -26.9417  -29.6766   25.5642 O   0  0  0  0  0  0  0  0  0  0  0  0
  -29.1412  -20.9638   20.9057 O   0  0  0  0  0  0  0  0  0  0  0  0
  -29.8984  -26.4469   16.1053 O   0  0  0  0  0  0  0  0  0  0  0  0
  -23.8906   -9.9361   19.6621 O   0  0  0  0  0  0  0  0  0  0  0  0
  -28.7238  -27.2987   19.4388 O   0  0  0  0  0  0  0  0  0  1  0  0
  -23.3256   -7.0547   14.9950 F   0  0  0  0  0  0  0  0  0  0  0  0
  -21.6719  -10.2722   18.0476 F   0  0  0  0  0  0  0  0  0  0  0  0
  -28.4189  -21.7371   15.7728 S   0  0  0  0  0  0  0  0  0  0  0  0
  1  2  1  0  0  0  0
  1  5  2  0  0  0  0
  2  6  2  0  0  0  0
  3  8  2  0  0  0  0
  3 16  1  0  0  0  0
  4  9  1  0  0  0  0
  4 16  2  0  0  0  0
  5 18  1  0  0  0  0
  6 20  1  0  0  0  0
  7 10  2  0  0  0  0
  7 19  1  0  0  0  0
  8 22  1  0  0  0  0
  9 22  2  0  0  0  0
 10 23  1  0  0  0  0
 11 12  2  0  0  0  0
 11 24  1  0  0  0  0
 12 25  1  0  0  0  0
 13 21  1  0  0  0  0
 13 23  2  0  0  0  0
 14 25  2  0  0  0  0
 14 26  1  0  0  0  0
 15 28  2  0  0  0  0
 15 83  1  0  0  0  0
 16 27  1  0  0  0  0
 17 27  1  0  0  0  0
 17 29  2  0  0  0  0
 17 31  1  0  0  0  0
 18 20  2  0  0  0  0
 18 39  1  0  0  0  0
 19 21  2  0  0  0  0
 19 40  1  0  0  0  0
 20 48  1  0  0  0  0
 21 41  1  0  0  0  0
 22 79  1  0  0  0  0
 23 80  1  0  0  0  0
 24 26  2  0  0  0  0
 24 79  1  0  0  0  0
 25 81  1  0  0  0  0
 26 82  1  0  0  0  0
 27 60  2  0  0  0  0
 28 61  1  0  0  0  0
 28 67  1  0  0  0  0
 29 62  1  0  0  0  0
 29 65  1  0  0  0  0
 30 61  2  0  0  0  0
 30 68  1  0  0  0  0
 30 83  1  0  0  0  0
 31 66  1  0  0  0  0
 31 72  2  0  0  0  0
 32 33  2  0  0  0  0
 32 34  1  0  0  0  0
 32 78  1  0  0  0  0
 33 51  1  0  0  0  0
 33 80  1  0  0  0  0
 34 68  1  0  0  0  0
 34 73  2  0  0  0  0
 35 49  1  0  0  0  0
 35 69  1  0  0  0  0
 35 74  2  0  0  0  0
 36 57  1  0  0  0  0
 36 63  1  0  0  0  0
 36 75  2  0  0  0  0
 37 58  1  0  0  0  0
 37 70  1  0  0  0  0
 37 76  2  0  0  0  0
 38 64  1  0  0  0  0
 38 67  1  0  0  0  0
 38 77  2  0  0  0  0
 39 42  1  0  0  0  0
 40 49  1  0  0  0  0
 41 63  1  0  0  0  0
 42 44  1  0  0  0  0
 43 45  1  0  0  0  0
 43 46  1  0  0  0  0
 44 48  1  0  0  0  0
 45 50  1  0  0  0  0
 46 64  1  0  0  0  0
 47 50  1  0  0  0  0
 47 64  1  0  0  0  0
 48 69  1  0  0  0  0
 49 63  1  0  0  0  0
 50 62  1  0  0  0  0
 52 58  1  0  0  0  0
 53 59  1  0  0  0  0
 54 59  1  0  0  0  0
 55 59  1  0  0  0  0
 56 71  1  0  0  0  0
 57 59  1  0  0  0  0
 57 70  1  0  0  0  0
 58 71  1  0  0  0  0
 60 62  1  0  0  0  0
M  CHG  1  71   1
M  ISO  4  33 101  38 100  67 100  80 101
M  END
> <Batch ID>
0168

> <Smiles>
CNC(C)C(=O)NC(C(=O)N1Cc2cc([101O:1][101CH:1](C)C(=O)C(=O)Nc3nc([100NH:0][100C:0](=O)N4CCCC(n5nc(-c6ccc(Oc7ccc(F)cc7F)cc6)c(C(N)=O)c5N)C4)cs3)ccc2CC1C(=O)NC1CCCc2ccccc21)C(C)(C)C

> <Shape>
0.280

> <Color>
0.096

> <Negative vol penalty>
0.000

$$$$

  -OEChem-04052304143D

 86 94  0     1  0  0  0  0  0999 V2000
  -18.7946  -28.0939   21.4095 C   0  0  0  0  0  0  0  0  0  0  0  0
  -19.6588  -27.0216   21.6064 C   0  0  0  0  0  0  0  0  0  0  0  0
  -23.1140   -9.7582   19.9366 C   0  0  0  0  0  0  0  0  0  0  0  0
  -23.7864   -9.8621   22.2548 C   0  0  0  0  0  0  0  0  0  0  0  0
  -18.6456  -29.0595   22.4042 C   0  0  0  0  0  0  0  0  0  0  0  0
  -20.3754  -26.9149   22.7979 C   0  0  0  0  0  0  0  0  0  0  0  0
  -21.8922  -21.7579   25.7322 C   0  0  0  0  0  0  0  0  0  0  0  0
  -22.3874   -8.5969   20.1994 C   0  0  0  0  0  0  0  0  0  0  0  0
  -23.0598   -8.7008   22.5176 C   0  0  0  0  0  0  0  0  0  0  0  0
  -23.0663  -21.0067   25.7628 C   0  0  0  0  0  0  0  0  0  0  0  0
  -23.4464   -5.3695   22.0887 C   0  0  0  0  0  0  0  0  0  0  0  0
  -24.0573   -4.3844   22.8645 C   0  0  0  0  0  0  0  0  0  0  0  0
  -23.7307  -22.1387   27.7868 C   0  0  0  0  0  0  0  0  0  0  0  0
  -29.6188  -17.6136   23.1143 C   0  0  0  0  0  0  0  0  0  0  0  0
  -31.5299  -18.5978   24.2169 C   0  0  0  0  0  0  0  0  0  0  0  0
  -31.8420  -16.7974   22.6364 C   0  0  0  0  0  0  0  0  0  0  0  0
  -22.2892   -4.5759   24.4999 C   0  0  0  0  0  0  0  0  0  0  0  0
  -23.8136  -10.3908   20.9644 C   0  0  0  0  0  0  0  0  0  0  0  0
  -24.1027  -12.9178   20.7682 C   0  0  0  0  0  0  0  0  0  0  0  0
  -19.3534  -28.9594   23.6123 C   0  0  0  0  0  0  0  0  0  0  0  0
  -21.6331  -22.7144   26.7244 C   0  0  0  0  0  0  0  0  0  0  0  0
  -20.2367  -27.8807   23.8091 C   0  0  0  0  0  0  0  0  0  0  0  0
  -22.5513  -22.8989   27.7680 C   0  0  0  0  0  0  0  0  0  0  0  0
  -30.1518  -18.5418   24.0087 C   0  0  0  0  0  0  0  0  0  0  0  0
  -30.4639  -16.7413   22.4282 C   0  0  0  0  0  0  0  0  0  0  0  0
  -22.3603   -8.0682   21.4899 C   0  0  0  0  0  0  0  0  0  0  0  0
  -23.9871  -21.1991   26.7886 C   0  0  0  0  0  0  0  0  0  0  0  0
  -22.2569   -5.9579   22.5185 C   0  0  0  0  0  0  0  0  0  0  0  0
  -23.4787   -3.9876   24.0701 C   0  0  0  0  0  0  0  0  0  0  0  0
  -32.3750  -17.7256   23.5308 C   0  0  0  0  0  0  0  0  0  0  0  0
  -21.6783   -5.5610   23.7240 C   0  0  0  0  0  0  0  0  0  0  0  0
  -24.5648  -11.5901   20.6934 C   0  0  0  0  0  0  0  0  0  0  0  0
  -25.1906  -13.6801   20.4194 C   0  0  0  0  0  0  0  0  0  0  0  0
  -22.8060  -13.4172   21.1215 C   0  0  0  0  0  0  0  0  0  0  0  0
  -28.4748  -21.1528   26.1555 C   0  0  0  0  0  0  0  0  0  0  0  0
  -27.5178  -20.4728   26.8178 C   0  0  0  0  0  0  0  0  0  0  0  0
  -29.6588  -20.4063   25.6174 C   0  0  0  0  0  0  0  0  0  0  0  0
  -21.2141  -25.8652   26.7477 C   0  0  0  0  0  0  0  0  0  0  0  0
  -20.5147  -25.3574   29.8743 C   0  0  0  0  0  0  0  0  0  0  0  0
  -20.8533  -23.3793   32.6346 C   0  0  0  0  0  0  0  0  0  0  0  0
  -30.6213  -14.8612   20.7589 C   0  0  0  0  0  0  0  0  0  0  0  0
  -19.1953  -30.0528   24.6390 C   0  0  0  0  0  0  0  0  0  0  0  0
  -20.3494  -23.4977   26.6919 C   0  0  0  0  0  0  0  0  0  0  0  0
  -22.3108  -23.8988   28.8683 C   0  0  0  0  0  0  0  0  0  0  0  0
  -19.7075  -29.6663   26.0242 C   0  0  0  0  0  0  0  0  0  0  0  0
  -29.6518  -12.3416   18.4375 C   0  0  0  0  0  0  0  0  0  0  0  0
  -21.0800  -29.0087   25.9216 C   0  0  0  0  0  0  0  0  0  0  0  0
  -28.2039  -12.0307   18.8236 C   0  0  0  0  0  0  0  0  0  0  0  0
  -30.5155  -12.6332   19.6633 C   0  0  0  0  0  0  0  0  0  0  0  0
  -28.5419  -13.3590   20.9469 C   0  0  0  0  0  0  0  0  0  0  0  0
  -21.0126  -27.7169   25.0980 C   0  0  1  0  0  0  0  0  0  0  0  0
  -20.4288  -24.8074   27.4702 C   0  0  1  0  0  0  0  0  0  0  0  0
  -27.6184  -13.1223   19.7408 C   0  0  2  0  0  0  0  0  0  0  0  0
  -28.5082  -22.6296   25.9029 C   0  0  0  0  0  0  0  0  0  0  0  0
  -20.1991  -23.2442   35.0535 C   0  0  0  0  0  0  0  0  0  0  0  0
  -22.6111  -27.4668   30.5565 C   0  0  0  0  0  0  0  0  0  0  0  0
  -22.5956  -26.6198   32.9125 C   0  0  0  0  0  0  0  0  0  0  0  0
  -20.5215  -27.5920   31.9248 C   0  0  0  0  0  0  0  0  0  0  0  0
  -19.3786  -20.8480   32.2143 C   0  0  0  0  0  0  0  0  0  0  0  0
  -26.2794  -21.0810   27.4112 C   0  0  0  0  0  0  0  0  0  1  0  0
  -21.3123  -25.3172   31.1554 C   0  0  1  0  0  0  0  0  0  0  0  0
  -19.8335  -22.8552   33.6295 C   0  0  2  0  0  0  0  0  0  0  0  0
  -21.7659  -26.7314   31.6157 C   0  0  0  0  0  0  0  0  0  0  0  0
  -25.8464  -11.5101   20.3258 N   0  0  0  0  0  0  0  0  0  0  0  0
  -26.1988  -12.7972   20.1664 N   0  0  0  0  0  0  0  0  0  0  0  0
  -21.0441  -24.6448   28.7890 N   0  0  0  0  0  0  0  0  0  0  0  0
  -29.9007  -13.6800   20.4827 N   0  0  0  0  0  0  0  0  0  0  0  0
  -25.3735  -15.0130   20.3073 N   0  0  0  0  0  0  0  0  0  0  0  0
  -21.8028  -12.4963   21.4530 N   0  0  0  0  0  0  0  0  0  0  0  0
  -29.2948  -19.4268   24.7054 N   0  0  0  0  0  0  0  0  0  0  0  0
  -29.9228  -15.7981   21.5198 N   0  0  0  0  0  0  0  0  0  0  0  0
  -20.4572  -26.6408   25.8904 N   0  0  0  0  0  0  0  0  0  0  0  0
  -20.4875  -24.6083   32.1277 N   0  0  0  0  0  0  0  0  0  0  0  0
  -19.7528  -21.3690   33.5543 N   0  3  0  0  0  0  0  0  0  0  0  0
  -22.5400  -14.6431   21.1267 O   0  0  0  0  0  0  0  0  0  0  0  0
  -30.7850  -20.7366   25.9724 O   0  0  0  0  0  0  0  0  0  0  0  0
  -22.4174  -25.9710   26.9540 O   0  0  0  0  0  0  0  0  0  0  0  0
  -19.4572  -25.9915   29.8399 O   0  0  0  0  0  0  0  0  0  0  0  0
  -21.8743  -22.7620   32.3396 O   0  0  0  0  0  0  0  0  0  0  0  0
  -31.7631  -15.0406   20.3276 O   0  0  0  0  0  0  0  0  0  0  0  0
  -27.6515  -19.1115   27.0499 O   0  0  0  0  0  0  0  0  0  0  0  0
  -21.6512   -6.9352   21.7467 O   0  0  0  0  0  0  0  0  0  0  0  0
  -25.1343  -20.4677   26.8205 O   0  0  0  0  0  0  0  0  0  1  0  0
  -24.0647   -3.0405   24.8143 F   0  0  0  0  0  0  0  0  0  0  0  0
  -33.6984  -17.7787   23.7312 F   0  0  0  0  0  0  0  0  0  0  0  0
  -20.5350   -6.1218   24.1416 F   0  0  0  0  0  0  0  0  0  0  0  0
  1  2  1  0  0  0  0
  1  5  2  0  0  0  0
  2  6  2  0  0  0  0
  3  8  2  0  0  0  0
  3 18  1  0  0  0  0
  4  9  1  0  0  0  0
  4 18  2  0  0  0  0
  5 20  1  0  0  0  0
  6 22  1  0  0  0  0
  7 10  2  0  0  0  0
  7 21  1  0  0  0  0
  8 26  1  0  0  0  0
  9 26  2  0  0  0  0
 10 27  1  0  0  0  0
 11 12  2  0  0  0  0
 11 28  1  0  0  0  0
 12 29  1  0  0  0  0
 13 23  1  0  0  0  0
 13 27  2  0  0  0  0
 14 24  2  0  0  0  0
 14 25  1  0  0  0  0
 15 24  1  0  0  0  0
 15 30  2  0  0  0  0
 16 25  2  0  0  0  0
 16 30  1  0  0  0  0
 17 29  2  0  0  0  0
 17 31  1  0  0  0  0
 18 32  1  0  0  0  0
 19 32  1  0  0  0  0
 19 33  2  0  0  0  0
 19 34  1  0  0  0  0
 20 22  2  0  0  0  0
 20 42  1  0  0  0  0
 21 23  2  0  0  0  0
 21 43  1  0  0  0  0
 22 51  1  0  0  0  0
 23 44  1  0  0  0  0
 24 70  1  0  0  0  0
 25 71  1  0  0  0  0
 26 82  1  0  0  0  0
 27 83  1  0  0  0  0
 28 31  2  0  0  0  0
 28 82  1  0  0  0  0
 29 84  1  0  0  0  0
 30 85  1  0  0  0  0
 31 86  1  0  0  0  0
 32 64  2  0  0  0  0
 33 65  1  0  0  0  0
 33 68  1  0  0  0  0
 34 69  1  0  0  0  0
 34 75  2  0  0  0  0
 35 36  2  0  0  0  0
 35 37  1  0  0  0  0
 35 54  1  0  0  0  0
 36 60  1  0  0  0  0
 36 81  1  0  0  0  0
 37 70  1  0  0  0  0
 37 76  2  0  0  0  0
 38 52  1  0  0  0  0
 38 72  1  0  0  0  0
 38 77  2  0  0  0  0
 39 61  1  0  0  0  0
 39 66  1  0  0  0  0
 39 78  2  0  0  0  0
 40 62  1  0  0  0  0
 40 73  1  0  0  0  0
 40 79  2  0  0  0  0
 41 67  1  0  0  0  0
 41 71  1  0  0  0  0
 41 80  2  0  0  0  0
 42 45  1  0  0  0  0
 43 52  1  0  0  0  0
 44 66  1  0  0  0  0
 45 47  1  0  0  0  0
 46 48  1  0  0  0  0
 46 49  1  0  0  0  0
 47 51  1  0  0  0  0
 48 53  1  0  0  0  0
 49 67  1  0  0  0  0
 50 53  1  0  0  0  0
 50 67  1  0  0  0  0
 51 72  1  0  0  0  0
 52 66  1  0  0  0  0
 53 65  1  0  0  0  0
 55 62  1  0  0  0  0
 56 63  1  0  0  0  0
 57 63  1  0  0  0  0
 58 63  1  0  0  0  0
 59 74  1  0  0  0  0
 60 83  1  0  0  0  0
 61 63  1  0  0  0  0
 61 73  1  0  0  0  0
 62 74  1  0  0  0  0
 64 65  1  0  0  0  0
M  CHG  1  74   1
M  ISO  4  41 100  60 101  71 100  83 101
M  END
> <Batch ID>
0168

> <Smiles>
CNC(C)C(=O)NC(C(=O)N1Cc2cc([101O:1][101CH2:1]C(=O)C(C)C(=O)Nc3cc(F)cc([100NH:0][100C:0](=O)N4CCCC(n5nc(-c6ccc(Oc7ccc(F)cc7F)cc6)c(C(N)=O)c5N)C4)c3)ccc2CC1C(=O)NC1CCCc2ccccc21)C(C)(C)C

> <Shape>
0.215

> <Color>
0.206

> <Negative vol penalty>
0.000

$$$$

  -OEChem-04052304143D

 87 95  0     1  0  0  0  0  0999 V2000
  -24.8566  -32.6268   22.5140 C   0  0  0  0  0  0  0  0  0  0  0  0
  -25.9148  -31.7998   22.1511 C   0  0  0  0  0  0  0  0  0  0  0  0
  -22.9228   -9.9803   19.9609 C   0  0  0  0  0  0  0  0  0  0  0  0
  -23.6895   -9.9034   22.2507 C   0  0  0  0  0  0  0  0  0  0  0  0
  -23.9889  -32.2395   23.5343 C   0  0  0  0  0  0  0  0  0  0  0  0
  -26.1065  -30.5854   22.8090 C   0  0  0  0  0  0  0  0  0  0  0  0
  -27.1001  -26.7820   19.6166 C   0  0  0  0  0  0  0  0  0  0  0  0
  -22.1227   -8.8612   20.1912 C   0  0  0  0  0  0  0  0  0  0  0  0
  -22.8893   -8.7843   22.4811 C   0  0  0  0  0  0  0  0  0  0  0  0
  -28.3948  -26.7013   19.1057 C   0  0  0  0  0  0  0  0  0  0  0  0
  -23.0109   -5.4636   21.8571 C   0  0  0  0  0  0  0  0  0  0  0  0
  -23.5763   -4.3946   22.5521 C   0  0  0  0  0  0  0  0  0  0  0  0
  -28.9199  -24.9903   20.7231 C   0  0  0  0  0  0  0  0  0  0  0  0
  -21.8913   -4.6195   24.2688 C   0  0  0  0  0  0  0  0  0  0  0  0
  -31.3728  -17.3973   20.7528 C   0  0  0  0  0  0  0  0  0  0  0  0
  -23.7063  -10.5013   20.9906 C   0  0  0  0  0  0  0  0  0  0  0  0
  -24.1743  -13.0080   20.9190 C   0  0  0  0  0  0  0  0  0  0  0  0
  -24.1643  -31.0153   24.1985 C   0  0  0  0  0  0  0  0  0  0  0  0
  -26.7082  -25.9738   20.6935 C   0  0  0  0  0  0  0  0  0  0  0  0
  -25.2411  -30.1820   23.8400 C   0  0  0  0  0  0  0  0  0  0  0  0
  -27.6189  -25.0608   21.2441 C   0  0  0  0  0  0  0  0  0  0  0  0
  -30.4578  -16.8105   21.6121 C   0  0  0  0  0  0  0  0  0  0  0  0
  -22.1059   -8.2632   21.4513 C   0  0  0  0  0  0  0  0  0  0  0  0
  -29.3058  -25.8074   19.6608 C   0  0  0  0  0  0  0  0  0  0  0  0
  -21.8857   -6.1107   22.3680 C   0  0  0  0  0  0  0  0  0  0  0  0
  -23.0166   -3.9725   23.7579 C   0  0  0  0  0  0  0  0  0  0  0  0
  -21.3259   -5.6886   23.5738 C   0  0  0  0  0  0  0  0  0  0  0  0
  -29.7851  -17.6343   22.5077 C   0  0  0  0  0  0  0  0  0  0  0  0
  -30.0442  -19.0003   22.5166 C   0  0  0  0  0  0  0  0  0  0  0  0
  -24.5335  -11.6570   20.7532 C   0  0  0  0  0  0  0  0  0  0  0  0
  -30.9779  -19.4890   21.6170 C   0  0  0  0  0  0  0  0  0  0  0  0
  -25.3016  -13.7088   20.5660 C   0  0  0  0  0  0  0  0  0  0  0  0
  -31.7362  -23.8610   20.0395 C   0  0  0  0  0  0  0  0  0  0  0  0
  -22.9328  -13.5786   21.3534 C   0  0  0  0  0  0  0  0  0  0  0  0
  -32.0810  -23.0602   21.0640 C   0  0  0  0  0  0  0  0  0  0  0  0
  -32.1120  -21.5821   20.8144 C   0  0  0  0  0  0  0  0  0  0  0  0
  -25.7053  -26.5207   23.6598 C   0  0  0  0  0  0  0  0  0  0  0  0
  -25.2478  -23.3094   23.6811 C   0  0  0  0  0  0  0  0  0  0  0  0
  -26.0698  -20.2572   22.3944 C   0  0  0  0  0  0  0  0  0  0  0  0
  -30.8140  -14.4747   20.7382 C   0  0  0  0  0  0  0  0  0  0  0  0
  -23.2286  -30.6612   25.3271 C   0  0  0  0  0  0  0  0  0  0  0  0
  -25.2999  -26.0539   21.2157 C   0  0  0  0  0  0  0  0  0  0  0  0
  -27.2418  -24.1567   22.3881 C   0  0  0  0  0  0  0  0  0  0  0  0
  -23.2790  -29.1870   25.7202 C   0  0  0  0  0  0  0  0  0  0  0  0
  -29.5720  -12.1676   18.3275 C   0  0  0  0  0  0  0  0  0  0  0  0
  -24.7248  -28.7180   25.8490 C   0  0  0  0  0  0  0  0  0  0  0  0
  -28.1209  -11.9402   18.7573 C   0  0  0  0  0  0  0  0  0  0  0  0
  -30.5013  -12.3262   19.5296 C   0  0  0  0  0  0  0  0  0  0  0  0
  -28.6377  -13.1179   20.9329 C   0  0  0  0  0  0  0  0  0  0  0  0
  -25.4672  -28.8457   24.5133 C   0  0  1  0  0  0  0  0  0  0  0  0
  -25.1645  -25.5493   22.6490 C   0  0  1  0  0  0  0  0  0  0  0  0
  -27.6536  -13.0172   19.7560 C   0  0  2  0  0  0  0  0  0  0  0  0
  -32.4133  -23.4790   22.4620 C   0  0  0  0  0  0  0  0  0  0  0  0
  -32.9028  -26.0312   19.6555 C   0  0  0  0  0  0  0  0  0  0  0  0
  -25.5564  -17.8131   22.6393 C   0  0  0  0  0  0  0  0  0  0  0  0
  -26.9371  -23.2114   26.2201 C   0  0  0  0  0  0  0  0  0  0  0  0
  -27.1816  -20.7433   25.8788 C   0  0  0  0  0  0  0  0  0  0  0  0
  -24.9215  -21.7314   26.2504 C   0  0  0  0  0  0  0  0  0  0  0  0
  -25.0810  -20.0673   19.6114 C   0  0  0  0  0  0  0  0  0  0  0  0
  -31.6038  -25.3572   20.0763 C   0  0  1  0  0  0  0  0  0  1  0  0
  -26.0926  -22.1115   24.0423 C   0  0  1  0  0  0  0  0  0  0  0  0
  -25.2101  -19.1029   21.9118 C   0  0  2  0  0  0  0  0  0  0  0  0
  -26.2912  -21.9677   25.5776 C   0  0  0  0  0  0  0  0  0  0  0  0
  -31.6512  -18.7200   20.7321 N   0  0  0  0  0  0  0  0  0  0  0  0
  -25.7906  -11.5061   20.3278 N   0  0  0  0  0  0  0  0  0  0  0  0
  -26.2311  -12.7714   20.2232 N   0  0  0  0  0  0  0  0  0  0  0  0
  -25.8550  -24.2767   22.8678 N   0  0  0  0  0  0  0  0  0  0  0  0
  -29.9977  -13.3661   20.4295 N   0  0  0  0  0  0  0  0  0  0  0  0
  -25.5785  -15.0292   20.5184 N   0  0  0  0  0  0  0  0  0  0  0  0
  -21.8775  -12.7148   21.6769 N   0  0  0  0  0  0  0  0  0  0  0  0
  -30.2167  -15.4147   21.5775 N   0  0  0  0  0  0  0  0  0  0  0  0
  -31.2377  -20.8808   21.6320 N   0  0  0  0  0  0  0  0  0  0  0  0
  -25.1008  -27.7628   23.6258 N   0  0  0  0  0  0  0  0  0  0  0  0
  -25.4580  -20.9593   23.4113 N   0  0  0  0  0  0  0  0  0  0  0  0
  -25.4073  -18.8857   20.4506 N   0  3  0  0  0  0  0  0  0  0  0  0
  -22.7589  -14.8181   21.4360 O   0  0  0  0  0  0  0  0  0  0  0  0
  -32.8301  -21.1436   19.9217 O   0  0  0  0  0  0  0  0  0  0  0  0
  -26.6035  -26.1688   24.4155 O   0  0  0  0  0  0  0  0  0  0  0  0
  -24.0894  -23.3806   24.0990 O   0  0  0  0  0  0  0  0  0  0  0  0
  -27.1752  -20.5085   21.9195 O   0  0  0  0  0  0  0  0  0  0  0  0
  -31.9487  -14.5958   20.2693 O   0  0  0  0  0  0  0  0  0  0  0  0
  -21.3251   -7.1714   21.6764 O   0  0  0  0  0  0  0  0  0  0  0  0
  -30.5704  -25.7271   19.1644 O   0  0  0  0  0  0  0  0  0  1  0  0
  -23.5587   -2.9449   24.4244 F   0  0  0  0  0  0  0  0  0  0  0  0
  -20.2442   -6.3055   24.0691 F   0  0  0  0  0  0  0  0  0  0  0  0
  -28.8883  -17.1238   23.3634 F   0  0  0  0  0  0  0  0  0  0  0  0
  -29.4041  -19.8054   23.3739 F   0  0  0  0  0  0  0  0  0  0  0  0
  1  2  1  0  0  0  0
  1  5  2  0  0  0  0
  2  6  2  0  0  0  0
  3  8  2  0  0  0  0
  3 16  1  0  0  0  0
  4  9  1  0  0  0  0
  4 16  2  0  0  0  0
  5 18  1  0  0  0  0
  6 20  1  0  0  0  0
  7 10  2  0  0  0  0
  7 19  1  0  0  0  0
  8 23  1  0  0  0  0
  9 23  2  0  0  0  0
 10 24  1  0  0  0  0
 11 12  2  0  0  0  0
 11 25  1  0  0  0  0
 12 26  1  0  0  0  0
 13 21  1  0  0  0  0
 13 24  2  0  0  0  0
 14 26  2  0  0  0  0
 14 27  1  0  0  0  0
 15 22  1  0  0  0  0
 15 64  2  0  0  0  0
 16 30  1  0  0  0  0
 17 30  1  0  0  0  0
 17 32  2  0  0  0  0
 17 34  1  0  0  0  0
 18 20  2  0  0  0  0
 18 41  1  0  0  0  0
 19 21  2  0  0  0  0
 19 42  1  0  0  0  0
 20 50  1  0  0  0  0
 21 43  1  0  0  0  0
 22 28  2  0  0  0  0
 22 71  1  0  0  0  0
 23 82  1  0  0  0  0
 24 83  1  0  0  0  0
 25 27  2  0  0  0  0
 25 82  1  0  0  0  0
 26 84  1  0  0  0  0
 27 85  1  0  0  0  0
 28 29  1  0  0  0  0
 28 86  1  0  0  0  0
 29 31  2  0  0  0  0
 29 87  1  0  0  0  0
 30 65  2  0  0  0  0
 31 64  1  0  0  0  0
 31 72  1  0  0  0  0
 32 66  1  0  0  0  0
 32 69  1  0  0  0  0
 33 35  2  0  0  0  0
 33 60  1  0  0  0  0
 34 70  1  0  0  0  0
 34 76  2  0  0  0  0
 35 36  1  0  0  0  0
 35 53  1  0  0  0  0
 36 72  1  0  0  0  0
 36 77  2  0  0  0  0
 37 51  1  0  0  0  0
 37 73  1  0  0  0  0
 37 78  2  0  0  0  0
 38 61  1  0  0  0  0
 38 67  1  0  0  0  0
 38 79  2  0  0  0  0
 39 62  1  0  0  0  0
 39 74  1  0  0  0  0
 39 80  2  0  0  0  0
 40 68  1  0  0  0  0
 40 71  1  0  0  0  0
 40 81  2  0  0  0  0
 41 44  1  0  0  0  0
 42 51  1  0  0  0  0
 43 67  1  0  0  0  0
 44 46  1  0  0  0  0
 45 47  1  0  0  0  0
 45 48  1  0  0  0  0
 46 50  1  0  0  0  0
 47 52  1  0  0  0  0
 48 68  1  0  0  0  0
 49 52  1  0  0  0  0
 49 68  1  0  0  0  0
 50 73  1  0  0  0  0
 51 67  1  0  0  0  0
 52 66  1  0  0  0  0
 54 60  1  0  0  0  0
 55 62  1  0  0  0  0
 56 63  1  0  0  0  0
 57 63  1  0  0  0  0
 58 63  1  0  0  0  0
 59 75  1  0  0  0  0
 60 83  1  0  0  0  0
 61 63  1  0  0  0  0
 61 74  1  0  0  0  0
 62 75  1  0  0  0  0
 65 66  1  0  0  0  0
M  CHG  1  75   1
M  ISO  4  40 100  60 101  71 100  83 101
M  END
> <Batch ID>
0168

> <Smiles>
CNC(C)C(=O)NC(C(=O)N1Cc2cc([101O:1][101CH:1](C)C=C(C)C(=O)Nc3ncc([100NH:0][100C:0](=O)N4CCCC(n5nc(-c6ccc(Oc7ccc(F)cc7F)cc6)c(C(N)=O)c5N)C4)c(F)c3F)ccc2CC1C(=O)NC1CCCc2ccccc21)C(C)(C)C

> <Shape>
0.271

> <Color>
0.204

> <Negative vol penalty>
0.000

$$$$

  -OEChem-04052304143D

 86 94  0     1  0  0  0  0  0999 V2000
  -22.4566  -10.4004   28.1404 C   0  0  0  0  0  0  0  0  0  0  0  0
  -23.0176  -11.5814   27.6651 C   0  0  0  0  0  0  0  0  0  0  0  0
  -23.0931   -9.8655   19.9241 C   0  0  0  0  0  0  0  0  0  0  0  0
  -23.7873   -9.8788   22.2382 C   0  0  0  0  0  0  0  0  0  0  0  0
  -21.3227   -9.8716   27.5251 C   0  0  0  0  0  0  0  0  0  0  0  0
  -22.4456  -12.2337   26.5735 C   0  0  0  0  0  0  0  0  0  0  0  0
  -22.0643  -17.2338   27.2796 C   0  0  0  0  0  0  0  0  0  0  0  0
  -22.3291   -8.7225   20.1599 C   0  0  0  0  0  0  0  0  0  0  0  0
  -23.0233   -8.7359   22.4740 C   0  0  0  0  0  0  0  0  0  0  0  0
  -23.2238  -17.9904   27.1150 C   0  0  0  0  0  0  0  0  0  0  0  0
  -20.4811   -5.5920   20.0693 C   0  0  0  0  0  0  0  0  0  0  0  0
  -20.5592   -4.5548   19.1400 C   0  0  0  0  0  0  0  0  0  0  0  0
  -22.4919  -18.6199   24.9043 C   0  0  0  0  0  0  0  0  0  0  0  0
  -30.5818  -16.8508   23.8499 C   0  0  0  0  0  0  0  0  0  0  0  0
  -32.1222  -18.6927   23.7115 C   0  0  0  0  0  0  0  0  0  0  0  0
  -22.9310   -4.3599   19.5568 C   0  0  0  0  0  0  0  0  0  0  0  0
  -23.8222  -10.4436   20.9633 C   0  0  0  0  0  0  0  0  0  0  0  0
  -24.1965  -12.9639   20.8373 C   0  0  0  0  0  0  0  0  0  0  0  0
  -20.7309  -10.5229   26.4314 C   0  0  0  0  0  0  0  0  0  0  0  0
  -21.1135  -17.1558   26.2519 C   0  0  0  0  0  0  0  0  0  0  0  0
  -21.3035  -11.7125   25.9421 C   0  0  0  0  0  0  0  0  0  0  0  0
  -21.3200  -17.8638   25.0593 C   0  0  0  0  0  0  0  0  0  0  0  0
  -31.1372  -17.9982   24.4050 C   0  0  0  0  0  0  0  0  0  0  0  0
  -22.2942   -8.1577   21.4348 C   0  0  0  0  0  0  0  0  0  0  0  0
  -23.4391  -18.6812   25.9261 C   0  0  0  0  0  0  0  0  0  0  0  0
  -21.6279   -6.0132   20.7424 C   0  0  0  0  0  0  0  0  0  0  0  0
  -21.7841   -3.9387   18.8838 C   0  0  0  0  0  0  0  0  0  0  0  0
  -22.8529   -5.3971   20.4862 C   0  0  0  0  0  0  0  0  0  0  0  0
  -24.6120  -11.6240   20.7202 C   0  0  0  0  0  0  0  0  0  0  0  0
  -31.0422  -16.4426   22.6084 C   0  0  0  0  0  0  0  0  0  0  0  0
  -32.5138  -18.2019   22.4763 C   0  0  0  0  0  0  0  0  0  0  0  0
  -25.3071  -13.6985   20.5008 C   0  0  0  0  0  0  0  0  0  0  0  0
  -25.7745  -18.7786   25.8419 C   0  0  0  0  0  0  0  0  0  1  0  0
  -22.9206  -13.4968   21.2166 C   0  0  0  0  0  0  0  0  0  0  0  0
  -26.9894  -19.3333   25.7086 C   0  0  0  0  0  0  0  0  0  0  0  0
  -28.1860  -18.4404   25.8308 C   0  0  0  0  0  0  0  0  0  0  0  0
  -19.9270  -14.8081   24.4674 C   0  0  0  0  0  0  0  0  0  0  0  0
  -17.9518  -17.1472   23.3951 C   0  0  0  0  0  0  0  0  0  0  0  0
  -17.4050  -20.4806   22.9093 C   0  0  0  0  0  0  0  0  0  0  0  0
  -30.7778  -14.6830   20.8251 C   0  0  0  0  0  0  0  0  0  0  0  0
  -19.5337   -9.8880   25.7694 C   0  0  0  0  0  0  0  0  0  0  0  0
  -19.8554  -16.3569   26.4553 C   0  0  0  0  0  0  0  0  0  0  0  0
  -20.3205  -17.8291   23.9332 C   0  0  0  0  0  0  0  0  0  0  0  0
  -18.7685  -10.8394   24.8531 C   0  0  0  0  0  0  0  0  0  0  0  0
  -29.7036  -12.2666   18.4410 C   0  0  0  0  0  0  0  0  0  0  0  0
  -19.7329  -11.6023   23.9505 C   0  0  0  0  0  0  0  0  0  0  0  0
  -28.2490  -11.9942   18.8311 C   0  0  0  0  0  0  0  0  0  0  0  0
  -30.5866  -12.4928   19.6669 C   0  0  0  0  0  0  0  0  0  0  0  0
  -28.6496  -13.2479   20.9886 C   0  0  0  0  0  0  0  0  0  0  0  0
  -20.6975  -12.4625   24.7758 C   0  0  1  0  0  0  0  0  0  0  0  0
  -19.1980  -15.9335   25.1454 C   0  0  1  0  0  0  0  0  0  0  0  0
  -27.7088  -13.0780   19.7845 C   0  0  2  0  0  0  0  0  0  0  0  0
  -15.7151  -22.0842   21.9765 C   0  0  0  0  0  0  0  0  0  0  0  0
  -18.8107  -16.4016   20.5637 C   0  0  0  0  0  0  0  0  0  0  0  0
  -17.8699  -18.5848   19.7783 C   0  0  0  0  0  0  0  0  0  0  0  0
  -16.3705  -16.8852   20.8204 C   0  0  0  0  0  0  0  0  0  0  0  0
  -34.0090  -18.5176   20.5039 C   0  0  0  0  0  0  0  0  0  0  0  0
  -17.0464  -21.8080   25.5300 C   0  0  0  0  0  0  0  0  0  0  0  0
  -30.6752  -18.4856   25.7478 C   0  0  0  0  0  0  0  0  0  0  0  0
  -18.0010  -18.1576   22.2745 C   0  0  1  0  0  0  0  0  0  0  0  0
  -16.2079  -21.3608   23.2201 C   0  0  2  0  0  0  0  0  0  0  0  0
  -17.7829  -17.5066   20.8795 C   0  0  0  0  0  0  0  0  0  0  0  0
  -25.8871  -11.5110   20.3389 N   0  0  0  0  0  0  0  0  0  0  0  0
  -31.9973  -17.0909   21.9048 N   0  0  0  0  0  0  0  0  0  0  0  0
  -26.2823  -12.7894   20.2134 N   0  0  0  0  0  0  0  0  0  0  0  0
  -19.1091  -17.0290   24.1777 N   0  0  0  0  0  0  0  0  0  0  0  0
  -30.0148  -13.5357   20.5215 N   0  0  0  0  0  0  0  0  0  0  0  0
  -25.5349  -15.0270   20.4255 N   0  0  0  0  0  0  0  0  0  0  0  0
  -21.8891  -12.6015   21.5304 N   0  0  0  0  0  0  0  0  0  0  0  0
  -30.4701  -15.2723   22.0510 N   0  0  0  0  0  0  0  0  0  0  0  0
  -33.5186  -18.9202   21.7816 N   0  0  0  0  0  0  0  0  0  0  0  0
  -29.3799  -19.1236   25.6755 N   0  0  0  0  0  0  0  0  0  0  0  0
  -20.0356  -13.6646   25.2355 N   0  0  0  0  0  0  0  0  0  0  0  0
  -17.0256  -19.1888   22.6117 N   0  0  0  0  0  0  0  0  0  0  0  0
  -16.5672  -22.3806   24.2457 N   0  3  0  0  0  0  0  0  0  0  0  0
  -22.6970  -14.7304   21.2595 O   0  0  0  0  0  0  0  0  0  0  0  0
  -28.0845  -17.2355   26.0442 O   0  0  0  0  0  0  0  0  0  0  0  0
  -20.3576  -14.9651   23.3309 O   0  0  0  0  0  0  0  0  0  0  0  0
  -16.9220  -16.4921   23.5740 O   0  0  0  0  0  0  0  0  0  0  0  0
  -18.5608  -20.8982   22.9250 O   0  0  0  0  0  0  0  0  0  0  0  0
  -31.6216  -15.1271   20.0423 O   0  0  0  0  0  0  0  0  0  0  0  0
  -27.2095  -20.6712   25.4653 O   0  0  0  0  0  0  0  0  0  0  0  0
  -21.5486   -7.0426   21.6653 O   0  0  0  0  0  0  0  0  0  0  0  0
  -24.5703  -19.4199   25.7626 O   0  0  0  0  0  0  0  0  0  1  0  0
  -21.8586   -2.9416   17.9924 F   0  0  0  0  0  0  0  0  0  0  0  0
  -23.9578   -5.7967   21.1305 F   0  0  0  0  0  0  0  0  0  0  0  0
  1  2  1  0  0  0  0
  1  5  2  0  0  0  0
  2  6  2  0  0  0  0
  3  8  2  0  0  0  0
  3 17  1  0  0  0  0
  4  9  1  0  0  0  0
  4 17  2  0  0  0  0
  5 19  1  0  0  0  0
  6 21  1  0  0  0  0
  7 10  2  0  0  0  0
  7 20  1  0  0  0  0
  8 24  1  0  0  0  0
  9 24  2  0  0  0  0
 10 25  1  0  0  0  0
 11 12  2  0  0  0  0
 11 26  1  0  0  0  0
 12 27  1  0  0  0  0
 13 22  1  0  0  0  0
 13 25  2  0  0  0  0
 14 23  1  0  0  0  0
 14 30  2  0  0  0  0
 15 23  2  0  0  0  0
 15 31  1  0  0  0  0
 16 27  2  0  0  0  0
 16 28  1  0  0  0  0
 17 29  1  0  0  0  0
 18 29  1  0  0  0  0
 18 32  2  0  0  0  0
 18 34  1  0  0  0  0
 19 21  2  0  0  0  0
 19 41  1  0  0  0  0
 20 22  2  0  0  0  0
 20 42  1  0  0  0  0
 21 50  1  0  0  0  0
 22 43  1  0  0  0  0
 23 59  1  0  0  0  0
 24 83  1  0  0  0  0
 25 84  1  0  0  0  0
 26 28  2  0  0  0  0
 26 83  1  0  0  0  0
 27 85  1  0  0  0  0
 28 86  1  0  0  0  0
 29 63  2  0  0  0  0
 30 64  1  0  0  0  0
 30 70  1  0  0  0  0
 31 64  2  0  0  0  0
 31 71  1  0  0  0  0
 32 65  1  0  0  0  0
 32 68  1  0  0  0  0
 33 35  2  0  0  0  0
 33 84  1  0  0  0  0
 34 69  1  0  0  0  0
 34 76  2  0  0  0  0
 35 36  1  0  0  0  0
 35 82  1  0  0  0  0
 36 72  1  0  0  0  0
 36 77  2  0  0  0  0
 37 51  1  0  0  0  0
 37 73  1  0  0  0  0
 37 78  2  0  0  0  0
 38 60  1  0  0  0  0
 38 66  1  0  0  0  0
 38 79  2  0  0  0  0
 39 61  1  0  0  0  0
 39 74  1  0  0  0  0
 39 80  2  0  0  0  0
 40 67  1  0  0  0  0
 40 70  1  0  0  0  0
 40 81  2  0  0  0  0
 41 44  1  0  0  0  0
 42 51  1  0  0  0  0
 43 66  1  0  0  0  0
 44 46  1  0  0  0  0
 45 47  1  0  0  0  0
 45 48  1  0  0  0  0
 46 50  1  0  0  0  0
 47 52  1  0  0  0  0
 48 67  1  0  0  0  0
 49 52  1  0  0  0  0
 49 67  1  0  0  0  0
 50 73  1  0  0  0  0
 51 66  1  0  0  0  0
 52 65  1  0  0  0  0
 53 61  1  0  0  0  0
 54 62  1  0  0  0  0
 55 62  1  0  0  0  0
 56 62  1  0  0  0  0
 57 71  1  0  0  0  0
 58 75  1  0  0  0  0
 59 72  1  0  0  0  0
 60 62  1  0  0  0  0
 60 74  1  0  0  0  0
 61 75  1  0  0  0  0
 63 65  1  0  0  0  0
M  CHG  1  75   1
M  ISO  4  33 101  40 100  70 100  84 101
M  END
> <Batch ID>
0168

> <Smiles>
CNc1cc(CNC(=O)C(=O)[101CH2:1][101O:1]c2ccc3c(c2)CN(C(=O)C(NC(=O)C(C)NC)C(C)(C)C)C(C(=O)NC2CCCc4ccccc42)C3)cc([100NH:0][100C:0](=O)N2CCCC(n3nc(-c4ccc(Oc5ccc(F)cc5F)cc4)c(C(N)=O)c3N)C2)n1

> <Shape>
0.147

> <Color>
0.176

> <Negative vol penalty>
0.000

$$$$

  -OEChem-04052304143D

 87 95  0     1  0  0  0  0  0999 V2000
  -26.2979  -33.6954   27.0921 C   0  0  0  0  0  0  0  0  0  0  0  0
  -26.8180  -32.4750   26.6732 C   0  0  0  0  0  0  0  0  0  0  0  0
  -23.7825   -9.6443   21.2158 C   0  0  0  0  0  0  0  0  0  0  0  0
  -24.3567  -10.5853   23.3656 C   0  0  0  0  0  0  0  0  0  0  0  0
  -24.9638  -34.0085   26.8350 C   0  0  0  0  0  0  0  0  0  0  0  0
  -26.0040  -31.5664   25.9979 C   0  0  0  0  0  0  0  0  0  0  0  0
  -28.2899  -29.5383   21.9598 C   0  0  0  0  0  0  0  0  0  0  0  0
  -30.8038  -18.8849   20.1539 C   0  0  0  0  0  0  0  0  0  0  0  0
  -31.0192  -20.2630   20.1532 C   0  0  0  0  0  0  0  0  0  0  0  0
  -23.2615   -8.5159   21.8489 C   0  0  0  0  0  0  0  0  0  0  0  0
  -23.8356   -9.4569   23.9987 C   0  0  0  0  0  0  0  0  0  0  0  0
  -29.2156  -28.5228   22.1954 C   0  0  0  0  0  0  0  0  0  0  0  0
  -20.4270   -7.6624   23.4830 C   0  0  0  0  0  0  0  0  0  0  0  0
  -19.1933   -7.1836   23.0424 C   0  0  0  0  0  0  0  0  0  0  0  0
  -28.6197  -19.2266   21.1285 C   0  0  0  0  0  0  0  0  0  0  0  0
  -27.5492  -26.8776   21.6162 C   0  0  0  0  0  0  0  0  0  0  0  0
  -20.2162   -5.0695   22.4756 C   0  0  0  0  0  0  0  0  0  0  0  0
  -24.3302  -10.6790   21.9742 C   0  0  0  0  0  0  0  0  0  0  0  0
  -28.8351  -20.6048   21.1279 C   0  0  0  0  0  0  0  0  0  0  0  0
  -24.1811  -13.0267   20.9873 C   0  0  0  0  0  0  0  0  0  0  0  0
  -24.1356  -33.1072   26.1476 C   0  0  0  0  0  0  0  0  0  0  0  0
  -26.9815  -29.2301   21.5605 C   0  0  0  0  0  0  0  0  0  0  0  0
  -24.6572  -31.8671   25.7325 C   0  0  0  0  0  0  0  0  0  0  0  0
  -26.6095  -27.8912   21.3737 C   0  0  0  0  0  0  0  0  0  0  0  0
  -29.6040  -18.3667   20.6415 C   0  0  0  0  0  0  0  0  0  0  0  0
  -30.0349  -21.1230   20.6403 C   0  0  0  0  0  0  0  0  0  0  0  0
  -23.2880   -8.4222   23.2403 C   0  0  0  0  0  0  0  0  0  0  0  0
  -28.8445  -27.1921   22.0264 C   0  0  0  0  0  0  0  0  0  0  0  0
  -21.5554   -6.8448   23.4199 C   0  0  0  0  0  0  0  0  0  0  0  0
  -19.0878   -5.8872   22.5387 C   0  0  0  0  0  0  0  0  0  0  0  0
  -21.4500   -5.5483   22.9162 C   0  0  0  0  0  0  0  0  0  0  0  0
  -24.8691  -11.8446   21.3207 C   0  0  0  0  0  0  0  0  0  0  0  0
  -25.1297  -13.8188   20.3881 C   0  0  0  0  0  0  0  0  0  0  0  0
  -27.7876  -21.4760   21.6462 C   0  0  0  0  0  0  0  0  0  0  0  0
  -22.8072  -13.3773   21.2002 C   0  0  0  0  0  0  0  0  0  0  0  0
  -31.3078  -24.6495   20.3229 C   0  0  0  0  0  0  0  0  0  0  0  0
  -31.4067  -23.1586   20.1748 C   0  0  0  0  0  0  0  0  0  0  0  0
  -24.0905  -29.6959   22.7968 C   0  0  0  0  0  0  0  0  0  0  0  0
  -23.1062  -28.4785   19.9558 C   0  0  0  0  0  0  0  0  0  0  0  0
  -23.8122  -26.5517   17.2290 C   0  0  0  0  0  0  0  0  0  0  0  0
  -30.2595  -15.9754   20.1958 C   0  0  0  0  0  0  0  0  0  0  0  0
  -22.6873  -33.4701   25.9344 C   0  0  0  0  0  0  0  0  0  0  0  0
  -26.0026  -30.3383   21.2845 C   0  0  0  0  0  0  0  0  0  0  0  0
  -25.2231  -27.5082   20.9267 C   0  0  0  0  0  0  0  0  0  0  0  0
  -21.9919  -32.6088   24.8833 C   0  0  0  0  0  0  0  0  0  0  0  0
  -29.8133  -12.7267   18.8090 C   0  0  0  0  0  0  0  0  0  0  0  0
  -22.3083  -31.1336   25.1075 C   0  0  0  0  0  0  0  0  0  0  0  0
  -28.4306  -12.3048   19.3114 C   0  0  0  0  0  0  0  0  0  0  0  0
  -30.5759  -13.5340   19.8580 C   0  0  0  0  0  0  0  0  0  0  0  0
  -28.4685  -14.2694   20.9008 C   0  0  0  0  0  0  0  0  0  0  0  0
  -23.8124  -30.8656   24.9753 C   0  0  1  0  0  0  0  0  0  0  0  0
  -24.5481  -29.8878   21.3786 C   0  0  1  0  0  0  0  0  0  0  0  0
  -27.6369  -13.5091   19.8548 C   0  0  2  0  0  0  0  0  0  0  0  0
  -26.3696  -21.0083   21.5075 C   0  0  0  0  0  0  0  0  0  0  0  0
  -22.7965  -25.7138   15.0927 C   0  0  0  0  0  0  0  0  0  0  0  0
  -21.4558  -26.4566   21.5364 C   0  0  0  0  0  0  0  0  0  0  0  0
  -21.2439  -25.0985   19.4438 C   0  0  0  0  0  0  0  0  0  0  0  0
  -20.3011  -27.4063   19.5316 C   0  0  0  0  0  0  0  0  0  0  0  0
  -25.8743  -27.8956   15.5856 C   0  0  0  0  0  0  0  0  0  0  0  0
  -31.8535  -25.2345   21.6070 C   0  0  0  0  0  0  0  0  0  0  0  0
  -31.1203  -26.5017   22.0202 C   0  0  0  0  0  0  0  0  0  1  0  0
  -22.8080  -27.0946   19.4315 C   0  0  1  0  0  0  0  0  0  0  0  0
  -23.6328  -26.8049   15.7430 C   0  0  2  0  0  0  0  0  0  0  0  0
  -21.4778  -26.5208   19.9961 C   0  0  0  0  0  0  0  0  0  0  0  0
  -26.1555  -11.8784   20.9629 N   0  0  0  0  0  0  0  0  0  0  0  0
  -26.2833  -13.0913   20.3984 N   0  0  0  0  0  0  0  0  0  0  0  0
  -24.3001  -28.6274   20.6757 N   0  0  0  0  0  0  0  0  0  0  0  0
  -29.7640  -14.6605   20.3234 N   0  0  0  0  0  0  0  0  0  0  0  0
  -25.0813  -15.0597   19.8587 N   0  0  0  0  0  0  0  0  0  0  0  0
  -21.9701  -12.4465   21.8304 N   0  0  0  0  0  0  0  0  0  0  0  0
  -30.2757  -22.5166   20.6310 N   0  0  0  0  0  0  0  0  0  0  0  0
  -29.3862  -16.9666   20.6425 N   0  0  0  0  0  0  0  0  0  0  0  0
  -24.1984  -30.8286   23.5810 N   0  0  0  0  0  0  0  0  0  0  0  0
  -22.8467  -27.1923   17.9764 N   0  0  0  0  0  0  0  0  0  0  0  0
  -24.9575  -26.8506   15.0617 N   0  3  0  0  0  0  0  0  0  0  0  0
  -27.9818  -22.5664   22.1833 O   0  0  0  0  0  0  0  0  0  0  0  0
  -22.3321  -14.4768   20.8275 O   0  0  0  0  0  0  0  0  0  0  0  0
  -30.8086  -25.2717   19.3976 O   0  0  0  0  0  0  0  0  0  0  0  0
  -32.4269  -22.7269   19.6643 O   0  0  0  0  0  0  0  0  0  0  0  0
  -23.6691  -28.6017   23.1530 O   0  0  0  0  0  0  0  0  0  0  0  0
  -22.3126  -29.3952   19.7288 O   0  0  0  0  0  0  0  0  0  0  0  0
  -24.7161  -25.8523   17.6812 O   0  0  0  0  0  0  0  0  0  0  0  0
  -31.3652  -16.2070   19.7000 O   0  0  0  0  0  0  0  0  0  0  0  0
  -22.7794   -7.3214   23.8584 O   0  0  0  0  0  0  0  0  0  0  0  0
  -29.7459  -26.1989   22.2563 O   0  0  0  0  0  0  0  0  0  1  0  0
  -17.9027   -5.4270   22.1170 F   0  0  0  0  0  0  0  0  0  0  0  0
  -22.5302   -4.7578   22.8542 F   0  0  0  0  0  0  0  0  0  0  0  0
  1  2  1  0  0  0  0
  1  5  2  0  0  0  0
  2  6  2  0  0  0  0
  3 10  2  0  0  0  0
  3 18  1  0  0  0  0
  4 11  1  0  0  0  0
  4 18  2  0  0  0  0
  5 21  1  0  0  0  0
  6 23  1  0  0  0  0
  7 12  2  0  0  0  0
  7 22  1  0  0  0  0
  8  9  2  0  0  0  0
  8 25  1  0  0  0  0
  9 26  1  0  0  0  0
 10 27  1  0  0  0  0
 11 27  2  0  0  0  0
 12 28  1  0  0  0  0
 13 14  2  0  0  0  0
 13 29  1  0  0  0  0
 14 30  1  0  0  0  0
 15 19  1  0  0  0  0
 15 25  2  0  0  0  0
 16 24  1  0  0  0  0
 16 28  2  0  0  0  0
 17 30  2  0  0  0  0
 17 31  1  0  0  0  0
 18 32  1  0  0  0  0
 19 26  2  0  0  0  0
 19 34  1  0  0  0  0
 20 32  1  0  0  0  0
 20 33  2  0  0  0  0
 20 35  1  0  0  0  0
 21 23  2  0  0  0  0
 21 42  1  0  0  0  0
 22 24  2  0  0  0  0
 22 43  1  0  0  0  0
 23 51  1  0  0  0  0
 24 44  1  0  0  0  0
 25 72  1  0  0  0  0
 26 71  1  0  0  0  0
 27 84  1  0  0  0  0
 28 85  1  0  0  0  0
 29 31  2  0  0  0  0
 29 84  1  0  0  0  0
 30 86  1  0  0  0  0
 31 87  1  0  0  0  0
 32 65  2  0  0  0  0
 33 66  1  0  0  0  0
 33 69  1  0  0  0  0
 34 54  1  0  0  0  0
 34 76  2  0  0  0  0
 35 70  1  0  0  0  0
 35 77  2  0  0  0  0
 36 37  1  0  0  0  0
 36 60  1  0  0  0  0
 36 78  2  0  0  0  0
 37 71  1  0  0  0  0
 37 79  2  0  0  0  0
 38 52  1  0  0  0  0
 38 73  1  0  0  0  0
 38 80  2  0  0  0  0
 39 62  1  0  0  0  0
 39 67  1  0  0  0  0
 39 81  2  0  0  0  0
 40 63  1  0  0  0  0
 40 74  1  0  0  0  0
 40 82  2  0  0  0  0
 41 68  1  0  0  0  0
 41 72  1  0  0  0  0
 41 83  2  0  0  0  0
 42 45  1  0  0  0  0
 43 52  1  0  0  0  0
 44 67  1  0  0  0  0
 45 47  1  0  0  0  0
 46 48  1  0  0  0  0
 46 49  1  0  0  0  0
 47 51  1  0  0  0  0
 48 53  1  0  0  0  0
 49 68  1  0  0  0  0
 50 53  1  0  0  0  0
 50 68  1  0  0  0  0
 51 73  1  0  0  0  0
 52 67  1  0  0  0  0
 53 66  1  0  0  0  0
 55 63  1  0  0  0  0
 56 64  1  0  0  0  0
 57 64  1  0  0  0  0
 58 64  1  0  0  0  0
 59 75  1  0  0  0  0
 60 61  1  0  0  0  0
 61 85  1  0  0  0  0
 62 64  1  0  0  0  0
 62 74  1  0  0  0  0
 63 75  1  0  0  0  0
 65 66  1  0  0  0  0
M  CHG  1  75   1
M  ISO  4  41 100  61 101  72 100  85 101
M  END
> <Batch ID>
0168

> <Smiles>
CNC(C)C(=O)NC(C(=O)N1Cc2cc([101O:1][101CH2:1]CC(=O)C(=O)Nc3ccc([100NH:0][100C:0](=O)N4CCCC(n5nc(-c6ccc(Oc7ccc(F)cc7F)cc6)c(C(N)=O)c5N)C4)cc3C(C)=O)ccc2CC1C(=O)NC1CCCc2ccccc21)C(C)(C)C

> <Shape>
0.313

> <Color>
0.155

> <Negative vol penalty>
0.000

$$$$

  -OEChem-04052304143D

 87 95  0     1  0  0  0  0  0999 V2000
  -27.3368  -31.9171   23.7003 C   0  0  0  0  0  0  0  0  0  0  0  0
  -27.5559  -30.6149   24.1382 C   0  0  0  0  0  0  0  0  0  0  0  0
  -23.0806   -9.8650   19.9458 C   0  0  0  0  0  0  0  0  0  0  0  0
  -23.8391   -9.8841   22.2395 C   0  0  0  0  0  0  0  0  0  0  0  0
  -27.7739  -32.9934   24.4712 C   0  0  0  0  0  0  0  0  0  0  0  0
  -28.2133  -30.3883   25.3468 C   0  0  0  0  0  0  0  0  0  0  0  0
  -25.9442  -26.8387   28.1569 C   0  0  0  0  0  0  0  0  0  0  0  0
  -22.3385   -8.7118   20.2008 C   0  0  0  0  0  0  0  0  0  0  0  0
  -23.0970   -8.7309   22.4946 C   0  0  0  0  0  0  0  0  0  0  0  0
  -26.1599  -25.5087   27.7985 C   0  0  0  0  0  0  0  0  0  0  0  0
  -19.8698   -7.9305   23.0990 C   0  0  0  0  0  0  0  0  0  0  0  0
  -19.1123   -7.8948   24.2696 C   0  0  0  0  0  0  0  0  0  0  0  0
  -27.8106  -25.3117   29.5465 C   0  0  0  0  0  0  0  0  0  0  0  0
  -29.7608  -18.6734   23.2990 C   0  0  0  0  0  0  0  0  0  0  0  0
  -20.3565   -5.9630   25.0159 C   0  0  0  0  0  0  0  0  0  0  0  0
  -28.0938  -20.1058   22.3901 C   0  0  0  0  0  0  0  0  0  0  0  0
  -23.8310  -10.4511   20.9652 C   0  0  0  0  0  0  0  0  0  0  0  0
  -24.1686  -12.9762   20.8334 C   0  0  0  0  0  0  0  0  0  0  0  0
  -28.4285  -32.7800   25.6946 C   0  0  0  0  0  0  0  0  0  0  0  0
  -26.6691  -27.4193   29.2075 C   0  0  0  0  0  0  0  0  0  0  0  0
  -28.6608  -31.4628   26.1342 C   0  0  0  0  0  0  0  0  0  0  0  0
  -27.6004  -26.6485   29.9179 C   0  0  0  0  0  0  0  0  0  0  0  0
  -29.8469  -18.0404   22.0640 C   0  0  0  0  0  0  0  0  0  0  0  0
  -28.8701  -19.7267   23.4734 C   0  0  0  0  0  0  0  0  0  0  0  0
  -22.3467   -8.1447   21.4751 C   0  0  0  0  0  0  0  0  0  0  0  0
  -27.0952  -24.7458   28.4915 C   0  0  0  0  0  0  0  0  0  0  0  0
  -20.8707   -6.9824   22.8867 C   0  0  0  0  0  0  0  0  0  0  0  0
  -19.3556   -6.9111   25.2281 C   0  0  0  0  0  0  0  0  0  0  0  0
  -21.1140   -5.9986   23.8452 C   0  0  0  0  0  0  0  0  0  0  0  0
  -24.5982  -11.6420   20.7023 C   0  0  0  0  0  0  0  0  0  0  0  0
  -29.0268  -18.4948   21.0438 C   0  0  0  0  0  0  0  0  0  0  0  0
  -25.2598  -13.7258   20.4672 C   0  0  0  0  0  0  0  0  0  0  0  0
  -22.8971  -13.4919   21.2492 C   0  0  0  0  0  0  0  0  0  0  0  0
  -28.7203  -29.8353   29.4510 C   0  0  0  0  0  0  0  0  0  0  0  0
  -27.9974  -21.9405   26.3751 C   0  0  0  0  0  0  0  0  0  0  0  0
  -28.4886  -29.2015   32.6238 C   0  0  0  0  0  0  0  0  0  0  0  0
  -28.3791  -18.1559   18.6376 C   0  0  0  0  0  0  0  0  0  0  0  0
  -27.7792  -26.9441   35.0831 C   0  0  0  0  0  0  0  0  0  0  0  0
  -30.7417  -14.7549   20.6539 C   0  0  0  0  0  0  0  0  0  0  0  0
  -28.9248  -33.9744   26.4704 C   0  0  0  0  0  0  0  0  0  0  0  0
  -26.4055  -28.8474   29.5991 C   0  0  0  0  0  0  0  0  0  0  0  0
  -28.3900  -27.2187   31.0667 C   0  0  0  0  0  0  0  0  0  0  0  0
  -29.2809  -33.6541   27.9198 C   0  0  0  0  0  0  0  0  0  0  0  0
  -29.6094  -12.3573   18.2778 C   0  0  0  0  0  0  0  0  0  0  0  0
  -30.1223  -32.3840   27.9947 C   0  0  0  0  0  0  0  0  0  0  0  0
  -28.1722  -12.0632   18.7113 C   0  0  0  0  0  0  0  0  0  0  0  0
  -30.5255  -12.5853   19.4781 C   0  0  0  0  0  0  0  0  0  0  0  0
  -28.6217  -13.3197   20.8602 C   0  0  0  0  0  0  0  0  0  0  0  0
  -29.3483  -31.1767   27.4517 C   0  0  1  0  0  0  0  0  0  0  0  0
  -27.5694  -29.4853   30.3513 C   0  0  1  0  0  0  0  0  0  0  0  0
  -27.6485  -13.1379   19.6828 C   0  0  2  0  0  0  0  0  0  0  0  0
  -28.7625  -17.2456   17.4980 C   0  0  0  0  0  0  0  0  0  0  0  0
  -27.7162  -26.7066   37.5804 C   0  0  0  0  0  0  0  0  0  0  0  0
  -31.5330  -29.0051   32.6795 C   0  0  0  0  0  0  0  0  0  0  0  0
  -31.3489  -27.8587   34.8976 C   0  0  0  0  0  0  0  0  0  0  0  0
  -30.5287  -30.1997   34.6337 C   0  0  0  0  0  0  0  0  0  0  0  0
  -24.8781  -26.3590   35.0704 C   0  0  0  0  0  0  0  0  0  0  0  0
  -30.8032  -16.9114   21.8807 C   0  0  0  0  0  0  0  0  0  0  0  0
  -27.8604  -21.4734   24.9415 C   0  0  0  0  0  0  0  0  0  0  0  0
  -27.1066  -23.1010   26.7738 C   0  0  0  0  0  0  0  0  0  1  0  0
  -29.2215  -28.3034   33.5909 C   0  0  1  0  0  0  0  0  0  0  0  0
  -26.9208  -27.0502   36.3306 C   0  0  2  0  0  0  0  0  0  0  0  0
  -30.6447  -28.8313   33.9276 C   0  0  0  0  0  0  0  0  0  0  0  0
  -28.1495  -19.5149   21.1754 N   0  0  0  0  0  0  0  0  0  0  0  0
  -25.8635  -11.5464   20.2851 N   0  0  0  0  0  0  0  0  0  0  0  0
  -26.2383  -12.8299   20.1510 N   0  0  0  0  0  0  0  0  0  0  0  0
  -28.1010  -28.6215   31.4075 N   0  0  0  0  0  0  0  0  0  0  0  0
  -29.9727  -13.6170   20.3589 N   0  0  0  0  0  0  0  0  0  0  0  0
  -25.4680  -15.0573   20.3881 N   0  0  0  0  0  0  0  0  0  0  0  0
  -21.8865  -12.5826   21.5902 N   0  0  0  0  0  0  0  0  0  0  0  0
  -28.7615  -20.3770   24.6942 N   0  0  0  0  0  0  0  0  0  0  0  0
  -29.1057  -17.8634   19.7944 N   0  0  0  0  0  0  0  0  0  0  0  0
  -28.3915  -30.7077   28.4310 N   0  0  0  0  0  0  0  0  0  0  0  0
  -28.3494  -28.1549   34.7510 N   0  0  0  0  0  0  0  0  0  0  0  0
  -30.1405  -15.6867   21.4912 N   0  0  0  0  0  0  0  0  0  0  0  0
  -25.7602  -26.1196   36.2415 N   0  3  0  0  0  0  0  0  0  0  0  0
  -22.6587  -14.7224   21.3006 O   0  0  0  0  0  0  0  0  0  0  0  0
  -29.8251  -29.3510   29.6666 O   0  0  0  0  0  0  0  0  0  0  0  0
  -28.7769  -21.4207   27.1726 O   0  0  0  0  0  0  0  0  0  0  0  0
  -28.2618  -30.3723   32.9389 O   0  0  0  0  0  0  0  0  0  0  0  0
  -27.5266  -19.0252   18.4876 O   0  0  0  0  0  0  0  0  0  0  0  0
  -27.9318  -25.8916   34.4670 O   0  0  0  0  0  0  0  0  0  0  0  0
  -31.8776  -14.9301   20.2001 O   0  0  0  0  0  0  0  0  0  0  0  0
  -21.6224   -7.0196   21.7244 O   0  0  0  0  0  0  0  0  0  0  0  0
  -27.3082  -23.4476   28.1433 O   0  0  0  0  0  0  0  0  0  1  0  0
  -18.6291   -6.8779   26.3530 F   0  0  0  0  0  0  0  0  0  0  0  0
  -22.0750   -5.0858   23.6475 F   0  0  0  0  0  0  0  0  0  0  0  0
  1  2  1  0  0  0  0
  1  5  2  0  0  0  0
  2  6  2  0  0  0  0
  3  8  2  0  0  0  0
  3 17  1  0  0  0  0
  4  9  1  0  0  0  0
  4 17  2  0  0  0  0
  5 19  1  0  0  0  0
  6 21  1  0  0  0  0
  7 10  2  0  0  0  0
  7 20  1  0  0  0  0
  8 25  1  0  0  0  0
  9 25  2  0  0  0  0
 10 26  1  0  0  0  0
 11 12  2  0  0  0  0
 11 27  1  0  0  0  0
 12 28  1  0  0  0  0
 13 22  1  0  0  0  0
 13 26  2  0  0  0  0
 14 23  1  0  0  0  0
 14 24  2  0  0  0  0
 15 28  2  0  0  0  0
 15 29  1  0  0  0  0
 16 24  1  0  0  0  0
 16 64  2  0  0  0  0
 17 30  1  0  0  0  0
 18 30  1  0  0  0  0
 18 32  2  0  0  0  0
 18 33  1  0  0  0  0
 19 21  2  0  0  0  0
 19 40  1  0  0  0  0
 20 22  2  0  0  0  0
 20 41  1  0  0  0  0
 21 49  1  0  0  0  0
 22 42  1  0  0  0  0
 23 31  2  0  0  0  0
 23 58  1  0  0  0  0
 24 71  1  0  0  0  0
 25 84  1  0  0  0  0
 26 85  1  0  0  0  0
 27 29  2  0  0  0  0
 27 84  1  0  0  0  0
 28 86  1  0  0  0  0
 29 87  1  0  0  0  0
 30 65  2  0  0  0  0
 31 64  1  0  0  0  0
 31 72  1  0  0  0  0
 32 66  1  0  0  0  0
 32 69  1  0  0  0  0
 33 70  1  0  0  0  0
 33 77  2  0  0  0  0
 34 50  1  0  0  0  0
 34 73  1  0  0  0  0
 34 78  2  0  0  0  0
 35 59  1  0  0  0  0
 35 60  1  0  0  0  0
 35 79  2  0  0  0  0
 36 61  1  0  0  0  0
 36 67  1  0  0  0  0
 36 80  2  0  0  0  0
 37 52  1  0  0  0  0
 37 72  1  0  0  0  0
 37 81  2  0  0  0  0
 38 62  1  0  0  0  0
 38 74  1  0  0  0  0
 38 82  2  0  0  0  0
 39 68  1  0  0  0  0
 39 75  1  0  0  0  0
 39 83  2  0  0  0  0
 40 43  1  0  0  0  0
 41 50  1  0  0  0  0
 42 67  1  0  0  0  0
 43 45  1  0  0  0  0
 44 46  1  0  0  0  0
 44 47  1  0  0  0  0
 45 49  1  0  0  0  0
 46 51  1  0  0  0  0
 47 68  1  0  0  0  0
 48 51  1  0  0  0  0
 48 68  1  0  0  0  0
 49 73  1  0  0  0  0
 50 67  1  0  0  0  0
 51 66  1  0  0  0  0
 53 62  1  0  0  0  0
 54 63  1  0  0  0  0
 55 63  1  0  0  0  0
 56 63  1  0  0  0  0
 57 76  1  0  0  0  0
 58 75  1  0  0  0  0
 59 71  1  0  0  0  0
 60 85  1  0  0  0  0
 61 63  1  0  0  0  0
 61 74  1  0  0  0  0
 62 76  1  0  0  0  0
 65 66  1  0  0  0  0
M  CHG  1  76   1
M  ISO  4  39 100  60 101  75 100  85 101
M  END
> <Batch ID>
0168

> <Smiles>
CNC(C)C(=O)NC(C(=O)N1Cc2cc([101O:1][101CH2:1]C(=O)CNc3cnc(NC(C)=O)c(C[100NH:0][100C:0](=O)N4CCCC(n5nc(-c6ccc(Oc7ccc(F)cc7F)cc6)c(C(N)=O)c5N)C4)c3)ccc2CC1C(=O)NC1CCCc2ccccc21)C(C)(C)C

> <Shape>
0.233

> <Color>
0.180

> <Negative vol penalty>
0.000

$$$$

  -OEChem-04052304143D

 86 94  0     1  0  0  0  0  0999 V2000
  -18.1331  -26.7831   25.6790 C   0  0  0  0  0  0  0  0  0  0  0  0
  -19.3200  -26.2774   25.1586 C   0  0  0  0  0  0  0  0  0  0  0  0
  -23.2165   -9.6610   20.2501 C   0  0  0  0  0  0  0  0  0  0  0  0
  -23.7852  -10.1118   22.5545 C   0  0  0  0  0  0  0  0  0  0  0  0
  -17.5546  -27.9197   25.1156 C   0  0  0  0  0  0  0  0  0  0  0  0
  -19.9286  -26.9074   24.0737 C   0  0  0  0  0  0  0  0  0  0  0  0
  -24.9291  -27.4263   24.6832 C   0  0  0  0  0  0  0  0  0  0  0  0
  -22.4971   -8.5342   20.6480 C   0  0  0  0  0  0  0  0  0  0  0  0
  -23.0657   -8.9851   22.9525 C   0  0  0  0  0  0  0  0  0  0  0  0
  -25.7180  -26.2984   24.4614 C   0  0  0  0  0  0  0  0  0  0  0  0
  -19.8302   -8.1446   23.4481 C   0  0  0  0  0  0  0  0  0  0  0  0
  -18.9818   -8.2743   24.5476 C   0  0  0  0  0  0  0  0  0  0  0  0
  -29.4545  -18.0303   22.5221 C   0  0  0  0  0  0  0  0  0  0  0  0
  -26.2730  -27.1258   22.2645 C   0  0  0  0  0  0  0  0  0  0  0  0
  -31.7087  -17.2023   22.2581 C   0  0  0  0  0  0  0  0  0  0  0  0
  -20.2283   -6.5628   25.7113 C   0  0  0  0  0  0  0  0  0  0  0  0
  -23.8606  -10.4498   21.2033 C   0  0  0  0  0  0  0  0  0  0  0  0
  -29.9337  -19.0894   23.2930 C   0  0  0  0  0  0  0  0  0  0  0  0
  -24.1191  -12.9279   20.6556 C   0  0  0  0  0  0  0  0  0  0  0  0
  -18.1615  -28.5696   24.0294 C   0  0  0  0  0  0  0  0  0  0  0  0
  -24.7973  -28.4089   23.6914 C   0  0  0  0  0  0  0  0  0  0  0  0
  -19.3570  -28.0530   23.4943 C   0  0  0  0  0  0  0  0  0  0  0  0
  -25.4839  -28.2665   22.4771 C   0  0  0  0  0  0  0  0  0  0  0  0
  -30.3420  -17.0867   22.0047 C   0  0  0  0  0  0  0  0  0  0  0  0
  -22.4216   -8.1962   21.9992 C   0  0  0  0  0  0  0  0  0  0  0  0
  -26.3878  -26.1466   23.2509 C   0  0  0  0  0  0  0  0  0  0  0  0
  -20.8776   -7.2240   23.4801 C   0  0  0  0  0  0  0  0  0  0  0  0
  -19.1809   -7.4834   25.6792 C   0  0  0  0  0  0  0  0  0  0  0  0
  -32.1880  -18.2614   23.0289 C   0  0  0  0  0  0  0  0  0  0  0  0
  -21.0767   -6.4331   24.6117 C   0  0  0  0  0  0  0  0  0  0  0  0
  -31.3005  -19.2050   23.5464 C   0  0  0  0  0  0  0  0  0  0  0  0
  -24.6044  -11.6135   20.7928 C   0  0  0  0  0  0  0  0  0  0  0  0
  -25.2093  -13.6554   20.2451 C   0  0  0  0  0  0  0  0  0  0  0  0
  -28.9862  -20.0932   23.8423 C   0  0  0  0  0  0  0  0  0  0  0  0
  -22.8006  -13.4449   20.8794 C   0  0  0  0  0  0  0  0  0  0  0  0
  -22.3728  -29.5792   22.0014 C   0  0  0  0  0  0  0  0  0  0  0  0
  -27.1793  -22.6288   22.8767 C   0  0  0  0  0  0  0  0  0  0  0  0
  -24.6228  -31.6650   20.9482 C   0  0  0  0  0  0  0  0  0  0  0  0
  -27.9252  -32.3360   20.4090 C   0  0  0  0  0  0  0  0  0  0  0  0
  -30.6012  -14.9897   20.6329 C   0  0  0  0  0  0  0  0  0  0  0  0
  -17.4739  -29.7676   23.4238 C   0  0  0  0  0  0  0  0  0  0  0  0
  -23.9639  -29.6327   23.9563 C   0  0  0  0  0  0  0  0  0  0  0  0
  -25.3916  -29.3025   21.3878 C   0  0  0  0  0  0  0  0  0  0  0  0
  -18.3793  -30.5943   22.5144 C   0  0  0  0  0  0  0  0  0  0  0  0
  -29.7730  -12.1420   18.6628 C   0  0  0  0  0  0  0  0  0  0  0  0
  -19.1514  -29.6868   21.5620 C   0  0  0  0  0  0  0  0  0  0  0  0
  -28.3146  -11.8587   19.0300 C   0  0  0  0  0  0  0  0  0  0  0  0
  -30.5777  -12.6256   19.8679 C   0  0  0  0  0  0  0  0  0  0  0  0
  -28.5389  -13.4858   20.9507 C   0  0  0  0  0  0  0  0  0  0  0  0
  -20.0604  -28.7228   22.3339 C   0  0  1  0  0  0  0  0  0  0  0  0
  -23.4898  -30.3206   22.6798 C   0  0  1  0  0  0  0  0  0  0  0  0
  -27.6728  -13.0581   19.7547 C   0  0  2  0  0  0  0  0  0  0  0  0
  -29.4526  -34.1082   19.5013 C   0  0  0  0  0  0  0  0  0  0  0  0
  -23.8399  -30.8802   18.1054 C   0  0  0  0  0  0  0  0  0  0  0  0
  -25.9735  -31.9178   17.3058 C   0  0  0  0  0  0  0  0  0  0  0  0
  -24.2517  -33.3245   18.4369 C   0  0  0  0  0  0  0  0  0  0  0  0
  -29.3005  -32.6473   23.0111 C   0  0  0  0  0  0  0  0  0  0  0  0
  -26.8393  -21.2832   23.4810 C   0  0  0  0  0  0  0  0  0  0  0  0
  -26.7707  -23.8408   23.6898 C   0  0  0  0  0  0  0  0  0  1  0  0
  -25.6082  -31.6872   19.8047 C   0  0  1  0  0  0  0  0  0  0  0  0
  -28.7739  -33.5497   20.7423 C   0  0  2  0  0  0  0  0  0  0  0  0
  -24.9187  -31.9318   18.4328 C   0  0  0  0  0  0  0  0  0  0  0  0
  -25.9019  -11.5091   20.4935 N   0  0  0  0  0  0  0  0  0  0  0  0
  -26.2411  -12.7671   20.1642 N   0  0  0  0  0  0  0  0  0  0  0  0
  -24.5594  -30.4782   21.6921 N   0  0  0  0  0  0  0  0  0  0  0  0
  -29.9116  -13.7658   20.5012 N   0  0  0  0  0  0  0  0  0  0  0  0
  -25.3764  -14.9618   19.9490 N   0  0  0  0  0  0  0  0  0  0  0  0
  -21.7982  -12.5599   21.2991 N   0  0  0  0  0  0  0  0  0  0  0  0
  -29.8557  -16.0111   21.2209 N   0  0  0  0  0  0  0  0  0  0  0  0
  -27.8348  -20.3281   23.0950 N   0  0  0  0  0  0  0  0  0  0  0  0
  -21.2513  -29.4071   22.7901 N   0  0  0  0  0  0  0  0  0  0  0  0
  -26.6155  -32.6833   20.1533 N   0  0  0  0  0  0  0  0  0  0  0  0
  -29.8279  -33.1887   21.7321 N   0  3  0  0  0  0  0  0  0  0  0  0
  -29.2638  -20.6693   24.8909 O   0  0  0  0  0  0  0  0  0  0  0  0
  -22.5159  -14.6527   20.6962 O   0  0  0  0  0  0  0  0  0  0  0  0
  -22.5171  -29.1932   20.8473 O   0  0  0  0  0  0  0  0  0  0  0  0
  -27.7066  -22.7384   21.7701 O   0  0  0  0  0  0  0  0  0  0  0  0
  -23.9398  -32.6662   21.1774 O   0  0  0  0  0  0  0  0  0  0  0  0
  -28.3795  -31.1946   20.3750 O   0  0  0  0  0  0  0  0  0  0  0  0
  -31.7579  -15.1298   20.2275 O   0  0  0  0  0  0  0  0  0  0  0  0
  -21.7195   -7.0969   22.3879 O   0  0  0  0  0  0  0  0  0  0  0  0
  -27.1579  -25.0463   23.0316 O   0  0  0  0  0  0  0  0  0  1  0  0
  -18.3670   -7.6092   26.7357 F   0  0  0  0  0  0  0  0  0  0  0  0
  -33.5004  -18.3725   23.2723 F   0  0  0  0  0  0  0  0  0  0  0  0
  -22.0820   -5.5477   24.6487 F   0  0  0  0  0  0  0  0  0  0  0  0
  -31.7721  -20.2185   24.2860 F   0  0  0  0  0  0  0  0  0  0  0  0
  1  2  1  0  0  0  0
  1  5  2  0  0  0  0
  2  6  2  0  0  0  0
  3  8  2  0  0  0  0
  3 17  1  0  0  0  0
  4  9  1  0  0  0  0
  4 17  2  0  0  0  0
  5 20  1  0  0  0  0
  6 22  1  0  0  0  0
  7 10  2  0  0  0  0
  7 21  1  0  0  0  0
  8 25  1  0  0  0  0
  9 25  2  0  0  0  0
 10 26  1  0  0  0  0
 11 12  2  0  0  0  0
 11 27  1  0  0  0  0
 12 28  1  0  0  0  0
 13 18  1  0  0  0  0
 13 24  2  0  0  0  0
 14 23  1  0  0  0  0
 14 26  2  0  0  0  0
 15 24  1  0  0  0  0
 15 29  2  0  0  0  0
 16 28  2  0  0  0  0
 16 30  1  0  0  0  0
 17 32  1  0  0  0  0
 18 31  2  0  0  0  0
 18 34  1  0  0  0  0
 19 32  1  0  0  0  0
 19 33  2  0  0  0  0
 19 35  1  0  0  0  0
 20 22  2  0  0  0  0
 20 41  1  0  0  0  0
 21 23  2  0  0  0  0
 21 42  1  0  0  0  0
 22 50  1  0  0  0  0
 23 43  1  0  0  0  0
 24 69  1  0  0  0  0
 25 81  1  0  0  0  0
 26 82  1  0  0  0  0
 27 30  2  0  0  0  0
 27 81  1  0  0  0  0
 28 83  1  0  0  0  0
 29 31  1  0  0  0  0
 29 84  1  0  0  0  0
 30 85  1  0  0  0  0
 31 86  1  0  0  0  0
 32 63  2  0  0  0  0
 33 64  1  0  0  0  0
 33 67  1  0  0  0  0
 34 70  1  0  0  0  0
 34 74  2  0  0  0  0
 35 68  1  0  0  0  0
 35 75  2  0  0  0  0
 36 51  1  0  0  0  0
 36 71  1  0  0  0  0
 36 76  2  0  0  0  0
 37 58  1  0  0  0  0
 37 59  1  0  0  0  0
 37 77  2  0  0  0  0
 38 60  1  0  0  0  0
 38 65  1  0  0  0  0
 38 78  2  0  0  0  0
 39 61  1  0  0  0  0
 39 72  1  0  0  0  0
 39 79  2  0  0  0  0
 40 66  1  0  0  0  0
 40 69  1  0  0  0  0
 40 80  2  0  0  0  0
 41 44  1  0  0  0  0
 42 51  1  0  0  0  0
 43 65  1  0  0  0  0
 44 46  1  0  0  0  0
 45 47  1  0  0  0  0
 45 48  1  0  0  0  0
 46 50  1  0  0  0  0
 47 52  1  0  0  0  0
 48 66  1  0  0  0  0
 49 52  1  0  0  0  0
 49 66  1  0  0  0  0
 50 71  1  0  0  0  0
 51 65  1  0  0  0  0
 52 64  1  0  0  0  0
 53 61  1  0  0  0  0
 54 62  1  0  0  0  0
 55 62  1  0  0  0  0
 56 62  1  0  0  0  0
 57 73  1  0  0  0  0
 58 70  1  0  0  0  0
 59 82  1  0  0  0  0
 60 62  1  0  0  0  0
 60 72  1  0  0  0  0
 61 73  1  0  0  0  0
 63 64  1  0  0  0  0
M  CHG  1  73   1
M  ISO  4  40 100  59 101  69 100  82 101
M  END
> <Batch ID>
0168

> <Smiles>
CNC(C)C(=O)NC(C(=O)N1Cc2cc([101O:1][101CH2:1]C(=O)CNC(=O)c3cc([100NH:0][100C:0](=O)N4CCCC(n5nc(-c6ccc(Oc7ccc(F)cc7F)cc6)c(C(N)=O)c5N)C4)cc(F)c3F)ccc2CC1C(=O)NC1CCCc2ccccc21)C(C)(C)C

> <Shape>
0.267

> <Color>
0.191

> <Negative vol penalty>
0.000

$$$$

  -OEChem-04052304143D

 86 94  0     1  0  0  0  0  0999 V2000
  -18.7238  -24.8721   23.5339 C   0  0  0  0  0  0  0  0  0  0  0  0
  -19.8063  -24.8575   22.6601 C   0  0  0  0  0  0  0  0  0  0  0  0
  -25.8644  -13.4678   21.6577 C   0  0  0  0  0  0  0  0  0  0  0  0
  -25.8839  -13.3429   19.2450 C   0  0  0  0  0  0  0  0  0  0  0  0
  -18.1056  -26.0795   23.8559 C   0  0  0  0  0  0  0  0  0  0  0  0
  -20.2705  -26.0503   22.1070 C   0  0  0  0  0  0  0  0  0  0  0  0
  -26.0767  -27.4816   20.7860 C   0  0  0  0  0  0  0  0  0  0  0  0
  -27.5389  -20.5092   13.3496 C   0  0  0  0  0  0  0  0  0  0  0  0
  -24.8720  -12.4886   21.7004 C   0  0  0  0  0  0  0  0  0  0  0  0
  -24.8915  -12.3636   19.2877 C   0  0  0  0  0  0  0  0  0  0  0  0
  -26.8031  -27.4504   19.5964 C   0  0  0  0  0  0  0  0  0  0  0  0
  -21.5290  -12.3091   21.2356 C   0  0  0  0  0  0  0  0  0  0  0  0
  -20.4470  -12.5208   22.0901 C   0  0  0  0  0  0  0  0  0  0  0  0
  -27.4285  -20.0192   14.6461 C   0  0  0  0  0  0  0  0  0  0  0  0
  -26.3398  -29.7936   19.2591 C   0  0  0  0  0  0  0  0  0  0  0  0
  -20.9933  -10.4929   23.2843 C   0  0  0  0  0  0  0  0  0  0  0  0
  -26.3704  -13.8950   20.4300 C   0  0  0  0  0  0  0  0  0  0  0  0
  -28.7885  -14.7072   20.4065 C   0  0  0  0  0  0  0  0  0  0  0  0
  -18.5686  -27.2889   23.3140 C   0  0  0  0  0  0  0  0  0  0  0  0
  -25.4662  -28.6684   21.2162 C   0  0  0  0  0  0  0  0  0  0  0  0
  -19.6571  -27.2750   22.4211 C   0  0  0  0  0  0  0  0  0  0  0  0
  -25.6084  -29.8379   20.4558 C   0  0  0  0  0  0  0  0  0  0  0  0
  -27.6277  -21.8802   13.1357 C   0  0  0  0  0  0  0  0  0  0  0  0
  -24.3855  -11.9365   20.5155 C   0  0  0  0  0  0  0  0  0  0  0  0
  -26.9323  -28.6058   18.8312 C   0  0  0  0  0  0  0  0  0  0  0  0
  -22.3431  -11.1892   21.4054 C   0  0  0  0  0  0  0  0  0  0  0  0
  -20.1792  -11.6128   23.1144 C   0  0  0  0  0  0  0  0  0  0  0  0
  -22.0752  -10.2811   22.4298 C   0  0  0  0  0  0  0  0  0  0  0  0
  -27.3951  -14.9069   20.3852 C   0  0  0  0  0  0  0  0  0  0  0  0
  -27.4117  -20.9345   15.6861 C   0  0  0  0  0  0  0  0  0  0  0  0
  -27.6018  -22.7123   14.2434 C   0  0  0  0  0  0  0  0  0  0  0  0
  -29.3178  -15.9731   20.3444 C   0  0  0  0  0  0  0  0  0  0  0  0
  -29.5374  -13.4866   20.4762 C   0  0  0  0  0  0  0  0  0  0  0  0
  -27.7886  -26.4375   14.5218 C   0  0  0  0  0  0  0  0  0  0  0  0
  -27.7841  -27.6174   15.4741 C   0  0  0  0  0  0  0  0  0  0  0  0
  -22.4707  -29.5787   21.7658 C   0  0  0  0  0  0  0  0  0  0  0  0
  -23.9029  -32.2762   22.8588 C   0  0  0  0  0  0  0  0  0  0  0  0
  -26.6260  -34.3327   22.8134 C   0  0  0  0  0  0  0  0  0  0  0  0
  -27.2644  -21.1551   18.1913 C   0  0  0  0  0  0  0  0  0  0  0  0
  -17.8383  -28.5638   23.6547 C   0  0  0  0  0  0  0  0  0  0  0  0
  -24.7086  -28.6920   22.5154 C   0  0  0  0  0  0  0  0  0  0  0  0
  -24.9894  -31.1424   20.8840 C   0  0  0  0  0  0  0  0  0  0  0  0
  -18.6276  -29.8264   23.3185 C   0  0  0  0  0  0  0  0  0  0  0  0
  -28.3293  -20.5074   21.5265 C   0  0  0  0  0  0  0  0  0  0  0  0
  -19.2246  -29.7257   21.9184 C   0  0  0  0  0  0  0  0  0  0  0  0
  -28.3433  -18.9795   21.6124 C   0  0  0  0  0  0  0  0  0  0  0  0
  -27.1710  -21.0168   20.6707 C   0  0  0  0  0  0  0  0  0  0  0  0
  -27.0980  -18.8987   19.4147 C   0  0  0  0  0  0  0  0  0  0  0  0
  -20.2054  -28.5510   21.8200 C   0  0  1  0  0  0  0  0  0  0  0  0
  -23.6970  -29.8311   22.5966 C   0  0  1  0  0  0  0  0  0  0  0  0
  -28.2852  -18.3359   20.2131 C   0  0  2  0  0  0  0  0  0  0  0  0
  -27.4883  -36.4813   23.7817 C   0  0  0  0  0  0  0  0  0  0  0  0
  -22.1027  -33.8500   20.9635 C   0  0  0  0  0  0  0  0  0  0  0  0
  -23.6249  -35.8153   21.2614 C   0  0  0  0  0  0  0  0  0  0  0  0
  -22.3963  -34.8832   23.2221 C   0  0  0  0  0  0  0  0  0  0  0  0
  -27.1711  -21.7143   10.6884 C   0  0  0  0  0  0  0  0  0  0  0  0
  -28.9085  -32.9669   24.1109 C   0  0  0  0  0  0  0  0  0  0  0  0
  -27.6757  -25.0527   15.1050 C   0  0  0  0  0  0  0  0  0  0  0  0
  -27.6627  -27.3446   16.9519 C   0  0  0  0  0  0  0  0  0  1  0  0
  -24.3310  -33.5851   22.2403 C   0  0  1  0  0  0  0  0  0  0  0  0
  -27.4262  -34.9696   23.9353 C   0  0  2  0  0  0  0  0  0  0  0  0
  -23.1239  -34.5085   21.9125 C   0  0  0  0  0  0  0  0  0  0  0  0
  -27.0603  -16.1980   20.3151 N   0  0  0  0  0  0  0  0  0  0  0  0
  -27.4958  -22.2732   15.5176 N   0  0  0  0  0  0  0  0  0  0  0  0
  -28.2508  -16.8211   20.2920 N   0  0  0  0  0  0  0  0  0  0  0  0
  -24.2530  -31.1130   22.1586 N   0  0  0  0  0  0  0  0  0  0  0  0
  -27.1823  -20.3665   19.3585 N   0  0  0  0  0  0  0  0  0  0  0  0
  -30.5871  -16.4325   20.3301 N   0  0  0  0  0  0  0  0  0  0  0  0
  -28.8359  -12.2746   20.5341 N   0  0  0  0  0  0  0  0  0  0  0  0
  -27.7374  -22.3778   11.8237 N   0  0  0  0  0  0  0  0  0  0  0  0
  -27.3005  -20.4251   17.0037 N   0  0  0  0  0  0  0  0  0  0  0  0
  -27.6911  -24.0809   14.0396 N   0  0  0  0  0  0  0  0  0  0  0  0
  -21.4706  -28.8964   22.4319 N   0  0  0  0  0  0  0  0  0  0  0  0
  -25.3007  -34.1726   23.1585 N   0  0  0  0  0  0  0  0  0  0  0  0
  -28.8193  -34.4403   23.9430 N   0  3  0  0  0  0  0  0  0  0  0  0
  -30.7914  -13.4719   20.5034 O   0  0  0  0  0  0  0  0  0  0  0  0
  -27.8859  -26.6871   13.3268 O   0  0  0  0  0  0  0  0  0  0  0  0
  -27.8777  -28.7364   14.9862 O   0  0  0  0  0  0  0  0  0  0  0  0
  -22.4340  -29.9750   20.6068 O   0  0  0  0  0  0  0  0  0  0  0  0
  -23.2870  -32.2851   23.9275 O   0  0  0  0  0  0  0  0  0  0  0  0
  -27.1259  -34.0131   21.7371 O   0  0  0  0  0  0  0  0  0  0  0  0
  -27.3273  -22.3861   18.2429 O   0  0  0  0  0  0  0  0  0  0  0  0
  -23.4173  -10.9808   20.5568 O   0  0  0  0  0  0  0  0  0  0  0  0
  -27.6402  -28.5779   17.6693 O   0  0  0  0  0  0  0  0  0  1  0  0
  -19.1410  -11.8171   23.9359 F   0  0  0  0  0  0  0  0  0  0  0  0
  -22.8545   -9.2041   22.5986 F   0  0  0  0  0  0  0  0  0  0  0  0
  1  2  1  0  0  0  0
  1  5  2  0  0  0  0
  2  6  2  0  0  0  0
  3  9  2  0  0  0  0
  3 17  1  0  0  0  0
  4 10  1  0  0  0  0
  4 17  2  0  0  0  0
  5 19  1  0  0  0  0
  6 21  1  0  0  0  0
  7 11  2  0  0  0  0
  7 20  1  0  0  0  0
  8 14  2  0  0  0  0
  8 23  1  0  0  0  0
  9 24  1  0  0  0  0
 10 24  2  0  0  0  0
 11 25  1  0  0  0  0
 12 13  2  0  0  0  0
 12 26  1  0  0  0  0
 13 27  1  0  0  0  0
 14 30  1  0  0  0  0
 15 22  1  0  0  0  0
 15 25  2  0  0  0  0
 16 27  2  0  0  0  0
 16 28  1  0  0  0  0
 17 29  1  0  0  0  0
 18 29  1  0  0  0  0
 18 32  2  0  0  0  0
 18 33  1  0  0  0  0
 19 21  2  0  0  0  0
 19 40  1  0  0  0  0
 20 22  2  0  0  0  0
 20 41  1  0  0  0  0
 21 49  1  0  0  0  0
 22 42  1  0  0  0  0
 23 31  2  0  0  0  0
 23 70  1  0  0  0  0
 24 83  1  0  0  0  0
 25 84  1  0  0  0  0
 26 28  2  0  0  0  0
 26 83  1  0  0  0  0
 27 85  1  0  0  0  0
 28 86  1  0  0  0  0
 29 63  2  0  0  0  0
 30 64  2  0  0  0  0
 30 71  1  0  0  0  0
 31 64  1  0  0  0  0
 31 72  1  0  0  0  0
 32 65  1  0  0  0  0
 32 68  1  0  0  0  0
 33 69  1  0  0  0  0
 33 76  2  0  0  0  0
 34 35  1  0  0  0  0
 34 58  1  0  0  0  0
 34 77  2  0  0  0  0
 35 59  1  0  0  0  0
 35 78  2  0  0  0  0
 36 50  1  0  0  0  0
 36 73  1  0  0  0  0
 36 79  2  0  0  0  0
 37 60  1  0  0  0  0
 37 66  1  0  0  0  0
 37 80  2  0  0  0  0
 38 61  1  0  0  0  0
 38 74  1  0  0  0  0
 38 81  2  0  0  0  0
 39 67  1  0  0  0  0
 39 71  1  0  0  0  0
 39 82  2  0  0  0  0
 40 43  1  0  0  0  0
 41 50  1  0  0  0  0
 42 66  1  0  0  0  0
 43 45  1  0  0  0  0
 44 46  1  0  0  0  0
 44 47  1  0  0  0  0
 45 49  1  0  0  0  0
 46 51  1  0  0  0  0
 47 67  1  0  0  0  0
 48 51  1  0  0  0  0
 48 67  1  0  0  0  0
 49 73  1  0  0  0  0
 50 66  1  0  0  0  0
 51 65  1  0  0  0  0
 52 61  1  0  0  0  0
 53 62  1  0  0  0  0
 54 62  1  0  0  0  0
 55 62  1  0  0  0  0
 56 70  1  0  0  0  0
 57 75  1  0  0  0  0
 58 72  1  0  0  0  0
 59 84  1  0  0  0  0
 60 62  1  0  0  0  0
 60 74  1  0  0  0  0
 61 75  1  0  0  0  0
 63 65  1  0  0  0  0
M  CHG  1  75   1
M  ISO  4  39 100  59 101  71 100  84 101
M  END
> <Batch ID>
0168

> <Smiles>
CNc1ccc([100NH:0][100C:0](=O)N2CCCC(n3nc(-c4ccc(Oc5ccc(F)cc5F)cc4)c(C(N)=O)c3N)C2)nc1NCC(=O)C(=O)[101CH2:1][101O:1]c1ccc2c(c1)CN(C(=O)C(NC(=O)C(C)NC)C(C)(C)C)C(C(=O)NC1CCCc3ccccc31)C2

> <Shape>
0.260

> <Color>
0.100

> <Negative vol penalty>
0.000

$$$$

  -OEChem-04052304143D

 89 97  0     1  0  0  0  0  0999 V2000
  -32.6982  -24.8406   18.0711 C   0  0  0  0  0  0  0  0  0  0  0  0
  -31.6996  -24.6210   19.0146 C   0  0  0  0  0  0  0  0  0  0  0  0
  -22.9575  -10.0577   19.9384 C   0  0  0  0  0  0  0  0  0  0  0  0
  -23.7989   -9.8940   22.1972 C   0  0  0  0  0  0  0  0  0  0  0  0
  -32.9823  -26.1382   17.6477 C   0  0  0  0  0  0  0  0  0  0  0  0
  -30.9853  -25.6991   19.5359 C   0  0  0  0  0  0  0  0  0  0  0  0
  -26.0029  -24.8152   19.7332 C   0  0  0  0  0  0  0  0  0  0  0  0
  -22.1803   -8.9181   20.1453 C   0  0  0  0  0  0  0  0  0  0  0  0
  -23.0216   -8.7544   22.4042 C   0  0  0  0  0  0  0  0  0  0  0  0
  -25.5392  -24.0133   20.7753 C   0  0  0  0  0  0  0  0  0  0  0  0
  -23.1673   -5.4657   21.6334 C   0  0  0  0  0  0  0  0  0  0  0  0
  -23.7691   -4.3764   22.2631 C   0  0  0  0  0  0  0  0  0  0  0  0
  -24.8624  -25.9875   21.9851 C   0  0  0  0  0  0  0  0  0  0  0  0
  -31.3399  -17.5388   20.7647 C   0  0  0  0  0  0  0  0  0  0  0  0
  -22.1377   -4.5026   24.0407 C   0  0  0  0  0  0  0  0  0  0  0  0
  -23.7669  -10.5456   20.9643 C   0  0  0  0  0  0  0  0  0  0  0  0
  -24.1989  -13.0597   20.9865 C   0  0  0  0  0  0  0  0  0  0  0  0
  -32.2646  -27.2319   18.1570 C   0  0  0  0  0  0  0  0  0  0  0  0
  -25.9095  -26.2120   19.8142 C   0  0  0  0  0  0  0  0  0  0  0  0
  -31.2610  -27.0127   19.1199 C   0  0  0  0  0  0  0  0  0  0  0  0
  -25.3233  -26.8047   20.9416 C   0  0  0  0  0  0  0  0  0  0  0  0
  -30.4502  -16.9211   21.6437 C   0  0  0  0  0  0  0  0  0  0  0  0
  -30.0051  -19.0525   22.6908 C   0  0  0  0  0  0  0  0  0  0  0  0
  -22.2123   -8.2665   21.3782 C   0  0  0  0  0  0  0  0  0  0  0  0
  -24.9715  -24.5996   21.9027 C   0  0  0  0  0  0  0  0  0  0  0  0
  -22.0507   -6.0736   22.2073 C   0  0  0  0  0  0  0  0  0  0  0  0
  -23.2544   -3.8947   23.4667 C   0  0  0  0  0  0  0  0  0  0  0  0
  -31.5623  -18.9133   20.8488 C   0  0  0  0  0  0  0  0  0  0  0  0
  -21.5359   -5.5920   23.4110 C   0  0  0  0  0  0  0  0  0  0  0  0
  -29.7828  -17.6780   22.6067 C   0  0  0  0  0  0  0  0  0  0  0  0
  -30.8948  -19.6701   21.8119 C   0  0  0  0  0  0  0  0  0  0  0  0
  -24.5705  -11.7224   20.7510 C   0  0  0  0  0  0  0  0  0  0  0  0
  -25.3047  -13.7915   20.6286 C   0  0  0  0  0  0  0  0  0  0  0  0
  -22.9645  -13.5927   21.4844 C   0  0  0  0  0  0  0  0  0  0  0  0
  -28.0047  -28.6022   19.8429 C   0  0  0  0  0  0  0  0  0  0  0  0
  -27.3559  -20.9213   24.4643 C   0  0  0  0  0  0  0  0  0  0  0  0
  -25.3290  -30.4326   19.7307 C   0  0  0  0  0  0  0  0  0  0  0  0
  -21.9849  -30.7166   20.3497 C   0  0  0  0  0  0  0  0  0  0  0  0
  -30.8091  -14.6305   20.6586 C   0  0  0  0  0  0  0  0  0  0  0  0
  -32.6397  -28.6207   17.7041 C   0  0  0  0  0  0  0  0  0  0  0  0
  -26.3900  -27.0618   18.6699 C   0  0  0  0  0  0  0  0  0  0  0  0
  -25.1812  -28.2988   21.0686 C   0  0  0  0  0  0  0  0  0  0  0  0
  -31.5823  -29.6732   18.0275 C   0  0  0  0  0  0  0  0  0  0  0  0
  -29.5205  -12.4108   18.1909 C   0  0  0  0  0  0  0  0  0  0  0  0
  -31.1021  -29.5226   19.4675 C   0  0  0  0  0  0  0  0  0  0  0  0
  -28.0873  -12.1438   18.6563 C   0  0  0  0  0  0  0  0  0  0  0  0
  -30.4861  -12.5313   19.3685 C   0  0  0  0  0  0  0  0  0  0  0  0
  -28.6585  -13.2346   20.8633 C   0  0  0  0  0  0  0  0  0  0  0  0
  -30.4474  -28.1540   19.6905 C   0  0  1  0  0  0  0  0  0  0  0  0
  -26.7125  -28.4943   19.0838 C   0  0  1  0  0  0  0  0  0  0  0  0
  -27.6382  -13.1700   19.7151 C   0  0  2  0  0  0  0  0  0  0  0  0
  -20.0831  -32.3458   20.1884 C   0  0  0  0  0  0  0  0  0  0  0  0
  -26.3812  -31.9006   22.1899 C   0  0  0  0  0  0  0  0  0  0  0  0
  -24.0798  -32.8229   22.5379 C   0  0  0  0  0  0  0  0  0  0  0  0
  -25.3423  -33.3767   20.4590 C   0  0  0  0  0  0  0  0  0  0  0  0
  -23.6424  -21.9603   25.0452 C   0  0  0  0  0  0  0  0  0  0  0  0
  -20.4908  -28.9663   18.4887 C   0  0  0  0  0  0  0  0  0  0  0  0
  -25.8888  -20.8587   24.8718 C   0  0  0  0  0  0  0  0  0  0  0  0
  -27.9639  -19.6087   24.0137 C   0  0  0  0  0  0  0  0  0  0  0  0
  -25.1818  -22.5728   23.1291 C   0  0  0  0  0  0  0  0  0  1  0  0
  -24.4095  -31.0461   20.7588 C   0  0  1  0  0  0  0  0  0  0  0  0
  -20.8414  -31.2269   19.4915 C   0  0  2  0  0  0  0  0  0  0  0  0
  -25.0575  -32.2585   21.4852 C   0  0  0  0  0  0  0  0  0  0  0  0
  -25.0932  -22.1422   24.5970 C   0  0  1  0  0  0  0  0  0  0  0  0
  -25.8150  -11.6084   20.2797 N   0  0  0  0  0  0  0  0  0  0  0  0
  -26.2351  -12.8834   20.2161 N   0  0  0  0  0  0  0  0  0  0  0  0
  -25.6717  -29.0872   19.9261 N   0  0  0  0  0  0  0  0  0  0  0  0
  -29.9981  -13.5242   20.3282 N   0  0  0  0  0  0  0  0  0  0  0  0
  -25.5623  -15.1166   20.6294 N   0  0  0  0  0  0  0  0  0  0  0  0
  -21.9319  -12.7005   21.8036 N   0  0  0  0  0  0  0  0  0  0  0  0
  -30.2267  -15.5247   21.5563 N   0  0  0  0  0  0  0  0  0  0  0  0
  -29.3440  -19.8057   23.6504 N   0  0  0  0  0  0  0  0  0  0  0  0
  -29.1060  -28.1410   19.1473 N   0  0  0  0  0  0  0  0  0  0  0  0
  -23.1685  -31.3619   20.0598 N   0  0  0  0  0  0  0  0  0  0  0  0
  -19.8841  -30.1239   19.1950 N   0  3  0  0  0  0  0  0  0  0  0  0
  -22.7769  -14.8249   21.6261 O   0  0  0  0  0  0  0  0  0  0  0  0
  -28.0029  -29.0707   20.9752 O   0  0  0  0  0  0  0  0  0  0  0  0
  -28.0139  -21.9578   24.5448 O   0  0  0  0  0  0  0  0  0  0  0  0
  -25.7228  -31.1198   18.7850 O   0  0  0  0  0  0  0  0  0  0  0  0
  -21.8417  -29.8363   21.1953 O   0  0  0  0  0  0  0  0  0  0  0  0
  -31.9262  -14.7882   20.1595 O   0  0  0  0  0  0  0  0  0  0  0  0
  -21.4538   -7.1546   21.5805 O   0  0  0  0  0  0  0  0  0  0  0  0
  -24.5188  -23.8193   22.9216 O   0  0  0  0  0  0  0  0  0  1  0  0
  -23.8315   -2.8476   24.0705 F   0  0  0  0  0  0  0  0  0  0  0  0
  -32.4181  -19.5062   20.0062 F   0  0  0  0  0  0  0  0  0  0  0  0
  -20.4627   -6.1711   23.9666 F   0  0  0  0  0  0  0  0  0  0  0  0
  -28.9277  -17.0839   23.4532 F   0  0  0  0  0  0  0  0  0  0  0  0
  -31.1165  -20.9903   21.8841 F   0  0  0  0  0  0  0  0  0  0  0  0
  -25.6206  -23.1432   25.3637 F   0  0  0  0  0  0  0  0  0  0  0  0
  1  2  1  0  0  0  0
  1  5  2  0  0  0  0
  2  6  2  0  0  0  0
  3  8  2  0  0  0  0
  3 16  1  0  0  0  0
  4  9  1  0  0  0  0
  4 16  2  0  0  0  0
  5 18  1  0  0  0  0
  6 20  1  0  0  0  0
  7 10  2  0  0  0  0
  7 19  1  0  0  0  0
  8 24  1  0  0  0  0
  9 24  2  0  0  0  0
 10 25  1  0  0  0  0
 11 12  2  0  0  0  0
 11 26  1  0  0  0  0
 12 27  1  0  0  0  0
 13 21  1  0  0  0  0
 13 25  2  0  0  0  0
 14 22  2  0  0  0  0
 14 28  1  0  0  0  0
 15 27  2  0  0  0  0
 15 29  1  0  0  0  0
 16 32  1  0  0  0  0
 17 32  1  0  0  0  0
 17 33  2  0  0  0  0
 17 34  1  0  0  0  0
 18 20  2  0  0  0  0
 18 40  1  0  0  0  0
 19 21  2  0  0  0  0
 19 41  1  0  0  0  0
 20 49  1  0  0  0  0
 21 42  1  0  0  0  0
 22 30  1  0  0  0  0
 22 71  1  0  0  0  0
 23 30  2  0  0  0  0
 23 31  1  0  0  0  0
 23 72  1  0  0  0  0
 24 82  1  0  0  0  0
 25 83  1  0  0  0  0
 26 29  2  0  0  0  0
 26 82  1  0  0  0  0
 27 84  1  0  0  0  0
 28 31  2  0  0  0  0
 28 85  1  0  0  0  0
 29 86  1  0  0  0  0
 30 87  1  0  0  0  0
 31 88  1  0  0  0  0
 32 65  2  0  0  0  0
 33 66  1  0  0  0  0
 33 69  1  0  0  0  0
 34 70  1  0  0  0  0
 34 76  2  0  0  0  0
 35 50  1  0  0  0  0
 35 73  1  0  0  0  0
 35 77  2  0  0  0  0
 36 58  1  0  0  0  0
 36 59  1  0  0  0  0
 36 78  2  0  0  0  0
 37 61  1  0  0  0  0
 37 67  1  0  0  0  0
 37 79  2  0  0  0  0
 38 62  1  0  0  0  0
 38 74  1  0  0  0  0
 38 80  2  0  0  0  0
 39 68  1  0  0  0  0
 39 71  1  0  0  0  0
 39 81  2  0  0  0  0
 40 43  1  0  0  0  0
 41 50  1  0  0  0  0
 42 67  1  0  0  0  0
 43 45  1  0  0  0  0
 44 46  1  0  0  0  0
 44 47  1  0  0  0  0
 45 49  1  0  0  0  0
 46 51  1  0  0  0  0
 47 68  1  0  0  0  0
 48 51  1  0  0  0  0
 48 68  1  0  0  0  0
 49 73  1  0  0  0  0
 50 67  1  0  0  0  0
 51 66  1  0  0  0  0
 52 62  1  0  0  0  0
 53 63  1  0  0  0  0
 54 63  1  0  0  0  0
 55 63  1  0  0  0  0
 56 64  1  0  0  0  0
 57 75  1  0  0  0  0
 58 64  1  0  0  0  0
 59 72  1  0  0  0  0
 60 64  1  0  0  0  0
 60 83  1  0  0  0  0
 61 63  1  0  0  0  0
 61 74  1  0  0  0  0
 62 75  1  0  0  0  0
 64 89  1  0  0  0  0
 65 66  1  0  0  0  0
M  CHG  1  75   1
M  ISO  4  39 100  60 101  71 100  83 101
M  END
> <Batch ID>
0168

> <Smiles>
CNC(C)C(=O)NC(C(=O)N1Cc2cc([101O:1][101CH2:1]C(C)(F)CC(=O)CNc3c(F)c(F)cc([100NH:0][100C:0](=O)N4CCCC(n5nc(-c6ccc(Oc7ccc(F)cc7F)cc6)c(C(N)=O)c5N)C4)c3F)ccc2CC1C(=O)NC1CCCc2ccccc21)C(C)(C)C

> <Shape>
0.296

> <Color>
0.207

> <Negative vol penalty>
0.000

$$$$

  -OEChem-04052304143D

 88 96  0     1  0  0  0  0  0999 V2000
  -30.0751  -32.4492   25.9527 C   0  0  0  0  0  0  0  0  0  0  0  0
  -29.4445  -31.4837   25.1746 C   0  0  0  0  0  0  0  0  0  0  0  0
  -24.1474   -8.9286   20.4748 C   0  0  0  0  0  0  0  0  0  0  0  0
  -22.7924  -10.7476   21.3069 C   0  0  0  0  0  0  0  0  0  0  0  0
  -29.3310  -33.2163   26.8481 C   0  0  0  0  0  0  0  0  0  0  0  0
  -28.0695  -31.2840   25.2922 C   0  0  0  0  0  0  0  0  0  0  0  0
  -25.7767  -30.8574   20.7971 C   0  0  0  0  0  0  0  0  0  0  0  0
  -23.1928   -8.0140   20.9196 C   0  0  0  0  0  0  0  0  0  0  0  0
  -21.8377   -9.8330   21.7516 C   0  0  0  0  0  0  0  0  0  0  0  0
  -25.8906  -29.6343   20.1377 C   0  0  0  0  0  0  0  0  0  0  0  0
  -22.2820   -6.5898   23.8465 C   0  0  0  0  0  0  0  0  0  0  0  0
  -22.7359   -5.4584   24.5243 C   0  0  0  0  0  0  0  0  0  0  0  0
  -23.6869  -29.0224   20.9048 C   0  0  0  0  0  0  0  0  0  0  0  0
  -29.1446  -19.2773   21.4398 C   0  0  0  0  0  0  0  0  0  0  0  0
  -27.6256  -20.3281   19.3491 C   0  0  0  0  0  0  0  0  0  0  0  0
  -21.7366   -4.0468   22.8373 C   0  0  0  0  0  0  0  0  0  0  0  0
  -23.9472  -10.2954   20.6685 C   0  0  0  0  0  0  0  0  0  0  0  0
  -24.9926  -11.8622   18.9481 C   0  0  0  0  0  0  0  0  0  0  0  0
  -27.9446  -33.0325   26.9698 C   0  0  0  0  0  0  0  0  0  0  0  0
  -24.6194  -31.1683   21.5255 C   0  0  0  0  0  0  0  0  0  0  0  0
  -27.3063  -32.0484   26.1911 C   0  0  0  0  0  0  0  0  0  0  0  0
  -23.5597  -30.2512   21.5703 C   0  0  0  0  0  0  0  0  0  0  0  0
  -29.0372  -20.6590   21.2817 C   0  0  0  0  0  0  0  0  0  0  0  0
  -28.4926  -18.4210   20.5525 C   0  0  0  0  0  0  0  0  0  0  0  0
  -28.2776  -21.1844   20.2364 C   0  0  0  0  0  0  0  0  0  0  0  0
  -22.0379   -8.4662   21.5579 C   0  0  0  0  0  0  0  0  0  0  0  0
  -24.8468  -28.7154   20.1939 C   0  0  0  0  0  0  0  0  0  0  0  0
  -21.5554   -6.4497   22.6640 C   0  0  0  0  0  0  0  0  0  0  0  0
  -22.4633   -4.1869   24.0197 C   0  0  0  0  0  0  0  0  0  0  0  0
  -27.7331  -18.9464   19.5072 C   0  0  0  0  0  0  0  0  0  0  0  0
  -21.2827   -5.1783   22.1595 C   0  0  0  0  0  0  0  0  0  0  0  0
  -24.9333  -11.2406   20.2098 C   0  0  0  0  0  0  0  0  0  0  0  0
  -26.1063  -12.6636   19.0123 C   0  0  0  0  0  0  0  0  0  0  0  0
  -24.1192  -11.7275   17.8192 C   0  0  0  0  0  0  0  0  0  0  0  0
  -23.9919  -31.8018   24.5765 C   0  0  0  0  0  0  0  0  0  0  0  0
  -26.2144  -25.4595   19.3686 C   0  0  0  0  0  0  0  0  0  0  0  0
  -21.0211  -32.4234   23.4319 C   0  0  0  0  0  0  0  0  0  0  0  0
  -27.4356  -23.2508   19.0770 C   0  0  0  0  0  0  0  0  0  0  0  0
  -18.6917  -31.9137   20.9905 C   0  0  0  0  0  0  0  0  0  0  0  0
  -29.3174  -16.3346   21.6984 C   0  0  0  0  0  0  0  0  0  0  0  0
  -27.1900  -33.8532   27.9856 C   0  0  0  0  0  0  0  0  0  0  0  0
  -24.5013  -32.5029   22.2090 C   0  0  0  0  0  0  0  0  0  0  0  0
  -22.2879  -30.5450   22.3219 C   0  0  0  0  0  0  0  0  0  0  0  0
  -25.6776  -33.8371   27.7793 C   0  0  0  0  0  0  0  0  0  0  0  0
  -29.8068  -12.8908   22.4585 C   0  0  0  0  0  0  0  0  0  0  0  0
  -25.1865  -32.4129   27.5399 C   0  0  0  0  0  0  0  0  0  0  0  0
  -28.5874  -12.2056   21.8374 C   0  0  0  0  0  0  0  0  0  0  0  0
  -29.4515  -14.2537   23.0500 C   0  0  0  0  0  0  0  0  0  0  0  0
  -27.5420  -14.4832   21.5105 C   0  0  0  0  0  0  0  0  0  0  0  0
  -25.8127  -31.8192   26.2722 C   0  0  1  0  0  0  0  0  0  0  0  0
  -23.4861  -32.5032   23.3478 C   0  0  1  0  0  0  0  0  0  0  0  0
  -27.8636  -13.1356   20.8440 C   0  0  2  0  0  0  0  0  0  0  0  0
  -31.1475  -21.9199   21.7657 C   0  0  0  0  0  0  0  0  0  0  0  0
  -16.3438  -32.5251   20.3494 C   0  0  0  0  0  0  0  0  0  0  0  0
  -19.9463  -30.4676   25.5127 C   0  0  0  0  0  0  0  0  0  0  0  0
  -17.7967  -30.3939   24.2313 C   0  0  0  0  0  0  0  0  0  0  0  0
  -18.5798  -32.5426   25.2275 C   0  0  0  0  0  0  0  0  0  0  0  0
  -19.5902  -33.2170   18.4899 C   0  0  0  0  0  0  0  0  0  0  0  0
  -27.5472  -24.7573   19.2118 C   0  0  0  0  0  0  0  0  0  0  0  0
  -26.2666  -26.9733   19.4157 C   0  0  0  0  0  0  0  0  0  1  0  0
  -29.7465  -21.5527   22.2468 C   0  0  1  0  0  0  0  0  0  0  0  0
  -19.7714  -31.6081   23.2030 C   0  0  1  0  0  0  0  0  0  0  0  0
  -17.8160  -32.8820   20.2158 C   0  0  2  0  0  0  0  0  0  0  0  0
  -19.0482  -31.2464   24.5310 C   0  0  0  0  0  0  0  0  0  0  0  0
  -25.9300  -11.6148   21.0164 N   0  0  0  0  0  0  0  0  0  0  0  0
  -26.6262  -12.4801   20.2598 N   0  0  0  0  0  0  0  0  0  0  0  0
  -22.2229  -31.8609   22.9790 N   0  0  0  0  0  0  0  0  0  0  0  0
  -28.7726  -15.0817   22.0508 N   0  0  0  0  0  0  0  0  0  0  0  0
  -26.6818  -13.5002   18.1227 N   0  0  0  0  0  0  0  0  0  0  0  0
  -23.0219  -10.8617   17.9229 N   0  0  0  0  0  0  0  0  0  0  0  0
  -28.1568  -22.5835   20.0583 N   0  0  0  0  0  0  0  0  0  0  0  0
  -28.6033  -17.0177   20.7145 N   0  0  0  0  0  0  0  0  0  0  0  0
  -25.1555  -32.3397   25.0925 N   0  0  0  0  0  0  0  0  0  0  0  0
  -18.9533  -32.3695   22.2652 N   0  0  0  0  0  0  0  0  0  0  0  0
  -18.1751  -32.8617   18.7695 N   0  3  0  0  0  0  0  0  0  0  0  0
  -24.3155  -12.3437   16.7443 O   0  0  0  0  0  0  0  0  0  0  0  0
  -23.3717  -30.8444   25.0242 O   0  0  0  0  0  0  0  0  0  0  0  0
  -25.1546  -24.8417   19.4598 O   0  0  0  0  0  0  0  0  0  0  0  0
  -20.9333  -33.5222   23.9856 O   0  0  0  0  0  0  0  0  0  0  0  0
  -26.7421  -22.7590   18.1907 O   0  0  0  0  0  0  0  0  0  0  0  0
  -19.0995  -30.8568   20.5138 O   0  0  0  0  0  0  0  0  0  0  0  0
  -30.3570  -16.7575   22.2106 O   0  0  0  0  0  0  0  0  0  0  0  0
  -21.1061   -7.5740   21.9918 O   0  0  0  0  0  0  0  0  0  0  0  0
  -24.9557  -27.5205   19.5518 O   0  0  0  0  0  0  0  0  0  1  0  0
  -22.9005   -3.1006   24.6699 F   0  0  0  0  0  0  0  0  0  0  0  0
  -27.1019  -18.1321   18.6494 F   0  0  0  0  0  0  0  0  0  0  0  0
  -20.5861   -5.0374   21.0233 F   0  0  0  0  0  0  0  0  0  0  0  0
  -29.0815  -22.7296   22.4783 F   0  0  0  0  0  0  0  0  0  0  0  0
  1  2  1  0  0  0  0
  1  5  2  0  0  0  0
  2  6  2  0  0  0  0
  3  8  2  0  0  0  0
  3 17  1  0  0  0  0
  4  9  1  0  0  0  0
  4 17  2  0  0  0  0
  5 19  1  0  0  0  0
  6 21  1  0  0  0  0
  7 10  2  0  0  0  0
  7 20  1  0  0  0  0
  8 26  1  0  0  0  0
  9 26  2  0  0  0  0
 10 27  1  0  0  0  0
 11 12  2  0  0  0  0
 11 28  1  0  0  0  0
 12 29  1  0  0  0  0
 13 22  1  0  0  0  0
 13 27  2  0  0  0  0
 14 23  1  0  0  0  0
 14 24  2  0  0  0  0
 15 25  1  0  0  0  0
 15 30  2  0  0  0  0
 16 29  2  0  0  0  0
 16 31  1  0  0  0  0
 17 32  1  0  0  0  0
 18 32  1  0  0  0  0
 18 33  2  0  0  0  0
 18 34  1  0  0  0  0
 19 21  2  0  0  0  0
 19 41  1  0  0  0  0
 20 22  2  0  0  0  0
 20 42  1  0  0  0  0
 21 50  1  0  0  0  0
 22 43  1  0  0  0  0
 23 25  2  0  0  0  0
 23 61  1  0  0  0  0
 24 30  1  0  0  0  0
 24 72  1  0  0  0  0
 25 71  1  0  0  0  0
 26 83  1  0  0  0  0
 27 84  1  0  0  0  0
 28 31  2  0  0  0  0
 28 83  1  0  0  0  0
 29 85  1  0  0  0  0
 30 86  1  0  0  0  0
 31 87  1  0  0  0  0
 32 65  2  0  0  0  0
 33 66  1  0  0  0  0
 33 69  1  0  0  0  0
 34 70  1  0  0  0  0
 34 76  2  0  0  0  0
 35 51  1  0  0  0  0
 35 73  1  0  0  0  0
 35 77  2  0  0  0  0
 36 59  1  0  0  0  0
 36 60  1  0  0  0  0
 36 78  2  0  0  0  0
 37 62  1  0  0  0  0
 37 67  1  0  0  0  0
 37 79  2  0  0  0  0
 38 59  1  0  0  0  0
 38 71  1  0  0  0  0
 38 80  2  0  0  0  0
 39 63  1  0  0  0  0
 39 74  1  0  0  0  0
 39 81  2  0  0  0  0
 40 68  1  0  0  0  0
 40 72  1  0  0  0  0
 40 82  2  0  0  0  0
 41 44  1  0  0  0  0
 42 51  1  0  0  0  0
 43 67  1  0  0  0  0
 44 46  1  0  0  0  0
 45 47  1  0  0  0  0
 45 48  1  0  0  0  0
 46 50  1  0  0  0  0
 47 52  1  0  0  0  0
 48 68  1  0  0  0  0
 49 52  1  0  0  0  0
 49 68  1  0  0  0  0
 50 73  1  0  0  0  0
 51 67  1  0  0  0  0
 52 66  1  0  0  0  0
 53 61  1  0  0  0  0
 54 63  1  0  0  0  0
 55 64  1  0  0  0  0
 56 64  1  0  0  0  0
 57 64  1  0  0  0  0
 58 75  1  0  0  0  0
 60 84  1  0  0  0  0
 61 88  1  0  0  0  0
 62 64  1  0  0  0  0
 62 74  1  0  0  0  0
 63 75  1  0  0  0  0
 65 66  1  0  0  0  0
M  CHG  1  75   1
M  ISO  4  40 100  60 101  72 100  84 101
M  END
> <Batch ID>
0168

> <Smiles>
CNC(C)C(=O)NC(C(=O)N1Cc2cc([101O:1][101CH2:1]C(=O)CC(=O)Nc3cc(F)c([100NH:0][100C:0](=O)N4CCCC(n5nc(-c6ccc(Oc7ccc(F)cc7F)cc6)c(C(N)=O)c5N)C4)cc3C(C)F)ccc2CC1C(=O)NC1CCCc2ccccc21)C(C)(C)C

> <Shape>
0.307

> <Color>
0.079

> <Negative vol penalty>
0.000

$$$$

  -OEChem-04052304143D

 84 92  0     1  0  0  0  0  0999 V2000
  -28.4050  -16.8324   17.5163 C   0  0  0  0  0  0  0  0  0  0  0  0
  -28.6418  -17.5248   18.6995 C   0  0  0  0  0  0  0  0  0  0  0  0
  -23.0750   -9.8668   19.9429 C   0  0  0  0  0  0  0  0  0  0  0  0
  -23.8321   -9.8780   22.2372 C   0  0  0  0  0  0  0  0  0  0  0  0
  -29.2950  -16.9522   16.4498 C   0  0  0  0  0  0  0  0  0  0  0  0
  -29.7695  -18.3365   18.8173 C   0  0  0  0  0  0  0  0  0  0  0  0
  -28.7250  -22.8187   20.9300 C   0  0  0  0  0  0  0  0  0  0  0  0
  -32.0582  -16.6140   22.5504 C   0  0  0  0  0  0  0  0  0  0  0  0
  -22.3310   -8.7140   20.1940 C   0  0  0  0  0  0  0  0  0  0  0  0
  -23.0880   -8.7252   22.4884 C   0  0  0  0  0  0  0  0  0  0  0  0
  -28.5678  -22.8486   22.3149 C   0  0  0  0  0  0  0  0  0  0  0  0
  -19.3810   -7.9197   21.6431 C   0  0  0  0  0  0  0  0  0  0  0  0
  -32.6445  -17.4990   23.4551 C   0  0  0  0  0  0  0  0  0  0  0  0
  -18.0748   -7.8724   21.1562 C   0  0  0  0  0  0  0  0  0  0  0  0
  -29.8732  -17.4624   23.1363 C   0  0  0  0  0  0  0  0  0  0  0  0
  -30.8202  -23.6805   22.5466 C   0  0  0  0  0  0  0  0  0  0  0  0
  -18.6364   -5.9270   19.8382 C   0  0  0  0  0  0  0  0  0  0  0  0
  -23.8256  -10.4488   20.9645 C   0  0  0  0  0  0  0  0  0  0  0  0
  -30.4595  -18.3475   24.0411 C   0  0  0  0  0  0  0  0  0  0  0  0
  -24.1673  -12.9737   20.8403 C   0  0  0  0  0  0  0  0  0  0  0  0
  -30.4291  -17.7733   16.5511 C   0  0  0  0  0  0  0  0  0  0  0  0
  -29.9368  -23.2098   20.3426 C   0  0  0  0  0  0  0  0  0  0  0  0
  -30.6763  -18.4662   17.7516 C   0  0  0  0  0  0  0  0  0  0  0  0
  -30.9894  -23.6571   21.1538 C   0  0  0  0  0  0  0  0  0  0  0  0
  -30.6725  -16.5957   22.3909 C   0  0  0  0  0  0  0  0  0  0  0  0
  -22.3374   -8.1432   21.4668 C   0  0  0  0  0  0  0  0  0  0  0  0
  -29.6164  -23.2768   23.1237 C   0  0  0  0  0  0  0  0  0  0  0  0
  -20.3150   -6.9707   21.2274 C   0  0  0  0  0  0  0  0  0  0  0  0
  -17.7024   -6.8761   20.2539 C   0  0  0  0  0  0  0  0  0  0  0  0
  -31.8452  -18.3657   24.2005 C   0  0  0  0  0  0  0  0  0  0  0  0
  -19.9427   -5.9743   20.3250 C   0  0  0  0  0  0  0  0  0  0  0  0
  -24.5949  -11.6393   20.7056 C   0  0  0  0  0  0  0  0  0  0  0  0
  -25.2598  -13.7227   20.4770 C   0  0  0  0  0  0  0  0  0  0  0  0
  -29.6111  -19.2634   24.8295 C   0  0  0  0  0  0  0  0  0  0  0  0
  -22.8962  -13.4902   21.2567 C   0  0  0  0  0  0  0  0  0  0  0  0
  -32.1353  -21.7633   18.5598 C   0  0  0  0  0  0  0  0  0  0  0  0
  -33.3990  -24.7461   18.3905 C   0  0  0  0  0  0  0  0  0  0  0  0
  -33.6960  -27.8498   19.7780 C   0  0  0  0  0  0  0  0  0  0  0  0
  -30.7257  -14.7692   20.6567 C   0  0  0  0  0  0  0  0  0  0  0  0
  -31.3875  -17.8340   15.3882 C   0  0  0  0  0  0  0  0  0  0  0  0
  -30.0813  -23.1971   18.8455 C   0  0  0  0  0  0  0  0  0  0  0  0
  -32.3036  -24.1067   20.5714 C   0  0  0  0  0  0  0  0  0  0  0  0
  -32.3602  -19.0083   15.4613 C   0  0  0  0  0  0  0  0  0  0  0  0
  -29.6145  -12.3510   18.2914 C   0  0  0  0  0  0  0  0  0  0  0  0
  -32.9622  -19.1168   16.8586 C   0  0  0  0  0  0  0  0  0  0  0  0
  -28.1744  -12.0600   18.7197 C   0  0  0  0  0  0  0  0  0  0  0  0
  -30.5281  -12.5821   19.4938 C   0  0  0  0  0  0  0  0  0  0  0  0
  -28.6193  -13.3088   20.8713 C   0  0  0  0  0  0  0  0  0  0  0  0
  -31.8753  -19.3760   17.9090 C   0  0  1  0  0  0  0  0  0  0  0  0
  -31.5345  -23.1295   18.3860 C   0  0  1  0  0  0  0  0  0  0  0  0
  -27.6480  -13.1333   19.6926 C   0  0  2  0  0  0  0  0  0  0  0  0
  -34.8272  -30.0628   19.4307 C   0  0  0  0  0  0  0  0  0  0  0  0
  -27.4382  -23.0638   25.7577 C   0  0  0  0  0  0  0  0  0  0  0  0
  -36.0321  -23.5502   19.3635 C   0  0  0  0  0  0  0  0  0  0  0  0
  -36.8070  -25.8697   19.8997 C   0  0  0  0  0  0  0  0  0  0  0  0
  -36.2675  -25.2500   17.5443 C   0  0  0  0  0  0  0  0  0  0  0  0
  -31.1083  -29.2704   19.5668 C   0  0  0  0  0  0  0  0  0  0  0  0
  -29.3781  -21.4370   25.9776 C   0  0  0  0  0  0  0  0  0  0  0  0
  -34.3890  -25.5360   19.2120 C   0  0  1  0  0  0  0  0  0  0  0  0
  -33.5751  -29.2381   19.1759 C   0  0  2  0  0  0  0  0  0  0  0  0
  -28.5808  -22.3465   25.0519 C   0  0  2  0  0  0  0  0  0  1  0  0
  -35.8499  -25.0412   19.0163 C   0  0  0  0  0  0  0  0  0  0  0  0
  -25.8603  -11.5428   20.2890 N   0  0  0  0  0  0  0  0  0  0  0  0
  -26.2372  -12.8262   20.1588 N   0  0  0  0  0  0  0  0  0  0  0  0
  -32.3982  -24.0701   19.1027 N   0  0  0  0  0  0  0  0  0  0  0  0
  -29.9679  -13.6144   20.3686 N   0  0  0  0  0  0  0  0  0  0  0  0
  -25.4702  -15.0540   20.4019 N   0  0  0  0  0  0  0  0  0  0  0  0
  -28.3770  -18.8660   25.1396 N   0  0  0  0  0  0  0  0  0  0  0  0
  -21.8840  -12.5815   21.5943 N   0  0  0  0  0  0  0  0  0  0  0  0
  -30.0772  -15.6957   21.4726 N   0  0  0  0  0  0  0  0  0  0  0  0
  -31.4656  -20.7637   17.8804 N   0  0  0  0  0  0  0  0  0  0  0  0
  -34.1812  -26.9376   18.8649 N   0  0  0  0  0  0  0  0  0  0  0  0
  -30.1198  -20.4467   25.1922 N   0  3  0  0  0  0  0  0  0  0  0  0
  -32.4103  -29.9581   19.7641 N   0  3  0  0  0  0  0  0  0  0  0  0
  -22.6598  -14.7208   21.3115 O   0  0  0  0  0  0  0  0  0  0  0  0
  -33.1334  -21.6265   19.2575 O   0  0  0  0  0  0  0  0  0  0  0  0
  -33.5054  -24.7352   17.1616 O   0  0  0  0  0  0  0  0  0  0  0  0
  -33.3941  -27.6004   20.9430 O   0  0  0  0  0  0  0  0  0  0  0  0
  -31.8553  -14.9373   20.1902 O   0  0  0  0  0  0  0  0  0  0  0  0
  -21.6113   -7.0185   21.7122 O   0  0  0  0  0  0  0  0  0  0  0  0
  -29.4658  -23.3064   24.4758 O   0  0  0  0  0  0  0  0  0  1  0  0
  -16.4475   -6.8299   19.7877 F   0  0  0  0  0  0  0  0  0  0  0  0
  -32.4175  -19.2124   25.0677 F   0  0  0  0  0  0  0  0  0  0  0  0
  -20.8352   -5.0591   19.9230 F   0  0  0  0  0  0  0  0  0  0  0  0
  1  2  1  0  0  0  0
  1  5  2  0  0  0  0
  2  6  2  0  0  0  0
  3  9  2  0  0  0  0
  3 18  1  0  0  0  0
  4 10  1  0  0  0  0
  4 18  2  0  0  0  0
  5 21  1  0  0  0  0
  6 23  1  0  0  0  0
  7 11  2  0  0  0  0
  7 22  1  0  0  0  0
  8 13  2  0  0  0  0
  8 25  1  0  0  0  0
  9 26  1  0  0  0  0
 10 26  2  0  0  0  0
 11 27  1  0  0  0  0
 12 14  2  0  0  0  0
 12 28  1  0  0  0  0
 13 30  1  0  0  0  0
 14 29  1  0  0  0  0
 15 19  1  0  0  0  0
 15 25  2  0  0  0  0
 16 24  1  0  0  0  0
 16 27  2  0  0  0  0
 17 29  2  0  0  0  0
 17 31  1  0  0  0  0
 18 32  1  0  0  0  0
 19 30  2  0  0  0  0
 19 34  1  0  0  0  0
 20 32  1  0  0  0  0
 20 33  2  0  0  0  0
 20 35  1  0  0  0  0
 21 23  2  0  0  0  0
 21 40  1  0  0  0  0
 22 24  2  0  0  0  0
 22 41  1  0  0  0  0
 23 49  1  0  0  0  0
 24 42  1  0  0  0  0
 25 70  1  0  0  0  0
 26 80  1  0  0  0  0
 27 81  1  0  0  0  0
 28 31  2  0  0  0  0
 28 80  1  0  0  0  0
 29 82  1  0  0  0  0
 30 83  1  0  0  0  0
 31 84  1  0  0  0  0
 32 63  2  0  0  0  0
 33 64  1  0  0  0  0
 33 67  1  0  0  0  0
 34 68  1  0  0  0  0
 34 73  2  0  0  0  0
 35 69  1  0  0  0  0
 35 75  2  0  0  0  0
 36 50  1  0  0  0  0
 36 71  1  0  0  0  0
 36 76  2  0  0  0  0
 37 59  1  0  0  0  0
 37 65  1  0  0  0  0
 37 77  2  0  0  0  0
 38 60  1  0  0  0  0
 38 72  1  0  0  0  0
 38 78  2  0  0  0  0
 39 66  1  0  0  0  0
 39 70  1  0  0  0  0
 39 79  2  0  0  0  0
 40 43  1  0  0  0  0
 41 50  1  0  0  0  0
 42 65  1  0  0  0  0
 43 45  1  0  0  0  0
 44 46  1  0  0  0  0
 44 47  1  0  0  0  0
 45 49  1  0  0  0  0
 46 51  1  0  0  0  0
 47 66  1  0  0  0  0
 48 51  1  0  0  0  0
 48 66  1  0  0  0  0
 49 71  1  0  0  0  0
 50 65  1  0  0  0  0
 51 64  1  0  0  0  0
 52 60  1  0  0  0  0
 53 61  1  0  0  0  0
 54 62  1  0  0  0  0
 55 62  1  0  0  0  0
 56 62  1  0  0  0  0
 57 74  1  0  0  0  0
 58 61  1  0  0  0  0
 58 73  1  0  0  0  0
 59 62  1  0  0  0  0
 59 72  1  0  0  0  0
 60 74  1  0  0  0  0
 61 81  1  0  0  0  0
 63 64  1  0  0  0  0
M  CHG  2  73   1  74   1
M  ISO  4  39 100  61 101  70 100  81 101
M  END
> <Batch ID>
0168

> <Smiles>
CNC(C)C(=O)NC(C(=O)N1Cc2cc([101O:1][101CH:1](C)CNC(=N)c3cc([100NH:0][100C:0](=O)N4CCCC(n5nc(-c6ccc(Oc7ccc(F)cc7F)cc6)c(C(N)=O)c5N)C4)ccc3F)ccc2CC1C(=O)NC1CCCc2ccccc21)C(C)(C)C

> <Shape>
0.199

> <Color>
0.187

> <Negative vol penalty>
0.000

$$$$

  -OEChem-04052304143D

 85 93  0     1  0  0  0  0  0999 V2000
  -31.3058  -31.7754   22.7076 C   0  0  0  0  0  0  0  0  0  0  0  0
  -30.7499  -30.5457   23.0454 C   0  0  0  0  0  0  0  0  0  0  0  0
  -22.9913   -9.9744   19.8833 C   0  0  0  0  0  0  0  0  0  0  0  0
  -23.8053   -9.8010   22.1514 C   0  0  0  0  0  0  0  0  0  0  0  0
  -31.7007  -32.0232   21.3936 C   0  0  0  0  0  0  0  0  0  0  0  0
  -30.5875  -29.5634   22.0691 C   0  0  0  0  0  0  0  0  0  0  0  0
  -32.0509  -24.9834   23.6590 C   0  0  0  0  0  0  0  0  0  0  0  0
  -22.2100   -8.8352   20.0766 C   0  0  0  0  0  0  0  0  0  0  0  0
  -23.0240   -8.6618   22.3447 C   0  0  0  0  0  0  0  0  0  0  0  0
  -31.1754  -24.2892   24.4928 C   0  0  0  0  0  0  0  0  0  0  0  0
  -19.7829   -7.9445   22.9783 C   0  0  0  0  0  0  0  0  0  0  0  0
  -19.0531   -7.8545   24.1636 C   0  0  0  0  0  0  0  0  0  0  0  0
  -30.4221  -22.9866   22.6074 C   0  0  0  0  0  0  0  0  0  0  0  0
  -30.1005  -17.4127   23.0224 C   0  0  0  0  0  0  0  0  0  0  0  0
  -20.2366   -5.8282   24.7386 C   0  0  0  0  0  0  0  0  0  0  0  0
  -32.0870  -17.0194   21.7751 C   0  0  0  0  0  0  0  0  0  0  0  0
  -23.7890  -10.4573   20.9206 C   0  0  0  0  0  0  0  0  0  0  0  0
  -24.2243  -12.9706   20.9575 C   0  0  0  0  0  0  0  0  0  0  0  0
  -31.5520  -31.0400   20.4027 C   0  0  0  0  0  0  0  0  0  0  0  0
  -32.1108  -24.6915   22.2887 C   0  0  0  0  0  0  0  0  0  0  0  0
  -30.9795  -29.7988   20.7403 C   0  0  0  0  0  0  0  0  0  0  0  0
  -31.3010  -23.6768   21.7587 C   0  0  0  0  0  0  0  0  0  0  0  0
  -30.8110  -16.6146   22.1327 C   0  0  0  0  0  0  0  0  0  0  0  0
  -30.6795  -18.5747   23.5202 C   0  0  0  0  0  0  0  0  0  0  0  0
  -22.2263   -8.1789   21.3073 C   0  0  0  0  0  0  0  0  0  0  0  0
  -30.3588  -23.2925   23.9666 C   0  0  0  0  0  0  0  0  0  0  0  0
  -20.7395   -6.9763   22.6731 C   0  0  0  0  0  0  0  0  0  0  0  0
  -19.2800   -6.7965   25.0437 C   0  0  0  0  0  0  0  0  0  0  0  0
  -20.9664   -5.9182   23.5532 C   0  0  0  0  0  0  0  0  0  0  0  0
  -24.5968  -11.6337   20.7214 C   0  0  0  0  0  0  0  0  0  0  0  0
  -31.9614  -18.8916   23.1007 C   0  0  0  0  0  0  0  0  0  0  0  0
  -25.3354  -13.7020   20.6155 C   0  0  0  0  0  0  0  0  0  0  0  0
  -22.9849  -13.5036   21.4426 C   0  0  0  0  0  0  0  0  0  0  0  0
  -28.2410  -20.2379   25.8538 C   0  0  0  0  0  0  0  0  0  0  0  0
  -28.6866  -19.1591   24.9092 C   0  0  0  0  0  0  0  0  0  0  0  0
  -31.5406  -26.3225   19.6207 C   0  0  0  0  0  0  0  0  0  0  0  0
  -32.7017  -23.6475   18.1999 C   0  0  0  0  0  0  0  0  0  0  0  0
  -33.2935  -20.2917   18.3870 C   0  0  0  0  0  0  0  0  0  0  0  0
  -30.8403  -14.5328   20.7145 C   0  0  0  0  0  0  0  0  0  0  0  0
  -31.9500  -31.3710   18.9861 C   0  0  0  0  0  0  0  0  0  0  0  0
  -33.0797  -25.4311   21.4075 C   0  0  0  0  0  0  0  0  0  0  0  0
  -31.3418  -23.3112   20.2982 C   0  0  0  0  0  0  0  0  0  0  0  0
  -32.0890  -30.1431   18.0898 C   0  0  0  0  0  0  0  0  0  0  0  0
  -29.5781  -12.3242   18.2233 C   0  0  0  0  0  0  0  0  0  0  0  0
  -30.8950  -29.2114   18.2718 C   0  0  0  0  0  0  0  0  0  0  0  0
  -28.1390  -12.0577   18.6705 C   0  0  0  0  0  0  0  0  0  0  0  0
  -30.5297  -12.4389   19.4128 C   0  0  0  0  0  0  0  0  0  0  0  0
  -28.6853  -13.1393   20.8883 C   0  0  0  0  0  0  0  0  0  0  0  0
  -30.8100  -28.6991   19.7147 C   0  0  1  0  0  0  0  0  0  0  0  0
  -32.6876  -25.4036   19.9335 C   0  0  1  0  0  0  0  0  0  0  0  0
  -27.6788  -13.0805   19.7276 C   0  0  2  0  0  0  0  0  0  0  0  0
  -34.2194  -18.3774   17.0545 C   0  0  0  0  0  0  0  0  0  0  0  0
  -30.1467  -23.5747   16.5336 C   0  0  0  0  0  0  0  0  0  0  0  0
  -30.6809  -21.2005   15.9452 C   0  0  0  0  0  0  0  0  0  0  0  0
  -32.2338  -23.0313   15.2674 C   0  0  0  0  0  0  0  0  0  0  0  0
  -35.4194  -19.7802   20.3814 C   0  0  0  0  0  0  0  0  0  0  0  0
  -27.4804  -21.3940   25.2422 C   0  0  0  0  0  0  0  0  0  0  0  0
  -28.2970  -22.1284   24.1895 C   0  0  0  0  0  0  0  0  0  1  0  0
  -32.1011  -22.3558   17.7001 C   0  0  1  0  0  0  0  0  0  0  0  0
  -34.5279  -19.4673   18.0692 C   0  0  2  0  0  0  0  0  0  0  0  0
  -31.2882  -22.5486   16.3888 C   0  0  0  0  0  0  0  0  0  0  0  0
  -32.6826  -18.1413   22.2378 N   0  0  0  0  0  0  0  0  0  0  0  0
  -25.8467  -11.5196   20.2646 N   0  0  0  0  0  0  0  0  0  0  0  0
  -26.2693  -12.7942   20.2108 N   0  0  0  0  0  0  0  0  0  0  0  0
  -32.3011  -24.0673   19.4762 N   0  0  0  0  0  0  0  0  0  0  0  0
  -30.0317  -13.4289   20.3703 N   0  0  0  0  0  0  0  0  0  0  0  0
  -32.5596  -20.0749   23.6027 N   0  0  0  0  0  0  0  0  0  0  0  0
  -25.5949  -15.0268   20.6244 N   0  0  0  0  0  0  0  0  0  0  0  0
  -21.9472  -12.6117   21.7460 N   0  0  0  0  0  0  0  0  0  0  0  0
  -29.9568  -19.3867   24.4252 N   0  0  0  0  0  0  0  0  0  0  0  0
  -30.2485  -15.4245   21.6086 N   0  0  0  0  0  0  0  0  0  0  0  0
  -31.7787  -27.6468   19.9353 N   0  0  0  0  0  0  0  0  0  0  0  0
  -33.2056  -21.4097   17.5848 N   0  0  0  0  0  0  0  0  0  0  0  0
  -35.0529  -18.8228   19.3062 N   0  3  0  0  0  0  0  0  0  0  0  0
  -22.7974  -14.7355   21.5866 O   0  0  0  0  0  0  0  0  0  0  0  0
  -28.5148  -20.0948   27.0358 O   0  0  0  0  0  0  0  0  0  0  0  0
  -27.9055  -18.2415   24.7205 O   0  0  0  0  0  0  0  0  0  0  0  0
  -30.5160  -25.8641   19.1289 O   0  0  0  0  0  0  0  0  0  0  0  0
  -33.5025  -24.2577   17.4871 O   0  0  0  0  0  0  0  0  0  0  0  0
  -32.4858  -19.9735   19.2570 O   0  0  0  0  0  0  0  0  0  0  0  0
  -31.9635  -14.6908   20.2294 O   0  0  0  0  0  0  0  0  0  0  0  0
  -21.4638   -7.0674   21.4963 O   0  0  0  0  0  0  0  0  0  0  0  0
  -29.5029  -22.6138   24.7782 O   0  0  0  0  0  0  0  0  0  1  0  0
  -18.5801   -6.7111   26.1826 F   0  0  0  0  0  0  0  0  0  0  0  0
  -21.8849   -4.9857   23.2660 F   0  0  0  0  0  0  0  0  0  0  0  0
  1  2  1  0  0  0  0
  1  5  2  0  0  0  0
  2  6  2  0  0  0  0
  3  8  2  0  0  0  0
  3 17  1  0  0  0  0
  4  9  1  0  0  0  0
  4 17  2  0  0  0  0
  5 19  1  0  0  0  0
  6 21  1  0  0  0  0
  7 10  2  0  0  0  0
  7 20  1  0  0  0  0
  8 25  1  0  0  0  0
  9 25  2  0  0  0  0
 10 26  1  0  0  0  0
 11 12  2  0  0  0  0
 11 27  1  0  0  0  0
 12 28  1  0  0  0  0
 13 22  1  0  0  0  0
 13 26  2  0  0  0  0
 14 23  2  0  0  0  0
 14 24  1  0  0  0  0
 15 28  2  0  0  0  0
 15 29  1  0  0  0  0
 16 23  1  0  0  0  0
 16 62  2  0  0  0  0
 17 30  1  0  0  0  0
 18 30  1  0  0  0  0
 18 32  2  0  0  0  0
 18 33  1  0  0  0  0
 19 21  2  0  0  0  0
 19 40  1  0  0  0  0
 20 22  2  0  0  0  0
 20 41  1  0  0  0  0
 21 49  1  0  0  0  0
 22 42  1  0  0  0  0
 23 71  1  0  0  0  0
 24 31  2  0  0  0  0
 24 70  1  0  0  0  0
 25 82  1  0  0  0  0
 26 83  1  0  0  0  0
 27 29  2  0  0  0  0
 27 82  1  0  0  0  0
 28 84  1  0  0  0  0
 29 85  1  0  0  0  0
 30 63  2  0  0  0  0
 31 62  1  0  0  0  0
 31 67  1  0  0  0  0
 32 64  1  0  0  0  0
 32 68  1  0  0  0  0
 33 69  1  0  0  0  0
 33 75  2  0  0  0  0
 34 35  1  0  0  0  0
 34 57  1  0  0  0  0
 34 76  2  0  0  0  0
 35 70  1  0  0  0  0
 35 77  2  0  0  0  0
 36 50  1  0  0  0  0
 36 72  1  0  0  0  0
 36 78  2  0  0  0  0
 37 59  1  0  0  0  0
 37 65  1  0  0  0  0
 37 79  2  0  0  0  0
 38 60  1  0  0  0  0
 38 73  1  0  0  0  0
 38 80  2  0  0  0  0
 39 66  1  0  0  0  0
 39 71  1  0  0  0  0
 39 81  2  0  0  0  0
 40 43  1  0  0  0  0
 41 50  1  0  0  0  0
 42 65  1  0  0  0  0
 43 45  1  0  0  0  0
 44 46  1  0  0  0  0
 44 47  1  0  0  0  0
 45 49  1  0  0  0  0
 46 51  1  0  0  0  0
 47 66  1  0  0  0  0
 48 51  1  0  0  0  0
 48 66  1  0  0  0  0
 49 72  1  0  0  0  0
 50 65  1  0  0  0  0
 51 64  1  0  0  0  0
 52 60  1  0  0  0  0
 53 61  1  0  0  0  0
 54 61  1  0  0  0  0
 55 61  1  0  0  0  0
 56 74  1  0  0  0  0
 57 58  1  0  0  0  0
 58 83  1  0  0  0  0
 59 61  1  0  0  0  0
 59 73  1  0  0  0  0
 60 74  1  0  0  0  0
 63 64  1  0  0  0  0
M  CHG  1  74   1
M  ISO  4  39 100  58 101  71 100  83 101
M  END
> <Batch ID>
0168

> <Smiles>
CNC(C)C(=O)NC(C(=O)N1Cc2cc([101O:1][101CH2:1]CC(=O)C(=O)Nc3cc([100NH:0][100C:0](=O)N4CCCC(n5nc(-c6ccc(Oc7ccc(F)cc7F)cc6)c(C(N)=O)c5N)C4)cnc3N)ccc2CC1C(=O)NC1CCCc2ccccc21)C(C)(C)C

> <Shape>
0.205

> <Color>
0.185

> <Negative vol penalty>
0.000

$$$$

  -OEChem-04052304143D

 86 94  0     1  0  0  0  0  0999 V2000
  -32.4425  -32.3410   22.6055 C   0  0  0  0  0  0  0  0  0  0  0  0
  -31.8553  -31.2870   21.9129 C   0  0  0  0  0  0  0  0  0  0  0  0
  -24.3813   -9.1296   21.4205 C   0  0  0  0  0  0  0  0  0  0  0  0
  -23.0815  -10.8601   20.3469 C   0  0  0  0  0  0  0  0  0  0  0  0
  -31.8767  -32.7916   23.7974 C   0  0  0  0  0  0  0  0  0  0  0  0
  -30.7024  -30.6823   22.4124 C   0  0  0  0  0  0  0  0  0  0  0  0
  -27.2100  -29.9014   18.8294 C   0  0  0  0  0  0  0  0  0  0  0  0
  -23.2292   -8.6512   22.0444 C   0  0  0  0  0  0  0  0  0  0  0  0
  -21.9293  -10.3818   20.9708 C   0  0  0  0  0  0  0  0  0  0  0  0
  -27.4029  -28.8140   17.9784 C   0  0  0  0  0  0  0  0  0  0  0  0
  -20.5538   -6.7553   21.2192 C   0  0  0  0  0  0  0  0  0  0  0  0
  -20.3405   -5.3769   21.2175 C   0  0  0  0  0  0  0  0  0  0  0  0
  -25.8266  -27.5277   19.2745 C   0  0  0  0  0  0  0  0  0  0  0  0
  -26.3327  -18.2855   18.7925 C   0  0  0  0  0  0  0  0  0  0  0  0
  -20.3543   -5.3718   23.6335 C   0  0  0  0  0  0  0  0  0  0  0  0
  -28.1654  -20.2696   19.1800 C   0  0  0  0  0  0  0  0  0  0  0  0
  -24.3075  -10.2341   20.5718 C   0  0  0  0  0  0  0  0  0  0  0  0
  -26.0115  -10.3391   18.6762 C   0  0  0  0  0  0  0  0  0  0  0  0
  -30.7108  -32.1985   24.3068 C   0  0  0  0  0  0  0  0  0  0  0  0
  -26.3306  -29.8063   19.9176 C   0  0  0  0  0  0  0  0  0  0  0  0
  -30.1212  -31.1245   23.6129 C   0  0  0  0  0  0  0  0  0  0  0  0
  -25.6223  -28.6161   20.1363 C   0  0  0  0  0  0  0  0  0  0  0  0
  -26.0847  -19.5532   18.2779 C   0  0  0  0  0  0  0  0  0  0  0  0
  -27.0135  -20.5697   18.4709 C   0  0  0  0  0  0  0  0  0  0  0  0
  -22.0031   -9.2773   21.8195 C   0  0  0  0  0  0  0  0  0  0  0  0
  -26.7134  -27.6260   18.2026 C   0  0  0  0  0  0  0  0  0  0  0  0
  -20.6675   -7.4420   22.4280 C   0  0  0  0  0  0  0  0  0  0  0  0
  -20.2407   -4.6851   22.4246 C   0  0  0  0  0  0  0  0  0  0  0  0
  -20.5677   -6.7503   23.6351 C   0  0  0  0  0  0  0  0  0  0  0  0
  -25.4975  -10.7290   19.9275 C   0  0  0  0  0  0  0  0  0  0  0  0
  -27.5152  -18.0876   19.4870 C   0  0  0  0  0  0  0  0  0  0  0  0
  -27.1468  -11.0963   18.5204 C   0  0  0  0  0  0  0  0  0  0  0  0
  -27.3746  -25.4009   17.9149 C   0  0  0  0  0  0  0  0  0  1  0  0
  -25.5077   -9.3785   17.7387 C   0  0  0  0  0  0  0  0  0  0  0  0
  -27.0745  -24.1911   17.4274 C   0  0  0  0  0  0  0  0  0  0  0  0
  -27.6456  -22.9757   18.0945 C   0  0  0  0  0  0  0  0  0  0  0  0
  -26.6369  -30.0187   23.0743 C   0  0  0  0  0  0  0  0  0  0  0  0
  -23.4005  -29.8100   23.0114 C   0  0  0  0  0  0  0  0  0  0  0  0
  -20.5940  -28.8004   21.3527 C   0  0  0  0  0  0  0  0  0  0  0  0
  -28.8717  -16.3710   20.7358 C   0  0  0  0  0  0  0  0  0  0  0  0
  -30.1625  -32.6889   25.6234 C   0  0  0  0  0  0  0  0  0  0  0  0
  -26.1134  -30.9971   20.8105 C   0  0  0  0  0  0  0  0  0  0  0  0
  -24.6516  -28.4695   21.2785 C   0  0  0  0  0  0  0  0  0  0  0  0
  -28.7280  -32.2404   25.8908 C   0  0  0  0  0  0  0  0  0  0  0  0
  -30.5802  -13.2640   21.0596 C   0  0  0  0  0  0  0  0  0  0  0  0
  -28.5679  -30.7542   25.5868 C   0  0  0  0  0  0  0  0  0  0  0  0
  -29.5191  -12.2262   20.6862 C   0  0  0  0  0  0  0  0  0  0  0  0
  -29.9794  -14.4362   21.8333 C   0  0  0  0  0  0  0  0  0  0  0  0
  -27.7714  -14.0473   20.8121 C   0  0  0  0  0  0  0  0  0  0  0  0
  -28.8561  -30.4591   24.1098 C   0  0  1  0  0  0  0  0  0  0  0  0
  -25.5817  -30.6204   22.1899 C   0  0  1  0  0  0  0  0  0  0  0  0
  -28.3178  -12.8792   19.9750 C   0  0  2  0  0  0  0  0  0  0  0  0
  -18.0949  -28.7322   21.5697 C   0  0  0  0  0  0  0  0  0  0  0  0
  -23.6369  -27.4881   24.9769 C   0  0  0  0  0  0  0  0  0  0  0  0
  -21.2754  -26.8689   24.4217 C   0  0  0  0  0  0  0  0  0  0  0  0
  -21.7711  -29.0808   25.4633 C   0  0  0  0  0  0  0  0  0  0  0  0
  -20.2229  -30.4767   18.9421 C   0  0  0  0  0  0  0  0  0  0  0  0
  -24.8175  -19.7952   17.5252 C   0  0  0  0  0  0  0  0  0  0  0  0
  -22.4011  -28.6791   23.0480 C   0  0  1  0  0  0  0  0  0  0  0  0
  -19.2900  -29.5165   21.0507 C   0  0  2  0  0  0  0  0  0  0  0  0
  -22.2908  -28.0310   24.4570 C   0  0  0  0  0  0  0  0  0  0  0  0
  -28.4412  -19.0504   19.6949 N   0  0  0  0  0  0  0  0  0  0  0  0
  -26.2450  -11.6614   20.5242 N   0  0  0  0  0  0  0  0  0  0  0  0
  -27.2403  -11.8636   19.6441 N   0  0  0  0  0  0  0  0  0  0  0  0
  -24.4783  -29.6598   22.1274 N   0  0  0  0  0  0  0  0  0  0  0  0
  -28.8494  -15.0073   21.0972 N   0  0  0  0  0  0  0  0  0  0  0  0
  -28.0642  -11.1739   17.5331 N   0  0  0  0  0  0  0  0  0  0  0  0
  -24.3294   -8.6893   18.0562 N   0  0  0  0  0  0  0  0  0  0  0  0
  -26.8055  -21.8777   17.9707 N   0  0  0  0  0  0  0  0  0  0  0  0
  -27.7583  -16.7934   20.0102 N   0  0  0  0  0  0  0  0  0  0  0  0
  -27.7270  -30.8404   23.2886 N   0  0  0  0  0  0  0  0  0  0  0  0
  -21.1469  -29.2261   22.5420 N   0  0  0  0  0  0  0  0  0  0  0  0
  -19.1287  -29.7009   19.5807 N   0  3  0  0  0  0  0  0  0  0  0  0
  -26.0944   -9.1264   16.6589 O   0  0  0  0  0  0  0  0  0  0  0  0
  -28.7314  -23.0207   18.6628 O   0  0  0  0  0  0  0  0  0  0  0  0
  -26.4735  -28.8928   23.5297 O   0  0  0  0  0  0  0  0  0  0  0  0
  -23.2271  -30.7938   23.7352 O   0  0  0  0  0  0  0  0  0  0  0  0
  -21.0723  -27.9460   20.6099 O   0  0  0  0  0  0  0  0  0  0  0  0
  -29.8220  -17.1031   21.0235 O   0  0  0  0  0  0  0  0  0  0  0  0
  -26.2553  -24.0151   16.3307 O   0  0  0  0  0  0  0  0  0  0  0  0
  -20.8786   -8.8106   22.4280 O   0  0  0  0  0  0  0  0  0  0  0  0
  -26.9004  -26.5629   17.3739 O   0  0  0  0  0  0  0  0  0  1  0  0
  -20.0342   -3.3617   22.4229 F   0  0  0  0  0  0  0  0  0  0  0  0
  -20.6750   -7.4047   24.7996 F   0  0  0  0  0  0  0  0  0  0  0  0
  -25.0813  -20.2179   16.2617 F   0  0  0  0  0  0  0  0  0  0  0  0
  -24.0869  -20.7756   18.1164 F   0  0  0  0  0  0  0  0  0  0  0  0
  1  2  1  0  0  0  0
  1  5  2  0  0  0  0
  2  6  2  0  0  0  0
  3  8  2  0  0  0  0
  3 17  1  0  0  0  0
  4  9  1  0  0  0  0
  4 17  2  0  0  0  0
  5 19  1  0  0  0  0
  6 21  1  0  0  0  0
  7 10  2  0  0  0  0
  7 20  1  0  0  0  0
  8 25  1  0  0  0  0
  9 25  2  0  0  0  0
 10 26  1  0  0  0  0
 11 12  2  0  0  0  0
 11 27  1  0  0  0  0
 12 28  1  0  0  0  0
 13 22  1  0  0  0  0
 13 26  2  0  0  0  0
 14 23  1  0  0  0  0
 14 31  2  0  0  0  0
 15 28  2  0  0  0  0
 15 29  1  0  0  0  0
 16 24  1  0  0  0  0
 16 62  2  0  0  0  0
 17 30  1  0  0  0  0
 18 30  1  0  0  0  0
 18 32  2  0  0  0  0
 18 34  1  0  0  0  0
 19 21  2  0  0  0  0
 19 41  1  0  0  0  0
 20 22  2  0  0  0  0
 20 42  1  0  0  0  0
 21 50  1  0  0  0  0
 22 43  1  0  0  0  0
 23 24  2  0  0  0  0
 23 58  1  0  0  0  0
 24 69  1  0  0  0  0
 25 81  1  0  0  0  0
 26 82  1  0  0  0  0
 27 29  2  0  0  0  0
 27 81  1  0  0  0  0
 28 83  1  0  0  0  0
 29 84  1  0  0  0  0
 30 63  2  0  0  0  0
 31 62  1  0  0  0  0
 31 70  1  0  0  0  0
 32 64  1  0  0  0  0
 32 67  1  0  0  0  0
 33 35  2  0  0  0  0
 33 82  1  0  0  0  0
 34 68  1  0  0  0  0
 34 74  2  0  0  0  0
 35 36  1  0  0  0  0
 35 80  1  0  0  0  0
 36 69  1  0  0  0  0
 36 75  2  0  0  0  0
 37 51  1  0  0  0  0
 37 71  1  0  0  0  0
 37 76  2  0  0  0  0
 38 59  1  0  0  0  0
 38 65  1  0  0  0  0
 38 77  2  0  0  0  0
 39 60  1  0  0  0  0
 39 72  1  0  0  0  0
 39 78  2  0  0  0  0
 40 66  1  0  0  0  0
 40 70  1  0  0  0  0
 40 79  2  0  0  0  0
 41 44  1  0  0  0  0
 42 51  1  0  0  0  0
 43 65  1  0  0  0  0
 44 46  1  0  0  0  0
 45 47  1  0  0  0  0
 45 48  1  0  0  0  0
 46 50  1  0  0  0  0
 47 52  1  0  0  0  0
 48 66  1  0  0  0  0
 49 52  1  0  0  0  0
 49 66  1  0  0  0  0
 50 71  1  0  0  0  0
 51 65  1  0  0  0  0
 52 64  1  0  0  0  0
 53 60  1  0  0  0  0
 54 61  1  0  0  0  0
 55 61  1  0  0  0  0
 56 61  1  0  0  0  0
 57 73  1  0  0  0  0
 58 85  1  0  0  0  0
 58 86  1  0  0  0  0
 59 61  1  0  0  0  0
 59 72  1  0  0  0  0
 60 73  1  0  0  0  0
 63 64  1  0  0  0  0
M  CHG  1  73   1
M  ISO  4  33 101  40 100  70 100  82 101
M  END
> <Batch ID>
0168

> <Smiles>
CNC(C)C(=O)NC(C(=O)N1Cc2cc([101O:1][101CH2:1]C(=O)C(=O)Nc3cnc([100NH:0][100C:0](=O)N4CCCC(n5nc(-c6ccc(Oc7ccc(F)cc7F)cc6)c(C(N)=O)c5N)C4)cc3C(F)F)ccc2CC1C(=O)NC1CCCc2ccccc21)C(C)(C)C

> <Shape>
0.244

> <Color>
0.088

> <Negative vol penalty>
0.000

$$$$

  -OEChem-04052304143D

 85 93  0     1  0  0  0  0  0999 V2000
  -18.6614  -25.0169   23.6399 C   0  0  0  0  0  0  0  0  0  0  0  0
  -19.7513  -24.9618   22.7772 C   0  0  0  0  0  0  0  0  0  0  0  0
  -25.6875  -13.1091   21.7353 C   0  0  0  0  0  0  0  0  0  0  0  0
  -25.7386  -13.0345   19.3210 C   0  0  0  0  0  0  0  0  0  0  0  0
  -18.0528  -26.2408   23.9151 C   0  0  0  0  0  0  0  0  0  0  0  0
  -20.2327  -26.1305   22.1883 C   0  0  0  0  0  0  0  0  0  0  0  0
  -26.0649  -27.4578   20.8729 C   0  0  0  0  0  0  0  0  0  0  0  0
  -24.6865  -12.1378   21.7441 C   0  0  0  0  0  0  0  0  0  0  0  0
  -24.7376  -12.0631   19.3298 C   0  0  0  0  0  0  0  0  0  0  0  0
  -26.8014  -27.3789   19.6918 C   0  0  0  0  0  0  0  0  0  0  0  0
  -24.5026   -8.7360   19.8736 C   0  0  0  0  0  0  0  0  0  0  0  0
  -24.6659   -7.6317   19.0373 C   0  0  0  0  0  0  0  0  0  0  0  0
  -26.3653  -29.7139   19.2710 C   0  0  0  0  0  0  0  0  0  0  0  0
  -22.6149   -8.1960   17.8917 C   0  0  0  0  0  0  0  0  0  0  0  0
  -27.4030  -19.8165   14.8750 C   0  0  0  0  0  0  0  0  0  0  0  0
  -26.2135  -13.5576   20.5237 C   0  0  0  0  0  0  0  0  0  0  0  0
  -28.6384  -14.3494   20.5497 C   0  0  0  0  0  0  0  0  0  0  0  0
  -18.5330  -27.4263   23.3369 C   0  0  0  0  0  0  0  0  0  0  0  0
  -25.4629  -28.6647   21.2571 C   0  0  0  0  0  0  0  0  0  0  0  0
  -19.6292  -27.3712   22.4550 C   0  0  0  0  0  0  0  0  0  0  0  0
  -25.6238  -29.8061   20.4587 C   0  0  0  0  0  0  0  0  0  0  0  0
  -24.2116  -11.6147   20.5414 C   0  0  0  0  0  0  0  0  0  0  0  0
  -26.9493  -28.5063   18.8891 C   0  0  0  0  0  0  0  0  0  0  0  0
  -23.3953   -9.5703   19.7190 C   0  0  0  0  0  0  0  0  0  0  0  0
  -23.7221   -7.3617   18.0463 C   0  0  0  0  0  0  0  0  0  0  0  0
  -22.4516   -9.3003   18.7281 C   0  0  0  0  0  0  0  0  0  0  0  0
  -27.2471  -14.5614   20.5139 C   0  0  0  0  0  0  0  0  0  0  0  0
  -27.3773  -20.6856   15.9434 C   0  0  0  0  0  0  0  0  0  0  0  0
  -27.5985  -22.4539   14.5100 C   0  0  0  0  0  0  0  0  0  0  0  0
  -27.6250  -21.5845   13.4418 C   0  0  0  0  0  0  0  0  0  0  0  0
  -29.1789  -15.6117   20.5213 C   0  0  0  0  0  0  0  0  0  0  0  0
  -29.3762  -13.1212   20.6037 C   0  0  0  0  0  0  0  0  0  0  0  0
  -27.8213  -26.1844   14.6637 C   0  0  0  0  0  0  0  0  0  0  0  0
  -27.8205  -27.3959   15.5754 C   0  0  0  0  0  0  0  0  0  0  0  0
  -22.4721  -29.6230   21.7479 C   0  0  0  0  0  0  0  0  0  0  0  0
  -23.9223  -32.3416   22.7619 C   0  0  0  0  0  0  0  0  0  0  0  0
  -26.6668  -34.3681   22.6719 C   0  0  0  0  0  0  0  0  0  0  0  0
  -27.1978  -20.8550   18.4504 C   0  0  0  0  0  0  0  0  0  0  0  0
  -17.8129  -28.7193   23.6274 C   0  0  0  0  0  0  0  0  0  0  0  0
  -24.6940  -28.7400   22.5477 C   0  0  0  0  0  0  0  0  0  0  0  0
  -25.0145  -31.1306   20.8368 C   0  0  0  0  0  0  0  0  0  0  0  0
  -18.6182  -29.9618   23.2558 C   0  0  0  0  0  0  0  0  0  0  0  0
  -28.2120  -20.1286   21.7852 C   0  0  0  0  0  0  0  0  0  0  0  0
  -19.2265  -29.8076   21.8655 C   0  0  0  0  0  0  0  0  0  0  0  0
  -28.2122  -18.5991   21.8391 C   0  0  0  0  0  0  0  0  0  0  0  0
  -27.0696  -20.6657   20.9249 C   0  0  0  0  0  0  0  0  0  0  0  0
  -26.9962  -18.5750   19.6237 C   0  0  0  0  0  0  0  0  0  0  0  0
  -20.1959  -28.6205   21.8160 C   0  0  1  0  0  0  0  0  0  0  0  0
  -23.6936  -29.8912   22.5808 C   0  0  1  0  0  0  0  0  0  0  0  0
  -28.1678  -17.9855   20.4260 C   0  0  2  0  0  0  0  0  0  0  0  0
  -27.5426  -36.5396   23.5747 C   0  0  0  0  0  0  0  0  0  0  0  0
  -22.1553  -33.8681   20.7979 C   0  0  0  0  0  0  0  0  0  0  0  0
  -23.6950  -35.8270   21.0430 C   0  0  0  0  0  0  0  0  0  0  0  0
  -22.4395  -34.9744   23.0227 C   0  0  0  0  0  0  0  0  0  0  0  0
  -28.9235  -33.0244   24.0360 C   0  0  0  0  0  0  0  0  0  0  0  0
  -27.6889  -24.8214   15.2925 C   0  0  0  0  0  0  0  0  0  0  0  0
  -27.6832  -27.1747   17.0605 C   0  0  0  0  0  0  0  0  0  1  0  0
  -24.3694  -33.6244   22.1034 C   0  0  1  0  0  0  0  0  0  0  0  0
  -27.4635  -35.0346   23.7789 C   0  0  2  0  0  0  0  0  0  0  0  0
  -23.1748  -34.5482   21.7334 C   0  0  0  0  0  0  0  0  0  0  0  0
  -27.5273  -20.2503   13.6050 N   0  0  0  0  0  0  0  0  0  0  0  0
  -26.9239  -15.8565   20.4665 N   0  0  0  0  0  0  0  0  0  0  0  0
  -27.4746  -22.0200   15.7800 N   0  0  0  0  0  0  0  0  0  0  0  0
  -28.1198  -16.4697   20.4725 N   0  0  0  0  0  0  0  0  0  0  0  0
  -24.2666  -31.1519   22.1048 N   0  0  0  0  0  0  0  0  0  0  0  0
  -27.0934  -20.0429   19.5995 N   0  0  0  0  0  0  0  0  0  0  0  0
  -30.4520  -16.0604   20.5337 N   0  0  0  0  0  0  0  0  0  0  0  0
  -28.6639  -11.9144   20.6267 N   0  0  0  0  0  0  0  0  0  0  0  0
  -27.2441  -20.1498   17.2483 N   0  0  0  0  0  0  0  0  0  0  0  0
  -27.7038  -23.8138   14.2608 N   0  0  0  0  0  0  0  0  0  0  0  0
  -21.4592  -28.9737   22.4275 N   0  0  0  0  0  0  0  0  0  0  0  0
  -25.3369  -34.2330   23.0100 N   0  0  0  0  0  0  0  0  0  0  0  0
  -28.8510  -34.4920   23.8174 N   0  3  0  0  0  0  0  0  0  0  0  0
  -30.6295  -13.0952   20.6474 O   0  0  0  0  0  0  0  0  0  0  0  0
  -27.9318  -26.3922   13.4619 O   0  0  0  0  0  0  0  0  0  0  0  0
  -27.9300  -28.4967   15.0507 O   0  0  0  0  0  0  0  0  0  0  0  0
  -22.4498  -29.9800   20.5758 O   0  0  0  0  0  0  0  0  0  0  0  0
  -23.2971  -32.3931   23.8240 O   0  0  0  0  0  0  0  0  0  0  0  0
  -27.1728  -34.0070   21.6117 O   0  0  0  0  0  0  0  0  0  0  0  0
  -27.2702  -22.0840   18.5288 O   0  0  0  0  0  0  0  0  0  0  0  0
  -23.2350  -10.6667   20.5496 O   0  0  0  0  0  0  0  0  0  0  0  0
  -27.6671  -28.4319   17.7354 O   0  0  0  0  0  0  0  0  0  1  0  0
  -23.8799   -6.3021   17.2423 F   0  0  0  0  0  0  0  0  0  0  0  0
  -21.3865  -10.0988   18.5740 F   0  0  0  0  0  0  0  0  0  0  0  0
  -27.7501  -22.0543   12.1913 F   0  0  0  0  0  0  0  0  0  0  0  0
  1  2  1  0  0  0  0
  1  5  2  0  0  0  0
  2  6  2  0  0  0  0
  3  8  2  0  0  0  0
  3 16  1  0  0  0  0
  4  9  1  0  0  0  0
  4 16  2  0  0  0  0
  5 18  1  0  0  0  0
  6 20  1  0  0  0  0
  7 10  2  0  0  0  0
  7 19  1  0  0  0  0
  8 22  1  0  0  0  0
  9 22  2  0  0  0  0
 10 23  1  0  0  0  0
 11 12  2  0  0  0  0
 11 24  1  0  0  0  0
 12 25  1  0  0  0  0
 13 21  1  0  0  0  0
 13 23  2  0  0  0  0
 14 25  2  0  0  0  0
 14 26  1  0  0  0  0
 15 28  1  0  0  0  0
 15 61  2  0  0  0  0
 16 27  1  0  0  0  0
 17 27  1  0  0  0  0
 17 31  2  0  0  0  0
 17 32  1  0  0  0  0
 18 20  2  0  0  0  0
 18 39  1  0  0  0  0
 19 21  2  0  0  0  0
 19 40  1  0  0  0  0
 20 48  1  0  0  0  0
 21 41  1  0  0  0  0
 22 81  1  0  0  0  0
 23 82  1  0  0  0  0
 24 26  2  0  0  0  0
 24 81  1  0  0  0  0
 25 83  1  0  0  0  0
 26 84  1  0  0  0  0
 27 62  2  0  0  0  0
 28 63  2  0  0  0  0
 28 69  1  0  0  0  0
 29 30  2  0  0  0  0
 29 63  1  0  0  0  0
 29 70  1  0  0  0  0
 30 61  1  0  0  0  0
 30 85  1  0  0  0  0
 31 64  1  0  0  0  0
 31 67  1  0  0  0  0
 32 68  1  0  0  0  0
 32 74  2  0  0  0  0
 33 34  1  0  0  0  0
 33 56  1  0  0  0  0
 33 75  2  0  0  0  0
 34 57  1  0  0  0  0
 34 76  2  0  0  0  0
 35 49  1  0  0  0  0
 35 71  1  0  0  0  0
 35 77  2  0  0  0  0
 36 58  1  0  0  0  0
 36 65  1  0  0  0  0
 36 78  2  0  0  0  0
 37 59  1  0  0  0  0
 37 72  1  0  0  0  0
 37 79  2  0  0  0  0
 38 66  1  0  0  0  0
 38 69  1  0  0  0  0
 38 80  2  0  0  0  0
 39 42  1  0  0  0  0
 40 49  1  0  0  0  0
 41 65  1  0  0  0  0
 42 44  1  0  0  0  0
 43 45  1  0  0  0  0
 43 46  1  0  0  0  0
 44 48  1  0  0  0  0
 45 50  1  0  0  0  0
 46 66  1  0  0  0  0
 47 50  1  0  0  0  0
 47 66  1  0  0  0  0
 48 71  1  0  0  0  0
 49 65  1  0  0  0  0
 50 64  1  0  0  0  0
 51 59  1  0  0  0  0
 52 60  1  0  0  0  0
 53 60  1  0  0  0  0
 54 60  1  0  0  0  0
 55 73  1  0  0  0  0
 56 70  1  0  0  0  0
 57 82  1  0  0  0  0
 58 60  1  0  0  0  0
 58 72  1  0  0  0  0
 59 73  1  0  0  0  0
 62 64  1  0  0  0  0
M  CHG  1  73   1
M  ISO  4  38 100  57 101  69 100  82 101
M  END
> <Batch ID>
0168

> <Smiles>
CNC(C)C(=O)NC(C(=O)N1Cc2cc([101O:1][101CH2:1]C(=O)C(=O)CNc3nc([100NH:0][100C:0](=O)N4CCCC(n5nc(-c6ccc(Oc7ccc(F)cc7F)cc6)c(C(N)=O)c5N)C4)cnc3F)ccc2CC1C(=O)NC1CCCc2ccccc21)C(C)(C)C

> <Shape>
0.246

> <Color>
0.097

> <Negative vol penalty>
0.000

$$$$

  -OEChem-04052304143D

 88 96  0     1  0  0  0  0  0999 V2000
  -16.7876  -30.6929   23.5640 C   0  0  0  0  0  0  0  0  0  0  0  0
  -17.9793  -31.3160   23.9206 C   0  0  0  0  0  0  0  0  0  0  0  0
  -24.9465  -13.3446   21.5273 C   0  0  0  0  0  0  0  0  0  0  0  0
  -26.6130  -13.1761   19.7862 C   0  0  0  0  0  0  0  0  0  0  0  0
  -16.7991  -29.3718   23.1186 C   0  0  0  0  0  0  0  0  0  0  0  0
  -19.1831  -30.6178   23.8331 C   0  0  0  0  0  0  0  0  0  0  0  0
  -26.1352  -31.6307   22.4333 C   0  0  0  0  0  0  0  0  0  0  0  0
  -24.3732  -12.1490   21.0944 C   0  0  0  0  0  0  0  0  0  0  0  0
  -26.0397  -11.9805   19.3532 C   0  0  0  0  0  0  0  0  0  0  0  0
  -27.3922  -31.3749   22.9794 C   0  0  0  0  0  0  0  0  0  0  0  0
  -22.3218  -11.1270   18.6101 C   0  0  0  0  0  0  0  0  0  0  0  0
  -20.9324  -11.0793   18.4962 C   0  0  0  0  0  0  0  0  0  0  0  0
  -27.3001  -29.1224   22.1211 C   0  0  0  0  0  0  0  0  0  0  0  0
  -20.8623   -9.2795   20.1066 C   0  0  0  0  0  0  0  0  0  0  0  0
  -26.0664  -13.8582   20.8732 C   0  0  0  0  0  0  0  0  0  0  0  0
  -27.6771  -15.2500   22.2790 C   0  0  0  0  0  0  0  0  0  0  0  0
  -18.0049  -28.6602   23.0163 C   0  0  0  0  0  0  0  0  0  0  0  0
  -25.4452  -30.6292   21.7352 C   0  0  0  0  0  0  0  0  0  0  0  0
  -19.2107  -29.2855   23.3871 C   0  0  0  0  0  0  0  0  0  0  0  0
  -26.0355  -29.3688   21.5649 C   0  0  0  0  0  0  0  0  0  0  0  0
  -31.9920  -21.4988   21.5391 C   0  0  0  0  0  0  0  0  0  0  0  0
  -32.6106  -22.5636   22.2558 C   0  0  0  0  0  0  0  0  0  0  0  0
  -24.9198  -11.4669   20.0073 C   0  0  0  0  0  0  0  0  0  0  0  0
  -27.9736  -30.1197   22.8258 C   0  0  0  0  0  0  0  0  0  0  0  0
  -22.9814  -10.2510   19.4722 C   0  0  0  0  0  0  0  0  0  0  0  0
  -20.2026  -10.1556   19.2445 C   0  0  0  0  0  0  0  0  0  0  0  0
  -22.2517   -9.3273   20.2204 C   0  0  0  0  0  0  0  0  0  0  0  0
  -26.6587  -15.0935   21.3197 C   0  0  0  0  0  0  0  0  0  0  0  0
  -27.8827  -16.6065   22.3433 C   0  0  0  0  0  0  0  0  0  0  0  0
  -30.7459  -21.8481   21.0669 C   0  0  0  0  0  0  0  0  0  0  0  0
  -31.8138  -23.6865   22.3038 C   0  0  0  0  0  0  0  0  0  0  0  0
  -28.3749  -14.2580   23.0435 C   0  0  0  0  0  0  0  0  0  0  0  0
  -31.8646  -27.1639   23.6803 C   0  0  0  0  0  0  0  0  0  0  0  0
  -31.0980  -28.4662   23.8036 C   0  0  0  0  0  0  0  0  0  0  0  0
  -22.6850  -29.1064   22.1421 C   0  0  0  0  0  0  0  0  0  0  0  0
  -23.4088  -27.8315   19.2485 C   0  0  0  0  0  0  0  0  0  0  0  0
  -25.8046  -27.0204   16.9573 C   0  0  0  0  0  0  0  0  0  0  0  0
  -28.5445  -21.5549   19.8777 C   0  0  0  0  0  0  0  0  0  0  0  0
  -17.9619  -27.2188   22.5745 C   0  0  0  0  0  0  0  0  0  0  0  0
  -24.1017  -30.9293   21.1292 C   0  0  0  0  0  0  0  0  0  0  0  0
  -25.3451  -28.2657   20.8067 C   0  0  0  0  0  0  0  0  0  0  0  0
  -19.3228  -26.6697   22.1543 C   0  0  0  0  0  0  0  0  0  0  0  0
  -25.2046  -20.4394   20.4046 C   0  0  0  0  0  0  0  0  0  0  0  0
  -20.3896  -27.0468   23.1773 C   0  0  0  0  0  0  0  0  0  0  0  0
  -25.3689  -18.9621   20.7686 C   0  0  0  0  0  0  0  0  0  0  0  0
  -26.2137  -20.8781   19.3448 C   0  0  0  0  0  0  0  0  0  0  0  0
  -27.7806  -19.1034   20.0263 C   0  0  0  0  0  0  0  0  0  0  0  0
  -20.5396  -28.5693   23.2823 C   0  0  1  0  0  0  0  0  0  0  0  0
  -23.2658  -29.6777   20.8797 C   0  0  1  0  0  0  0  0  0  0  0  0
  -26.8285  -18.6315   21.1374 C   0  0  2  0  0  0  0  0  0  0  0  0
  -32.6151  -20.1685   21.3250 C   0  0  0  0  0  0  0  0  0  0  0  0
  -26.0950  -25.9544   14.7042 C   0  0  0  0  0  0  0  0  0  0  0  0
  -23.0176  -25.0780   20.5035 C   0  0  0  0  0  0  0  0  0  0  0  0
  -24.2180  -24.0899   18.5411 C   0  0  0  0  0  0  0  0  0  0  0  0
  -22.0738  -25.3182   18.2001 C   0  0  0  0  0  0  0  0  0  0  0  0
  -26.9358  -29.4991   15.8017 C   0  0  0  0  0  0  0  0  0  0  0  0
  -31.2212  -26.0288   22.9264 C   0  0  0  0  0  0  0  0  0  0  0  0
  -29.7363  -28.5593   23.1630 C   0  0  0  0  0  0  0  0  0  1  0  0
  -24.1667  -26.6144   18.7758 C   0  0  1  0  0  0  0  0  0  0  0  0
  -25.8880  -27.2576   15.4603 C   0  0  2  0  0  0  0  0  0  0  0  0
  -33.9561  -22.4691   22.8768 C   0  0  0  0  0  0  0  0  0  0  0  0
  -23.3814  -25.2951   19.0212 C   0  0  0  0  0  0  0  0  0  0  0  0
  -26.2460  -16.2575   20.8112 N   0  0  0  0  0  0  0  0  0  0  0  0
  -27.0087  -17.1585   21.4535 N   0  0  0  0  0  0  0  0  0  0  0  0
  -24.0303  -28.6061   20.2383 N   0  0  0  0  0  0  0  0  0  0  0  0
  -27.5746  -20.5365   19.7645 N   0  0  0  0  0  0  0  0  0  0  0  0
  -28.7238  -17.3691   23.0736 N   0  0  0  0  0  0  0  0  0  0  0  0
  -28.0395  -12.9104   22.8540 N   0  0  0  0  0  0  0  0  0  0  0  0
  -29.7933  -21.1156   20.3162 N   0  0  0  0  0  0  0  0  0  0  0  0
  -32.1103  -24.8934   22.9186 N   0  0  0  0  0  0  0  0  0  0  0  0
  -21.3036  -29.0801   22.1643 N   0  0  0  0  0  0  0  0  0  0  0  0
  -24.5010  -26.8595   17.3771 N   0  0  0  0  0  0  0  0  0  0  0  0
  -27.0225  -28.1704   15.1429 N   0  3  0  0  0  0  0  0  0  0  0  0
  -29.2579  -14.5588   23.8822 O   0  0  0  0  0  0  0  0  0  0  0  0
  -32.9689  -27.1159   24.2076 O   0  0  0  0  0  0  0  0  0  0  0  0
  -31.6325  -29.3792   24.4198 O   0  0  0  0  0  0  0  0  0  0  0  0
  -23.4346  -28.7168   23.0298 O   0  0  0  0  0  0  0  0  0  0  0  0
  -22.3093  -28.0895   18.7526 O   0  0  0  0  0  0  0  0  0  0  0  0
  -26.7968  -26.9781   17.6814 O   0  0  0  0  0  0  0  0  0  0  0  0
  -28.2790  -22.7343   19.6318 O   0  0  0  0  0  0  0  0  0  0  0  0
  -24.3608  -10.3001   19.5847 O   0  0  0  0  0  0  0  0  0  0  0  0
  -29.2002  -29.8672   23.3584 O   0  0  0  0  0  0  0  0  0  1  0  0
  -18.8683  -10.1109   19.1361 F   0  0  0  0  0  0  0  0  0  0  0  0
  -22.8797   -8.4839   21.0511 F   0  0  0  0  0  0  0  0  0  0  0  0
  -34.5631  -21.2550   22.7014 F   0  0  0  0  0  0  0  0  0  0  0  0
  -34.8537  -23.3823   22.3940 F   0  0  0  0  0  0  0  0  0  0  0  0
  -33.9323  -22.6677   24.2295 F   0  0  0  0  0  0  0  0  0  0  0  0
  -30.3266  -23.4542   21.4875 S   0  0  0  0  0  0  0  0  0  0  0  0
  1  2  1  0  0  0  0
  1  5  2  0  0  0  0
  2  6  2  0  0  0  0
  3  8  2  0  0  0  0
  3 15  1  0  0  0  0
  4  9  1  0  0  0  0
  4 15  2  0  0  0  0
  5 17  1  0  0  0  0
  6 19  1  0  0  0  0
  7 10  2  0  0  0  0
  7 18  1  0  0  0  0
  8 23  1  0  0  0  0
  9 23  2  0  0  0  0
 10 24  1  0  0  0  0
 11 12  2  0  0  0  0
 11 25  1  0  0  0  0
 12 26  1  0  0  0  0
 13 20  1  0  0  0  0
 13 24  2  0  0  0  0
 14 26  2  0  0  0  0
 14 27  1  0  0  0  0
 15 28  1  0  0  0  0
 16 28  1  0  0  0  0
 16 29  2  0  0  0  0
 16 32  1  0  0  0  0
 17 19  2  0  0  0  0
 17 39  1  0  0  0  0
 18 20  2  0  0  0  0
 18 40  1  0  0  0  0
 19 48  1  0  0  0  0
 20 41  1  0  0  0  0
 21 22  1  0  0  0  0
 21 30  2  0  0  0  0
 21 51  1  0  0  0  0
 22 31  2  0  0  0  0
 22 61  1  0  0  0  0
 23 81  1  0  0  0  0
 24 82  1  0  0  0  0
 25 27  2  0  0  0  0
 25 81  1  0  0  0  0
 26 83  1  0  0  0  0
 27 84  1  0  0  0  0
 28 63  2  0  0  0  0
 29 64  1  0  0  0  0
 29 67  1  0  0  0  0
 30 69  1  0  0  0  0
 30 88  1  0  0  0  0
 31 70  1  0  0  0  0
 31 88  1  0  0  0  0
 32 68  1  0  0  0  0
 32 74  2  0  0  0  0
 33 34  1  0  0  0  0
 33 57  1  0  0  0  0
 33 75  2  0  0  0  0
 34 58  1  0  0  0  0
 34 76  2  0  0  0  0
 35 49  1  0  0  0  0
 35 71  1  0  0  0  0
 35 77  2  0  0  0  0
 36 59  1  0  0  0  0
 36 65  1  0  0  0  0
 36 78  2  0  0  0  0
 37 60  1  0  0  0  0
 37 72  1  0  0  0  0
 37 79  2  0  0  0  0
 38 66  1  0  0  0  0
 38 69  1  0  0  0  0
 38 80  2  0  0  0  0
 39 42  1  0  0  0  0
 40 49  1  0  0  0  0
 41 65  1  0  0  0  0
 42 44  1  0  0  0  0
 43 45  1  0  0  0  0
 43 46  1  0  0  0  0
 44 48  1  0  0  0  0
 45 50  1  0  0  0  0
 46 66  1  0  0  0  0
 47 50  1  0  0  0  0
 47 66  1  0  0  0  0
 48 71  1  0  0  0  0
 49 65  1  0  0  0  0
 50 64  1  0  0  0  0
 52 60  1  0  0  0  0
 53 62  1  0  0  0  0
 54 62  1  0  0  0  0
 55 62  1  0  0  0  0
 56 73  1  0  0  0  0
 57 70  1  0  0  0  0
 58 82  1  0  0  0  0
 59 62  1  0  0  0  0
 59 72  1  0  0  0  0
 60 73  1  0  0  0  0
 61 85  1  0  0  0  0
 61 86  1  0  0  0  0
 61 87  1  0  0  0  0
 63 64  1  0  0  0  0
M  CHG  1  73   1
M  ISO  4  38 100  58 101  69 100  82 101
M  END
> <Batch ID>
0168

> <Smiles>
CNC(C)C(=O)NC(C(=O)N1Cc2cc([101O:1][101CH2:1]C(=O)C(=O)CNc3sc([100NH:0][100C:0](=O)N4CCCC(n5nc(-c6ccc(Oc7ccc(F)cc7F)cc6)c(C(N)=O)c5N)C4)c(C)c3C(F)(F)F)ccc2CC1C(=O)NC1CCCc2ccccc21)C(C)(C)C

> <Shape>
0.247

> <Color>
0.105

> <Negative vol penalty>
0.000

$$$$

  -OEChem-04052304143D

 88 96  0     1  0  0  0  0  0999 V2000
  -17.7051  -25.3113   22.8596 C   0  0  0  0  0  0  0  0  0  0  0  0
  -19.0281  -25.0936   22.4887 C   0  0  0  0  0  0  0  0  0  0  0  0
  -24.3886  -15.2749   22.8518 C   0  0  0  0  0  0  0  0  0  0  0  0
  -23.8485  -15.7733   20.5502 C   0  0  0  0  0  0  0  0  0  0  0  0
  -17.1837  -26.6044   22.8514 C   0  0  0  0  0  0  0  0  0  0  0  0
  -19.8303  -26.1688   22.1083 C   0  0  0  0  0  0  0  0  0  0  0  0
  -24.4369  -25.9929   24.2044 C   0  0  0  0  0  0  0  0  0  0  0  0
  -23.8044  -16.4775   23.2493 C   0  0  0  0  0  0  0  0  0  0  0  0
  -23.2643  -16.9759   20.9478 C   0  0  0  0  0  0  0  0  0  0  0  0
  -25.3601  -25.1137   23.6400 C   0  0  0  0  0  0  0  0  0  0  0  0
  -22.7743  -19.5858   24.8308 C   0  0  0  0  0  0  0  0  0  0  0  0
  -23.4646  -20.3694   25.7554 C   0  0  0  0  0  0  0  0  0  0  0  0
  -26.3756  -26.9517   22.4527 C   0  0  0  0  0  0  0  0  0  0  0  0
  -31.5462  -17.7687   21.7251 C   0  0  0  0  0  0  0  0  0  0  0  0
  -25.3242  -20.5398   24.2225 C   0  0  0  0  0  0  0  0  0  0  0  0
  -24.4107  -14.9228   21.5022 C   0  0  0  0  0  0  0  0  0  0  0  0
  -24.3834  -12.4286   20.9676 C   0  0  0  0  0  0  0  0  0  0  0  0
  -17.9828  -27.6972   22.4799 C   0  0  0  0  0  0  0  0  0  0  0  0
  -24.4693  -27.3587   23.8881 C   0  0  0  0  0  0  0  0  0  0  0  0
  -19.3188  -27.4776   22.0938 C   0  0  0  0  0  0  0  0  0  0  0  0
  -25.4533  -27.8466   23.0164 C   0  0  0  0  0  0  0  0  0  0  0  0
  -31.7484  -19.1411   21.8199 C   0  0  0  0  0  0  0  0  0  0  0  0
  -23.2422  -17.3280   22.2973 C   0  0  0  0  0  0  0  0  0  0  0  0
  -26.3278  -25.5926   22.7617 C   0  0  0  0  0  0  0  0  0  0  0  0
  -23.3589  -19.2790   23.6021 C   0  0  0  0  0  0  0  0  0  0  0  0
  -24.7396  -20.8465   25.4512 C   0  0  0  0  0  0  0  0  0  0  0  0
  -24.6339  -19.7560   23.2979 C   0  0  0  0  0  0  0  0  0  0  0  0
  -30.9745  -20.0067   21.0550 C   0  0  0  0  0  0  0  0  0  0  0  0
  -25.0145  -13.6809   21.0909 C   0  0  0  0  0  0  0  0  0  0  0  0
  -30.0193  -19.4540   20.2171 C   0  0  0  0  0  0  0  0  0  0  0  0
  -30.5653  -17.3162   20.8574 C   0  0  0  0  0  0  0  0  0  0  0  0
  -25.3803  -11.5814   20.5493 C   0  0  0  0  0  0  0  0  0  0  0  0
  -28.1032  -20.6739   19.9649 C   0  0  0  0  0  0  0  0  0  0  0  0
  -23.0181  -12.0638   21.2095 C   0  0  0  0  0  0  0  0  0  0  0  0
  -22.4559  -29.3877   22.4979 C   0  0  0  0  0  0  0  0  0  0  0  0
  -26.8817  -22.8748   19.9466 C   0  0  0  0  0  0  0  0  0  0  0  0
  -24.6906  -31.5797   23.3483 C   0  0  0  0  0  0  0  0  0  0  0  0
  -27.9417  -32.2430   24.1465 C   0  0  0  0  0  0  0  0  0  0  0  0
  -29.4457  -15.2315   19.9687 C   0  0  0  0  0  0  0  0  0  0  0  0
  -17.3614  -29.0709   22.4411 C   0  0  0  0  0  0  0  0  0  0  0  0
  -23.4832  -28.2982   24.5262 C   0  0  0  0  0  0  0  0  0  0  0  0
  -25.5435  -29.3072   22.6602 C   0  0  0  0  0  0  0  0  0  0  0  0
  -18.3856  -30.2013   22.3850 C   0  0  0  0  0  0  0  0  0  0  0  0
  -30.1812  -11.6117   21.0742 C   0  0  0  0  0  0  0  0  0  0  0  0
  -19.4580  -29.8989   21.3432 C   0  0  0  0  0  0  0  0  0  0  0  0
  -28.6910  -11.3293   21.2178 C   0  0  0  0  0  0  0  0  0  0  0  0
  -30.4298  -13.1157   20.9990 C   0  0  0  0  0  0  0  0  0  0  0  0
  -28.6547  -12.9863   19.2486 C   0  0  0  0  0  0  0  0  0  0  0  0
  -20.2277  -28.6212   21.6987 C   0  0  1  0  0  0  0  0  0  0  0  0
  -23.2870  -29.5870   23.7337 C   0  0  1  0  0  0  0  0  0  0  0  0
  -27.8913  -11.8955   20.0274 C   0  0  2  0  0  0  0  0  0  0  0  0
  -32.7922  -19.6794   22.7382 C   0  0  0  0  0  0  0  0  0  0  0  0
  -29.4739  -34.1344   24.7564 C   0  0  0  0  0  0  0  0  0  0  0  0
  -24.7371  -32.4789   20.4330 C   0  0  0  0  0  0  0  0  0  0  0  0
  -26.8951  -33.6578   20.9037 C   0  0  0  0  0  0  0  0  0  0  0  0
  -24.8157  -34.3411   22.1004 C   0  0  0  0  0  0  0  0  0  0  0  0
  -26.0679  -19.5718   18.1987 C   0  0  0  0  0  0  0  0  0  0  0  0
  -28.5717  -31.0383   26.7754 C   0  0  0  0  0  0  0  0  0  0  0  0
  -28.0821  -23.7882   20.1674 C   0  0  0  0  0  0  0  0  0  0  0  0
  -27.7283  -25.0661   20.9131 C   0  0  0  0  0  0  0  0  0  1  0  0
  -27.1627  -21.5741   19.2140 C   0  0  2  0  0  0  0  0  0  0  0  0
  -25.9283  -32.1515   22.7001 C   0  0  1  0  0  0  0  0  0  0  0  0
  -28.5576  -33.0404   25.2820 C   0  0  2  0  0  0  0  0  0  0  0  0
  -25.5914  -33.1294   21.5393 C   0  0  0  0  0  0  0  0  0  0  0  0
  -26.3119  -13.6377   20.7765 N   0  0  0  0  0  0  0  0  0  0  0  0
  -29.7939  -18.1264   20.0982 N   0  0  0  0  0  0  0  0  0  0  0  0
  -29.2116  -20.2854   19.4235 N   0  0  0  0  0  0  0  0  0  0  0  0
  -26.5042  -12.3479   20.4516 N   0  0  0  0  0  0  0  0  0  0  0  0
  -24.5530  -30.1851   23.3049 N   0  0  0  0  0  0  0  0  0  0  0  0
  -29.5010  -13.8218   20.1043 N   0  0  0  0  0  0  0  0  0  0  0  0
  -25.3964  -10.2631   20.2593 N   0  0  0  0  0  0  0  0  0  0  0  0
  -22.1262  -13.0577   21.6348 N   0  0  0  0  0  0  0  0  0  0  0  0
  -30.3668  -15.9154   20.7667 N   0  0  0  0  0  0  0  0  0  0  0  0
  -21.1920  -28.8866   22.7447 N   0  0  0  0  0  0  0  0  0  0  0  0
  -26.7136  -32.7481   23.7752 N   0  0  0  0  0  0  0  0  0  0  0  0
  -25.8934  -20.8305   18.9672 N   0  3  0  0  0  0  0  0  0  0  0  0
  -29.3538  -32.1469   26.1701 N   0  3  0  0  0  0  0  0  0  0  0  0
  -22.6051  -10.8877   21.0688 O   0  0  0  0  0  0  0  0  0  0  0  0
  -22.9259  -29.6692   21.4018 O   0  0  0  0  0  0  0  0  0  0  0  0
  -25.7525  -23.1708   20.3364 O   0  0  0  0  0  0  0  0  0  0  0  0
  -23.8794  -32.3419   23.8801 O   0  0  0  0  0  0  0  0  0  0  0  0
  -28.4964  -31.2716   23.6373 O   0  0  0  0  0  0  0  0  0  0  0  0
  -28.6480  -15.7778   19.2038 O   0  0  0  0  0  0  0  0  0  0  0  0
  -22.6719  -18.5015   22.6849 O   0  0  0  0  0  0  0  0  0  0  0  0
  -27.2297  -24.7365   22.2089 O   0  0  0  0  0  0  0  0  0  1  0  0
  -25.4018  -21.6003   26.3386 F   0  0  0  0  0  0  0  0  0  0  0  0
  -25.2002  -19.4657   22.1186 F   0  0  0  0  0  0  0  0  0  0  0  0
  -31.1475  -21.3330   21.1266 F   0  0  0  0  0  0  0  0  0  0  0  0
  1  2  1  0  0  0  0
  1  5  2  0  0  0  0
  2  6  2  0  0  0  0
  3  8  2  0  0  0  0
  3 16  1  0  0  0  0
  4  9  1  0  0  0  0
  4 16  2  0  0  0  0
  5 18  1  0  0  0  0
  6 20  1  0  0  0  0
  7 10  2  0  0  0  0
  7 19  1  0  0  0  0
  8 23  1  0  0  0  0
  9 23  2  0  0  0  0
 10 24  1  0  0  0  0
 11 12  2  0  0  0  0
 11 25  1  0  0  0  0
 12 26  1  0  0  0  0
 13 21  1  0  0  0  0
 13 24  2  0  0  0  0
 14 22  2  0  0  0  0
 14 31  1  0  0  0  0
 15 26  2  0  0  0  0
 15 27  1  0  0  0  0
 16 29  1  0  0  0  0
 17 29  1  0  0  0  0
 17 32  2  0  0  0  0
 17 34  1  0  0  0  0
 18 20  2  0  0  0  0
 18 40  1  0  0  0  0
 19 21  2  0  0  0  0
 19 41  1  0  0  0  0
 20 49  1  0  0  0  0
 21 42  1  0  0  0  0
 22 28  1  0  0  0  0
 22 52  1  0  0  0  0
 23 84  1  0  0  0  0
 24 85  1  0  0  0  0
 25 27  2  0  0  0  0
 25 84  1  0  0  0  0
 26 86  1  0  0  0  0
 27 87  1  0  0  0  0
 28 30  2  0  0  0  0
 28 88  1  0  0  0  0
 29 65  2  0  0  0  0
 30 66  1  0  0  0  0
 30 67  1  0  0  0  0
 31 66  2  0  0  0  0
 31 73  1  0  0  0  0
 32 68  1  0  0  0  0
 32 71  1  0  0  0  0
 33 61  1  0  0  0  0
 33 67  2  0  0  0  0
 34 72  1  0  0  0  0
 34 78  2  0  0  0  0
 35 50  1  0  0  0  0
 35 74  1  0  0  0  0
 35 79  2  0  0  0  0
 36 59  1  0  0  0  0
 36 61  1  0  0  0  0
 36 80  2  0  0  0  0
 37 62  1  0  0  0  0
 37 69  1  0  0  0  0
 37 81  2  0  0  0  0
 38 63  1  0  0  0  0
 38 75  1  0  0  0  0
 38 82  2  0  0  0  0
 39 70  1  0  0  0  0
 39 73  1  0  0  0  0
 39 83  2  0  0  0  0
 40 43  1  0  0  0  0
 41 50  1  0  0  0  0
 42 69  1  0  0  0  0
 43 45  1  0  0  0  0
 44 46  1  0  0  0  0
 44 47  1  0  0  0  0
 45 49  1  0  0  0  0
 46 51  1  0  0  0  0
 47 70  1  0  0  0  0
 48 51  1  0  0  0  0
 48 70  1  0  0  0  0
 49 74  1  0  0  0  0
 50 69  1  0  0  0  0
 51 68  1  0  0  0  0
 53 63  1  0  0  0  0
 54 64  1  0  0  0  0
 55 64  1  0  0  0  0
 56 64  1  0  0  0  0
 57 76  1  0  0  0  0
 58 77  1  0  0  0  0
 59 60  1  0  0  0  0
 60 85  1  0  0  0  0
 61 76  1  0  0  0  0
 62 64  1  0  0  0  0
 62 75  1  0  0  0  0
 63 77  1  0  0  0  0
 65 68  1  0  0  0  0
M  CHG  2  76   1  77   1
M  ISO  4  39 100  60 101  73 100  85 101
M  END
> <Batch ID>
0168

> <Smiles>
CN=C(CNc1nc([100NH:0][100C:0](=O)N2CCCC(n3nc(-c4ccc(Oc5ccc(F)cc5F)cc4)c(C(N)=O)c3N)C2)cc(C)c1F)C(=O)C[101CH2:1][101O:1]c1ccc2c(c1)CN(C(=O)C(NC(=O)C(C)NC)C(C)(C)C)C(C(=O)NC1CCCc3ccccc31)C2

> <Shape>
0.268

> <Color>
0.103

> <Negative vol penalty>
0.000

$$$$

  -OEChem-04052304143D

 88 96  0     1  0  0  0  0  0999 V2000
  -21.8034  -28.6438   24.7760 C   0  0  0  0  0  0  0  0  0  0  0  0
  -22.0963  -27.2998   24.9842 C   0  0  0  0  0  0  0  0  0  0  0  0
  -29.4414  -23.4933   21.2127 C   0  0  0  0  0  0  0  0  0  0  0  0
  -27.2871  -23.3081   20.1350 C   0  0  0  0  0  0  0  0  0  0  0  0
  -20.7529  -29.0047   23.9335 C   0  0  0  0  0  0  0  0  0  0  0  0
  -21.3381  -26.3159   24.3506 C   0  0  0  0  0  0  0  0  0  0  0  0
  -21.9322  -19.7494   21.5499 C   0  0  0  0  0  0  0  0  0  0  0  0
  -29.5103  -24.8368   20.8441 C   0  0  0  0  0  0  0  0  0  0  0  0
  -27.3559  -24.6516   19.7664 C   0  0  0  0  0  0  0  0  0  0  0  0
  -21.3381  -18.4901   21.6215 C   0  0  0  0  0  0  0  0  0  0  0  0
  -26.8003  -28.1265   18.8529 C   0  0  0  0  0  0  0  0  0  0  0  0
  -25.6608  -28.9096   19.0373 C   0  0  0  0  0  0  0  0  0  0  0  0
  -19.5976  -19.2328   20.1255 C   0  0  0  0  0  0  0  0  0  0  0  0
  -25.3959  -12.8917   19.2289 C   0  0  0  0  0  0  0  0  0  0  0  0
  -23.2886  -12.1482   20.1473 C   0  0  0  0  0  0  0  0  0  0  0  0
  -25.7263  -28.4468   21.4077 C   0  0  0  0  0  0  0  0  0  0  0  0
  -28.3298  -22.7289   20.8581 C   0  0  0  0  0  0  0  0  0  0  0  0
  -27.7114  -20.8107   22.4220 C   0  0  0  0  0  0  0  0  0  0  0  0
  -19.9875  -28.0249   23.2817 C   0  0  0  0  0  0  0  0  0  0  0  0
  -21.3564  -20.7648   20.7729 C   0  0  0  0  0  0  0  0  0  0  0  0
  -20.2754  -26.6640   23.4996 C   0  0  0  0  0  0  0  0  0  0  0  0
  -20.1877  -20.5033   20.0437 C   0  0  0  0  0  0  0  0  0  0  0  0
  -25.4636  -13.8946   20.1960 C   0  0  0  0  0  0  0  0  0  0  0  0
  -23.3563  -13.1510   21.1145 C   0  0  0  0  0  0  0  0  0  0  0  0
  -24.4439  -14.0242   21.1388 C   0  0  0  0  0  0  0  0  0  0  0  0
  -28.4676  -25.4160   20.1210 C   0  0  0  0  0  0  0  0  0  0  0  0
  -20.1691  -18.2325   20.9116 C   0  0  0  0  0  0  0  0  0  0  0  0
  -27.4027  -27.5035   19.9459 C   0  0  0  0  0  0  0  0  0  0  0  0
  -25.1238  -29.0697   20.3146 C   0  0  0  0  0  0  0  0  0  0  0  0
  -24.3084  -12.0186   19.2045 C   0  0  0  0  0  0  0  0  0  0  0  0
  -26.8657  -27.6636   21.2233 C   0  0  0  0  0  0  0  0  0  0  0  0
  -28.2583  -21.3409   21.2381 C   0  0  0  0  0  0  0  0  0  0  0  0
  -27.8865  -19.4536   22.3033 C   0  0  0  0  0  0  0  0  0  0  0  0
  -27.0998  -21.4847   23.5298 C   0  0  0  0  0  0  0  0  0  0  0  0
  -20.0225  -13.5951   22.5459 C   0  0  0  0  0  0  0  0  0  0  0  0
  -19.4650  -14.7309   21.7355 C   0  0  0  0  0  0  0  0  0  0  0  0
  -20.1453  -23.6403   21.3800 C   0  0  0  0  0  0  0  0  0  0  0  0
  -19.9614  -23.8164   18.1462 C   0  0  0  0  0  0  0  0  0  0  0  0
  -19.7730  -22.1728   15.1612 C   0  0  0  0  0  0  0  0  0  0  0  0
  -27.6641  -14.7557   19.3228 C   0  0  0  0  0  0  0  0  0  0  0  0
  -18.8317  -28.4627   22.4173 C   0  0  0  0  0  0  0  0  0  0  0  0
  -22.0242  -22.1097   20.6850 C   0  0  0  0  0  0  0  0  0  0  0  0
  -19.5409  -21.5531   19.1788 C   0  0  0  0  0  0  0  0  0  0  0  0
  -18.3151  -27.3659   21.4898 C   0  0  0  0  0  0  0  0  0  0  0  0
  -30.5871  -16.7591   18.9764 C   0  0  0  0  0  0  0  0  0  0  0  0
  -18.1489  -26.0557   22.2531 C   0  0  0  0  0  0  0  0  0  0  0  0
  -30.1968  -18.0861   19.6314 C   0  0  0  0  0  0  0  0  0  0  0  0
  -29.4156  -16.1327   18.2222 C   0  0  0  0  0  0  0  0  0  0  0  0
  -27.7945  -17.3020   19.6623 C   0  0  0  0  0  0  0  0  0  0  0  0
  -19.4916  -25.5680   22.8108 C   0  0  1  0  0  0  0  0  0  0  0  0
  -21.0693  -23.2249   20.2703 C   0  0  1  0  0  0  0  0  0  0  0  0
  -28.9241  -17.9388   20.4882 C   0  0  2  0  0  0  0  0  0  0  0  0
  -19.5211  -12.5846   25.9890 C   0  0  0  0  0  0  0  0  0  0  0  0
  -19.5962  -22.5864   12.6924 C   0  0  0  0  0  0  0  0  0  0  0  0
  -17.0096  -24.5146   18.4771 C   0  0  0  0  0  0  0  0  0  0  0  0
  -16.6837  -23.9825   16.0524 C   0  0  0  0  0  0  0  0  0  0  0  0
  -18.2054  -25.8408   16.7261 C   0  0  0  0  0  0  0  0  0  0  0  0
  -22.3435  -20.8053   14.6304 C   0  0  0  0  0  0  0  0  0  0  0  0
  -21.0146  -12.7044   21.8511 C   0  0  0  0  0  0  0  0  0  0  0  0
  -20.2275  -16.0267   21.7988 C   0  0  0  0  0  0  0  0  0  1  0  0
  -20.1279  -12.4605   24.6065 C   0  0  0  0  0  0  0  0  0  0  0  0
  -18.9245  -23.4480   17.1127 C   0  0  1  0  0  0  0  0  0  0  0  0
  -20.5386  -22.3519   13.8627 C   0  0  2  0  0  0  0  0  0  0  0  0
  -17.7167  -24.4271   17.1098 C   0  0  0  0  0  0  0  0  0  0  0  0
  -28.7446  -20.3976   20.4271 N   0  0  0  0  0  0  0  0  0  0  0  0
  -19.6087  -13.5247   23.7625 N   0  0  0  0  0  0  0  0  0  0  0  0
  -28.5039  -19.2610   21.1025 N   0  0  0  0  0  0  0  0  0  0  0  0
  -20.2282  -22.8542   19.1305 N   0  0  0  0  0  0  0  0  0  0  0  0
  -28.2470  -16.0208   19.0978 N   0  0  0  0  0  0  0  0  0  0  0  0
  -24.5121  -15.0420   22.1207 N   0  0  0  0  0  0  0  0  0  0  0  0
  -27.5712  -18.4182   23.1101 N   0  0  0  0  0  0  0  0  0  0  0  0
  -27.0006  -22.8821   23.4896 N   0  0  0  0  0  0  0  0  0  0  0  0
  -26.5790  -14.7684   20.1986 N   0  0  0  0  0  0  0  0  0  0  0  0
  -22.3295  -13.2605   22.0414 N   0  0  0  0  0  0  0  0  0  0  0  0
  -20.2836  -24.9608   21.7627 N   0  0  0  0  0  0  0  0  0  0  0  0
  -19.6298  -23.3654   15.8382 N   0  0  0  0  0  0  0  0  0  0  0  0
  -21.3562  -21.1402   13.5721 N   0  3  0  0  0  0  0  0  0  0  0  0
  -26.6692  -20.8673   24.5333 O   0  0  0  0  0  0  0  0  0  0  0  0
  -18.4557  -14.5211   21.0810 O   0  0  0  0  0  0  0  0  0  0  0  0
  -19.3636  -22.8235   21.8528 O   0  0  0  0  0  0  0  0  0  0  0  0
  -20.5193  -24.9144   18.0783 O   0  0  0  0  0  0  0  0  0  0  0  0
  -19.3418  -21.0845   15.5355 O   0  0  0  0  0  0  0  0  0  0  0  0
  -28.1127  -13.7323   18.7999 O   0  0  0  0  0  0  0  0  0  0  0  0
  -28.5344  -26.7270   19.7613 O   0  0  0  0  0  0  0  0  0  0  0  0
  -19.5869  -17.0044   20.9802 O   0  0  0  0  0  0  0  0  0  1  0  0
  -24.0305  -29.8230   20.4918 F   0  0  0  0  0  0  0  0  0  0  0  0
  -24.2432  -11.0557   18.2757 F   0  0  0  0  0  0  0  0  0  0  0  0
  -27.4408  -27.0685   22.2773 F   0  0  0  0  0  0  0  0  0  0  0  0
  1  2  1  0  0  0  0
  1  5  2  0  0  0  0
  2  6  2  0  0  0  0
  3  8  2  0  0  0  0
  3 17  1  0  0  0  0
  4  9  1  0  0  0  0
  4 17  2  0  0  0  0
  5 19  1  0  0  0  0
  6 21  1  0  0  0  0
  7 10  2  0  0  0  0
  7 20  1  0  0  0  0
  8 26  1  0  0  0  0
  9 26  2  0  0  0  0
 10 27  1  0  0  0  0
 11 12  2  0  0  0  0
 11 28  1  0  0  0  0
 12 29  1  0  0  0  0
 13 22  1  0  0  0  0
 13 27  2  0  0  0  0
 14 23  2  0  0  0  0
 14 30  1  0  0  0  0
 15 24  1  0  0  0  0
 15 30  2  0  0  0  0
 16 29  2  0  0  0  0
 16 31  1  0  0  0  0
 17 32  1  0  0  0  0
 18 32  1  0  0  0  0
 18 33  2  0  0  0  0
 18 34  1  0  0  0  0
 19 21  2  0  0  0  0
 19 41  1  0  0  0  0
 20 22  2  0  0  0  0
 20 42  1  0  0  0  0
 21 50  1  0  0  0  0
 22 43  1  0  0  0  0
 23 25  1  0  0  0  0
 23 73  1  0  0  0  0
 24 25  2  0  0  0  0
 24 74  1  0  0  0  0
 25 70  1  0  0  0  0
 26 84  1  0  0  0  0
 27 85  1  0  0  0  0
 28 31  2  0  0  0  0
 28 84  1  0  0  0  0
 29 86  1  0  0  0  0
 30 87  1  0  0  0  0
 31 88  1  0  0  0  0
 32 65  2  0  0  0  0
 33 67  1  0  0  0  0
 33 71  1  0  0  0  0
 34 72  1  0  0  0  0
 34 78  2  0  0  0  0
 35 36  1  0  0  0  0
 35 59  1  0  0  0  0
 35 66  2  0  0  0  0
 36 60  1  0  0  0  0
 36 79  2  0  0  0  0
 37 51  1  0  0  0  0
 37 75  1  0  0  0  0
 37 80  2  0  0  0  0
 38 62  1  0  0  0  0
 38 68  1  0  0  0  0
 38 81  2  0  0  0  0
 39 63  1  0  0  0  0
 39 76  1  0  0  0  0
 39 82  2  0  0  0  0
 40 69  1  0  0  0  0
 40 73  1  0  0  0  0
 40 83  2  0  0  0  0
 41 44  1  0  0  0  0
 42 51  1  0  0  0  0
 43 68  1  0  0  0  0
 44 46  1  0  0  0  0
 45 47  1  0  0  0  0
 45 48  1  0  0  0  0
 46 50  1  0  0  0  0
 47 52  1  0  0  0  0
 48 69  1  0  0  0  0
 49 52  1  0  0  0  0
 49 69  1  0  0  0  0
 50 75  1  0  0  0  0
 51 68  1  0  0  0  0
 52 67  1  0  0  0  0
 53 61  1  0  0  0  0
 54 63  1  0  0  0  0
 55 64  1  0  0  0  0
 56 64  1  0  0  0  0
 57 64  1  0  0  0  0
 58 77  1  0  0  0  0
 59 74  1  0  0  0  0
 60 85  1  0  0  0  0
 61 66  1  0  0  0  0
 62 64  1  0  0  0  0
 62 76  1  0  0  0  0
 63 77  1  0  0  0  0
 65 67  1  0  0  0  0
M  CHG  1  77   1
M  ISO  4  40 100  60 101  73 100  85 101
M  END
> <Batch ID>
0168

> <Smiles>
CCN=C(CNc1cc(F)cc([100NH:0][100C:0](=O)N2CCCC(n3nc(-c4ccc(Oc5ccc(F)cc5F)cc4)c(C(N)=O)c3N)C2)c1N)C(=O)[101CH2:1][101O:1]c1ccc2c(c1)CN(C(=O)C(NC(=O)C(C)NC)C(C)(C)C)C(C(=O)NC1CCCc3ccccc31)C2

> <Shape>
0.190

> <Color>
0.081

> <Negative vol penalty>
0.000

$$$$

  -OEChem-04052304143D

 89 97  0     1  0  0  0  0  0999 V2000
  -17.4287  -11.8746   25.1797 C   0  0  0  0  0  0  0  0  0  0  0  0
  -18.4727  -10.9552   25.1668 C   0  0  0  0  0  0  0  0  0  0  0  0
  -27.3939  -29.6858   20.1421 C   0  0  0  0  0  0  0  0  0  0  0  0
  -26.7870  -28.4099   22.1019 C   0  0  0  0  0  0  0  0  0  0  0  0
  -17.1757  -12.6561   24.0531 C   0  0  0  0  0  0  0  0  0  0  0  0
  -19.2636  -10.8159   24.0269 C   0  0  0  0  0  0  0  0  0  0  0  0
  -27.0067  -11.4443   23.2044 C   0  0  0  0  0  0  0  0  0  0  0  0
  -26.3657  -30.5890   20.4117 C   0  0  0  0  0  0  0  0  0  0  0  0
  -25.7588  -29.3131   22.3715 C   0  0  0  0  0  0  0  0  0  0  0  0
  -28.3474  -11.6857   22.9037 C   0  0  0  0  0  0  0  0  0  0  0  0
  -22.7468  -31.0817   23.3763 C   0  0  0  0  0  0  0  0  0  0  0  0
  -21.5022  -30.5607   23.7299 C   0  0  0  0  0  0  0  0  0  0  0  0
  -27.7432  -12.2834   20.6397 C   0  0  0  0  0  0  0  0  0  0  0  0
  -29.1749  -18.1378   22.8546 C   0  0  0  0  0  0  0  0  0  0  0  0
  -29.2564  -19.0948   20.6378 C   0  0  0  0  0  0  0  0  0  0  0  0
  -21.3819  -29.4090   21.6094 C   0  0  0  0  0  0  0  0  0  0  0  0
  -27.6045  -28.5962   20.9871 C   0  0  0  0  0  0  0  0  0  0  0  0
  -29.9967  -27.7279   21.1637 C   0  0  0  0  0  0  0  0  0  0  0  0
  -17.9700  -12.5332   22.9022 C   0  0  0  0  0  0  0  0  0  0  0  0
  -26.0263  -11.6366   22.2270 C   0  0  0  0  0  0  0  0  0  0  0  0
  -19.0201  -11.5955   22.8834 C   0  0  0  0  0  0  0  0  0  0  0  0
  -26.3973  -12.0552   20.9387 C   0  0  0  0  0  0  0  0  0  0  0  0
  -29.5859  -18.0689   21.5235 C   0  0  0  0  0  0  0  0  0  0  0  0
  -28.4340  -19.2326   23.3000 C   0  0  0  0  0  0  0  0  0  0  0  0
  -28.5156  -20.1896   21.0831 C   0  0  0  0  0  0  0  0  0  0  0  0
  -25.5482  -30.4027   21.5264 C   0  0  0  0  0  0  0  0  0  0  0  0
  -28.7147  -12.1040   21.6245 C   0  0  0  0  0  0  0  0  0  0  0  0
  -23.3089  -30.7665   22.1392 C   0  0  0  0  0  0  0  0  0  0  0  0
  -20.8197  -29.7243   22.8465 C   0  0  0  0  0  0  0  0  0  0  0  0
  -22.6265  -29.9301   21.2558 C   0  0  0  0  0  0  0  0  0  0  0  0
  -28.1044  -20.2585   22.4143 C   0  0  0  0  0  0  0  0  0  0  0  0
  -28.6660  -27.6625   20.7088 C   0  0  0  0  0  0  0  0  0  0  0  0
  -30.5981  -26.6159   20.6270 C   0  0  0  0  0  0  0  0  0  0  0  0
  -30.6322  -28.7064   21.9970 C   0  0  0  0  0  0  0  0  0  0  0  0
  -22.3804  -11.5337   21.3479 C   0  0  0  0  0  0  0  0  0  0  0  0
  -31.5057  -14.8705   21.1187 C   0  0  0  0  0  0  0  0  0  0  0  0
  -23.5469  -14.0408   20.0197 C   0  0  0  0  0  0  0  0  0  0  0  0
  -28.2589  -18.3718   25.6564 C   0  0  0  0  0  0  0  0  0  0  0  0
  -24.9352  -16.8403   19.6482 C   0  0  0  0  0  0  0  0  0  0  0  0
  -28.5111  -21.3135   18.8285 C   0  0  0  0  0  0  0  0  0  0  0  0
  -17.6284  -13.3661   21.6921 C   0  0  0  0  0  0  0  0  0  0  0  0
  -24.5768  -11.3295   22.4885 C   0  0  0  0  0  0  0  0  0  0  0  0
  -25.3123  -12.2155   19.9091 C   0  0  0  0  0  0  0  0  0  0  0  0
  -18.7482  -13.4232   20.6562 C   0  0  0  0  0  0  0  0  0  0  0  0
  -30.3322  -23.6617   16.8672 C   0  0  0  0  0  0  0  0  0  0  0  0
  -19.3086  -12.0281   20.3983 C   0  0  0  0  0  0  0  0  0  0  0  0
  -30.2378  -24.9586   17.6741 C   0  0  0  0  0  0  0  0  0  0  0  0
  -29.0415  -22.8484   16.9477 C   0  0  0  0  0  0  0  0  0  0  0  0
  -28.4713  -23.8691   19.1162 C   0  0  0  0  0  0  0  0  0  0  0  0
  -19.9159  -11.4330   21.6745 C   0  0  1  0  0  0  0  0  0  0  0  0
  -23.6161  -12.2817   21.7539 C   0  0  1  0  0  0  0  0  0  0  0  0
  -29.7706  -24.6910   19.1183 C   0  0  2  0  0  0  0  0  0  0  0  0
  -27.6452  -18.8132   26.9613 C   0  0  0  0  0  0  0  0  0  0  0  0
  -25.2801  -19.0537   18.5171 C   0  0  0  0  0  0  0  0  0  0  0  0
  -23.6713  -12.5489   17.3621 C   0  0  0  0  0  0  0  0  0  0  0  0
  -24.2251  -14.7221   16.2492 C   0  0  0  0  0  0  0  0  0  0  0  0
  -22.0400  -14.4437   17.4198 C   0  0  0  0  0  0  0  0  0  0  0  0
  -24.3393  -18.3340   22.1328 C   0  0  0  0  0  0  0  0  0  0  0  0
  -30.7072  -15.8761   21.9239 C   0  0  0  0  0  0  0  0  0  0  0  0
  -30.8511  -12.7916   22.4122 C   0  0  0  0  0  0  0  0  0  1  0  0
  -31.9964  -13.6340   21.8683 C   0  0  1  0  0  0  0  0  0  0  0  0
  -24.1593  -14.6485   18.7832 C   0  0  1  0  0  0  0  0  0  0  0  0
  -24.5782  -18.3158   19.6465 C   0  0  2  0  0  0  0  0  0  0  0  0
  -23.5401  -14.0809   17.4748 C   0  0  0  0  0  0  0  0  0  0  0  0
  -28.4352  -26.5935   19.9420 N   0  0  0  0  0  0  0  0  0  0  0  0
  -29.6289  -25.9770   19.9108 N   0  0  0  0  0  0  0  0  0  0  0  0
  -24.1415  -12.8724   20.5113 N   0  0  0  0  0  0  0  0  0  0  0  0
  -28.6627  -22.6305   18.3455 N   0  0  0  0  0  0  0  0  0  0  0  0
  -31.8561  -26.1320   20.7024 N   0  0  0  0  0  0  0  0  0  0  0  0
  -29.8683  -29.7855   22.4621 N   0  0  0  0  0  0  0  0  0  0  0  0
  -28.0240  -19.2986   24.6321 N   0  0  0  0  0  0  0  0  0  0  0  0
  -28.1813  -21.2297   20.1809 N   0  0  0  0  0  0  0  0  0  0  0  0
  -30.3223  -16.9797   21.0810 N   0  0  0  0  0  0  0  0  0  0  0  0
  -21.2197  -12.0072   21.9292 N   0  0  0  0  0  0  0  0  0  0  0  0
  -24.0256  -16.0939   18.9295 N   0  0  0  0  0  0  0  0  0  0  0  0
  -24.9746  -18.9461   20.9374 N   0  3  0  0  0  0  0  0  0  0  0  0
  -31.8458  -28.6349   22.3062 O   0  0  0  0  0  0  0  0  0  0  0  0
  -22.4718  -10.5965   20.5637 O   0  0  0  0  0  0  0  0  0  0  0  0
  -31.7567  -15.0371   19.9245 O   0  0  0  0  0  0  0  0  0  0  0  0
  -22.5644  -14.5821   20.5345 O   0  0  0  0  0  0  0  0  0  0  0  0
  -28.8786  -17.3158   25.5792 O   0  0  0  0  0  0  0  0  0  0  0  0
  -25.9244  -16.3950   20.2260 O   0  0  0  0  0  0  0  0  0  0  0  0
  -28.6894  -20.3316   18.1032 O   0  0  0  0  0  0  0  0  0  0  0  0
  -32.7753  -12.8301   20.9961 O   0  0  0  0  0  0  0  0  0  0  0  0
  -24.5450  -31.2840   21.7899 O   0  0  0  0  0  0  0  0  0  0  0  0
  -30.0249  -12.3422   21.3390 O   0  0  0  0  0  0  0  0  0  1  0  0
  -19.6253  -29.2227   23.1869 F   0  0  0  0  0  0  0  0  0  0  0  0
  -23.1620  -29.6228   20.0665 F   0  0  0  0  0  0  0  0  0  0  0  0
  -27.3910  -21.3114   22.8424 F   0  0  0  0  0  0  0  0  0  0  0  0
  1  2  1  0  0  0  0
  1  5  2  0  0  0  0
  2  6  2  0  0  0  0
  3  8  2  0  0  0  0
  3 17  1  0  0  0  0
  4  9  1  0  0  0  0
  4 17  2  0  0  0  0
  5 19  1  0  0  0  0
  6 21  1  0  0  0  0
  7 10  2  0  0  0  0
  7 20  1  0  0  0  0
  8 26  1  0  0  0  0
  9 26  2  0  0  0  0
 10 27  1  0  0  0  0
 11 12  2  0  0  0  0
 11 28  1  0  0  0  0
 12 29  1  0  0  0  0
 13 22  1  0  0  0  0
 13 27  2  0  0  0  0
 14 23  1  0  0  0  0
 14 24  2  0  0  0  0
 15 23  2  0  0  0  0
 15 25  1  0  0  0  0
 16 29  2  0  0  0  0
 16 30  1  0  0  0  0
 17 32  1  0  0  0  0
 18 32  1  0  0  0  0
 18 33  2  0  0  0  0
 18 34  1  0  0  0  0
 19 21  2  0  0  0  0
 19 41  1  0  0  0  0
 20 22  2  0  0  0  0
 20 42  1  0  0  0  0
 21 50  1  0  0  0  0
 22 43  1  0  0  0  0
 23 73  1  0  0  0  0
 24 31  1  0  0  0  0
 24 71  1  0  0  0  0
 25 31  2  0  0  0  0
 25 72  1  0  0  0  0
 26 85  1  0  0  0  0
 27 86  1  0  0  0  0
 28 30  2  0  0  0  0
 28 85  1  0  0  0  0
 29 87  1  0  0  0  0
 30 88  1  0  0  0  0
 31 89  1  0  0  0  0
 32 65  2  0  0  0  0
 33 66  1  0  0  0  0
 33 69  1  0  0  0  0
 34 70  1  0  0  0  0
 34 77  2  0  0  0  0
 35 51  1  0  0  0  0
 35 74  1  0  0  0  0
 35 78  2  0  0  0  0
 36 59  1  0  0  0  0
 36 61  1  0  0  0  0
 36 79  2  0  0  0  0
 37 62  1  0  0  0  0
 37 67  1  0  0  0  0
 37 80  2  0  0  0  0
 38 53  1  0  0  0  0
 38 71  1  0  0  0  0
 38 81  2  0  0  0  0
 39 63  1  0  0  0  0
 39 75  1  0  0  0  0
 39 82  2  0  0  0  0
 40 68  1  0  0  0  0
 40 72  1  0  0  0  0
 40 83  2  0  0  0  0
 41 44  1  0  0  0  0
 42 51  1  0  0  0  0
 43 67  1  0  0  0  0
 44 46  1  0  0  0  0
 45 47  1  0  0  0  0
 45 48  1  0  0  0  0
 46 50  1  0  0  0  0
 47 52  1  0  0  0  0
 48 68  1  0  0  0  0
 49 52  1  0  0  0  0
 49 68  1  0  0  0  0
 50 74  1  0  0  0  0
 51 67  1  0  0  0  0
 52 66  1  0  0  0  0
 54 63  1  0  0  0  0
 55 64  1  0  0  0  0
 56 64  1  0  0  0  0
 57 64  1  0  0  0  0
 58 76  1  0  0  0  0
 59 73  1  0  0  0  0
 60 61  1  0  0  0  0
 60 86  1  0  0  0  0
 61 84  1  0  0  0  0
 62 64  1  0  0  0  0
 62 75  1  0  0  0  0
 63 76  1  0  0  0  0
 65 66  1  0  0  0  0
M  CHG  1  76   1
M  ISO  4  40 100  60 101  72 100  86 101
M  END
> <Batch ID>
0168

> <Smiles>
CNC(C)C(=O)NC(C(=O)N1Cc2cc([101O:1][101CH2:1]C(O)C(=O)CNc3cc(NC(C)=O)c(F)c([100NH:0][100C:0](=O)N4CCCC(n5nc(-c6ccc(Oc7ccc(F)cc7F)cc6)c(C(N)=O)c5N)C4)c3)ccc2CC1C(=O)NC1CCCc2ccccc21)C(C)(C)C

> <Shape>
0.268

> <Color>
0.068

> <Negative vol penalty>
0.000

$$$$

  -OEChem-04052304143D

 85 93  0     1  0  0  0  0  0999 V2000
  -25.0921  -19.2831   24.5590 C   0  0  0  0  0  0  0  0  0  0  0  0
  -25.7506  -20.5059   24.4781 C   0  0  0  0  0  0  0  0  0  0  0  0
  -26.3431  -12.8193   21.5857 C   0  0  0  0  0  0  0  0  0  0  0  0
  -26.1266  -13.4795   19.2718 C   0  0  0  0  0  0  0  0  0  0  0  0
  -24.6059  -18.6766   23.4015 C   0  0  0  0  0  0  0  0  0  0  0  0
  -25.9244  -21.1224   23.2395 C   0  0  0  0  0  0  0  0  0  0  0  0
  -25.8814  -27.1361   22.0821 C   0  0  0  0  0  0  0  0  0  0  0  0
  -25.1144  -12.1631   21.5135 C   0  0  0  0  0  0  0  0  0  0  0  0
  -24.8978  -12.8232   19.1995 C   0  0  0  0  0  0  0  0  0  0  0  0
  -26.9062  -28.0665   21.9155 C   0  0  0  0  0  0  0  0  0  0  0  0
  -22.2043  -10.0084   21.8354 C   0  0  0  0  0  0  0  0  0  0  0  0
  -22.1167   -8.7326   22.3925 C   0  0  0  0  0  0  0  0  0  0  0  0
  -26.7609  -27.7896   19.5236 C   0  0  0  0  0  0  0  0  0  0  0  0
  -23.8336   -7.9547   20.8811 C   0  0  0  0  0  0  0  0  0  0  0  0
  -26.8492  -13.4775   20.4648 C   0  0  0  0  0  0  0  0  0  0  0  0
  -29.3887  -13.6150   20.2654 C   0  0  0  0  0  0  0  0  0  0  0  0
  -24.7653  -19.2906   22.1492 C   0  0  0  0  0  0  0  0  0  0  0  0
  -25.2951  -26.5162   20.9692 C   0  0  0  0  0  0  0  0  0  0  0  0
  -25.4411  -20.5229   22.0640 C   0  0  0  0  0  0  0  0  0  0  0  0
  -25.7270  -26.8535   19.6786 C   0  0  0  0  0  0  0  0  0  0  0  0
  -24.3918  -12.1650   20.3204 C   0  0  0  0  0  0  0  0  0  0  0  0
  -27.3481  -28.3913   20.6363 C   0  0  0  0  0  0  0  0  0  0  0  0
  -23.1065  -10.2573   20.8011 C   0  0  0  0  0  0  0  0  0  0  0  0
  -22.9313   -7.7058   21.9154 C   0  0  0  0  0  0  0  0  0  0  0  0
  -23.9211   -9.2305   20.3240 C   0  0  0  0  0  0  0  0  0  0  0  0
  -28.1182  -14.1560   20.5389 C   0  0  0  0  0  0  0  0  0  0  0  0
  -29.3482  -24.5755   18.2851 C   0  0  0  0  0  0  0  0  0  0  0  0
  -30.2586  -14.6559   20.4801 C   0  0  0  0  0  0  0  0  0  0  0  0
  -30.0081  -25.3465   19.2190 C   0  0  0  0  0  0  0  0  0  0  0  0
  -29.6968  -23.0300   19.8016 C   0  0  0  0  0  0  0  0  0  0  0  0
  -29.7502  -12.2899   19.8540 C   0  0  0  0  0  0  0  0  0  0  0  0
  -25.0594  -23.5194   19.9361 C   0  0  0  0  0  0  0  0  0  0  0  0
  -23.1432  -24.8574   17.6866 C   0  0  0  0  0  0  0  0  0  0  0  0
  -31.0446  -27.3926   20.2513 C   0  0  0  0  0  0  0  0  0  0  0  0
  -22.2502  -27.6406   15.9250 C   0  0  0  0  0  0  0  0  0  0  0  0
  -29.2265  -20.5695   20.1322 C   0  0  0  0  0  0  0  0  0  0  0  0
  -24.2644  -18.5740   20.9203 C   0  0  0  0  0  0  0  0  0  0  0  0
  -24.1724  -25.5344   21.1645 C   0  0  0  0  0  0  0  0  0  0  0  0
  -25.1166  -26.2314   18.4502 C   0  0  0  0  0  0  0  0  0  0  0  0
  -24.1596  -19.4731   19.6912 C   0  0  0  0  0  0  0  0  0  0  0  0
  -29.9397  -18.5593   23.3220 C   0  0  0  0  0  0  0  0  0  0  0  0
  -25.4239  -20.3120   19.5340 C   0  0  0  0  0  0  0  0  0  0  0  0
  -30.3464  -17.2271   22.6965 C   0  0  0  0  0  0  0  0  0  0  0  0
  -30.1284  -19.7287   22.3639 C   0  0  0  0  0  0  0  0  0  0  0  0
  -28.9397  -18.1885   20.7919 C   0  0  0  0  0  0  0  0  0  0  0  0
  -25.6273  -21.2348   20.7417 C   0  0  1  0  0  0  0  0  0  0  0  0
  -23.9990  -24.5828   19.9848 C   0  0  1  0  0  0  0  0  0  0  0  0
  -29.9567  -17.1148   21.2093 C   0  0  2  0  0  0  0  0  0  0  0  0
  -28.8266  -25.0428   16.9842 C   0  0  0  0  0  0  0  0  0  0  0  0
  -20.6770  -28.4150   14.1297 C   0  0  0  0  0  0  0  0  0  0  0  0
  -24.8939  -23.5168   15.5776 C   0  0  0  0  0  0  0  0  0  0  0  0
  -23.8950  -25.0534   13.8720 C   0  0  0  0  0  0  0  0  0  0  0  0
  -22.4405  -23.4403   15.0989 C   0  0  0  0  0  0  0  0  0  0  0  0
  -31.6995  -29.9364   22.1191 C   0  0  0  0  0  0  0  0  0  0  0  0
  -30.5247  -31.2637   20.3614 C   0  0  0  0  0  0  0  0  0  0  0  0
  -20.9425  -29.5749   17.7436 C   0  0  0  0  0  0  0  0  0  0  0  0
  -31.2546  -28.8627   19.9115 C   0  0  0  0  0  0  0  0  0  0  0  0
  -29.3196  -29.3919   21.5126 C   0  0  0  0  0  0  0  0  0  1  0  0
  -23.3586  -25.4562   16.3176 C   0  0  1  0  0  0  0  0  0  0  0  0
  -20.8928  -28.2510   15.6261 C   0  0  2  0  0  0  0  0  0  0  0  0
  -23.6600  -24.3771   15.2396 C   0  0  0  0  0  0  0  0  0  0  0  0
  -30.6848  -29.8543   20.9581 C   0  0  0  0  0  0  0  0  0  0  0  0
  -28.1717  -15.4408   20.9000 N   0  0  0  0  0  0  0  0  0  0  0  0
  -29.1691  -23.2468   18.6173 N   0  0  0  0  0  0  0  0  0  0  0  0
  -29.4864  -15.7158   20.8549 N   0  0  0  0  0  0  0  0  0  0  0  0
  -24.0263  -25.2725   18.6934 N   0  0  0  0  0  0  0  0  0  0  0  0
  -29.4440  -19.5368   21.0770 N   0  0  0  0  0  0  0  0  0  0  0  0
  -31.6012  -14.7588   20.3831 N   0  0  0  0  0  0  0  0  0  0  0  0
  -28.7316  -11.3431   19.6800 N   0  0  0  0  0  0  0  0  0  0  0  0
  -30.3719  -26.7138   19.2436 N   0  0  0  0  0  0  0  0  0  0  0  0
  -29.7379  -21.8101   20.5221 N   0  0  0  0  0  0  0  0  0  0  0  0
  -24.7484  -22.3813   20.6554 N   0  0  0  0  0  0  0  0  0  0  0  0
  -22.1794  -26.2681   16.0371 N   0  0  0  0  0  0  0  0  0  0  0  0
  -20.7749  -29.5910   16.2676 N   0  3  0  0  0  0  0  0  0  0  0  0
  -30.9427  -11.9510   19.6627 O   0  0  0  0  0  0  0  0  0  0  0  0
  -26.0833  -23.7163   19.2923 O   0  0  0  0  0  0  0  0  0  0  0  0
  -22.2208  -24.0565   17.8580 O   0  0  0  0  0  0  0  0  0  0  0  0
  -31.4484  -26.9381   21.3183 O   0  0  0  0  0  0  0  0  0  0  0  0
  -23.2717  -28.3136   16.0432 O   0  0  0  0  0  0  0  0  0  0  0  0
  -28.6466  -20.3594   19.0648 O   0  0  0  0  0  0  0  0  0  0  0  0
  -23.1928  -11.5246   20.2496 O   0  0  0  0  0  0  0  0  0  0  0  0
  -28.3486  -29.2987   20.4710 O   0  0  0  0  0  0  0  0  0  1  0  0
  -22.8482   -6.4812   22.4516 F   0  0  0  0  0  0  0  0  0  0  0  0
  -24.7906   -9.4639   19.3314 F   0  0  0  0  0  0  0  0  0  0  0  0
  -30.4243  -24.3794   20.5728 S   0  0  0  0  0  0  0  0  0  0  0  0
  1  2  1  0  0  0  0
  1  5  2  0  0  0  0
  2  6  2  0  0  0  0
  3  8  2  0  0  0  0
  3 15  1  0  0  0  0
  4  9  1  0  0  0  0
  4 15  2  0  0  0  0
  5 17  1  0  0  0  0
  6 19  1  0  0  0  0
  7 10  2  0  0  0  0
  7 18  1  0  0  0  0
  8 21  1  0  0  0  0
  9 21  2  0  0  0  0
 10 22  1  0  0  0  0
 11 12  2  0  0  0  0
 11 23  1  0  0  0  0
 12 24  1  0  0  0  0
 13 20  1  0  0  0  0
 13 22  2  0  0  0  0
 14 24  2  0  0  0  0
 14 25  1  0  0  0  0
 15 26  1  0  0  0  0
 16 26  1  0  0  0  0
 16 28  2  0  0  0  0
 16 31  1  0  0  0  0
 17 19  2  0  0  0  0
 17 37  1  0  0  0  0
 18 20  2  0  0  0  0
 18 38  1  0  0  0  0
 19 46  1  0  0  0  0
 20 39  1  0  0  0  0
 21 81  1  0  0  0  0
 22 82  1  0  0  0  0
 23 25  2  0  0  0  0
 23 81  1  0  0  0  0
 24 83  1  0  0  0  0
 25 84  1  0  0  0  0
 26 63  2  0  0  0  0
 27 29  2  0  0  0  0
 27 49  1  0  0  0  0
 27 64  1  0  0  0  0
 28 65  1  0  0  0  0
 28 68  1  0  0  0  0
 29 70  1  0  0  0  0
 29 85  1  0  0  0  0
 30 64  2  0  0  0  0
 30 71  1  0  0  0  0
 30 85  1  0  0  0  0
 31 69  1  0  0  0  0
 31 75  2  0  0  0  0
 32 47  1  0  0  0  0
 32 72  1  0  0  0  0
 32 76  2  0  0  0  0
 33 59  1  0  0  0  0
 33 66  1  0  0  0  0
 33 77  2  0  0  0  0
 34 57  1  0  0  0  0
 34 70  1  0  0  0  0
 34 78  2  0  0  0  0
 35 60  1  0  0  0  0
 35 73  1  0  0  0  0
 35 79  2  0  0  0  0
 36 67  1  0  0  0  0
 36 71  1  0  0  0  0
 36 80  2  0  0  0  0
 37 40  1  0  0  0  0
 38 47  1  0  0  0  0
 39 66  1  0  0  0  0
 40 42  1  0  0  0  0
 41 43  1  0  0  0  0
 41 44  1  0  0  0  0
 42 46  1  0  0  0  0
 43 48  1  0  0  0  0
 44 67  1  0  0  0  0
 45 48  1  0  0  0  0
 45 67  1  0  0  0  0
 46 72  1  0  0  0  0
 47 66  1  0  0  0  0
 48 65  1  0  0  0  0
 50 60  1  0  0  0  0
 51 61  1  0  0  0  0
 52 61  1  0  0  0  0
 53 61  1  0  0  0  0
 54 62  1  0  0  0  0
 55 62  1  0  0  0  0
 56 74  1  0  0  0  0
 57 62  1  0  0  0  0
 58 62  1  0  0  0  0
 58 82  1  0  0  0  0
 59 61  1  0  0  0  0
 59 73  1  0  0  0  0
 60 74  1  0  0  0  0
 63 65  1  0  0  0  0
M  CHG  1  74   1
M  ISO  4  36 100  58 101  71 100  82 101
M  END
> <Batch ID>
0168

> <Smiles>
CNC(C)C(=O)NC(C(=O)N1Cc2cc([101O:1][101CH2:1]C(C)(C)CC(=O)Nc3sc([100NH:0][100C:0](=O)N4CCCC(n5nc(-c6ccc(Oc7ccc(F)cc7F)cc6)c(C(N)=O)c5N)C4)nc3C)ccc2CC1C(=O)NC1CCCc2ccccc21)C(C)(C)C

> <Shape>
0.230

> <Color>
0.074

> <Negative vol penalty>
0.000

$$$$

  -OEChem-04052304143D

 84 92  0     1  0  0  0  0  0999 V2000
  -19.7049  -13.9829   26.7806 C   0  0  0  0  0  0  0  0  0  0  0  0
  -20.6987  -14.9276   26.5457 C   0  0  0  0  0  0  0  0  0  0  0  0
  -23.0752   -9.8691   19.9405 C   0  0  0  0  0  0  0  0  0  0  0  0
  -23.8349   -9.8750   22.2340 C   0  0  0  0  0  0  0  0  0  0  0  0
  -18.3656  -14.3703   26.7945 C   0  0  0  0  0  0  0  0  0  0  0  0
  -20.3537  -16.2603   26.3235 C   0  0  0  0  0  0  0  0  0  0  0  0
  -23.2887  -19.4826   28.9018 C   0  0  0  0  0  0  0  0  0  0  0  0
  -32.0648  -16.6062   22.5519 C   0  0  0  0  0  0  0  0  0  0  0  0
  -22.3309   -8.7161   20.1901 C   0  0  0  0  0  0  0  0  0  0  0  0
  -23.0905   -8.7221   22.4836 C   0  0  0  0  0  0  0  0  0  0  0  0
  -24.5608  -19.7341   28.3899 C   0  0  0  0  0  0  0  0  0  0  0  0
  -19.8620   -7.9253   23.0856 C   0  0  0  0  0  0  0  0  0  0  0  0
  -32.6526  -17.4898   23.4571 C   0  0  0  0  0  0  0  0  0  0  0  0
  -19.1050   -7.8853   24.2564 C   0  0  0  0  0  0  0  0  0  0  0  0
  -23.7625  -21.8019   27.4381 C   0  0  0  0  0  0  0  0  0  0  0  0
  -29.8810  -17.4552   23.1413 C   0  0  0  0  0  0  0  0  0  0  0  0
  -20.3456   -5.9472   24.9923 C   0  0  0  0  0  0  0  0  0  0  0  0
  -23.8273  -10.4485   20.9625 C   0  0  0  0  0  0  0  0  0  0  0  0
  -24.1701  -12.9736   20.8433 C   0  0  0  0  0  0  0  0  0  0  0  0
  -18.0046  -15.7102   26.5820 C   0  0  0  0  0  0  0  0  0  0  0  0
  -22.2394  -20.3851   28.6761 C   0  0  0  0  0  0  0  0  0  0  0  0
  -19.0083  -16.6658   26.3333 C   0  0  0  0  0  0  0  0  0  0  0  0
  -22.4785  -21.5608   27.9504 C   0  0  0  0  0  0  0  0  0  0  0  0
  -30.6790  -16.5889   22.3940 C   0  0  0  0  0  0  0  0  0  0  0  0
  -30.4688  -18.3388   24.0465 C   0  0  0  0  0  0  0  0  0  0  0  0
  -22.3385   -8.1426   21.4616 C   0  0  0  0  0  0  0  0  0  0  0  0
  -24.7972  -20.8925   27.6555 C   0  0  0  0  0  0  0  0  0  0  0  0
  -20.8608   -6.9762   22.8680 C   0  0  0  0  0  0  0  0  0  0  0  0
  -19.3467   -6.8963   25.2098 C   0  0  0  0  0  0  0  0  0  0  0  0
  -31.8546  -18.3561   24.2044 C   0  0  0  0  0  0  0  0  0  0  0  0
  -21.1026   -5.9872   23.8214 C   0  0  0  0  0  0  0  0  0  0  0  0
  -24.5968  -11.6392   20.7052 C   0  0  0  0  0  0  0  0  0  0  0  0
  -25.2626  -13.7227   20.4803 C   0  0  0  0  0  0  0  0  0  0  0  0
  -26.5700  -20.2361   26.2781 C   0  0  0  0  0  0  0  0  0  1  0  0
  -22.8998  -13.4897   21.2623 C   0  0  0  0  0  0  0  0  0  0  0  0
  -27.7803  -20.3791   25.7246 C   0  0  0  0  0  0  0  0  0  0  0  0
  -28.2736  -19.3304   24.7732 C   0  0  0  0  0  0  0  0  0  0  0  0
  -19.4287  -20.2332   27.1994 C   0  0  0  0  0  0  0  0  0  0  0  0
  -19.0624  -23.2139   28.4257 C   0  0  0  0  0  0  0  0  0  0  0  0
  -20.5272  -26.0562   29.6183 C   0  0  0  0  0  0  0  0  0  0  0  0
  -30.7292  -14.7661   20.6558 C   0  0  0  0  0  0  0  0  0  0  0  0
  -16.5409  -16.0728   26.5594 C   0  0  0  0  0  0  0  0  0  0  0  0
  -20.8794  -20.1123   29.2578 C   0  0  0  0  0  0  0  0  0  0  0  0
  -21.3909  -22.5716   27.6972 C   0  0  0  0  0  0  0  0  0  0  0  0
  -16.2827  -17.5719   26.6870 C   0  0  0  0  0  0  0  0  0  0  0  0
  -29.6140  -12.3535   18.2867 C   0  0  0  0  0  0  0  0  0  0  0  0
  -17.2021  -18.3532   25.7536 C   0  0  0  0  0  0  0  0  0  0  0  0
  -28.1742  -12.0623   18.7160 C   0  0  0  0  0  0  0  0  0  0  0  0
  -30.5291  -12.5816   19.4885 C   0  0  0  0  0  0  0  0  0  0  0  0
  -28.6223  -13.3063   20.8698 C   0  0  0  0  0  0  0  0  0  0  0  0
  -18.6754  -18.1255   26.1126 C   0  0  1  0  0  0  0  0  0  0  0  0
  -19.7593  -20.8489   28.5295 C   0  0  1  0  0  0  0  0  0  0  0  0
  -27.6495  -13.1338   19.6919 C   0  0  2  0  0  0  0  0  0  0  0  0
  -19.9696  -28.3348   30.5096 C   0  0  0  0  0  0  0  0  0  0  0  0
  -18.4405  -24.1666   25.5945 C   0  0  0  0  0  0  0  0  0  0  0  0
  -18.8323  -26.5136   26.3730 C   0  0  0  0  0  0  0  0  0  0  0  0
  -16.9896  -25.1612   27.3721 C   0  0  0  0  0  0  0  0  0  0  0  0
  -21.8120  -25.4796   32.2213 C   0  0  0  0  0  0  0  0  0  0  0  0
  -19.3874  -24.6109   27.9550 C   0  0  1  0  0  0  0  0  0  0  0  0
  -20.2562  -26.8834   30.8620 C   0  0  2  0  0  0  0  0  0  0  0  0
  -18.4327  -25.0933   26.8266 C   0  0  0  0  0  0  0  0  0  0  0  0
  -25.8617  -11.5430   20.2870 N   0  0  0  0  0  0  0  0  0  0  0  0
  -26.2391  -12.8264   20.1591 N   0  0  0  0  0  0  0  0  0  0  0  0
  -20.0767  -22.2567   28.2813 N   0  0  0  0  0  0  0  0  0  0  0  0
  -29.9705  -13.6123   20.3661 N   0  0  0  0  0  0  0  0  0  0  0  0
  -25.4735  -15.0541   20.4078 N   0  0  0  0  0  0  0  0  0  0  0  0
  -21.8875  -12.5808   21.5992 N   0  0  0  0  0  0  0  0  0  0  0  0
  -29.6568  -19.2173   24.8036 N   0  0  0  0  0  0  0  0  0  0  0  0
  -30.0821  -15.6912   21.4744 N   0  0  0  0  0  0  0  0  0  0  0  0
  -19.0398  -18.9093   27.2734 N   0  0  0  0  0  0  0  0  0  0  0  0
  -19.3802  -25.4547   29.1451 N   0  0  0  0  0  0  0  0  0  0  0  0
  -21.4328  -26.8452   31.7759 N   0  3  0  0  0  0  0  0  0  0  0  0
  -22.6640  -14.7204   21.3200 O   0  0  0  0  0  0  0  0  0  0  0  0
  -27.4902  -18.6881   24.0821 O   0  0  0  0  0  0  0  0  0  0  0  0
  -19.5182  -20.9096   26.1815 O   0  0  0  0  0  0  0  0  0  0  0  0
  -17.9520  -22.9821   28.9104 O   0  0  0  0  0  0  0  0  0  0  0  0
  -21.6438  -25.9568   29.1146 O   0  0  0  0  0  0  0  0  0  0  0  0
  -31.8584  -14.9346   20.1883 O   0  0  0  0  0  0  0  0  0  0  0  0
  -28.5967  -21.4587   25.9939 O   0  0  0  0  0  0  0  0  0  0  0  0
  -21.6121   -7.0177   21.7055 O   0  0  0  0  0  0  0  0  0  0  0  0
  -26.0379  -21.1401   27.1541 O   0  0  0  0  0  0  0  0  0  1  0  0
  -18.6207   -6.8589   26.3348 F   0  0  0  0  0  0  0  0  0  0  0  0
  -32.4307  -19.2006   25.0715 F   0  0  0  0  0  0  0  0  0  0  0  0
  -22.0616   -5.0734   23.6186 F   0  0  0  0  0  0  0  0  0  0  0  0
  1  2  1  0  0  0  0
  1  5  2  0  0  0  0
  2  6  2  0  0  0  0
  3  9  2  0  0  0  0
  3 18  1  0  0  0  0
  4 10  1  0  0  0  0
  4 18  2  0  0  0  0
  5 20  1  0  0  0  0
  6 22  1  0  0  0  0
  7 11  2  0  0  0  0
  7 21  1  0  0  0  0
  8 13  2  0  0  0  0
  8 24  1  0  0  0  0
  9 26  1  0  0  0  0
 10 26  2  0  0  0  0
 11 27  1  0  0  0  0
 12 14  2  0  0  0  0
 12 28  1  0  0  0  0
 13 30  1  0  0  0  0
 14 29  1  0  0  0  0
 15 23  1  0  0  0  0
 15 27  2  0  0  0  0
 16 24  2  0  0  0  0
 16 25  1  0  0  0  0
 17 29  2  0  0  0  0
 17 31  1  0  0  0  0
 18 32  1  0  0  0  0
 19 32  1  0  0  0  0
 19 33  2  0  0  0  0
 19 35  1  0  0  0  0
 20 22  2  0  0  0  0
 20 42  1  0  0  0  0
 21 23  2  0  0  0  0
 21 43  1  0  0  0  0
 22 51  1  0  0  0  0
 23 44  1  0  0  0  0
 24 69  1  0  0  0  0
 25 30  2  0  0  0  0
 25 68  1  0  0  0  0
 26 80  1  0  0  0  0
 27 81  1  0  0  0  0
 28 31  2  0  0  0  0
 28 80  1  0  0  0  0
 29 82  1  0  0  0  0
 30 83  1  0  0  0  0
 31 84  1  0  0  0  0
 32 62  2  0  0  0  0
 33 63  1  0  0  0  0
 33 66  1  0  0  0  0
 34 36  2  0  0  0  0
 34 81  1  0  0  0  0
 35 67  1  0  0  0  0
 35 73  2  0  0  0  0
 36 37  1  0  0  0  0
 36 79  1  0  0  0  0
 37 68  1  0  0  0  0
 37 74  2  0  0  0  0
 38 52  1  0  0  0  0
 38 70  1  0  0  0  0
 38 75  2  0  0  0  0
 39 59  1  0  0  0  0
 39 64  1  0  0  0  0
 39 76  2  0  0  0  0
 40 60  1  0  0  0  0
 40 71  1  0  0  0  0
 40 77  2  0  0  0  0
 41 65  1  0  0  0  0
 41 69  1  0  0  0  0
 41 78  2  0  0  0  0
 42 45  1  0  0  0  0
 43 52  1  0  0  0  0
 44 64  1  0  0  0  0
 45 47  1  0  0  0  0
 46 48  1  0  0  0  0
 46 49  1  0  0  0  0
 47 51  1  0  0  0  0
 48 53  1  0  0  0  0
 49 65  1  0  0  0  0
 50 53  1  0  0  0  0
 50 65  1  0  0  0  0
 51 70  1  0  0  0  0
 52 64  1  0  0  0  0
 53 63  1  0  0  0  0
 54 60  1  0  0  0  0
 55 61  1  0  0  0  0
 56 61  1  0  0  0  0
 57 61  1  0  0  0  0
 58 72  1  0  0  0  0
 59 61  1  0  0  0  0
 59 71  1  0  0  0  0
 60 72  1  0  0  0  0
 62 63  1  0  0  0  0
M  CHG  1  72   1
M  ISO  4  34 101  41 100  69 100  81 101
M  END
> <Batch ID>
0168

> <Smiles>
CNC(C)C(=O)NC(C(=O)N1Cc2cc([101O:1][101CH2:1]C(=O)C(=O)Nc3cc([100NH:0][100C:0](=O)N4CCCC(n5nc(-c6ccc(Oc7ccc(F)cc7F)cc6)c(C(N)=O)c5N)C4)ccc3F)ccc2CC1C(=O)NC1CCCc2ccccc21)C(C)(C)C

> <Shape>
0.165

> <Color>
0.188

> <Negative vol penalty>
0.000

$$$$

  -OEChem-04052304143D

 92100  0     1  0  0  0  0  0999 V2000
  -27.8457  -33.1559   26.9675 C   0  0  0  0  0  0  0  0  0  0  0  0
  -28.1299  -32.1909   26.0066 C   0  0  0  0  0  0  0  0  0  0  0  0
  -22.7856  -11.9720   22.7108 C   0  0  0  0  0  0  0  0  0  0  0  0
  -22.0511  -13.2293   20.7829 C   0  0  0  0  0  0  0  0  0  0  0  0
  -27.3243  -21.0818   16.9136 C   0  0  0  0  0  0  0  0  0  0  0  0
  -26.5473  -33.2883   27.4582 C   0  0  0  0  0  0  0  0  0  0  0  0
  -27.1160  -31.3569   25.5365 C   0  0  0  0  0  0  0  0  0  0  0  0
  -27.1986  -30.8479   20.4988 C   0  0  0  0  0  0  0  0  0  0  0  0
  -21.4991  -12.0402   23.2454 C   0  0  0  0  0  0  0  0  0  0  0  0
  -20.7646  -13.2976   21.3175 C   0  0  0  0  0  0  0  0  0  0  0  0
  -28.1501  -29.9818   19.9618 C   0  0  0  0  0  0  0  0  0  0  0  0
  -19.1373  -15.0976   23.6718 C   0  0  0  0  0  0  0  0  0  0  0  0
  -27.1532  -19.8763   16.2332 C   0  0  0  0  0  0  0  0  0  0  0  0
  -18.4830  -16.3288   23.6311 C   0  0  0  0  0  0  0  0  0  0  0  0
  -26.4604  -28.2750   19.7362 C   0  0  0  0  0  0  0  0  0  0  0  0
  -16.7193  -15.3476   22.3030 C   0  0  0  0  0  0  0  0  0  0  0  0
  -23.0616  -12.5666   21.4796 C   0  0  0  0  0  0  0  0  0  0  0  0
  -27.7336  -21.0781   18.2471 C   0  0  0  0  0  0  0  0  0  0  0  0
  -24.9074  -11.4991   20.0791 C   0  0  0  0  0  0  0  0  0  0  0  0
  -25.5151  -32.4619   26.9868 C   0  0  0  0  0  0  0  0  0  0  0  0
  -25.8710  -30.4296   20.6689 C   0  0  0  0  0  0  0  0  0  0  0  0
  -25.8029  -31.4774   26.0223 C   0  0  0  0  0  0  0  0  0  0  0  0
  -25.4934  -29.1385   20.2732 C   0  0  0  0  0  0  0  0  0  0  0  0
  -27.8005  -18.6632   18.2199 C   0  0  0  0  0  0  0  0  0  0  0  0
  -20.4886  -12.7030   22.5488 C   0  0  0  0  0  0  0  0  0  0  0  0
  -27.7817  -28.6942   19.5831 C   0  0  0  0  0  0  0  0  0  0  0  0
  -18.5826  -13.9914   23.0281 C   0  0  0  0  0  0  0  0  0  0  0  0
  -17.2740  -16.4538   22.9467 C   0  0  0  0  0  0  0  0  0  0  0  0
  -27.3912  -18.6670   16.8863 C   0  0  0  0  0  0  0  0  0  0  0  0
  -17.3737  -14.1164   22.3437 C   0  0  0  0  0  0  0  0  0  0  0  0
  -27.9717  -19.8688   18.9002 C   0  0  0  0  0  0  0  0  0  0  0  0
  -24.3905  -12.4969   20.9270 C   0  0  0  0  0  0  0  0  0  0  0  0
  -26.2023  -11.8893   19.8392 C   0  0  0  0  0  0  0  0  0  0  0  0
  -27.9129  -22.3554   18.9629 C   0  0  0  0  0  0  0  0  0  0  0  0
  -24.2737  -10.3246   19.5551 C   0  0  0  0  0  0  0  0  0  0  0  0
  -23.9384  -30.0587   23.1651 C   0  0  0  0  0  0  0  0  0  0  0  0
  -30.3834  -26.6036   20.2509 C   0  0  0  0  0  0  0  0  0  0  0  0
  -21.7284  -29.4513   20.8695 C   0  0  0  0  0  0  0  0  0  0  0  0
  -28.6053  -25.4833   18.8231 C   0  0  0  0  0  0  0  0  0  0  0  0
  -21.0692  -28.4323   17.6799 C   0  0  0  0  0  0  0  0  0  0  0  0
  -28.9475  -17.1961   19.9164 C   0  0  0  0  0  0  0  0  0  0  0  0
  -24.1371  -32.6108   27.5816 C   0  0  0  0  0  0  0  0  0  0  0  0
  -24.8507  -31.3849   21.2248 C   0  0  0  0  0  0  0  0  0  0  0  0
  -24.0767  -28.6477   20.4162 C   0  0  0  0  0  0  0  0  0  0  0  0
  -23.0422  -31.9378   26.7579 C   0  0  0  0  0  0  0  0  0  0  0  0
  -29.8106  -14.3241   21.8357 C   0  0  0  0  0  0  0  0  0  0  0  0
  -23.4696  -30.5317   26.3492 C   0  0  0  0  0  0  0  0  0  0  0  0
  -28.5679  -13.4361   21.7383 C   0  0  0  0  0  0  0  0  0  0  0  0
  -29.4445  -15.8052   21.9147 C   0  0  0  0  0  0  0  0  0  0  0  0
  -27.3124  -15.3946   20.7509 C   0  0  0  0  0  0  0  0  0  0  0  0
  -24.7250  -30.5704   25.4695 C   0  0  1  0  0  0  0  0  0  0  0  0
  -23.6403  -30.6806   21.8302 C   0  0  1  0  0  0  0  0  0  0  0  0
  -27.6327  -13.8981   20.6036 C   0  0  2  0  0  0  0  0  0  0  0  0
  -30.8006  -25.4267   21.0951 C   0  0  0  0  0  0  0  0  0  0  0  0
  -19.1648  -28.0017   16.1034 C   0  0  0  0  0  0  0  0  0  0  0  0
  -25.2080  -22.9845   20.2644 C   0  0  0  0  0  0  0  0  0  0  0  0
  -24.7125  -24.5055   18.3353 C   0  0  0  0  0  0  0  0  0  0  0  0
  -21.1170  -26.8403   22.3252 C   0  0  0  0  0  0  0  0  0  0  0  0
  -19.9501  -26.0426   20.2587 C   0  0  0  0  0  0  0  0  0  0  0  0
  -19.1046  -28.0534   21.4690 C   0  0  0  0  0  0  0  0  0  0  0  0
  -22.0285  -30.4853   15.7762 C   0  0  0  0  0  0  0  0  0  0  0  0
  -27.0504  -23.5608   18.5640 C   0  0  1  0  0  0  0  0  0  0  0  0
  -28.9437  -26.6269   19.7617 C   0  0  2  0  0  0  0  0  0  1  0  0
  -21.2519  -28.2159   20.1445 C   0  0  1  0  0  0  0  0  0  0  0  0
  -20.1806  -29.0196   16.5982 C   0  0  2  0  0  0  0  0  0  0  0  0
  -25.5471  -23.3100   18.8058 C   0  0  0  0  0  0  0  0  0  0  0  0
  -20.3831  -27.2964   21.0483 C   0  0  0  0  0  0  0  0  0  0  0  0
  -25.2842  -13.4493   21.2071 N   0  0  0  0  0  0  0  0  0  0  0  0
  -26.3756  -13.0516   20.5314 N   0  0  0  0  0  0  0  0  0  0  0  0
  -23.1170  -29.6168   20.9708 N   0  0  0  0  0  0  0  0  0  0  0  0
  -28.5606  -16.1716   20.8060 N   0  0  0  0  0  0  0  0  0  0  0  0
  -27.1981  -11.3480   19.1059 N   0  0  0  0  0  0  0  0  0  0  0  0
  -22.9388  -10.0747   19.9015 N   0  0  0  0  0  0  0  0  0  0  0  0
  -28.0424  -17.4345   18.8827 N   0  0  0  0  0  0  0  0  0  0  0  0
  -24.3828  -30.9562   24.1172 N   0  0  0  0  0  0  0  0  0  0  0  0
  -27.5532  -24.7083   19.2834 N   0  0  0  0  0  0  0  0  0  0  0  0
  -20.5731  -28.6851   18.9413 N   0  0  0  0  0  0  0  0  0  0  0  0
  -21.0027  -29.4654   15.4379 N   0  3  0  0  0  0  0  0  0  0  0  0
  -28.7253  -22.4743   19.8845 O   0  0  0  0  0  0  0  0  0  0  0  0
  -24.8784   -9.5120   18.8152 O   0  0  0  0  0  0  0  0  0  0  0  0
  -23.7756  -28.8541   23.3203 O   0  0  0  0  0  0  0  0  0  0  0  0
  -31.1812  -27.5025   19.9837 O   0  0  0  0  0  0  0  0  0  0  0  0
  -20.8992  -30.2440   21.3230 O   0  0  0  0  0  0  0  0  0  0  0  0
  -29.2213  -25.2940   17.7762 O   0  0  0  0  0  0  0  0  0  0  0  0
  -22.0983  -27.8084   17.4306 O   0  0  0  0  0  0  0  0  0  0  0  0
  -30.0168  -17.7979   20.0452 O   0  0  0  0  0  0  0  0  0  0  0  0
  -19.2330  -12.7696   23.0701 O   0  0  0  0  0  0  0  0  0  0  0  0
  -28.7086  -27.8466   19.0594 O   0  0  0  0  0  0  0  0  0  1  0  0
  -16.6451  -17.6358   22.9089 F   0  0  0  0  0  0  0  0  0  0  0  0
  -27.2234  -17.5146   16.2223 F   0  0  0  0  0  0  0  0  0  0  0  0
  -16.8353  -13.0569   21.7244 F   0  0  0  0  0  0  0  0  0  0  0  0
  -28.3653  -19.8655   20.1830 F   0  0  0  0  0  0  0  0  0  0  0  0
  1  2  1  0  0  0  0
  1  6  2  0  0  0  0
  2  7  2  0  0  0  0
  3  9  2  0  0  0  0
  3 17  1  0  0  0  0
  4 10  1  0  0  0  0
  4 17  2  0  0  0  0
  5 13  2  0  0  0  0
  5 18  1  0  0  0  0
  6 20  1  0  0  0  0
  7 22  1  0  0  0  0
  8 11  2  0  0  0  0
  8 21  1  0  0  0  0
  9 25  1  0  0  0  0
 10 25  2  0  0  0  0
 11 26  1  0  0  0  0
 12 14  2  0  0  0  0
 12 27  1  0  0  0  0
 13 29  1  0  0  0  0
 14 28  1  0  0  0  0
 15 23  1  0  0  0  0
 15 26  2  0  0  0  0
 16 28  2  0  0  0  0
 16 30  1  0  0  0  0
 17 32  1  0  0  0  0
 18 31  2  0  0  0  0
 18 34  1  0  0  0  0
 19 32  1  0  0  0  0
 19 33  2  0  0  0  0
 19 35  1  0  0  0  0
 20 22  2  0  0  0  0
 20 42  1  0  0  0  0
 21 23  2  0  0  0  0
 21 43  1  0  0  0  0
 22 51  1  0  0  0  0
 23 44  1  0  0  0  0
 24 29  2  0  0  0  0
 24 31  1  0  0  0  0
 24 74  1  0  0  0  0
 25 87  1  0  0  0  0
 26 88  1  0  0  0  0
 27 30  2  0  0  0  0
 27 87  1  0  0  0  0
 28 89  1  0  0  0  0
 29 90  1  0  0  0  0
 30 91  1  0  0  0  0
 31 92  1  0  0  0  0
 32 68  2  0  0  0  0
 33 69  1  0  0  0  0
 33 72  1  0  0  0  0
 34 62  1  0  0  0  0
 34 79  2  0  0  0  0
 35 73  1  0  0  0  0
 35 80  2  0  0  0  0
 36 52  1  0  0  0  0
 36 75  1  0  0  0  0
 36 81  2  0  0  0  0
 37 54  1  0  0  0  0
 37 63  1  0  0  0  0
 37 82  2  0  0  0  0
 38 64  1  0  0  0  0
 38 70  1  0  0  0  0
 38 83  2  0  0  0  0
 39 63  1  0  0  0  0
 39 76  1  0  0  0  0
 39 84  2  0  0  0  0
 40 65  1  0  0  0  0
 40 77  1  0  0  0  0
 40 85  2  0  0  0  0
 41 71  1  0  0  0  0
 41 74  1  0  0  0  0
 41 86  2  0  0  0  0
 42 45  1  0  0  0  0
 43 52  1  0  0  0  0
 44 70  1  0  0  0  0
 45 47  1  0  0  0  0
 46 48  1  0  0  0  0
 46 49  1  0  0  0  0
 47 51  1  0  0  0  0
 48 53  1  0  0  0  0
 49 71  1  0  0  0  0
 50 53  1  0  0  0  0
 50 71  1  0  0  0  0
 51 75  1  0  0  0  0
 52 70  1  0  0  0  0
 53 69  1  0  0  0  0
 55 65  1  0  0  0  0
 56 66  1  0  0  0  0
 57 66  1  0  0  0  0
 58 67  1  0  0  0  0
 59 67  1  0  0  0  0
 60 67  1  0  0  0  0
 61 78  1  0  0  0  0
 62 66  1  0  0  0  0
 62 76  1  0  0  0  0
 63 88  1  0  0  0  0
 64 67  1  0  0  0  0
 64 77  1  0  0  0  0
 65 78  1  0  0  0  0
 68 69  1  0  0  0  0
M  CHG  1  78   1
M  ISO  4  41 100  63 101  74 100  88 101
M  END
> <Batch ID>
0168

> <Smiles>
CNC(C)C(=O)NC(C(=O)N1Cc2cc([101O:1][101CH:1](C(C)=O)C(=O)NC(C(=O)c3ccc(F)c([100NH:0][100C:0](=O)N4CCCC(n5nc(-c6ccc(Oc7ccc(F)cc7F)cc6)c(C(N)=O)c5N)C4)c3F)C(C)C)ccc2CC1C(=O)NC1CCCc2ccccc21)C(C)(C)C

> <Shape>
0.302

> <Color>
0.074

> <Negative vol penalty>
0.000

$$$$

  -OEChem-04052304143D

 85 93  0     1  0  0  0  0  0999 V2000
  -17.5978  -32.0845   19.9744 C   0  0  0  0  0  0  0  0  0  0  0  0
  -18.9246  -32.0501   19.5574 C   0  0  0  0  0  0  0  0  0  0  0  0
  -26.6447  -12.4823   21.5793 C   0  0  0  0  0  0  0  0  0  0  0  0
  -26.1962  -13.4120   19.3950 C   0  0  0  0  0  0  0  0  0  0  0  0
  -17.2731  -31.7566   21.2900 C   0  0  0  0  0  0  0  0  0  0  0  0
  -19.9276  -31.6886   20.4562 C   0  0  0  0  0  0  0  0  0  0  0  0
  -25.0438  -28.5648   19.2023 C   0  0  0  0  0  0  0  0  0  0  0  0
  -25.3773  -11.8999   21.5917 C   0  0  0  0  0  0  0  0  0  0  0  0
  -24.9288  -12.8296   19.4073 C   0  0  0  0  0  0  0  0  0  0  0  0
  -26.3566  -28.9707   18.9664 C   0  0  0  0  0  0  0  0  0  0  0  0
  -23.8695   -9.1867   20.2509 C   0  0  0  0  0  0  0  0  0  0  0  0
  -23.7696   -7.8604   20.6712 C   0  0  0  0  0  0  0  0  0  0  0  0
  -26.8924  -28.5633   21.2829 C   0  0  0  0  0  0  0  0  0  0  0  0
  -29.6368  -22.9030   19.3573 C   0  0  0  0  0  0  0  0  0  0  0  0
  -22.2967   -8.5389   22.4622 C   0  0  0  0  0  0  0  0  0  0  0  0
  -31.0727  -23.7164   21.0699 C   0  0  0  0  0  0  0  0  0  0  0  0
  -27.0542  -13.2384   20.4810 C   0  0  0  0  0  0  0  0  0  0  0  0
  -29.5554  -13.2724   19.9809 C   0  0  0  0  0  0  0  0  0  0  0  0
  -18.2715  -31.3816   22.2028 C   0  0  0  0  0  0  0  0  0  0  0  0
  -24.6420  -28.1649   20.4849 C   0  0  0  0  0  0  0  0  0  0  0  0
  -19.6160  -31.3566   21.7856 C   0  0  0  0  0  0  0  0  0  0  0  0
  -25.5746  -28.1504   21.5319 C   0  0  0  0  0  0  0  0  0  0  0  0
  -30.3868  -22.6551   20.5015 C   0  0  0  0  0  0  0  0  0  0  0  0
  -24.5194  -12.0736   20.5057 C   0  0  0  0  0  0  0  0  0  0  0  0
  -27.2804  -28.9727   20.0074 C   0  0  0  0  0  0  0  0  0  0  0  0
  -23.1831  -10.1891   20.9363 C   0  0  0  0  0  0  0  0  0  0  0  0
  -22.9832   -7.5365   21.7768 C   0  0  0  0  0  0  0  0  0  0  0  0
  -29.5961  -24.1864   18.8240 C   0  0  0  0  0  0  0  0  0  0  0  0
  -22.3967   -9.8652   22.0419 C   0  0  0  0  0  0  0  0  0  0  0  0
  -28.3630  -13.8407   20.4678 C   0  0  0  0  0  0  0  0  0  0  0  0
  -30.3171  -25.1792   19.4676 C   0  0  0  0  0  0  0  0  0  0  0  0
  -30.5085  -14.2380   20.1952 C   0  0  0  0  0  0  0  0  0  0  0  0
  -29.7814  -11.9868   19.3878 C   0  0  0  0  0  0  0  0  0  0  0  0
  -22.5188  -29.2210   22.6016 C   0  0  0  0  0  0  0  0  0  0  0  0
  -23.3753  -26.5405   24.2152 C   0  0  0  0  0  0  0  0  0  0  0  0
  -25.7226  -24.1310   24.7908 C   0  0  0  0  0  0  0  0  0  0  0  0
  -30.9092  -27.6287   19.3880 C   0  0  0  0  0  0  0  0  0  0  0  0
  -29.8162  -20.1962   20.6152 C   0  0  0  0  0  0  0  0  0  0  0  0
  -17.8772  -31.0814   23.6272 C   0  0  0  0  0  0  0  0  0  0  0  0
  -23.2290  -27.7044   20.7170 C   0  0  0  0  0  0  0  0  0  0  0  0
  -25.1988  -27.7108   22.9226 C   0  0  0  0  0  0  0  0  0  0  0  0
  -18.9576  -30.3464   24.4163 C   0  0  0  0  0  0  0  0  0  0  0  0
  -30.7760  -17.8026   23.4566 C   0  0  0  0  0  0  0  0  0  0  0  0
  -20.3170  -31.0039   24.2001 C   0  0  0  0  0  0  0  0  0  0  0  0
  -31.0208  -16.5321   22.6459 C   0  0  0  0  0  0  0  0  0  0  0  0
  -30.9225  -19.0629   22.6133 C   0  0  0  0  0  0  0  0  0  0  0  0
  -29.4608  -17.7726   21.0466 C   0  0  0  0  0  0  0  0  0  0  0  0
  -20.7295  -30.9456   22.7244 C   0  0  1  0  0  0  0  0  0  0  0  0
  -22.7993  -27.8072   22.1772 C   0  0  1  0  0  0  0  0  0  0  0  0
  -30.4506  -16.6095   21.2158 C   0  0  2  0  0  0  0  0  0  0  0  0
  -26.1527  -22.0949   26.1932 C   0  0  0  0  0  0  0  0  0  0  0  0
  -31.1061  -28.6485   17.0904 C   0  0  0  0  0  0  0  0  0  0  0  0
  -31.3203  -30.1174   19.1284 C   0  0  0  0  0  0  0  0  0  0  0  0
  -23.9412  -28.3233   26.6258 C   0  0  0  0  0  0  0  0  0  0  0  0
  -25.2332  -26.4307   27.6343 C   0  0  0  0  0  0  0  0  0  0  0  0
  -22.7968  -26.1670   27.1688 C   0  0  0  0  0  0  0  0  0  0  0  0
  -25.9507  -22.3939   22.4056 C   0  0  0  0  0  0  0  0  0  0  0  0
  -29.0898  -29.1431   18.4735 C   0  0  0  0  0  0  0  0  0  1  0  0
  -24.4307  -26.2007   25.2398 C   0  0  1  0  0  0  0  0  0  0  0  0
  -25.6154  -22.6189   24.8705 C   0  0  2  0  0  0  0  0  0  0  0  0
  -30.6149  -28.8879   18.5291 C   0  0  0  0  0  0  0  0  0  0  0  0
  -24.1074  -26.7906   26.6415 C   0  0  0  0  0  0  0  0  0  0  0  0
  -31.0571  -24.9765   20.5807 N   0  0  0  0  0  0  0  0  0  0  0  0
  -28.5398  -15.0717   20.9549 N   0  0  0  0  0  0  0  0  0  0  0  0
  -29.8545  -15.2849   20.7753 N   0  0  0  0  0  0  0  0  0  0  0  0
  -23.8037  -27.2755   23.1007 N   0  0  0  0  0  0  0  0  0  0  0  0
  -30.0792  -19.0531   21.4091 N   0  0  0  0  0  0  0  0  0  0  0  0
  -31.8337  -14.2851   19.9424 N   0  0  0  0  0  0  0  0  0  0  0  0
  -28.6918  -11.1174   19.2422 N   0  0  0  0  0  0  0  0  0  0  0  0
  -30.4473  -21.3576   21.0687 N   0  0  0  0  0  0  0  0  0  0  0  0
  -30.2717  -26.4839   18.9183 N   0  0  0  0  0  0  0  0  0  0  0  0
  -21.2147  -29.6245   22.3870 N   0  0  0  0  0  0  0  0  0  0  0  0
  -24.5666  -24.7483   25.2196 N   0  0  0  0  0  0  0  0  0  0  0  0
  -26.3889  -21.9858   23.7651 N   0  3  0  0  0  0  0  0  0  0  0  0
  -30.9189  -11.6136   19.0134 O   0  0  0  0  0  0  0  0  0  0  0  0
  -23.4184  -29.8953   23.0891 O   0  0  0  0  0  0  0  0  0  0  0  0
  -22.2151  -26.1613   24.3935 O   0  0  0  0  0  0  0  0  0  0  0  0
  -26.7324  -24.7071   24.3920 O   0  0  0  0  0  0  0  0  0  0  0  0
  -31.6326  -27.6929   20.3803 O   0  0  0  0  0  0  0  0  0  0  0  0
  -29.1013  -20.1381   19.6125 O   0  0  0  0  0  0  0  0  0  0  0  0
  -23.2827  -11.5053   20.5174 O   0  0  0  0  0  0  0  0  0  0  0  0
  -28.5622  -29.3690   19.7801 O   0  0  0  0  0  0  0  0  0  1  0  0
  -22.8861   -6.2627   22.1793 F   0  0  0  0  0  0  0  0  0  0  0  0
  -28.8801  -24.4392   17.7210 F   0  0  0  0  0  0  0  0  0  0  0  0
  -21.7340  -10.8237   22.7036 F   0  0  0  0  0  0  0  0  0  0  0  0
  1  2  1  0  0  0  0
  1  5  2  0  0  0  0
  2  6  2  0  0  0  0
  3  8  2  0  0  0  0
  3 17  1  0  0  0  0
  4  9  1  0  0  0  0
  4 17  2  0  0  0  0
  5 19  1  0  0  0  0
  6 21  1  0  0  0  0
  7 10  2  0  0  0  0
  7 20  1  0  0  0  0
  8 24  1  0  0  0  0
  9 24  2  0  0  0  0
 10 25  1  0  0  0  0
 11 12  2  0  0  0  0
 11 26  1  0  0  0  0
 12 27  1  0  0  0  0
 13 22  1  0  0  0  0
 13 25  2  0  0  0  0
 14 23  2  0  0  0  0
 14 28  1  0  0  0  0
 15 27  2  0  0  0  0
 15 29  1  0  0  0  0
 16 23  1  0  0  0  0
 16 63  2  0  0  0  0
 17 30  1  0  0  0  0
 18 30  1  0  0  0  0
 18 32  2  0  0  0  0
 18 33  1  0  0  0  0
 19 21  2  0  0  0  0
 19 39  1  0  0  0  0
 20 22  2  0  0  0  0
 20 40  1  0  0  0  0
 21 48  1  0  0  0  0
 22 41  1  0  0  0  0
 23 70  1  0  0  0  0
 24 81  1  0  0  0  0
 25 82  1  0  0  0  0
 26 29  2  0  0  0  0
 26 81  1  0  0  0  0
 27 83  1  0  0  0  0
 28 31  2  0  0  0  0
 28 84  1  0  0  0  0
 29 85  1  0  0  0  0
 30 64  2  0  0  0  0
 31 63  1  0  0  0  0
 31 71  1  0  0  0  0
 32 65  1  0  0  0  0
 32 68  1  0  0  0  0
 33 69  1  0  0  0  0
 33 75  2  0  0  0  0
 34 49  1  0  0  0  0
 34 72  1  0  0  0  0
 34 76  2  0  0  0  0
 35 59  1  0  0  0  0
 35 66  1  0  0  0  0
 35 77  2  0  0  0  0
 36 60  1  0  0  0  0
 36 73  1  0  0  0  0
 36 78  2  0  0  0  0
 37 61  1  0  0  0  0
 37 71  1  0  0  0  0
 37 79  2  0  0  0  0
 38 67  1  0  0  0  0
 38 70  1  0  0  0  0
 38 80  2  0  0  0  0
 39 42  1  0  0  0  0
 40 49  1  0  0  0  0
 41 66  1  0  0  0  0
 42 44  1  0  0  0  0
 43 45  1  0  0  0  0
 43 46  1  0  0  0  0
 44 48  1  0  0  0  0
 45 50  1  0  0  0  0
 46 67  1  0  0  0  0
 47 50  1  0  0  0  0
 47 67  1  0  0  0  0
 48 72  1  0  0  0  0
 49 66  1  0  0  0  0
 50 65  1  0  0  0  0
 51 60  1  0  0  0  0
 52 61  1  0  0  0  0
 53 61  1  0  0  0  0
 54 62  1  0  0  0  0
 55 62  1  0  0  0  0
 56 62  1  0  0  0  0
 57 74  1  0  0  0  0
 58 61  1  0  0  0  0
 58 82  1  0  0  0  0
 59 62  1  0  0  0  0
 59 73  1  0  0  0  0
 60 74  1  0  0  0  0
 64 65  1  0  0  0  0
M  CHG  1  74   1
M  ISO  4  38 100  58 101  70 100  82 101
M  END
> <Batch ID>
0168

> <Smiles>
CNC(C)C(=O)NC(C(=O)N1Cc2cc([101O:1][101CH2:1]C(C)(C)C(=O)Nc3ncc([100NH:0][100C:0](=O)N4CCCC(n5nc(-c6ccc(Oc7ccc(F)cc7F)cc6)c(C(N)=O)c5N)C4)cc3F)ccc2CC1C(=O)NC1CCCc2ccccc21)C(C)(C)C

> <Shape>
0.277

> <Color>
0.106

> <Negative vol penalty>
0.000

$$$$

  -OEChem-04052304143D

 90 98  0     1  0  0  0  0  0999 V2000
  -15.1695  -27.5827   21.5899 C   0  0  0  0  0  0  0  0  0  0  0  0
  -16.1324  -26.5816   21.5138 C   0  0  0  0  0  0  0  0  0  0  0  0
  -23.1389   -9.8216   21.2145 C   0  0  0  0  0  0  0  0  0  0  0  0
  -23.8801  -10.5781   23.3860 C   0  0  0  0  0  0  0  0  0  0  0  0
  -15.4612  -28.7810   22.2403 C   0  0  0  0  0  0  0  0  0  0  0  0
  -17.3882  -26.7785   22.0872 C   0  0  0  0  0  0  0  0  0  0  0  0
  -20.9110  -22.5525   24.7772 C   0  0  0  0  0  0  0  0  0  0  0  0
  -22.4298   -8.7832   21.8183 C   0  0  0  0  0  0  0  0  0  0  0  0
  -23.1710   -9.5397   23.9898 C   0  0  0  0  0  0  0  0  0  0  0  0
  -21.9988  -21.8095   24.3208 C   0  0  0  0  0  0  0  0  0  0  0  0
  -20.7165   -5.7183   22.7642 C   0  0  0  0  0  0  0  0  0  0  0  0
  -20.8197   -4.4468   22.2002 C   0  0  0  0  0  0  0  0  0  0  0  0
  -31.6148  -19.5029   22.5463 C   0  0  0  0  0  0  0  0  0  0  0  0
  -23.5029  -23.4227   25.2978 C   0  0  0  0  0  0  0  0  0  0  0  0
  -31.8883  -17.3270   21.5326 C   0  0  0  0  0  0  0  0  0  0  0  0
  -23.2059   -4.4728   22.5780 C   0  0  0  0  0  0  0  0  0  0  0  0
  -23.8640  -10.7190   21.9983 C   0  0  0  0  0  0  0  0  0  0  0  0
  -30.2312  -19.3939   22.4070 C   0  0  0  0  0  0  0  0  0  0  0  0
  -24.1269  -13.0863   21.0848 C   0  0  0  0  0  0  0  0  0  0  0  0
  -16.7179  -28.9890   22.8303 C   0  0  0  0  0  0  0  0  0  0  0  0
  -21.1112  -23.7439   25.4892 C   0  0  0  0  0  0  0  0  0  0  0  0
  -17.6975  -27.9812   22.7449 C   0  0  0  0  0  0  0  0  0  0  0  0
  -22.4159  -24.1776   25.7644 C   0  0  0  0  0  0  0  0  0  0  0  0
  -30.5046  -17.2180   21.3933 C   0  0  0  0  0  0  0  0  0  0  0  0
  -22.4458   -8.6422   23.2059 C   0  0  0  0  0  0  0  0  0  0  0  0
  -23.2950  -22.2460   24.5786 C   0  0  0  0  0  0  0  0  0  0  0  0
  -21.8581   -6.3672   23.2350 C   0  0  0  0  0  0  0  0  0  0  0  0
  -22.0643   -3.8240   22.1071 C   0  0  0  0  0  0  0  0  0  0  0  0
  -32.4433  -18.4694   22.1091 C   0  0  0  0  0  0  0  0  0  0  0  0
  -23.1027   -5.7444   23.1419 C   0  0  0  0  0  0  0  0  0  0  0  0
  -29.6761  -18.2515   21.8305 C   0  0  0  0  0  0  0  0  0  0  0  0
  -24.5972  -11.7916   21.3752 C   0  0  0  0  0  0  0  0  0  0  0  0
  -25.1977  -13.7175   20.5004 C   0  0  0  0  0  0  0  0  0  0  0  0
  -29.3570  -20.4897   22.8715 C   0  0  0  0  0  0  0  0  0  0  0  0
  -22.8375  -13.6667   21.3223 C   0  0  0  0  0  0  0  0  0  0  0  0
  -20.3671  -26.7966   25.0081 C   0  0  0  0  0  0  0  0  0  0  0  0
  -26.3414  -21.5291   22.7440 C   0  0  0  0  0  0  0  0  0  0  0  0
  -21.5528  -27.1537   28.0063 C   0  0  0  0  0  0  0  0  0  0  0  0
  -23.5910  -25.9726   30.4756 C   0  0  0  0  0  0  0  0  0  0  0  0
  -30.6266  -14.9414   20.3216 C   0  0  0  0  0  0  0  0  0  0  0  0
  -17.0029  -30.3192   23.4815 C   0  0  0  0  0  0  0  0  0  0  0  0
  -19.9273  -24.5199   25.9977 C   0  0  0  0  0  0  0  0  0  0  0  0
  -22.6848  -25.4392   26.5419 C   0  0  0  0  0  0  0  0  0  0  0  0
  -18.2307  -30.3028   24.3884 C   0  0  0  0  0  0  0  0  0  0  0  0
  -29.6076  -11.8677   18.8413 C   0  0  0  0  0  0  0  0  0  0  0  0
  -19.3985  -29.6099   23.6933 C   0  0  0  0  0  0  0  0  0  0  0  0
  -28.1746  -11.6804   19.3447 C   0  0  0  0  0  0  0  0  0  0  0  0
  -30.5056  -12.4943   19.9065 C   0  0  0  0  0  0  0  0  0  0  0  0
  -28.5659  -13.5562   20.9925 C   0  0  0  0  0  0  0  0  0  0  0  0
  -19.0628  -28.1477   23.3760 C   0  0  1  0  0  0  0  0  0  0  0  0
  -20.2461  -25.9871   26.2682 C   0  0  1  0  0  0  0  0  0  0  0  0
  -27.6083  -12.9879   19.9324 C   0  0  2  0  0  0  0  0  0  0  0  0
  -24.3810  -26.5000   32.7983 C   0  0  0  0  0  0  0  0  0  0  0  0
  -23.3880  -29.3195   26.8877 C   0  0  0  0  0  0  0  0  0  0  0  0
  -24.7659  -29.1293   28.9694 C   0  0  0  0  0  0  0  0  0  0  0  0
  -22.3828  -29.8519   29.1149 C   0  0  0  0  0  0  0  0  0  0  0  0
  -22.4684  -23.4554   31.5538 C   0  0  0  0  0  0  0  0  0  0  0  0
  -25.5496  -22.2445   23.8217 C   0  0  0  0  0  0  0  0  0  1  0  0
  -27.6429  -22.1794   22.3202 C   0  0  2  0  0  0  0  0  0  0  0  0
  -22.9158  -27.4368   28.5903 C   0  0  1  0  0  0  0  0  0  0  0  0
  -23.3543  -25.7553   31.9592 C   0  0  2  0  0  0  0  0  0  0  0  0
  -23.3584  -28.9116   28.3742 C   0  0  0  0  0  0  0  0  0  0  0  0
  -27.4645  -23.0674   21.1125 C   0  0  0  0  0  0  0  0  0  0  0  0
  -25.8677  -11.6095   21.0055 N   0  0  0  0  0  0  0  0  0  0  0  0
  -26.2049  -12.7981   20.4768 N   0  0  0  0  0  0  0  0  0  0  0  0
  -21.4943  -26.1664   27.0125 N   0  0  0  0  0  0  0  0  0  0  0  0
  -29.9075  -13.7310   20.4142 N   0  0  0  0  0  0  0  0  0  0  0  0
  -25.3665  -14.9636   20.0094 N   0  0  0  0  0  0  0  0  0  0  0  0
  -21.8522  -12.8785   21.9324 N   0  0  0  0  0  0  0  0  0  0  0  0
  -29.9439  -16.0563   20.8070 N   0  0  0  0  0  0  0  0  0  0  0  0
  -28.5621  -21.0981   21.9787 N   0  0  0  0  0  0  0  0  0  0  0  0
  -19.1727  -27.3339   24.5676 N   0  0  0  0  0  0  0  0  0  0  0  0
  -22.8525  -27.0310   29.9901 N   0  0  0  0  0  0  0  0  0  0  0  0
  -29.4013  -20.8251   24.1609 N   0  3  0  0  0  0  0  0  0  0  0  0
  -23.4395  -24.3048   32.2904 N   0  3  0  0  0  0  0  0  0  0  0  0
  -22.5621  -14.8439   20.9880 O   0  0  0  0  0  0  0  0  0  0  0  0
  -21.4634  -26.9254   24.4758 O   0  0  0  0  0  0  0  0  0  0  0  0
  -25.9371  -20.4836   22.2344 O   0  0  0  0  0  0  0  0  0  0  0  0
  -20.5748  -27.7803   28.4218 O   0  0  0  0  0  0  0  0  0  0  0  0
  -24.3575  -25.2756   29.8143 O   0  0  0  0  0  0  0  0  0  0  0  0
  -31.7535  -14.9901   19.8217 O   0  0  0  0  0  0  0  0  0  0  0  0
  -21.7539   -7.6292   23.7954 O   0  0  0  0  0  0  0  0  0  0  0  0
  -24.3586  -21.5230   24.1336 O   0  0  0  0  0  0  0  0  0  1  0  0
  -22.1630   -2.6023   21.5669 F   0  0  0  0  0  0  0  0  0  0  0  0
  -33.7718  -18.5740   22.2430 F   0  0  0  0  0  0  0  0  0  0  0  0
  -24.2027   -6.3623   23.5936 F   0  0  0  0  0  0  0  0  0  0  0  0
  -28.3452  -18.1482   21.6969 F   0  0  0  0  0  0  0  0  0  0  0  0
  -28.6430  -23.5845   20.7031 F   0  0  0  0  0  0  0  0  0  0  0  0
  -26.6271  -24.0956   21.3667 F   0  0  0  0  0  0  0  0  0  0  0  0
  -26.9525  -22.3671   20.0753 F   0  0  0  0  0  0  0  0  0  0  0  0
  1  2  1  0  0  0  0
  1  5  2  0  0  0  0
  2  6  2  0  0  0  0
  3  8  2  0  0  0  0
  3 17  1  0  0  0  0
  4  9  1  0  0  0  0
  4 17  2  0  0  0  0
  5 20  1  0  0  0  0
  6 22  1  0  0  0  0
  7 10  2  0  0  0  0
  7 21  1  0  0  0  0
  8 25  1  0  0  0  0
  9 25  2  0  0  0  0
 10 26  1  0  0  0  0
 11 12  2  0  0  0  0
 11 27  1  0  0  0  0
 12 28  1  0  0  0  0
 13 18  1  0  0  0  0
 13 29  2  0  0  0  0
 14 23  1  0  0  0  0
 14 26  2  0  0  0  0
 15 24  2  0  0  0  0
 15 29  1  0  0  0  0
 16 28  2  0  0  0  0
 16 30  1  0  0  0  0
 17 32  1  0  0  0  0
 18 31  2  0  0  0  0
 18 34  1  0  0  0  0
 19 32  1  0  0  0  0
 19 33  2  0  0  0  0
 19 35  1  0  0  0  0
 20 22  2  0  0  0  0
 20 41  1  0  0  0  0
 21 23  2  0  0  0  0
 21 42  1  0  0  0  0
 22 50  1  0  0  0  0
 23 43  1  0  0  0  0
 24 31  1  0  0  0  0
 24 70  1  0  0  0  0
 25 82  1  0  0  0  0
 26 83  1  0  0  0  0
 27 30  2  0  0  0  0
 27 82  1  0  0  0  0
 28 84  1  0  0  0  0
 29 85  1  0  0  0  0
 30 86  1  0  0  0  0
 31 87  1  0  0  0  0
 32 64  2  0  0  0  0
 33 65  1  0  0  0  0
 33 68  1  0  0  0  0
 34 71  1  0  0  0  0
 34 74  2  0  0  0  0
 35 69  1  0  0  0  0
 35 76  2  0  0  0  0
 36 51  1  0  0  0  0
 36 72  1  0  0  0  0
 36 77  2  0  0  0  0
 37 58  1  0  0  0  0
 37 59  1  0  0  0  0
 37 78  2  0  0  0  0
 38 60  1  0  0  0  0
 38 66  1  0  0  0  0
 38 79  2  0  0  0  0
 39 61  1  0  0  0  0
 39 73  1  0  0  0  0
 39 80  2  0  0  0  0
 40 67  1  0  0  0  0
 40 70  1  0  0  0  0
 40 81  2  0  0  0  0
 41 44  1  0  0  0  0
 42 51  1  0  0  0  0
 43 66  1  0  0  0  0
 44 46  1  0  0  0  0
 45 47  1  0  0  0  0
 45 48  1  0  0  0  0
 46 50  1  0  0  0  0
 47 52  1  0  0  0  0
 48 67  1  0  0  0  0
 49 52  1  0  0  0  0
 49 67  1  0  0  0  0
 50 72  1  0  0  0  0
 51 66  1  0  0  0  0
 52 65  1  0  0  0  0
 53 61  1  0  0  0  0
 54 62  1  0  0  0  0
 55 62  1  0  0  0  0
 56 62  1  0  0  0  0
 57 75  1  0  0  0  0
 58 83  1  0  0  0  0
 59 63  1  0  0  0  0
 59 71  1  0  0  0  0
 60 62  1  0  0  0  0
 60 73  1  0  0  0  0
 61 75  1  0  0  0  0
 63 88  1  0  0  0  0
 63 89  1  0  0  0  0
 63 90  1  0  0  0  0
 64 65  1  0  0  0  0
M  CHG  2  74   1  75   1
M  ISO  4  40 100  58 101  70 100  83 101
M  END
> <Batch ID>
0168

> <Smiles>
CNC(C)C(=O)NC(C(=O)N1Cc2cc([101O:1][101CH2:1]C(=O)C(NC(=N)c3cc(F)cc([100NH:0][100C:0](=O)N4CCCC(n5nc(-c6ccc(Oc7ccc(F)cc7F)cc6)c(C(N)=O)c5N)C4)c3F)C(F)(F)F)ccc2CC1C(=O)NC1CCCc2ccccc21)C(C)(C)C

> <Shape>
0.234

> <Color>
0.168

> <Negative vol penalty>
0.000

$$$$

  -OEChem-04052304143D

 86 94  0     1  0  0  0  0  0999 V2000
  -24.6522  -25.5215   10.8663 C   0  0  0  0  0  0  0  0  0  0  0  0
  -24.8915  -25.7966   12.2089 C   0  0  0  0  0  0  0  0  0  0  0  0
  -23.1030   -9.8604   21.4081 C   0  0  0  0  0  0  0  0  0  0  0  0
  -23.8613  -10.7008   23.5425 C   0  0  0  0  0  0  0  0  0  0  0  0
  -24.7862  -24.2187   10.3882 C   0  0  0  0  0  0  0  0  0  0  0  0
  -25.2638  -24.7687   13.0744 C   0  0  0  0  0  0  0  0  0  0  0  0
  -29.0957  -25.1709   17.8347 C   0  0  0  0  0  0  0  0  0  0  0  0
  -22.3811   -8.8597   22.0585 C   0  0  0  0  0  0  0  0  0  0  0  0
  -23.1393   -9.7001   24.1930 C   0  0  0  0  0  0  0  0  0  0  0  0
  -28.8783  -25.3136   19.2045 C   0  0  0  0  0  0  0  0  0  0  0  0
  -20.6275   -5.8640   23.1422 C   0  0  0  0  0  0  0  0  0  0  0  0
  -20.7110   -4.5676   22.6343 C   0  0  0  0  0  0  0  0  0  0  0  0
  -29.0778  -22.9252   19.4787 C   0  0  0  0  0  0  0  0  0  0  0  0
  -23.0984   -4.5762   23.0049 C   0  0  0  0  0  0  0  0  0  0  0  0
  -31.9486  -17.2525   21.3775 C   0  0  0  0  0  0  0  0  0  0  0  0
  -23.8431  -10.7809   22.1501 C   0  0  0  0  0  0  0  0  0  0  0  0
  -24.1367  -13.1018   21.1329 C   0  0  0  0  0  0  0  0  0  0  0  0
  -25.1697  -23.1760   11.2463 C   0  0  0  0  0  0  0  0  0  0  0  0
  -29.2953  -23.9012   17.2742 C   0  0  0  0  0  0  0  0  0  0  0  0
  -25.4017  -23.4504   12.6077 C   0  0  0  0  0  0  0  0  0  0  0  0
  -29.3001  -22.7694   18.1020 C   0  0  0  0  0  0  0  0  0  0  0  0
  -29.7992  -18.2338   21.6488 C   0  0  0  0  0  0  0  0  0  0  0  0
  -30.5731  -17.1517   21.2447 C   0  0  0  0  0  0  0  0  0  0  0  0
  -30.4156  -19.3677   22.1660 C   0  0  0  0  0  0  0  0  0  0  0  0
  -22.3993   -8.7795   23.4510 C   0  0  0  0  0  0  0  0  0  0  0  0
  -28.8664  -24.1904   20.0263 C   0  0  0  0  0  0  0  0  0  0  0  0
  -21.7795   -6.5165   23.5813 C   0  0  0  0  0  0  0  0  0  0  0  0
  -21.9464   -3.9236   22.5657 C   0  0  0  0  0  0  0  0  0  0  0  0
  -23.0149   -5.8726   23.5128 C   0  0  0  0  0  0  0  0  0  0  0  0
  -24.5895  -11.8145   21.4787 C   0  0  0  0  0  0  0  0  0  0  0  0
  -31.7982  -19.3693   22.2578 C   0  0  0  0  0  0  0  0  0  0  0  0
  -25.2146  -13.6914   20.5188 C   0  0  0  0  0  0  0  0  0  0  0  0
  -22.8564  -13.7104   21.3476 C   0  0  0  0  0  0  0  0  0  0  0  0
  -27.7589  -22.1298   15.1281 C   0  0  0  0  0  0  0  0  0  0  0  0
  -30.3191  -20.1706   15.4874 C   0  0  0  0  0  0  0  0  0  0  0  0
  -30.0655  -21.8281   22.5760 C   0  0  0  0  0  0  0  0  0  0  0  0
  -32.9080  -19.1158   17.4449 C   0  0  0  0  0  0  0  0  0  0  0  0
  -30.6597  -14.8288   20.2737 C   0  0  0  0  0  0  0  0  0  0  0  0
  -25.2556  -21.7754   10.6936 C   0  0  0  0  0  0  0  0  0  0  0  0
  -29.5552  -23.7668   15.7988 C   0  0  0  0  0  0  0  0  0  0  0  0
  -29.5296  -21.3860   17.5525 C   0  0  0  0  0  0  0  0  0  0  0  0
  -26.0181  -20.8097   11.5970 C   0  0  0  0  0  0  0  0  0  0  0  0
  -29.5930  -11.7079   18.9322 C   0  0  0  0  0  0  0  0  0  0  0  0
  -25.5558  -20.9540   13.0435 C   0  0  0  0  0  0  0  0  0  0  0  0
  -28.1589  -11.5633   19.4467 C   0  0  0  0  0  0  0  0  0  0  0  0
  -30.5029  -12.3678   19.9668 C   0  0  0  0  0  0  0  0  0  0  0  0
  -28.5816  -13.5038   21.0096 C   0  0  0  0  0  0  0  0  0  0  0  0
  -25.8316  -22.3667   13.5725 C   0  0  1  0  0  0  0  0  0  0  0  0
  -29.2353  -22.3759   15.2600 C   0  0  1  0  0  0  0  0  0  0  0  0
  -27.6130  -12.9033   19.9778 C   0  0  2  0  0  0  0  0  0  0  0  0
  -27.8408  -18.3979   20.0918 C   0  0  0  0  0  0  0  0  0  0  0  0
  -34.8063  -17.4750   17.4845 C   0  0  0  0  0  0  0  0  0  0  0  0
  -26.7065  -23.7407   22.6305 C   0  0  0  0  0  0  0  0  0  0  0  0
  -28.3513  -17.9116   16.0657 C   0  0  0  0  0  0  0  0  0  0  0  0
  -30.2555  -16.5882   17.0096 C   0  0  0  0  0  0  0  0  0  0  0  0
  -30.2800  -17.2678   14.6096 C   0  0  0  0  0  0  0  0  0  0  0  0
  -34.9220  -21.2742   17.6545 C   0  0  0  0  0  0  0  0  0  0  0  0
  -28.3082  -18.1790   21.5261 C   0  0  0  0  0  0  0  0  0  0  0  0
  -28.9544  -22.7198   23.1218 C   0  0  0  0  0  0  0  0  0  0  0  0
  -30.6619  -19.0152   16.3965 C   0  0  1  0  0  0  0  0  0  0  0  0
  -34.3776  -18.8921   17.1369 C   0  0  2  0  0  0  0  0  0  0  0  0
  -28.0154  -23.2405   22.0337 C   0  0  2  0  0  0  0  0  0  1  0  0
  -29.8809  -17.7214   16.0307 C   0  0  0  0  0  0  0  0  0  0  0  0
  -32.5834  -18.3373   21.8755 N   0  0  0  0  0  0  0  0  0  0  0  0
  -25.8562  -11.5982   21.1144 N   0  0  0  0  0  0  0  0  0  0  0  0
  -26.2086  -12.7576   20.5332 N   0  0  0  0  0  0  0  0  0  0  0  0
  -29.7729  -21.3059   16.1028 N   0  0  0  0  0  0  0  0  0  0  0  0
  -29.9238  -13.6340   20.4211 N   0  0  0  0  0  0  0  0  0  0  0  0
  -25.3996  -14.9123   19.9731 N   0  0  0  0  0  0  0  0  0  0  0  0
  -21.8618  -12.9638   21.9940 N   0  0  0  0  0  0  0  0  0  0  0  0
  -29.6698  -20.4932   22.5899 N   0  0  0  0  0  0  0  0  0  0  0  0
  -29.9943  -15.9735   20.7113 N   0  0  0  0  0  0  0  0  0  0  0  0
  -27.2308  -22.5154   13.9108 N   0  0  0  0  0  0  0  0  0  0  0  0
  -32.1128  -18.8719   16.3452 N   0  0  0  0  0  0  0  0  0  0  0  0
  -35.2206  -19.8426   17.9160 N   0  3  0  0  0  0  0  0  0  0  0  0
  -22.5967  -14.8756   20.9626 O   0  0  0  0  0  0  0  0  0  0  0  0
  -27.1447  -21.6260   16.0612 O   0  0  0  0  0  0  0  0  0  0  0  0
  -30.5349  -20.0723   14.2769 O   0  0  0  0  0  0  0  0  0  0  0  0
  -31.1383  -22.2819   22.1920 O   0  0  0  0  0  0  0  0  0  0  0  0
  -32.5054  -19.4678   18.5515 O   0  0  0  0  0  0  0  0  0  0  0  0
  -31.7857  -14.8394   19.7696 O   0  0  0  0  0  0  0  0  0  0  0  0
  -21.6948   -7.8033   24.0860 O   0  0  0  0  0  0  0  0  0  0  0  0
  -28.6537  -24.3267   21.3634 O   0  0  0  0  0  0  0  0  0  1  0  0
  -22.0262   -2.6781   22.0794 F   0  0  0  0  0  0  0  0  0  0  0  0
  -24.1249   -6.4940   23.9343 F   0  0  0  0  0  0  0  0  0  0  0  0
  -32.4180  -20.4528   22.7544 F   0  0  0  0  0  0  0  0  0  0  0  0
  1  2  1  0  0  0  0
  1  5  2  0  0  0  0
  2  6  2  0  0  0  0
  3  8  2  0  0  0  0
  3 16  1  0  0  0  0
  4  9  1  0  0  0  0
  4 16  2  0  0  0  0
  5 18  1  0  0  0  0
  6 20  1  0  0  0  0
  7 10  2  0  0  0  0
  7 19  1  0  0  0  0
  8 25  1  0  0  0  0
  9 25  2  0  0  0  0
 10 26  1  0  0  0  0
 11 12  2  0  0  0  0
 11 27  1  0  0  0  0
 12 28  1  0  0  0  0
 13 21  1  0  0  0  0
 13 26  2  0  0  0  0
 14 28  2  0  0  0  0
 14 29  1  0  0  0  0
 15 23  2  0  0  0  0
 15 64  1  0  0  0  0
 16 30  1  0  0  0  0
 17 30  1  0  0  0  0
 17 32  2  0  0  0  0
 17 33  1  0  0  0  0
 18 20  2  0  0  0  0
 18 39  1  0  0  0  0
 19 21  2  0  0  0  0
 19 40  1  0  0  0  0
 20 48  1  0  0  0  0
 21 41  1  0  0  0  0
 22 23  1  0  0  0  0
 22 24  2  0  0  0  0
 22 58  1  0  0  0  0
 23 72  1  0  0  0  0
 24 31  1  0  0  0  0
 24 71  1  0  0  0  0
 25 82  1  0  0  0  0
 26 83  1  0  0  0  0
 27 29  2  0  0  0  0
 27 82  1  0  0  0  0
 28 84  1  0  0  0  0
 29 85  1  0  0  0  0
 30 65  2  0  0  0  0
 31 64  2  0  0  0  0
 31 86  1  0  0  0  0
 32 66  1  0  0  0  0
 32 69  1  0  0  0  0
 33 70  1  0  0  0  0
 33 76  2  0  0  0  0
 34 49  1  0  0  0  0
 34 73  1  0  0  0  0
 34 77  2  0  0  0  0
 35 60  1  0  0  0  0
 35 67  1  0  0  0  0
 35 78  2  0  0  0  0
 36 59  1  0  0  0  0
 36 71  1  0  0  0  0
 36 79  2  0  0  0  0
 37 61  1  0  0  0  0
 37 74  1  0  0  0  0
 37 80  2  0  0  0  0
 38 68  1  0  0  0  0
 38 72  1  0  0  0  0
 38 81  2  0  0  0  0
 39 42  1  0  0  0  0
 40 49  1  0  0  0  0
 41 67  1  0  0  0  0
 42 44  1  0  0  0  0
 43 45  1  0  0  0  0
 43 46  1  0  0  0  0
 44 48  1  0  0  0  0
 45 50  1  0  0  0  0
 46 68  1  0  0  0  0
 47 50  1  0  0  0  0
 47 68  1  0  0  0  0
 48 73  1  0  0  0  0
 49 67  1  0  0  0  0
 50 66  1  0  0  0  0
 51 58  1  0  0  0  0
 52 61  1  0  0  0  0
 53 62  1  0  0  0  0
 54 63  1  0  0  0  0
 55 63  1  0  0  0  0
 56 63  1  0  0  0  0
 57 75  1  0  0  0  0
 59 62  1  0  0  0  0
 60 63  1  0  0  0  0
 60 74  1  0  0  0  0
 61 75  1  0  0  0  0
 62 83  1  0  0  0  0
 65 66  1  0  0  0  0
M  CHG  1  75   1
M  ISO  4  38 100  62 101  72 100  83 101
M  END
> <Batch ID>
0168

> <Smiles>
CCc1c([100NH:0][100C:0](=O)N2CCCC(n3nc(-c4ccc(Oc5ccc(F)cc5F)cc4)c(C(N)=O)c3N)C2)cnc(F)c1NC(=O)C[101CH:1](C)[101O:1]c1ccc2c(c1)CN(C(=O)C(NC(=O)C(C)NC)C(C)(C)C)C(C(=O)NC1CCCc3ccccc31)C2

> <Shape>
0.212

> <Color>
0.147

> <Negative vol penalty>
0.000

$$$$

  -OEChem-04052304143D

 86 94  0     1  0  0  0  0  0999 V2000
  -16.5629  -29.0236   22.9286 C   0  0  0  0  0  0  0  0  0  0  0  0
  -16.3242  -27.9043   22.1376 C   0  0  0  0  0  0  0  0  0  0  0  0
  -28.6107  -23.6446   21.5632 C   0  0  0  0  0  0  0  0  0  0  0  0
  -29.6174  -23.4023   19.3804 C   0  0  0  0  0  0  0  0  0  0  0  0
  -17.8613  -29.3208   23.3404 C   0  0  0  0  0  0  0  0  0  0  0  0
  -17.3842  -27.0821   21.7571 C   0  0  0  0  0  0  0  0  0  0  0  0
  -18.9071  -20.2222   20.3642 C   0  0  0  0  0  0  0  0  0  0  0  0
  -28.3164  -24.9782   21.2795 C   0  0  0  0  0  0  0  0  0  0  0  0
  -29.3230  -24.7359   19.0966 C   0  0  0  0  0  0  0  0  0  0  0  0
  -19.4865  -19.4266   19.3768 C   0  0  0  0  0  0  0  0  0  0  0  0
  -25.9949  -26.6973   19.5222 C   0  0  0  0  0  0  0  0  0  0  0  0
  -24.7213  -27.1636   19.8480 C   0  0  0  0  0  0  0  0  0  0  0  0
  -21.6768  -19.9940   20.2132 C   0  0  0  0  0  0  0  0  0  0  0  0
  -23.5258  -15.3321   19.6443 C   0  0  0  0  0  0  0  0  0  0  0  0
  -23.5730  -16.7455   21.6031 C   0  0  0  0  0  0  0  0  0  0  0  0
  -25.7009  -28.8125   21.3172 C   0  0  0  0  0  0  0  0  0  0  0  0
  -29.2612  -22.8566   20.6137 C   0  0  0  0  0  0  0  0  0  0  0  0
  -30.3715  -20.9905   21.9524 C   0  0  0  0  0  0  0  0  0  0  0  0
  -18.9364  -28.4964   22.9727 C   0  0  0  0  0  0  0  0  0  0  0  0
  -19.7100  -20.9195   21.2784 C   0  0  0  0  0  0  0  0  0  0  0  0
  -18.6984  -27.3692   22.1632 C   0  0  0  0  0  0  0  0  0  0  0  0
  -21.1052  -20.7957   21.2129 C   0  0  0  0  0  0  0  0  0  0  0  0
  -22.1644  -15.1024   19.8428 C   0  0  0  0  0  0  0  0  0  0  0  0
  -24.2301  -16.1536   20.5245 C   0  0  0  0  0  0  0  0  0  0  0  0
  -21.5072  -15.6943   20.9214 C   0  0  0  0  0  0  0  0  0  0  0  0
  -28.6725  -25.5238   20.0462 C   0  0  0  0  0  0  0  0  0  0  0  0
  -20.8716  -19.3147   19.2993 C   0  0  0  0  0  0  0  0  0  0  0  0
  -27.1215  -27.2886   20.0939 C   0  0  0  0  0  0  0  0  0  0  0  0
  -24.5743  -28.2212   20.7455 C   0  0  0  0  0  0  0  0  0  0  0  0
  -22.2115  -16.5159   21.8016 C   0  0  0  0  0  0  0  0  0  0  0  0
  -26.9745  -28.3462   20.9914 C   0  0  0  0  0  0  0  0  0  0  0  0
  -29.5660  -21.4791   20.9064 C   0  0  0  0  0  0  0  0  0  0  0  0
  -30.3444  -19.6260   21.7980 C   0  0  0  0  0  0  0  0  0  0  0  0
  -31.0808  -21.7060   22.9726 C   0  0  0  0  0  0  0  0  0  0  0  0
  -21.1341  -14.9112   17.5748 C   0  0  0  0  0  0  0  0  0  0  0  0
  -21.6341  -16.3241   17.4377 C   0  0  0  0  0  0  0  0  0  0  0  0
  -20.1730  -23.9866   21.9732 C   0  0  0  0  0  0  0  0  0  0  0  0
  -21.9884  -22.7673   24.3690 C   0  0  0  0  0  0  0  0  0  0  0  0
  -23.8390  -20.1602   25.5626 C   0  0  0  0  0  0  0  0  0  0  0  0
  -26.4162  -15.8775   19.3033 C   0  0  0  0  0  0  0  0  0  0  0  0
  -20.3290  -28.8845   23.4026 C   0  0  0  0  0  0  0  0  0  0  0  0
  -19.0688  -21.7524   22.3543 C   0  0  0  0  0  0  0  0  0  0  0  0
  -22.0108  -21.5077   22.1831 C   0  0  0  0  0  0  0  0  0  0  0  0
  -21.3455  -27.7536   23.2679 C   0  0  0  0  0  0  0  0  0  0  0  0
  -29.8509  -16.2463   18.4411 C   0  0  0  0  0  0  0  0  0  0  0  0
  -21.2070  -27.0703   21.9112 C   0  0  0  0  0  0  0  0  0  0  0  0
  -30.2426  -17.5827   19.0758 C   0  0  0  0  0  0  0  0  0  0  0  0
  -28.4246  -16.2743   17.8948 C   0  0  0  0  0  0  0  0  0  0  0  0
  -27.7922  -18.0426   19.4893 C   0  0  0  0  0  0  0  0  0  0  0  0
  -19.8186  -26.4392   21.7504 C   0  0  1  0  0  0  0  0  0  0  0  0
  -19.9978  -22.8264   22.9118 C   0  0  1  0  0  0  0  0  0  0  0  0
  -29.1980  -18.0422   20.1118 C   0  0  2  0  0  0  0  0  0  0  0  0
  -25.2314  -19.4724   27.5338 C   0  0  0  0  0  0  0  0  0  0  0  0
  -24.2674  -24.5347   23.3728 C   0  0  0  0  0  0  0  0  0  0  0  0
  -25.8471  -23.1399   24.7246 C   0  0  0  0  0  0  0  0  0  0  0  0
  -24.0396  -24.4300   25.8611 C   0  0  0  0  0  0  0  0  0  0  0  0
  -20.0491  -12.9366   16.8670 C   0  0  0  0  0  0  0  0  0  0  0  0
  -22.0469  -17.8880   26.1829 C   0  0  0  0  0  0  0  0  0  0  0  0
  -21.4292  -14.2111   18.8776 C   0  0  0  0  0  0  0  0  0  0  0  0
  -20.6929  -17.4088   17.8880 C   0  0  0  0  0  0  0  0  0  1  0  0
  -23.4383  -22.3743   24.5178 C   0  0  1  0  0  0  0  0  0  0  0  0
  -23.8441  -19.4625   26.9108 C   0  0  2  0  0  0  0  0  0  0  0  0
  -24.3814  -23.6077   24.5995 C   0  0  0  0  0  0  0  0  0  0  0  0
  -29.0640  -20.5044   20.1437 N   0  0  0  0  0  0  0  0  0  0  0  0
  -20.4919  -14.3038   16.6386 N   0  0  0  0  0  0  0  0  0  0  0  0
  -29.5553  -19.3895   20.7110 N   0  0  0  0  0  0  0  0  0  0  0  0
  -21.3364  -22.3150   23.2131 N   0  0  0  0  0  0  0  0  0  0  0  0
  -27.4898  -16.7146   18.9327 N   0  0  0  0  0  0  0  0  0  0  0  0
  -20.1294  -15.4715   21.1356 N   0  0  0  0  0  0  0  0  0  0  0  0
  -30.9188  -18.6173   22.4873 N   0  0  0  0  0  0  0  0  0  0  0  0
  -32.4003  -22.1027   22.7159 N   0  0  0  0  0  0  0  0  0  0  0  0
  -25.6131  -16.3872   20.3231 N   0  0  0  0  0  0  0  0  0  0  0  0
  -19.7408  -25.1950   22.4854 N   0  0  0  0  0  0  0  0  0  0  0  0
  -23.5053  -21.4930   25.6786 N   0  0  0  0  0  0  0  0  0  0  0  0
  -23.4055  -18.0459   26.7627 N   0  3  0  0  0  0  0  0  0  0  0  0
  -30.5654  -21.9710   24.0851 O   0  0  0  0  0  0  0  0  0  0  0  0
  -22.7542  -16.4922   16.9803 O   0  0  0  0  0  0  0  0  0  0  0  0
  -20.6653  -23.7995   20.8667 O   0  0  0  0  0  0  0  0  0  0  0  0
  -21.4520  -23.4445   25.2495 O   0  0  0  0  0  0  0  0  0  0  0  0
  -24.1080  -19.5816   24.5122 O   0  0  0  0  0  0  0  0  0  0  0  0
  -26.2393  -14.7767   18.7752 O   0  0  0  0  0  0  0  0  0  0  0  0
  -28.3852  -26.8250   19.7689 O   0  0  0  0  0  0  0  0  0  0  0  0
  -21.4397  -18.5393   18.3360 O   0  0  0  0  0  0  0  0  0  1  0  0
  -23.3512  -28.6698   21.0571 F   0  0  0  0  0  0  0  0  0  0  0  0
  -21.5906  -17.0907   22.8416 F   0  0  0  0  0  0  0  0  0  0  0  0
  -28.0531  -28.9190   21.5430 F   0  0  0  0  0  0  0  0  0  0  0  0
  1  2  1  0  0  0  0
  1  5  2  0  0  0  0
  2  6  2  0  0  0  0
  3  8  2  0  0  0  0
  3 17  1  0  0  0  0
  4  9  1  0  0  0  0
  4 17  2  0  0  0  0
  5 19  1  0  0  0  0
  6 21  1  0  0  0  0
  7 10  2  0  0  0  0
  7 20  1  0  0  0  0
  8 26  1  0  0  0  0
  9 26  2  0  0  0  0
 10 27  1  0  0  0  0
 11 12  2  0  0  0  0
 11 28  1  0  0  0  0
 12 29  1  0  0  0  0
 13 22  1  0  0  0  0
 13 27  2  0  0  0  0
 14 23  1  0  0  0  0
 14 24  2  0  0  0  0
 15 24  1  0  0  0  0
 15 30  2  0  0  0  0
 16 29  2  0  0  0  0
 16 31  1  0  0  0  0
 17 32  1  0  0  0  0
 18 32  1  0  0  0  0
 18 33  2  0  0  0  0
 18 34  1  0  0  0  0
 19 21  2  0  0  0  0
 19 41  1  0  0  0  0
 20 22  2  0  0  0  0
 20 42  1  0  0  0  0
 21 50  1  0  0  0  0
 22 43  1  0  0  0  0
 23 25  2  0  0  0  0
 23 59  1  0  0  0  0
 24 72  1  0  0  0  0
 25 30  1  0  0  0  0
 25 69  1  0  0  0  0
 26 82  1  0  0  0  0
 27 83  1  0  0  0  0
 28 31  2  0  0  0  0
 28 82  1  0  0  0  0
 29 84  1  0  0  0  0
 30 85  1  0  0  0  0
 31 86  1  0  0  0  0
 32 64  2  0  0  0  0
 33 66  1  0  0  0  0
 33 70  1  0  0  0  0
 34 71  1  0  0  0  0
 34 76  2  0  0  0  0
 35 36  1  0  0  0  0
 35 59  1  0  0  0  0
 35 65  2  0  0  0  0
 36 60  1  0  0  0  0
 36 77  2  0  0  0  0
 37 51  1  0  0  0  0
 37 73  1  0  0  0  0
 37 78  2  0  0  0  0
 38 61  1  0  0  0  0
 38 67  1  0  0  0  0
 38 79  2  0  0  0  0
 39 62  1  0  0  0  0
 39 74  1  0  0  0  0
 39 80  2  0  0  0  0
 40 68  1  0  0  0  0
 40 72  1  0  0  0  0
 40 81  2  0  0  0  0
 41 44  1  0  0  0  0
 42 51  1  0  0  0  0
 43 67  1  0  0  0  0
 44 46  1  0  0  0  0
 45 47  1  0  0  0  0
 45 48  1  0  0  0  0
 46 50  1  0  0  0  0
 47 52  1  0  0  0  0
 48 68  1  0  0  0  0
 49 52  1  0  0  0  0
 49 68  1  0  0  0  0
 50 73  1  0  0  0  0
 51 67  1  0  0  0  0
 52 66  1  0  0  0  0
 53 62  1  0  0  0  0
 54 63  1  0  0  0  0
 55 63  1  0  0  0  0
 56 63  1  0  0  0  0
 57 65  1  0  0  0  0
 58 75  1  0  0  0  0
 60 83  1  0  0  0  0
 61 63  1  0  0  0  0
 61 74  1  0  0  0  0
 62 75  1  0  0  0  0
 64 66  1  0  0  0  0
M  CHG  1  75   1
M  ISO  4  40 100  60 101  72 100  83 101
M  END
> <Batch ID>
0168

> <Smiles>
CN=C(Cc1cc([100NH:0][100C:0](=O)N2CCCC(n3nc(-c4ccc(Oc5ccc(F)cc5F)cc4)c(C(N)=O)c3N)C2)cc(F)c1N)C(=O)[101CH2:1][101O:1]c1ccc2c(c1)CN(C(=O)C(NC(=O)C(C)NC)C(C)(C)C)C(C(=O)NC1CCCc3ccccc31)C2

> <Shape>
0.185

> <Color>
0.064

> <Negative vol penalty>
0.000

$$$$

  -OEChem-04052304143D

 85 93  0     1  0  0  0  0  0999 V2000
  -39.1672  -29.6888   21.8057 C   0  0  0  0  0  0  0  0  0  0  0  0
  -38.1461  -28.7785   22.0588 C   0  0  0  0  0  0  0  0  0  0  0  0
  -31.3172  -19.0822   20.6099 C   0  0  0  0  0  0  0  0  0  0  0  0
  -23.0769   -9.8666   19.9385 C   0  0  0  0  0  0  0  0  0  0  0  0
  -23.8371   -9.8710   22.2318 C   0  0  0  0  0  0  0  0  0  0  0  0
  -39.0572  -31.0022   22.2602 C   0  0  0  0  0  0  0  0  0  0  0  0
  -37.0148  -29.1809   22.7677 C   0  0  0  0  0  0  0  0  0  0  0  0
  -31.2643  -27.2485   21.9286 C   0  0  0  0  0  0  0  0  0  0  0  0
  -31.1479  -17.6977   20.6034 C   0  0  0  0  0  0  0  0  0  0  0  0
  -30.5867  -19.8700   21.4996 C   0  0  0  0  0  0  0  0  0  0  0  0
  -22.3338   -8.7127   20.1870 C   0  0  0  0  0  0  0  0  0  0  0  0
  -23.0939   -8.7171   22.4804 C   0  0  0  0  0  0  0  0  0  0  0  0
  -30.4902  -26.2937   22.5866 C   0  0  0  0  0  0  0  0  0  0  0  0
  -19.8663   -7.9165   23.0822 C   0  0  0  0  0  0  0  0  0  0  0  0
  -19.1095   -7.8746   24.2531 C   0  0  0  0  0  0  0  0  0  0  0  0
  -29.5151  -28.0307   23.9472 C   0  0  0  0  0  0  0  0  0  0  0  0
  -20.3521   -5.9369   24.9869 C   0  0  0  0  0  0  0  0  0  0  0  0
  -23.8286  -10.4458   20.9609 C   0  0  0  0  0  0  0  0  0  0  0  0
  -24.1689  -12.9713   20.8442 C   0  0  0  0  0  0  0  0  0  0  0  0
  -37.9196  -31.4235   22.9666 C   0  0  0  0  0  0  0  0  0  0  0  0
  -31.1774  -28.6025   22.2831 C   0  0  0  0  0  0  0  0  0  0  0  0
  -36.8900  -30.5009   23.2333 C   0  0  0  0  0  0  0  0  0  0  0  0
  -30.2873  -29.0010   23.2905 C   0  0  0  0  0  0  0  0  0  0  0  0
  -30.2480  -17.1009   21.4864 C   0  0  0  0  0  0  0  0  0  0  0  0
  -29.6868  -19.2732   22.3826 C   0  0  0  0  0  0  0  0  0  0  0  0
  -22.3422   -8.1379   21.4580 C   0  0  0  0  0  0  0  0  0  0  0  0
  -29.6175  -26.6843   23.5980 C   0  0  0  0  0  0  0  0  0  0  0  0
  -20.8660   -6.9686   22.8635 C   0  0  0  0  0  0  0  0  0  0  0  0
  -19.3524   -6.8848   25.2055 C   0  0  0  0  0  0  0  0  0  0  0  0
  -21.1089   -5.9788   23.8159 C   0  0  0  0  0  0  0  0  0  0  0  0
  -29.5175  -17.8887   22.3761 C   0  0  0  0  0  0  0  0  0  0  0  0
  -24.5969  -11.6375   20.7047 C   0  0  0  0  0  0  0  0  0  0  0  0
  -25.2605  -13.7219   20.4818 C   0  0  0  0  0  0  0  0  0  0  0  0
  -22.8981  -13.4858   21.2639 C   0  0  0  0  0  0  0  0  0  0  0  0
  -28.1480  -22.0161   24.4072 C   0  0  0  0  0  0  0  0  0  0  0  0
  -28.1146  -23.5111   24.6579 C   0  0  0  0  0  0  0  0  0  0  0  0
  -33.2097  -30.7510   23.4481 C   0  0  0  0  0  0  0  0  0  0  0  0
  -30.7307  -32.7856   22.9611 C   0  0  0  0  0  0  0  0  0  0  0  0
  -27.3630  -33.2195   22.6194 C   0  0  0  0  0  0  0  0  0  0  0  0
  -30.7261  -14.7706   20.6573 C   0  0  0  0  0  0  0  0  0  0  0  0
  -37.8668  -32.8410   23.4790 C   0  0  0  0  0  0  0  0  0  0  0  0
  -31.9996  -29.6235   21.5455 C   0  0  0  0  0  0  0  0  0  0  0  0
  -30.1419  -30.4446   23.6948 C   0  0  0  0  0  0  0  0  0  0  0  0
  -36.4678  -33.2856   23.8977 C   0  0  0  0  0  0  0  0  0  0  0  0
  -29.6129  -12.3592   18.2859 C   0  0  0  0  0  0  0  0  0  0  0  0
  -35.8026  -32.2155   24.7575 C   0  0  0  0  0  0  0  0  0  0  0  0
  -28.1735  -12.0662   18.7153 C   0  0  0  0  0  0  0  0  0  0  0  0
  -30.5280  -12.5870   19.4878 C   0  0  0  0  0  0  0  0  0  0  0  0
  -28.6208  -13.3085   20.8702 C   0  0  0  0  0  0  0  0  0  0  0  0
  -35.6360  -30.9059   23.9773 C   0  0  1  0  0  0  0  0  0  0  0  0
  -32.2081  -30.9094   22.3394 C   0  0  1  0  0  0  0  0  0  0  0  0
  -27.6479  -13.1362   19.6923 C   0  0  2  0  0  0  0  0  0  0  0  0
  -25.6320  -35.0024   22.2694 C   0  0  0  0  0  0  0  0  0  0  0  0
  -31.0122  -33.6285   25.8800 C   0  0  0  0  0  0  0  0  0  0  0  0
  -28.7321  -34.6521   25.7317 C   0  0  0  0  0  0  0  0  0  0  0  0
  -30.5780  -35.5082   24.2886 C   0  0  0  0  0  0  0  0  0  0  0  0
  -26.4731  -32.0169   20.0658 C   0  0  0  0  0  0  0  0  0  0  0  0
  -29.0752  -21.4948   23.3399 C   0  0  0  0  0  0  0  0  0  0  0  0
  -29.0123  -24.3963   23.8310 C   0  0  0  0  0  0  0  0  0  1  0  0
  -29.5537  -33.2527   23.7830 C   0  0  1  0  0  0  0  0  0  0  0  0
  -26.5450  -33.9885   21.5976 C   0  0  2  0  0  0  0  0  0  0  0  0
  -29.9729  -34.2329   24.9148 C   0  0  0  0  0  0  0  0  0  0  0  0
  -25.8618  -11.5429   20.2861 N   0  0  0  0  0  0  0  0  0  0  0  0
  -26.2379  -12.8269   20.1594 N   0  0  0  0  0  0  0  0  0  0  0  0
  -30.9719  -31.4045   22.9483 N   0  0  0  0  0  0  0  0  0  0  0  0
  -29.9685  -13.6163   20.3666 N   0  0  0  0  0  0  0  0  0  0  0  0
  -25.4701  -15.0536   20.4105 N   0  0  0  0  0  0  0  0  0  0  0  0
  -21.8868  -12.5755   21.6001 N   0  0  0  0  0  0  0  0  0  0  0  0
  -30.0783  -15.6942   21.4770 N   0  0  0  0  0  0  0  0  0  0  0  0
  -28.9621  -20.0590   23.2659 N   0  0  0  0  0  0  0  0  0  0  0  0
  -34.5147  -30.9989   23.0672 N   0  0  0  0  0  0  0  0  0  0  0  0
  -28.5907  -33.8078   22.8381 N   0  0  0  0  0  0  0  0  0  0  0  0
  -25.7024  -33.0539   20.7992 N   0  3  0  0  0  0  0  0  0  0  0  0
  -22.6611  -14.7162   21.3229 O   0  0  0  0  0  0  0  0  0  0  0  0
  -27.4110  -21.3199   25.0941 O   0  0  0  0  0  0  0  0  0  0  0  0
  -27.3558  -23.9204   25.5271 O   0  0  0  0  0  0  0  0  0  0  0  0
  -32.8268  -30.4292   24.5669 O   0  0  0  0  0  0  0  0  0  0  0  0
  -31.4068  -33.6149   22.3472 O   0  0  0  0  0  0  0  0  0  0  0  0
  -26.9523  -32.2011   23.1713 O   0  0  0  0  0  0  0  0  0  0  0  0
  -31.8551  -14.9406   20.1897 O   0  0  0  0  0  0  0  0  0  0  0  0
  -21.6170   -7.0121   21.7009 O   0  0  0  0  0  0  0  0  0  0  0  0
  -28.8613  -25.7543   24.2423 O   0  0  0  0  0  0  0  0  0  1  0  0
  -18.6266   -6.8456   26.3306 F   0  0  0  0  0  0  0  0  0  0  0  0
  -22.0688   -5.0662   23.6120 F   0  0  0  0  0  0  0  0  0  0  0  0
  -28.6516  -17.3149   23.2257 F   0  0  0  0  0  0  0  0  0  0  0  0
  1  2  1  0  0  0  0
  1  6  2  0  0  0  0
  2  7  2  0  0  0  0
  3  9  1  0  0  0  0
  3 10  2  0  0  0  0
  4 11  2  0  0  0  0
  4 18  1  0  0  0  0
  5 12  1  0  0  0  0
  5 18  2  0  0  0  0
  6 20  1  0  0  0  0
  7 22  1  0  0  0  0
  8 13  2  0  0  0  0
  8 21  1  0  0  0  0
  9 24  2  0  0  0  0
 10 25  1  0  0  0  0
 11 26  1  0  0  0  0
 12 26  2  0  0  0  0
 13 27  1  0  0  0  0
 14 15  2  0  0  0  0
 14 28  1  0  0  0  0
 15 29  1  0  0  0  0
 16 23  1  0  0  0  0
 16 27  2  0  0  0  0
 17 29  2  0  0  0  0
 17 30  1  0  0  0  0
 18 32  1  0  0  0  0
 19 32  1  0  0  0  0
 19 33  2  0  0  0  0
 19 34  1  0  0  0  0
 20 22  2  0  0  0  0
 20 41  1  0  0  0  0
 21 23  2  0  0  0  0
 21 42  1  0  0  0  0
 22 50  1  0  0  0  0
 23 43  1  0  0  0  0
 24 31  1  0  0  0  0
 24 69  1  0  0  0  0
 25 31  2  0  0  0  0
 25 70  1  0  0  0  0
 26 81  1  0  0  0  0
 27 82  1  0  0  0  0
 28 30  2  0  0  0  0
 28 81  1  0  0  0  0
 29 83  1  0  0  0  0
 30 84  1  0  0  0  0
 31 85  1  0  0  0  0
 32 63  2  0  0  0  0
 33 64  1  0  0  0  0
 33 67  1  0  0  0  0
 34 68  1  0  0  0  0
 34 74  2  0  0  0  0
 35 36  1  0  0  0  0
 35 58  1  0  0  0  0
 35 75  2  0  0  0  0
 36 59  1  0  0  0  0
 36 76  2  0  0  0  0
 37 51  1  0  0  0  0
 37 71  1  0  0  0  0
 37 77  2  0  0  0  0
 38 60  1  0  0  0  0
 38 65  1  0  0  0  0
 38 78  2  0  0  0  0
 39 61  1  0  0  0  0
 39 72  1  0  0  0  0
 39 79  2  0  0  0  0
 40 66  1  0  0  0  0
 40 69  1  0  0  0  0
 40 80  2  0  0  0  0
 41 44  1  0  0  0  0
 42 51  1  0  0  0  0
 43 65  1  0  0  0  0
 44 46  1  0  0  0  0
 45 47  1  0  0  0  0
 45 48  1  0  0  0  0
 46 50  1  0  0  0  0
 47 52  1  0  0  0  0
 48 66  1  0  0  0  0
 49 52  1  0  0  0  0
 49 66  1  0  0  0  0
 50 71  1  0  0  0  0
 51 65  1  0  0  0  0
 52 64  1  0  0  0  0
 53 61  1  0  0  0  0
 54 62  1  0  0  0  0
 55 62  1  0  0  0  0
 56 62  1  0  0  0  0
 57 73  1  0  0  0  0
 58 70  1  0  0  0  0
 59 82  1  0  0  0  0
 60 62  1  0  0  0  0
 60 72  1  0  0  0  0
 61 73  1  0  0  0  0
 63 64  1  0  0  0  0
M  CHG  1  73   1
M  ISO  4  40 100  59 101  69 100  82 101
M  END
> <Batch ID>
0168

> <Smiles>
CNC(C)C(=O)NC(C(=O)N1Cc2cc([101O:1][101CH2:1]C(=O)C(=O)CNc3cccc([100NH:0][100C:0](=O)N4CCCC(n5nc(-c6ccc(Oc7ccc(F)cc7F)cc6)c(C(N)=O)c5N)C4)c3F)ccc2CC1C(=O)NC1CCCc2ccccc21)C(C)(C)C

> <Shape>
0.207

> <Color>
0.188

> <Negative vol penalty>
0.000

$$$$
