
  -OEChem-04052304173D

 87 95  0     1  0  0  0  0  0999 V2000
  -31.6101  -17.4160   23.2613 C   0  0  0  0  0  0  0  0  0  0  0  0
  -30.3527  -17.9901   23.1043 C   0  0  0  0  0  0  0  0  0  0  0  0
  -28.6585  -24.5746   19.1407 C   0  0  0  0  0  0  0  0  0  0  0  0
  -26.5787  -23.3669   19.3708 C   0  0  0  0  0  0  0  0  0  0  0  0
  -31.9706  -16.3092   22.4938 C   0  0  0  0  0  0  0  0  0  0  0  0
  -29.4553  -17.4584   22.1788 C   0  0  0  0  0  0  0  0  0  0  0  0
  -23.3603  -17.1747   22.7045 C   0  0  0  0  0  0  0  0  0  0  0  0
  -29.3664  -23.4178   19.4668 C   0  0  0  0  0  0  0  0  0  0  0  0
  -27.2866  -22.2100   19.6969 C   0  0  0  0  0  0  0  0  0  0  0  0
  -22.3371  -17.9766   22.2009 C   0  0  0  0  0  0  0  0  0  0  0  0
  -31.7070  -20.8718   20.5906 C   0  0  0  0  0  0  0  0  0  0  0  0
  -32.7557  -20.9869   21.5030 C   0  0  0  0  0  0  0  0  0  0  0  0
  -22.0660  -16.4563   20.3477 C   0  0  0  0  0  0  0  0  0  0  0  0
  -19.7087  -27.1165   22.1630 C   0  0  0  0  0  0  0  0  0  0  0  0
  -17.7021  -27.9479   23.2208 C   0  0  0  0  0  0  0  0  0  0  0  0
  -19.7036  -29.3008   23.1954 C   0  0  0  0  0  0  0  0  0  0  0  0
  -31.2126  -21.8025   23.1737 C   0  0  0  0  0  0  0  0  0  0  0  0
  -27.2647  -24.5492   19.0928 C   0  0  0  0  0  0  0  0  0  0  0  0
  -26.1436  -26.1693   17.4722 C   0  0  0  0  0  0  0  0  0  0  0  0
  -31.0737  -15.7578   21.5653 C   0  0  0  0  0  0  0  0  0  0  0  0
  -23.7521  -16.0114   22.0266 C   0  0  0  0  0  0  0  0  0  0  0  0
  -29.8046  -16.3441   21.3972 C   0  0  0  0  0  0  0  0  0  0  0  0
  -23.0928  -15.6400   20.8462 C   0  0  0  0  0  0  0  0  0  0  0  0
  -18.3727  -26.9427   22.5241 C   0  0  0  0  0  0  0  0  0  0  0  0
  -20.3742  -28.2956   22.4987 C   0  0  0  0  0  0  0  0  0  0  0  0
  -28.6804  -22.2355   19.7449 C   0  0  0  0  0  0  0  0  0  0  0  0
  -21.6917  -17.6190   21.0208 C   0  0  0  0  0  0  0  0  0  0  0  0
  -30.4111  -21.2221   20.9697 C   0  0  0  0  0  0  0  0  0  0  0  0
  -32.5085  -21.4522   22.7946 C   0  0  0  0  0  0  0  0  0  0  0  0
  -18.3675  -29.1270   23.5565 C   0  0  0  0  0  0  0  0  0  0  0  0
  -30.1639  -21.6874   22.2612 C   0  0  0  0  0  0  0  0  0  0  0  0
  -26.5329  -25.7440   18.7565 C   0  0  0  0  0  0  0  0  0  0  0  0
  -25.4798  -27.3520   17.6888 C   0  0  0  0  0  0  0  0  0  0  0  0
  -26.3624  -25.5505   16.1975 C   0  0  0  0  0  0  0  0  0  0  0  0
  -26.4391  -15.0130   20.6527 C   0  0  0  0  0  0  0  0  0  0  0  0
  -19.2260  -20.3271   20.5993 C   0  0  0  0  0  0  0  0  0  0  0  0
  -24.7774  -12.2483   20.3101 C   0  0  0  0  0  0  0  0  0  0  0  0
  -18.2094  -24.6478   21.4997 C   0  0  0  0  0  0  0  0  0  0  0  0
  -21.7443  -10.6984   20.0974 C   0  0  0  0  0  0  0  0  0  0  0  0
  -22.5380  -29.5809   22.3880 C   0  0  0  0  0  0  0  0  0  0  0  0
  -31.5257  -14.5900   20.7246 C   0  0  0  0  0  0  0  0  0  0  0  0
  -24.8396  -15.1429   22.5972 C   0  0  0  0  0  0  0  0  0  0  0  0
  -23.4620  -14.3901   20.0911 C   0  0  0  0  0  0  0  0  0  0  0  0
  -30.3789  -13.8571   20.0333 C   0  0  0  0  0  0  0  0  0  0  0  0
  -25.3181  -31.0546   20.7218 C   0  0  0  0  0  0  0  0  0  0  0  0
  -29.4274  -14.8528   19.3774 C   0  0  0  0  0  0  0  0  0  0  0  0
  -25.9060  -29.9002   19.9071 C   0  0  0  0  0  0  0  0  0  0  0  0
  -24.7906  -30.5825   22.0755 C   0  0  0  0  0  0  0  0  0  0  0  0
  -24.4315  -28.3073   21.2015 C   0  0  0  0  0  0  0  0  0  0  0  0
  -28.7945  -15.7808   20.4213 C   0  0  1  0  0  0  0  0  0  0  0  0
  -25.5045  -14.2534   21.5512 C   0  0  1  0  0  0  0  0  0  0  0  0
  -24.9169  -28.7227   19.8031 C   0  0  2  0  0  0  0  0  0  0  0  0
  -20.7062   -8.4358   19.7805 C   0  0  0  0  0  0  0  0  0  0  0  0
  -25.4503  -12.3587   17.3360 C   0  0  0  0  0  0  0  0  0  0  0  0
  -23.6475  -10.6680   16.9366 C   0  0  0  0  0  0  0  0  0  0  0  0
  -25.6117  -10.0820   18.3583 C   0  0  0  0  0  0  0  0  0  0  0  0
  -20.3930  -10.8219   22.7275 C   0  0  0  0  0  0  0  0  0  0  0  0
  -18.7662  -21.5906   21.3109 C   0  0  0  0  0  0  0  0  0  0  0  0
  -20.3577  -19.5722   21.2685 C   0  0  0  0  0  0  0  0  0  1  0  0
  -17.1434  -23.5696   21.3434 C   0  0  0  0  0  0  0  0  0  0  0  0
  -17.6270  -22.3229   20.5990 C   0  0  0  0  0  0  0  0  0  0  0  0
  -23.8638  -11.6739   19.2544 C   0  0  1  0  0  0  0  0  0  0  0  0
  -21.1928   -9.4648   20.7891 C   0  0  2  0  0  0  0  0  0  0  0  0
  -24.6374  -11.2203   17.9843 C   0  0  0  0  0  0  0  0  0  0  0  0
  -26.1485  -26.5879   19.7177 N   0  0  0  0  0  0  0  0  0  0  0  0
  -25.5109  -27.5555   19.0371 N   0  0  0  0  0  0  0  0  0  0  0  0
  -24.5358  -13.5773   20.6860 N   0  0  0  0  0  0  0  0  0  0  0  0
  -23.8564  -29.4686   21.8982 N   0  0  0  0  0  0  0  0  0  0  0  0
  -24.8784  -28.2275   16.8555 N   0  0  0  0  0  0  0  0  0  0  0  0
  -27.0631  -24.3374   16.1551 N   0  0  0  0  0  0  0  0  0  0  0  0
  -17.6972  -25.7465   22.1841 N   0  0  0  0  0  0  0  0  0  0  0  0
  -21.7315  -28.4724   22.1323 N   0  0  0  0  0  0  0  0  0  0  0  0
  -27.7336  -15.0965   21.1289 N   0  0  0  0  0  0  0  0  0  0  0  0
  -23.1068  -10.6098   19.9048 N   0  0  0  0  0  0  0  0  0  0  0  0
  -20.0507   -9.8335   21.6726 N   0  3  0  0  0  0  0  0  0  0  0  0
  -25.9632  -26.0666   15.1262 O   0  0  0  0  0  0  0  0  0  0  0  0
  -26.0173  -15.4870   19.6044 O   0  0  0  0  0  0  0  0  0  0  0  0
  -18.7033  -19.9225   19.5621 O   0  0  0  0  0  0  0  0  0  0  0  0
  -25.6678  -11.5416   20.7888 O   0  0  0  0  0  0  0  0  0  0  0  0
  -19.3522  -24.5006   21.0795 O   0  0  0  0  0  0  0  0  0  0  0  0
  -21.0366  -11.6443   19.7582 O   0  0  0  0  0  0  0  0  0  0  0  0
  -22.1448  -30.5975   22.9661 O   0  0  0  0  0  0  0  0  0  0  0  0
  -29.3708  -21.1065   20.0629 O   0  0  0  0  0  0  0  0  0  0  0  0
  -20.6930  -18.4003   20.5266 O   0  0  0  0  0  0  0  0  0  1  0  0
  -33.5154  -21.5612   23.6712 F   0  0  0  0  0  0  0  0  0  0  0  0
  -17.7239  -30.0922   24.2262 F   0  0  0  0  0  0  0  0  0  0  0  0
  -28.9209  -22.0243   22.6315 F   0  0  0  0  0  0  0  0  0  0  0  0
  1  2  1  0  0  0  0
  1  5  2  0  0  0  0
  2  6  2  0  0  0  0
  3  8  2  0  0  0  0
  3 18  1  0  0  0  0
  4  9  1  0  0  0  0
  4 18  2  0  0  0  0
  5 20  1  0  0  0  0
  6 22  1  0  0  0  0
  7 10  2  0  0  0  0
  7 21  1  0  0  0  0
  8 26  1  0  0  0  0
  9 26  2  0  0  0  0
 10 27  1  0  0  0  0
 11 12  2  0  0  0  0
 11 28  1  0  0  0  0
 12 29  1  0  0  0  0
 13 23  1  0  0  0  0
 13 27  2  0  0  0  0
 14 24  2  0  0  0  0
 14 25  1  0  0  0  0
 15 24  1  0  0  0  0
 15 30  2  0  0  0  0
 16 25  2  0  0  0  0
 16 30  1  0  0  0  0
 17 29  2  0  0  0  0
 17 31  1  0  0  0  0
 18 32  1  0  0  0  0
 19 32  1  0  0  0  0
 19 33  2  0  0  0  0
 19 34  1  0  0  0  0
 20 22  2  0  0  0  0
 20 41  1  0  0  0  0
 21 23  2  0  0  0  0
 21 42  1  0  0  0  0
 22 50  1  0  0  0  0
 23 43  1  0  0  0  0
 24 71  1  0  0  0  0
 25 72  1  0  0  0  0
 26 83  1  0  0  0  0
 27 84  1  0  0  0  0
 28 31  2  0  0  0  0
 28 83  1  0  0  0  0
 29 85  1  0  0  0  0
 30 86  1  0  0  0  0
 31 87  1  0  0  0  0
 32 65  2  0  0  0  0
 33 66  1  0  0  0  0
 33 69  1  0  0  0  0
 34 70  1  0  0  0  0
 34 76  2  0  0  0  0
 35 51  1  0  0  0  0
 35 73  1  0  0  0  0
 35 77  2  0  0  0  0
 36 58  1  0  0  0  0
 36 59  1  0  0  0  0
 36 78  2  0  0  0  0
 37 62  1  0  0  0  0
 37 67  1  0  0  0  0
 37 79  2  0  0  0  0
 38 60  1  0  0  0  0
 38 71  1  0  0  0  0
 38 80  2  0  0  0  0
 39 63  1  0  0  0  0
 39 74  1  0  0  0  0
 39 81  2  0  0  0  0
 40 68  1  0  0  0  0
 40 72  1  0  0  0  0
 40 82  2  0  0  0  0
 41 44  1  0  0  0  0
 42 51  1  0  0  0  0
 43 67  1  0  0  0  0
 44 46  1  0  0  0  0
 45 47  1  0  0  0  0
 45 48  1  0  0  0  0
 46 50  1  0  0  0  0
 47 52  1  0  0  0  0
 48 68  1  0  0  0  0
 49 52  1  0  0  0  0
 49 68  1  0  0  0  0
 50 73  1  0  0  0  0
 51 67  1  0  0  0  0
 52 66  1  0  0  0  0
 53 63  1  0  0  0  0
 54 64  1  0  0  0  0
 55 64  1  0  0  0  0
 56 64  1  0  0  0  0
 57 75  1  0  0  0  0
 58 61  1  0  0  0  0
 59 84  1  0  0  0  0
 60 61  1  0  0  0  0
 62 64  1  0  0  0  0
 62 74  1  0  0  0  0
 63 75  1  0  0  0  0
 65 66  1  0  0  0  0
M  CHG  1  75   1
M  ISO  4  40 100  59 101  72 100  84 101
M  END
> <Batch ID>
0169

> <Smiles>
CNC(C)C(=O)NC(C(=O)N1Cc2cc([101O:1][101CH2:1]C(=O)CCCC(=O)Nc3cc(F)cc([100NH:0][100C:0](=O)N4CCCC(n5nc(-c6ccc(Oc7ccc(F)cc7F)cc6)c(C(N)=O)c5N)C4)c3)ccc2CC1C(=O)NC1CCCc2ccccc21)C(C)(C)C

> <Shape>
0.252

> <Color>
0.071

> <Negative vol penalty>
0.000

$$$$

  -OEChem-04052304173D

 87 95  0     1  0  0  0  0  0999 V2000
  -28.1178  -35.8164   22.4204 C   0  0  0  0  0  0  0  0  0  0  0  0
  -28.2743  -34.4365   22.5024 C   0  0  0  0  0  0  0  0  0  0  0  0
  -22.5769  -10.5693   21.4918 C   0  0  0  0  0  0  0  0  0  0  0  0
  -24.4908   -9.4088   20.5824 C   0  0  0  0  0  0  0  0  0  0  0  0
  -26.8601  -36.3868   22.6124 C   0  0  0  0  0  0  0  0  0  0  0  0
  -27.1734  -33.6262   22.7777 C   0  0  0  0  0  0  0  0  0  0  0  0
  -26.9698  -29.5442   19.7875 C   0  0  0  0  0  0  0  0  0  0  0  0
  -21.9256   -9.3498   21.6774 C   0  0  0  0  0  0  0  0  0  0  0  0
  -23.8396   -8.1893   20.7679 C   0  0  0  0  0  0  0  0  0  0  0  0
  -27.8193  -28.4836   20.0993 C   0  0  0  0  0  0  0  0  0  0  0  0
  -21.9987   -6.7991   23.8958 C   0  0  0  0  0  0  0  0  0  0  0  0
  -21.3492   -6.5896   25.1123 C   0  0  0  0  0  0  0  0  0  0  0  0
  -25.9852  -27.3362   21.1665 C   0  0  0  0  0  0  0  0  0  0  0  0
  -29.3379  -20.6602   17.8217 C   0  0  0  0  0  0  0  0  0  0  0  0
  -19.2533   -6.3063   23.9444 C   0  0  0  0  0  0  0  0  0  0  0  0
  -23.8595  -10.5987   20.9443 C   0  0  0  0  0  0  0  0  0  0  0  0
  -25.3706  -12.5227   21.6671 C   0  0  0  0  0  0  0  0  0  0  0  0
  -25.7414  -35.5823   22.8805 C   0  0  0  0  0  0  0  0  0  0  0  0
  -25.6219  -29.5136   20.1731 C   0  0  0  0  0  0  0  0  0  0  0  0
  -25.8998  -34.1864   22.9747 C   0  0  0  0  0  0  0  0  0  0  0  0
  -25.1201  -28.3966   20.8562 C   0  0  0  0  0  0  0  0  0  0  0  0
  -29.7146  -18.2740   17.8577 C   0  0  0  0  0  0  0  0  0  0  0  0
  -29.4771  -20.7031   19.2089 C   0  0  0  0  0  0  0  0  0  0  0  0
  -29.8540  -18.3170   19.2449 C   0  0  0  0  0  0  0  0  0  0  0  0
  -22.5570   -8.1598   21.3155 C   0  0  0  0  0  0  0  0  0  0  0  0
  -27.3277  -27.3806   20.7914 C   0  0  0  0  0  0  0  0  0  0  0  0
  -21.2755   -6.7623   22.7036 C   0  0  0  0  0  0  0  0  0  0  0  0
  -19.9765   -6.3432   25.1366 C   0  0  0  0  0  0  0  0  0  0  0  0
  -29.4566  -19.4456   17.1461 C   0  0  0  0  0  0  0  0  0  0  0  0
  -19.9028   -6.5159   22.7279 C   0  0  0  0  0  0  0  0  0  0  0  0
  -29.7352  -19.5315   19.9205 C   0  0  0  0  0  0  0  0  0  0  0  0
  -24.5325  -11.8581   20.7518 C   0  0  0  0  0  0  0  0  0  0  0  0
  -25.7547  -13.6674   21.0124 C   0  0  0  0  0  0  0  0  0  0  0  0
  -28.2668  -25.3227   20.1967 C   0  0  0  0  0  0  0  0  0  1  0  0
  -25.7667  -12.1395   22.9907 C   0  0  0  0  0  0  0  0  0  0  0  0
  -29.0499  -24.2554   20.3947 C   0  0  0  0  0  0  0  0  0  0  0  0
  -29.1040  -23.1877   19.3433 C   0  0  0  0  0  0  0  0  0  0  0  0
  -23.7882  -31.2949   22.0622 C   0  0  0  0  0  0  0  0  0  0  0  0
  -21.4272  -29.3904   20.9128 C   0  0  0  0  0  0  0  0  0  0  0  0
  -20.5323  -26.4079   19.5161 C   0  0  0  0  0  0  0  0  0  0  0  0
  -27.5601  -16.2747   16.4202 C   0  0  0  0  0  0  0  0  0  0  0  0
  -24.4108  -36.2481   23.1276 C   0  0  0  0  0  0  0  0  0  0  0  0
  -24.7123  -30.6538   19.8058 C   0  0  0  0  0  0  0  0  0  0  0  0
  -23.6762  -28.3059   21.2749 C   0  0  0  0  0  0  0  0  0  0  0  0
  -23.2254  -35.2899   23.0442 C   0  0  0  0  0  0  0  0  0  0  0  0
  -24.0539  -15.7332   16.7198 C   0  0  0  0  0  0  0  0  0  0  0  0
  -23.5148  -34.0134   23.8276 C   0  0  0  0  0  0  0  0  0  0  0  0
  -23.9357  -14.7274   17.8663 C   0  0  0  0  0  0  0  0  0  0  0  0
  -25.2868  -15.4659   15.8594 C   0  0  0  0  0  0  0  0  0  0  0  0
  -26.4394  -14.3852   17.7508 C   0  0  0  0  0  0  0  0  0  0  0  0
  -24.7250  -33.2721   23.2469 C   0  0  1  0  0  0  0  0  0  0  0  0
  -23.4785  -30.7453   20.6984 C   0  0  1  0  0  0  0  0  0  0  0  0
  -25.2417  -14.6482   18.6796 C   0  0  2  0  0  0  0  0  0  0  0  0
  -18.5249  -25.1264   18.7255 C   0  0  0  0  0  0  0  0  0  0  0  0
  -20.6728  -28.7907   23.8078 C   0  0  0  0  0  0  0  0  0  0  0  0
  -19.3453  -26.8346   22.9835 C   0  0  0  0  0  0  0  0  0  0  0  0
  -18.7287  -29.1456   22.2752 C   0  0  0  0  0  0  0  0  0  0  0  0
  -21.5651  -26.2728   16.7459 C   0  0  0  0  0  0  0  0  0  0  0  0
  -29.8354  -16.9850   17.1114 C   0  0  0  0  0  0  0  0  0  0  0  0
  -20.8155  -28.0752   21.3312 C   0  0  1  0  0  0  0  0  0  0  0  0
  -19.6442  -26.0771   18.3303 C   0  0  2  0  0  0  0  0  0  0  0  0
  -19.9183  -28.2138   22.5934 C   0  0  0  0  0  0  0  0  0  0  0  0
  -24.3918  -12.5252   19.6032 N   0  0  0  0  0  0  0  0  0  0  0  0
  -25.1467  -13.6209   19.7924 N   0  0  0  0  0  0  0  0  0  0  0  0
  -22.8280  -29.4487   20.8982 N   0  0  0  0  0  0  0  0  0  0  0  0
  -26.4913  -15.4043   16.6908 N   0  0  0  0  0  0  0  0  0  0  0  0
  -30.1153  -17.1392   19.9793 N   0  0  0  0  0  0  0  0  0  0  0  0
  -26.5497  -14.6992   21.3670 N   0  0  0  0  0  0  0  0  0  0  0  0
  -25.2805  -10.9320   23.5103 N   0  0  0  0  0  0  0  0  0  0  0  0
  -29.3575  -21.9378   19.8913 N   0  0  0  0  0  0  0  0  0  0  0  0
  -24.3509  -32.5568   22.0457 N   0  0  0  0  0  0  0  0  0  0  0  0
  -20.1205  -27.5567   20.1579 N   0  0  0  0  0  0  0  0  0  0  0  0
  -28.6608  -16.1548   17.2597 N   0  0  0  0  0  0  0  0  0  0  0  0
  -20.4433  -25.4377   17.2470 N   0  3  0  0  0  0  0  0  0  0  0  0
  -26.5160  -12.8548   23.6981 O   0  0  0  0  0  0  0  0  0  0  0  0
  -28.9349  -23.4600   18.1596 O   0  0  0  0  0  0  0  0  0  0  0  0
  -23.5340  -30.6242   23.0558 O   0  0  0  0  0  0  0  0  0  0  0  0
  -20.6893  -30.3292   20.6032 O   0  0  0  0  0  0  0  0  0  0  0  0
  -21.4930  -25.7144   19.8428 O   0  0  0  0  0  0  0  0  0  0  0  0
  -27.5331  -17.1012   15.5021 O   0  0  0  0  0  0  0  0  0  0  0  0
  -29.8150  -24.0970   21.5323 O   0  0  0  0  0  0  0  0  0  0  0  0
  -21.9219   -6.9697   21.4966 O   0  0  0  0  0  0  0  0  0  0  0  0
  -28.1549  -26.3443   21.0975 O   0  0  0  0  0  0  0  0  0  1  0  0
  -19.3532   -6.1404   26.3048 F   0  0  0  0  0  0  0  0  0  0  0  0
  -29.3194  -19.4154   15.8130 F   0  0  0  0  0  0  0  0  0  0  0  0
  -19.2029   -6.4781   21.5858 F   0  0  0  0  0  0  0  0  0  0  0  0
  -29.8708  -19.5737   21.2548 F   0  0  0  0  0  0  0  0  0  0  0  0
  1  2  1  0  0  0  0
  1  5  2  0  0  0  0
  2  6  2  0  0  0  0
  3  8  2  0  0  0  0
  3 16  1  0  0  0  0
  4  9  1  0  0  0  0
  4 16  2  0  0  0  0
  5 18  1  0  0  0  0
  6 20  1  0  0  0  0
  7 10  2  0  0  0  0
  7 19  1  0  0  0  0
  8 25  1  0  0  0  0
  9 25  2  0  0  0  0
 10 26  1  0  0  0  0
 11 12  2  0  0  0  0
 11 27  1  0  0  0  0
 12 28  1  0  0  0  0
 13 21  1  0  0  0  0
 13 26  2  0  0  0  0
 14 23  1  0  0  0  0
 14 29  2  0  0  0  0
 15 28  2  0  0  0  0
 15 30  1  0  0  0  0
 16 32  1  0  0  0  0
 17 32  1  0  0  0  0
 17 33  2  0  0  0  0
 17 35  1  0  0  0  0
 18 20  2  0  0  0  0
 18 42  1  0  0  0  0
 19 21  2  0  0  0  0
 19 43  1  0  0  0  0
 20 51  1  0  0  0  0
 21 44  1  0  0  0  0
 22 24  2  0  0  0  0
 22 29  1  0  0  0  0
 22 59  1  0  0  0  0
 23 31  2  0  0  0  0
 23 70  1  0  0  0  0
 24 31  1  0  0  0  0
 24 67  1  0  0  0  0
 25 82  1  0  0  0  0
 26 83  1  0  0  0  0
 27 30  2  0  0  0  0
 27 82  1  0  0  0  0
 28 84  1  0  0  0  0
 29 85  1  0  0  0  0
 30 86  1  0  0  0  0
 31 87  1  0  0  0  0
 32 63  2  0  0  0  0
 33 64  1  0  0  0  0
 33 68  1  0  0  0  0
 34 36  2  0  0  0  0
 34 83  1  0  0  0  0
 35 69  1  0  0  0  0
 35 75  2  0  0  0  0
 36 37  1  0  0  0  0
 36 81  1  0  0  0  0
 37 70  1  0  0  0  0
 37 76  2  0  0  0  0
 38 52  1  0  0  0  0
 38 71  1  0  0  0  0
 38 77  2  0  0  0  0
 39 60  1  0  0  0  0
 39 65  1  0  0  0  0
 39 78  2  0  0  0  0
 40 61  1  0  0  0  0
 40 72  1  0  0  0  0
 40 79  2  0  0  0  0
 41 66  1  0  0  0  0
 41 73  1  0  0  0  0
 41 80  2  0  0  0  0
 42 45  1  0  0  0  0
 43 52  1  0  0  0  0
 44 65  1  0  0  0  0
 45 47  1  0  0  0  0
 46 48  1  0  0  0  0
 46 49  1  0  0  0  0
 47 51  1  0  0  0  0
 48 53  1  0  0  0  0
 49 66  1  0  0  0  0
 50 53  1  0  0  0  0
 50 66  1  0  0  0  0
 51 71  1  0  0  0  0
 52 65  1  0  0  0  0
 53 64  1  0  0  0  0
 54 61  1  0  0  0  0
 55 62  1  0  0  0  0
 56 62  1  0  0  0  0
 57 62  1  0  0  0  0
 58 74  1  0  0  0  0
 59 73  1  0  0  0  0
 60 62  1  0  0  0  0
 60 72  1  0  0  0  0
 61 74  1  0  0  0  0
 63 64  1  0  0  0  0
M  CHG  1  74   1
M  ISO  4  34 101  41 100  73 100  83 101
M  END
> <Batch ID>
0169

> <Smiles>
CNC(C)C(=O)NC(C(=O)N1Cc2cc([101O:1][101CH2:1]C(=O)C(=O)Nc3cc(F)c(C[100NH:0][100C:0](=O)N4CCCC(n5nc(-c6ccc(Oc7ccc(F)cc7F)cc6)c(C(N)=O)c5N)C4)c(N)c3F)ccc2CC1C(=O)NC1CCCc2ccccc21)C(C)(C)C

> <Shape>
0.293

> <Color>
0.108

> <Negative vol penalty>
0.000

$$$$

  -OEChem-04052304173D

 90 98  0     1  0  0  0  0  0999 V2000
  -22.9848  -37.8049   18.7840 C   0  0  0  0  0  0  0  0  0  0  0  0
  -23.3275  -36.6561   18.0781 C   0  0  0  0  0  0  0  0  0  0  0  0
  -25.4694  -10.4300   18.0462 C   0  0  0  0  0  0  0  0  0  0  0  0
  -27.6847  -10.8709   18.9037 C   0  0  0  0  0  0  0  0  0  0  0  0
  -23.4797  -38.0039   20.0721 C   0  0  0  0  0  0  0  0  0  0  0  0
  -24.1664  -35.7061   18.6597 C   0  0  0  0  0  0  0  0  0  0  0  0
  -25.3450  -28.6417   18.8057 C   0  0  0  0  0  0  0  0  0  0  0  0
  -26.0163   -9.6255   17.0467 C   0  0  0  0  0  0  0  0  0  0  0  0
  -28.2316  -10.0662   17.9041 C   0  0  0  0  0  0  0  0  0  0  0  0
  -26.3756  -27.7180   18.6371 C   0  0  0  0  0  0  0  0  0  0  0  0
  -28.9644  -10.3323   14.6143 C   0  0  0  0  0  0  0  0  0  0  0  0
  -30.0829  -10.8140   13.9343 C   0  0  0  0  0  0  0  0  0  0  0  0
  -27.1068  -28.1303   20.8987 C   0  0  0  0  0  0  0  0  0  0  0  0
  -28.5201  -20.0690   21.0009 C   0  0  0  0  0  0  0  0  0  0  0  0
  -31.3588   -8.9022   14.6787 C   0  0  0  0  0  0  0  0  0  0  0  0
  -26.3035  -11.0528   18.9747 C   0  0  0  0  0  0  0  0  0  0  0  0
  -25.3229  -11.4820   21.2902 C   0  0  0  0  0  0  0  0  0  0  0  0
  -24.3173  -37.0513   20.6735 C   0  0  0  0  0  0  0  0  0  0  0  0
  -25.1939  -29.3259   20.0204 C   0  0  0  0  0  0  0  0  0  0  0  0
  -24.6741  -35.8932   19.9566 C   0  0  0  0  0  0  0  0  0  0  0  0
  -26.0719  -29.0604   21.0809 C   0  0  0  0  0  0  0  0  0  0  0  0
  -29.7424  -18.1780   21.8766 C   0  0  0  0  0  0  0  0  0  0  0  0
  -30.9132  -18.9363   21.8799 C   0  0  0  0  0  0  0  0  0  0  0  0
  -28.5459  -18.7444   21.4371 C   0  0  0  0  0  0  0  0  0  0  0  0
  -29.6909  -20.8273   21.0041 C   0  0  0  0  0  0  0  0  0  0  0  0
  -27.3974   -9.4435   16.9757 C   0  0  0  0  0  0  0  0  0  0  0  0
  -27.2584  -27.4643   19.6827 C   0  0  0  0  0  0  0  0  0  0  0  0
  -29.0431   -9.1356   15.3266 C   0  0  0  0  0  0  0  0  0  0  0  0
  -31.2801  -10.0989   13.9664 C   0  0  0  0  0  0  0  0  0  0  0  0
  -30.2403   -8.4205   15.3588 C   0  0  0  0  0  0  0  0  0  0  0  0
  -30.8874  -20.2609   21.4437 C   0  0  0  0  0  0  0  0  0  0  0  0
  -25.7392  -11.8845   20.0071 C   0  0  0  0  0  0  0  0  0  0  0  0
  -24.8659  -12.6350   21.8804 C   0  0  0  0  0  0  0  0  0  0  0  0
  -28.0190  -25.2581   19.8410 C   0  0  0  0  0  0  0  0  0  1  0  0
  -25.3471  -10.1821   21.8947 C   0  0  0  0  0  0  0  0  0  0  0  0
  -28.9354  -24.2899   19.7209 C   0  0  0  0  0  0  0  0  0  0  0  0
  -28.5648  -22.8868   20.0982 C   0  0  0  0  0  0  0  0  0  0  0  0
  -25.3002  -32.3772   20.9045 C   0  0  0  0  0  0  0  0  0  0  0  0
  -24.3579  -31.1762   23.7667 C   0  0  0  0  0  0  0  0  0  0  0  0
  -24.2150  -28.5008   25.8805 C   0  0  0  0  0  0  0  0  0  0  0  0
  -26.0828  -18.4213   21.0184 C   0  0  0  0  0  0  0  0  0  0  0  0
  -24.8658  -37.3327   22.0499 C   0  0  0  0  0  0  0  0  0  0  0  0
  -24.0609  -30.2995   20.1951 C   0  0  0  0  0  0  0  0  0  0  0  0
  -25.9405  -29.7533   22.4117 C   0  0  0  0  0  0  0  0  0  0  0  0
  -25.4470  -36.1001   22.7377 C   0  0  0  0  0  0  0  0  0  0  0  0
  -22.8888  -16.8624   20.8058 C   0  0  0  0  0  0  0  0  0  0  0  0
  -26.3494  -35.3296   21.7791 C   0  0  0  0  0  0  0  0  0  0  0  0
  -23.2192  -15.3718   20.6997 C   0  0  0  0  0  0  0  0  0  0  0  0
  -23.9021  -17.7228   20.0531 C   0  0  0  0  0  0  0  0  0  0  0  0
  -25.6369  -15.9915   20.3023 C   0  0  0  0  0  0  0  0  0  0  0  0
  -25.5616  -34.8279   20.5629 C   0  0  1  0  0  0  0  0  0  0  0  0
  -24.3130  -31.3171   21.3034 C   0  0  1  0  0  0  0  0  0  0  0  0
  -24.6808  -15.0888   21.0990 C   0  0  2  0  0  0  0  0  0  0  0  0
  -29.7742  -16.7573   22.3465 C   0  0  0  0  0  0  0  0  0  0  0  0
  -23.4171  -27.8355   28.1649 C   0  0  0  0  0  0  0  0  0  0  0  0
  -32.9226  -20.2680   23.8157 C   0  0  0  0  0  0  0  0  0  0  0  0
  -31.5825  -18.4272   24.8350 C   0  0  0  0  0  0  0  0  0  0  0  0
  -33.9709  -18.0338   24.1812 C   0  0  0  0  0  0  0  0  0  0  0  0
  -26.7336  -32.6269   25.0163 C   0  0  0  0  0  0  0  0  0  0  0  0
  -26.4507  -31.1933   27.0492 C   0  0  0  0  0  0  0  0  0  0  0  0
  -24.6222  -32.7402   26.3517 C   0  0  0  0  0  0  0  0  0  0  0  0
  -22.3675  -26.4720   24.7714 C   0  0  0  0  0  0  0  0  0  0  0  0
  -32.2055  -18.3512   22.3487 C   0  0  0  0  0  0  0  0  0  0  0  0
  -25.0672  -30.6550   24.9931 C   0  0  1  0  0  0  0  0  0  0  0  0
  -23.0702  -27.9137   26.6863 C   0  0  2  0  0  0  0  0  0  0  0  0
  -32.6649  -18.7465   23.7892 C   0  0  0  0  0  0  0  0  0  0  0  0
  -25.7224  -31.7920   25.8270 C   0  0  0  0  0  0  0  0  0  0  0  0
  -25.5622  -13.1911   19.7939 N   0  0  0  0  0  0  0  0  0  0  0  0
  -25.0296  -13.6196   20.9509 N   0  0  0  0  0  0  0  0  0  0  0  0
  -24.8205  -30.7013   22.5313 N   0  0  0  0  0  0  0  0  0  0  0  0
  -25.2640  -17.4028   20.4863 N   0  0  0  0  0  0  0  0  0  0  0  0
  -24.3440  -12.8925   23.0985 N   0  0  0  0  0  0  0  0  0  0  0  0
  -25.8491   -9.1074   21.1481 N   0  0  0  0  0  0  0  0  0  0  0  0
  -29.6607  -22.1717   20.5614 N   0  0  0  0  0  0  0  0  0  0  0  0
  -27.3453  -17.9919   21.4264 N   0  0  0  0  0  0  0  0  0  0  0  0
  -24.7833  -33.6587   20.9120 N   0  0  0  0  0  0  0  0  0  0  0  0
  -24.0851  -29.8650   25.7278 N   0  0  0  0  0  0  0  0  0  0  0  0
  -22.7494  -26.5400   26.2055 N   0  3  0  0  0  0  0  0  0  0  0  0
  -24.9206   -9.9766   23.0563 O   0  0  0  0  0  0  0  0  0  0  0  0
  -27.4109  -22.4877   19.9846 O   0  0  0  0  0  0  0  0  0  0  0  0
  -26.4464  -32.0565   20.6130 O   0  0  0  0  0  0  0  0  0  0  0  0
  -23.4231  -31.9699   23.9003 O   0  0  0  0  0  0  0  0  0  0  0  0
  -25.1345  -27.8181   25.4346 O   0  0  0  0  0  0  0  0  0  0  0  0
  -25.6831  -19.5830   21.1308 O   0  0  0  0  0  0  0  0  0  0  0  0
  -30.2138  -24.5309   19.2603 O   0  0  0  0  0  0  0  0  0  0  0  0
  -27.9315   -8.6583   16.0006 O   0  0  0  0  0  0  0  0  0  0  0  0
  -28.2656  -26.5637   19.5207 O   0  0  0  0  0  0  0  0  0  1  0  0
  -32.3537  -10.5608   13.3121 F   0  0  0  0  0  0  0  0  0  0  0  0
  -30.3216   -7.2696   16.0404 F   0  0  0  0  0  0  0  0  0  0  0  0
  -32.0137  -20.9901   21.4486 F   0  0  0  0  0  0  0  0  0  0  0  0
  1  2  1  0  0  0  0
  1  5  2  0  0  0  0
  2  6  2  0  0  0  0
  3  8  2  0  0  0  0
  3 16  1  0  0  0  0
  4  9  1  0  0  0  0
  4 16  2  0  0  0  0
  5 18  1  0  0  0  0
  6 20  1  0  0  0  0
  7 10  2  0  0  0  0
  7 19  1  0  0  0  0
  8 26  1  0  0  0  0
  9 26  2  0  0  0  0
 10 27  1  0  0  0  0
 11 12  2  0  0  0  0
 11 28  1  0  0  0  0
 12 29  1  0  0  0  0
 13 21  1  0  0  0  0
 13 27  2  0  0  0  0
 14 24  2  0  0  0  0
 14 25  1  0  0  0  0
 15 29  2  0  0  0  0
 15 30  1  0  0  0  0
 16 32  1  0  0  0  0
 17 32  1  0  0  0  0
 17 33  2  0  0  0  0
 17 35  1  0  0  0  0
 18 20  2  0  0  0  0
 18 42  1  0  0  0  0
 19 21  2  0  0  0  0
 19 43  1  0  0  0  0
 20 51  1  0  0  0  0
 21 44  1  0  0  0  0
 22 23  2  0  0  0  0
 22 24  1  0  0  0  0
 22 54  1  0  0  0  0
 23 31  1  0  0  0  0
 23 63  1  0  0  0  0
 24 75  1  0  0  0  0
 25 31  2  0  0  0  0
 25 74  1  0  0  0  0
 26 86  1  0  0  0  0
 27 87  1  0  0  0  0
 28 30  2  0  0  0  0
 28 86  1  0  0  0  0
 29 88  1  0  0  0  0
 30 89  1  0  0  0  0
 31 90  1  0  0  0  0
 32 68  2  0  0  0  0
 33 69  1  0  0  0  0
 33 72  1  0  0  0  0
 34 36  2  0  0  0  0
 34 87  1  0  0  0  0
 35 73  1  0  0  0  0
 35 79  2  0  0  0  0
 36 37  1  0  0  0  0
 36 85  1  0  0  0  0
 37 74  1  0  0  0  0
 37 80  2  0  0  0  0
 38 52  1  0  0  0  0
 38 76  1  0  0  0  0
 38 81  2  0  0  0  0
 39 64  1  0  0  0  0
 39 70  1  0  0  0  0
 39 82  2  0  0  0  0
 40 65  1  0  0  0  0
 40 77  1  0  0  0  0
 40 83  2  0  0  0  0
 41 71  1  0  0  0  0
 41 75  1  0  0  0  0
 41 84  2  0  0  0  0
 42 45  1  0  0  0  0
 43 52  1  0  0  0  0
 44 70  1  0  0  0  0
 45 47  1  0  0  0  0
 46 48  1  0  0  0  0
 46 49  1  0  0  0  0
 47 51  1  0  0  0  0
 48 53  1  0  0  0  0
 49 71  1  0  0  0  0
 50 53  1  0  0  0  0
 50 71  1  0  0  0  0
 51 76  1  0  0  0  0
 52 70  1  0  0  0  0
 53 69  1  0  0  0  0
 55 65  1  0  0  0  0
 56 66  1  0  0  0  0
 57 66  1  0  0  0  0
 58 66  1  0  0  0  0
 59 67  1  0  0  0  0
 60 67  1  0  0  0  0
 61 67  1  0  0  0  0
 62 78  1  0  0  0  0
 63 66  1  0  0  0  0
 64 67  1  0  0  0  0
 64 77  1  0  0  0  0
 65 78  1  0  0  0  0
 68 69  1  0  0  0  0
M  CHG  1  78   1
M  ISO  4  34 101  41 100  75 100  87 101
M  END
> <Batch ID>
0169

> <Smiles>
CNC(C)C(=O)NC(C(=O)N1Cc2cc([101O:1][101CH2:1]C(=O)C(=O)Nc3cc([100NH:0][100C:0](=O)N4CCCC(n5nc(-c6ccc(Oc7ccc(F)cc7F)cc6)c(C(N)=O)c5N)C4)c(C)c(CC(C)(C)C)c3F)ccc2CC1C(=O)NC1CCCc2ccccc21)C(C)(C)C

> <Shape>
0.226

> <Color>
0.089

> <Negative vol penalty>
0.000

$$$$

  -OEChem-04052304173D

 86 94  0     1  0  0  0  0  0999 V2000
  -17.2494  -29.5954   24.5275 C   0  0  0  0  0  0  0  0  0  0  0  0
  -17.7600  -28.3027   24.5887 C   0  0  0  0  0  0  0  0  0  0  0  0
  -27.6123  -15.4203   23.2914 C   0  0  0  0  0  0  0  0  0  0  0  0
  -22.8922  -15.4258   19.7696 C   0  0  0  0  0  0  0  0  0  0  0  0
  -22.6666  -13.3813   18.5022 C   0  0  0  0  0  0  0  0  0  0  0  0
  -17.5998  -30.4327   23.4692 C   0  0  0  0  0  0  0  0  0  0  0  0
  -18.6206  -27.8463   23.5909 C   0  0  0  0  0  0  0  0  0  0  0  0
  -23.3403  -24.0040   24.2743 C   0  0  0  0  0  0  0  0  0  0  0  0
  -26.5554  -16.2342   22.8836 C   0  0  0  0  0  0  0  0  0  0  0  0
  -28.8138  -15.4303   22.5829 C   0  0  0  0  0  0  0  0  0  0  0  0
  -21.8718  -16.0056   19.0158 C   0  0  0  0  0  0  0  0  0  0  0  0
  -21.6461  -13.9611   17.7485 C   0  0  0  0  0  0  0  0  0  0  0  0
  -23.4733  -22.6335   24.0559 C   0  0  0  0  0  0  0  0  0  0  0  0
  -18.7357  -14.7814   15.7299 C   0  0  0  0  0  0  0  0  0  0  0  0
  -17.5901  -14.0212   15.4944 C   0  0  0  0  0  0  0  0  0  0  0  0
  -24.3863  -23.0770   21.8675 C   0  0  0  0  0  0  0  0  0  0  0  0
  -17.2046  -13.8651   17.8744 C   0  0  0  0  0  0  0  0  0  0  0  0
  -23.2896  -14.1136   19.5128 C   0  0  0  0  0  0  0  0  0  0  0  0
  -24.2086  -12.7866   21.4882 C   0  0  0  0  0  0  0  0  0  0  0  0
  -18.4728  -29.9896   22.4631 C   0  0  0  0  0  0  0  0  0  0  0  0
  -23.7198  -24.9226   23.2850 C   0  0  0  0  0  0  0  0  0  0  0  0
  -18.9820  -28.6780   22.5175 C   0  0  0  0  0  0  0  0  0  0  0  0
  -24.2595  -24.4587   22.0769 C   0  0  0  0  0  0  0  0  0  0  0  0
  -27.9015  -17.0678   21.0587 C   0  0  0  0  0  0  0  0  0  0  0  0
  -26.7000  -17.0579   21.7673 C   0  0  0  0  0  0  0  0  0  0  0  0
  -28.9584  -16.2540   21.4666 C   0  0  0  0  0  0  0  0  0  0  0  0
  -21.2488  -15.2733   18.0053 C   0  0  0  0  0  0  0  0  0  0  0  0
  -23.9937  -22.1697   22.8512 C   0  0  0  0  0  0  0  0  0  0  0  0
  -19.1158  -15.0833   17.0376 C   0  0  0  0  0  0  0  0  0  0  0  0
  -16.8246  -13.5631   16.5666 C   0  0  0  0  0  0  0  0  0  0  0  0
  -18.3502  -14.6252   18.1098 C   0  0  0  0  0  0  0  0  0  0  0  0
  -24.3440  -13.5142   20.2907 C   0  0  0  0  0  0  0  0  0  0  0  0
  -25.4933  -12.4357   21.8239 C   0  0  0  0  0  0  0  0  0  0  0  0
  -23.0270  -12.4573   22.2306 C   0  0  0  0  0  0  0  0  0  0  0  0
  -22.2039  -27.1331   21.5765 C   0  0  0  0  0  0  0  0  0  0  0  0
  -25.2001  -27.8381   20.5526 C   0  0  0  0  0  0  0  0  0  0  0  0
  -28.4097  -26.7943   20.0475 C   0  0  0  0  0  0  0  0  0  0  0  0
  -24.3650  -17.9708   21.9708 C   0  0  0  0  0  0  0  0  0  0  0  0
  -30.7449  -15.0940   20.1421 C   0  0  0  0  0  0  0  0  0  0  0  0
  -18.7853  -30.9149   21.3138 C   0  0  0  0  0  0  0  0  0  0  0  0
  -23.5949  -26.3985   23.5466 C   0  0  0  0  0  0  0  0  0  0  0  0
  -24.7006  -25.4041   20.9906 C   0  0  0  0  0  0  0  0  0  0  0  0
  -19.9990  -30.4816   20.4957 C   0  0  0  0  0  0  0  0  0  0  0  0
  -29.7762  -11.5306   19.9041 C   0  0  0  0  0  0  0  0  0  0  0  0
  -19.9265  -28.9906   20.1817 C   0  0  0  0  0  0  0  0  0  0  0  0
  -28.2523  -11.5865   19.9941 C   0  0  0  0  0  0  0  0  0  0  0  0
  -30.3546  -12.8034   19.2932 C   0  0  0  0  0  0  0  0  0  0  0  0
  -28.4033  -14.1063   20.0908 C   0  0  0  0  0  0  0  0  0  0  0  0
  -19.9379  -28.1549   21.4674 C   0  0  1  0  0  0  0  0  0  0  0  0
  -23.5343  -27.2289   22.2683 C   0  0  1  0  0  0  0  0  0  0  0  0
  -27.7991  -12.8523   20.7401 C   0  0  1  0  0  0  0  0  0  0  0  0
  -28.0565  -17.9516   19.8596 C   0  0  0  0  0  0  0  0  0  0  0  0
  -31.8461  -17.4021   22.1817 C   0  0  0  0  0  0  0  0  0  0  0  0
  -30.6211  -27.5826   19.1610 C   0  0  0  0  0  0  0  0  0  0  0  0
  -24.1610  -27.5369   17.6996 C   0  0  0  0  0  0  0  0  0  0  0  0
  -26.5369  -27.3875   16.9243 C   0  0  0  0  0  0  0  0  0  0  0  0
  -25.7203  -29.4616   18.0442 C   0  0  0  0  0  0  0  0  0  0  0  0
  -29.7333  -26.3912   22.6637 C   0  0  0  0  0  0  0  0  0  0  0  0
  -31.0785  -17.4142   20.8752 C   0  0  0  0  0  0  0  0  0  0  0  0
  -24.0150  -20.3787   21.2866 C   0  0  0  0  0  0  0  0  0  1  0  0
  -26.0801  -27.3703   19.4187 C   0  0  1  0  0  0  0  0  0  0  0  0
  -29.7428  -27.4327   20.3935 C   0  0  2  0  0  0  0  0  0  0  0  0
  -23.4663  -18.9601   21.2492 C   0  0  2  0  0  0  0  0  0  0  0  0
  -25.6146  -27.9209   18.0412 C   0  0  0  0  0  0  0  0  0  0  0  0
  -25.6145  -13.6201   19.8926 N   0  0  0  0  0  0  0  0  0  0  0  0
  -26.2892  -12.9545   20.8454 N   0  0  0  0  0  0  0  0  0  0  0  0
  -24.5526  -26.8377   21.2914 N   0  0  0  0  0  0  0  0  0  0  0  0
  -29.8672  -14.0031   19.9756 N   0  0  0  0  0  0  0  0  0  0  0  0
  -26.0086  -11.7371   22.8578 N   0  0  0  0  0  0  0  0  0  0  0  0
  -21.7882  -12.8964   21.7442 N   0  0  0  0  0  0  0  0  0  0  0  0
  -25.6142  -17.8741   21.3708 N   0  0  0  0  0  0  0  0  0  0  0  0
  -21.2799  -28.0683   22.0021 N   0  0  0  0  0  0  0  0  0  0  0  0
  -27.4438  -27.7414   19.7806 N   0  0  0  0  0  0  0  0  0  0  0  0
  -30.2093  -16.2464   20.7483 N   0  0  0  0  0  0  0  0  0  0  0  0
  -30.4720  -26.6006   21.3919 N   0  3  0  0  0  0  0  0  0  0  0  0
  -23.0702  -11.8073   23.3026 O   0  0  0  0  0  0  0  0  0  0  0  0
  -22.0291  -26.2753   20.7190 O   0  0  0  0  0  0  0  0  0  0  0  0
  -25.0967  -29.0463   20.7791 O   0  0  0  0  0  0  0  0  0  0  0  0
  -28.2430  -25.5771   20.0135 O   0  0  0  0  0  0  0  0  0  0  0  0
  -23.9550  -17.3601   22.9537 O   0  0  0  0  0  0  0  0  0  0  0  0
  -31.9107  -15.0650   19.7290 O   0  0  0  0  0  0  0  0  0  0  0  0
  -20.2529  -15.8388   17.2697 O   0  0  0  0  0  0  0  0  0  0  0  0
  -24.1239  -20.8324   22.6352 O   0  0  0  0  0  0  0  0  0  1  0  0
  -15.7236  -12.8345   16.3403 F   0  0  0  0  0  0  0  0  0  0  0  0
  -18.7096  -14.9131   19.3683 F   0  0  0  0  0  0  0  0  0  0  0  0
  -22.2233  -18.9722   21.8114 F   0  0  0  0  0  0  0  0  0  0  0  0
  1  2  1  0  0  0  0
  1  6  2  0  0  0  0
  2  7  2  0  0  0  0
  3  9  1  0  0  0  0
  3 10  2  0  0  0  0
  4 11  2  0  0  0  0
  4 18  1  0  0  0  0
  5 12  1  0  0  0  0
  5 18  2  0  0  0  0
  6 20  1  0  0  0  0
  7 22  1  0  0  0  0
  8 13  2  0  0  0  0
  8 21  1  0  0  0  0
  9 25  2  0  0  0  0
 10 26  1  0  0  0  0
 11 27  1  0  0  0  0
 12 27  2  0  0  0  0
 13 28  1  0  0  0  0
 14 15  2  0  0  0  0
 14 29  1  0  0  0  0
 15 30  1  0  0  0  0
 16 23  1  0  0  0  0
 16 28  2  0  0  0  0
 17 30  2  0  0  0  0
 17 31  1  0  0  0  0
 18 32  1  0  0  0  0
 19 32  1  0  0  0  0
 19 33  2  0  0  0  0
 19 34  1  0  0  0  0
 20 22  2  0  0  0  0
 20 40  1  0  0  0  0
 21 23  2  0  0  0  0
 21 41  1  0  0  0  0
 22 49  1  0  0  0  0
 23 42  1  0  0  0  0
 24 25  1  0  0  0  0
 24 26  2  0  0  0  0
 24 52  1  0  0  0  0
 25 71  1  0  0  0  0
 26 74  1  0  0  0  0
 27 82  1  0  0  0  0
 28 83  1  0  0  0  0
 29 31  2  0  0  0  0
 29 82  1  0  0  0  0
 30 84  1  0  0  0  0
 31 85  1  0  0  0  0
 32 65  2  0  0  0  0
 33 66  1  0  0  0  0
 33 69  1  0  0  0  0
 34 70  1  0  0  0  0
 34 76  2  0  0  0  0
 35 50  1  0  0  0  0
 35 72  1  0  0  0  0
 35 77  2  0  0  0  0
 36 61  1  0  0  0  0
 36 67  1  0  0  0  0
 36 78  2  0  0  0  0
 37 62  1  0  0  0  0
 37 73  1  0  0  0  0
 37 79  2  0  0  0  0
 38 63  1  0  0  0  0
 38 71  1  0  0  0  0
 38 80  2  0  0  0  0
 39 68  1  0  0  0  0
 39 74  1  0  0  0  0
 39 81  2  0  0  0  0
 40 43  1  0  0  0  0
 41 50  1  0  0  0  0
 42 67  1  0  0  0  0
 43 45  1  0  0  0  0
 44 46  1  0  0  0  0
 44 47  1  0  0  0  0
 45 49  1  0  0  0  0
 46 51  1  0  0  0  0
 47 68  1  0  0  0  0
 48 51  1  0  0  0  0
 48 68  1  0  0  0  0
 49 72  1  0  0  0  0
 50 67  1  0  0  0  0
 51 66  1  0  0  0  0
 53 59  1  0  0  0  0
 54 62  1  0  0  0  0
 55 64  1  0  0  0  0
 56 64  1  0  0  0  0
 57 64  1  0  0  0  0
 58 75  1  0  0  0  0
 59 74  1  0  0  0  0
 60 63  1  0  0  0  0
 60 83  1  0  0  0  0
 61 64  1  0  0  0  0
 61 73  1  0  0  0  0
 62 75  1  0  0  0  0
 63 86  1  0  0  0  0
 65 66  1  0  0  0  0
M  CHG  1  75   1
M  ISO  4  39 100  60 101  74 100  83 101
M  END
> <Batch ID>
0169

> <Smiles>
CC[100N:0](c1cccc(NC(=O)C(F)[101CH2:1][101O:1]c2ccc3c(c2)CN(C(=O)C(NC(=O)C(C)NC)C(C)(C)C)C(C(=O)NC2CCCc4ccccc42)C3)c1C)[100C:0](=O)N1CCCC(n2nc(-c3ccc(Oc4ccc(F)cc4F)cc3)c(C(N)=O)c2N)C1

> <Shape>
0.208

> <Color>
0.092

> <Negative vol penalty>
0.000

$$$$

  -OEChem-04052304173D

 84 92  0     1  0  0  0  0  0999 V2000
  -26.1664  -35.6850   25.4113 C   0  0  0  0  0  0  0  0  0  0  0  0
  -26.7847  -35.2401   24.2472 C   0  0  0  0  0  0  0  0  0  0  0  0
  -26.7390  -12.5817   21.8096 C   0  0  0  0  0  0  0  0  0  0  0  0
  -26.0497  -14.0954   20.0573 C   0  0  0  0  0  0  0  0  0  0  0  0
  -25.7111  -34.7634   26.3533 C   0  0  0  0  0  0  0  0  0  0  0  0
  -26.9492  -33.8733   24.0249 C   0  0  0  0  0  0  0  0  0  0  0  0
  -26.7172  -30.9649   18.6404 C   0  0  0  0  0  0  0  0  0  0  0  0
  -25.4497  -12.0517   21.8589 C   0  0  0  0  0  0  0  0  0  0  0  0
  -24.7604  -13.5654   20.1066 C   0  0  0  0  0  0  0  0  0  0  0  0
  -27.7120  -30.5255   17.7680 C   0  0  0  0  0  0  0  0  0  0  0  0
  -23.5876   -9.8601   20.0806 C   0  0  0  0  0  0  0  0  0  0  0  0
  -23.4588   -8.4723   20.1344 C   0  0  0  0  0  0  0  0  0  0  0  0
  -27.5976  -28.3271   18.7544 C   0  0  0  0  0  0  0  0  0  0  0  0
  -22.3034   -8.6614   22.2478 C   0  0  0  0  0  0  0  0  0  0  0  0
  -30.6175  -22.7865   21.0072 C   0  0  0  0  0  0  0  0  0  0  0  0
  -27.0390  -13.6036   20.9088 C   0  0  0  0  0  0  0  0  0  0  0  0
  -29.4409  -13.7118   20.0562 C   0  0  0  0  0  0  0  0  0  0  0  0
  -25.8613  -33.3844   26.1380 C   0  0  0  0  0  0  0  0  0  0  0  0
  -26.1618  -30.0901   19.5853 C   0  0  0  0  0  0  0  0  0  0  0  0
  -26.4966  -32.9325   24.9656 C   0  0  0  0  0  0  0  0  0  0  0  0
  -26.5940  -28.7571   19.6359 C   0  0  0  0  0  0  0  0  0  0  0  0
  -30.0185  -21.6130   20.6122 C   0  0  0  0  0  0  0  0  0  0  0  0
  -24.4604  -12.5435   21.0075 C   0  0  0  0  0  0  0  0  0  0  0  0
  -28.1544  -29.2072   17.8269 C   0  0  0  0  0  0  0  0  0  0  0  0
  -23.0743  -10.6486   21.1104 C   0  0  0  0  0  0  0  0  0  0  0  0
  -22.8168   -7.8729   21.2179 C   0  0  0  0  0  0  0  0  0  0  0  0
  -22.4322  -10.0492   22.1940 C   0  0  0  0  0  0  0  0  0  0  0  0
  -29.3763  -21.8939   19.3826 C   0  0  0  0  0  0  0  0  0  0  0  0
  -28.3705  -14.1518   20.8577 C   0  0  0  0  0  0  0  0  0  0  0  0
  -29.6285  -23.2192   19.1140 C   0  0  0  0  0  0  0  0  0  0  0  0
  -30.4776  -14.5543   20.3750 C   0  0  0  0  0  0  0  0  0  0  0  0
  -29.4933  -12.6375   19.1081 C   0  0  0  0  0  0  0  0  0  0  0  0
  -29.2228  -24.0872   17.9792 C   0  0  0  0  0  0  0  0  0  0  0  0
  -26.0350  -30.0041   22.7602 C   0  0  0  0  0  0  0  0  0  0  0  0
  -24.0960  -27.4593   22.2251 C   0  0  0  0  0  0  0  0  0  0  0  0
  -23.1271  -24.9449   20.1308 C   0  0  0  0  0  0  0  0  0  0  0  0
  -29.3727  -26.3864   17.0896 C   0  0  0  0  0  0  0  0  0  0  0  0
  -30.6970  -20.1241   22.5277 C   0  0  0  0  0  0  0  0  0  0  0  0
  -25.3956  -32.4278   27.2070 C   0  0  0  0  0  0  0  0  0  0  0  0
  -25.0706  -30.5724   20.5012 C   0  0  0  0  0  0  0  0  0  0  0  0
  -26.0157  -27.7728   20.6183 C   0  0  0  0  0  0  0  0  0  0  0  0
  -25.2722  -30.9856   26.7221 C   0  0  0  0  0  0  0  0  0  0  0  0
  -32.1628  -17.2215   23.9780 C   0  0  0  0  0  0  0  0  0  0  0  0
  -26.5094  -30.5824   25.9260 C   0  0  0  0  0  0  0  0  0  0  0  0
  -31.4584  -16.0649   23.2651 C   0  0  0  0  0  0  0  0  0  0  0  0
  -31.2150  -18.3922   24.2327 C   0  0  0  0  0  0  0  0  0  0  0  0
  -29.7941  -17.7235   22.3345 C   0  0  0  0  0  0  0  0  0  0  0  0
  -26.6711  -31.4573   24.6771 C   0  0  1  0  0  0  0  0  0  0  0  0
  -24.9395  -29.7329   21.7683 C   0  0  1  0  0  0  0  0  0  0  0  0
  -30.7247  -16.5469   21.9982 C   0  0  2  0  0  0  0  0  0  0  0  0
  -21.5454  -23.0021   19.9850 C   0  0  0  0  0  0  0  0  0  0  0  0
  -31.3445  -27.9108   16.7907 C   0  0  0  0  0  0  0  0  0  0  0  0
  -25.9092  -25.8474   24.0755 C   0  0  0  0  0  0  0  0  0  0  0  0
  -24.8753  -23.7606   23.1564 C   0  0  0  0  0  0  0  0  0  0  0  0
  -23.4641  -25.4169   24.3763 C   0  0  0  0  0  0  0  0  0  0  0  0
  -21.7396  -26.1011   17.7862 C   0  0  0  0  0  0  0  0  0  0  0  0
  -24.3038  -25.9734   22.0574 C   0  0  1  0  0  0  0  0  0  0  0  0
  -21.7529  -24.4785   19.6851 C   0  0  2  0  0  0  0  0  0  0  0  0
  -29.9831  -27.7356   17.4449 C   0  0  1  0  0  0  0  0  0  1  0  0
  -24.6506  -25.2684   23.3991 C   0  0  0  0  0  0  0  0  0  0  0  0
  -28.6971  -15.1930   21.6279 N   0  0  0  0  0  0  0  0  0  0  0  0
  -29.9845  -15.4142   21.3119 N   0  0  0  0  0  0  0  0  0  0  0  0
  -24.9556  -28.2940   21.4970 N   0  0  0  0  0  0  0  0  0  0  0  0
  -30.5592  -18.7973   22.9875 N   0  0  0  0  0  0  0  0  0  0  0  0
  -31.7539  -14.6362   19.9427 N   0  0  0  0  0  0  0  0  0  0  0  0
  -28.3379  -11.8714   18.9019 N   0  0  0  0  0  0  0  0  0  0  0  0
  -30.0567  -20.3841   21.3165 N   0  0  0  0  0  0  0  0  0  0  0  0
  -29.6686  -25.4065   18.0389 N   0  0  0  0  0  0  0  0  0  0  0  0
  -25.7554  -31.0321   23.6402 N   0  0  0  0  0  0  0  0  0  0  0  0
  -23.1009  -25.4637   21.4080 N   0  0  0  0  0  0  0  0  0  0  0  0
  -21.5848  -24.6885   18.2192 N   0  3  0  0  0  0  0  0  0  0  0  0
  -30.5386  -12.3545   18.4750 O   0  0  0  0  0  0  0  0  0  0  0  0
  -28.5170  -23.6183   17.0904 O   0  0  0  0  0  0  0  0  0  0  0  0
  -27.0577  -29.3295   22.7304 O   0  0  0  0  0  0  0  0  0  0  0  0
  -23.1991  -27.8643   22.9689 O   0  0  0  0  0  0  0  0  0  0  0  0
  -24.1246  -24.8544   19.4186 O   0  0  0  0  0  0  0  0  0  0  0  0
  -28.6863  -26.2177   16.0844 O   0  0  0  0  0  0  0  0  0  0  0  0
  -31.3587  -20.9605   23.1480 O   0  0  0  0  0  0  0  0  0  0  0  0
  -30.3844  -23.7705   20.0995 O   0  0  0  0  0  0  0  0  0  0  0  0
  -23.2023  -12.0264   21.0552 O   0  0  0  0  0  0  0  0  0  0  0  0
  -29.1258  -28.7759   16.9770 O   0  0  0  0  0  0  0  0  0  1  0  0
  -22.6918   -6.5402   21.2687 F   0  0  0  0  0  0  0  0  0  0  0  0
  -21.9361  -10.8016   23.1857 F   0  0  0  0  0  0  0  0  0  0  0  0
  -28.6725  -21.0483   18.6350 F   0  0  0  0  0  0  0  0  0  0  0  0
  1  2  1  0  0  0  0
  1  5  2  0  0  0  0
  2  6  2  0  0  0  0
  3  8  2  0  0  0  0
  3 16  1  0  0  0  0
  4  9  1  0  0  0  0
  4 16  2  0  0  0  0
  5 18  1  0  0  0  0
  6 20  1  0  0  0  0
  7 10  2  0  0  0  0
  7 19  1  0  0  0  0
  8 23  1  0  0  0  0
  9 23  2  0  0  0  0
 10 24  1  0  0  0  0
 11 12  2  0  0  0  0
 11 25  1  0  0  0  0
 12 26  1  0  0  0  0
 13 21  1  0  0  0  0
 13 24  2  0  0  0  0
 14 26  2  0  0  0  0
 14 27  1  0  0  0  0
 15 22  2  0  0  0  0
 15 79  1  0  0  0  0
 16 29  1  0  0  0  0
 17 29  1  0  0  0  0
 17 31  2  0  0  0  0
 17 32  1  0  0  0  0
 18 20  2  0  0  0  0
 18 39  1  0  0  0  0
 19 21  2  0  0  0  0
 19 40  1  0  0  0  0
 20 48  1  0  0  0  0
 21 41  1  0  0  0  0
 22 28  1  0  0  0  0
 22 67  1  0  0  0  0
 23 80  1  0  0  0  0
 24 81  1  0  0  0  0
 25 27  2  0  0  0  0
 25 80  1  0  0  0  0
 26 82  1  0  0  0  0
 27 83  1  0  0  0  0
 28 30  2  0  0  0  0
 28 84  1  0  0  0  0
 29 61  2  0  0  0  0
 30 33  1  0  0  0  0
 30 79  1  0  0  0  0
 31 62  1  0  0  0  0
 31 65  1  0  0  0  0
 32 66  1  0  0  0  0
 32 72  2  0  0  0  0
 33 68  1  0  0  0  0
 33 73  2  0  0  0  0
 34 49  1  0  0  0  0
 34 69  1  0  0  0  0
 34 74  2  0  0  0  0
 35 57  1  0  0  0  0
 35 63  1  0  0  0  0
 35 75  2  0  0  0  0
 36 58  1  0  0  0  0
 36 70  1  0  0  0  0
 36 76  2  0  0  0  0
 37 59  1  0  0  0  0
 37 68  1  0  0  0  0
 37 77  2  0  0  0  0
 38 64  1  0  0  0  0
 38 67  1  0  0  0  0
 38 78  2  0  0  0  0
 39 42  1  0  0  0  0
 40 49  1  0  0  0  0
 41 63  1  0  0  0  0
 42 44  1  0  0  0  0
 43 45  1  0  0  0  0
 43 46  1  0  0  0  0
 44 48  1  0  0  0  0
 45 50  1  0  0  0  0
 46 64  1  0  0  0  0
 47 50  1  0  0  0  0
 47 64  1  0  0  0  0
 48 69  1  0  0  0  0
 49 63  1  0  0  0  0
 50 62  1  0  0  0  0
 51 58  1  0  0  0  0
 52 59  1  0  0  0  0
 53 60  1  0  0  0  0
 54 60  1  0  0  0  0
 55 60  1  0  0  0  0
 56 71  1  0  0  0  0
 57 60  1  0  0  0  0
 57 70  1  0  0  0  0
 58 71  1  0  0  0  0
 59 81  1  0  0  0  0
 61 62  1  0  0  0  0
M  CHG  1  71   1
M  ISO  4  38 100  59 101  67 100  81 101
M  END
> <Batch ID>
0169

> <Smiles>
CNC(C)C(=O)NC(C(=O)N1Cc2cc([101O:1][101CH:1](C)C(=O)NC(=O)c3occ([100NH:0][100C:0](=O)N4CCCC(n5nc(-c6ccc(Oc7ccc(F)cc7F)cc6)c(C(N)=O)c5N)C4)c3F)ccc2CC1C(=O)NC1CCCc2ccccc21)C(C)(C)C

> <Shape>
0.291

> <Color>
0.062

> <Negative vol penalty>
0.000

$$$$

  -OEChem-04052304173D

 86 94  0     1  0  0  0  0  0999 V2000
  -20.9924  -34.5119   15.6944 C   0  0  0  0  0  0  0  0  0  0  0  0
  -21.9857  -33.5379   15.6960 C   0  0  0  0  0  0  0  0  0  0  0  0
  -24.3761   -8.6629   20.1601 C   0  0  0  0  0  0  0  0  0  0  0  0
  -22.7774  -10.1877   21.1380 C   0  0  0  0  0  0  0  0  0  0  0  0
  -20.8888  -35.4020   16.7625 C   0  0  0  0  0  0  0  0  0  0  0  0
  -22.8768  -33.4541   16.7652 C   0  0  0  0  0  0  0  0  0  0  0  0
  -25.3506  -28.3642   19.1061 C   0  0  0  0  0  0  0  0  0  0  0  0
  -23.6534   -7.5817   20.6644 C   0  0  0  0  0  0  0  0  0  0  0  0
  -22.0547   -9.1065   21.6424 C   0  0  0  0  0  0  0  0  0  0  0  0
  -26.5899  -27.7530   18.9213 C   0  0  0  0  0  0  0  0  0  0  0  0
  -19.9854   -6.7605   23.4928 C   0  0  0  0  0  0  0  0  0  0  0  0
  -19.5432   -6.8357   24.8135 C   0  0  0  0  0  0  0  0  0  0  0  0
  -27.4196  -28.8498   20.9032 C   0  0  0  0  0  0  0  0  0  0  0  0
  -21.8298   -7.0356   25.5677 C   0  0  0  0  0  0  0  0  0  0  0  0
  -26.3015  -19.2013   18.7202 C   0  0  0  0  0  0  0  0  0  0  0  0
  -23.9381   -9.9659   20.3969 C   0  0  0  0  0  0  0  0  0  0  0  0
  -24.5171  -11.7095   18.6271 C   0  0  0  0  0  0  0  0  0  0  0  0
  -21.7730  -35.3230   17.8499 C   0  0  0  0  0  0  0  0  0  0  0  0
  -25.1394  -29.2328   20.1865 C   0  0  0  0  0  0  0  0  0  0  0  0
  -22.7858  -34.3449   17.8483 C   0  0  0  0  0  0  0  0  0  0  0  0
  -26.1759  -29.4687   21.1009 C   0  0  0  0  0  0  0  0  0  0  0  0
  -22.4927   -7.8035   21.4055 C   0  0  0  0  0  0  0  0  0  0  0  0
  -27.6256  -27.9980   19.8182 C   0  0  0  0  0  0  0  0  0  0  0  0
  -21.3498   -6.8227   23.2094 C   0  0  0  0  0  0  0  0  0  0  0  0
  -20.4654   -6.9733   25.8510 C   0  0  0  0  0  0  0  0  0  0  0  0
  -22.2720   -6.9603   24.2469 C   0  0  0  0  0  0  0  0  0  0  0  0
  -24.6845  -11.0832   19.8767 C   0  0  0  0  0  0  0  0  0  0  0  0
  -27.2477  -18.7462   19.6144 C   0  0  0  0  0  0  0  0  0  0  0  0
  -25.4603  -12.7078   18.6143 C   0  0  0  0  0  0  0  0  0  0  0  0
  -28.0557  -20.7565   19.2739 C   0  0  0  0  0  0  0  0  0  0  0  0
  -23.5917  -11.4151   17.5722 C   0  0  0  0  0  0  0  0  0  0  0  0
  -30.5904  -23.4934   19.7908 C   0  0  0  0  0  0  0  0  0  0  0  0
  -29.9941  -22.1365   20.0375 C   0  0  0  0  0  0  0  0  0  0  0  0
  -24.3940  -32.3089   20.4792 C   0  0  0  0  0  0  0  0  0  0  0  0
  -24.2199  -31.5656   23.6318 C   0  0  0  0  0  0  0  0  0  0  0  0
  -25.1698  -29.5022   26.1787 C   0  0  0  0  0  0  0  0  0  0  0  0
  -28.1361  -16.9129   21.0963 C   0  0  0  0  0  0  0  0  0  0  0  0
  -21.6516  -36.3372   18.9595 C   0  0  0  0  0  0  0  0  0  0  0  0
  -23.7886  -29.8634   20.3869 C   0  0  0  0  0  0  0  0  0  0  0  0
  -25.9942  -30.3771   22.2885 C   0  0  0  0  0  0  0  0  0  0  0  0
  -22.4000  -35.9426   20.2301 C   0  0  0  0  0  0  0  0  0  0  0  0
  -29.3316  -13.6223   21.7446 C   0  0  0  0  0  0  0  0  0  0  0  0
  -23.8049  -35.4538   19.8922 C   0  0  0  0  0  0  0  0  0  0  0  0
  -28.2154  -12.7199   21.2136 C   0  0  0  0  0  0  0  0  0  0  0  0
  -28.7766  -14.8905   22.3905 C   0  0  0  0  0  0  0  0  0  0  0  0
  -26.7337  -14.7581   21.0200 C   0  0  0  0  0  0  0  0  0  0  0  0
  -23.7557  -34.2064   19.0017 C   0  0  1  0  0  0  0  0  0  0  0  0
  -23.8410  -31.1322   21.2322 C   0  0  1  0  0  0  0  0  0  0  0  0
  -27.2465  -13.4987   20.3025 C   0  0  2  0  0  0  0  0  0  0  0  0
  -24.8963  -29.1698   28.6510 C   0  0  0  0  0  0  0  0  0  0  0  0
  -26.1562  -33.8654   24.1528 C   0  0  0  0  0  0  0  0  0  0  0  0
  -26.5776  -32.9037   26.4256 C   0  0  0  0  0  0  0  0  0  0  0  0
  -24.2890  -33.6790   25.8060 C   0  0  0  0  0  0  0  0  0  0  0  0
  -31.3283  -25.6430   21.8452 C   0  0  0  0  0  0  0  0  0  0  0  0
  -23.9283  -26.8422   25.8011 C   0  0  0  0  0  0  0  0  0  0  0  0
  -29.7206  -24.6892   20.1149 C   0  0  0  0  0  0  0  0  0  0  0  0
  -29.6041  -27.1287   20.8110 C   0  0  0  0  0  0  0  0  0  1  0  0
  -25.1967  -31.5527   24.7828 C   0  0  1  0  0  0  0  0  0  0  0  0
  -24.3691  -28.8141   27.2696 C   0  0  2  0  0  0  0  0  0  0  0  0
  -25.5592  -32.9846   25.2684 C   0  0  0  0  0  0  0  0  0  0  0  0
  -30.5150  -25.9176   20.5806 C   0  0  1  0  0  0  0  0  0  0  0  0
  -25.6576  -11.6372   20.6049 N   0  0  0  0  0  0  0  0  0  0  0  0
  -28.2546  -19.6365   19.9328 N   0  0  0  0  0  0  0  0  0  0  0  0
  -26.1102  -12.6220   19.8103 N   0  0  0  0  0  0  0  0  0  0  0  0
  -24.6571  -30.9750   22.4378 N   0  0  0  0  0  0  0  0  0  0  0  0
  -27.8704  -15.5779   21.4679 N   0  0  0  0  0  0  0  0  0  0  0  0
  -25.7889  -13.6419   17.6967 N   0  0  0  0  0  0  0  0  0  0  0  0
  -22.6912  -10.3559   17.7496 N   0  0  0  0  0  0  0  0  0  0  0  0
  -27.2242  -17.4512   20.1889 N   0  0  0  0  0  0  0  0  0  0  0  0
  -28.8453  -21.9295   19.3039 N   0  0  0  0  0  0  0  0  0  0  0  0
  -23.4409  -33.0345   19.7904 N   0  0  0  0  0  0  0  0  0  0  0  0
  -24.6042  -30.7049   25.8116 N   0  0  0  0  0  0  0  0  0  0  0  0
  -24.4375  -27.3342   27.1072 N   0  3  0  0  0  0  0  0  0  0  0  0
  -23.5753  -12.0614   16.4972 O   0  0  0  0  0  0  0  0  0  0  0  0
  -31.7170  -23.5320   19.3191 O   0  0  0  0  0  0  0  0  0  0  0  0
  -30.5971  -21.4077   20.8080 O   0  0  0  0  0  0  0  0  0  0  0  0
  -25.5963  -32.5422   20.5212 O   0  0  0  0  0  0  0  0  0  0  0  0
  -23.1072  -32.0744   23.7887 O   0  0  0  0  0  0  0  0  0  0  0  0
  -26.1964  -29.0226   25.7028 O   0  0  0  0  0  0  0  0  0  0  0  0
  -29.1168  -17.5239   21.5286 O   0  0  0  0  0  0  0  0  0  0  0  0
  -21.7871   -6.7487   21.8976 O   0  0  0  0  0  0  0  0  0  0  0  0
  -28.8365  -27.4032   19.6398 O   0  0  0  0  0  0  0  0  0  1  0  0
  -20.0406   -7.0470   27.1191 F   0  0  0  0  0  0  0  0  0  0  0  0
  -23.5839   -7.0218   23.9808 F   0  0  0  0  0  0  0  0  0  0  0  0
  -31.3929  -26.2596   19.5901 F   0  0  0  0  0  0  0  0  0  0  0  0
  -26.6767  -20.8085   18.2539 S   0  0  0  0  0  0  0  0  0  0  0  0
  1  2  1  0  0  0  0
  1  5  2  0  0  0  0
  2  6  2  0  0  0  0
  3  8  2  0  0  0  0
  3 16  1  0  0  0  0
  4  9  1  0  0  0  0
  4 16  2  0  0  0  0
  5 18  1  0  0  0  0
  6 20  1  0  0  0  0
  7 10  2  0  0  0  0
  7 19  1  0  0  0  0
  8 22  1  0  0  0  0
  9 22  2  0  0  0  0
 10 23  1  0  0  0  0
 11 12  2  0  0  0  0
 11 24  1  0  0  0  0
 12 25  1  0  0  0  0
 13 21  1  0  0  0  0
 13 23  2  0  0  0  0
 14 25  2  0  0  0  0
 14 26  1  0  0  0  0
 15 28  2  0  0  0  0
 15 86  1  0  0  0  0
 16 27  1  0  0  0  0
 17 27  1  0  0  0  0
 17 29  2  0  0  0  0
 17 31  1  0  0  0  0
 18 20  2  0  0  0  0
 18 38  1  0  0  0  0
 19 21  2  0  0  0  0
 19 39  1  0  0  0  0
 20 47  1  0  0  0  0
 21 40  1  0  0  0  0
 22 81  1  0  0  0  0
 23 82  1  0  0  0  0
 24 26  2  0  0  0  0
 24 81  1  0  0  0  0
 25 83  1  0  0  0  0
 26 84  1  0  0  0  0
 27 62  2  0  0  0  0
 28 63  1  0  0  0  0
 28 69  1  0  0  0  0
 29 64  1  0  0  0  0
 29 67  1  0  0  0  0
 30 63  2  0  0  0  0
 30 70  1  0  0  0  0
 30 86  1  0  0  0  0
 31 68  1  0  0  0  0
 31 74  2  0  0  0  0
 32 33  1  0  0  0  0
 32 56  1  0  0  0  0
 32 75  2  0  0  0  0
 33 70  1  0  0  0  0
 33 76  2  0  0  0  0
 34 48  1  0  0  0  0
 34 71  1  0  0  0  0
 34 77  2  0  0  0  0
 35 58  1  0  0  0  0
 35 65  1  0  0  0  0
 35 78  2  0  0  0  0
 36 59  1  0  0  0  0
 36 72  1  0  0  0  0
 36 79  2  0  0  0  0
 37 66  1  0  0  0  0
 37 69  1  0  0  0  0
 37 80  2  0  0  0  0
 38 41  1  0  0  0  0
 39 48  1  0  0  0  0
 40 65  1  0  0  0  0
 41 43  1  0  0  0  0
 42 44  1  0  0  0  0
 42 45  1  0  0  0  0
 43 47  1  0  0  0  0
 44 49  1  0  0  0  0
 45 66  1  0  0  0  0
 46 49  1  0  0  0  0
 46 66  1  0  0  0  0
 47 71  1  0  0  0  0
 48 65  1  0  0  0  0
 49 64  1  0  0  0  0
 50 59  1  0  0  0  0
 51 60  1  0  0  0  0
 52 60  1  0  0  0  0
 53 60  1  0  0  0  0
 54 61  1  0  0  0  0
 55 73  1  0  0  0  0
 56 61  1  0  0  0  0
 57 61  1  0  0  0  0
 57 82  1  0  0  0  0
 58 60  1  0  0  0  0
 58 72  1  0  0  0  0
 59 73  1  0  0  0  0
 61 85  1  0  0  0  0
 62 64  1  0  0  0  0
M  CHG  1  73   1
M  ISO  4  37 100  57 101  69 100  82 101
M  END
> <Batch ID>
0169

> <Smiles>
CNC(C)C(=O)NC(C(=O)N1Cc2cc([101O:1][101CH2:1]C(C)(F)CC(=O)C(=O)Nc3nc([100NH:0][100C:0](=O)N4CCCC(n5nc(-c6ccc(Oc7ccc(F)cc7F)cc6)c(C(N)=O)c5N)C4)cs3)ccc2CC1C(=O)NC1CCCc2ccccc21)C(C)(C)C

> <Shape>
0.288

> <Color>
0.113

> <Negative vol penalty>
0.000

$$$$

  -OEChem-04052304173D

 87 95  0     1  0  0  0  0  0999 V2000
  -34.2992  -31.6097   25.1238 C   0  0  0  0  0  0  0  0  0  0  0  0
  -33.6719  -30.3941   25.3774 C   0  0  0  0  0  0  0  0  0  0  0  0
  -32.6738  -17.4166   23.4312 C   0  0  0  0  0  0  0  0  0  0  0  0
  -23.0002   -9.8944   19.9813 C   0  0  0  0  0  0  0  0  0  0  0  0
  -23.7257   -9.9451   22.2852 C   0  0  0  0  0  0  0  0  0  0  0  0
  -35.6351  -31.6337   24.7255 C   0  0  0  0  0  0  0  0  0  0  0  0
  -34.3801  -29.2017   25.2319 C   0  0  0  0  0  0  0  0  0  0  0  0
  -33.6033  -25.9992   29.0771 C   0  0  0  0  0  0  0  0  0  0  0  0
  -32.0612  -16.5296   22.5459 C   0  0  0  0  0  0  0  0  0  0  0  0
  -31.9009  -18.3242   24.1555 C   0  0  0  0  0  0  0  0  0  0  0  0
  -22.2335   -8.7601   20.2476 C   0  0  0  0  0  0  0  0  0  0  0  0
  -22.9589   -8.8108   22.5516 C   0  0  0  0  0  0  0  0  0  0  0  0
  -32.4082  -25.2812   29.0763 C   0  0  0  0  0  0  0  0  0  0  0  0
  -23.2023   -5.4719   22.0796 C   0  0  0  0  0  0  0  0  0  0  0  0
  -23.7897   -4.4545   22.8315 C   0  0  0  0  0  0  0  0  0  0  0  0
  -33.5705  -23.3594   28.1958 C   0  0  0  0  0  0  0  0  0  0  0  0
  -22.0661   -4.6978   24.5070 C   0  0  0  0  0  0  0  0  0  0  0  0
  -23.7464  -10.4869   21.0000 C   0  0  0  0  0  0  0  0  0  0  0  0
  -29.9030  -17.4580   23.1092 C   0  0  0  0  0  0  0  0  0  0  0  0
  -24.1324  -13.0024   20.8241 C   0  0  0  0  0  0  0  0  0  0  0  0
  -36.3627  -30.4415   24.5843 C   0  0  0  0  0  0  0  0  0  0  0  0
  -34.7909  -25.4052   28.6263 C   0  0  0  0  0  0  0  0  0  0  0  0
  -35.7266  -29.2097   24.8301 C   0  0  0  0  0  0  0  0  0  0  0  0
  -34.7798  -24.0712   28.1943 C   0  0  0  0  0  0  0  0  0  0  0  0
  -30.6758  -16.5503   22.3848 C   0  0  0  0  0  0  0  0  0  0  0  0
  -30.5155  -18.3449   23.9945 C   0  0  0  0  0  0  0  0  0  0  0  0
  -22.2127   -8.2183   21.5328 C   0  0  0  0  0  0  0  0  0  0  0  0
  -32.3911  -23.9620   28.6328 C   0  0  0  0  0  0  0  0  0  0  0  0
  -22.0468   -6.1023   22.5413 C   0  0  0  0  0  0  0  0  0  0  0  0
  -23.2216   -4.0674   24.0452 C   0  0  0  0  0  0  0  0  0  0  0  0
  -21.4787   -5.7152   23.7550 C   0  0  0  0  0  0  0  0  0  0  0  0
  -24.5392  -11.6583   20.7254 C   0  0  0  0  0  0  0  0  0  0  0  0
  -25.2423  -13.7247   20.4596 C   0  0  0  0  0  0  0  0  0  0  0  0
  -28.4518  -17.4808   22.9399 C   0  0  0  0  0  0  0  0  0  0  0  0
  -22.8646  -13.5491   21.2108 C   0  0  0  0  0  0  0  0  0  0  0  0
  -29.2396  -21.0288   26.2658 C   0  0  0  0  0  0  0  0  0  0  0  0
  -29.6222  -22.0850   27.2841 C   0  0  0  0  0  0  0  0  0  0  0  0
  -36.8337  -25.9884   26.2619 C   0  0  0  0  0  0  0  0  0  0  0  0
  -38.5425  -23.6217   27.6765 C   0  0  0  0  0  0  0  0  0  0  0  0
  -38.5565  -20.8554   29.6750 C   0  0  0  0  0  0  0  0  0  0  0  0
  -30.7220  -14.6844   20.6930 C   0  0  0  0  0  0  0  0  0  0  0  0
  -37.7911  -30.5152   24.1057 C   0  0  0  0  0  0  0  0  0  0  0  0
  -36.0768  -26.1847   28.6587 C   0  0  0  0  0  0  0  0  0  0  0  0
  -36.0314  -23.3810   27.7195 C   0  0  0  0  0  0  0  0  0  0  0  0
  -38.5782  -29.2280   24.3374 C   0  0  0  0  0  0  0  0  0  0  0  0
  -29.6028  -12.2319   18.3671 C   0  0  0  0  0  0  0  0  0  0  0  0
  -37.7633  -28.0169   23.8948 C   0  0  0  0  0  0  0  0  0  0  0  0
  -28.1522  -11.9746   18.7814 C   0  0  0  0  0  0  0  0  0  0  0  0
  -30.5036  -12.4750   19.5767 C   0  0  0  0  0  0  0  0  0  0  0  0
  -28.5886  -13.2643   20.9105 C   0  0  0  0  0  0  0  0  0  0  0  0
  -36.4684  -27.8964   24.7073 C   0  0  1  0  0  0  0  0  0  0  0  0
  -37.1280  -25.6437   27.6945 C   0  0  1  0  0  0  0  0  0  0  0  0
  -27.6307  -13.0783   19.7224 C   0  0  2  0  0  0  0  0  0  0  0  0
  -27.6416  -16.5998   23.8406 C   0  0  0  0  0  0  0  0  0  0  0  0
  -40.0980  -19.1139   30.6175 C   0  0  0  0  0  0  0  0  0  0  0  0
  -38.6284  -22.2318   24.9616 C   0  0  0  0  0  0  0  0  0  0  0  0
  -39.3128  -20.1300   26.1373 C   0  0  0  0  0  0  0  0  0  0  0  0
  -40.7737  -22.1492   26.2442 C   0  0  0  0  0  0  0  0  0  0  0  0
  -37.9439  -21.6530   32.4584 C   0  0  0  0  0  0  0  0  0  0  0  0
  -30.3392  -20.1998   25.6539 C   0  0  0  0  0  0  0  0  0  0  0  0
  -31.0796  -22.2477   27.6343 C   0  0  0  0  0  0  0  0  0  1  0  0
  -38.6036  -22.1194   27.5409 C   0  0  1  0  0  0  0  0  0  0  0  0
  -39.4377  -20.4644   30.8477 C   0  0  2  0  0  0  0  0  0  0  0  0
  -39.3055  -21.6709   26.2281 C   0  0  0  0  0  0  0  0  0  0  0  0
  -25.8084  -11.5315   20.3290 N   0  0  0  0  0  0  0  0  0  0  0  0
  -26.2086  -12.8052   20.1754 N   0  0  0  0  0  0  0  0  0  0  0  0
  -37.2626  -24.1872   27.7642 N   0  0  0  0  0  0  0  0  0  0  0  0
  -29.9489  -13.5361   20.4202 N   0  0  0  0  0  0  0  0  0  0  0  0
  -25.4761  -15.0504   20.3576 N   0  0  0  0  0  0  0  0  0  0  0  0
  -21.8326  -12.6652   21.5544 N   0  0  0  0  0  0  0  0  0  0  0  0
  -30.0781  -15.6397   21.4786 N   0  0  0  0  0  0  0  0  0  0  0  0
  -29.7681  -19.2567   24.7244 N   0  0  0  0  0  0  0  0  0  0  0  0
  -36.7429  -27.3453   26.0170 N   0  0  0  0  0  0  0  0  0  0  0  0
  -39.2395  -21.6253   28.7574 N   0  0  0  0  0  0  0  0  0  0  0  0
  -38.6309  -20.3860   32.0983 N   0  3  0  0  0  0  0  0  0  0  0  0
  -27.8547  -18.1647   22.1117 O   0  0  0  0  0  0  0  0  0  0  0  0
  -22.6482  -14.7845   21.2346 O   0  0  0  0  0  0  0  0  0  0  0  0
  -28.0492  -20.9159   26.0013 O   0  0  0  0  0  0  0  0  0  0  0  0
  -28.7186  -22.7517   27.7719 O   0  0  0  0  0  0  0  0  0  0  0  0
  -36.7005  -25.0899   25.4393 O   0  0  0  0  0  0  0  0  0  0  0  0
  -39.5921  -24.2690   27.7108 O   0  0  0  0  0  0  0  0  0  0  0  0
  -37.3811  -20.5092   29.5805 O   0  0  0  0  0  0  0  0  0  0  0  0
  -31.8607  -14.8231   20.2388 O   0  0  0  0  0  0  0  0  0  0  0  0
  -21.4644   -7.1116   21.7932 O   0  0  0  0  0  0  0  0  0  0  0  0
  -31.2259  -23.2591   28.6303 O   0  0  0  0  0  0  0  0  0  1  0  0
  -23.7848   -3.0893   24.7665 F   0  0  0  0  0  0  0  0  0  0  0  0
  -20.3680   -6.3163   24.2032 F   0  0  0  0  0  0  0  0  0  0  0  0
  1  2  1  0  0  0  0
  1  6  2  0  0  0  0
  2  7  2  0  0  0  0
  3  9  1  0  0  0  0
  3 10  2  0  0  0  0
  4 11  2  0  0  0  0
  4 18  1  0  0  0  0
  5 12  1  0  0  0  0
  5 18  2  0  0  0  0
  6 21  1  0  0  0  0
  7 23  1  0  0  0  0
  8 13  2  0  0  0  0
  8 22  1  0  0  0  0
  9 25  2  0  0  0  0
 10 26  1  0  0  0  0
 11 27  1  0  0  0  0
 12 27  2  0  0  0  0
 13 28  1  0  0  0  0
 14 15  2  0  0  0  0
 14 29  1  0  0  0  0
 15 30  1  0  0  0  0
 16 24  1  0  0  0  0
 16 28  2  0  0  0  0
 17 30  2  0  0  0  0
 17 31  1  0  0  0  0
 18 32  1  0  0  0  0
 19 25  1  0  0  0  0
 19 26  2  0  0  0  0
 19 34  1  0  0  0  0
 20 32  1  0  0  0  0
 20 33  2  0  0  0  0
 20 35  1  0  0  0  0
 21 23  2  0  0  0  0
 21 42  1  0  0  0  0
 22 24  2  0  0  0  0
 22 43  1  0  0  0  0
 23 51  1  0  0  0  0
 24 44  1  0  0  0  0
 25 71  1  0  0  0  0
 26 72  1  0  0  0  0
 27 84  1  0  0  0  0
 28 85  1  0  0  0  0
 29 31  2  0  0  0  0
 29 84  1  0  0  0  0
 30 86  1  0  0  0  0
 31 87  1  0  0  0  0
 32 65  2  0  0  0  0
 33 66  1  0  0  0  0
 33 69  1  0  0  0  0
 34 54  1  0  0  0  0
 34 76  2  0  0  0  0
 35 70  1  0  0  0  0
 35 77  2  0  0  0  0
 36 37  1  0  0  0  0
 36 60  1  0  0  0  0
 36 78  2  0  0  0  0
 37 61  1  0  0  0  0
 37 79  2  0  0  0  0
 38 52  1  0  0  0  0
 38 73  1  0  0  0  0
 38 80  2  0  0  0  0
 39 62  1  0  0  0  0
 39 67  1  0  0  0  0
 39 81  2  0  0  0  0
 40 63  1  0  0  0  0
 40 74  1  0  0  0  0
 40 82  2  0  0  0  0
 41 68  1  0  0  0  0
 41 71  1  0  0  0  0
 41 83  2  0  0  0  0
 42 45  1  0  0  0  0
 43 52  1  0  0  0  0
 44 67  1  0  0  0  0
 45 47  1  0  0  0  0
 46 48  1  0  0  0  0
 46 49  1  0  0  0  0
 47 51  1  0  0  0  0
 48 53  1  0  0  0  0
 49 68  1  0  0  0  0
 50 53  1  0  0  0  0
 50 68  1  0  0  0  0
 51 73  1  0  0  0  0
 52 67  1  0  0  0  0
 53 66  1  0  0  0  0
 55 63  1  0  0  0  0
 56 64  1  0  0  0  0
 57 64  1  0  0  0  0
 58 64  1  0  0  0  0
 59 75  1  0  0  0  0
 60 72  1  0  0  0  0
 61 85  1  0  0  0  0
 62 64  1  0  0  0  0
 62 74  1  0  0  0  0
 63 75  1  0  0  0  0
 65 66  1  0  0  0  0
M  CHG  1  75   1
M  ISO  4  41 100  61 101  71 100  85 101
M  END
> <Batch ID>
0169

> <Smiles>
CNC(C)C(=O)NC(C(=O)N1Cc2cc([101O:1][101CH2:1]C(=O)C(=O)CNc3cccc([100NH:0][100C:0](=O)N4CCCC(n5nc(-c6ccc(Oc7ccc(F)cc7F)cc6)c(C(N)=O)c5N)C4)c3C(C)=O)ccc2CC1C(=O)NC1CCCc2ccccc21)C(C)(C)C

> <Shape>
0.173

> <Color>
0.189

> <Negative vol penalty>
0.000

$$$$

  -OEChem-04052304173D

 86 94  0     1  0  0  0  0  0999 V2000
  -27.4465  -32.7912   27.4361 C   0  0  0  0  0  0  0  0  0  0  0  0
  -27.6356  -31.6679   26.6374 C   0  0  0  0  0  0  0  0  0  0  0  0
  -23.3363   -9.7315   21.3550 C   0  0  0  0  0  0  0  0  0  0  0  0
  -24.0911  -10.6506   23.4579 C   0  0  0  0  0  0  0  0  0  0  0  0
  -26.1711  -33.3355   27.5807 C   0  0  0  0  0  0  0  0  0  0  0  0
  -26.5492  -31.0877   25.9837 C   0  0  0  0  0  0  0  0  0  0  0  0
  -27.5791  -29.9197   21.1649 C   0  0  0  0  0  0  0  0  0  0  0  0
  -22.6846   -8.7045   22.0377 C   0  0  0  0  0  0  0  0  0  0  0  0
  -23.4393   -9.6237   24.1407 C   0  0  0  0  0  0  0  0  0  0  0  0
  -28.3250  -28.7644   20.9353 C   0  0  0  0  0  0  0  0  0  0  0  0
  -19.8061   -8.2959   23.7641 C   0  0  0  0  0  0  0  0  0  0  0  0
  -18.5073   -7.9766   23.3683 C   0  0  0  0  0  0  0  0  0  0  0  0
  -29.5228  -18.4401   21.2988 C   0  0  0  0  0  0  0  0  0  0  0  0
  -31.4186  -19.8161   21.8896 C   0  0  0  0  0  0  0  0  0  0  0  0
  -26.2983  -27.5685   20.4048 C   0  0  0  0  0  0  0  0  0  0  0  0
  -31.7670  -17.5948   21.0055 C   0  0  0  0  0  0  0  0  0  0  0  0
  -19.2183   -5.7264   22.8505 C   0  0  0  0  0  0  0  0  0  0  0  0
  -24.0397  -10.7045   22.0651 C   0  0  0  0  0  0  0  0  0  0  0  0
  -30.0386  -19.6391   21.7905 C   0  0  0  0  0  0  0  0  0  0  0  0
  -24.1834  -13.0193   21.0027 C   0  0  0  0  0  0  0  0  0  0  0  0
  -25.0700  -32.7674   26.9207 C   0  0  0  0  0  0  0  0  0  0  0  0
  -26.1837  -29.9051   21.0266 C   0  0  0  0  0  0  0  0  0  0  0  0
  -25.2576  -31.6242   26.1206 C   0  0  0  0  0  0  0  0  0  0  0  0
  -25.5372  -28.7255   20.6308 C   0  0  0  0  0  0  0  0  0  0  0  0
  -30.3870  -17.4179   20.9064 C   0  0  0  0  0  0  0  0  0  0  0  0
  -22.7360   -8.6507   23.4306 C   0  0  0  0  0  0  0  0  0  0  0  0
  -27.6844  -27.5878   20.5579 C   0  0  0  0  0  0  0  0  0  0  0  0
  -20.8111   -7.3305   23.7031 C   0  0  0  0  0  0  0  0  0  0  0  0
  -18.2134   -6.6919   22.9115 C   0  0  0  0  0  0  0  0  0  0  0  0
  -32.2829  -18.7939   21.4971 C   0  0  0  0  0  0  0  0  0  0  0  0
  -20.5172   -6.0458   23.2463 C   0  0  0  0  0  0  0  0  0  0  0  0
  -24.7137  -11.7652   21.3603 C   0  0  0  0  0  0  0  0  0  0  0  0
  -25.2140  -13.6560   20.3555 C   0  0  0  0  0  0  0  0  0  0  0  0
  -28.1432  -25.3595   21.1009 C   0  0  0  0  0  0  0  0  0  1  0  0
  -29.1239  -20.7215   22.2074 C   0  0  0  0  0  0  0  0  0  0  0  0
  -22.8761  -13.5604   21.2349 C   0  0  0  0  0  0  0  0  0  0  0  0
  -28.7940  -24.1985   20.9669 C   0  0  0  0  0  0  0  0  0  0  0  0
  -28.4204  -23.0732   21.8559 C   0  0  0  0  0  0  0  0  0  0  0  0
  -23.7302  -30.4056   22.9846 C   0  0  0  0  0  0  0  0  0  0  0  0
  -21.9988  -30.1281   20.2555 C   0  0  0  0  0  0  0  0  0  0  0  0
  -21.7831  -28.9184   17.0717 C   0  0  0  0  0  0  0  0  0  0  0  0
  -30.5817  -15.0860   19.9730 C   0  0  0  0  0  0  0  0  0  0  0  0
  -23.7027  -33.3629   27.1452 C   0  0  0  0  0  0  0  0  0  0  0  0
  -25.3961  -31.1666   21.2520 C   0  0  0  0  0  0  0  0  0  0  0  0
  -24.0434  -28.6626   20.4487 C   0  0  0  0  0  0  0  0  0  0  0  0
  -22.6660  -32.9119   26.1195 C   0  0  0  0  0  0  0  0  0  0  0  0
  -29.6615  -11.8876   18.7079 C   0  0  0  0  0  0  0  0  0  0  0  0
  -22.7367  -31.4015   25.9177 C   0  0  0  0  0  0  0  0  0  0  0  0
  -28.2486  -11.6738   19.2557 C   0  0  0  0  0  0  0  0  0  0  0  0
  -30.5548  -12.6151   19.7112 C   0  0  0  0  0  0  0  0  0  0  0  0
  -28.5957  -13.6625   20.7762 C   0  0  0  0  0  0  0  0  0  0  0  0
  -24.1081  -30.9810   25.3756 C   0  0  1  0  0  0  0  0  0  0  0  0
  -23.9297  -30.9046   21.5814 C   0  0  1  0  0  0  0  0  0  0  0  0
  -27.6405  -12.9911   19.7759 C   0  0  2  0  0  0  0  0  0  0  0  0
  -20.2306  -28.8204   15.1026 C   0  0  0  0  0  0  0  0  0  0  0  0
  -20.3385  -27.9969   21.6738 C   0  0  0  0  0  0  0  0  0  0  0  0
  -19.4703  -27.2837   19.4364 C   0  0  0  0  0  0  0  0  0  0  0  0
  -19.0142  -29.5894   20.2722 C   0  0  0  0  0  0  0  0  0  0  0  0
  -23.6998  -30.3642   15.3411 C   0  0  0  0  0  0  0  0  0  0  0  0
  -21.3490  -28.9854   19.5133 C   0  0  1  0  0  0  0  0  0  0  0  0
  -21.3678  -29.5786   15.7693 C   0  0  2  0  0  0  0  0  0  0  0  0
  -20.0709  -28.4642   20.2291 C   0  0  0  0  0  0  0  0  0  0  0  0
  -25.9825  -11.6123   20.9723 N   0  0  0  0  0  0  0  0  0  0  0  0
  -26.2582  -12.7786   20.3641 N   0  0  0  0  0  0  0  0  0  0  0  0
  -23.3166  -29.9206   20.6870 N   0  0  0  0  0  0  0  0  0  0  0  0
  -29.9161  -13.8555   20.1565 N   0  0  0  0  0  0  0  0  0  0  0  0
  -25.3199  -14.8751   19.7855 N   0  0  0  0  0  0  0  0  0  0  0  0
  -21.9379  -12.7722   21.9153 N   0  0  0  0  0  0  0  0  0  0  0  0
  -29.8632  -16.2002   20.4056 N   0  0  0  0  0  0  0  0  0  0  0  0
  -29.2153  -21.9025   21.5800 N   0  0  0  0  0  0  0  0  0  0  0  0
  -24.2004  -31.2647   23.9594 N   0  0  0  0  0  0  0  0  0  0  0  0
  -21.1203  -29.4599   18.1528 N   0  0  0  0  0  0  0  0  0  0  0  0
  -28.2570  -20.4592   23.1849 N   0  3  0  0  0  0  0  0  0  0  0  0
  -22.5184  -29.6273   14.8233 N   0  3  0  0  0  0  0  0  0  0  0  0
  -22.5444  -14.7025   20.8360 O   0  0  0  0  0  0  0  0  0  0  0  0
  -27.5585  -23.0964   22.7192 O   0  0  0  0  0  0  0  0  0  0  0  0
  -23.1883  -29.3221   23.1691 O   0  0  0  0  0  0  0  0  0  0  0  0
  -21.3631  -31.1691   20.4393 O   0  0  0  0  0  0  0  0  0  0  0  0
  -22.6098  -28.0105   17.1242 O   0  0  0  0  0  0  0  0  0  0  0  0
  -31.6946  -15.1494   19.4445 O   0  0  0  0  0  0  0  0  0  0  0  0
  -29.7952  -24.0004   20.0416 O   0  0  0  0  0  0  0  0  0  0  0  0
  -22.0999   -7.6489   24.0972 O   0  0  0  0  0  0  0  0  0  0  0  0
  -28.4100  -26.4587   20.3338 O   0  0  0  0  0  0  0  0  0  1  0  0
  -16.9658   -6.3850   22.5328 F   0  0  0  0  0  0  0  0  0  0  0  0
  -33.6081  -18.9639   21.5924 F   0  0  0  0  0  0  0  0  0  0  0  0
  -21.4782   -5.1137   23.1865 F   0  0  0  0  0  0  0  0  0  0  0  0
  1  2  1  0  0  0  0
  1  5  2  0  0  0  0
  2  6  2  0  0  0  0
  3  8  2  0  0  0  0
  3 18  1  0  0  0  0
  4  9  1  0  0  0  0
  4 18  2  0  0  0  0
  5 21  1  0  0  0  0
  6 23  1  0  0  0  0
  7 10  2  0  0  0  0
  7 22  1  0  0  0  0
  8 26  1  0  0  0  0
  9 26  2  0  0  0  0
 10 27  1  0  0  0  0
 11 12  2  0  0  0  0
 11 28  1  0  0  0  0
 12 29  1  0  0  0  0
 13 19  2  0  0  0  0
 13 25  1  0  0  0  0
 14 19  1  0  0  0  0
 14 30  2  0  0  0  0
 15 24  1  0  0  0  0
 15 27  2  0  0  0  0
 16 25  2  0  0  0  0
 16 30  1  0  0  0  0
 17 29  2  0  0  0  0
 17 31  1  0  0  0  0
 18 32  1  0  0  0  0
 19 35  1  0  0  0  0
 20 32  1  0  0  0  0
 20 33  2  0  0  0  0
 20 36  1  0  0  0  0
 21 23  2  0  0  0  0
 21 43  1  0  0  0  0
 22 24  2  0  0  0  0
 22 44  1  0  0  0  0
 23 52  1  0  0  0  0
 24 45  1  0  0  0  0
 25 69  1  0  0  0  0
 26 82  1  0  0  0  0
 27 83  1  0  0  0  0
 28 31  2  0  0  0  0
 28 82  1  0  0  0  0
 29 84  1  0  0  0  0
 30 85  1  0  0  0  0
 31 86  1  0  0  0  0
 32 63  2  0  0  0  0
 33 64  1  0  0  0  0
 33 67  1  0  0  0  0
 34 37  2  0  0  0  0
 34 83  1  0  0  0  0
 35 70  1  0  0  0  0
 35 73  2  0  0  0  0
 36 68  1  0  0  0  0
 36 75  2  0  0  0  0
 37 38  1  0  0  0  0
 37 81  1  0  0  0  0
 38 70  1  0  0  0  0
 38 76  2  0  0  0  0
 39 53  1  0  0  0  0
 39 71  1  0  0  0  0
 39 77  2  0  0  0  0
 40 60  1  0  0  0  0
 40 65  1  0  0  0  0
 40 78  2  0  0  0  0
 41 61  1  0  0  0  0
 41 72  1  0  0  0  0
 41 79  2  0  0  0  0
 42 66  1  0  0  0  0
 42 69  1  0  0  0  0
 42 80  2  0  0  0  0
 43 46  1  0  0  0  0
 44 53  1  0  0  0  0
 45 65  1  0  0  0  0
 46 48  1  0  0  0  0
 47 49  1  0  0  0  0
 47 50  1  0  0  0  0
 48 52  1  0  0  0  0
 49 54  1  0  0  0  0
 50 66  1  0  0  0  0
 51 54  1  0  0  0  0
 51 66  1  0  0  0  0
 52 71  1  0  0  0  0
 53 65  1  0  0  0  0
 54 64  1  0  0  0  0
 55 61  1  0  0  0  0
 56 62  1  0  0  0  0
 57 62  1  0  0  0  0
 58 62  1  0  0  0  0
 59 74  1  0  0  0  0
 60 62  1  0  0  0  0
 60 72  1  0  0  0  0
 61 74  1  0  0  0  0
 63 64  1  0  0  0  0
M  CHG  2  73   1  74   1
M  ISO  4  34 101  42 100  69 100  83 101
M  END
> <Batch ID>
0169

> <Smiles>
CNC(C)C(=O)NC(C(=O)N1Cc2cc([101O:1][101CH2:1]C(=O)C(=O)NC(=N)c3cc(F)cc([100NH:0][100C:0](=O)N4CCCC(n5nc(-c6ccc(Oc7ccc(F)cc7F)cc6)c(C(N)=O)c5N)C4)c3)ccc2CC1C(=O)NC1CCCc2ccccc21)C(C)(C)C

> <Shape>
0.320

> <Color>
0.190

> <Negative vol penalty>
0.000

$$$$

  -OEChem-04052304173D

 84 92  0     1  0  0  0  0  0999 V2000
  -25.7996  -30.3554   21.4680 C   0  0  0  0  0  0  0  0  0  0  0  0
  -24.5744  -30.2769   22.1223 C   0  0  0  0  0  0  0  0  0  0  0  0
  -22.1772  -12.7684   21.9395 C   0  0  0  0  0  0  0  0  0  0  0  0
  -29.5567  -20.6400   20.9036 C   0  0  0  0  0  0  0  0  0  0  0  0
  -30.2333  -19.8048   18.7399 C   0  0  0  0  0  0  0  0  0  0  0  0
  -26.1001  -29.4589   20.4434 C   0  0  0  0  0  0  0  0  0  0  0  0
  -23.6485  -29.3024   21.7516 C   0  0  0  0  0  0  0  0  0  0  0  0
  -20.1753  -23.8007   26.0754 C   0  0  0  0  0  0  0  0  0  0  0  0
  -23.5148  -12.7839   21.5446 C   0  0  0  0  0  0  0  0  0  0  0  0
  -21.7281  -13.6569   22.9165 C   0  0  0  0  0  0  0  0  0  0  0  0
  -29.3512  -21.9043   20.3513 C   0  0  0  0  0  0  0  0  0  0  0  0
  -30.0278  -21.0691   18.1876 C   0  0  0  0  0  0  0  0  0  0  0  0
  -19.6175  -22.6866   26.7029 C   0  0  0  0  0  0  0  0  0  0  0  0
  -31.2354  -24.5514   19.4202 C   0  0  0  0  0  0  0  0  0  0  0  0
  -31.7250  -25.6522   20.1231 C   0  0  0  0  0  0  0  0  0  0  0  0
  -19.4964  -21.5373   24.5787 C   0  0  0  0  0  0  0  0  0  0  0  0
  -23.9544  -14.5764   23.1038 C   0  0  0  0  0  0  0  0  0  0  0  0
  -29.4851  -26.5427   20.2886 C   0  0  0  0  0  0  0  0  0  0  0  0
  -29.9978  -19.5903   20.0979 C   0  0  0  0  0  0  0  0  0  0  0  0
  -31.1013  -17.9437   21.7037 C   0  0  0  0  0  0  0  0  0  0  0  0
  -25.1813  -28.4668   20.0664 C   0  0  0  0  0  0  0  0  0  0  0  0
  -20.4103  -23.7815   24.6977 C   0  0  0  0  0  0  0  0  0  0  0  0
  -23.9364  -28.3926   20.7200 C   0  0  0  0  0  0  0  0  0  0  0  0
  -20.0664  -22.6456   23.9465 C   0  0  0  0  0  0  0  0  0  0  0  0
  -24.4035  -13.6879   22.1267 C   0  0  0  0  0  0  0  0  0  0  0  0
  -22.6167  -14.5609   23.4986 C   0  0  0  0  0  0  0  0  0  0  0  0
  -29.5867  -22.1189   18.9934 C   0  0  0  0  0  0  0  0  0  0  0  0
  -19.2787  -21.5579   25.9563 C   0  0  0  0  0  0  0  0  0  0  0  0
  -29.8707  -24.4462   19.1514 C   0  0  0  0  0  0  0  0  0  0  0  0
  -30.8499  -26.6478   20.5573 C   0  0  0  0  0  0  0  0  0  0  0  0
  -28.9956  -25.4419   19.5856 C   0  0  0  0  0  0  0  0  0  0  0  0
  -30.2108  -18.2842   20.6679 C   0  0  0  0  0  0  0  0  0  0  0  0
  -30.9277  -16.5920   21.8751 C   0  0  0  0  0  0  0  0  0  0  0  0
  -32.0045  -18.7748   22.4446 C   0  0  0  0  0  0  0  0  0  0  0  0
  -21.7066  -25.6103   21.6893 C   0  0  0  0  0  0  0  0  0  0  0  0
  -20.6689  -16.5770   25.9952 C   0  0  0  0  0  0  0  0  0  0  0  0
  -22.6257  -22.6955   21.4247 C   0  0  0  0  0  0  0  0  0  0  0  0
  -23.7924  -19.5035   21.7199 C   0  0  0  0  0  0  0  0  0  0  0  0
  -26.3701  -12.8890   20.7701 C   0  0  0  0  0  0  0  0  0  0  0  0
  -25.5318  -27.5501   18.9212 C   0  0  0  0  0  0  0  0  0  0  0  0
  -20.9523  -24.9818   23.9702 C   0  0  0  0  0  0  0  0  0  0  0  0
  -20.3052  -22.6828   22.4617 C   0  0  0  0  0  0  0  0  0  0  0  0
  -24.6468  -26.3089   18.8416 C   0  0  0  0  0  0  0  0  0  0  0  0
  -29.6767  -12.6426   19.4727 C   0  0  0  0  0  0  0  0  0  0  0  0
  -23.1778  -26.6899   18.9963 C   0  0  0  0  0  0  0  0  0  0  0  0
  -30.2719  -14.0285   19.7317 C   0  0  0  0  0  0  0  0  0  0  0  0
  -28.1984  -12.7218   19.0955 C   0  0  0  0  0  0  0  0  0  0  0  0
  -27.9526  -14.8600   20.2942 C   0  0  0  0  0  0  0  0  0  0  0  0
  -22.9159  -27.3337   20.3632 C   0  0  1  0  0  0  0  0  0  0  0  0
  -21.8738  -24.6097   22.7948 C   0  0  1  0  0  0  0  0  0  0  0  0
  -29.4233  -14.8267   20.7409 C   0  0  2  0  0  0  0  0  0  0  0  0
  -25.2099  -17.8067   20.5329 C   0  0  0  0  0  0  0  0  0  0  0  0
  -20.3538  -22.1804   19.4557 C   0  0  0  0  0  0  0  0  0  0  0  0
  -21.3809  -19.9508   18.9633 C   0  0  0  0  0  0  0  0  0  0  0  0
  -22.6455  -22.0423   18.4641 C   0  0  0  0  0  0  0  0  0  0  0  0
  -25.7121  -19.3637   23.9680 C   0  0  0  0  0  0  0  0  0  0  0  0
  -19.2740  -16.7387   26.5826 C   0  0  0  0  0  0  0  0  0  0  0  0
  -20.8086  -15.4989   24.9398 C   0  0  0  0  0  0  0  0  0  0  0  0
  -18.9817  -18.1435   27.1004 C   0  0  0  0  0  0  0  0  0  0  0  0
  -19.0063  -19.1953   25.9975 C   0  0  0  0  0  0  0  0  0  1  0  0
  -22.3378  -21.3240   20.8685 C   0  0  1  0  0  0  0  0  0  0  0  0
  -25.1862  -18.9220   21.5665 C   0  0  2  0  0  0  0  0  0  0  0  0
  -21.6724  -21.3814   19.4645 C   0  0  0  0  0  0  0  0  0  0  0  0
  -29.5227  -17.2336   20.2132 N   0  0  0  0  0  0  0  0  0  0  0  0
  -29.9810  -16.2196   20.9668 N   0  0  0  0  0  0  0  0  0  0  0  0
  -21.6111  -23.2983   22.1782 N   0  0  0  0  0  0  0  0  0  0  0  0
  -27.4567  -13.4886   20.0989 N   0  0  0  0  0  0  0  0  0  0  0  0
  -31.4942  -15.6976   22.7127 N   0  0  0  0  0  0  0  0  0  0  0  0
  -33.3084  -18.9434   21.9589 N   0  0  0  0  0  0  0  0  0  0  0  0
  -25.7623  -13.7031   21.7253 N   0  0  0  0  0  0  0  0  0  0  0  0
  -22.1697  -15.4442   24.4708 N   0  0  0  0  0  0  0  0  0  0  0  0
  -22.8546  -26.3211   21.3954 N   0  0  0  0  0  0  0  0  0  0  0  0
  -23.6021  -20.5966   20.9012 N   0  0  0  0  0  0  0  0  0  0  0  0
  -25.6625  -18.3688   22.8658 N   0  3  0  0  0  0  0  0  0  0  0  0
  -31.6704  -19.3377   23.5147 O   0  0  0  0  0  0  0  0  0  0  0  0
  -20.6170  -25.7286   21.1412 O   0  0  0  0  0  0  0  0  0  0  0  0
  -21.6220  -17.2569   26.3730 O   0  0  0  0  0  0  0  0  0  0  0  0
  -23.7175  -23.2229   21.1940 O   0  0  0  0  0  0  0  0  0  0  0  0
  -22.9548  -19.0327   22.4863 O   0  0  0  0  0  0  0  0  0  0  0  0
  -26.0229  -11.7286   20.5356 O   0  0  0  0  0  0  0  0  0  0  0  0
  -29.3861  -23.3523   18.4541 O   0  0  0  0  0  0  0  0  0  0  0  0
  -18.7386  -20.4720   26.5760 O   0  0  0  0  0  0  0  0  0  1  0  0
  -31.3199  -27.7041   21.2337 F   0  0  0  0  0  0  0  0  0  0  0  0
  -27.6833  -25.3457   19.3314 F   0  0  0  0  0  0  0  0  0  0  0  0
  1  2  1  0  0  0  0
  1  6  2  0  0  0  0
  2  7  2  0  0  0  0
  3  9  1  0  0  0  0
  3 10  2  0  0  0  0
  4 11  2  0  0  0  0
  4 19  1  0  0  0  0
  5 12  1  0  0  0  0
  5 19  2  0  0  0  0
  6 21  1  0  0  0  0
  7 23  1  0  0  0  0
  8 13  2  0  0  0  0
  8 22  1  0  0  0  0
  9 25  2  0  0  0  0
 10 26  1  0  0  0  0
 11 27  1  0  0  0  0
 12 27  2  0  0  0  0
 13 28  1  0  0  0  0
 14 15  2  0  0  0  0
 14 29  1  0  0  0  0
 15 30  1  0  0  0  0
 16 24  1  0  0  0  0
 16 28  2  0  0  0  0
 17 25  1  0  0  0  0
 17 26  2  0  0  0  0
 18 30  2  0  0  0  0
 18 31  1  0  0  0  0
 19 32  1  0  0  0  0
 20 32  1  0  0  0  0
 20 33  2  0  0  0  0
 20 34  1  0  0  0  0
 21 23  2  0  0  0  0
 21 40  1  0  0  0  0
 22 24  2  0  0  0  0
 22 41  1  0  0  0  0
 23 49  1  0  0  0  0
 24 42  1  0  0  0  0
 25 70  1  0  0  0  0
 26 71  1  0  0  0  0
 27 81  1  0  0  0  0
 28 82  1  0  0  0  0
 29 31  2  0  0  0  0
 29 81  1  0  0  0  0
 30 83  1  0  0  0  0
 31 84  1  0  0  0  0
 32 64  2  0  0  0  0
 33 65  1  0  0  0  0
 33 68  1  0  0  0  0
 34 69  1  0  0  0  0
 34 75  2  0  0  0  0
 35 50  1  0  0  0  0
 35 72  1  0  0  0  0
 35 76  2  0  0  0  0
 36 57  1  0  0  0  0
 36 58  1  0  0  0  0
 36 77  2  0  0  0  0
 37 61  1  0  0  0  0
 37 66  1  0  0  0  0
 37 78  2  0  0  0  0
 38 62  1  0  0  0  0
 38 73  1  0  0  0  0
 38 79  2  0  0  0  0
 39 67  1  0  0  0  0
 39 70  1  0  0  0  0
 39 80  2  0  0  0  0
 40 43  1  0  0  0  0
 41 50  1  0  0  0  0
 42 66  1  0  0  0  0
 43 45  1  0  0  0  0
 44 46  1  0  0  0  0
 44 47  1  0  0  0  0
 45 49  1  0  0  0  0
 46 51  1  0  0  0  0
 47 67  1  0  0  0  0
 48 51  1  0  0  0  0
 48 67  1  0  0  0  0
 49 72  1  0  0  0  0
 50 66  1  0  0  0  0
 51 65  1  0  0  0  0
 52 62  1  0  0  0  0
 53 63  1  0  0  0  0
 54 63  1  0  0  0  0
 55 63  1  0  0  0  0
 56 74  1  0  0  0  0
 57 59  1  0  0  0  0
 58 71  1  0  0  0  0
 59 60  1  0  0  0  0
 60 82  1  0  0  0  0
 61 63  1  0  0  0  0
 61 73  1  0  0  0  0
 62 74  1  0  0  0  0
 64 65  1  0  0  0  0
M  CHG  1  74   1
M  ISO  4  39 100  60 101  70 100  82 101
M  END
> <Batch ID>
0169

> <Smiles>
CNC(C)C(=O)NC(C(=O)N1Cc2cc([101O:1][101CH2:1]CCC(=O)CNc3cccc([100NH:0][100C:0](=O)N4CCCC(n5nc(-c6ccc(Oc7ccc(F)cc7F)cc6)c(C(N)=O)c5N)C4)c3)ccc2CC1C(=O)NC1CCCc2ccccc21)C(C)(C)C

> <Shape>
0.220

> <Color>
0.056

> <Negative vol penalty>
0.000

$$$$

  -OEChem-04052304173D

 87 95  0     1  0  0  0  0  0999 V2000
  -20.8473  -29.9245   24.9592 C   0  0  0  0  0  0  0  0  0  0  0  0
  -21.5055  -28.7384   25.2679 C   0  0  0  0  0  0  0  0  0  0  0  0
  -30.0164  -23.3542   19.1630 C   0  0  0  0  0  0  0  0  0  0  0  0
  -28.2960  -23.2176   20.8537 C   0  0  0  0  0  0  0  0  0  0  0  0
  -19.7705  -29.9128   24.0735 C   0  0  0  0  0  0  0  0  0  0  0  0
  -21.0866  -27.5396   24.6919 C   0  0  0  0  0  0  0  0  0  0  0  0
  -24.6182  -22.8157   23.0431 C   0  0  0  0  0  0  0  0  0  0  0  0
  -29.8852  -24.7427   19.1416 C   0  0  0  0  0  0  0  0  0  0  0  0
  -28.1648  -24.6061   20.8324 C   0  0  0  0  0  0  0  0  0  0  0  0
  -24.9231  -21.6086   23.6705 C   0  0  0  0  0  0  0  0  0  0  0  0
  -26.6893  -26.9394   18.8805 C   0  0  0  0  0  0  0  0  0  0  0  0
  -25.3988  -27.4680   18.8562 C   0  0  0  0  0  0  0  0  0  0  0  0
  -23.1853  -20.5174   22.4022 C   0  0  0  0  0  0  0  0  0  0  0  0
  -25.3048  -14.6480   24.6959 C   0  0  0  0  0  0  0  0  0  0  0  0
  -25.8297  -28.6154   20.9383 C   0  0  0  0  0  0  0  0  0  0  0  0
  -29.2218  -22.5916   20.0190 C   0  0  0  0  0  0  0  0  0  0  0  0
  -30.2168  -20.3967   20.8555 C   0  0  0  0  0  0  0  0  0  0  0  0
  -19.3444  -28.7147   23.4789 C   0  0  0  0  0  0  0  0  0  0  0  0
  -23.5856  -22.8851   22.0968 C   0  0  0  0  0  0  0  0  0  0  0  0
  -20.0023  -27.5116   23.7985 C   0  0  0  0  0  0  0  0  0  0  0  0
  -22.8710  -21.7260   21.7623 C   0  0  0  0  0  0  0  0  0  0  0  0
  -25.5537  -14.1746   23.3753 C   0  0  0  0  0  0  0  0  0  0  0  0
  -28.9594  -25.3687   19.9763 C   0  0  0  0  0  0  0  0  0  0  0  0
  -24.2047  -20.4598   23.3523 C   0  0  0  0  0  0  0  0  0  0  0  0
  -27.5501  -27.2486   19.9337 C   0  0  0  0  0  0  0  0  0  0  0  0
  -24.9690  -28.3061   19.8851 C   0  0  0  0  0  0  0  0  0  0  0  0
  -27.1203  -28.0866   20.9626 C   0  0  0  0  0  0  0  0  0  0  0  0
  -29.3565  -21.1572   20.0412 C   0  0  0  0  0  0  0  0  0  0  0  0
  -24.7932  -14.8363   22.4364 C   0  0  0  0  0  0  0  0  0  0  0  0
  -24.3634  -15.6537   24.7161 C   0  0  0  0  0  0  0  0  0  0  0  0
  -29.9668  -19.0946   20.4970 C   0  0  0  0  0  0  0  0  0  0  0  0
  -31.1578  -20.8285   21.8473 C   0  0  0  0  0  0  0  0  0  0  0  0
  -20.8275  -24.4525   21.8974 C   0  0  0  0  0  0  0  0  0  0  0  0
  -24.4467  -17.4544   26.2147 C   0  0  0  0  0  0  0  0  0  0  0  0
  -20.7629  -23.1723   18.9176 C   0  0  0  0  0  0  0  0  0  0  0  0
  -21.8012  -20.7044   16.8015 C   0  0  0  0  0  0  0  0  0  0  0  0
  -25.5938  -15.6680   18.8691 C   0  0  0  0  0  0  0  0  0  0  0  0
  -18.1457  -28.7446   22.5640 C   0  0  0  0  0  0  0  0  0  0  0  0
  -23.2868  -24.1892   21.4094 C   0  0  0  0  0  0  0  0  0  0  0  0
  -21.7666  -21.7431   20.7384 C   0  0  0  0  0  0  0  0  0  0  0  0
  -18.0019  -27.4892   21.7074 C   0  0  0  0  0  0  0  0  0  0  0  0
  -27.9921  -16.8884   16.5377 C   0  0  0  0  0  0  0  0  0  0  0  0
  -18.1896  -26.2376   22.5588 C   0  0  0  0  0  0  0  0  0  0  0  0
  -28.6684  -18.0429   17.2792 C   0  0  0  0  0  0  0  0  0  0  0  0
  -26.5027  -16.8037   16.8640 C   0  0  0  0  0  0  0  0  0  0  0  0
  -26.8628  -17.8940   19.0446 C   0  0  0  0  0  0  0  0  0  0  0  0
  -19.5932  -26.1948   23.1749 C   0  0  1  0  0  0  0  0  0  0  0  0
  -21.8739  -24.2533   20.8377 C   0  0  1  0  0  0  0  0  0  0  0  0
  -28.3773  -17.9855   18.7909 C   0  0  2  0  0  0  0  0  0  0  0  0
  -23.9923  -18.2931   27.3918 C   0  0  0  0  0  0  0  0  0  0  0  0
  -26.9202  -17.8316   26.4588 C   0  0  0  0  0  0  0  0  0  0  0  0
  -21.5513  -19.9030   14.4366 C   0  0  0  0  0  0  0  0  0  0  0  0
  -17.9946  -22.0759   19.5843 C   0  0  0  0  0  0  0  0  0  0  0  0
  -18.2076  -20.5374   17.6207 C   0  0  0  0  0  0  0  0  0  0  0  0
  -18.2191  -23.0077   17.2744 C   0  0  0  0  0  0  0  0  0  0  0  0
  -24.6938  -21.0257   16.2642 C   0  0  0  0  0  0  0  0  0  0  0  0
  -24.7553  -14.6452   20.9691 C   0  0  0  0  0  0  0  0  0  0  0  0
  -25.5577  -19.2922   24.9214 C   0  0  0  0  0  0  0  0  0  1  0  0
  -25.7322  -17.8887   25.5017 C   0  0  2  0  0  0  0  0  0  0  0  0
  -20.2354  -21.8926   18.3150 C   0  0  1  0  0  0  0  0  0  0  0  0
  -22.3680  -20.7567   15.3942 C   0  0  2  0  0  0  0  0  0  0  0  0
  -26.5206  -13.0955   23.0610 C   0  0  0  0  0  0  0  0  0  0  0  0
  -18.6836  -21.8782   18.2194 C   0  0  0  0  0  0  0  0  0  0  0  0
  -28.6154  -20.4013   19.2267 N   0  0  0  0  0  0  0  0  0  0  0  0
  -23.8641  -16.3598   25.8206 N   0  0  0  0  0  0  0  0  0  0  0  0
  -29.0094  -19.1521   19.5273 N   0  0  0  0  0  0  0  0  0  0  0  0
  -21.5079  -23.0435   20.0984 N   0  0  0  0  0  0  0  0  0  0  0  0
  -26.2953  -16.7505   18.3131 N   0  0  0  0  0  0  0  0  0  0  0  0
  -30.4747  -17.9174   20.9198 N   0  0  0  0  0  0  0  0  0  0  0  0
  -31.2888  -22.2026   22.0905 N   0  0  0  0  0  0  0  0  0  0  0  0
  -20.5660  -25.7780   22.1877 N   0  0  0  0  0  0  0  0  0  0  0  0
  -20.9146  -21.7346   17.0335 N   0  0  0  0  0  0  0  0  0  0  0  0
  -25.4473  -15.6920   20.2507 N   0  0  0  0  0  0  0  0  0  0  0  0
  -23.7736  -20.2616   15.3831 N   0  3  0  0  0  0  0  0  0  0  0  0
  -31.8734  -20.0209   22.4869 O   0  0  0  0  0  0  0  0  0  0  0  0
  -20.2956  -23.4760   22.4125 O   0  0  0  0  0  0  0  0  0  0  0  0
  -20.5287  -24.2461   18.3573 O   0  0  0  0  0  0  0  0  0  0  0  0
  -22.1110  -19.8345   17.6125 O   0  0  0  0  0  0  0  0  0  0  0  0
  -25.1368  -14.7456   18.1855 O   0  0  0  0  0  0  0  0  0  0  0  0
  -28.8313  -26.7235   19.9559 O   0  0  0  0  0  0  0  0  0  0  0  0
  -24.4998  -19.2804   23.9637 O   0  0  0  0  0  0  0  0  0  1  0  0
  -23.7302  -28.8150   19.8609 F   0  0  0  0  0  0  0  0  0  0  0  0
  -27.9431  -28.3883   21.9764 F   0  0  0  0  0  0  0  0  0  0  0  0
  -27.1617  -12.5859   24.1587 F   0  0  0  0  0  0  0  0  0  0  0  0
  -25.9585  -12.0066   22.4497 F   0  0  0  0  0  0  0  0  0  0  0  0
  -27.5200  -13.5024   22.2196 F   0  0  0  0  0  0  0  0  0  0  0  0
  -23.7841  -16.0230   23.1476 S   0  0  0  0  0  0  0  0  0  0  0  0
  1  2  1  0  0  0  0
  1  5  2  0  0  0  0
  2  6  2  0  0  0  0
  3  8  2  0  0  0  0
  3 16  1  0  0  0  0
  4  9  1  0  0  0  0
  4 16  2  0  0  0  0
  5 18  1  0  0  0  0
  6 20  1  0  0  0  0
  7 10  2  0  0  0  0
  7 19  1  0  0  0  0
  8 23  1  0  0  0  0
  9 23  2  0  0  0  0
 10 24  1  0  0  0  0
 11 12  2  0  0  0  0
 11 25  1  0  0  0  0
 12 26  1  0  0  0  0
 13 21  1  0  0  0  0
 13 24  2  0  0  0  0
 14 22  1  0  0  0  0
 14 30  2  0  0  0  0
 15 26  2  0  0  0  0
 15 27  1  0  0  0  0
 16 28  1  0  0  0  0
 17 28  1  0  0  0  0
 17 31  2  0  0  0  0
 17 32  1  0  0  0  0
 18 20  2  0  0  0  0
 18 38  1  0  0  0  0
 19 21  2  0  0  0  0
 19 39  1  0  0  0  0
 20 47  1  0  0  0  0
 21 40  1  0  0  0  0
 22 29  2  0  0  0  0
 22 62  1  0  0  0  0
 23 80  1  0  0  0  0
 24 81  1  0  0  0  0
 25 27  2  0  0  0  0
 25 80  1  0  0  0  0
 26 82  1  0  0  0  0
 27 83  1  0  0  0  0
 28 64  2  0  0  0  0
 29 57  1  0  0  0  0
 29 87  1  0  0  0  0
 30 65  1  0  0  0  0
 30 87  1  0  0  0  0
 31 66  1  0  0  0  0
 31 69  1  0  0  0  0
 32 70  1  0  0  0  0
 32 75  2  0  0  0  0
 33 48  1  0  0  0  0
 33 71  1  0  0  0  0
 33 76  2  0  0  0  0
 34 50  1  0  0  0  0
 34 59  1  0  0  0  0
 34 65  2  0  0  0  0
 35 60  1  0  0  0  0
 35 67  1  0  0  0  0
 35 77  2  0  0  0  0
 36 61  1  0  0  0  0
 36 72  1  0  0  0  0
 36 78  2  0  0  0  0
 37 68  1  0  0  0  0
 37 73  1  0  0  0  0
 37 79  2  0  0  0  0
 38 41  1  0  0  0  0
 39 48  1  0  0  0  0
 40 67  1  0  0  0  0
 41 43  1  0  0  0  0
 42 44  1  0  0  0  0
 42 45  1  0  0  0  0
 43 47  1  0  0  0  0
 44 49  1  0  0  0  0
 45 68  1  0  0  0  0
 46 49  1  0  0  0  0
 46 68  1  0  0  0  0
 47 71  1  0  0  0  0
 48 67  1  0  0  0  0
 49 66  1  0  0  0  0
 51 59  1  0  0  0  0
 52 61  1  0  0  0  0
 53 63  1  0  0  0  0
 54 63  1  0  0  0  0
 55 63  1  0  0  0  0
 56 74  1  0  0  0  0
 57 73  1  0  0  0  0
 58 59  1  0  0  0  0
 58 81  1  0  0  0  0
 60 63  1  0  0  0  0
 60 72  1  0  0  0  0
 61 74  1  0  0  0  0
 62 84  1  0  0  0  0
 62 85  1  0  0  0  0
 62 86  1  0  0  0  0
 64 66  1  0  0  0  0
M  CHG  1  74   1
M  ISO  4  37 100  58 101  73 100  81 101
M  END
> <Batch ID>
0169

> <Smiles>
CNC(C)C(=O)NC(C(=O)N1Cc2cc([101O:1][101CH2:1]C(C)=C(C)Nc3cc(C(F)(F)F)c(C[100NH:0][100C:0](=O)N4CCCC(n5nc(-c6ccc(Oc7ccc(F)cc7F)cc6)c(C(N)=O)c5N)C4)s3)ccc2CC1C(=O)NC1CCCc2ccccc21)C(C)(C)C

> <Shape>
0.178

> <Color>
0.072

> <Negative vol penalty>
0.000

$$$$

  -OEChem-04052304173D

 87 95  0     1  0  0  0  0  0999 V2000
  -30.3556  -22.6885   18.9483 C   0  0  0  0  0  0  0  0  0  0  0  0
  -29.6221  -22.5862   20.1260 C   0  0  0  0  0  0  0  0  0  0  0  0
  -23.8391  -13.4849   19.5446 C   0  0  0  0  0  0  0  0  0  0  0  0
  -23.3588  -14.6303   21.6169 C   0  0  0  0  0  0  0  0  0  0  0  0
  -30.4854  -23.9235   18.3143 C   0  0  0  0  0  0  0  0  0  0  0  0
  -29.0189  -23.7192   20.6710 C   0  0  0  0  0  0  0  0  0  0  0  0
  -24.2638  -22.8519   22.1817 C   0  0  0  0  0  0  0  0  0  0  0  0
  -23.1176  -12.3772   19.9896 C   0  0  0  0  0  0  0  0  0  0  0  0
  -22.6373  -13.5226   22.0619 C   0  0  0  0  0  0  0  0  0  0  0  0
  -24.0925  -22.1861   23.3946 C   0  0  0  0  0  0  0  0  0  0  0  0
  -23.6063   -9.7590   22.0707 C   0  0  0  0  0  0  0  0  0  0  0  0
  -24.1729   -8.4987   21.8809 C   0  0  0  0  0  0  0  0  0  0  0  0
  -29.6577  -22.3550   25.1428 C   0  0  0  0  0  0  0  0  0  0  0  0
  -23.6617  -24.2946   24.4843 C   0  0  0  0  0  0  0  0  0  0  0  0
  -30.5914  -20.9015   23.4538 C   0  0  0  0  0  0  0  0  0  0  0  0
  -22.2732   -7.8470   20.5378 C   0  0  0  0  0  0  0  0  0  0  0  0
  -23.9598  -14.6115   20.3582 C   0  0  0  0  0  0  0  0  0  0  0  0
  -28.6516  -21.4211   25.3903 C   0  0  0  0  0  0  0  0  0  0  0  0
  -24.2115  -16.8579   19.1759 C   0  0  0  0  0  0  0  0  0  0  0  0
  -29.8755  -25.0703   18.8466 C   0  0  0  0  0  0  0  0  0  0  0  0
  -24.1460  -24.2475   22.1130 C   0  0  0  0  0  0  0  0  0  0  0  0
  -29.1418  -24.9709   20.0443 C   0  0  0  0  0  0  0  0  0  0  0  0
  -23.8295  -24.9755   23.2688 C   0  0  0  0  0  0  0  0  0  0  0  0
  -29.5852  -19.9676   23.7013 C   0  0  0  0  0  0  0  0  0  0  0  0
  -22.5167  -12.3961   21.2483 C   0  0  0  0  0  0  0  0  0  0  0  0
  -23.7943  -22.9077   24.5467 C   0  0  0  0  0  0  0  0  0  0  0  0
  -22.3732  -10.0634   21.4941 C   0  0  0  0  0  0  0  0  0  0  0  0
  -23.5063   -7.5426   21.1145 C   0  0  0  0  0  0  0  0  0  0  0  0
  -30.6276  -22.0952   24.1745 C   0  0  0  0  0  0  0  0  0  0  0  0
  -21.7066   -9.1074   20.7277 C   0  0  0  0  0  0  0  0  0  0  0  0
  -28.6154  -20.2274   24.6696 C   0  0  0  0  0  0  0  0  0  0  0  0
  -24.7054  -15.7558   19.8993 C   0  0  0  0  0  0  0  0  0  0  0  0
  -25.3079  -17.6631   18.9859 C   0  0  0  0  0  0  0  0  0  0  0  0
  -27.6268  -21.6992   26.4165 C   0  0  0  0  0  0  0  0  0  0  0  0
  -22.8807  -17.1295   18.7168 C   0  0  0  0  0  0  0  0  0  0  0  0
  -26.1047  -26.6288   21.3405 C   0  0  0  0  0  0  0  0  0  0  0  0
  -23.7110  -23.2058   27.9518 C   0  0  0  0  0  0  0  0  0  0  0  0
  -23.4211  -28.4223   21.6623 C   0  0  0  0  0  0  0  0  0  0  0  0
  -20.3175  -28.7717   23.0381 C   0  0  0  0  0  0  0  0  0  0  0  0
  -30.4381  -18.3458   21.9725 C   0  0  0  0  0  0  0  0  0  0  0  0
  -30.0833  -26.3923   18.1511 C   0  0  0  0  0  0  0  0  0  0  0  0
  -24.3073  -24.9481   20.7918 C   0  0  0  0  0  0  0  0  0  0  0  0
  -23.6722  -26.4732   23.2445 C   0  0  0  0  0  0  0  0  0  0  0  0
  -29.1005  -27.4738   18.5922 C   0  0  0  0  0  0  0  0  0  0  0  0
  -30.0720  -17.4595   18.5436 C   0  0  0  0  0  0  0  0  0  0  0  0
  -28.9873  -27.5041   20.1131 C   0  0  0  0  0  0  0  0  0  0  0  0
  -28.6077  -17.0281   18.4350 C   0  0  0  0  0  0  0  0  0  0  0  0
  -30.6904  -17.0372   19.8752 C   0  0  0  0  0  0  0  0  0  0  0  0
  -28.4780  -17.0243   20.9589 C   0  0  0  0  0  0  0  0  0  0  0  0
  -28.4520  -26.1724   20.6531 C   0  0  1  0  0  0  0  0  0  0  0  0
  -24.6719  -26.4223   20.9378 C   0  0  1  0  0  0  0  0  0  0  0  0
  -27.7934  -17.4843   19.6615 C   0  0  2  0  0  0  0  0  0  0  0  0
  -24.3792  -24.2803   28.7713 C   0  0  0  0  0  0  0  0  0  0  0  0
  -18.3794  -30.3618   23.1486 C   0  0  0  0  0  0  0  0  0  0  0  0
  -24.9856  -30.1911   23.5945 C   0  0  0  0  0  0  0  0  0  0  0  0
  -22.8066  -31.1429   24.3781 C   0  0  0  0  0  0  0  0  0  0  0  0
  -23.5109  -31.4347   22.0029 C   0  0  0  0  0  0  0  0  0  0  0  0
  -18.4782  -26.7967   21.8236 C   0  0  0  0  0  0  0  0  0  0  0  0
  -25.3064  -21.3839   27.1995 C   0  0  0  0  0  0  0  0  0  0  0  0
  -24.5100  -22.6148   26.7957 C   0  0  1  0  0  0  0  0  0  1  0  0
  -22.7567  -29.1574   22.8013 C   0  0  1  0  0  0  0  0  0  0  0  0
  -18.9843  -29.1665   22.4290 C   0  0  2  0  0  0  0  0  0  0  0  0
  -23.5197  -30.4535   23.1954 C   0  0  0  0  0  0  0  0  0  0  0  0
  -26.0137  -15.8490   20.1515 N   0  0  0  0  0  0  0  0  0  0  0  0
  -26.3512  -17.0193   19.5835 N   0  0  0  0  0  0  0  0  0  0  0  0
  -23.8458  -27.1132   21.9300 N   0  0  0  0  0  0  0  0  0  0  0  0
  -29.8673  -17.5077   20.9914 N   0  0  0  0  0  0  0  0  0  0  0  0
  -25.4716  -18.8519   18.3676 N   0  0  0  0  0  0  0  0  0  0  0  0
  -27.9701  -22.4572   27.4579 N   0  0  0  0  0  0  0  0  0  0  0  0
  -21.8734  -16.1965   18.9982 N   0  0  0  0  0  0  0  0  0  0  0  0
  -29.5510  -18.7561   22.9672 N   0  0  0  0  0  0  0  0  0  0  0  0
  -27.0205  -26.0870   20.4588 N   0  0  0  0  0  0  0  0  0  0  0  0
  -21.3738  -29.3790   22.3926 N   0  0  0  0  0  0  0  0  0  0  0  0
  -26.4068  -21.1760   26.2526 N   0  3  0  0  0  0  0  0  0  0  0  0
  -18.0213  -28.0321   22.5106 N   0  3  0  0  0  0  0  0  0  0  0  0
  -22.5966  -18.1609   18.0619 O   0  0  0  0  0  0  0  0  0  0  0  0
  -26.3605  -27.2359   22.3737 O   0  0  0  0  0  0  0  0  0  0  0  0
  -22.5655  -22.8357   28.2102 O   0  0  0  0  0  0  0  0  0  0  0  0
  -23.5518  -28.9863   20.5730 O   0  0  0  0  0  0  0  0  0  0  0  0
  -20.4122  -28.0043   23.9935 O   0  0  0  0  0  0  0  0  0  0  0  0
  -31.6194  -18.6972   21.9184 O   0  0  0  0  0  0  0  0  0  0  0  0
  -21.8124  -11.3155   21.6828 O   0  0  0  0  0  0  0  0  0  0  0  0
  -23.6272  -22.2604   25.7320 O   0  0  0  0  0  0  0  0  0  1  0  0
  -24.0512   -6.3328   20.9311 F   0  0  0  0  0  0  0  0  0  0  0  0
  -31.5937  -22.9918   23.9371 F   0  0  0  0  0  0  0  0  0  0  0  0
  -20.5223   -9.3944   20.1702 F   0  0  0  0  0  0  0  0  0  0  0  0
  -27.6468  -19.3303   24.9085 F   0  0  0  0  0  0  0  0  0  0  0  0
  1  2  1  0  0  0  0
  1  5  2  0  0  0  0
  2  6  2  0  0  0  0
  3  8  2  0  0  0  0
  3 17  1  0  0  0  0
  4  9  1  0  0  0  0
  4 17  2  0  0  0  0
  5 20  1  0  0  0  0
  6 22  1  0  0  0  0
  7 10  2  0  0  0  0
  7 21  1  0  0  0  0
  8 25  1  0  0  0  0
  9 25  2  0  0  0  0
 10 26  1  0  0  0  0
 11 12  2  0  0  0  0
 11 27  1  0  0  0  0
 12 28  1  0  0  0  0
 13 18  1  0  0  0  0
 13 29  2  0  0  0  0
 14 23  1  0  0  0  0
 14 26  2  0  0  0  0
 15 24  2  0  0  0  0
 15 29  1  0  0  0  0
 16 28  2  0  0  0  0
 16 30  1  0  0  0  0
 17 32  1  0  0  0  0
 18 31  2  0  0  0  0
 18 34  1  0  0  0  0
 19 32  1  0  0  0  0
 19 33  2  0  0  0  0
 19 35  1  0  0  0  0
 20 22  2  0  0  0  0
 20 41  1  0  0  0  0
 21 23  2  0  0  0  0
 21 42  1  0  0  0  0
 22 50  1  0  0  0  0
 23 43  1  0  0  0  0
 24 31  1  0  0  0  0
 24 71  1  0  0  0  0
 25 82  1  0  0  0  0
 26 83  1  0  0  0  0
 27 30  2  0  0  0  0
 27 82  1  0  0  0  0
 28 84  1  0  0  0  0
 29 85  1  0  0  0  0
 30 86  1  0  0  0  0
 31 87  1  0  0  0  0
 32 64  2  0  0  0  0
 33 65  1  0  0  0  0
 33 68  1  0  0  0  0
 34 69  1  0  0  0  0
 34 74  2  0  0  0  0
 35 70  1  0  0  0  0
 35 76  2  0  0  0  0
 36 51  1  0  0  0  0
 36 72  1  0  0  0  0
 36 77  2  0  0  0  0
 37 53  1  0  0  0  0
 37 60  1  0  0  0  0
 37 78  2  0  0  0  0
 38 61  1  0  0  0  0
 38 66  1  0  0  0  0
 38 79  2  0  0  0  0
 39 62  1  0  0  0  0
 39 73  1  0  0  0  0
 39 80  2  0  0  0  0
 40 67  1  0  0  0  0
 40 71  1  0  0  0  0
 40 81  2  0  0  0  0
 41 44  1  0  0  0  0
 42 51  1  0  0  0  0
 43 66  1  0  0  0  0
 44 46  1  0  0  0  0
 45 47  1  0  0  0  0
 45 48  1  0  0  0  0
 46 50  1  0  0  0  0
 47 52  1  0  0  0  0
 48 67  1  0  0  0  0
 49 52  1  0  0  0  0
 49 67  1  0  0  0  0
 50 72  1  0  0  0  0
 51 66  1  0  0  0  0
 52 65  1  0  0  0  0
 54 62  1  0  0  0  0
 55 63  1  0  0  0  0
 56 63  1  0  0  0  0
 57 63  1  0  0  0  0
 58 75  1  0  0  0  0
 59 60  1  0  0  0  0
 59 74  1  0  0  0  0
 60 83  1  0  0  0  0
 61 63  1  0  0  0  0
 61 73  1  0  0  0  0
 62 75  1  0  0  0  0
 64 65  1  0  0  0  0
M  CHG  2  74   1  75   1
M  ISO  4  40 100  60 101  71 100  83 101
M  END
> <Batch ID>
0169

> <Smiles>
CNC(C)C(=O)NC(C(=O)N1Cc2cc([101O:1][101CH:1](CNC(=N)c3cc(F)cc([100NH:0][100C:0](=O)N4CCCC(n5nc(-c6ccc(Oc7ccc(F)cc7F)cc6)c(C(N)=O)c5N)C4)c3F)C(C)=O)ccc2CC1C(=O)NC1CCCc2ccccc21)C(C)(C)C

> <Shape>
0.234

> <Color>
0.040

> <Negative vol penalty>
0.000

$$$$

  -OEChem-04052304173D

 83 91  0     1  0  0  0  0  0999 V2000
  -27.6865  -37.2865   23.6910 C   0  0  0  0  0  0  0  0  0  0  0  0
  -28.2533  -36.2785   22.9176 C   0  0  0  0  0  0  0  0  0  0  0  0
  -26.4758   -6.7218   20.3511 C   0  0  0  0  0  0  0  0  0  0  0  0
  -24.3591   -7.7816   19.8679 C   0  0  0  0  0  0  0  0  0  0  0  0
  -26.7293  -36.9699   24.6541 C   0  0  0  0  0  0  0  0  0  0  0  0
  -27.8639  -34.9531   23.1076 C   0  0  0  0  0  0  0  0  0  0  0  0
  -26.9128  -28.8411   19.4943 C   0  0  0  0  0  0  0  0  0  0  0  0
  -25.8174   -5.7509   21.1057 C   0  0  0  0  0  0  0  0  0  0  0  0
  -23.7007   -6.8106   20.6225 C   0  0  0  0  0  0  0  0  0  0  0  0
  -27.2831  -27.4976   19.5341 C   0  0  0  0  0  0  0  0  0  0  0  0
  -23.1365   -6.1543   23.8908 C   0  0  0  0  0  0  0  0  0  0  0  0
  -22.1523   -6.5828   24.7815 C   0  0  0  0  0  0  0  0  0  0  0  0
  -25.5630  -27.0782   21.1725 C   0  0  0  0  0  0  0  0  0  0  0  0
  -25.4331  -17.6271   19.5564 C   0  0  0  0  0  0  0  0  0  0  0  0
  -20.5126   -5.2487   23.6116 C   0  0  0  0  0  0  0  0  0  0  0  0
  -23.7804  -16.0977   18.9803 C   0  0  0  0  0  0  0  0  0  0  0  0
  -25.7466   -7.7372   19.7322 C   0  0  0  0  0  0  0  0  0  0  0  0
  -26.7174   -8.6954   17.5765 C   0  0  0  0  0  0  0  0  0  0  0  0
  -26.3210  -35.6411   24.8493 C   0  0  0  0  0  0  0  0  0  0  0  0
  -25.8702  -29.3163   20.3028 C   0  0  0  0  0  0  0  0  0  0  0  0
  -26.9013  -34.6183   24.0751 C   0  0  0  0  0  0  0  0  0  0  0  0
  -25.1797  -28.4277   21.1392 C   0  0  0  0  0  0  0  0  0  0  0  0
  -25.0883  -16.2555   19.3829 C   0  0  0  0  0  0  0  0  0  0  0  0
  -24.4299   -5.7953   21.2414 C   0  0  0  0  0  0  0  0  0  0  0  0
  -26.6101  -26.6165   20.3754 C   0  0  0  0  0  0  0  0  0  0  0  0
  -22.8087   -5.2730   22.8604 C   0  0  0  0  0  0  0  0  0  0  0  0
  -20.8404   -6.1300   24.6419 C   0  0  0  0  0  0  0  0  0  0  0  0
  -21.4968   -4.8202   22.7208 C   0  0  0  0  0  0  0  0  0  0  0  0
  -26.4262   -8.7408   18.9531 C   0  0  0  0  0  0  0  0  0  0  0  0
  -27.3667   -9.8790   17.3237 C   0  0  0  0  0  0  0  0  0  0  0  0
  -24.3755  -18.4654   19.2795 C   0  0  0  0  0  0  0  0  0  0  0  0
  -26.0315  -24.3693   20.0824 C   0  0  0  0  0  0  0  0  0  1  0  0
  -26.4268   -7.6746   16.6125 C   0  0  0  0  0  0  0  0  0  0  0  0
  -26.2762  -23.0538   20.0884 C   0  0  0  0  0  0  0  0  0  0  0  0
  -25.1838  -22.1042   19.7077 C   0  0  0  0  0  0  0  0  0  0  0  0
  -25.6440  -31.4507   22.6473 C   0  0  0  0  0  0  0  0  0  0  0  0
  -22.4720  -30.8247   22.3848 C   0  0  0  0  0  0  0  0  0  0  0  0
  -20.0163  -28.6549   21.4318 C   0  0  0  0  0  0  0  0  0  0  0  0
  -27.3024  -15.2225   19.9971 C   0  0  0  0  0  0  0  0  0  0  0  0
  -25.3176  -35.3421   25.9349 C   0  0  0  0  0  0  0  0  0  0  0  0
  -25.4653  -30.7630   20.2284 C   0  0  0  0  0  0  0  0  0  0  0  0
  -24.0400  -28.8836   22.0120 C   0  0  0  0  0  0  0  0  0  0  0  0
  -24.6861  -33.9574   25.8160 C   0  0  0  0  0  0  0  0  0  0  0  0
  -30.1460  -13.1526   19.4437 C   0  0  0  0  0  0  0  0  0  0  0  0
  -25.7570  -32.9027   25.5561 C   0  0  0  0  0  0  0  0  0  0  0  0
  -29.5411  -11.7836   19.1238 C   0  0  0  0  0  0  0  0  0  0  0  0
  -29.3394  -13.8942   20.5081 C   0  0  0  0  0  0  0  0  0  0  0  0
  -27.2996  -12.6522   19.9035 C   0  0  0  0  0  0  0  0  0  0  0  0
  -26.4868  -33.1716   24.2345 C   0  0  1  0  0  0  0  0  0  0  0  0
  -24.7276  -31.2418   21.4750 C   0  0  1  0  0  0  0  0  0  0  0  0
  -28.0406  -11.8947   18.7897 C   0  0  2  0  0  0  0  0  0  0  0  0
  -17.5198  -28.4062   21.3767 C   0  0  0  0  0  0  0  0  0  0  0  0
  -22.4662  -30.2436   25.3801 C   0  0  0  0  0  0  0  0  0  0  0  0
  -20.2529  -29.1111   25.0855 C   0  0  0  0  0  0  0  0  0  0  0  0
  -20.4886  -31.5393   24.5651 C   0  0  0  0  0  0  0  0  0  0  0  0
  -19.9864  -28.4423   18.4800 C   0  0  0  0  0  0  0  0  0  0  0  0
  -25.5310  -20.6291   19.7366 C   0  0  0  0  0  0  0  0  0  0  0  0
  -21.5225  -29.8329   23.0123 C   0  0  1  0  0  0  0  0  0  0  0  0
  -18.7545  -28.8584   20.6126 C   0  0  2  0  0  0  0  0  0  0  0  0
  -21.2053  -30.1732   24.4958 C   0  0  0  0  0  0  0  0  0  0  0  0
  -26.8554   -9.8643   19.5341 N   0  0  0  0  0  0  0  0  0  0  0  0
  -27.4231  -10.5357   18.5178 N   0  0  0  0  0  0  0  0  0  0  0  0
  -23.6856  -30.3088   21.9085 N   0  0  0  0  0  0  0  0  0  0  0  0
  -27.9285  -13.9643   20.1218 N   0  0  0  0  0  0  0  0  0  0  0  0
  -27.8894  -10.4116   16.1987 N   0  0  0  0  0  0  0  0  0  0  0  0
  -25.7531   -6.5229   17.0415 N   0  0  0  0  0  0  0  0  0  0  0  0
  -25.9690  -15.1655   19.5927 N   0  0  0  0  0  0  0  0  0  0  0  0
  -24.3805  -19.8503   19.3505 N   0  0  0  0  0  0  0  0  0  0  0  0
  -25.6737  -32.7512   23.1135 N   0  0  0  0  0  0  0  0  0  0  0  0
  -20.3496  -29.7863   22.1459 N   0  0  0  0  0  0  0  0  0  0  0  0
  -18.8311  -28.0832   19.3421 N   0  3  0  0  0  0  0  0  0  0  0  0
  -26.7695   -7.7734   15.4099 O   0  0  0  0  0  0  0  0  0  0  0  0
  -24.0682  -22.5131   19.3903 O   0  0  0  0  0  0  0  0  0  0  0  0
  -26.2762  -30.5019   23.0966 O   0  0  0  0  0  0  0  0  0  0  0  0
  -22.1458  -32.0122   22.3132 O   0  0  0  0  0  0  0  0  0  0  0  0
  -20.6415  -27.5968   21.4403 O   0  0  0  0  0  0  0  0  0  0  0  0
  -27.9124  -16.2744   20.2055 O   0  0  0  0  0  0  0  0  0  0  0  0
  -27.5008  -22.5238   20.4331 O   0  0  0  0  0  0  0  0  0  0  0  0
  -23.7871   -4.8478   21.9775 O   0  0  0  0  0  0  0  0  0  0  0  0
  -26.9700  -25.3048   20.4167 O   0  0  0  0  0  0  0  0  0  1  0  0
  -19.8956   -6.5404   25.4982 F   0  0  0  0  0  0  0  0  0  0  0  0
  -21.1762   -3.9725   21.7337 F   0  0  0  0  0  0  0  0  0  0  0  0
  -22.9741  -17.5990   18.8129 S   0  0  0  0  0  0  0  0  0  0  0  0
  1  2  1  0  0  0  0
  1  5  2  0  0  0  0
  2  6  2  0  0  0  0
  3  8  2  0  0  0  0
  3 17  1  0  0  0  0
  4  9  1  0  0  0  0
  4 17  2  0  0  0  0
  5 19  1  0  0  0  0
  6 21  1  0  0  0  0
  7 10  2  0  0  0  0
  7 20  1  0  0  0  0
  8 24  1  0  0  0  0
  9 24  2  0  0  0  0
 10 25  1  0  0  0  0
 11 12  2  0  0  0  0
 11 26  1  0  0  0  0
 12 27  1  0  0  0  0
 13 22  1  0  0  0  0
 13 25  2  0  0  0  0
 14 23  1  0  0  0  0
 14 31  2  0  0  0  0
 15 27  2  0  0  0  0
 15 28  1  0  0  0  0
 16 23  2  0  0  0  0
 16 83  1  0  0  0  0
 17 29  1  0  0  0  0
 18 29  1  0  0  0  0
 18 30  2  0  0  0  0
 18 33  1  0  0  0  0
 19 21  2  0  0  0  0
 19 40  1  0  0  0  0
 20 22  2  0  0  0  0
 20 41  1  0  0  0  0
 21 49  1  0  0  0  0
 22 42  1  0  0  0  0
 23 67  1  0  0  0  0
 24 79  1  0  0  0  0
 25 80  1  0  0  0  0
 26 28  2  0  0  0  0
 26 79  1  0  0  0  0
 27 81  1  0  0  0  0
 28 82  1  0  0  0  0
 29 61  2  0  0  0  0
 30 62  1  0  0  0  0
 30 65  1  0  0  0  0
 31 68  1  0  0  0  0
 31 83  1  0  0  0  0
 32 34  2  0  0  0  0
 32 80  1  0  0  0  0
 33 66  1  0  0  0  0
 33 72  2  0  0  0  0
 34 35  1  0  0  0  0
 34 78  1  0  0  0  0
 35 57  1  0  0  0  0
 35 73  2  0  0  0  0
 36 50  1  0  0  0  0
 36 69  1  0  0  0  0
 36 74  2  0  0  0  0
 37 58  1  0  0  0  0
 37 63  1  0  0  0  0
 37 75  2  0  0  0  0
 38 59  1  0  0  0  0
 38 70  1  0  0  0  0
 38 76  2  0  0  0  0
 39 64  1  0  0  0  0
 39 67  1  0  0  0  0
 39 77  2  0  0  0  0
 40 43  1  0  0  0  0
 41 50  1  0  0  0  0
 42 63  1  0  0  0  0
 43 45  1  0  0  0  0
 44 46  1  0  0  0  0
 44 47  1  0  0  0  0
 45 49  1  0  0  0  0
 46 51  1  0  0  0  0
 47 64  1  0  0  0  0
 48 51  1  0  0  0  0
 48 64  1  0  0  0  0
 49 69  1  0  0  0  0
 50 63  1  0  0  0  0
 51 62  1  0  0  0  0
 52 59  1  0  0  0  0
 53 60  1  0  0  0  0
 54 60  1  0  0  0  0
 55 60  1  0  0  0  0
 56 71  1  0  0  0  0
 57 68  1  0  0  0  0
 58 60  1  0  0  0  0
 58 70  1  0  0  0  0
 59 71  1  0  0  0  0
 61 62  1  0  0  0  0
M  CHG  1  71   1
M  ISO  4  32 101  39 100  67 100  80 101
M  END
> <Batch ID>
0169

> <Smiles>
CNC(C)C(=O)NC(C(=O)N1Cc2cc([101O:1][101CH2:1]C(=O)C(=O)CNc3cc([100NH:0][100C:0](=O)N4CCCC(n5nc(-c6ccc(Oc7ccc(F)cc7F)cc6)c(C(N)=O)c5N)C4)cs3)ccc2CC1C(=O)NC1CCCc2ccccc21)C(C)(C)C

> <Shape>
0.246

> <Color>
0.077

> <Negative vol penalty>
0.000

$$$$

  -OEChem-04052304173D

 85 93  0     1  0  0  0  0  0999 V2000
  -19.5801  -33.2710   24.0774 C   0  0  0  0  0  0  0  0  0  0  0  0
  -20.8805  -33.0949   23.6156 C   0  0  0  0  0  0  0  0  0  0  0  0
  -24.5340   -9.0833   21.5775 C   0  0  0  0  0  0  0  0  0  0  0  0
  -22.7212  -10.5045   20.8486 C   0  0  0  0  0  0  0  0  0  0  0  0
  -18.8465  -32.1737   24.5266 C   0  0  0  0  0  0  0  0  0  0  0  0
  -21.4486  -31.8214   23.6038 C   0  0  0  0  0  0  0  0  0  0  0  0
  -25.3863  -29.5849   19.4809 C   0  0  0  0  0  0  0  0  0  0  0  0
  -23.6653   -7.9925   21.6112 C   0  0  0  0  0  0  0  0  0  0  0  0
  -21.8525   -9.4136   20.8822 C   0  0  0  0  0  0  0  0  0  0  0  0
  -26.7741  -29.4516   19.4854 C   0  0  0  0  0  0  0  0  0  0  0  0
  -21.2822   -6.7693   23.6725 C   0  0  0  0  0  0  0  0  0  0  0  0
  -21.3401   -5.9297   24.7848 C   0  0  0  0  0  0  0  0  0  0  0  0
  -26.5466  -27.1706   20.2365 C   0  0  0  0  0  0  0  0  0  0  0  0
  -26.8892  -19.4633   20.0199 C   0  0  0  0  0  0  0  0  0  0  0  0
  -21.9015   -4.0683   23.3506 C   0  0  0  0  0  0  0  0  0  0  0  0
  -27.3753  -20.3762   22.1616 C   0  0  0  0  0  0  0  0  0  0  0  0
  -24.0619  -10.3394   21.1963 C   0  0  0  0  0  0  0  0  0  0  0  0
  -25.7369  -11.9009   20.0722 C   0  0  0  0  0  0  0  0  0  0  0  0
  -19.4025  -30.8848   24.5113 C   0  0  0  0  0  0  0  0  0  0  0  0
  -24.5671  -28.5136   19.8653 C   0  0  0  0  0  0  0  0  0  0  0  0
  -20.7222  -30.7061   24.0545 C   0  0  0  0  0  0  0  0  0  0  0  0
  -25.1486  -27.2920   20.2336 C   0  0  0  0  0  0  0  0  0  0  0  0
  -27.2907  -20.6662   19.4496 C   0  0  0  0  0  0  0  0  0  0  0  0
  -26.9293  -19.3074   21.4009 C   0  0  0  0  0  0  0  0  0  0  0  0
  -22.3246   -8.1576   21.2635 C   0  0  0  0  0  0  0  0  0  0  0  0
  -27.3545  -28.2453   19.8660 C   0  0  0  0  0  0  0  0  0  0  0  0
  -21.5339   -6.2584   22.3992 C   0  0  0  0  0  0  0  0  0  0  0  0
  -21.6498   -4.5792   24.6239 C   0  0  0  0  0  0  0  0  0  0  0  0
  -21.8435   -4.9079   22.2382 C   0  0  0  0  0  0  0  0  0  0  0  0
  -24.9586  -11.4667   21.1619 C   0  0  0  0  0  0  0  0  0  0  0  0
  -27.7203  -21.6743   20.2976 C   0  0  0  0  0  0  0  0  0  0  0  0
  -26.4079  -13.0015   20.5465 C   0  0  0  0  0  0  0  0  0  0  0  0
  -25.8438  -11.3579   18.7495 C   0  0  0  0  0  0  0  0  0  0  0  0
  -22.4536  -28.0273   22.1891 C   0  0  0  0  0  0  0  0  0  0  0  0
  -29.2034  -25.0298   19.5017 C   0  0  0  0  0  0  0  0  0  0  0  0
  -21.9431  -25.2399   20.6105 C   0  0  0  0  0  0  0  0  0  0  0  0
  -23.1388  -22.8540   18.4834 C   0  0  0  0  0  0  0  0  0  0  0  0
  -26.5140  -17.7970   23.3739 C   0  0  0  0  0  0  0  0  0  0  0  0
  -18.5875  -29.7362   25.0511 C   0  0  0  0  0  0  0  0  0  0  0  0
  -23.0711  -28.6650   19.8295 C   0  0  0  0  0  0  0  0  0  0  0  0
  -24.3129  -26.1051   20.6354 C   0  0  0  0  0  0  0  0  0  0  0  0
  -19.1301  -28.3654   24.6553 C   0  0  0  0  0  0  0  0  0  0  0  0
  -26.8776  -14.7965   25.2559 C   0  0  0  0  0  0  0  0  0  0  0  0
  -20.6385  -28.3047   24.8744 C   0  0  0  0  0  0  0  0  0  0  0  0
  -26.4747  -13.6985   24.2690 C   0  0  0  0  0  0  0  0  0  0  0  0
  -26.0309  -16.0559   25.0798 C   0  0  0  0  0  0  0  0  0  0  0  0
  -25.5828  -15.4891   22.7245 C   0  0  0  0  0  0  0  0  0  0  0  0
  -21.3644  -29.3368   24.0030 C   0  0  1  0  0  0  0  0  0  0  0  0
  -22.3481  -27.6711   20.7333 C   0  0  1  0  0  0  0  0  0  0  0  0
  -26.4511  -14.2239   22.8202 C   0  0  2  0  0  0  0  0  0  0  0  0
  -27.2459  -20.8302   17.9685 C   0  0  0  0  0  0  0  0  0  0  0  0
  -22.5060  -20.6753   17.4110 C   0  0  0  0  0  0  0  0  0  0  0  0
  -30.1559  -28.0187   21.7573 C   0  0  0  0  0  0  0  0  0  0  0  0
  -22.4430  -23.7973   23.2522 C   0  0  0  0  0  0  0  0  0  0  0  0
  -22.7407  -21.6755   21.9570 C   0  0  0  0  0  0  0  0  0  0  0  0
  -20.5531  -22.8729   21.9002 C   0  0  0  0  0  0  0  0  0  0  0  0
  -23.3700  -23.9933   15.7617 C   0  0  0  0  0  0  0  0  0  0  0  0
  -30.0742  -26.1306   20.0954 C   0  0  0  0  0  0  0  0  0  0  0  0
  -28.9586  -23.8378   20.4048 C   0  0  0  0  0  0  0  0  0  0  0  0
  -22.5344  -23.8523   20.6726 C   0  0  1  0  0  0  0  0  0  0  0  0
  -22.5216  -22.1891   17.2663 C   0  0  2  0  0  0  0  0  0  0  0  0
  -29.2688  -27.2080   20.8228 C   0  0  2  0  0  0  0  0  0  1  0  0
  -22.0839  -23.0723   21.9399 C   0  0  0  0  0  0  0  0  0  0  0  0
  -27.7733  -21.5599   21.6437 N   0  0  0  0  0  0  0  0  0  0  0  0
  -25.1194  -12.2291   22.2467 N   0  0  0  0  0  0  0  0  0  0  0  0
  -26.0066  -13.1535   21.8411 N   0  0  0  0  0  0  0  0  0  0  0  0
  -22.8550  -26.3047   20.5902 N   0  0  0  0  0  0  0  0  0  0  0  0
  -26.0591  -16.4979   23.6838 N   0  0  0  0  0  0  0  0  0  0  0  0
  -27.2963  -13.8443   19.9782 N   0  0  0  0  0  0  0  0  0  0  0  0
  -25.0846  -10.2241   18.4294 N   0  0  0  0  0  0  0  0  0  0  0  0
  -26.5269  -18.0937   22.0114 N   0  0  0  0  0  0  0  0  0  0  0  0
  -28.1217  -22.8766   19.7333 N   0  0  0  0  0  0  0  0  0  0  0  0
  -21.4540  -28.8704   22.6359 N   0  0  0  0  0  0  0  0  0  0  0  0
  -22.1833  -23.2023   19.4146 N   0  0  0  0  0  0  0  0  0  0  0  0
  -23.2933  -22.5359   16.0394 N   0  3  0  0  0  0  0  0  0  0  0  0
  -26.6027  -11.8535   17.8824 O   0  0  0  0  0  0  0  0  0  0  0  0
  -23.3729  -27.5700   22.8580 O   0  0  0  0  0  0  0  0  0  0  0  0
  -28.7342  -25.1047   18.3670 O   0  0  0  0  0  0  0  0  0  0  0  0
  -20.7174  -25.3739   20.5739 O   0  0  0  0  0  0  0  0  0  0  0  0
  -24.3479  -23.0421   18.5984 O   0  0  0  0  0  0  0  0  0  0  0  0
  -26.8919  -18.5786   24.2504 O   0  0  0  0  0  0  0  0  0  0  0  0
  -21.4768   -7.0934   21.2959 O   0  0  0  0  0  0  0  0  0  0  0  0
  -28.7089  -28.1127   19.8718 O   0  0  0  0  0  0  0  0  0  1  0  0
  -21.7069   -3.7734   25.6924 F   0  0  0  0  0  0  0  0  0  0  0  0
  -22.0874   -4.4115   21.0176 F   0  0  0  0  0  0  0  0  0  0  0  0
  1  2  1  0  0  0  0
  1  5  2  0  0  0  0
  2  6  2  0  0  0  0
  3  8  2  0  0  0  0
  3 17  1  0  0  0  0
  4  9  1  0  0  0  0
  4 17  2  0  0  0  0
  5 19  1  0  0  0  0
  6 21  1  0  0  0  0
  7 10  2  0  0  0  0
  7 20  1  0  0  0  0
  8 25  1  0  0  0  0
  9 25  2  0  0  0  0
 10 26  1  0  0  0  0
 11 12  2  0  0  0  0
 11 27  1  0  0  0  0
 12 28  1  0  0  0  0
 13 22  1  0  0  0  0
 13 26  2  0  0  0  0
 14 23  1  0  0  0  0
 14 24  2  0  0  0  0
 15 28  2  0  0  0  0
 15 29  1  0  0  0  0
 16 24  1  0  0  0  0
 16 64  2  0  0  0  0
 17 30  1  0  0  0  0
 18 30  1  0  0  0  0
 18 32  2  0  0  0  0
 18 33  1  0  0  0  0
 19 21  2  0  0  0  0
 19 39  1  0  0  0  0
 20 22  2  0  0  0  0
 20 40  1  0  0  0  0
 21 48  1  0  0  0  0
 22 41  1  0  0  0  0
 23 31  2  0  0  0  0
 23 51  1  0  0  0  0
 24 71  1  0  0  0  0
 25 82  1  0  0  0  0
 26 83  1  0  0  0  0
 27 29  2  0  0  0  0
 27 82  1  0  0  0  0
 28 84  1  0  0  0  0
 29 85  1  0  0  0  0
 30 65  2  0  0  0  0
 31 64  1  0  0  0  0
 31 72  1  0  0  0  0
 32 66  1  0  0  0  0
 32 69  1  0  0  0  0
 33 70  1  0  0  0  0
 33 76  2  0  0  0  0
 34 49  1  0  0  0  0
 34 73  1  0  0  0  0
 34 77  2  0  0  0  0
 35 58  1  0  0  0  0
 35 59  1  0  0  0  0
 35 78  2  0  0  0  0
 36 60  1  0  0  0  0
 36 67  1  0  0  0  0
 36 79  2  0  0  0  0
 37 61  1  0  0  0  0
 37 74  1  0  0  0  0
 37 80  2  0  0  0  0
 38 68  1  0  0  0  0
 38 71  1  0  0  0  0
 38 81  2  0  0  0  0
 39 42  1  0  0  0  0
 40 49  1  0  0  0  0
 41 67  1  0  0  0  0
 42 44  1  0  0  0  0
 43 45  1  0  0  0  0
 43 46  1  0  0  0  0
 44 48  1  0  0  0  0
 45 50  1  0  0  0  0
 46 68  1  0  0  0  0
 47 50  1  0  0  0  0
 47 68  1  0  0  0  0
 48 73  1  0  0  0  0
 49 67  1  0  0  0  0
 50 66  1  0  0  0  0
 52 61  1  0  0  0  0
 53 62  1  0  0  0  0
 54 63  1  0  0  0  0
 55 63  1  0  0  0  0
 56 63  1  0  0  0  0
 57 75  1  0  0  0  0
 58 62  1  0  0  0  0
 59 72  1  0  0  0  0
 60 63  1  0  0  0  0
 60 74  1  0  0  0  0
 61 75  1  0  0  0  0
 62 83  1  0  0  0  0
 65 66  1  0  0  0  0
M  CHG  1  75   1
M  ISO  4  38 100  62 101  71 100  83 101
M  END
> <Batch ID>
0169

> <Smiles>
CNC(C)C(=O)NC(C(=O)N1Cc2cc([101O:1][101CH:1](C)CC(=O)CNc3ncc([100NH:0][100C:0](=O)N4CCCC(n5nc(-c6ccc(Oc7ccc(F)cc7F)cc6)c(C(N)=O)c5N)C4)cc3C)ccc2CC1C(=O)NC1CCCc2ccccc21)C(C)(C)C

> <Shape>
0.247

> <Color>
0.106

> <Negative vol penalty>
0.000

$$$$

  -OEChem-04052304173D

 88 97  0     1  0  0  0  0  0999 V2000
  -27.9280  -37.7059   25.0131 C   0  0  0  0  0  0  0  0  0  0  0  0
  -28.4989  -36.6770   24.2709 C   0  0  0  0  0  0  0  0  0  0  0  0
  -23.0621   -9.6857   21.2370 C   0  0  0  0  0  0  0  0  0  0  0  0
  -23.2390  -12.0145   21.8556 C   0  0  0  0  0  0  0  0  0  0  0  0
  -26.7807  -37.4658   25.7680 C   0  0  0  0  0  0  0  0  0  0  0  0
  -27.9233  -35.4069   24.2841 C   0  0  0  0  0  0  0  0  0  0  0  0
  -26.9080  -29.6937   20.0836 C   0  0  0  0  0  0  0  0  0  0  0  0
  -22.0649   -9.5068   22.1957 C   0  0  0  0  0  0  0  0  0  0  0  0
  -22.2418  -11.8356   22.8143 C   0  0  0  0  0  0  0  0  0  0  0  0
  -27.0989  -28.3126   20.0791 C   0  0  0  0  0  0  0  0  0  0  0  0
  -21.8757   -9.0948   25.5452 C   0  0  0  0  0  0  0  0  0  0  0  0
  -21.9570   -7.9663   26.3609 C   0  0  0  0  0  0  0  0  0  0  0  0
  -25.0720  -28.0344   21.3571 C   0  0  0  0  0  0  0  0  0  0  0  0
  -19.8079   -7.2222   25.5457 C   0  0  0  0  0  0  0  0  0  0  0  0
  -28.3168  -17.9049   19.5852 C   0  0  0  0  0  0  0  0  0  0  0  0
  -23.6492  -10.9395   21.0669 C   0  0  0  0  0  0  0  0  0  0  0  0
  -24.5715  -10.9201   18.6885 C   0  0  0  0  0  0  0  0  0  0  0  0
  -26.1852  -36.1947   25.7828 C   0  0  0  0  0  0  0  0  0  0  0  0
  -25.8017  -30.2572   20.7353 C   0  0  0  0  0  0  0  0  0  0  0  0
  -26.7677  -35.1493   25.0410 C   0  0  0  0  0  0  0  0  0  0  0  0
  -24.8680  -29.4227   21.3662 C   0  0  0  0  0  0  0  0  0  0  0  0
  -21.6547  -10.5817   22.9844 C   0  0  0  0  0  0  0  0  0  0  0  0
  -26.1824  -27.4830   20.7183 C   0  0  0  0  0  0  0  0  0  0  0  0
  -20.7604   -9.2870   24.7297 C   0  0  0  0  0  0  0  0  0  0  0  0
  -20.9231   -7.0300   26.3612 C   0  0  0  0  0  0  0  0  0  0  0  0
  -19.7265   -8.3507   24.7300 C   0  0  0  0  0  0  0  0  0  0  0  0
  -24.6798  -11.1249   20.0771 C   0  0  0  0  0  0  0  0  0  0  0  0
  -29.6699  -19.7250   19.2922 C   0  0  0  0  0  0  0  0  0  0  0  0
  -29.4268  -17.1056   19.7473 C   0  0  0  0  0  0  0  0  0  0  0  0
  -30.7801  -18.9259   19.4551 C   0  0  0  0  0  0  0  0  0  0  0  0
  -25.8158  -11.2314   18.1975 C   0  0  0  0  0  0  0  0  0  0  0  0
  -29.8875  -21.5577   17.5539 C   0  0  0  0  0  0  0  0  0  0  0  0
  -23.4466  -10.4872   17.9120 C   0  0  0  0  0  0  0  0  0  0  0  0
  -27.5707  -24.1265   20.1070 C   0  0  0  0  0  0  0  0  0  0  0  0
  -25.4149  -32.2652   23.1688 C   0  0  0  0  0  0  0  0  0  0  0  0
  -22.2910  -32.0855   22.3135 C   0  0  0  0  0  0  0  0  0  0  0  0
  -19.8038  -30.3219   20.7804 C   0  0  0  0  0  0  0  0  0  0  0  0
  -30.2203  -14.7529   20.1734 C   0  0  0  0  0  0  0  0  0  0  0  0
  -24.9727  -35.9711   26.6514 C   0  0  0  0  0  0  0  0  0  0  0  0
  -25.5958  -31.7469   20.7082 C   0  0  0  0  0  0  0  0  0  0  0  0
  -23.6528  -29.9765   22.0628 C   0  0  0  0  0  0  0  0  0  0  0  0
  -29.8390  -23.0301   17.2052 C   0  0  0  0  0  0  0  0  0  0  0  0
  -24.2097  -34.6925   26.3149 C   0  0  0  0  0  0  0  0  0  0  0  0
  -28.6875  -23.7212   17.9211 C   0  0  0  0  0  0  0  0  0  0  0  0
  -30.4361  -11.2720   19.4569 C   0  0  0  0  0  0  0  0  0  0  0  0
  -25.1738  -33.5206   26.1602 C   0  0  0  0  0  0  0  0  0  0  0  0
  -28.9744  -10.8218   19.4022 C   0  0  0  0  0  0  0  0  0  0  0  0
  -30.6626  -12.3340   20.5314 C   0  0  0  0  0  0  0  0  0  0  0  0
  -28.3083  -13.0472   20.3977 C   0  0  0  0  0  0  0  0  0  0  0  0
  -26.1585  -33.7644   25.0102 C   0  0  1  0  0  0  0  0  0  0  0  0
  -29.7884  -21.2115   19.0335 C   0  0  1  0  0  0  0  0  0  0  0  0
  -28.7264  -23.4718   19.4242 C   0  0  2  0  0  0  0  0  0  0  0  0
  -24.7080  -32.2482   21.8431 C   0  0  1  0  0  0  0  0  0  0  0  0
  -28.0181  -12.0250   19.2866 C   0  0  2  0  0  0  0  0  0  0  0  0
  -17.3474  -30.4132   20.2755 C   0  0  0  0  0  0  0  0  0  0  0  0
  -21.6712  -31.3403   25.2066 C   0  0  0  0  0  0  0  0  0  0  0  0
  -19.4271  -30.5330   24.4447 C   0  0  0  0  0  0  0  0  0  0  0  0
  -20.0467  -32.9335   24.1688 C   0  0  0  0  0  0  0  0  0  0  0  0
  -20.2844  -30.2843   17.8604 C   0  0  0  0  0  0  0  0  0  0  0  0
  -27.5207  -25.6380   20.0394 C   0  0  0  0  0  0  0  0  0  1  0  0
  -21.1300  -31.1955   22.6863 C   0  0  1  0  0  0  0  0  0  0  0  0
  -18.7459  -30.7390   19.7747 C   0  0  2  0  0  0  0  0  0  0  0  0
  -20.5926  -31.4900   24.1152 C   0  0  0  0  0  0  0  0  0  0  0  0
  -28.4184  -19.2290   19.3547 N   0  0  0  0  0  0  0  0  0  0  0  0
  -25.8968  -11.5344   20.4445 N   0  0  0  0  0  0  0  0  0  0  0  0
  -30.6785  -17.6018   19.6852 N   0  0  0  0  0  0  0  0  0  0  0  0
  -26.5647  -11.5895   19.2797 N   0  0  0  0  0  0  0  0  0  0  0  0
  -23.4991  -31.4399   22.0141 N   0  0  0  0  0  0  0  0  0  0  0  0
  -29.7243  -13.4447   20.3560 N   0  0  0  0  0  0  0  0  0  0  0  0
  -32.0662  -19.5059   19.3799 N   0  0  0  0  0  0  0  0  0  0  0  0
  -26.3315  -11.2310   16.9499 N   0  0  0  0  0  0  0  0  0  0  0  0
  -22.5718  -11.4576   17.4046 N   0  0  0  0  0  0  0  0  0  0  0  0
  -29.2354  -15.7218   19.9843 N   0  0  0  0  0  0  0  0  0  0  0  0
  -25.5173  -33.5213   23.7357 N   0  0  0  0  0  0  0  0  0  0  0  0
  -20.1370  -31.3559   21.6296 N   0  0  0  0  0  0  0  0  0  0  0  0
  -28.6612  -21.9936   19.6631 N   0  3  0  0  0  0  0  0  0  0  0  0
  -18.9569  -30.0343   18.4786 N   0  3  0  0  0  0  0  0  0  0  0  0
  -30.1102  -20.7158   16.6840 O   0  0  0  0  0  0  0  0  0  0  0  0
  -23.2147   -9.2748   17.6889 O   0  0  0  0  0  0  0  0  0  0  0  0
  -26.7133  -23.4638   20.6890 O   0  0  0  0  0  0  0  0  0  0  0  0
  -25.8349  -31.2163   23.6431 O   0  0  0  0  0  0  0  0  0  0  0  0
  -22.1300  -33.3081   22.2819 O   0  0  0  0  0  0  0  0  0  0  0  0
  -20.2837  -29.1909   20.8120 O   0  0  0  0  0  0  0  0  0  0  0  0
  -31.4306  -14.9917   20.1569 O   0  0  0  0  0  0  0  0  0  0  0  0
  -20.6815  -10.4075   23.9198 O   0  0  0  0  0  0  0  0  0  0  0  0
  -26.3666  -26.1347   20.7160 O   0  0  0  0  0  0  0  0  0  1  0  0
  -21.0021   -5.9455   27.1435 F   0  0  0  0  0  0  0  0  0  0  0  0
  -18.6531   -8.5294   23.9479 F   0  0  0  0  0  0  0  0  0  0  0  0
  1  2  1  0  0  0  0
  1  5  2  0  0  0  0
  2  6  2  0  0  0  0
  3  8  2  0  0  0  0
  3 16  1  0  0  0  0
  4  9  1  0  0  0  0
  4 16  2  0  0  0  0
  5 18  1  0  0  0  0
  6 20  1  0  0  0  0
  7 10  2  0  0  0  0
  7 19  1  0  0  0  0
  8 22  1  0  0  0  0
  9 22  2  0  0  0  0
 10 23  1  0  0  0  0
 11 12  2  0  0  0  0
 11 24  1  0  0  0  0
 12 25  1  0  0  0  0
 13 21  1  0  0  0  0
 13 23  2  0  0  0  0
 14 25  2  0  0  0  0
 14 26  1  0  0  0  0
 15 29  1  0  0  0  0
 15 64  2  0  0  0  0
 16 27  1  0  0  0  0
 17 27  1  0  0  0  0
 17 31  2  0  0  0  0
 17 33  1  0  0  0  0
 18 20  2  0  0  0  0
 18 39  1  0  0  0  0
 19 21  2  0  0  0  0
 19 40  1  0  0  0  0
 20 50  1  0  0  0  0
 21 41  1  0  0  0  0
 22 85  1  0  0  0  0
 23 86  1  0  0  0  0
 24 26  2  0  0  0  0
 24 85  1  0  0  0  0
 25 87  1  0  0  0  0
 26 88  1  0  0  0  0
 27 65  2  0  0  0  0
 28 30  2  0  0  0  0
 28 51  1  0  0  0  0
 28 64  1  0  0  0  0
 29 66  2  0  0  0  0
 29 73  1  0  0  0  0
 30 66  1  0  0  0  0
 30 70  1  0  0  0  0
 31 67  1  0  0  0  0
 31 71  1  0  0  0  0
 32 42  1  0  0  0  0
 32 51  1  0  0  0  0
 32 78  2  0  0  0  0
 33 72  1  0  0  0  0
 33 79  2  0  0  0  0
 34 52  1  0  0  0  0
 34 60  1  0  0  0  0
 34 80  2  0  0  0  0
 35 53  1  0  0  0  0
 35 74  1  0  0  0  0
 35 81  2  0  0  0  0
 36 61  1  0  0  0  0
 36 68  1  0  0  0  0
 36 82  2  0  0  0  0
 37 62  1  0  0  0  0
 37 75  1  0  0  0  0
 37 83  2  0  0  0  0
 38 69  1  0  0  0  0
 38 73  1  0  0  0  0
 38 84  2  0  0  0  0
 39 43  1  0  0  0  0
 40 53  1  0  0  0  0
 41 68  1  0  0  0  0
 42 44  1  0  0  0  0
 43 46  1  0  0  0  0
 44 52  1  0  0  0  0
 45 47  1  0  0  0  0
 45 48  1  0  0  0  0
 46 50  1  0  0  0  0
 47 54  1  0  0  0  0
 48 69  1  0  0  0  0
 49 54  1  0  0  0  0
 49 69  1  0  0  0  0
 50 74  1  0  0  0  0
 51 76  1  0  0  0  0
 52 76  1  0  0  0  0
 53 68  1  0  0  0  0
 54 67  1  0  0  0  0
 55 62  1  0  0  0  0
 56 63  1  0  0  0  0
 57 63  1  0  0  0  0
 58 63  1  0  0  0  0
 59 77  1  0  0  0  0
 60 86  1  0  0  0  0
 61 63  1  0  0  0  0
 61 75  1  0  0  0  0
 62 77  1  0  0  0  0
 65 67  1  0  0  0  0
M  CHG  2  76   1  77   1
M  ISO  4  38 100  60 101  73 100  86 101
M  END
> <Batch ID>
0169

> <Smiles>
CNC(C)C(=O)NC(C(=O)N1Cc2cc([101O:1][101CH2:1]C(=O)C3CCC(=O)C(c4ncc([100NH:0][100C:0](=O)N5CCCC(n6nc(-c7ccc(Oc8ccc(F)cc8F)cc7)c(C(N)=O)c6N)C5)nc4N)N3)ccc2CC1C(=O)NC1CCCc2ccccc21)C(C)(C)C

> <Shape>
0.283

> <Color>
0.086

> <Negative vol penalty>
0.000

$$$$

  -OEChem-04052304173D

 86 94  0     1  0  0  0  0  0999 V2000
  -29.5225  -30.3330   26.7935 C   0  0  0  0  0  0  0  0  0  0  0  0
  -29.2154  -29.5348   25.6962 C   0  0  0  0  0  0  0  0  0  0  0  0
  -24.4991   -8.3031   20.5707 C   0  0  0  0  0  0  0  0  0  0  0  0
  -22.8614  -10.0768   20.6648 C   0  0  0  0  0  0  0  0  0  0  0  0
  -28.5024  -30.9751   27.4942 C   0  0  0  0  0  0  0  0  0  0  0  0
  -27.8879  -29.3774   25.2996 C   0  0  0  0  0  0  0  0  0  0  0  0
  -27.2963  -29.7867   20.2868 C   0  0  0  0  0  0  0  0  0  0  0  0
  -28.2605  -20.4564   20.0892 C   0  0  0  0  0  0  0  0  0  0  0  0
  -28.4058  -19.1422   20.5332 C   0  0  0  0  0  0  0  0  0  0  0  0
  -23.5249   -7.3830   20.9579 C   0  0  0  0  0  0  0  0  0  0  0  0
  -21.8872   -9.1567   21.0519 C   0  0  0  0  0  0  0  0  0  0  0  0
  -27.6511  -28.6836   19.5117 C   0  0  0  0  0  0  0  0  0  0  0  0
  -21.5508   -4.6256   22.2706 C   0  0  0  0  0  0  0  0  0  0  0  0
  -21.8889   -3.6959   23.2539 C   0  0  0  0  0  0  0  0  0  0  0  0
  -25.3285  -28.0495   19.3618 C   0  0  0  0  0  0  0  0  0  0  0  0
  -22.3347   -5.4960   24.8025 C   0  0  0  0  0  0  0  0  0  0  0  0
  -24.1674   -9.6500   20.4242 C   0  0  0  0  0  0  0  0  0  0  0  0
  -25.5100  -10.9817   18.7119 C   0  0  0  0  0  0  0  0  0  0  0  0
  -27.1625  -30.8332   27.1001 C   0  0  0  0  0  0  0  0  0  0  0  0
  -25.9537  -30.0239   20.6150 C   0  0  0  0  0  0  0  0  0  0  0  0
  -26.8488  -30.0172   25.9965 C   0  0  0  0  0  0  0  0  0  0  0  0
  -24.9590  -29.1578   20.1391 C   0  0  0  0  0  0  0  0  0  0  0  0
  -27.4072  -19.6489   17.9781 C   0  0  0  0  0  0  0  0  0  0  0  0
  -27.5526  -18.3346   18.4221 C   0  0  0  0  0  0  0  0  0  0  0  0
  -27.7611  -20.7098   18.8117 C   0  0  0  0  0  0  0  0  0  0  0  0
  -28.0519  -18.0813   19.6997 C   0  0  0  0  0  0  0  0  0  0  0  0
  -22.2189   -7.8098   21.1985 C   0  0  0  0  0  0  0  0  0  0  0  0
  -26.6675  -27.8131   19.0514 C   0  0  0  0  0  0  0  0  0  0  0  0
  -21.6047   -5.9905   22.5531 C   0  0  0  0  0  0  0  0  0  0  0  0
  -22.2808   -4.1311   24.5199 C   0  0  0  0  0  0  0  0  0  0  0  0
  -21.9966   -6.4257   23.8191 C   0  0  0  0  0  0  0  0  0  0  0  0
  -25.1735  -10.6011   20.0248 C   0  0  0  0  0  0  0  0  0  0  0  0
  -26.5161  -11.9034   18.8689 C   0  0  0  0  0  0  0  0  0  0  0  0
  -27.2929  -25.5622   18.9373 C   0  0  0  0  0  0  0  0  0  1  0  0
  -24.9621  -10.5415   17.4623 C   0  0  0  0  0  0  0  0  0  0  0  0
  -27.6412  -24.4414   18.2938 C   0  0  0  0  0  0  0  0  0  0  0  0
  -27.9296  -23.2046   19.0910 C   0  0  0  0  0  0  0  0  0  0  0  0
  -24.3006  -30.1783   23.3256 C   0  0  0  0  0  0  0  0  0  0  0  0
  -21.8982  -31.1040   21.3523 C   0  0  0  0  0  0  0  0  0  0  0  0
  -20.5642  -31.0985   18.2111 C   0  0  0  0  0  0  0  0  0  0  0  0
  -28.6939  -16.3510   21.4144 C   0  0  0  0  0  0  0  0  0  0  0  0
  -26.0900  -31.5089   27.9174 C   0  0  0  0  0  0  0  0  0  0  0  0
  -25.5847  -31.2332   21.4297 C   0  0  0  0  0  0  0  0  0  0  0  0
  -23.5013  -29.3792   20.4465 C   0  0  0  0  0  0  0  0  0  0  0  0
  -24.7424  -31.5912   27.2050 C   0  0  0  0  0  0  0  0  0  0  0  0
  -29.1989  -13.1860   22.9652 C   0  0  0  0  0  0  0  0  0  0  0  0
  -24.3878  -30.2472   26.5767 C   0  0  0  0  0  0  0  0  0  0  0  0
  -28.2243  -12.2626   22.2304 C   0  0  0  0  0  0  0  0  0  0  0  0
  -28.6168  -14.5848   23.1607 C   0  0  0  0  0  0  0  0  0  0  0  0
  -27.1492  -14.3054   21.2018 C   0  0  0  0  0  0  0  0  0  0  0  0
  -25.4230  -29.8417   25.5205 C   0  0  1  0  0  0  0  0  0  0  0  0
  -24.2388  -31.0913   22.1339 C   0  0  1  0  0  0  0  0  0  0  0  0
  -27.7168  -12.9039   20.9240 C   0  0  2  0  0  0  0  0  0  0  0  0
  -26.8704  -19.9187   16.6071 C   0  0  0  0  0  0  0  0  0  0  0  0
  -28.3897  -16.5245   16.9024 C   0  0  0  0  0  0  0  0  0  0  0  0
  -18.5725  -31.9056   16.9154 C   0  0  0  0  0  0  0  0  0  0  0  0
  -20.2032  -28.8831   22.5789 C   0  0  0  0  0  0  0  0  0  0  0  0
  -18.6301  -29.1108   20.6446 C   0  0  0  0  0  0  0  0  0  0  0  0
  -18.9853  -31.0332   22.1940 C   0  0  0  0  0  0  0  0  0  0  0  0
  -22.2496  -32.7521   16.4268 C   0  0  0  0  0  0  0  0  0  0  0  0
  -27.1722  -17.1975   17.5260 C   0  0  0  0  0  0  0  0  0  0  0  0
  -20.8181  -30.3909   20.5753 C   0  0  1  0  0  0  0  0  0  0  0  0
  -19.9942  -32.2164   17.3569 C   0  0  2  0  0  0  0  0  0  0  0  0
  -19.6867  -29.8490   21.4939 C   0  0  0  0  0  0  0  0  0  0  0  0
  -25.9064  -11.2295   20.9478 N   0  0  0  0  0  0  0  0  0  0  0  0
  -26.7136  -12.0143   20.2138 N   0  0  0  0  0  0  0  0  0  0  0  0
  -23.1915  -30.5721   21.2520 N   0  0  0  0  0  0  0  0  0  0  0  0
  -28.1607  -15.1306   21.8805 N   0  0  0  0  0  0  0  0  0  0  0  0
  -27.2423  -12.6217   17.9863 N   0  0  0  0  0  0  0  0  0  0  0  0
  -23.9335   -9.5897   17.4820 N   0  0  0  0  0  0  0  0  0  0  0  0
  -27.6213  -22.0516   18.3822 N   0  0  0  0  0  0  0  0  0  0  0  0
  -28.2094  -16.7541   20.1705 N   0  0  0  0  0  0  0  0  0  0  0  0
  -25.2053  -30.5748   24.2919 N   0  0  0  0  0  0  0  0  0  0  0  0
  -20.3619  -31.3291   19.5554 N   0  0  0  0  0  0  0  0  0  0  0  0
  -20.8310  -32.4167   16.1401 N   0  3  0  0  0  0  0  0  0  0  0  0
  -25.3838  -10.9670   16.3601 O   0  0  0  0  0  0  0  0  0  0  0  0
  -28.3832  -23.2794   20.2279 O   0  0  0  0  0  0  0  0  0  0  0  0
  -23.5798  -29.1881   23.3661 O   0  0  0  0  0  0  0  0  0  0  0  0
  -21.6065  -32.1008   22.0180 O   0  0  0  0  0  0  0  0  0  0  0  0
  -21.1289  -30.1169   17.7335 O   0  0  0  0  0  0  0  0  0  0  0  0
  -29.5397  -16.9775   22.0579 O   0  0  0  0  0  0  0  0  0  0  0  0
  -27.7451  -24.3766   16.9192 O   0  0  0  0  0  0  0  0  0  0  0  0
  -21.2680   -6.9122   21.5760 O   0  0  0  0  0  0  0  0  0  0  0  0
  -27.0111  -26.7352   18.2951 O   0  0  0  0  0  0  0  0  0  1  0  0
  -22.6040   -3.2382   25.4645 F   0  0  0  0  0  0  0  0  0  0  0  0
  -22.0491   -7.7356   24.0969 F   0  0  0  0  0  0  0  0  0  0  0  0
  1  2  1  0  0  0  0
  1  5  2  0  0  0  0
  2  6  2  0  0  0  0
  3 10  2  0  0  0  0
  3 17  1  0  0  0  0
  4 11  1  0  0  0  0
  4 17  2  0  0  0  0
  5 19  1  0  0  0  0
  6 21  1  0  0  0  0
  7 12  2  0  0  0  0
  7 20  1  0  0  0  0
  8  9  1  0  0  0  0
  8 25  2  0  0  0  0
  9 26  2  0  0  0  0
 10 27  1  0  0  0  0
 11 27  2  0  0  0  0
 12 28  1  0  0  0  0
 13 14  2  0  0  0  0
 13 29  1  0  0  0  0
 14 30  1  0  0  0  0
 15 22  1  0  0  0  0
 15 28  2  0  0  0  0
 16 30  2  0  0  0  0
 16 31  1  0  0  0  0
 17 32  1  0  0  0  0
 18 32  1  0  0  0  0
 18 33  2  0  0  0  0
 18 35  1  0  0  0  0
 19 21  2  0  0  0  0
 19 42  1  0  0  0  0
 20 22  2  0  0  0  0
 20 43  1  0  0  0  0
 21 51  1  0  0  0  0
 22 44  1  0  0  0  0
 23 24  2  0  0  0  0
 23 25  1  0  0  0  0
 23 54  1  0  0  0  0
 24 26  1  0  0  0  0
 24 61  1  0  0  0  0
 25 71  1  0  0  0  0
 26 72  1  0  0  0  0
 27 83  1  0  0  0  0
 28 84  1  0  0  0  0
 29 31  2  0  0  0  0
 29 83  1  0  0  0  0
 30 85  1  0  0  0  0
 31 86  1  0  0  0  0
 32 65  2  0  0  0  0
 33 66  1  0  0  0  0
 33 69  1  0  0  0  0
 34 36  2  0  0  0  0
 34 84  1  0  0  0  0
 35 70  1  0  0  0  0
 35 76  2  0  0  0  0
 36 37  1  0  0  0  0
 36 82  1  0  0  0  0
 37 71  1  0  0  0  0
 37 77  2  0  0  0  0
 38 52  1  0  0  0  0
 38 73  1  0  0  0  0
 38 78  2  0  0  0  0
 39 62  1  0  0  0  0
 39 67  1  0  0  0  0
 39 79  2  0  0  0  0
 40 63  1  0  0  0  0
 40 74  1  0  0  0  0
 40 80  2  0  0  0  0
 41 68  1  0  0  0  0
 41 72  1  0  0  0  0
 41 81  2  0  0  0  0
 42 45  1  0  0  0  0
 43 52  1  0  0  0  0
 44 67  1  0  0  0  0
 45 47  1  0  0  0  0
 46 48  1  0  0  0  0
 46 49  1  0  0  0  0
 47 51  1  0  0  0  0
 48 53  1  0  0  0  0
 49 68  1  0  0  0  0
 50 53  1  0  0  0  0
 50 68  1  0  0  0  0
 51 73  1  0  0  0  0
 52 67  1  0  0  0  0
 53 66  1  0  0  0  0
 55 61  1  0  0  0  0
 56 63  1  0  0  0  0
 57 64  1  0  0  0  0
 58 64  1  0  0  0  0
 59 64  1  0  0  0  0
 60 75  1  0  0  0  0
 62 64  1  0  0  0  0
 62 74  1  0  0  0  0
 63 75  1  0  0  0  0
 65 66  1  0  0  0  0
M  CHG  1  75   1
M  ISO  4  34 101  41 100  72 100  84 101
M  END
> <Batch ID>
0169

> <Smiles>
CCc1c([100NH:0][100C:0](=O)N2CCCC(n3nc(-c4ccc(Oc5ccc(F)cc5F)cc4)c(C(N)=O)c3N)C2)ccc(NC(=O)C(=O)[101CH2:1][101O:1]c2ccc3c(c2)CN(C(=O)C(NC(=O)C(C)NC)C(C)(C)C)C(C(=O)NC2CCCc4ccccc42)C3)c1C

> <Shape>
0.288

> <Color>
0.108

> <Negative vol penalty>
0.000

$$$$

  -OEChem-04052304173D

 84 92  0     1  0  0  0  0  0999 V2000
  -17.2270  -23.5657   23.5834 C   0  0  0  0  0  0  0  0  0  0  0  0
  -18.4927  -23.0945   23.9174 C   0  0  0  0  0  0  0  0  0  0  0  0
  -22.9463   -9.9700   20.0095 C   0  0  0  0  0  0  0  0  0  0  0  0
  -23.6998   -9.9922   22.3049 C   0  0  0  0  0  0  0  0  0  0  0  0
  -17.0902  -24.7893   22.9292 C   0  0  0  0  0  0  0  0  0  0  0  0
  -19.6224  -23.8462   23.5963 C   0  0  0  0  0  0  0  0  0  0  0  0
  -24.7927  -24.2940   26.8479 C   0  0  0  0  0  0  0  0  0  0  0  0
  -22.1647   -8.8461   20.2768 C   0  0  0  0  0  0  0  0  0  0  0  0
  -22.9181   -8.8683   22.5723 C   0  0  0  0  0  0  0  0  0  0  0  0
  -26.0297  -23.6610   26.7348 C   0  0  0  0  0  0  0  0  0  0  0  0
  -23.1024   -5.5294   22.0734 C   0  0  0  0  0  0  0  0  0  0  0  0
  -23.6823   -4.4973   22.8109 C   0  0  0  0  0  0  0  0  0  0  0  0
  -26.8706  -25.5417   25.4798 C   0  0  0  0  0  0  0  0  0  0  0  0
  -31.9074  -17.3975   21.6721 C   0  0  0  0  0  0  0  0  0  0  0  0
  -21.9828   -4.7557   24.5086 C   0  0  0  0  0  0  0  0  0  0  0  0
  -23.7139  -10.5430   21.0235 C   0  0  0  0  0  0  0  0  0  0  0  0
  -24.1379  -13.0533   20.8610 C   0  0  0  0  0  0  0  0  0  0  0  0
  -18.2182  -25.5609   22.6086 C   0  0  0  0  0  0  0  0  0  0  0  0
  -24.5817  -25.5530   26.2675 C   0  0  0  0  0  0  0  0  0  0  0  0
  -19.5006  -25.0806   22.9360 C   0  0  0  0  0  0  0  0  0  0  0  0
  -25.6308  -26.1897   25.5892 C   0  0  0  0  0  0  0  0  0  0  0  0
  -32.0344  -18.6648   22.3109 C   0  0  0  0  0  0  0  0  0  0  0  0
  -22.1505   -8.2953   21.5582 C   0  0  0  0  0  0  0  0  0  0  0  0
  -27.0680  -24.2835   26.0482 C   0  0  0  0  0  0  0  0  0  0  0  0
  -21.9628   -6.1748   22.5534 C   0  0  0  0  0  0  0  0  0  0  0  0
  -23.1225   -4.1104   24.0285 C   0  0  0  0  0  0  0  0  0  0  0  0
  -21.4029   -5.7878   23.7710 C   0  0  0  0  0  0  0  0  0  0  0  0
  -24.5220  -11.7037   20.7477 C   0  0  0  0  0  0  0  0  0  0  0  0
  -25.2549  -13.7605   20.4884 C   0  0  0  0  0  0  0  0  0  0  0  0
  -30.6760  -16.8239   21.9006 C   0  0  0  0  0  0  0  0  0  0  0  0
  -30.8950  -19.0116   23.0034 C   0  0  0  0  0  0  0  0  0  0  0  0
  -28.3235  -22.4530   25.3109 C   0  0  0  0  0  0  0  0  0  1  0  0
  -22.8838  -13.6173   21.2667 C   0  0  0  0  0  0  0  0  0  0  0  0
  -29.4562  -21.7594   25.1450 C   0  0  0  0  0  0  0  0  0  0  0  0
  -29.4022  -20.4349   24.4441 C   0  0  0  0  0  0  0  0  0  0  0  0
  -22.6468  -26.6892   24.0161 C   0  0  0  0  0  0  0  0  0  0  0  0
  -23.9091  -29.5383   24.9173 C   0  0  0  0  0  0  0  0  0  0  0  0
  -26.4997  -31.2359   26.3504 C   0  0  0  0  0  0  0  0  0  0  0  0
  -30.7517  -14.6310   20.6631 C   0  0  0  0  0  0  0  0  0  0  0  0
  -18.0233  -26.8551   21.8589 C   0  0  0  0  0  0  0  0  0  0  0  0
  -23.2496  -26.2343   26.4214 C   0  0  0  0  0  0  0  0  0  0  0  0
  -25.4617  -27.5502   24.9655 C   0  0  0  0  0  0  0  0  0  0  0  0
  -19.2475  -27.7665   21.8887 C   0  0  0  0  0  0  0  0  0  0  0  0
  -29.5658  -12.2140   18.3330 C   0  0  0  0  0  0  0  0  0  0  0  0
  -20.5121  -26.9722   21.5778 C   0  0  0  0  0  0  0  0  0  0  0  0
  -28.1163  -11.9768   18.7628 C   0  0  0  0  0  0  0  0  0  0  0  0
  -30.4846  -12.4337   19.5336 C   0  0  0  0  0  0  0  0  0  0  0  0
  -28.5985  -13.2435   20.8959 C   0  0  0  0  0  0  0  0  0  0  0  0
  -20.7486  -25.8788   22.6266 C   0  0  1  0  0  0  0  0  0  0  0  0
  -22.9906  -27.2891   25.3501 C   0  0  1  0  0  0  0  0  0  0  0  0
  -27.6237  -13.0816   19.7181 C   0  0  2  0  0  0  0  0  0  0  0  0
  -33.1044  -20.6735   21.2589 C   0  0  0  0  0  0  0  0  0  0  0  0
  -27.2614  -33.5602   26.9111 C   0  0  0  0  0  0  0  0  0  0  0  0
  -24.6098  -30.0132   21.9858 C   0  0  0  0  0  0  0  0  0  0  0  0
  -26.1653  -31.8306   22.7243 C   0  0  0  0  0  0  0  0  0  0  0  0
  -23.7209  -32.0201   23.1843 C   0  0  0  0  0  0  0  0  0  0  0  0
  -26.5837  -30.6344   29.2470 C   0  0  0  0  0  0  0  0  0  0  0  0
  -33.2546  -19.5032   22.2328 C   0  0  0  0  0  0  0  0  0  0  0  0
  -25.1039  -30.3593   24.4962 C   0  0  1  0  0  0  0  0  0  0  0  0
  -26.5283  -32.3241   27.4083 C   0  0  2  0  0  0  0  0  0  0  0  0
  -24.9029  -31.0293   23.1077 C   0  0  0  0  0  0  0  0  0  0  0  0
  -25.7842  -11.5596   20.3353 N   0  0  0  0  0  0  0  0  0  0  0  0
  -26.2030  -12.8278   20.1861 N   0  0  0  0  0  0  0  0  0  0  0  0
  -24.1388  -28.1728   25.1378 N   0  0  0  0  0  0  0  0  0  0  0  0
  -29.9571  -13.4972   20.3912 N   0  0  0  0  0  0  0  0  0  0  0  0
  -25.5086  -15.0830   20.3931 N   0  0  0  0  0  0  0  0  0  0  0  0
  -21.8419  -12.7474   21.6163 N   0  0  0  0  0  0  0  0  0  0  0  0
  -30.5841  -20.1605   23.7700 N   0  0  0  0  0  0  0  0  0  0  0  0
  -30.1325  -15.5906   21.4633 N   0  0  0  0  0  0  0  0  0  0  0  0
  -21.2976  -26.4502   23.8376 N   0  0  0  0  0  0  0  0  0  0  0  0
  -25.3562  -31.2998   25.5826 N   0  0  0  0  0  0  0  0  0  0  0  0
  -27.2137  -31.8338   28.6374 N   0  3  0  0  0  0  0  0  0  0  0  0
  -22.6875  -14.8557   21.3020 O   0  0  0  0  0  0  0  0  0  0  0  0
  -28.3997  -19.7312   24.5036 O   0  0  0  0  0  0  0  0  0  0  0  0
  -23.5394  -26.4616   23.2079 O   0  0  0  0  0  0  0  0  0  0  0  0
  -22.8139  -30.0895   25.0527 O   0  0  0  0  0  0  0  0  0  0  0  0
  -27.4033  -30.4137   26.2159 O   0  0  0  0  0  0  0  0  0  0  0  0
  -31.8869  -14.7548   20.1963 O   0  0  0  0  0  0  0  0  0  0  0  0
  -30.6788  -22.2163   25.5937 O   0  0  0  0  0  0  0  0  0  0  0  0
  -21.3878   -7.1987   21.8196 O   0  0  0  0  0  0  0  0  0  0  0  0
  -28.2762  -23.6675   25.9358 O   0  0  0  0  0  0  0  0  0  1  0  0
  -23.6786   -3.1182   24.7360 F   0  0  0  0  0  0  0  0  0  0  0  0
  -20.3074   -6.4032   24.2368 F   0  0  0  0  0  0  0  0  0  0  0  0
  -29.6792  -17.8119   22.8819 S   0  0  0  0  0  0  0  0  0  0  0  0
  1  2  1  0  0  0  0
  1  5  2  0  0  0  0
  2  6  2  0  0  0  0
  3  8  2  0  0  0  0
  3 16  1  0  0  0  0
  4  9  1  0  0  0  0
  4 16  2  0  0  0  0
  5 18  1  0  0  0  0
  6 20  1  0  0  0  0
  7 10  2  0  0  0  0
  7 19  1  0  0  0  0
  8 23  1  0  0  0  0
  9 23  2  0  0  0  0
 10 24  1  0  0  0  0
 11 12  2  0  0  0  0
 11 25  1  0  0  0  0
 12 26  1  0  0  0  0
 13 21  1  0  0  0  0
 13 24  2  0  0  0  0
 14 22  1  0  0  0  0
 14 30  2  0  0  0  0
 15 26  2  0  0  0  0
 15 27  1  0  0  0  0
 16 28  1  0  0  0  0
 17 28  1  0  0  0  0
 17 29  2  0  0  0  0
 17 33  1  0  0  0  0
 18 20  2  0  0  0  0
 18 40  1  0  0  0  0
 19 21  2  0  0  0  0
 19 41  1  0  0  0  0
 20 49  1  0  0  0  0
 21 42  1  0  0  0  0
 22 31  2  0  0  0  0
 22 58  1  0  0  0  0
 23 80  1  0  0  0  0
 24 81  1  0  0  0  0
 25 27  2  0  0  0  0
 25 80  1  0  0  0  0
 26 82  1  0  0  0  0
 27 83  1  0  0  0  0
 28 62  2  0  0  0  0
 29 63  1  0  0  0  0
 29 66  1  0  0  0  0
 30 69  1  0  0  0  0
 30 84  1  0  0  0  0
 31 68  1  0  0  0  0
 31 84  1  0  0  0  0
 32 34  2  0  0  0  0
 32 81  1  0  0  0  0
 33 67  1  0  0  0  0
 33 73  2  0  0  0  0
 34 35  1  0  0  0  0
 34 79  1  0  0  0  0
 35 68  1  0  0  0  0
 35 74  2  0  0  0  0
 36 50  1  0  0  0  0
 36 70  1  0  0  0  0
 36 75  2  0  0  0  0
 37 59  1  0  0  0  0
 37 64  1  0  0  0  0
 37 76  2  0  0  0  0
 38 60  1  0  0  0  0
 38 71  1  0  0  0  0
 38 77  2  0  0  0  0
 39 65  1  0  0  0  0
 39 69  1  0  0  0  0
 39 78  2  0  0  0  0
 40 43  1  0  0  0  0
 41 50  1  0  0  0  0
 42 64  1  0  0  0  0
 43 45  1  0  0  0  0
 44 46  1  0  0  0  0
 44 47  1  0  0  0  0
 45 49  1  0  0  0  0
 46 51  1  0  0  0  0
 47 65  1  0  0  0  0
 48 51  1  0  0  0  0
 48 65  1  0  0  0  0
 49 70  1  0  0  0  0
 50 64  1  0  0  0  0
 51 63  1  0  0  0  0
 52 58  1  0  0  0  0
 53 60  1  0  0  0  0
 54 61  1  0  0  0  0
 55 61  1  0  0  0  0
 56 61  1  0  0  0  0
 57 72  1  0  0  0  0
 59 61  1  0  0  0  0
 59 71  1  0  0  0  0
 60 72  1  0  0  0  0
 62 63  1  0  0  0  0
M  CHG  1  72   1
M  ISO  4  32 101  39 100  69 100  81 101
M  END
> <Batch ID>
0169

> <Smiles>
CCc1cc([100NH:0][100C:0](=O)N2CCCC(n3nc(-c4ccc(Oc5ccc(F)cc5F)cc4)c(C(N)=O)c3N)C2)sc1NC(=O)C(=O)[101CH2:1][101O:1]c1ccc2c(c1)CN(C(=O)C(NC(=O)C(C)NC)C(C)(C)C)C(C(=O)NC1CCCc3ccccc31)C2

> <Shape>
0.287

> <Color>
0.193

> <Negative vol penalty>
0.000

$$$$

  -OEChem-04052304173D

 88 96  0     1  0  0  0  0  0999 V2000
  -28.2903  -31.9920   27.0681 C   0  0  0  0  0  0  0  0  0  0  0  0
  -28.2660  -30.8533   26.2691 C   0  0  0  0  0  0  0  0  0  0  0  0
  -24.6439   -8.7481   21.5774 C   0  0  0  0  0  0  0  0  0  0  0  0
  -22.8969  -10.3444   21.0910 C   0  0  0  0  0  0  0  0  0  0  0  0
  -27.1086  -32.6842   27.3294 C   0  0  0  0  0  0  0  0  0  0  0  0
  -27.0596  -30.4056   25.7319 C   0  0  0  0  0  0  0  0  0  0  0  0
  -27.4655  -29.1181   20.8510 C   0  0  0  0  0  0  0  0  0  0  0  0
  -23.7996   -8.0983   22.4777 C   0  0  0  0  0  0  0  0  0  0  0  0
  -22.0525   -9.6946   21.9912 C   0  0  0  0  0  0  0  0  0  0  0  0
  -28.0435  -27.8822   20.5645 C   0  0  0  0  0  0  0  0  0  0  0  0
  -21.2219   -5.9143   22.3432 C   0  0  0  0  0  0  0  0  0  0  0  0
  -21.1689   -4.5214   22.2926 C   0  0  0  0  0  0  0  0  0  0  0  0
  -25.8474  -26.9349   20.2495 C   0  0  0  0  0  0  0  0  0  0  0  0
  -24.6778  -18.2513   19.2601 C   0  0  0  0  0  0  0  0  0  0  0  0
  -26.8585  -19.2403   19.5813 C   0  0  0  0  0  0  0  0  0  0  0  0
  -21.9286   -4.4092   24.5833 C   0  0  0  0  0  0  0  0  0  0  0  0
  -24.1926   -9.8712   20.8841 C   0  0  0  0  0  0  0  0  0  0  0  0
  -24.9743  -20.6343   18.9951 C   0  0  0  0  0  0  0  0  0  0  0  0
  -25.2060  -10.2792   18.5788 C   0  0  0  0  0  0  0  0  0  0  0  0
  -25.8886  -32.2502   26.7872 C   0  0  0  0  0  0  0  0  0  0  0  0
  -26.0713  -29.2693   20.8496 C   0  0  0  0  0  0  0  0  0  0  0  0
  -25.8602  -31.0918   25.9873 C   0  0  0  0  0  0  0  0  0  0  0  0
  -25.2543  -28.1745   20.5338 C   0  0  0  0  0  0  0  0  0  0  0  0
  -24.1485  -19.5103   18.9764 C   0  0  0  0  0  0  0  0  0  0  0  0
  -26.0327  -18.1163   19.5626 C   0  0  0  0  0  0  0  0  0  0  0  0
  -26.3293  -20.4994   19.2976 C   0  0  0  0  0  0  0  0  0  0  0  0
  -22.5039   -8.5716   22.6846 C   0  0  0  0  0  0  0  0  0  0  0  0
  -27.2344  -26.7897   20.2665 C   0  0  0  0  0  0  0  0  0  0  0  0
  -21.6283   -6.5547   23.5139 C   0  0  0  0  0  0  0  0  0  0  0  0
  -21.5222   -3.7688   23.4126 C   0  0  0  0  0  0  0  0  0  0  0  0
  -21.9816   -5.8021   24.6339 C   0  0  0  0  0  0  0  0  0  0  0  0
  -25.0645  -10.5431   19.9544 C   0  0  0  0  0  0  0  0  0  0  0  0
  -26.1487  -11.1819   18.1512 C   0  0  0  0  0  0  0  0  0  0  0  0
  -24.4159  -21.9507   18.6982 C   0  0  0  0  0  0  0  0  0  0  0  0
  -24.5445   -9.3051   17.7608 C   0  0  0  0  0  0  0  0  0  0  0  0
  -29.1219  -23.0099   19.5350 C   0  0  0  0  0  0  0  0  0  0  0  0
  -28.5378  -21.6282   19.5990 C   0  0  0  0  0  0  0  0  0  0  0  0
  -23.8986  -30.0599   23.0309 C   0  0  0  0  0  0  0  0  0  0  0  0
  -21.8867  -29.9870   20.4875 C   0  0  0  0  0  0  0  0  0  0  0  0
  -21.2176  -28.8081   17.3555 C   0  0  0  0  0  0  0  0  0  0  0  0
  -27.8920  -16.5288   20.1702 C   0  0  0  0  0  0  0  0  0  0  0  0
  -24.6299  -33.0041   27.1363 C   0  0  0  0  0  0  0  0  0  0  0  0
  -25.4643  -30.6157   21.1346 C   0  0  0  0  0  0  0  0  0  0  0  0
  -23.7529  -28.2893   20.4991 C   0  0  0  0  0  0  0  0  0  0  0  0
  -23.4514  -32.6783   26.2224 C   0  0  0  0  0  0  0  0  0  0  0  0
  -29.9427  -13.6550   19.7081 C   0  0  0  0  0  0  0  0  0  0  0  0
  -23.3230  -31.1701   26.0340 C   0  0  0  0  0  0  0  0  0  0  0  0
  -28.9371  -12.5077   19.5876 C   0  0  0  0  0  0  0  0  0  0  0  0
  -29.4870  -14.7045   20.7205 C   0  0  0  0  0  0  0  0  0  0  0  0
  -27.1273  -14.0823   20.3830 C   0  0  0  0  0  0  0  0  0  0  0  0
  -24.5752  -30.5890   25.3661 C   0  0  1  0  0  0  0  0  0  0  0  0
  -24.0168  -30.5302   21.6087 C   0  0  1  0  0  0  0  0  0  0  0  0
  -27.5116  -13.0328   19.3272 C   0  0  2  0  0  0  0  0  0  0  0  0
  -22.6936  -19.6227   18.6551 C   0  0  0  0  0  0  0  0  0  0  0  0
  -23.8831  -22.7471   19.8501 C   0  0  0  0  0  0  0  0  0  0  0  0
  -19.4783  -28.8930   15.5486 C   0  0  0  0  0  0  0  0  0  0  0  0
  -20.1338  -28.0698   22.0880 C   0  0  0  0  0  0  0  0  0  0  0  0
  -18.9717  -27.4623   19.9552 C   0  0  0  0  0  0  0  0  0  0  0  0
  -18.8755  -29.8068   20.8020 C   0  0  0  0  0  0  0  0  0  0  0  0
  -23.1121  -30.0140   15.4280 C   0  0  0  0  0  0  0  0  0  0  0  0
  -29.1558  -23.7854   20.8336 C   0  0  0  0  0  0  0  0  0  0  0  0
  -29.0445  -25.2862   20.6116 C   0  0  0  0  0  0  0  0  0  1  0  0
  -21.0366  -28.9288   19.8268 C   0  0  1  0  0  0  0  0  0  0  0  0
  -20.7572  -29.5115   16.0915 C   0  0  2  0  0  0  0  0  0  0  0  0
  -19.7826  -28.5640   20.6705 C   0  0  0  0  0  0  0  0  0  0  0  0
  -25.8542  -11.5357   20.3729 N   0  0  0  0  0  0  0  0  0  0  0  0
  -26.5011  -11.9033   19.2537 N   0  0  0  0  0  0  0  0  0  0  0  0
  -23.2067  -29.6249   20.7910 N   0  0  0  0  0  0  0  0  0  0  0  0
  -28.1302  -15.1586   20.4082 N   0  0  0  0  0  0  0  0  0  0  0  0
  -26.7025  -11.4209   16.9434 N   0  0  0  0  0  0  0  0  0  0  0  0
  -23.6036   -8.4570   18.3605 N   0  0  0  0  0  0  0  0  0  0  0  0
  -27.1874  -21.6234   19.3238 N   0  0  0  0  0  0  0  0  0  0  0  0
  -26.5701  -16.8373   19.8508 N   0  0  0  0  0  0  0  0  0  0  0  0
  -24.5606  -30.8581   23.9442 N   0  0  0  0  0  0  0  0  0  0  0  0
  -20.7329  -29.4256   18.4891 N   0  0  0  0  0  0  0  0  0  0  0  0
  -21.8068  -29.4221   15.0373 N   0  3  0  0  0  0  0  0  0  0  0  0
  -24.3486  -22.4458   17.5750 O   0  0  0  0  0  0  0  0  0  0  0  0
  -24.7927   -9.1793   16.5376 O   0  0  0  0  0  0  0  0  0  0  0  0
  -29.5319  -23.3943   18.4503 O   0  0  0  0  0  0  0  0  0  0  0  0
  -29.3113  -20.7193   19.8509 O   0  0  0  0  0  0  0  0  0  0  0  0
  -23.2534  -29.0487   23.2813 O   0  0  0  0  0  0  0  0  0  0  0  0
  -21.3996  -31.0964   20.7190 O   0  0  0  0  0  0  0  0  0  0  0  0
  -21.9324  -27.8084   17.3389 O   0  0  0  0  0  0  0  0  0  0  0  0
  -28.7997  -17.3630   20.2176 O   0  0  0  0  0  0  0  0  0  0  0  0
  -21.6796   -7.9376   23.5629 O   0  0  0  0  0  0  0  0  0  0  0  0
  -27.7960  -25.5820   19.9871 O   0  0  0  0  0  0  0  0  0  1  0  0
  -21.4698   -2.4312   23.3643 F   0  0  0  0  0  0  0  0  0  0  0  0
  -22.3717   -6.4117   25.7618 F   0  0  0  0  0  0  0  0  0  0  0  0
  1  2  1  0  0  0  0
  1  5  2  0  0  0  0
  2  6  2  0  0  0  0
  3  8  2  0  0  0  0
  3 17  1  0  0  0  0
  4  9  1  0  0  0  0
  4 17  2  0  0  0  0
  5 20  1  0  0  0  0
  6 22  1  0  0  0  0
  7 10  2  0  0  0  0
  7 21  1  0  0  0  0
  8 27  1  0  0  0  0
  9 27  2  0  0  0  0
 10 28  1  0  0  0  0
 11 12  2  0  0  0  0
 11 29  1  0  0  0  0
 12 30  1  0  0  0  0
 13 23  1  0  0  0  0
 13 28  2  0  0  0  0
 14 24  2  0  0  0  0
 14 25  1  0  0  0  0
 15 25  2  0  0  0  0
 15 26  1  0  0  0  0
 16 30  2  0  0  0  0
 16 31  1  0  0  0  0
 17 32  1  0  0  0  0
 18 24  1  0  0  0  0
 18 26  2  0  0  0  0
 18 34  1  0  0  0  0
 19 32  1  0  0  0  0
 19 33  2  0  0  0  0
 19 35  1  0  0  0  0
 20 22  2  0  0  0  0
 20 42  1  0  0  0  0
 21 23  2  0  0  0  0
 21 43  1  0  0  0  0
 22 51  1  0  0  0  0
 23 44  1  0  0  0  0
 24 54  1  0  0  0  0
 25 73  1  0  0  0  0
 26 72  1  0  0  0  0
 27 85  1  0  0  0  0
 28 86  1  0  0  0  0
 29 31  2  0  0  0  0
 29 85  1  0  0  0  0
 30 87  1  0  0  0  0
 31 88  1  0  0  0  0
 32 66  2  0  0  0  0
 33 67  1  0  0  0  0
 33 70  1  0  0  0  0
 34 55  1  0  0  0  0
 34 77  2  0  0  0  0
 35 71  1  0  0  0  0
 35 78  2  0  0  0  0
 36 37  1  0  0  0  0
 36 61  1  0  0  0  0
 36 79  2  0  0  0  0
 37 72  1  0  0  0  0
 37 80  2  0  0  0  0
 38 52  1  0  0  0  0
 38 74  1  0  0  0  0
 38 81  2  0  0  0  0
 39 63  1  0  0  0  0
 39 68  1  0  0  0  0
 39 82  2  0  0  0  0
 40 64  1  0  0  0  0
 40 75  1  0  0  0  0
 40 83  2  0  0  0  0
 41 69  1  0  0  0  0
 41 73  1  0  0  0  0
 41 84  2  0  0  0  0
 42 45  1  0  0  0  0
 43 52  1  0  0  0  0
 44 68  1  0  0  0  0
 45 47  1  0  0  0  0
 46 48  1  0  0  0  0
 46 49  1  0  0  0  0
 47 51  1  0  0  0  0
 48 53  1  0  0  0  0
 49 69  1  0  0  0  0
 50 53  1  0  0  0  0
 50 69  1  0  0  0  0
 51 74  1  0  0  0  0
 52 68  1  0  0  0  0
 53 67  1  0  0  0  0
 56 64  1  0  0  0  0
 57 65  1  0  0  0  0
 58 65  1  0  0  0  0
 59 65  1  0  0  0  0
 60 76  1  0  0  0  0
 61 62  1  0  0  0  0
 62 86  1  0  0  0  0
 63 65  1  0  0  0  0
 63 75  1  0  0  0  0
 64 76  1  0  0  0  0
 66 67  1  0  0  0  0
M  CHG  1  76   1
M  ISO  4  41 100  62 101  73 100  86 101
M  END
> <Batch ID>
0169

> <Smiles>
CNC(C)C(=O)NC(C(=O)N1Cc2cc([101O:1][101CH2:1]CC(=O)C(=O)Nc3cc([100NH:0][100C:0](=O)N4CCCC(n5nc(-c6ccc(Oc7ccc(F)cc7F)cc6)c(C(N)=O)c5N)C4)cc(C)c3C(C)=O)ccc2CC1C(=O)NC1CCCc2ccccc21)C(C)(C)C

> <Shape>
0.306

> <Color>
0.128

> <Negative vol penalty>
0.000

$$$$

  -OEChem-04052304173D

 84 92  0     1  0  0  0  0  0999 V2000
  -25.4722  -10.9669   20.5187 C   0  0  0  0  0  0  0  0  0  0  0  0
  -26.1781  -11.8868   19.7500 C   0  0  0  0  0  0  0  0  0  0  0  0
  -20.6404  -26.5539   23.0938 C   0  0  0  0  0  0  0  0  0  0  0  0
  -19.9163  -28.6645   22.1674 C   0  0  0  0  0  0  0  0  0  0  0  0
  -29.0637  -25.9621   20.9627 C   0  0  0  0  0  0  0  0  0  0  0  0
  -24.3561  -11.3785   21.2458 C   0  0  0  0  0  0  0  0  0  0  0  0
  -25.7676  -13.2187   19.7071 C   0  0  0  0  0  0  0  0  0  0  0  0
  -29.3533  -18.1639   19.2671 C   0  0  0  0  0  0  0  0  0  0  0  0
  -19.3258  -26.2628   23.4582 C   0  0  0  0  0  0  0  0  0  0  0  0
  -18.6017  -28.3733   22.5317 C   0  0  0  0  0  0  0  0  0  0  0  0
  -29.7219  -18.9620   18.1849 C   0  0  0  0  0  0  0  0  0  0  0  0
  -16.5117  -25.1485   21.9508 C   0  0  0  0  0  0  0  0  0  0  0  0
  -16.0325  -23.8670   21.6794 C   0  0  0  0  0  0  0  0  0  0  0  0
  -29.3062  -24.9581   20.0318 C   0  0  0  0  0  0  0  0  0  0  0  0
  -27.9591  -20.5136   18.7364 C   0  0  0  0  0  0  0  0  0  0  0  0
  -15.6260  -23.5201   24.0356 C   0  0  0  0  0  0  0  0  0  0  0  0
  -20.9356  -27.7548   22.4484 C   0  0  0  0  0  0  0  0  0  0  0  0
  -30.0004  -26.9730   21.1465 C   0  0  0  0  0  0  0  0  0  0  0  0
  -22.9288  -27.7408   20.8564 C   0  0  0  0  0  0  0  0  0  0  0  0
  -23.9374  -12.7181   21.2195 C   0  0  0  0  0  0  0  0  0  0  0  0
  -28.2760  -18.5298   20.0869 C   0  0  0  0  0  0  0  0  0  0  0  0
  -24.6440  -13.6484   20.4335 C   0  0  0  0  0  0  0  0  0  0  0  0
  -27.5804  -19.7198   19.8298 C   0  0  0  0  0  0  0  0  0  0  0  0
  -18.3064  -27.1725   23.1771 C   0  0  0  0  0  0  0  0  0  0  0  0
  -29.0230  -20.1355   17.9177 C   0  0  0  0  0  0  0  0  0  0  0  0
  -16.5482  -25.6158   23.2646 C   0  0  0  0  0  0  0  0  0  0  0  0
  -15.5896  -23.0528   22.7218 C   0  0  0  0  0  0  0  0  0  0  0  0
  -16.1053  -24.8016   24.3070 C   0  0  0  0  0  0  0  0  0  0  0  0
  -22.2935  -28.0563   22.0723 C   0  0  0  0  0  0  0  0  0  0  0  0
  -30.4913  -25.0100   19.3158 C   0  0  0  0  0  0  0  0  0  0  0  0
  -31.1546  -26.9346   20.3808 C   0  0  0  0  0  0  0  0  0  0  0  0
  -24.2013  -28.2389   20.9945 C   0  0  0  0  0  0  0  0  0  0  0  0
  -29.7340  -28.0329   22.1352 C   0  0  0  0  0  0  0  0  0  0  0  0
  -22.4147  -27.0584   19.7049 C   0  0  0  0  0  0  0  0  0  0  0  0
  -25.4675  -17.2304   20.8130 C   0  0  0  0  0  0  0  0  0  0  0  0
  -25.3007  -19.7074   22.9009 C   0  0  0  0  0  0  0  0  0  0  0  0
  -26.3099  -22.8556   23.7478 C   0  0  0  0  0  0  0  0  0  0  0  0
  -28.8138  -28.8552   24.0764 C   0  0  0  0  0  0  0  0  0  0  0  0
  -22.6969  -13.1062   21.9846 C   0  0  0  0  0  0  0  0  0  0  0  0
  -27.9079  -17.6718   21.2662 C   0  0  0  0  0  0  0  0  0  0  0  0
  -26.4293  -20.1675   20.6918 C   0  0  0  0  0  0  0  0  0  0  0  0
  -22.5495  -14.6126   22.1822 C   0  0  0  0  0  0  0  0  0  0  0  0
  -26.1924  -31.2977   24.4864 C   0  0  0  0  0  0  0  0  0  0  0  0
  -22.8129  -15.3511   20.8737 C   0  0  0  0  0  0  0  0  0  0  0  0
  -24.9879  -30.6284   23.8247 C   0  0  0  0  0  0  0  0  0  0  0  0
  -27.0878  -30.2771   25.1823 C   0  0  0  0  0  0  0  0  0  0  0  0
  -26.3429  -28.4967   23.6254 C   0  0  0  0  0  0  0  0  0  0  0  0
  -24.2445  -15.1071   20.3811 C   0  0  1  0  0  0  0  0  0  0  0  0
  -26.4685  -17.8769   21.7282 C   0  0  1  0  0  0  0  0  0  0  0  0
  -25.4329  -29.4926   22.8862 C   0  0  1  0  0  0  0  0  0  0  0  0
  -25.9730  -24.6304   25.4896 C   0  0  0  0  0  0  0  0  0  0  0  0
  -22.5995  -20.4041   21.6648 C   0  0  0  0  0  0  0  0  0  0  0  0
  -22.7648  -22.6568   22.7447 C   0  0  0  0  0  0  0  0  0  0  0  0
  -22.6887  -20.6015   24.1563 C   0  0  0  0  0  0  0  0  0  0  0  0
  -30.5731  -22.6592   15.7755 C   0  0  0  0  0  0  0  0  0  0  0  0
  -31.6533  -21.2722   17.5587 C   0  0  0  0  0  0  0  0  0  0  0  0
  -29.1637  -22.7938   24.5294 C   0  0  0  0  0  0  0  0  0  0  0  0
  -29.7926  -22.9215   18.1430 C   0  0  0  0  0  0  0  0  0  0  0  0
  -24.7829  -21.1241   22.8397 C   0  0  1  0  0  0  0  0  0  0  0  0
  -26.8085  -23.4348   25.0594 C   0  0  2  0  0  0  0  0  0  0  0  0
  -23.2294  -21.1875   22.8338 C   0  0  0  0  0  0  0  0  0  0  0  0
  -30.3496  -21.9344   17.1054 C   0  0  0  0  0  0  0  0  0  1  0  0
  -23.0962  -28.7046   22.9205 N   0  0  0  0  0  0  0  0  0  0  0  0
  -31.4251  -25.9759   19.4669 N   0  0  0  0  0  0  0  0  0  0  0  0
  -29.0238  -27.8137   23.1929 N   0  0  0  0  0  0  0  0  0  0  0  0
  -24.2490  -28.8004   22.2365 N   0  0  0  0  0  0  0  0  0  0  0  0
  -26.1035  -19.2914   21.8293 N   0  0  0  0  0  0  0  0  0  0  0  0
  -27.4625  -29.1966   24.2690 N   0  0  0  0  0  0  0  0  0  0  0  0
  -32.1145  -27.9613   20.5631 N   0  0  0  0  0  0  0  0  0  0  0  0
  -25.2729  -28.2470   20.1735 N   0  0  0  0  0  0  0  0  0  0  0  0
  -21.0861  -26.6129   19.7303 N   0  0  0  0  0  0  0  0  0  0  0  0
  -30.7180  -24.0042   18.3917 N   0  0  0  0  0  0  0  0  0  0  0  0
  -25.1816  -15.9162   21.1304 N   0  0  0  0  0  0  0  0  0  0  0  0
  -25.4057  -21.8347   23.9513 N   0  0  0  0  0  0  0  0  0  0  0  0
  -28.2258  -23.8757   24.9254 N   0  3  0  0  0  0  0  0  0  0  0  0
  -23.1177  -26.8356   18.6903 O   0  0  0  0  0  0  0  0  0  0  0  0
  -24.9887  -17.8765   19.8884 O   0  0  0  0  0  0  0  0  0  0  0  0
  -25.0097  -18.9983   23.8674 O   0  0  0  0  0  0  0  0  0  0  0  0
  -26.6823  -23.2700   22.6523 O   0  0  0  0  0  0  0  0  0  0  0  0
  -29.7193  -29.4500   24.6657 O   0  0  0  0  0  0  0  0  0  0  0  0
  -17.0235  -26.8886   23.5323 O   0  0  0  0  0  0  0  0  0  0  0  0
  -29.3803  -20.9159   16.8617 O   0  0  0  0  0  0  0  0  0  1  0  0
  -15.1280  -21.8227   22.4609 F   0  0  0  0  0  0  0  0  0  0  0  0
  -16.1368  -25.2455   25.5710 F   0  0  0  0  0  0  0  0  0  0  0  0
  1  2  1  0  0  0  0
  1  6  2  0  0  0  0
  2  7  2  0  0  0  0
  3  9  2  0  0  0  0
  3 17  1  0  0  0  0
  4 10  1  0  0  0  0
  4 17  2  0  0  0  0
  5 14  2  0  0  0  0
  5 18  1  0  0  0  0
  6 20  1  0  0  0  0
  7 22  1  0  0  0  0
  8 11  2  0  0  0  0
  8 21  1  0  0  0  0
  9 24  1  0  0  0  0
 10 24  2  0  0  0  0
 11 25  1  0  0  0  0
 12 13  2  0  0  0  0
 12 26  1  0  0  0  0
 13 27  1  0  0  0  0
 14 30  1  0  0  0  0
 15 23  1  0  0  0  0
 15 25  2  0  0  0  0
 16 27  2  0  0  0  0
 16 28  1  0  0  0  0
 17 29  1  0  0  0  0
 18 31  2  0  0  0  0
 18 33  1  0  0  0  0
 19 29  1  0  0  0  0
 19 32  2  0  0  0  0
 19 34  1  0  0  0  0
 20 22  2  0  0  0  0
 20 39  1  0  0  0  0
 21 23  2  0  0  0  0
 21 40  1  0  0  0  0
 22 48  1  0  0  0  0
 23 41  1  0  0  0  0
 24 81  1  0  0  0  0
 25 82  1  0  0  0  0
 26 28  2  0  0  0  0
 26 81  1  0  0  0  0
 27 83  1  0  0  0  0
 28 84  1  0  0  0  0
 29 63  2  0  0  0  0
 30 64  2  0  0  0  0
 30 72  1  0  0  0  0
 31 64  1  0  0  0  0
 31 69  1  0  0  0  0
 32 66  1  0  0  0  0
 32 70  1  0  0  0  0
 33 65  2  0  0  0  0
 34 71  1  0  0  0  0
 34 76  2  0  0  0  0
 35 49  1  0  0  0  0
 35 73  1  0  0  0  0
 35 77  2  0  0  0  0
 36 59  1  0  0  0  0
 36 67  1  0  0  0  0
 36 78  2  0  0  0  0
 37 60  1  0  0  0  0
 37 74  1  0  0  0  0
 37 79  2  0  0  0  0
 38 65  1  0  0  0  0
 38 68  1  0  0  0  0
 38 80  2  0  0  0  0
 39 42  1  0  0  0  0
 40 49  1  0  0  0  0
 41 67  1  0  0  0  0
 42 44  1  0  0  0  0
 43 45  1  0  0  0  0
 43 46  1  0  0  0  0
 44 48  1  0  0  0  0
 45 50  1  0  0  0  0
 46 68  1  0  0  0  0
 47 50  1  0  0  0  0
 47 68  1  0  0  0  0
 48 73  1  0  0  0  0
 49 67  1  0  0  0  0
 50 66  1  0  0  0  0
 51 60  1  0  0  0  0
 52 61  1  0  0  0  0
 53 61  1  0  0  0  0
 54 61  1  0  0  0  0
 55 62  1  0  0  0  0
 56 62  1  0  0  0  0
 57 75  1  0  0  0  0
 58 62  1  0  0  0  0
 58 72  1  0  0  0  0
 59 61  1  0  0  0  0
 59 74  1  0  0  0  0
 60 75  1  0  0  0  0
 62 82  1  0  0  0  0
 63 66  1  0  0  0  0
M  CHG  1  75   1
M  ISO  4  38 100  62 101  65 100  82 101
M  END
> <Batch ID>
0169

> <Smiles>
CNC(C)C(=O)NC(C(=O)N1Cc2cc([101O:1][101C:1](C)(C)CNc3ccc(C=[100N:0][100C:0](=O)N4CCCC(n5nc(-c6ccc(Oc7ccc(F)cc7F)cc6)c(C(N)=O)c5N)C4)c(N)n3)ccc2CC1C(=O)NC1CCCc2ccccc21)C(C)(C)C

> <Shape>
0.234

> <Color>
0.057

> <Negative vol penalty>
0.000

$$$$

  -OEChem-04052304173D

 85 93  0     1  0  0  0  0  0999 V2000
  -28.3404  -31.6660   27.2552 C   0  0  0  0  0  0  0  0  0  0  0  0
  -28.4138  -30.7148   26.2427 C   0  0  0  0  0  0  0  0  0  0  0  0
  -24.1283   -9.4461   21.8231 C   0  0  0  0  0  0  0  0  0  0  0  0
  -23.4453  -11.5042   22.8883 C   0  0  0  0  0  0  0  0  0  0  0  0
  -27.0987  -32.0541   27.7568 C   0  0  0  0  0  0  0  0  0  0  0  0
  -27.2456  -30.1502   25.7319 C   0  0  0  0  0  0  0  0  0  0  0  0
  -27.2568  -29.9049   20.6738 C   0  0  0  0  0  0  0  0  0  0  0  0
  -23.5477   -8.7165   22.8605 C   0  0  0  0  0  0  0  0  0  0  0  0
  -22.8646  -10.7746   23.9257 C   0  0  0  0  0  0  0  0  0  0  0  0
  -27.9994  -28.8809   20.0876 C   0  0  0  0  0  0  0  0  0  0  0  0
  -20.4465   -7.7353   23.7839 C   0  0  0  0  0  0  0  0  0  0  0  0
  -19.6671   -6.6302   23.4420 C   0  0  0  0  0  0  0  0  0  0  0  0
  -25.9781  -27.6015   19.7763 C   0  0  0  0  0  0  0  0  0  0  0  0
  -27.8427  -18.4531   21.8860 C   0  0  0  0  0  0  0  0  0  0  0  0
  -21.1478   -5.1961   24.7022 C   0  0  0  0  0  0  0  0  0  0  0  0
  -29.7142  -18.5455   20.4212 C   0  0  0  0  0  0  0  0  0  0  0  0
  -24.0772  -10.8400   21.8370 C   0  0  0  0  0  0  0  0  0  0  0  0
  -24.0619  -12.0093   19.5699 C   0  0  0  0  0  0  0  0  0  0  0  0
  -25.9142  -31.5011   27.2452 C   0  0  0  0  0  0  0  0  0  0  0  0
  -25.8684  -29.7801   20.8258 C   0  0  0  0  0  0  0  0  0  0  0  0
  -25.9870  -30.5303   26.2281 C   0  0  0  0  0  0  0  0  0  0  0  0
  -25.2199  -28.6265   20.3624 C   0  0  0  0  0  0  0  0  0  0  0  0
  -27.7245  -19.8339   21.7729 C   0  0  0  0  0  0  0  0  0  0  0  0
  -28.8538  -17.7890   21.2005 C   0  0  0  0  0  0  0  0  0  0  0  0
  -22.9158   -9.3807   23.9117 C   0  0  0  0  0  0  0  0  0  0  0  0
  -27.3605  -27.7277   19.6414 C   0  0  0  0  0  0  0  0  0  0  0  0
  -21.5766   -7.5708   24.5849 C   0  0  0  0  0  0  0  0  0  0  0  0
  -20.0177   -5.3606   23.9012 C   0  0  0  0  0  0  0  0  0  0  0  0
  -21.9272   -6.3013   25.0440 C   0  0  0  0  0  0  0  0  0  0  0  0
  -24.6773  -11.5942   20.7660 C   0  0  0  0  0  0  0  0  0  0  0  0
  -28.6355  -20.4989   20.9681 C   0  0  0  0  0  0  0  0  0  0  0  0
  -25.0471  -12.6870   18.8941 C   0  0  0  0  0  0  0  0  0  0  0  0
  -22.7197  -11.8010   19.1107 C   0  0  0  0  0  0  0  0  0  0  0  0
  -23.8805  -29.7104   23.3051 C   0  0  0  0  0  0  0  0  0  0  0  0
  -28.9990  -24.1470   20.1482 C   0  0  0  0  0  0  0  0  0  0  0  0
  -21.6106  -29.7267   20.9879 C   0  0  0  0  0  0  0  0  0  0  0  0
  -20.7706  -29.0491   17.7503 C   0  0  0  0  0  0  0  0  0  0  0  0
  -29.9597  -15.5888   20.6690 C   0  0  0  0  0  0  0  0  0  0  0  0
  -24.5976  -31.9172   27.8519 C   0  0  0  0  0  0  0  0  0  0  0  0
  -25.0782  -30.9052   21.4359 C   0  0  0  0  0  0  0  0  0  0  0  0
  -23.7288  -28.4521   20.4838 C   0  0  0  0  0  0  0  0  0  0  0  0
  -23.3886  -31.5461   26.9970 C   0  0  0  0  0  0  0  0  0  0  0  0
  -29.8066  -12.8564   18.3914 C   0  0  0  0  0  0  0  0  0  0  0  0
  -23.5002  -30.1043   26.5117 C   0  0  0  0  0  0  0  0  0  0  0  0
  -28.4155  -12.2641   18.6287 C   0  0  0  0  0  0  0  0  0  0  0  0
  -30.4391  -13.3561   19.6891 C   0  0  0  0  0  0  0  0  0  0  0  0
  -28.2194  -13.6952   20.7025 C   0  0  0  0  0  0  0  0  0  0  0  0
  -24.7409  -29.9131   25.6310 C   0  0  1  0  0  0  0  0  0  0  0  0
  -23.7376  -30.4529   22.0067 C   0  0  1  0  0  0  0  0  0  0  0  0
  -27.5152  -13.2374   19.4148 C   0  0  2  0  0  0  0  0  0  0  0  0
  -27.1544  -21.2566   23.7572 C   0  0  0  0  0  0  0  0  0  0  0  0
  -18.8315  -29.1322   16.1596 C   0  0  0  0  0  0  0  0  0  0  0  0
  -20.4285  -27.2401   22.3029 C   0  0  0  0  0  0  0  0  0  0  0  0
  -19.1323  -26.8297   20.2006 C   0  0  0  0  0  0  0  0  0  0  0  0
  -18.7388  -28.9096   21.5203 C   0  0  0  0  0  0  0  0  0  0  0  0
  -22.1734  -30.9396   15.9567 C   0  0  0  0  0  0  0  0  0  0  0  0
  -26.6395  -20.5428   22.5097 C   0  0  0  0  0  0  0  0  0  0  0  0
  -29.8507  -25.1145   19.3371 C   0  0  0  0  0  0  0  0  0  0  0  0
  -29.4012  -22.6890   20.0503 C   0  0  0  0  0  0  0  0  0  0  0  0
  -29.4318  -26.5668   19.5074 C   0  0  0  0  0  0  0  0  0  1  0  0
  -20.8806  -28.6667   20.1990 C   0  0  1  0  0  0  0  0  0  0  0  0
  -20.0418  -29.8741   16.7049 C   0  0  2  0  0  0  0  0  0  0  0  0
  -19.8234  -27.9137   21.0550 C   0  0  0  0  0  0  0  0  0  0  0  0
  -29.6308  -19.8881   20.2869 N   0  0  0  0  0  0  0  0  0  0  0  0
  -25.9545  -11.9761   20.8483 N   0  0  0  0  0  0  0  0  0  0  0  0
  -26.1498  -12.6382   19.6952 N   0  0  0  0  0  0  0  0  0  0  0  0
  -23.0008  -29.5774   21.0930 N   0  0  0  0  0  0  0  0  0  0  0  0
  -29.5312  -14.2765   20.3772 N   0  0  0  0  0  0  0  0  0  0  0  0
  -25.0690  -13.3138   17.6987 N   0  0  0  0  0  0  0  0  0  0  0  0
  -21.8372  -11.0834   19.9296 N   0  0  0  0  0  0  0  0  0  0  0  0
  -28.9997  -16.3828   21.2956 N   0  0  0  0  0  0  0  0  0  0  0  0
  -28.5218  -21.8765   20.8524 N   0  0  0  0  0  0  0  0  0  0  0  0
  -24.5032  -30.4361   24.3027 N   0  0  0  0  0  0  0  0  0  0  0  0
  -20.3315  -29.3370   19.0253 N   0  0  0  0  0  0  0  0  0  0  0  0
  -20.9516  -30.1895   15.5675 N   0  3  0  0  0  0  0  0  0  0  0  0
  -22.3197  -12.2241   17.9996 O   0  0  0  0  0  0  0  0  0  0  0  0
  -23.4559  -28.5645   23.3957 O   0  0  0  0  0  0  0  0  0  0  0  0
  -28.0492  -24.5236   20.8335 O   0  0  0  0  0  0  0  0  0  0  0  0
  -20.9719  -30.6569   21.4862 O   0  0  0  0  0  0  0  0  0  0  0  0
  -21.6396  -28.2285   17.4641 O   0  0  0  0  0  0  0  0  0  0  0  0
  -31.0853  -15.9879   20.3596 O   0  0  0  0  0  0  0  0  0  0  0  0
  -22.3489   -8.6691   24.9240 O   0  0  0  0  0  0  0  0  0  0  0  0
  -28.0830  -26.7263   19.0695 O   0  0  0  0  0  0  0  0  0  1  0  0
  -19.2684   -4.2997   23.5741 F   0  0  0  0  0  0  0  0  0  0  0  0
  -23.0111   -6.1372   25.8148 F   0  0  0  0  0  0  0  0  0  0  0  0
  1  2  1  0  0  0  0
  1  5  2  0  0  0  0
  2  6  2  0  0  0  0
  3  8  2  0  0  0  0
  3 17  1  0  0  0  0
  4  9  1  0  0  0  0
  4 17  2  0  0  0  0
  5 19  1  0  0  0  0
  6 21  1  0  0  0  0
  7 10  2  0  0  0  0
  7 20  1  0  0  0  0
  8 25  1  0  0  0  0
  9 25  2  0  0  0  0
 10 26  1  0  0  0  0
 11 12  2  0  0  0  0
 11 27  1  0  0  0  0
 12 28  1  0  0  0  0
 13 22  1  0  0  0  0
 13 26  2  0  0  0  0
 14 23  1  0  0  0  0
 14 24  2  0  0  0  0
 15 28  2  0  0  0  0
 15 29  1  0  0  0  0
 16 24  1  0  0  0  0
 16 64  2  0  0  0  0
 17 30  1  0  0  0  0
 18 30  1  0  0  0  0
 18 32  2  0  0  0  0
 18 33  1  0  0  0  0
 19 21  2  0  0  0  0
 19 39  1  0  0  0  0
 20 22  2  0  0  0  0
 20 40  1  0  0  0  0
 21 48  1  0  0  0  0
 22 41  1  0  0  0  0
 23 31  2  0  0  0  0
 23 57  1  0  0  0  0
 24 71  1  0  0  0  0
 25 82  1  0  0  0  0
 26 83  1  0  0  0  0
 27 29  2  0  0  0  0
 27 82  1  0  0  0  0
 28 84  1  0  0  0  0
 29 85  1  0  0  0  0
 30 65  2  0  0  0  0
 31 64  1  0  0  0  0
 31 72  1  0  0  0  0
 32 66  1  0  0  0  0
 32 69  1  0  0  0  0
 33 70  1  0  0  0  0
 33 76  2  0  0  0  0
 34 49  1  0  0  0  0
 34 73  1  0  0  0  0
 34 77  2  0  0  0  0
 35 58  1  0  0  0  0
 35 59  1  0  0  0  0
 35 78  2  0  0  0  0
 36 61  1  0  0  0  0
 36 67  1  0  0  0  0
 36 79  2  0  0  0  0
 37 62  1  0  0  0  0
 37 74  1  0  0  0  0
 37 80  2  0  0  0  0
 38 68  1  0  0  0  0
 38 71  1  0  0  0  0
 38 81  2  0  0  0  0
 39 42  1  0  0  0  0
 40 49  1  0  0  0  0
 41 67  1  0  0  0  0
 42 44  1  0  0  0  0
 43 45  1  0  0  0  0
 43 46  1  0  0  0  0
 44 48  1  0  0  0  0
 45 50  1  0  0  0  0
 46 68  1  0  0  0  0
 47 50  1  0  0  0  0
 47 68  1  0  0  0  0
 48 73  1  0  0  0  0
 49 67  1  0  0  0  0
 50 66  1  0  0  0  0
 51 57  1  0  0  0  0
 52 62  1  0  0  0  0
 53 63  1  0  0  0  0
 54 63  1  0  0  0  0
 55 63  1  0  0  0  0
 56 75  1  0  0  0  0
 58 60  1  0  0  0  0
 59 72  1  0  0  0  0
 60 83  1  0  0  0  0
 61 63  1  0  0  0  0
 61 74  1  0  0  0  0
 62 75  1  0  0  0  0
 65 66  1  0  0  0  0
M  CHG  1  75   1
M  ISO  4  38 100  60 101  71 100  83 101
M  END
> <Batch ID>
0169

> <Smiles>
CCc1cc([100NH:0][100C:0](=O)N2CCCC(n3nc(-c4ccc(Oc5ccc(F)cc5F)cc4)c(C(N)=O)c3N)C2)cnc1NCC(=O)C[101CH2:1][101O:1]c1ccc2c(c1)CN(C(=O)C(NC(=O)C(C)NC)C(C)(C)C)C(C(=O)NC1CCCc3ccccc31)C2

> <Shape>
0.331

> <Color>
0.105

> <Negative vol penalty>
0.000

$$$$

  -OEChem-04052304173D

 84 92  0     1  0  0  0  0  0999 V2000
  -23.0341  -35.7517   16.1233 C   0  0  0  0  0  0  0  0  0  0  0  0
  -23.7401  -34.5550   16.0533 C   0  0  0  0  0  0  0  0  0  0  0  0
  -23.2388  -10.7547   21.9858 C   0  0  0  0  0  0  0  0  0  0  0  0
  -22.6214  -12.9219   21.1146 C   0  0  0  0  0  0  0  0  0  0  0  0
  -23.0415  -36.4962   17.3021 C   0  0  0  0  0  0  0  0  0  0  0  0
  -24.4549  -34.1027   17.1618 C   0  0  0  0  0  0  0  0  0  0  0  0
  -25.2732  -28.2850   18.8912 C   0  0  0  0  0  0  0  0  0  0  0  0
  -28.2284  -18.3440   18.8063 C   0  0  0  0  0  0  0  0  0  0  0  0
  -28.2937  -19.7370   18.8349 C   0  0  0  0  0  0  0  0  0  0  0  0
  -22.1758  -10.8140   22.8869 C   0  0  0  0  0  0  0  0  0  0  0  0
  -21.5583  -12.9813   22.0158 C   0  0  0  0  0  0  0  0  0  0  0  0
  -26.3288  -27.3923   18.7104 C   0  0  0  0  0  0  0  0  0  0  0  0
  -18.4415  -11.7013   22.2762 C   0  0  0  0  0  0  0  0  0  0  0  0
  -17.2054  -12.1275   21.7907 C   0  0  0  0  0  0  0  0  0  0  0  0
  -27.1829  -27.9700   20.8913 C   0  0  0  0  0  0  0  0  0  0  0  0
  -30.3819  -18.2206   19.8945 C   0  0  0  0  0  0  0  0  0  0  0  0
  -17.2268  -13.9700   23.3533 C   0  0  0  0  0  0  0  0  0  0  0  0
  -23.4617  -11.8086   21.0997 C   0  0  0  0  0  0  0  0  0  0  0  0
  -24.5408  -11.2187   18.8647 C   0  0  0  0  0  0  0  0  0  0  0  0
  -23.7489  -36.0479   18.4287 C   0  0  0  0  0  0  0  0  0  0  0  0
  -25.1704  -29.0362   20.0708 C   0  0  0  0  0  0  0  0  0  0  0  0
  -24.4730  -34.8426   18.3563 C   0  0  0  0  0  0  0  0  0  0  0  0
  -26.1236  -28.8697   21.0856 C   0  0  0  0  0  0  0  0  0  0  0  0
  -29.2725  -17.5858   19.3361 C   0  0  0  0  0  0  0  0  0  0  0  0
  -29.4031  -20.3718   19.3933 C   0  0  0  0  0  0  0  0  0  0  0  0
  -21.3355  -11.9273   22.9019 C   0  0  0  0  0  0  0  0  0  0  0  0
  -27.2854  -27.2369   19.7093 C   0  0  0  0  0  0  0  0  0  0  0  0
  -19.0703  -12.4094   23.3004 C   0  0  0  0  0  0  0  0  0  0  0  0
  -16.5980  -13.2619   22.3291 C   0  0  0  0  0  0  0  0  0  0  0  0
  -30.4473  -19.6137   19.9231 C   0  0  0  0  0  0  0  0  0  0  0  0
  -18.4630  -13.5438   23.8389 C   0  0  0  0  0  0  0  0  0  0  0  0
  -24.5599  -11.7481   20.1690 C   0  0  0  0  0  0  0  0  0  0  0  0
  -25.8215  -11.3986   18.4023 C   0  0  0  0  0  0  0  0  0  0  0  0
  -28.0197  -25.0477   19.3364 C   0  0  0  0  0  0  0  0  0  1  0  0
  -23.4617  -10.6180   18.1363 C   0  0  0  0  0  0  0  0  0  0  0  0
  -28.9540  -24.1066   19.1544 C   0  0  0  0  0  0  0  0  0  0  0  0
  -28.5238  -22.6858   18.9431 C   0  0  0  0  0  0  0  0  0  0  0  0
  -25.2047  -32.1379   20.7651 C   0  0  0  0  0  0  0  0  0  0  0  0
  -24.4951  -31.0801   23.7484 C   0  0  0  0  0  0  0  0  0  0  0  0
  -24.5969  -28.5359   26.0207 C   0  0  0  0  0  0  0  0  0  0  0  0
  -30.1562  -15.2705   19.7890 C   0  0  0  0  0  0  0  0  0  0  0  0
  -23.7661  -36.9106   19.6657 C   0  0  0  0  0  0  0  0  0  0  0  0
  -24.0109  -29.9752   20.2615 C   0  0  0  0  0  0  0  0  0  0  0  0
  -26.0473  -29.6376   22.3790 C   0  0  0  0  0  0  0  0  0  0  0  0
  -24.2422  -36.1743   20.9152 C   0  0  0  0  0  0  0  0  0  0  0  0
  -30.3467  -11.7182   19.9369 C   0  0  0  0  0  0  0  0  0  0  0  0
  -25.5051  -35.3735   20.6143 C   0  0  0  0  0  0  0  0  0  0  0  0
  -28.8829  -11.2743   19.8883 C   0  0  0  0  0  0  0  0  0  0  0  0
  -30.5228  -13.0048   20.7415 C   0  0  0  0  0  0  0  0  0  0  0  0
  -28.1982  -13.6758   20.2774 C   0  0  0  0  0  0  0  0  0  0  0  0
  -25.2401  -34.3063   19.5455 C   0  0  1  0  0  0  0  0  0  0  0  0
  -24.2896  -31.0677   21.2893 C   0  0  1  0  0  0  0  0  0  0  0  0
  -27.9619  -12.4194   19.4234 C   0  0  2  0  0  0  0  0  0  0  0  0
  -23.9727  -27.9824   28.3875 C   0  0  0  0  0  0  0  0  0  0  0  0
  -26.8821  -32.6936   24.7528 C   0  0  0  0  0  0  0  0  0  0  0  0
  -26.7875  -31.3777   26.8806 C   0  0  0  0  0  0  0  0  0  0  0  0
  -24.8559  -32.8087   26.2142 C   0  0  0  0  0  0  0  0  0  0  0  0
  -22.7696  -26.3745   25.1558 C   0  0  0  0  0  0  0  0  0  0  0  0
  -25.3012  -30.6623   24.9544 C   0  0  1  0  0  0  0  0  0  0  0  0
  -23.5305  -27.9565   26.9326 C   0  0  2  0  0  0  0  0  0  0  0  0
  -25.9595  -31.8724   25.6754 C   0  0  0  0  0  0  0  0  0  0  0  0
  -25.7579  -12.2282   20.5130 N   0  0  0  0  0  0  0  0  0  0  0  0
  -26.5035  -12.0010   19.4182 N   0  0  0  0  0  0  0  0  0  0  0  0
  -24.8985  -30.5481   22.5155 N   0  0  0  0  0  0  0  0  0  0  0  0
  -29.6218  -14.0457   20.2419 N   0  0  0  0  0  0  0  0  0  0  0  0
  -26.4196  -11.0985   17.2298 N   0  0  0  0  0  0  0  0  0  0  0  0
  -22.2115  -10.5120   18.7607 N   0  0  0  0  0  0  0  0  0  0  0  0
  -29.4668  -21.7859   19.4204 N   0  0  0  0  0  0  0  0  0  0  0  0
  -29.2067  -16.1706   19.3066 N   0  0  0  0  0  0  0  0  0  0  0  0
  -24.5510  -33.1724   20.1234 N   0  0  0  0  0  0  0  0  0  0  0  0
  -24.4010  -29.8823   25.7969 N   0  0  0  0  0  0  0  0  0  0  0  0
  -23.2377  -26.5448   26.5555 N   0  3  0  0  0  0  0  0  0  0  0  0
  -23.6064  -10.1732   16.9724 O   0  0  0  0  0  0  0  0  0  0  0  0
  -27.4529  -22.4251   18.4055 O   0  0  0  0  0  0  0  0  0  0  0  0
  -26.4143  -32.0336   20.9319 O   0  0  0  0  0  0  0  0  0  0  0  0
  -23.5382  -31.8445   23.8958 O   0  0  0  0  0  0  0  0  0  0  0  0
  -25.5143  -27.8624   25.5567 O   0  0  0  0  0  0  0  0  0  0  0  0
  -31.3696  -15.4932   19.8012 O   0  0  0  0  0  0  0  0  0  0  0  0
  -30.3042  -24.3919   19.1520 O   0  0  0  0  0  0  0  0  0  0  0  0
  -20.2980  -11.9855   23.7809 O   0  0  0  0  0  0  0  0  0  0  0  0
  -28.3171  -26.3667   19.5352 O   0  0  0  0  0  0  0  0  0  1  0  0
  -15.4116  -13.6719   21.8617 F   0  0  0  0  0  0  0  0  0  0  0  0
  -31.5193  -20.2131   20.4609 F   0  0  0  0  0  0  0  0  0  0  0  0
  -19.0627  -14.2289   24.8221 F   0  0  0  0  0  0  0  0  0  0  0  0
  1  2  1  0  0  0  0
  1  5  2  0  0  0  0
  2  6  2  0  0  0  0
  3 10  2  0  0  0  0
  3 18  1  0  0  0  0
  4 11  1  0  0  0  0
  4 18  2  0  0  0  0
  5 20  1  0  0  0  0
  6 22  1  0  0  0  0
  7 12  2  0  0  0  0
  7 21  1  0  0  0  0
  8  9  2  0  0  0  0
  8 24  1  0  0  0  0
  9 25  1  0  0  0  0
 10 26  1  0  0  0  0
 11 26  2  0  0  0  0
 12 27  1  0  0  0  0
 13 14  2  0  0  0  0
 13 28  1  0  0  0  0
 14 29  1  0  0  0  0
 15 23  1  0  0  0  0
 15 27  2  0  0  0  0
 16 24  2  0  0  0  0
 16 30  1  0  0  0  0
 17 29  2  0  0  0  0
 17 31  1  0  0  0  0
 18 32  1  0  0  0  0
 19 32  1  0  0  0  0
 19 33  2  0  0  0  0
 19 35  1  0  0  0  0
 20 22  2  0  0  0  0
 20 42  1  0  0  0  0
 21 23  2  0  0  0  0
 21 43  1  0  0  0  0
 22 51  1  0  0  0  0
 23 44  1  0  0  0  0
 24 69  1  0  0  0  0
 25 30  2  0  0  0  0
 25 68  1  0  0  0  0
 26 80  1  0  0  0  0
 27 81  1  0  0  0  0
 28 31  2  0  0  0  0
 28 80  1  0  0  0  0
 29 82  1  0  0  0  0
 30 83  1  0  0  0  0
 31 84  1  0  0  0  0
 32 62  2  0  0  0  0
 33 63  1  0  0  0  0
 33 66  1  0  0  0  0
 34 36  2  0  0  0  0
 34 81  1  0  0  0  0
 35 67  1  0  0  0  0
 35 73  2  0  0  0  0
 36 37  1  0  0  0  0
 36 79  1  0  0  0  0
 37 68  1  0  0  0  0
 37 74  2  0  0  0  0
 38 52  1  0  0  0  0
 38 70  1  0  0  0  0
 38 75  2  0  0  0  0
 39 59  1  0  0  0  0
 39 64  1  0  0  0  0
 39 76  2  0  0  0  0
 40 60  1  0  0  0  0
 40 71  1  0  0  0  0
 40 77  2  0  0  0  0
 41 65  1  0  0  0  0
 41 69  1  0  0  0  0
 41 78  2  0  0  0  0
 42 45  1  0  0  0  0
 43 52  1  0  0  0  0
 44 64  1  0  0  0  0
 45 47  1  0  0  0  0
 46 48  1  0  0  0  0
 46 49  1  0  0  0  0
 47 51  1  0  0  0  0
 48 53  1  0  0  0  0
 49 65  1  0  0  0  0
 50 53  1  0  0  0  0
 50 65  1  0  0  0  0
 51 70  1  0  0  0  0
 52 64  1  0  0  0  0
 53 63  1  0  0  0  0
 54 60  1  0  0  0  0
 55 61  1  0  0  0  0
 56 61  1  0  0  0  0
 57 61  1  0  0  0  0
 58 72  1  0  0  0  0
 59 61  1  0  0  0  0
 59 71  1  0  0  0  0
 60 72  1  0  0  0  0
 62 63  1  0  0  0  0
M  CHG  1  72   1
M  ISO  4  34 101  41 100  69 100  81 101
M  END
> <Batch ID>
0169

> <Smiles>
CNC(C)C(=O)NC(C(=O)N1Cc2cc([101O:1][101CH2:1]C(=O)C(=O)Nc3ccc([100NH:0][100C:0](=O)N4CCCC(n5nc(-c6ccc(Oc7ccc(F)cc7F)cc6)c(C(N)=O)c5N)C4)cc3F)ccc2CC1C(=O)NC1CCCc2ccccc21)C(C)(C)C

> <Shape>
0.260

> <Color>
0.110

> <Negative vol penalty>
0.000

$$$$

  -OEChem-04052304173D

 88 96  0     1  0  0  0  0  0999 V2000
  -26.4527  -31.8512   28.6550 C   0  0  0  0  0  0  0  0  0  0  0  0
  -26.9147  -30.9266   27.7238 C   0  0  0  0  0  0  0  0  0  0  0  0
  -23.6721   -9.9695   22.2012 C   0  0  0  0  0  0  0  0  0  0  0  0
  -24.4325  -11.4587   23.9451 C   0  0  0  0  0  0  0  0  0  0  0  0
  -25.1105  -32.2286   28.6542 C   0  0  0  0  0  0  0  0  0  0  0  0
  -26.0344  -30.3780   26.7919 C   0  0  0  0  0  0  0  0  0  0  0  0
  -27.3013  -28.8124   21.0083 C   0  0  0  0  0  0  0  0  0  0  0  0
  -23.1573   -9.1031   23.1655 C   0  0  0  0  0  0  0  0  0  0  0  0
  -23.9177  -10.5922   24.9094 C   0  0  0  0  0  0  0  0  0  0  0  0
  -27.6058  -27.5890   20.4130 C   0  0  0  0  0  0  0  0  0  0  0  0
  -24.3386   -6.7467   25.2812 C   0  0  0  0  0  0  0  0  0  0  0  0
  -24.5896   -5.3834   25.1265 C   0  0  0  0  0  0  0  0  0  0  0  0
  -25.2915  -27.3251   19.7856 C   0  0  0  0  0  0  0  0  0  0  0  0
  -28.9659  -18.8490   19.5104 C   0  0  0  0  0  0  0  0  0  0  0  0
  -31.2658  -18.1452   19.2826 C   0  0  0  0  0  0  0  0  0  0  0  0
  -22.2136   -4.9574   25.0254 C   0  0  0  0  0  0  0  0  0  0  0  0
  -24.3098  -11.1473   22.5910 C   0  0  0  0  0  0  0  0  0  0  0  0
  -24.1753  -13.1138   20.9716 C   0  0  0  0  0  0  0  0  0  0  0  0
  -24.2154  -31.6915   27.7156 C   0  0  0  0  0  0  0  0  0  0  0  0
  -25.9854  -29.2970   21.0064 C   0  0  0  0  0  0  0  0  0  0  0  0
  -24.6787  -30.7475   26.7794 C   0  0  0  0  0  0  0  0  0  0  0  0
  -24.9734  -28.5561   20.3794 C   0  0  0  0  0  0  0  0  0  0  0  0
  -30.7436  -20.4825   19.6015 C   0  0  0  0  0  0  0  0  0  0  0  0
  -29.9066  -17.8353   19.3282 C   0  0  0  0  0  0  0  0  0  0  0  0
  -29.3844  -20.1726   19.6470 C   0  0  0  0  0  0  0  0  0  0  0  0
  -23.2801   -9.4144   24.5196 C   0  0  0  0  0  0  0  0  0  0  0  0
  -26.6003  -26.8438   19.8040 C   0  0  0  0  0  0  0  0  0  0  0  0
  -23.0251   -7.2154   25.3080 C   0  0  0  0  0  0  0  0  0  0  0  0
  -23.5271   -4.4887   24.9986 C   0  0  0  0  0  0  0  0  0  0  0  0
  -31.6844  -19.4688   19.4193 C   0  0  0  0  0  0  0  0  0  0  0  0
  -21.9626   -6.3208   25.1801 C   0  0  0  0  0  0  0  0  0  0  0  0
  -24.8423  -12.0425   21.5954 C   0  0  0  0  0  0  0  0  0  0  0  0
  -25.1066  -13.6450   20.1132 C   0  0  0  0  0  0  0  0  0  0  0  0
  -22.8338  -13.5867   21.1522 C   0  0  0  0  0  0  0  0  0  0  0  0
  -26.3370  -22.3410   20.1047 C   0  0  0  0  0  0  0  0  0  0  0  0
  -26.4953  -23.2980   19.1682 C   0  0  0  0  0  0  0  0  0  0  0  0
  -27.0384  -21.0313   19.9040 C   0  0  0  0  0  0  0  0  0  0  0  0
  -23.8537  -30.0087   23.2543 C   0  0  0  0  0  0  0  0  0  0  0  0
  -22.1300  -31.0903   20.7282 C   0  0  0  0  0  0  0  0  0  0  0  0
  -21.5101  -30.9594   17.3747 C   0  0  0  0  0  0  0  0  0  0  0  0
  -30.2841  -15.3661   19.0019 C   0  0  0  0  0  0  0  0  0  0  0  0
  -22.7636  -32.0943   27.7841 C   0  0  0  0  0  0  0  0  0  0  0  0
  -25.6782  -30.6310   21.6295 C   0  0  0  0  0  0  0  0  0  0  0  0
  -23.5484  -29.0417   20.3323 C   0  0  0  0  0  0  0  0  0  0  0  0
  -21.9754  -31.7482   26.5234 C   0  0  0  0  0  0  0  0  0  0  0  0
  -29.6224  -11.8850   18.6532 C   0  0  0  0  0  0  0  0  0  0  0  0
  -22.2754  -30.3193   26.0817 C   0  0  0  0  0  0  0  0  0  0  0  0
  -28.2650  -11.7038   19.3362 C   0  0  0  0  0  0  0  0  0  0  0  0
  -30.4869  -12.9176   19.3744 C   0  0  0  0  0  0  0  0  0  0  0  0
  -28.4876  -14.0387   20.2772 C   0  0  0  0  0  0  0  0  0  0  0  0
  -23.7598  -30.1488   25.7367 C   0  0  1  0  0  0  0  0  0  0  0  0
  -24.2111  -30.7852   22.0185 C   0  0  1  0  0  0  0  0  0  0  0  0
  -27.5563  -13.0558   19.5491 C   0  0  2  0  0  0  0  0  0  0  0  0
  -31.2172  -21.8925   19.7468 C   0  0  0  0  0  0  0  0  0  0  0  0
  -26.1899  -22.9899   22.5206 C   0  0  0  0  0  0  0  0  0  0  0  0
  -20.0165  -31.9318   15.6081 C   0  0  0  0  0  0  0  0  0  0  0  0
  -19.8408  -29.3178   21.6914 C   0  0  0  0  0  0  0  0  0  0  0  0
  -18.7789  -29.5851   19.4400 C   0  0  0  0  0  0  0  0  0  0  0  0
  -19.1416  -31.5816   20.8909 C   0  0  0  0  0  0  0  0  0  0  0  0
  -23.8050  -32.1165   15.9071 C   0  0  0  0  0  0  0  0  0  0  0  0
  -25.4526  -22.4118   21.3216 C   0  0  0  0  0  0  0  0  0  0  0  0
  -25.8650  -24.6611   19.2115 C   0  0  0  0  0  0  0  0  0  1  0  0
  -21.1272  -30.4806   19.7786 C   0  0  1  0  0  0  0  0  0  0  0  0
  -21.3453  -32.0554   16.3373 C   0  0  2  0  0  0  0  0  0  0  0  0
  -19.7485  -30.2309   20.4526 C   0  0  0  0  0  0  0  0  0  0  0  0
  -26.1001  -11.9000   21.1693 N   0  0  0  0  0  0  0  0  0  0  0  0
  -26.2309  -12.8887   20.2686 N   0  0  0  0  0  0  0  0  0  0  0  0
  -23.2971  -30.3490   20.9609 N   0  0  0  0  0  0  0  0  0  0  0  0
  -29.7518  -14.1738   19.5366 N   0  0  0  0  0  0  0  0  0  0  0  0
  -25.0653  -14.6805   19.2480 N   0  0  0  0  0  0  0  0  0  0  0  0
  -22.0109  -12.9258   22.0743 N   0  0  0  0  0  0  0  0  0  0  0  0
  -28.4150  -21.1870   19.8309 N   0  0  0  0  0  0  0  0  0  0  0  0
  -29.4814  -16.4908   19.1893 N   0  0  0  0  0  0  0  0  0  0  0  0
  -24.0427  -30.7068   24.4317 N   0  0  0  0  0  0  0  0  0  0  0  0
  -21.0740  -31.3639   18.6187 N   0  0  0  0  0  0  0  0  0  0  0  0
  -22.4421  -31.9850   15.3308 N   0  3  0  0  0  0  0  0  0  0  0  0
  -22.3733  -14.5560   20.5027 O   0  0  0  0  0  0  0  0  0  0  0  0
  -26.3829  -19.9965   19.8605 O   0  0  0  0  0  0  0  0  0  0  0  0
  -23.4360  -28.8616   23.1473 O   0  0  0  0  0  0  0  0  0  0  0  0
  -21.8899  -32.1872   21.2389 O   0  0  0  0  0  0  0  0  0  0  0  0
  -21.9755  -29.8537   17.1075 O   0  0  0  0  0  0  0  0  0  0  0  0
  -31.3590  -15.3827   18.3967 O   0  0  0  0  0  0  0  0  0  0  0  0
  -27.2782  -23.0643   18.0467 O   0  0  0  0  0  0  0  0  0  0  0  0
  -22.7776   -8.5693   25.4608 O   0  0  0  0  0  0  0  0  0  0  0  0
  -26.8947  -25.6491   19.2228 O   0  0  0  0  0  0  0  0  0  1  0  0
  -23.7683   -3.1797   24.8486 F   0  0  0  0  0  0  0  0  0  0  0  0
  -32.9930  -19.7558   19.3756 F   0  0  0  0  0  0  0  0  0  0  0  0
  -20.6986   -6.7653   25.2039 F   0  0  0  0  0  0  0  0  0  0  0  0
  1  2  1  0  0  0  0
  1  5  2  0  0  0  0
  2  6  2  0  0  0  0
  3  8  2  0  0  0  0
  3 17  1  0  0  0  0
  4  9  1  0  0  0  0
  4 17  2  0  0  0  0
  5 19  1  0  0  0  0
  6 21  1  0  0  0  0
  7 10  2  0  0  0  0
  7 20  1  0  0  0  0
  8 26  1  0  0  0  0
  9 26  2  0  0  0  0
 10 27  1  0  0  0  0
 11 12  2  0  0  0  0
 11 28  1  0  0  0  0
 12 29  1  0  0  0  0
 13 22  1  0  0  0  0
 13 27  2  0  0  0  0
 14 24  2  0  0  0  0
 14 25  1  0  0  0  0
 15 24  1  0  0  0  0
 15 30  2  0  0  0  0
 16 29  2  0  0  0  0
 16 31  1  0  0  0  0
 17 32  1  0  0  0  0
 18 32  1  0  0  0  0
 18 33  2  0  0  0  0
 18 34  1  0  0  0  0
 19 21  2  0  0  0  0
 19 42  1  0  0  0  0
 20 22  2  0  0  0  0
 20 43  1  0  0  0  0
 21 51  1  0  0  0  0
 22 44  1  0  0  0  0
 23 25  2  0  0  0  0
 23 30  1  0  0  0  0
 23 54  1  0  0  0  0
 24 73  1  0  0  0  0
 25 72  1  0  0  0  0
 26 84  1  0  0  0  0
 27 85  1  0  0  0  0
 28 31  2  0  0  0  0
 28 84  1  0  0  0  0
 29 86  1  0  0  0  0
 30 87  1  0  0  0  0
 31 88  1  0  0  0  0
 32 66  2  0  0  0  0
 33 67  1  0  0  0  0
 33 70  1  0  0  0  0
 34 71  1  0  0  0  0
 34 77  2  0  0  0  0
 35 36  2  0  0  0  0
 35 37  1  0  0  0  0
 35 61  1  0  0  0  0
 36 62  1  0  0  0  0
 36 83  1  0  0  0  0
 37 72  1  0  0  0  0
 37 78  2  0  0  0  0
 38 52  1  0  0  0  0
 38 74  1  0  0  0  0
 38 79  2  0  0  0  0
 39 63  1  0  0  0  0
 39 68  1  0  0  0  0
 39 80  2  0  0  0  0
 40 64  1  0  0  0  0
 40 75  1  0  0  0  0
 40 81  2  0  0  0  0
 41 69  1  0  0  0  0
 41 73  1  0  0  0  0
 41 82  2  0  0  0  0
 42 45  1  0  0  0  0
 43 52  1  0  0  0  0
 44 68  1  0  0  0  0
 45 47  1  0  0  0  0
 46 48  1  0  0  0  0
 46 49  1  0  0  0  0
 47 51  1  0  0  0  0
 48 53  1  0  0  0  0
 49 69  1  0  0  0  0
 50 53  1  0  0  0  0
 50 69  1  0  0  0  0
 51 74  1  0  0  0  0
 52 68  1  0  0  0  0
 53 67  1  0  0  0  0
 55 61  1  0  0  0  0
 56 64  1  0  0  0  0
 57 65  1  0  0  0  0
 58 65  1  0  0  0  0
 59 65  1  0  0  0  0
 60 76  1  0  0  0  0
 62 85  1  0  0  0  0
 63 65  1  0  0  0  0
 63 75  1  0  0  0  0
 64 76  1  0  0  0  0
 66 67  1  0  0  0  0
M  CHG  1  76   1
M  ISO  4  41 100  62 101  73 100  85 101
M  END
> <Batch ID>
0169

> <Smiles>
CCC(C(=O)Nc1cc([100NH:0][100C:0](=O)N2CCCC(n3nc(-c4ccc(Oc5ccc(F)cc5F)cc4)c(C(N)=O)c3N)C2)cc(F)c1C)C(=O)[101CH2:1][101O:1]c1ccc2c(c1)CN(C(=O)C(NC(=O)C(C)NC)C(C)(C)C)C(C(=O)NC1CCCc3ccccc31)C2

> <Shape>
0.258

> <Color>
0.151

> <Negative vol penalty>
0.000

$$$$

  -OEChem-04052304173D

 87 95  0     1  0  0  0  0  0999 V2000
  -25.0164  -34.8851   24.0361 C   0  0  0  0  0  0  0  0  0  0  0  0
  -25.7421  -33.7504   23.6876 C   0  0  0  0  0  0  0  0  0  0  0  0
  -23.7658   -9.4106   19.9540 C   0  0  0  0  0  0  0  0  0  0  0  0
  -23.0764  -10.1525   22.1475 C   0  0  0  0  0  0  0  0  0  0  0  0
  -23.7064  -34.7592   24.4965 C   0  0  0  0  0  0  0  0  0  0  0  0
  -25.1584  -32.4891   23.8002 C   0  0  0  0  0  0  0  0  0  0  0  0
  -26.0366  -29.5737   19.7537 C   0  0  0  0  0  0  0  0  0  0  0  0
  -23.0942   -8.2041   20.1509 C   0  0  0  0  0  0  0  0  0  0  0  0
  -22.4046   -8.9460   22.3444 C   0  0  0  0  0  0  0  0  0  0  0  0
  -27.2927  -28.9761   19.6601 C   0  0  0  0  0  0  0  0  0  0  0  0
  -23.1899   -5.7640   23.1748 C   0  0  0  0  0  0  0  0  0  0  0  0
  -23.3537   -5.1241   24.4033 C   0  0  0  0  0  0  0  0  0  0  0  0
  -27.7659  -20.5563   21.9746 C   0  0  0  0  0  0  0  0  0  0  0  0
  -26.3642  -26.9088   20.4869 C   0  0  0  0  0  0  0  0  0  0  0  0
  -20.9753   -5.2763   24.7996 C   0  0  0  0  0  0  0  0  0  0  0  0
  -23.7570  -10.3848   20.9523 C   0  0  0  0  0  0  0  0  0  0  0  0
  -27.2702  -19.2995   22.4270 C   0  0  0  0  0  0  0  0  0  0  0  0
  -23.9311  -12.8121   20.1871 C   0  0  0  0  0  0  0  0  0  0  0  0
  -23.1031  -33.4964   24.6057 C   0  0  0  0  0  0  0  0  0  0  0  0
  -24.9352  -28.8452   20.2258 C   0  0  0  0  0  0  0  0  0  0  0  0
  -23.8395  -32.3461   24.2637 C   0  0  0  0  0  0  0  0  0  0  0  0
  -25.0946  -27.4987   20.5832 C   0  0  0  0  0  0  0  0  0  0  0  0
  -22.4135   -7.9718   21.3460 C   0  0  0  0  0  0  0  0  0  0  0  0
  -27.4573  -27.6443   20.0294 C   0  0  0  0  0  0  0  0  0  0  0  0
  -21.9188   -6.1602   22.7587 C   0  0  0  0  0  0  0  0  0  0  0  0
  -22.2464   -4.8802   25.2157 C   0  0  0  0  0  0  0  0  0  0  0  0
  -20.8115   -5.9163   23.5711 C   0  0  0  0  0  0  0  0  0  0  0  0
  -24.4511  -11.6311   20.7497 C   0  0  0  0  0  0  0  0  0  0  0  0
  -24.9802  -13.6981   20.2181 C   0  0  0  0  0  0  0  0  0  0  0  0
  -29.1115  -20.5075   21.6838 C   0  0  0  0  0  0  0  0  0  0  0  0
  -28.2558  -18.3377   22.4644 C   0  0  0  0  0  0  0  0  0  0  0  0
  -25.9052  -19.0386   22.8061 C   0  0  0  0  0  0  0  0  0  0  0  0
  -22.6172  -13.0840   19.6817 C   0  0  0  0  0  0  0  0  0  0  0  0
  -30.5114  -23.7620   20.4843 C   0  0  0  0  0  0  0  0  0  0  0  0
  -30.1962  -25.2082   20.1557 C   0  0  0  0  0  0  0  0  0  0  0  0
  -22.9703  -29.1081   22.7105 C   0  0  0  0  0  0  0  0  0  0  0  0
  -21.4229  -26.6602   21.2490 C   0  0  0  0  0  0  0  0  0  0  0  0
  -21.5683  -24.0091   19.1049 C   0  0  0  0  0  0  0  0  0  0  0  0
  -29.2785  -16.0675   22.8476 C   0  0  0  0  0  0  0  0  0  0  0  0
  -21.7006  -33.4068   25.1531 C   0  0  0  0  0  0  0  0  0  0  0  0
  -23.5813  -29.4967   20.2956 C   0  0  0  0  0  0  0  0  0  0  0  0
  -23.9400  -26.6673   21.0769 C   0  0  0  0  0  0  0  0  0  0  0  0
  -21.0280  -32.0623   24.8880 C   0  0  0  0  0  0  0  0  0  0  0  0
  -29.8867  -12.9599   21.2197 C   0  0  0  0  0  0  0  0  0  0  0  0
  -21.9755  -30.9156   25.2255 C   0  0  0  0  0  0  0  0  0  0  0  0
  -28.4840  -12.4343   20.9060 C   0  0  0  0  0  0  0  0  0  0  0  0
  -29.9327  -13.6872   22.5623 C   0  0  0  0  0  0  0  0  0  0  0  0
  -27.5340  -14.2284   22.4112 C   0  0  0  0  0  0  0  0  0  0  0  0
  -23.2326  -30.9624   24.3486 C   0  0  1  0  0  0  0  0  0  0  0  0
  -22.6369  -28.8084   21.2763 C   0  0  1  0  0  0  0  0  0  0  0  0
  -27.4234  -13.5448   21.0386 C   0  0  2  0  0  0  0  0  0  0  0  0
  -23.4685  -19.7726   23.1359 C   0  0  0  0  0  0  0  0  0  0  0  0
  -20.1523  -22.1754   18.1407 C   0  0  0  0  0  0  0  0  0  0  0  0
  -21.6083  -25.1344   23.8848 C   0  0  0  0  0  0  0  0  0  0  0  0
  -21.0664  -23.0375   22.6288 C   0  0  0  0  0  0  0  0  0  0  0  0
  -19.4174  -24.9079   22.7002 C   0  0  0  0  0  0  0  0  0  0  0  0
  -21.9592  -25.0007   16.3439 C   0  0  0  0  0  0  0  0  0  0  0  0
  -24.8750  -20.1834   22.7290 C   0  0  0  0  0  0  0  0  0  0  0  0
  -29.3902  -22.8843   20.9774 C   0  0  0  0  0  0  0  0  0  0  0  0
  -28.7791  -25.6910   20.3347 C   0  0  0  0  0  0  0  0  0  1  0  0
  -21.5113  -25.1542   21.3049 C   0  0  1  0  0  0  0  0  0  0  0  0
  -20.6692  -23.5934   17.9546 C   0  0  2  0  0  0  0  0  0  0  0  0
  -20.9232  -24.5745   22.6222 C   0  0  0  0  0  0  0  0  0  0  0  0
  -25.7311  -11.7525   21.1116 N   0  0  0  0  0  0  0  0  0  0  0  0
  -26.0242  -13.0202   20.7754 N   0  0  0  0  0  0  0  0  0  0  0  0
  -22.6374  -27.3511   21.1333 N   0  0  0  0  0  0  0  0  0  0  0  0
  -28.9032  -14.7276   22.6139 N   0  0  0  0  0  0  0  0  0  0  0  0
  -25.1022  -14.9831   19.8227 N   0  0  0  0  0  0  0  0  0  0  0  0
  -21.6596  -12.0615   19.7256 N   0  0  0  0  0  0  0  0  0  0  0  0
  -28.2177  -16.9726   22.8424 N   0  0  0  0  0  0  0  0  0  0  0  0
  -29.8940  -21.5556   21.2233 N   0  0  0  0  0  0  0  0  0  0  0  0
  -22.9447  -30.4534   23.0248 N   0  0  0  0  0  0  0  0  0  0  0  0
  -20.8635  -24.6621   20.0939 N   0  0  0  0  0  0  0  0  0  0  0  0
  -21.4145  -23.6565   16.6656 N   0  3  0  0  0  0  0  0  0  0  0  0
  -25.5001  -17.9234   23.2005 O   0  0  0  0  0  0  0  0  0  0  0  0
  -22.3064  -14.1954   19.1901 O   0  0  0  0  0  0  0  0  0  0  0  0
  -31.6693  -23.3953   20.3278 O   0  0  0  0  0  0  0  0  0  0  0  0
  -31.1171  -25.9098   19.7573 O   0  0  0  0  0  0  0  0  0  0  0  0
  -23.2300  -28.1867   23.4756 O   0  0  0  0  0  0  0  0  0  0  0  0
  -20.3164  -27.2033   21.2987 O   0  0  0  0  0  0  0  0  0  0  0  0
  -22.7746  -23.7745   19.1259 O   0  0  0  0  0  0  0  0  0  0  0  0
  -30.4574  -16.3921   23.0111 O   0  0  0  0  0  0  0  0  0  0  0  0
  -21.7578   -6.7947   21.5384 O   0  0  0  0  0  0  0  0  0  0  0  0
  -28.6824  -27.0588   19.9396 O   0  0  0  0  0  0  0  0  0  1  0  0
  -22.4036   -4.2643   26.3947 F   0  0  0  0  0  0  0  0  0  0  0  0
  -19.5878   -6.2934   23.1762 F   0  0  0  0  0  0  0  0  0  0  0  0
  -29.7716  -18.9511   21.9559 S   0  0  0  0  0  0  0  0  0  0  0  0
  1  2  1  0  0  0  0
  1  5  2  0  0  0  0
  2  6  2  0  0  0  0
  3  8  2  0  0  0  0
  3 16  1  0  0  0  0
  4  9  1  0  0  0  0
  4 16  2  0  0  0  0
  5 19  1  0  0  0  0
  6 21  1  0  0  0  0
  7 10  2  0  0  0  0
  7 20  1  0  0  0  0
  8 23  1  0  0  0  0
  9 23  2  0  0  0  0
 10 24  1  0  0  0  0
 11 12  2  0  0  0  0
 11 25  1  0  0  0  0
 12 26  1  0  0  0  0
 13 17  1  0  0  0  0
 13 30  2  0  0  0  0
 14 22  1  0  0  0  0
 14 24  2  0  0  0  0
 15 26  2  0  0  0  0
 15 27  1  0  0  0  0
 16 28  1  0  0  0  0
 17 31  2  0  0  0  0
 17 32  1  0  0  0  0
 18 28  1  0  0  0  0
 18 29  2  0  0  0  0
 18 33  1  0  0  0  0
 19 21  2  0  0  0  0
 19 40  1  0  0  0  0
 20 22  2  0  0  0  0
 20 41  1  0  0  0  0
 21 49  1  0  0  0  0
 22 42  1  0  0  0  0
 23 83  1  0  0  0  0
 24 84  1  0  0  0  0
 25 27  2  0  0  0  0
 25 83  1  0  0  0  0
 26 85  1  0  0  0  0
 27 86  1  0  0  0  0
 28 64  2  0  0  0  0
 29 65  1  0  0  0  0
 29 68  1  0  0  0  0
 30 71  1  0  0  0  0
 30 87  1  0  0  0  0
 31 70  1  0  0  0  0
 31 87  1  0  0  0  0
 32 58  1  0  0  0  0
 32 75  2  0  0  0  0
 33 69  1  0  0  0  0
 33 76  2  0  0  0  0
 34 35  1  0  0  0  0
 34 59  1  0  0  0  0
 34 77  2  0  0  0  0
 35 60  1  0  0  0  0
 35 78  2  0  0  0  0
 36 50  1  0  0  0  0
 36 72  1  0  0  0  0
 36 79  2  0  0  0  0
 37 61  1  0  0  0  0
 37 66  1  0  0  0  0
 37 80  2  0  0  0  0
 38 62  1  0  0  0  0
 38 73  1  0  0  0  0
 38 81  2  0  0  0  0
 39 67  1  0  0  0  0
 39 70  1  0  0  0  0
 39 82  2  0  0  0  0
 40 43  1  0  0  0  0
 41 50  1  0  0  0  0
 42 66  1  0  0  0  0
 43 45  1  0  0  0  0
 44 46  1  0  0  0  0
 44 47  1  0  0  0  0
 45 49  1  0  0  0  0
 46 51  1  0  0  0  0
 47 67  1  0  0  0  0
 48 51  1  0  0  0  0
 48 67  1  0  0  0  0
 49 72  1  0  0  0  0
 50 66  1  0  0  0  0
 51 65  1  0  0  0  0
 52 58  1  0  0  0  0
 53 62  1  0  0  0  0
 54 63  1  0  0  0  0
 55 63  1  0  0  0  0
 56 63  1  0  0  0  0
 57 74  1  0  0  0  0
 59 71  1  0  0  0  0
 60 84  1  0  0  0  0
 61 63  1  0  0  0  0
 61 73  1  0  0  0  0
 62 74  1  0  0  0  0
 64 65  1  0  0  0  0
M  CHG  1  74   1
M  ISO  4  39 100  60 101  70 100  84 101
M  END
> <Batch ID>
0169

> <Smiles>
CCC(=O)c1cc(NCC(=O)C(=O)[101CH2:1][101O:1]c2ccc3c(c2)CN(C(=O)C(NC(=O)C(C)NC)C(C)(C)C)C(C(=O)NC2CCCc4ccccc42)C3)sc1[100NH:0][100C:0](=O)N1CCCC(n2nc(-c3ccc(Oc4ccc(F)cc4F)cc3)c(C(N)=O)c2N)C1

> <Shape>
0.287

> <Color>
0.172

> <Negative vol penalty>
0.000

$$$$

  -OEChem-04052304173D

 84 92  0     1  0  0  0  0  0999 V2000
  -14.8765  -27.8251   24.4685 C   0  0  0  0  0  0  0  0  0  0  0  0
  -15.9042  -27.0698   23.9128 C   0  0  0  0  0  0  0  0  0  0  0  0
  -22.7639  -11.4494   19.0740 C   0  0  0  0  0  0  0  0  0  0  0  0
  -23.0243  -10.0665   21.0379 C   0  0  0  0  0  0  0  0  0  0  0  0
  -14.9334  -29.2175   24.4235 C   0  0  0  0  0  0  0  0  0  0  0  0
  -16.9889  -27.7066   23.3108 C   0  0  0  0  0  0  0  0  0  0  0  0
  -21.4267  -25.6682   24.6508 C   0  0  0  0  0  0  0  0  0  0  0  0
  -21.7204  -10.6332   18.6376 C   0  0  0  0  0  0  0  0  0  0  0  0
  -21.9807   -9.2503   20.6015 C   0  0  0  0  0  0  0  0  0  0  0  0
  -21.7923  -24.4744   24.0303 C   0  0  0  0  0  0  0  0  0  0  0  0
  -19.2248   -8.7036   16.8285 C   0  0  0  0  0  0  0  0  0  0  0  0
  -19.2152   -8.3224   15.4869 C   0  0  0  0  0  0  0  0  0  0  0  0
  -23.2291  -25.7011   22.5303 C   0  0  0  0  0  0  0  0  0  0  0  0
  -28.8647  -20.4977   20.2330 C   0  0  0  0  0  0  0  0  0  0  0  0
  -21.3611   -7.2507   15.7760 C   0  0  0  0  0  0  0  0  0  0  0  0
  -23.4159  -11.1660   20.2741 C   0  0  0  0  0  0  0  0  0  0  0  0
  -24.3963  -13.1504   21.5425 C   0  0  0  0  0  0  0  0  0  0  0  0
  -16.0240  -29.8717   23.8292 C   0  0  0  0  0  0  0  0  0  0  0  0
  -21.9521  -26.8905   24.2079 C   0  0  0  0  0  0  0  0  0  0  0  0
  -17.0597  -29.1090   23.2566 C   0  0  0  0  0  0  0  0  0  0  0  0
  -22.8706  -26.9087   23.1486 C   0  0  0  0  0  0  0  0  0  0  0  0
  -29.9742  -19.6784   19.8755 C   0  0  0  0  0  0  0  0  0  0  0  0
  -21.3287   -9.5337   19.4014 C   0  0  0  0  0  0  0  0  0  0  0  0
  -22.6914  -24.4910   22.9680 C   0  0  0  0  0  0  0  0  0  0  0  0
  -20.3026   -8.3585   17.6440 C   0  0  0  0  0  0  0  0  0  0  0  0
  -20.2833   -7.5959   14.9606 C   0  0  0  0  0  0  0  0  0  0  0  0
  -21.3708   -7.6321   17.1177 C   0  0  0  0  0  0  0  0  0  0  0  0
  -24.4944  -12.0084   20.7251 C   0  0  0  0  0  0  0  0  0  0  0  0
  -29.7723  -18.3580   20.2122 C   0  0  0  0  0  0  0  0  0  0  0  0
  -25.6913  -13.5870   21.6793 C   0  0  0  0  0  0  0  0  0  0  0  0
  -27.8567  -19.7721   20.8292 C   0  0  0  0  0  0  0  0  0  0  0  0
  -23.2381  -13.7618   22.1260 C   0  0  0  0  0  0  0  0  0  0  0  0
  -30.6697  -17.1905   20.0162 C   0  0  0  0  0  0  0  0  0  0  0  0
  -20.7178  -29.5476   22.9748 C   0  0  0  0  0  0  0  0  0  0  0  0
  -24.8850  -21.8456   21.8051 C   0  0  0  0  0  0  0  0  0  0  0  0
  -23.7647  -30.6261   23.2497 C   0  0  0  0  0  0  0  0  0  0  0  0
  -27.0910  -29.8908   23.4528 C   0  0  0  0  0  0  0  0  0  0  0  0
  -30.6885  -14.7531   19.5894 C   0  0  0  0  0  0  0  0  0  0  0  0
  -16.0183  -31.3784   23.7626 C   0  0  0  0  0  0  0  0  0  0  0  0
  -21.5682  -28.1668   24.9052 C   0  0  0  0  0  0  0  0  0  0  0  0
  -23.4789  -28.1925   22.6483 C   0  0  0  0  0  0  0  0  0  0  0  0
  -17.3838  -31.9789   23.4387 C   0  0  0  0  0  0  0  0  0  0  0  0
  -30.0681  -11.3726   20.4168 C   0  0  0  0  0  0  0  0  0  0  0  0
  -18.0293  -31.2386   22.2716 C   0  0  0  0  0  0  0  0  0  0  0  0
  -28.5550  -11.3289   20.6467 C   0  0  0  0  0  0  0  0  0  0  0  0
  -30.4406  -12.3076   19.2671 C   0  0  0  0  0  0  0  0  0  0  0  0
  -28.3837  -13.6192   19.5936 C   0  0  0  0  0  0  0  0  0  0  0  0
  -18.2650  -29.7632   22.6167 C   0  0  1  0  0  0  0  0  0  0  0  0
  -21.7701  -29.4055   24.0379 C   0  0  1  0  0  0  0  0  0  0  0  0
  -27.9629  -12.7457   20.7865 C   0  0  1  0  0  0  0  0  0  0  0  0
  -31.1971  -20.2010   19.2192 C   0  0  0  0  0  0  0  0  0  0  0  0
  -29.3428  -30.9840   23.6315 C   0  0  0  0  0  0  0  0  0  0  0  0
  -23.6350  -31.3708   20.2936 C   0  0  0  0  0  0  0  0  0  0  0  0
  -26.1320  -31.5532   20.3016 C   0  0  0  0  0  0  0  0  0  0  0  0
  -24.7683  -33.0616   21.7466 C   0  0  0  0  0  0  0  0  0  0  0  0
  -27.6496  -28.5816   26.0477 C   0  0  0  0  0  0  0  0  0  0  0  0
  -26.2649  -21.6550   21.2119 C   0  0  0  0  0  0  0  0  0  0  0  0
  -24.3570  -23.2669   21.7919 C   0  0  0  0  0  0  0  0  0  1  0  0
  -24.9855  -30.6189   22.3617 C   0  0  1  0  0  0  0  0  0  0  0  0
  -28.1751  -30.3802   24.3961 C   0  0  2  0  0  0  0  0  0  0  0  0
  -24.8674  -31.6270   21.1838 C   0  0  0  0  0  0  0  0  0  0  0  0
  -25.7523  -11.7367   20.3676 N   0  0  0  0  0  0  0  0  0  0  0  0
  -26.4565  -12.7142   20.9631 N   0  0  0  0  0  0  0  0  0  0  0  0
  -23.0672  -29.4146   23.3586 N   0  0  0  0  0  0  0  0  0  0  0  0
  -29.8499  -13.6301   19.4796 N   0  0  0  0  0  0  0  0  0  0  0  0
  -26.2387  -14.6286   22.3409 N   0  0  0  0  0  0  0  0  0  0  0  0
  -21.9842  -13.1840   21.8844 N   0  0  0  0  0  0  0  0  0  0  0  0
  -26.6466  -20.2683   21.2927 N   0  0  0  0  0  0  0  0  0  0  0  0
  -30.0308  -15.9637   19.8341 N   0  0  0  0  0  0  0  0  0  0  0  0
  -19.4283  -29.6224   23.4660 N   0  0  0  0  0  0  0  0  0  0  0  0
  -26.1285  -30.8542   23.2372 N   0  0  0  0  0  0  0  0  0  0  0  0
  -28.6884  -29.2529   25.2248 N   0  3  0  0  0  0  0  0  0  0  0  0
  -23.3110  -14.7995   22.8269 O   0  0  0  0  0  0  0  0  0  0  0  0
  -31.8843  -17.3683   19.9860 O   0  0  0  0  0  0  0  0  0  0  0  0
  -21.0511  -29.5878   21.7963 O   0  0  0  0  0  0  0  0  0  0  0  0
  -24.2267  -20.9161   22.2702 O   0  0  0  0  0  0  0  0  0  0  0  0
  -23.4458  -31.6663   23.8311 O   0  0  0  0  0  0  0  0  0  0  0  0
  -27.0995  -28.7676   22.9540 O   0  0  0  0  0  0  0  0  0  0  0  0
  -31.9190  -14.6790   19.5144 O   0  0  0  0  0  0  0  0  0  0  0  0
  -20.3103   -8.7372   18.9760 O   0  0  0  0  0  0  0  0  0  0  0  0
  -23.0495  -23.3273   22.3602 O   0  0  0  0  0  0  0  0  0  1  0  0
  -20.2733   -7.2285   13.6725 F   0  0  0  0  0  0  0  0  0  0  0  0
  -22.4084   -7.2966   17.8965 F   0  0  0  0  0  0  0  0  0  0  0  0
  -28.2499  -18.1103   20.9562 S   0  0  0  0  0  0  0  0  0  0  0  0
  1  2  1  0  0  0  0
  1  5  2  0  0  0  0
  2  6  2  0  0  0  0
  3  8  2  0  0  0  0
  3 16  1  0  0  0  0
  4  9  1  0  0  0  0
  4 16  2  0  0  0  0
  5 18  1  0  0  0  0
  6 20  1  0  0  0  0
  7 10  2  0  0  0  0
  7 19  1  0  0  0  0
  8 23  1  0  0  0  0
  9 23  2  0  0  0  0
 10 24  1  0  0  0  0
 11 12  2  0  0  0  0
 11 25  1  0  0  0  0
 12 26  1  0  0  0  0
 13 21  1  0  0  0  0
 13 24  2  0  0  0  0
 14 22  1  0  0  0  0
 14 31  2  0  0  0  0
 15 26  2  0  0  0  0
 15 27  1  0  0  0  0
 16 28  1  0  0  0  0
 17 28  1  0  0  0  0
 17 30  2  0  0  0  0
 17 32  1  0  0  0  0
 18 20  2  0  0  0  0
 18 39  1  0  0  0  0
 19 21  2  0  0  0  0
 19 40  1  0  0  0  0
 20 48  1  0  0  0  0
 21 41  1  0  0  0  0
 22 29  2  0  0  0  0
 22 51  1  0  0  0  0
 23 80  1  0  0  0  0
 24 81  1  0  0  0  0
 25 27  2  0  0  0  0
 25 80  1  0  0  0  0
 26 82  1  0  0  0  0
 27 83  1  0  0  0  0
 28 62  2  0  0  0  0
 29 33  1  0  0  0  0
 29 84  1  0  0  0  0
 30 63  1  0  0  0  0
 30 66  1  0  0  0  0
 31 68  1  0  0  0  0
 31 84  1  0  0  0  0
 32 67  1  0  0  0  0
 32 73  2  0  0  0  0
 33 69  1  0  0  0  0
 33 74  2  0  0  0  0
 34 49  1  0  0  0  0
 34 70  1  0  0  0  0
 34 75  2  0  0  0  0
 35 57  1  0  0  0  0
 35 58  1  0  0  0  0
 35 76  2  0  0  0  0
 36 59  1  0  0  0  0
 36 64  1  0  0  0  0
 36 77  2  0  0  0  0
 37 60  1  0  0  0  0
 37 71  1  0  0  0  0
 37 78  2  0  0  0  0
 38 65  1  0  0  0  0
 38 69  1  0  0  0  0
 38 79  2  0  0  0  0
 39 42  1  0  0  0  0
 40 49  1  0  0  0  0
 41 64  1  0  0  0  0
 42 44  1  0  0  0  0
 43 45  1  0  0  0  0
 43 46  1  0  0  0  0
 44 48  1  0  0  0  0
 45 50  1  0  0  0  0
 46 65  1  0  0  0  0
 47 50  1  0  0  0  0
 47 65  1  0  0  0  0
 48 70  1  0  0  0  0
 49 64  1  0  0  0  0
 50 63  1  0  0  0  0
 52 60  1  0  0  0  0
 53 61  1  0  0  0  0
 54 61  1  0  0  0  0
 55 61  1  0  0  0  0
 56 72  1  0  0  0  0
 57 68  1  0  0  0  0
 58 81  1  0  0  0  0
 59 61  1  0  0  0  0
 59 71  1  0  0  0  0
 60 72  1  0  0  0  0
 62 63  1  0  0  0  0
M  CHG  1  72   1
M  ISO  4  38 100  58 101  69 100  81 101
M  END
> <Batch ID>
0169

> <Smiles>
CNC(C)C(=O)NC(C(=O)N1Cc2cc([101O:1][101CH2:1]C(=O)CNc3cc(C)c(C(=O)[100NH:0][100C:0](=O)N4CCCC(n5nc(-c6ccc(Oc7ccc(F)cc7F)cc6)c(C(N)=O)c5N)C4)s3)ccc2CC1C(=O)NC1CCCc2ccccc21)C(C)(C)C

> <Shape>
0.268

> <Color>
0.100

> <Negative vol penalty>
0.000

$$$$

  -OEChem-04052304173D

 86 94  0     1  0  0  0  0  0999 V2000
  -17.2670  -11.4875   22.0570 C   0  0  0  0  0  0  0  0  0  0  0  0
  -17.7282  -12.7960   21.9550 C   0  0  0  0  0  0  0  0  0  0  0  0
  -23.5202  -28.2625   20.1627 C   0  0  0  0  0  0  0  0  0  0  0  0
  -24.5146  -29.7355   21.7993 C   0  0  0  0  0  0  0  0  0  0  0  0
  -18.1123  -10.4869   22.5347 C   0  0  0  0  0  0  0  0  0  0  0  0
  -19.0347  -13.1050   22.3319 C   0  0  0  0  0  0  0  0  0  0  0  0
  -22.7152  -17.2778   19.7730 C   0  0  0  0  0  0  0  0  0  0  0  0
  -29.2717  -23.2376   17.0841 C   0  0  0  0  0  0  0  0  0  0  0  0
  -22.2550  -28.5439   20.6780 C   0  0  0  0  0  0  0  0  0  0  0  0
  -23.2493  -30.0170   22.3147 C   0  0  0  0  0  0  0  0  0  0  0  0
  -23.0368  -18.5875   20.1265 C   0  0  0  0  0  0  0  0  0  0  0  0
  -18.7947  -28.5971   21.7950 C   0  0  0  0  0  0  0  0  0  0  0  0
  -29.1857  -24.1495   16.0321 C   0  0  0  0  0  0  0  0  0  0  0  0
  -17.9228  -27.5275   21.9981 C   0  0  0  0  0  0  0  0  0  0  0  0
  -25.0193  -17.7920   21.2472 C   0  0  0  0  0  0  0  0  0  0  0  0
  -27.7386  -25.5513   17.3656 C   0  0  0  0  0  0  0  0  0  0  0  0
  -19.5031  -26.5301   23.5294 C   0  0  0  0  0  0  0  0  0  0  0  0
  -24.6500  -28.8582   20.7233 C   0  0  0  0  0  0  0  0  0  0  0  0
  -26.6295  -29.2558   19.1641 C   0  0  0  0  0  0  0  0  0  0  0  0
  -19.4329  -10.7820   22.9085 C   0  0  0  0  0  0  0  0  0  0  0  0
  -23.5389  -16.2124   20.1640 C   0  0  0  0  0  0  0  0  0  0  0  0
  -19.8981  -12.1077   22.8163 C   0  0  0  0  0  0  0  0  0  0  0  0
  -24.7073  -16.4699   20.8952 C   0  0  0  0  0  0  0  0  0  0  0  0
  -27.8247  -24.6394   18.4176 C   0  0  0  0  0  0  0  0  0  0  0  0
  -28.5912  -23.4825   18.2768 C   0  0  0  0  0  0  0  0  0  0  0  0
  -22.1195  -29.4212   21.7540 C   0  0  0  0  0  0  0  0  0  0  0  0
  -24.1874  -18.8445   20.8661 C   0  0  0  0  0  0  0  0  0  0  0  0
  -20.0209  -28.6333   22.4591 C   0  0  0  0  0  0  0  0  0  0  0  0
  -28.4192  -25.3064   16.1729 C   0  0  0  0  0  0  0  0  0  0  0  0
  -18.2770  -26.4940   22.8653 C   0  0  0  0  0  0  0  0  0  0  0  0
  -20.3750  -27.5998   23.3263 C   0  0  0  0  0  0  0  0  0  0  0  0
  -25.9573  -28.5674   20.1918 C   0  0  0  0  0  0  0  0  0  0  0  0
  -27.8261  -28.5944   19.0335 C   0  0  0  0  0  0  0  0  0  0  0  0
  -24.7028  -21.0300   20.2113 C   0  0  0  0  0  0  0  0  0  1  0  0
  -26.2098  -30.3915   18.3963 C   0  0  0  0  0  0  0  0  0  0  0  0
  -25.0170  -22.3109   20.4375 C   0  0  0  0  0  0  0  0  0  0  0  0
  -25.2143  -23.2300   19.2732 C   0  0  0  0  0  0  0  0  0  0  0  0
  -23.1585  -13.6330   21.9822 C   0  0  0  0  0  0  0  0  0  0  0  0
  -26.1411  -12.9242   20.9219 C   0  0  0  0  0  0  0  0  0  0  0  0
  -29.1070  -14.0402   19.6553 C   0  0  0  0  0  0  0  0  0  0  0  0
  -29.2099  -22.8469   20.6229 C   0  0  0  0  0  0  0  0  0  0  0  0
  -20.2946   -9.6757   23.4638 C   0  0  0  0  0  0  0  0  0  0  0  0
  -23.1922  -14.8080   19.7519 C   0  0  0  0  0  0  0  0  0  0  0  0
  -25.6357  -15.3634   21.3222 C   0  0  0  0  0  0  0  0  0  0  0  0
  -21.7823  -10.0168   23.4890 C   0  0  0  0  0  0  0  0  0  0  0  0
  -30.9747  -25.9785   21.5016 C   0  0  0  0  0  0  0  0  0  0  0  0
  -22.0000  -11.4144   24.0601 C   0  0  0  0  0  0  0  0  0  0  0  0
  -29.9115  -27.0474   21.2561 C   0  0  0  0  0  0  0  0  0  0  0  0
  -30.3532  -24.6396   21.8876 C   0  0  0  0  0  0  0  0  0  0  0  0
  -28.2823  -25.2134   20.6532 C   0  0  0  0  0  0  0  0  0  0  0  0
  -21.3166  -12.4777   23.1919 C   0  0  1  0  0  0  0  0  0  0  0  0
  -23.8318  -13.7484   20.6439 C   0  0  1  0  0  0  0  0  0  0  0  0
  -28.8814  -26.5609   20.2235 C   0  0  1  0  0  0  0  0  0  0  0  0
  -31.3672  -13.2297   18.9260 C   0  0  0  0  0  0  0  0  0  0  0  0
  -26.9708  -12.6179   23.8421 C   0  0  0  0  0  0  0  0  0  0  0  0
  -29.3596  -12.7571   23.1055 C   0  0  0  0  0  0  0  0  0  0  0  0
  -27.9154  -10.8884   22.3023 C   0  0  0  0  0  0  0  0  0  0  0  0
  -28.4960  -21.1147   19.0351 C   0  0  0  0  0  0  0  0  0  0  0  0
  -28.6904  -15.0087   16.8899 C   0  0  0  0  0  0  0  0  0  0  0  0
  -27.0774  -24.9309   19.6969 C   0  0  0  0  0  0  0  0  0  0  0  0
  -25.5706  -24.6764   19.5940 C   0  0  0  0  0  0  0  0  0  0  0  0
  -27.5430  -13.2196   21.3974 C   0  0  1  0  0  0  0  0  0  0  0  0
  -29.9486  -13.5584   18.4874 C   0  0  2  0  0  0  0  0  0  0  0  0
  -27.9289  -12.3916   22.6556 C   0  0  0  0  0  0  0  0  0  0  0  0
  -26.6678  -27.5469   20.6793 N   0  0  0  0  0  0  0  0  0  0  0  0
  -27.7989  -27.5890   19.9548 N   0  0  0  0  0  0  0  0  0  0  0  0
  -25.2501  -14.0066   20.9003 N   0  0  0  0  0  0  0  0  0  0  0  0
  -29.3319  -24.2183   20.9273 N   0  0  0  0  0  0  0  0  0  0  0  0
  -28.8885  -28.7805   18.2216 N   0  0  0  0  0  0  0  0  0  0  0  0
  -24.9506  -30.9477   18.6597 N   0  0  0  0  0  0  0  0  0  0  0  0
  -22.1019  -12.7427   22.0056 N   0  0  0  0  0  0  0  0  0  0  0  0
  -28.4173  -13.0046   20.2494 N   0  0  0  0  0  0  0  0  0  0  0  0
  -28.6934  -22.5272   19.3528 N   0  0  0  0  0  0  0  0  0  0  0  0
  -30.0146  -14.6059   17.4295 N   0  3  0  0  0  0  0  0  0  0  0  0
  -26.9232  -30.8881   17.4918 O   0  0  0  0  0  0  0  0  0  0  0  0
  -25.1199  -22.8187   18.1183 O   0  0  0  0  0  0  0  0  0  0  0  0
  -23.5682  -14.3011   22.9243 O   0  0  0  0  0  0  0  0  0  0  0  0
  -25.8492  -11.7768   20.5754 O   0  0  0  0  0  0  0  0  0  0  0  0
  -29.0685  -15.2170   20.0078 O   0  0  0  0  0  0  0  0  0  0  0  0
  -29.4890  -21.9666   21.4461 O   0  0  0  0  0  0  0  0  0  0  0  0
  -25.1667  -22.8300   21.7051 O   0  0  0  0  0  0  0  0  0  0  0  0
  -20.8851  -29.6963   22.2570 O   0  0  0  0  0  0  0  0  0  0  0  0
  -24.5033  -20.1219   21.2130 O   0  0  0  0  0  0  0  0  0  1  0  0
  -28.3371  -26.1823   15.1628 F   0  0  0  0  0  0  0  0  0  0  0  0
  -17.4389  -25.4677   23.0614 F   0  0  0  0  0  0  0  0  0  0  0  0
  -21.5511  -27.6295   23.9680 F   0  0  0  0  0  0  0  0  0  0  0  0
  1  2  1  0  0  0  0
  1  5  2  0  0  0  0
  2  6  2  0  0  0  0
  3  9  2  0  0  0  0
  3 18  1  0  0  0  0
  4 10  1  0  0  0  0
  4 18  2  0  0  0  0
  5 20  1  0  0  0  0
  6 22  1  0  0  0  0
  7 11  2  0  0  0  0
  7 21  1  0  0  0  0
  8 13  2  0  0  0  0
  8 25  1  0  0  0  0
  9 26  1  0  0  0  0
 10 26  2  0  0  0  0
 11 27  1  0  0  0  0
 12 14  2  0  0  0  0
 12 28  1  0  0  0  0
 13 29  1  0  0  0  0
 14 30  1  0  0  0  0
 15 23  1  0  0  0  0
 15 27  2  0  0  0  0
 16 24  1  0  0  0  0
 16 29  2  0  0  0  0
 17 30  2  0  0  0  0
 17 31  1  0  0  0  0
 18 32  1  0  0  0  0
 19 32  1  0  0  0  0
 19 33  2  0  0  0  0
 19 35  1  0  0  0  0
 20 22  2  0  0  0  0
 20 42  1  0  0  0  0
 21 23  2  0  0  0  0
 21 43  1  0  0  0  0
 22 51  1  0  0  0  0
 23 44  1  0  0  0  0
 24 25  2  0  0  0  0
 24 60  1  0  0  0  0
 25 73  1  0  0  0  0
 26 82  1  0  0  0  0
 27 83  1  0  0  0  0
 28 31  2  0  0  0  0
 28 82  1  0  0  0  0
 29 84  1  0  0  0  0
 30 85  1  0  0  0  0
 31 86  1  0  0  0  0
 32 65  2  0  0  0  0
 33 66  1  0  0  0  0
 33 69  1  0  0  0  0
 34 36  2  0  0  0  0
 34 83  1  0  0  0  0
 35 70  1  0  0  0  0
 35 75  2  0  0  0  0
 36 37  1  0  0  0  0
 36 81  1  0  0  0  0
 37 61  1  0  0  0  0
 37 76  2  0  0  0  0
 38 52  1  0  0  0  0
 38 71  1  0  0  0  0
 38 77  2  0  0  0  0
 39 62  1  0  0  0  0
 39 67  1  0  0  0  0
 39 78  2  0  0  0  0
 40 63  1  0  0  0  0
 40 72  1  0  0  0  0
 40 79  2  0  0  0  0
 41 68  1  0  0  0  0
 41 73  1  0  0  0  0
 41 80  2  0  0  0  0
 42 45  1  0  0  0  0
 43 52  1  0  0  0  0
 44 67  1  0  0  0  0
 45 47  1  0  0  0  0
 46 48  1  0  0  0  0
 46 49  1  0  0  0  0
 47 51  1  0  0  0  0
 48 53  1  0  0  0  0
 49 68  1  0  0  0  0
 50 53  1  0  0  0  0
 50 68  1  0  0  0  0
 51 71  1  0  0  0  0
 52 67  1  0  0  0  0
 53 66  1  0  0  0  0
 54 63  1  0  0  0  0
 55 64  1  0  0  0  0
 56 64  1  0  0  0  0
 57 64  1  0  0  0  0
 58 73  1  0  0  0  0
 59 74  1  0  0  0  0
 60 61  1  0  0  0  0
 62 64  1  0  0  0  0
 62 72  1  0  0  0  0
 63 74  1  0  0  0  0
 65 66  1  0  0  0  0
M  CHG  1  74   1
M  ISO  4  34 101  41 100  73 100  83 101
M  END
> <Batch ID>
0169

> <Smiles>
CNC(C)C(=O)NC(C(=O)N1Cc2cc([101O:1][101CH2:1]C(=O)C(=O)CCc3cc(F)ccc3[100N:0](C)[100C:0](=O)N3CCCC(n4nc(-c5ccc(Oc6ccc(F)cc6F)cc5)c(C(N)=O)c4N)C3)ccc2CC1C(=O)NC1CCCc2ccccc21)C(C)(C)C

> <Shape>
0.246

> <Color>
0.066

> <Negative vol penalty>
0.000

$$$$

  -OEChem-04052304173D

 86 94  0     1  0  0  0  0  0999 V2000
  -26.1735  -33.3083   26.7649 C   0  0  0  0  0  0  0  0  0  0  0  0
  -26.7069  -32.3037   25.9639 C   0  0  0  0  0  0  0  0  0  0  0  0
  -22.3191  -10.1722   22.3484 C   0  0  0  0  0  0  0  0  0  0  0  0
  -22.8534   -9.8895   20.0092 C   0  0  0  0  0  0  0  0  0  0  0  0
  -24.8165  -33.2964   27.0850 C   0  0  0  0  0  0  0  0  0  0  0  0
  -25.8837  -31.2859   25.4833 C   0  0  0  0  0  0  0  0  0  0  0  0
  -26.6870  -30.2880   20.5839 C   0  0  0  0  0  0  0  0  0  0  0  0
  -25.3612  -20.3153   18.5338 C   0  0  0  0  0  0  0  0  0  0  0  0
  -26.4030  -21.2398   18.6075 C   0  0  0  0  0  0  0  0  0  0  0  0
  -21.8019   -8.8774   22.3868 C   0  0  0  0  0  0  0  0  0  0  0  0
  -22.3362   -8.5946   20.0476 C   0  0  0  0  0  0  0  0  0  0  0  0
  -27.8077  -29.5222   20.2656 C   0  0  0  0  0  0  0  0  0  0  0  0
  -20.6697   -5.5179   23.1913 C   0  0  0  0  0  0  0  0  0  0  0  0
  -21.0225   -4.7105   24.2725 C   0  0  0  0  0  0  0  0  0  0  0  0
  -26.4059  -27.5706   20.0524 C   0  0  0  0  0  0  0  0  0  0  0  0
  -23.3518   -4.9127   23.6635 C   0  0  0  0  0  0  0  0  0  0  0  0
  -22.8448  -10.6783   21.1596 C   0  0  0  0  0  0  0  0  0  0  0  0
  -24.7060  -12.4096   21.3745 C   0  0  0  0  0  0  0  0  0  0  0  0
  -23.9744  -32.2833   26.6001 C   0  0  0  0  0  0  0  0  0  0  0  0
  -25.4168  -29.6977   20.6497 C   0  0  0  0  0  0  0  0  0  0  0  0
  -24.5145  -31.2597   25.7983 C   0  0  0  0  0  0  0  0  0  0  0  0
  -25.2704  -28.3316   20.3693 C   0  0  0  0  0  0  0  0  0  0  0  0
  -26.9324  -18.5959   17.8920 C   0  0  0  0  0  0  0  0  0  0  0  0
  -25.6259  -18.9933   18.1760 C   0  0  0  0  0  0  0  0  0  0  0  0
  -27.7096  -20.8424   18.3235 C   0  0  0  0  0  0  0  0  0  0  0  0
  -27.9743  -19.5204   17.9657 C   0  0  0  0  0  0  0  0  0  0  0  0
  -21.8105   -8.0886   21.2364 C   0  0  0  0  0  0  0  0  0  0  0  0
  -27.6677  -28.1627   20.0026 C   0  0  0  0  0  0  0  0  0  0  0  0
  -21.6579   -6.0228   22.3461 C   0  0  0  0  0  0  0  0  0  0  0  0
  -22.3635   -4.4079   24.5087 C   0  0  0  0  0  0  0  0  0  0  0  0
  -22.9989   -5.7202   22.5823 C   0  0  0  0  0  0  0  0  0  0  0  0
  -23.3787  -12.0160   21.1192 C   0  0  0  0  0  0  0  0  0  0  0  0
  -24.6981  -13.7729   21.2071 C   0  0  0  0  0  0  0  0  0  0  0  0
  -25.8443  -11.6141   21.7311 C   0  0  0  0  0  0  0  0  0  0  0  0
  -29.8435  -23.8847   18.7487 C   0  0  0  0  0  0  0  0  0  0  0  0
  -29.8536  -25.3608   19.0954 C   0  0  0  0  0  0  0  0  0  0  0  0
  -23.2438  -29.2997   22.9353 C   0  0  0  0  0  0  0  0  0  0  0  0
  -21.4522  -28.1437   20.4907 C   0  0  0  0  0  0  0  0  0  0  0  0
  -21.3552  -26.7214   17.3900 C   0  0  0  0  0  0  0  0  0  0  0  0
  -23.2050  -18.3228   18.3660 C   0  0  0  0  0  0  0  0  0  0  0  0
  -22.5235  -32.2864   27.0118 C   0  0  0  0  0  0  0  0  0  0  0  0
  -24.2142  -30.5430   20.9684 C   0  0  0  0  0  0  0  0  0  0  0  0
  -23.9258  -27.6540   20.4069 C   0  0  0  0  0  0  0  0  0  0  0  0
  -21.6450  -31.3793   26.1541 C   0  0  0  0  0  0  0  0  0  0  0  0
  -20.8381  -17.0040   20.6760 C   0  0  0  0  0  0  0  0  0  0  0  0
  -22.3066  -30.0177   25.9665 C   0  0  0  0  0  0  0  0  0  0  0  0
  -21.3973  -15.6211   21.0182 C   0  0  0  0  0  0  0  0  0  0  0  0
  -21.0735  -17.3640   19.2101 C   0  0  0  0  0  0  0  0  0  0  0  0
  -23.0249  -15.8643   19.1002 C   0  0  0  0  0  0  0  0  0  0  0  0
  -23.6489  -30.1523   25.2374 C   0  0  1  0  0  0  0  0  0  0  0  0
  -23.0410  -29.7327   21.5108 C   0  0  1  0  0  0  0  0  0  0  0  0
  -22.8692  -15.4846   20.5818 C   0  0  2  0  0  0  0  0  0  0  0  0
  -27.2147  -17.1758   17.5087 C   0  0  0  0  0  0  0  0  0  0  0  0
  -19.7467  -25.8571   15.6686 C   0  0  0  0  0  0  0  0  0  0  0  0
  -21.0127  -25.6318   22.1661 C   0  0  0  0  0  0  0  0  0  0  0  0
  -20.2415  -24.4657   20.0891 C   0  0  0  0  0  0  0  0  0  0  0  0
  -18.9841  -26.4415   20.9481 C   0  0  0  0  0  0  0  0  0  0  0  0
  -22.2695  -28.6904   15.3785 C   0  0  0  0  0  0  0  0  0  0  0  0
  -28.5227  -23.1595   18.7659 C   0  0  0  0  0  0  0  0  0  0  0  0
  -28.5437  -26.0259   19.4343 C   0  0  0  0  0  0  0  0  0  1  0  0
  -21.2439  -26.7846   19.8675 C   0  0  1  0  0  0  0  0  0  0  0  0
  -20.5439  -27.0586   16.1520 C   0  0  2  0  0  0  0  0  0  0  0  0
  -20.3963  -25.8430   20.7688 C   0  0  0  0  0  0  0  0  0  0  0  0
  -22.5853  -13.0459   20.8129 N   0  0  0  0  0  0  0  0  0  0  0  0
  -23.4164  -14.1002   20.8749 N   0  0  0  0  0  0  0  0  0  0  0  0
  -22.7811  -28.5218   20.7295 N   0  0  0  0  0  0  0  0  0  0  0  0
  -22.4902  -17.2156   18.8700 N   0  0  0  0  0  0  0  0  0  0  0  0
  -29.2994  -19.1160   17.6777 N   0  0  0  0  0  0  0  0  0  0  0  0
  -25.6625  -14.7115   21.3132 N   0  0  0  0  0  0  0  0  0  0  0  0
  -25.6769  -10.2287   21.8611 N   0  0  0  0  0  0  0  0  0  0  0  0
  -24.5523  -18.0709   18.1094 N   0  0  0  0  0  0  0  0  0  0  0  0
  -28.7289  -21.7791   18.4029 N   0  0  0  0  0  0  0  0  0  0  0  0
  -23.4365  -30.3446   23.8188 N   0  0  0  0  0  0  0  0  0  0  0  0
  -20.6703  -27.0243   18.5477 N   0  0  0  0  0  0  0  0  0  0  0  0
  -21.4425  -27.5012   15.0486 N   0  3  0  0  0  0  0  0  0  0  0  0
  -26.9726  -12.1189   21.9447 O   0  0  0  0  0  0  0  0  0  0  0  0
  -30.9204  -23.3698   18.4752 O   0  0  0  0  0  0  0  0  0  0  0  0
  -30.9338  -25.9367   19.0786 O   0  0  0  0  0  0  0  0  0  0  0  0
  -23.2254  -28.1062   23.2125 O   0  0  0  0  0  0  0  0  0  0  0  0
  -20.4724  -28.8470   20.7493 O   0  0  0  0  0  0  0  0  0  0  0  0
  -22.4823  -26.2343   17.3355 O   0  0  0  0  0  0  0  0  0  0  0  0
  -22.6684  -19.4215   18.2019 O   0  0  0  0  0  0  0  0  0  0  0  0
  -21.3061   -6.8249   21.2736 O   0  0  0  0  0  0  0  0  0  0  0  0
  -28.7599  -27.4127   19.6922 O   0  0  0  0  0  0  0  0  0  1  0  0
  -22.7023   -3.6337   25.5479 F   0  0  0  0  0  0  0  0  0  0  0  0
  -23.9528   -6.2033   21.7744 F   0  0  0  0  0  0  0  0  0  0  0  0
  1  2  1  0  0  0  0
  1  5  2  0  0  0  0
  2  6  2  0  0  0  0
  3 10  2  0  0  0  0
  3 17  1  0  0  0  0
  4 11  1  0  0  0  0
  4 17  2  0  0  0  0
  5 19  1  0  0  0  0
  6 21  1  0  0  0  0
  7 12  2  0  0  0  0
  7 20  1  0  0  0  0
  8  9  2  0  0  0  0
  8 24  1  0  0  0  0
  9 25  1  0  0  0  0
 10 27  1  0  0  0  0
 11 27  2  0  0  0  0
 12 28  1  0  0  0  0
 13 14  2  0  0  0  0
 13 29  1  0  0  0  0
 14 30  1  0  0  0  0
 15 22  1  0  0  0  0
 15 28  2  0  0  0  0
 16 30  2  0  0  0  0
 16 31  1  0  0  0  0
 17 32  1  0  0  0  0
 18 32  1  0  0  0  0
 18 33  2  0  0  0  0
 18 34  1  0  0  0  0
 19 21  2  0  0  0  0
 19 41  1  0  0  0  0
 20 22  2  0  0  0  0
 20 42  1  0  0  0  0
 21 50  1  0  0  0  0
 22 43  1  0  0  0  0
 23 24  2  0  0  0  0
 23 26  1  0  0  0  0
 23 53  1  0  0  0  0
 24 71  1  0  0  0  0
 25 26  2  0  0  0  0
 25 72  1  0  0  0  0
 26 68  1  0  0  0  0
 27 83  1  0  0  0  0
 28 84  1  0  0  0  0
 29 31  2  0  0  0  0
 29 83  1  0  0  0  0
 30 85  1  0  0  0  0
 31 86  1  0  0  0  0
 32 64  2  0  0  0  0
 33 65  1  0  0  0  0
 33 69  1  0  0  0  0
 34 70  1  0  0  0  0
 34 76  2  0  0  0  0
 35 36  1  0  0  0  0
 35 59  1  0  0  0  0
 35 77  2  0  0  0  0
 36 60  1  0  0  0  0
 36 78  2  0  0  0  0
 37 51  1  0  0  0  0
 37 73  1  0  0  0  0
 37 79  2  0  0  0  0
 38 61  1  0  0  0  0
 38 66  1  0  0  0  0
 38 80  2  0  0  0  0
 39 62  1  0  0  0  0
 39 74  1  0  0  0  0
 39 81  2  0  0  0  0
 40 67  1  0  0  0  0
 40 71  1  0  0  0  0
 40 82  2  0  0  0  0
 41 44  1  0  0  0  0
 42 51  1  0  0  0  0
 43 66  1  0  0  0  0
 44 46  1  0  0  0  0
 45 47  1  0  0  0  0
 45 48  1  0  0  0  0
 46 50  1  0  0  0  0
 47 52  1  0  0  0  0
 48 67  1  0  0  0  0
 49 52  1  0  0  0  0
 49 67  1  0  0  0  0
 50 73  1  0  0  0  0
 51 66  1  0  0  0  0
 52 65  1  0  0  0  0
 54 62  1  0  0  0  0
 55 63  1  0  0  0  0
 56 63  1  0  0  0  0
 57 63  1  0  0  0  0
 58 75  1  0  0  0  0
 59 72  1  0  0  0  0
 60 84  1  0  0  0  0
 61 63  1  0  0  0  0
 61 74  1  0  0  0  0
 62 75  1  0  0  0  0
 64 65  1  0  0  0  0
M  CHG  1  75   1
M  ISO  4  40 100  60 101  71 100  84 101
M  END
> <Batch ID>
0169

> <Smiles>
CNC(C)C(=O)NC(C(=O)N1Cc2cc([101O:1][101CH2:1]C(=O)C(=O)CNc3ccc([100NH:0][100C:0](=O)N4CCCC(n5nc(-c6ccc(Oc7ccc(F)cc7F)cc6)c(C(N)=O)c5N)C4)c(C)c3N)ccc2CC1C(=O)NC1CCCc2ccccc21)C(C)(C)C

> <Shape>
0.275

> <Color>
0.101

> <Negative vol penalty>
0.000

$$$$

  -OEChem-04052304173D

 85 93  0     1  0  0  0  0  0999 V2000
  -16.9495  -28.8562   24.3978 C   0  0  0  0  0  0  0  0  0  0  0  0
  -17.5590  -27.9424   23.5441 C   0  0  0  0  0  0  0  0  0  0  0  0
  -23.1863  -11.0797   22.5247 C   0  0  0  0  0  0  0  0  0  0  0  0
  -22.2077  -12.8719   21.2334 C   0  0  0  0  0  0  0  0  0  0  0  0
  -17.3850  -30.1804   24.4256 C   0  0  0  0  0  0  0  0  0  0  0  0
  -18.6038  -28.3526   22.7167 C   0  0  0  0  0  0  0  0  0  0  0  0
  -22.4705  -25.0826   22.7043 C   0  0  0  0  0  0  0  0  0  0  0  0
  -21.9987  -10.9499   23.2447 C   0  0  0  0  0  0  0  0  0  0  0  0
  -21.0200  -12.7422   21.9534 C   0  0  0  0  0  0  0  0  0  0  0  0
  -22.3255  -23.9279   21.9365 C   0  0  0  0  0  0  0  0  0  0  0  0
  -18.9492   -9.5616   22.7904 C   0  0  0  0  0  0  0  0  0  0  0  0
  -18.4590   -8.2736   23.0055 C   0  0  0  0  0  0  0  0  0  0  0  0
  -26.5809  -19.3168   18.8875 C   0  0  0  0  0  0  0  0  0  0  0  0
  -23.6508  -24.9311   20.1884 C   0  0  0  0  0  0  0  0  0  0  0  0
  -28.4634  -19.9243   20.2747 C   0  0  0  0  0  0  0  0  0  0  0  0
  -18.6111   -8.6142   25.3925 C   0  0  0  0  0  0  0  0  0  0  0  0
  -23.2908  -12.0407   21.5190 C   0  0  0  0  0  0  0  0  0  0  0  0
  -26.2851  -20.6666   18.6977 C   0  0  0  0  0  0  0  0  0  0  0  0
  -24.8677  -11.5098   19.5854 C   0  0  0  0  0  0  0  0  0  0  0  0
  -18.4421  -30.6047   23.6052 C   0  0  0  0  0  0  0  0  0  0  0  0
  -23.1989  -26.1762   22.2146 C   0  0  0  0  0  0  0  0  0  0  0  0
  -19.0531  -29.6840   22.7326 C   0  0  0  0  0  0  0  0  0  0  0  0
  -23.8058  -26.0975   20.9530 C   0  0  0  0  0  0  0  0  0  0  0  0
  -27.6700  -18.9456   19.6761 C   0  0  0  0  0  0  0  0  0  0  0  0
  -27.0786  -21.6453   19.2963 C   0  0  0  0  0  0  0  0  0  0  0  0
  -20.9156  -11.7812   22.9591 C   0  0  0  0  0  0  0  0  0  0  0  0
  -22.9132  -23.8532   20.6772 C   0  0  0  0  0  0  0  0  0  0  0  0
  -19.2706  -10.3759   23.8764 C   0  0  0  0  0  0  0  0  0  0  0  0
  -18.2899   -7.7999   24.3065 C   0  0  0  0  0  0  0  0  0  0  0  0
  -28.1677  -21.2741   20.0848 C   0  0  0  0  0  0  0  0  0  0  0  0
  -19.1015   -9.9022   25.1775 C   0  0  0  0  0  0  0  0  0  0  0  0
  -24.5175  -12.1756   20.7753 C   0  0  0  0  0  0  0  0  0  0  0  0
  -26.1228  -11.9802   19.2855 C   0  0  0  0  0  0  0  0  0  0  0  0
  -25.1116  -21.0301   17.8498 C   0  0  0  0  0  0  0  0  0  0  0  0
  -24.1250  -10.5519   18.8196 C   0  0  0  0  0  0  0  0  0  0  0  0
  -22.5095  -29.2003   21.5194 C   0  0  0  0  0  0  0  0  0  0  0  0
  -25.7112  -29.4126   21.0433 C   0  0  0  0  0  0  0  0  0  0  0  0
  -28.6430  -27.8263   20.3120 C   0  0  0  0  0  0  0  0  0  0  0  0
  -29.0144  -17.0360   20.6207 C   0  0  0  0  0  0  0  0  0  0  0  0
  -18.8468  -32.0573   23.6359 C   0  0  0  0  0  0  0  0  0  0  0  0
  -23.3685  -27.4043   23.0662 C   0  0  0  0  0  0  0  0  0  0  0  0
  -24.6150  -27.2362   20.3899 C   0  0  0  0  0  0  0  0  0  0  0  0
  -20.2085  -32.3238   22.9995 C   0  0  0  0  0  0  0  0  0  0  0  0
  -30.0677  -13.7187   21.3712 C   0  0  0  0  0  0  0  0  0  0  0  0
  -20.3218  -31.6036   21.6596 C   0  0  0  0  0  0  0  0  0  0  0  0
  -28.7972  -12.8850   21.1894 C   0  0  0  0  0  0  0  0  0  0  0  0
  -29.7649  -15.0902   21.9720 C   0  0  0  0  0  0  0  0  0  0  0  0
  -27.4688  -15.0322   21.0810 C   0  0  0  0  0  0  0  0  0  0  0  0
  -20.2059  -30.0850   21.8380 C   0  0  1  0  0  0  0  0  0  0  0  0
  -23.7000  -28.6530   22.2548 C   0  0  1  0  0  0  0  0  0  0  0  0
  -27.7156  -13.6670   20.4185 C   0  0  2  0  0  0  0  0  0  0  0  0
  -31.0870  -28.2699   19.9550 C   0  0  0  0  0  0  0  0  0  0  0  0
  -21.6458  -23.8237   18.1123 C   0  0  0  0  0  0  0  0  0  0  0  0
  -25.0984  -30.5501   18.2792 C   0  0  0  0  0  0  0  0  0  0  0  0
  -27.4724  -30.0814   17.6367 C   0  0  0  0  0  0  0  0  0  0  0  0
  -26.9748  -31.6848   19.4817 C   0  0  0  0  0  0  0  0  0  0  0  0
  -29.4089  -26.0860   22.5800 C   0  0  0  0  0  0  0  0  0  0  0  0
  -23.7312  -20.5430   18.2654 C   0  0  0  0  0  0  0  0  0  0  0  0
  -22.6242  -21.5166   17.8454 C   0  0  0  0  0  0  0  0  0  0  0  0
  -26.6326  -29.2093   19.8649 C   0  0  1  0  0  0  0  0  0  0  0  0
  -30.0129  -27.8912   20.9628 C   0  0  2  0  0  0  0  0  0  0  0  0
  -22.7806  -22.8883   18.5075 C   0  0  2  0  0  0  0  0  0  1  0  0
  -26.5277  -30.3605   18.8251 C   0  0  0  0  0  0  0  0  0  0  0  0
  -25.4729  -13.0055   21.2022 N   0  0  0  0  0  0  0  0  0  0  0  0
  -26.4360  -12.8643   20.2756 N   0  0  0  0  0  0  0  0  0  0  0  0
  -24.7466  -28.4179   21.2580 N   0  0  0  0  0  0  0  0  0  0  0  0
  -28.7349  -15.7743   21.1871 N   0  0  0  0  0  0  0  0  0  0  0  0
  -26.7936  -23.0173   19.1156 N   0  0  0  0  0  0  0  0  0  0  0  0
  -26.9782  -11.7195   18.2741 N   0  0  0  0  0  0  0  0  0  0  0  0
  -22.8510  -10.1797   19.2699 N   0  0  0  0  0  0  0  0  0  0  0  0
  -27.9708  -17.5744   19.8687 N   0  0  0  0  0  0  0  0  0  0  0  0
  -21.4491  -29.5386   22.3383 N   0  0  0  0  0  0  0  0  0  0  0  0
  -27.9694  -29.0247   20.4192 N   0  0  0  0  0  0  0  0  0  0  0  0
  -30.3684  -26.5703   21.5544 N   0  3  0  0  0  0  0  0  0  0  0  0
  -25.2881  -21.7080   16.8401 O   0  0  0  0  0  0  0  0  0  0  0  0
  -24.5843  -10.0289   17.7761 O   0  0  0  0  0  0  0  0  0  0  0  0
  -22.5505  -29.3090   20.2995 O   0  0  0  0  0  0  0  0  0  0  0  0
  -25.8470  -30.4134   21.7516 O   0  0  0  0  0  0  0  0  0  0  0  0
  -28.2148  -26.8149   19.7603 O   0  0  0  0  0  0  0  0  0  0  0  0
  -30.1093  -17.5851   20.7677 O   0  0  0  0  0  0  0  0  0  0  0  0
  -19.7565  -11.6547   23.6613 O   0  0  0  0  0  0  0  0  0  0  0  0
  -22.7726  -22.7276   19.9254 O   0  0  0  0  0  0  0  0  0  1  0  0
  -17.8176   -6.5636   24.5129 F   0  0  0  0  0  0  0  0  0  0  0  0
  -28.9375  -22.2059   20.6651 F   0  0  0  0  0  0  0  0  0  0  0  0
  -19.4073  -10.6804   26.2247 F   0  0  0  0  0  0  0  0  0  0  0  0
  1  2  1  0  0  0  0
  1  5  2  0  0  0  0
  2  6  2  0  0  0  0
  3  8  2  0  0  0  0
  3 17  1  0  0  0  0
  4  9  1  0  0  0  0
  4 17  2  0  0  0  0
  5 20  1  0  0  0  0
  6 22  1  0  0  0  0
  7 10  2  0  0  0  0
  7 21  1  0  0  0  0
  8 26  1  0  0  0  0
  9 26  2  0  0  0  0
 10 27  1  0  0  0  0
 11 12  2  0  0  0  0
 11 28  1  0  0  0  0
 12 29  1  0  0  0  0
 13 18  1  0  0  0  0
 13 24  2  0  0  0  0
 14 23  1  0  0  0  0
 14 27  2  0  0  0  0
 15 24  1  0  0  0  0
 15 30  2  0  0  0  0
 16 29  2  0  0  0  0
 16 31  1  0  0  0  0
 17 32  1  0  0  0  0
 18 25  2  0  0  0  0
 18 34  1  0  0  0  0
 19 32  1  0  0  0  0
 19 33  2  0  0  0  0
 19 35  1  0  0  0  0
 20 22  2  0  0  0  0
 20 40  1  0  0  0  0
 21 23  2  0  0  0  0
 21 41  1  0  0  0  0
 22 49  1  0  0  0  0
 23 42  1  0  0  0  0
 24 71  1  0  0  0  0
 25 30  1  0  0  0  0
 25 68  1  0  0  0  0
 26 81  1  0  0  0  0
 27 82  1  0  0  0  0
 28 31  2  0  0  0  0
 28 81  1  0  0  0  0
 29 83  1  0  0  0  0
 30 84  1  0  0  0  0
 31 85  1  0  0  0  0
 32 64  2  0  0  0  0
 33 65  1  0  0  0  0
 33 69  1  0  0  0  0
 34 58  1  0  0  0  0
 34 75  2  0  0  0  0
 35 70  1  0  0  0  0
 35 76  2  0  0  0  0
 36 50  1  0  0  0  0
 36 72  1  0  0  0  0
 36 77  2  0  0  0  0
 37 60  1  0  0  0  0
 37 66  1  0  0  0  0
 37 78  2  0  0  0  0
 38 61  1  0  0  0  0
 38 73  1  0  0  0  0
 38 79  2  0  0  0  0
 39 67  1  0  0  0  0
 39 71  1  0  0  0  0
 39 80  2  0  0  0  0
 40 43  1  0  0  0  0
 41 50  1  0  0  0  0
 42 66  1  0  0  0  0
 43 45  1  0  0  0  0
 44 46  1  0  0  0  0
 44 47  1  0  0  0  0
 45 49  1  0  0  0  0
 46 51  1  0  0  0  0
 47 67  1  0  0  0  0
 48 51  1  0  0  0  0
 48 67  1  0  0  0  0
 49 72  1  0  0  0  0
 50 66  1  0  0  0  0
 51 65  1  0  0  0  0
 52 61  1  0  0  0  0
 53 62  1  0  0  0  0
 54 63  1  0  0  0  0
 55 63  1  0  0  0  0
 56 63  1  0  0  0  0
 57 74  1  0  0  0  0
 58 59  1  0  0  0  0
 59 62  1  0  0  0  0
 60 63  1  0  0  0  0
 60 73  1  0  0  0  0
 61 74  1  0  0  0  0
 62 82  1  0  0  0  0
 64 65  1  0  0  0  0
M  CHG  1  74   1
M  ISO  4  39 100  62 101  71 100  82 101
M  END
> <Batch ID>
0169

> <Smiles>
CNC(C)C(=O)NC(C(=O)N1Cc2cc([101O:1][101CH:1](C)CCC(=O)c3cc([100NH:0][100C:0](=O)N4CCCC(n5nc(-c6ccc(Oc7ccc(F)cc7F)cc6)c(C(N)=O)c5N)C4)cc(F)c3N)ccc2CC1C(=O)NC1CCCc2ccccc21)C(C)(C)C

> <Shape>
0.251

> <Color>
0.078

> <Negative vol penalty>
0.000

$$$$

  -OEChem-04052304173D

 84 92  0     1  0  0  0  0  0999 V2000
  -23.0156  -23.7803   20.5390 C   0  0  0  0  0  0  0  0  0  0  0  0
  -24.1830  -23.0401   20.6960 C   0  0  0  0  0  0  0  0  0  0  0  0
  -33.1469  -22.9427   21.2654 C   0  0  0  0  0  0  0  0  0  0  0  0
  -22.4683  -28.9705   22.9357 C   0  0  0  0  0  0  0  0  0  0  0  0
  -22.2406  -27.8652   20.7995 C   0  0  0  0  0  0  0  0  0  0  0  0
  -21.7936  -23.2479   20.9479 C   0  0  0  0  0  0  0  0  0  0  0  0
  -24.1291  -21.7672   21.2629 C   0  0  0  0  0  0  0  0  0  0  0  0
  -26.9161  -18.3886   18.7207 C   0  0  0  0  0  0  0  0  0  0  0  0
  -32.3548  -24.0139   20.8522 C   0  0  0  0  0  0  0  0  0  0  0  0
  -32.6147  -21.6537   21.2984 C   0  0  0  0  0  0  0  0  0  0  0  0
  -21.2437  -29.6080   22.7364 C   0  0  0  0  0  0  0  0  0  0  0  0
  -21.0160  -28.5027   20.6002 C   0  0  0  0  0  0  0  0  0  0  0  0
  -28.2945  -18.4150   18.9284 C   0  0  0  0  0  0  0  0  0  0  0  0
  -18.0067  -31.2482   22.9523 C   0  0  0  0  0  0  0  0  0  0  0  0
  -17.1104  -31.2793   24.0205 C   0  0  0  0  0  0  0  0  0  0  0  0
  -28.0947  -16.5534   20.4495 C   0  0  0  0  0  0  0  0  0  0  0  0
  -17.0646  -28.8639   24.0525 C   0  0  0  0  0  0  0  0  0  0  0  0
  -22.9668  -28.0992   21.9672 C   0  0  0  0  0  0  0  0  0  0  0  0
  -30.4983  -22.5072   20.5052 C   0  0  0  0  0  0  0  0  0  0  0  0
  -24.4520  -26.1964   22.7924 C   0  0  0  0  0  0  0  0  0  0  0  0
  -21.7235  -21.9640   21.5113 C   0  0  0  0  0  0  0  0  0  0  0  0
  -26.1139  -17.4499   19.3853 C   0  0  0  0  0  0  0  0  0  0  0  0
  -22.9052  -21.2177   21.6810 C   0  0  0  0  0  0  0  0  0  0  0  0
  -26.7068  -16.5156   20.2466 C   0  0  0  0  0  0  0  0  0  0  0  0
  -31.0305  -23.7962   20.4722 C   0  0  0  0  0  0  0  0  0  0  0  0
  -31.2904  -21.4360   20.9184 C   0  0  0  0  0  0  0  0  0  0  0  0
  -20.5176  -29.3740   21.5687 C   0  0  0  0  0  0  0  0  0  0  0  0
  -28.8836  -17.4992   19.7951 C   0  0  0  0  0  0  0  0  0  0  0  0
  -18.4320  -30.0249   22.4341 C   0  0  0  0  0  0  0  0  0  0  0  0
  -16.6393  -30.0872   24.5707 C   0  0  0  0  0  0  0  0  0  0  0  0
  -17.9610  -28.8328   22.9842 C   0  0  0  0  0  0  0  0  0  0  0  0
  -24.2319  -27.4408   22.1722 C   0  0  0  0  0  0  0  0  0  0  0  0
  -25.8131  -26.0211   22.7371 C   0  0  0  0  0  0  0  0  0  0  0  0
  -29.1107  -22.2789   20.1083 C   0  0  0  0  0  0  0  0  0  0  0  0
  -23.5103  -25.2806   23.3671 C   0  0  0  0  0  0  0  0  0  0  0  0
  -23.7227  -17.6203   21.4726 C   0  0  0  0  0  0  0  0  0  0  0  0
  -23.6044  -14.4121   21.0077 C   0  0  0  0  0  0  0  0  0  0  0  0
  -25.2270  -11.5579   20.0764 C   0  0  0  0  0  0  0  0  0  0  0  0
  -30.6436  -26.2355   19.9761 C   0  0  0  0  0  0  0  0  0  0  0  0
  -20.3860  -21.4497   21.9817 C   0  0  0  0  0  0  0  0  0  0  0  0
  -24.6320  -17.4174   19.1299 C   0  0  0  0  0  0  0  0  0  0  0  0
  -25.8925  -15.4745   20.9687 C   0  0  0  0  0  0  0  0  0  0  0  0
  -20.3654  -19.9436   22.2293 C   0  0  0  0  0  0  0  0  0  0  0  0
  -29.5021  -29.2524   21.4835 C   0  0  0  0  0  0  0  0  0  0  0  0
  -21.5902  -19.5178   23.0326 C   0  0  0  0  0  0  0  0  0  0  0  0
  -28.0474  -28.9477   21.8481 C   0  0  0  0  0  0  0  0  0  0  0  0
  -29.9040  -28.6006   20.1617 C   0  0  0  0  0  0  0  0  0  0  0  0
  -28.1905  -26.8529   20.4416 C   0  0  0  0  0  0  0  0  0  0  0  0
  -22.8844  -19.8234   22.2690 C   0  0  1  0  0  0  0  0  0  0  0  0
  -23.8464  -16.7495   20.2543 C   0  0  1  0  0  0  0  0  0  0  0  0
  -27.7589  -27.4345   21.7978 C   0  0  2  0  0  0  0  0  0  0  0  0
  -28.0671  -22.3657   21.1794 C   0  0  0  0  0  0  0  0  0  0  0  0
  -24.8806   -9.0841   19.8359 C   0  0  0  0  0  0  0  0  0  0  0  0
  -31.4574  -16.5145   21.7725 C   0  0  0  0  0  0  0  0  0  0  0  0
  -23.8057  -14.0920   24.0354 C   0  0  0  0  0  0  0  0  0  0  0  0
  -24.4071  -11.6891   23.6714 C   0  0  0  0  0  0  0  0  0  0  0  0
  -22.1843  -12.5430   22.9281 C   0  0  0  0  0  0  0  0  0  0  0  0
  -25.7772  -11.6462   17.1698 C   0  0  0  0  0  0  0  0  0  0  0  0
  -31.5522  -18.9979   21.3796 C   0  0  0  0  0  0  0  0  0  0  0  0
  -24.2602  -13.2138   21.6504 C   0  0  1  0  0  0  0  0  0  0  0  0
  -24.8290  -10.4338   19.1370 C   0  0  2  0  0  0  0  0  0  0  0  0
  -30.6782  -17.7466   21.3360 C   0  0  1  0  0  0  0  0  0  1  0  0
  -23.6797  -12.9052   23.0594 C   0  0  0  0  0  0  0  0  0  0  0  0
  -25.3627  -28.0156   21.7538 N   0  0  0  0  0  0  0  0  0  0  0  0
  -26.3064  -27.1283   22.1118 N   0  0  0  0  0  0  0  0  0  0  0  0
  -24.4468  -15.4873   20.6909 N   0  0  0  0  0  0  0  0  0  0  0  0
  -29.6055  -27.1671   20.1887 N   0  0  0  0  0  0  0  0  0  0  0  0
  -26.6242  -25.0295   23.1629 N   0  0  0  0  0  0  0  0  0  0  0  0
  -22.1498  -25.6162   23.3393 N   0  0  0  0  0  0  0  0  0  0  0  0
  -30.2466  -24.9012   20.0574 N   0  0  0  0  0  0  0  0  0  0  0  0
  -30.7836  -20.1479   20.9604 N   0  0  0  0  0  0  0  0  0  0  0  0
  -23.1071  -18.8346   21.2360 N   0  0  0  0  0  0  0  0  0  0  0  0
  -24.1301  -12.1171   20.6972 N   0  0  0  0  0  0  0  0  0  0  0  0
  -25.7462  -10.3905   17.9631 N   0  3  0  0  0  0  0  0  0  0  0  0
  -28.7440  -22.0178   18.9649 O   0  0  0  0  0  0  0  0  0  0  0  0
  -23.8663  -24.2045   23.9044 O   0  0  0  0  0  0  0  0  0  0  0  0
  -24.1524  -17.2194   22.5479 O   0  0  0  0  0  0  0  0  0  0  0  0
  -22.3908  -14.3920   20.7881 O   0  0  0  0  0  0  0  0  0  0  0  0
  -26.3945  -11.9027   20.2456 O   0  0  0  0  0  0  0  0  0  0  0  0
  -31.8050  -26.5948   19.7662 O   0  0  0  0  0  0  0  0  0  0  0  0
  -19.3225  -29.9957   21.3740 O   0  0  0  0  0  0  0  0  0  0  0  0
  -30.2287  -17.5231   20.0002 O   0  0  0  0  0  0  0  0  0  1  0  0
  -15.7798  -30.1172   25.5975 F   0  0  0  0  0  0  0  0  0  0  0  0
  -18.3668  -27.6546   22.4914 F   0  0  0  0  0  0  0  0  0  0  0  0
  1  2  1  0  0  0  0
  1  6  2  0  0  0  0
  2  7  2  0  0  0  0
  3  9  1  0  0  0  0
  3 10  2  0  0  0  0
  4 11  2  0  0  0  0
  4 18  1  0  0  0  0
  5 12  1  0  0  0  0
  5 18  2  0  0  0  0
  6 21  1  0  0  0  0
  7 23  1  0  0  0  0
  8 13  2  0  0  0  0
  8 22  1  0  0  0  0
  9 25  2  0  0  0  0
 10 26  1  0  0  0  0
 11 27  1  0  0  0  0
 12 27  2  0  0  0  0
 13 28  1  0  0  0  0
 14 15  2  0  0  0  0
 14 29  1  0  0  0  0
 15 30  1  0  0  0  0
 16 24  1  0  0  0  0
 16 28  2  0  0  0  0
 17 30  2  0  0  0  0
 17 31  1  0  0  0  0
 18 32  1  0  0  0  0
 19 25  1  0  0  0  0
 19 26  2  0  0  0  0
 19 34  1  0  0  0  0
 20 32  1  0  0  0  0
 20 33  2  0  0  0  0
 20 35  1  0  0  0  0
 21 23  2  0  0  0  0
 21 40  1  0  0  0  0
 22 24  2  0  0  0  0
 22 41  1  0  0  0  0
 23 49  1  0  0  0  0
 24 42  1  0  0  0  0
 25 70  1  0  0  0  0
 26 71  1  0  0  0  0
 27 81  1  0  0  0  0
 28 82  1  0  0  0  0
 29 31  2  0  0  0  0
 29 81  1  0  0  0  0
 30 83  1  0  0  0  0
 31 84  1  0  0  0  0
 32 64  2  0  0  0  0
 33 65  1  0  0  0  0
 33 68  1  0  0  0  0
 34 52  1  0  0  0  0
 34 75  2  0  0  0  0
 35 69  1  0  0  0  0
 35 76  2  0  0  0  0
 36 50  1  0  0  0  0
 36 72  1  0  0  0  0
 36 77  2  0  0  0  0
 37 60  1  0  0  0  0
 37 66  1  0  0  0  0
 37 78  2  0  0  0  0
 38 61  1  0  0  0  0
 38 73  1  0  0  0  0
 38 79  2  0  0  0  0
 39 67  1  0  0  0  0
 39 70  1  0  0  0  0
 39 80  2  0  0  0  0
 40 43  1  0  0  0  0
 41 50  1  0  0  0  0
 42 66  1  0  0  0  0
 43 45  1  0  0  0  0
 44 46  1  0  0  0  0
 44 47  1  0  0  0  0
 45 49  1  0  0  0  0
 46 51  1  0  0  0  0
 47 67  1  0  0  0  0
 48 51  1  0  0  0  0
 48 67  1  0  0  0  0
 49 72  1  0  0  0  0
 50 66  1  0  0  0  0
 51 65  1  0  0  0  0
 53 61  1  0  0  0  0
 54 62  1  0  0  0  0
 55 63  1  0  0  0  0
 56 63  1  0  0  0  0
 57 63  1  0  0  0  0
 58 74  1  0  0  0  0
 59 62  1  0  0  0  0
 59 71  1  0  0  0  0
 60 63  1  0  0  0  0
 60 73  1  0  0  0  0
 61 74  1  0  0  0  0
 62 82  1  0  0  0  0
 64 65  1  0  0  0  0
M  CHG  1  74   1
M  ISO  4  39 100  62 101  70 100  82 101
M  END
> <Batch ID>
0169

> <Smiles>
CNC(C)C(=O)NC(C(=O)N1Cc2cc([101O:1][101CH:1](C)CNc3cccc([100NH:0][100C:0](=O)N4CCCC(n5nc(-c6ccc(Oc7ccc(F)cc7F)cc6)c(C(N)=O)c5N)C4)c3C(C)=O)ccc2CC1C(=O)NC1CCCc2ccccc21)C(C)(C)C

> <Shape>
0.216

> <Color>
0.069

> <Negative vol penalty>
0.000

$$$$

  -OEChem-04052304173D

 85 93  0     1  0  0  0  0  0999 V2000
  -28.0455  -18.7122   14.3617 C   0  0  0  0  0  0  0  0  0  0  0  0
  -28.4450  -18.3603   15.6470 C   0  0  0  0  0  0  0  0  0  0  0  0
  -24.7276  -30.8019   21.0718 C   0  0  0  0  0  0  0  0  0  0  0  0
  -25.0581  -29.5280   23.0979 C   0  0  0  0  0  0  0  0  0  0  0  0
  -26.6904  -18.8657   14.0717 C   0  0  0  0  0  0  0  0  0  0  0  0
  -27.4897  -18.1627   16.6433 C   0  0  0  0  0  0  0  0  0  0  0  0
  -28.3830  -14.0058   19.3943 C   0  0  0  0  0  0  0  0  0  0  0  0
  -24.0215  -31.7651   21.7926 C   0  0  0  0  0  0  0  0  0  0  0  0
  -24.3521  -30.4912   23.8187 C   0  0  0  0  0  0  0  0  0  0  0  0
  -29.3741  -14.0897   20.3713 C   0  0  0  0  0  0  0  0  0  0  0  0
  -22.4426  -34.7395   23.1618 C   0  0  0  0  0  0  0  0  0  0  0  0
  -22.7374  -36.0802   22.9140 C   0  0  0  0  0  0  0  0  0  0  0  0
  -30.7701  -20.4663   21.0341 C   0  0  0  0  0  0  0  0  0  0  0  0
  -27.6767  -14.3926   22.0584 C   0  0  0  0  0  0  0  0  0  0  0  0
  -28.2581  -19.8788   19.9723 C   0  0  0  0  0  0  0  0  0  0  0  0
  -25.0252  -35.7025   23.5924 C   0  0  0  0  0  0  0  0  0  0  0  0
  -25.2458  -29.6834   21.7245 C   0  0  0  0  0  0  0  0  0  0  0  0
  -30.3318  -19.1436   20.9705 C   0  0  0  0  0  0  0  0  0  0  0  0
  -27.3605  -28.6559   20.7344 C   0  0  0  0  0  0  0  0  0  0  0  0
  -25.7174  -18.6604   15.0626 C   0  0  0  0  0  0  0  0  0  0  0  0
  -27.0296  -14.1258   19.7412 C   0  0  0  0  0  0  0  0  0  0  0  0
  -26.1204  -18.3148   16.3666 C   0  0  0  0  0  0  0  0  0  0  0  0
  -26.6703  -14.3074   21.0843 C   0  0  0  0  0  0  0  0  0  0  0  0
  -28.6964  -21.2015   20.0360 C   0  0  0  0  0  0  0  0  0  0  0  0
  -23.8339  -31.6097   23.1660 C   0  0  0  0  0  0  0  0  0  0  0  0
  -29.0212  -14.2860   21.7032 C   0  0  0  0  0  0  0  0  0  0  0  0
  -23.4392  -33.8804   23.6249 C   0  0  0  0  0  0  0  0  0  0  0  0
  -24.0287  -36.5617   23.1293 C   0  0  0  0  0  0  0  0  0  0  0  0
  -29.9523  -21.4952   20.5669 C   0  0  0  0  0  0  0  0  0  0  0  0
  -29.0759  -18.8498   20.4396 C   0  0  0  0  0  0  0  0  0  0  0  0
  -24.7305  -34.3619   23.8402 C   0  0  0  0  0  0  0  0  0  0  0  0
  -25.9748  -28.6878   20.9804 C   0  0  0  0  0  0  0  0  0  0  0  0
  -27.5508  -27.5181   19.9890 C   0  0  0  0  0  0  0  0  0  0  0  0
  -31.1996  -18.0564   21.4659 C   0  0  0  0  0  0  0  0  0  0  0  0
  -28.3842  -29.5727   21.1433 C   0  0  0  0  0  0  0  0  0  0  0  0
  -24.6974  -16.1571   19.0072 C   0  0  0  0  0  0  0  0  0  0  0  0
  -22.8745  -14.0625   20.6840 C   0  0  0  0  0  0  0  0  0  0  0  0
  -22.7105  -11.6311   23.0732 C   0  0  0  0  0  0  0  0  0  0  0  0
  -26.5906  -22.1225   19.0046 C   0  0  0  0  0  0  0  0  0  0  0  0
  -24.2673  -18.8841   14.7134 C   0  0  0  0  0  0  0  0  0  0  0  0
  -25.9713  -14.0064   18.6790 C   0  0  0  0  0  0  0  0  0  0  0  0
  -25.2306  -14.4221   21.5116 C   0  0  0  0  0  0  0  0  0  0  0  0
  -23.2971  -18.2904   15.7315 C   0  0  0  0  0  0  0  0  0  0  0  0
  -24.2056  -24.4494   17.7498 C   0  0  0  0  0  0  0  0  0  0  0  0
  -23.7285  -18.6464   17.1507 C   0  0  0  0  0  0  0  0  0  0  0  0
  -24.5672  -25.7569   18.4581 C   0  0  0  0  0  0  0  0  0  0  0  0
  -24.3971  -23.2386   18.6614 C   0  0  0  0  0  0  0  0  0  0  0  0
  -26.0840  -24.4422   19.9937 C   0  0  0  0  0  0  0  0  0  0  0  0
  -25.1126  -18.0676   17.4681 C   0  0  1  0  0  0  0  0  0  0  0  0
  -24.6498  -14.6569   19.0764 C   0  0  1  0  0  0  0  0  0  0  0  0
  -25.9691  -25.6839   19.0945 C   0  0  2  0  0  0  0  0  0  0  0  0
  -21.0770  -10.1347   24.2521 C   0  0  0  0  0  0  0  0  0  0  0  0
  -32.3312  -13.8429   22.4615 C   0  0  0  0  0  0  0  0  0  0  0  0
  -21.9248  -16.4263   22.3633 C   0  0  0  0  0  0  0  0  0  0  0  0
  -21.0840  -14.7915   24.0629 C   0  0  0  0  0  0  0  0  0  0  0  0
  -20.1328  -14.7907   21.7569 C   0  0  0  0  0  0  0  0  0  0  0  0
  -24.0543   -9.1881   22.0805 C   0  0  0  0  0  0  0  0  0  0  0  0
  -31.5149  -16.1792   23.0387 C   0  0  0  0  0  0  0  0  0  0  0  0
  -22.4744  -13.9143   22.1321 C   0  0  1  0  0  0  0  0  0  0  0  0
  -22.0377  -10.2703   23.0810 C   0  0  2  0  0  0  0  0  0  0  0  0
  -31.2510  -14.8968   22.2604 C   0  0  2  0  0  0  0  0  0  1  0  0
  -21.4313  -14.9805   22.5708 C   0  0  0  0  0  0  0  0  0  0  0  0
  -25.3303  -27.6526   20.4352 N   0  0  0  0  0  0  0  0  0  0  0  0
  -26.3155  -26.9596   19.8393 N   0  0  0  0  0  0  0  0  0  0  0  0
  -24.2328  -14.3052   20.4353 N   0  0  0  0  0  0  0  0  0  0  0  0
  -25.7490  -23.2334   19.2246 N   0  0  0  0  0  0  0  0  0  0  0  0
  -28.6526  -26.9509   19.4534 N   0  0  0  0  0  0  0  0  0  0  0  0
  -32.3933  -17.8958   20.8948 N   0  0  0  0  0  0  0  0  0  0  0  0
  -28.0152  -30.6898   21.9050 N   0  0  0  0  0  0  0  0  0  0  0  0
  -27.8637  -22.2447   19.5604 N   0  0  0  0  0  0  0  0  0  0  0  0
  -25.0146  -16.6528   17.7569 N   0  0  0  0  0  0  0  0  0  0  0  0
  -22.0235  -12.5360   22.2920 N   0  0  0  0  0  0  0  0  0  0  0  0
  -30.7460  -17.2848   22.4607 N   0  3  0  0  0  0  0  0  0  0  0  0
  -23.0578   -9.1886   23.1823 N   0  3  0  0  0  0  0  0  0  0  0  0
  -29.5881  -29.4150   20.8282 O   0  0  0  0  0  0  0  0  0  0  0  0
  -24.4623  -16.8161   20.0132 O   0  0  0  0  0  0  0  0  0  0  0  0
  -22.0147  -13.9593   19.8055 O   0  0  0  0  0  0  0  0  0  0  0  0
  -23.7404  -11.8686   23.7005 O   0  0  0  0  0  0  0  0  0  0  0  0
  -26.2192  -21.1472   18.3467 O   0  0  0  0  0  0  0  0  0  0  0  0
  -23.1452  -32.5495   23.8697 O   0  0  0  0  0  0  0  0  0  0  0  0
  -29.9865  -14.3689   22.6587 O   0  0  0  0  0  0  0  0  0  1  0  0
  -24.3119  -37.8488   22.8899 F   0  0  0  0  0  0  0  0  0  0  0  0
  -30.3837  -22.7631   20.6332 F   0  0  0  0  0  0  0  0  0  0  0  0
  -28.6458  -17.5819   20.3744 F   0  0  0  0  0  0  0  0  0  0  0  0
  -25.6923  -33.5410   24.2839 F   0  0  0  0  0  0  0  0  0  0  0  0
  1  2  1  0  0  0  0
  1  5  2  0  0  0  0
  2  6  2  0  0  0  0
  3  8  2  0  0  0  0
  3 17  1  0  0  0  0
  4  9  1  0  0  0  0
  4 17  2  0  0  0  0
  5 20  1  0  0  0  0
  6 22  1  0  0  0  0
  7 10  2  0  0  0  0
  7 21  1  0  0  0  0
  8 25  1  0  0  0  0
  9 25  2  0  0  0  0
 10 26  1  0  0  0  0
 11 12  2  0  0  0  0
 11 27  1  0  0  0  0
 12 28  1  0  0  0  0
 13 18  1  0  0  0  0
 13 29  2  0  0  0  0
 14 23  1  0  0  0  0
 14 26  2  0  0  0  0
 15 24  2  0  0  0  0
 15 30  1  0  0  0  0
 16 28  2  0  0  0  0
 16 31  1  0  0  0  0
 17 32  1  0  0  0  0
 18 30  2  0  0  0  0
 18 34  1  0  0  0  0
 19 32  1  0  0  0  0
 19 33  2  0  0  0  0
 19 35  1  0  0  0  0
 20 22  2  0  0  0  0
 20 40  1  0  0  0  0
 21 23  2  0  0  0  0
 21 41  1  0  0  0  0
 22 49  1  0  0  0  0
 23 42  1  0  0  0  0
 24 29  1  0  0  0  0
 24 70  1  0  0  0  0
 25 80  1  0  0  0  0
 26 81  1  0  0  0  0
 27 31  2  0  0  0  0
 27 80  1  0  0  0  0
 28 82  1  0  0  0  0
 29 83  1  0  0  0  0
 30 84  1  0  0  0  0
 31 85  1  0  0  0  0
 32 63  2  0  0  0  0
 33 64  1  0  0  0  0
 33 67  1  0  0  0  0
 34 68  1  0  0  0  0
 34 73  2  0  0  0  0
 35 69  1  0  0  0  0
 35 75  2  0  0  0  0
 36 50  1  0  0  0  0
 36 71  1  0  0  0  0
 36 76  2  0  0  0  0
 37 59  1  0  0  0  0
 37 65  1  0  0  0  0
 37 77  2  0  0  0  0
 38 60  1  0  0  0  0
 38 72  1  0  0  0  0
 38 78  2  0  0  0  0
 39 66  1  0  0  0  0
 39 70  1  0  0  0  0
 39 79  2  0  0  0  0
 40 43  1  0  0  0  0
 41 50  1  0  0  0  0
 42 65  1  0  0  0  0
 43 45  1  0  0  0  0
 44 46  1  0  0  0  0
 44 47  1  0  0  0  0
 45 49  1  0  0  0  0
 46 51  1  0  0  0  0
 47 66  1  0  0  0  0
 48 51  1  0  0  0  0
 48 66  1  0  0  0  0
 49 71  1  0  0  0  0
 50 65  1  0  0  0  0
 51 64  1  0  0  0  0
 52 60  1  0  0  0  0
 53 61  1  0  0  0  0
 54 62  1  0  0  0  0
 55 62  1  0  0  0  0
 56 62  1  0  0  0  0
 57 74  1  0  0  0  0
 58 61  1  0  0  0  0
 58 73  1  0  0  0  0
 59 62  1  0  0  0  0
 59 72  1  0  0  0  0
 60 74  1  0  0  0  0
 61 81  1  0  0  0  0
 63 64  1  0  0  0  0
M  CHG  2  73   1  74   1
M  ISO  4  39 100  61 101  70 100  81 101
M  END
> <Batch ID>
0169

> <Smiles>
CNC(C)C(=O)NC(C(=O)N1Cc2cc([101O:1][101CH:1](C)CNC(=N)c3cc(F)c([100NH:0][100C:0](=O)N4CCCC(n5nc(-c6ccc(Oc7ccc(F)cc7F)cc6)c(C(N)=O)c5N)C4)cc3F)ccc2CC1C(=O)NC1CCCc2ccccc21)C(C)(C)C

> <Shape>
0.259

> <Color>
0.063

> <Negative vol penalty>
0.000

$$$$

  -OEChem-04052304173D

 87 95  0     1  0  0  0  0  0999 V2000
  -16.4592  -26.9174   29.8871 C   0  0  0  0  0  0  0  0  0  0  0  0
  -17.7789  -26.4783   29.8545 C   0  0  0  0  0  0  0  0  0  0  0  0
  -23.0002   -9.8942   19.9811 C   0  0  0  0  0  0  0  0  0  0  0  0
  -23.7254   -9.9447   22.2851 C   0  0  0  0  0  0  0  0  0  0  0  0
  -15.4716  -26.2043   29.2088 C   0  0  0  0  0  0  0  0  0  0  0  0
  -18.1115  -25.3251   29.1445 C   0  0  0  0  0  0  0  0  0  0  0  0
  -23.3030  -24.2605   26.0752 C   0  0  0  0  0  0  0  0  0  0  0  0
  -22.2334   -8.7599   20.2473 C   0  0  0  0  0  0  0  0  0  0  0  0
  -22.9586   -8.8104   22.5513 C   0  0  0  0  0  0  0  0  0  0  0  0
  -24.4619  -23.5598   26.4068 C   0  0  0  0  0  0  0  0  0  0  0  0
  -23.2021   -5.4715   22.0790 C   0  0  0  0  0  0  0  0  0  0  0  0
  -23.7894   -4.4540   22.8309 C   0  0  0  0  0  0  0  0  0  0  0  0
  -23.6036  -21.6137   25.2688 C   0  0  0  0  0  0  0  0  0  0  0  0
  -32.0588  -16.5492   22.5648 C   0  0  0  0  0  0  0  0  0  0  0  0
  -29.8804  -17.4462   23.1002 C   0  0  0  0  0  0  0  0  0  0  0  0
  -22.0656   -4.6972   24.5063 C   0  0  0  0  0  0  0  0  0  0  0  0
  -23.7463  -10.4866   20.9999 C   0  0  0  0  0  0  0  0  0  0  0  0
  -24.1322  -13.0022   20.8242 C   0  0  0  0  0  0  0  0  0  0  0  0
  -15.7938  -25.0472   28.4822 C   0  0  0  0  0  0  0  0  0  0  0  0
  -22.2793  -23.6385   25.3461 C   0  0  0  0  0  0  0  0  0  0  0  0
  -17.1270  -24.5951   28.4571 C   0  0  0  0  0  0  0  0  0  0  0  0
  -22.4339  -22.3094   24.9270 C   0  0  0  0  0  0  0  0  0  0  0  0
  -32.6471  -17.4446   23.4580 C   0  0  0  0  0  0  0  0  0  0  0  0
  -31.8520  -18.3407   24.1724 C   0  0  0  0  0  0  0  0  0  0  0  0
  -30.6754  -16.5501   22.3858 C   0  0  0  0  0  0  0  0  0  0  0  0
  -30.4686  -18.3415   23.9936 C   0  0  0  0  0  0  0  0  0  0  0  0
  -22.2126   -8.2180   21.5324 C   0  0  0  0  0  0  0  0  0  0  0  0
  -24.6111  -22.2354   26.0061 C   0  0  0  0  0  0  0  0  0  0  0  0
  -22.0466   -6.1018   22.5407 C   0  0  0  0  0  0  0  0  0  0  0  0
  -23.2212   -4.0668   24.0446 C   0  0  0  0  0  0  0  0  0  0  0  0
  -21.4783   -5.7146   23.7543 C   0  0  0  0  0  0  0  0  0  0  0  0
  -24.5390  -11.6581   20.7254 C   0  0  0  0  0  0  0  0  0  0  0  0
  -25.2421  -13.7245   20.4599 C   0  0  0  0  0  0  0  0  0  0  0  0
  -22.8643  -13.5488   21.2109 C   0  0  0  0  0  0  0  0  0  0  0  0
  -19.2298  -22.9403   25.9090 C   0  0  0  0  0  0  0  0  0  0  0  0
  -27.6659  -20.3528   25.4708 C   0  0  0  0  0  0  0  0  0  0  0  0
  -19.2697  -22.0248   22.7973 C   0  0  0  0  0  0  0  0  0  0  0  0
  -21.0887  -20.9553   20.1151 C   0  0  0  0  0  0  0  0  0  0  0  0
  -30.7218  -14.6843   20.6938 C   0  0  0  0  0  0  0  0  0  0  0  0
  -14.6842  -24.2833   27.8040 C   0  0  0  0  0  0  0  0  0  0  0  0
  -21.0470  -24.4163   24.9734 C   0  0  0  0  0  0  0  0  0  0  0  0
  -21.3731  -21.6023   24.1250 C   0  0  0  0  0  0  0  0  0  0  0  0
  -15.1811  -23.2808   26.7656 C   0  0  0  0  0  0  0  0  0  0  0  0
  -29.6028  -12.2319   18.3676 C   0  0  0  0  0  0  0  0  0  0  0  0
  -16.3406  -22.4628   27.3255 C   0  0  0  0  0  0  0  0  0  0  0  0
  -28.1522  -11.9746   18.7818 C   0  0  0  0  0  0  0  0  0  0  0  0
  -30.5035  -12.4750   19.5774 C   0  0  0  0  0  0  0  0  0  0  0  0
  -28.5883  -13.2641   20.9111 C   0  0  0  0  0  0  0  0  0  0  0  0
  -17.5313  -23.3627   27.6774 C   0  0  1  0  0  0  0  0  0  0  0  0
  -19.8468  -23.5248   24.6699 C   0  0  1  0  0  0  0  0  0  0  0  0
  -27.6306  -13.0782   19.7229 C   0  0  2  0  0  0  0  0  0  0  0  0
  -34.1307  -17.4239   23.6301 C   0  0  0  0  0  0  0  0  0  0  0  0
  -20.8383  -20.2531   17.7189 C   0  0  0  0  0  0  0  0  0  0  0  0
  -18.1571  -19.3326   23.7051 C   0  0  0  0  0  0  0  0  0  0  0  0
  -18.8179  -18.3887   21.4823 C   0  0  0  0  0  0  0  0  0  0  0  0
  -17.1373  -20.2281   21.6045 C   0  0  0  0  0  0  0  0  0  0  0  0
  -22.8259  -23.1561   19.1675 C   0  0  0  0  0  0  0  0  0  0  0  0
  -28.2279  -19.2815   24.5606 C   0  0  0  0  0  0  0  0  0  0  0  0
  -26.1603  -20.5268   25.4258 C   0  0  0  0  0  0  0  0  0  1  0  0
  -19.5701  -20.7394   22.0649 C   0  0  1  0  0  0  0  0  0  0  0  0
  -21.1109  -21.4105   18.6670 C   0  0  2  0  0  0  0  0  0  0  0  0
  -32.4868  -19.2999   25.1299 C   0  0  0  0  0  0  0  0  0  0  0  0
  -18.4399  -19.6846   22.2310 C   0  0  0  0  0  0  0  0  0  0  0  0
  -25.8082  -11.5313   20.3292 N   0  0  0  0  0  0  0  0  0  0  0  0
  -26.2085  -12.8050   20.1757 N   0  0  0  0  0  0  0  0  0  0  0  0
  -20.1838  -22.4032   23.7909 N   0  0  0  0  0  0  0  0  0  0  0  0
  -29.9487  -13.5360   20.4208 N   0  0  0  0  0  0  0  0  0  0  0  0
  -25.4759  -15.0502   20.3580 N   0  0  0  0  0  0  0  0  0  0  0  0
  -21.8323  -12.6649   21.5543 N   0  0  0  0  0  0  0  0  0  0  0  0
  -30.0778  -15.6395   21.4795 N   0  0  0  0  0  0  0  0  0  0  0  0
  -29.6610  -19.2252   24.6951 N   0  0  0  0  0  0  0  0  0  0  0  0
  -18.2546  -23.7351   26.4805 N   0  0  0  0  0  0  0  0  0  0  0  0
  -19.8409  -21.1121   20.6806 N   0  0  0  0  0  0  0  0  0  0  0  0
  -22.4399  -21.9932   18.3275 N   0  3  0  0  0  0  0  0  0  0  0  0
  -22.6479  -14.7842   21.2348 O   0  0  0  0  0  0  0  0  0  0  0  0
  -19.6094  -21.8484   26.3156 O   0  0  0  0  0  0  0  0  0  0  0  0
  -28.3745  -21.0428   26.2026 O   0  0  0  0  0  0  0  0  0  0  0  0
  -18.2650  -22.6731   22.4940 O   0  0  0  0  0  0  0  0  0  0  0  0
  -22.0782  -20.5023   20.6862 O   0  0  0  0  0  0  0  0  0  0  0  0
  -31.8605  -14.8230   20.2397 O   0  0  0  0  0  0  0  0  0  0  0  0
  -21.4642   -7.1112   21.7926 O   0  0  0  0  0  0  0  0  0  0  0  0
  -25.7409  -21.5490   26.3289 O   0  0  0  0  0  0  0  0  0  1  0  0
  -23.7844   -3.0887   24.7658 F   0  0  0  0  0  0  0  0  0  0  0  0
  -20.3676   -6.3157   24.2024 F   0  0  0  0  0  0  0  0  0  0  0  0
  -33.8439  -19.1807   25.1972 F   0  0  0  0  0  0  0  0  0  0  0  0
  -32.2546  -20.6076   24.8203 F   0  0  0  0  0  0  0  0  0  0  0  0
  -32.0367  -19.1355   26.4058 F   0  0  0  0  0  0  0  0  0  0  0  0
  1  2  1  0  0  0  0
  1  5  2  0  0  0  0
  2  6  2  0  0  0  0
  3  8  2  0  0  0  0
  3 17  1  0  0  0  0
  4  9  1  0  0  0  0
  4 17  2  0  0  0  0
  5 19  1  0  0  0  0
  6 21  1  0  0  0  0
  7 10  2  0  0  0  0
  7 20  1  0  0  0  0
  8 27  1  0  0  0  0
  9 27  2  0  0  0  0
 10 28  1  0  0  0  0
 11 12  2  0  0  0  0
 11 29  1  0  0  0  0
 12 30  1  0  0  0  0
 13 22  1  0  0  0  0
 13 28  2  0  0  0  0
 14 23  2  0  0  0  0
 14 25  1  0  0  0  0
 15 25  2  0  0  0  0
 15 26  1  0  0  0  0
 16 30  2  0  0  0  0
 16 31  1  0  0  0  0
 17 32  1  0  0  0  0
 18 32  1  0  0  0  0
 18 33  2  0  0  0  0
 18 34  1  0  0  0  0
 19 21  2  0  0  0  0
 19 40  1  0  0  0  0
 20 22  2  0  0  0  0
 20 41  1  0  0  0  0
 21 49  1  0  0  0  0
 22 42  1  0  0  0  0
 23 24  1  0  0  0  0
 23 52  1  0  0  0  0
 24 26  2  0  0  0  0
 24 62  1  0  0  0  0
 25 70  1  0  0  0  0
 26 71  1  0  0  0  0
 27 81  1  0  0  0  0
 28 82  1  0  0  0  0
 29 31  2  0  0  0  0
 29 81  1  0  0  0  0
 30 83  1  0  0  0  0
 31 84  1  0  0  0  0
 32 64  2  0  0  0  0
 33 65  1  0  0  0  0
 33 68  1  0  0  0  0
 34 69  1  0  0  0  0
 34 75  2  0  0  0  0
 35 50  1  0  0  0  0
 35 72  1  0  0  0  0
 35 76  2  0  0  0  0
 36 58  1  0  0  0  0
 36 59  1  0  0  0  0
 36 77  2  0  0  0  0
 37 60  1  0  0  0  0
 37 66  1  0  0  0  0
 37 78  2  0  0  0  0
 38 61  1  0  0  0  0
 38 73  1  0  0  0  0
 38 79  2  0  0  0  0
 39 67  1  0  0  0  0
 39 70  1  0  0  0  0
 39 80  2  0  0  0  0
 40 43  1  0  0  0  0
 41 50  1  0  0  0  0
 42 66  1  0  0  0  0
 43 45  1  0  0  0  0
 44 46  1  0  0  0  0
 44 47  1  0  0  0  0
 45 49  1  0  0  0  0
 46 51  1  0  0  0  0
 47 67  1  0  0  0  0
 48 51  1  0  0  0  0
 48 67  1  0  0  0  0
 49 72  1  0  0  0  0
 50 66  1  0  0  0  0
 51 65  1  0  0  0  0
 53 61  1  0  0  0  0
 54 63  1  0  0  0  0
 55 63  1  0  0  0  0
 56 63  1  0  0  0  0
 57 74  1  0  0  0  0
 58 71  1  0  0  0  0
 59 82  1  0  0  0  0
 60 63  1  0  0  0  0
 60 73  1  0  0  0  0
 61 74  1  0  0  0  0
 62 85  1  0  0  0  0
 62 86  1  0  0  0  0
 62 87  1  0  0  0  0
 64 65  1  0  0  0  0
M  CHG  1  74   1
M  ISO  4  39 100  59 101  70 100  82 101
M  END
> <Batch ID>
0169

> <Smiles>
CNC(C)C(=O)NC(C(=O)N1Cc2cc([101O:1][101CH2:1]C(=O)CNc3cc([100NH:0][100C:0](=O)N4CCCC(n5nc(-c6ccc(Oc7ccc(F)cc7F)cc6)c(C(N)=O)c5N)C4)cc(C)c3C(F)(F)F)ccc2CC1C(=O)NC1CCCc2ccccc21)C(C)(C)C

> <Shape>
0.170

> <Color>
0.198

> <Negative vol penalty>
0.000

$$$$

  -OEChem-04052304173D

 86 94  0     1  0  0  0  0  0999 V2000
  -19.3838  -24.8319   15.9839 C   0  0  0  0  0  0  0  0  0  0  0  0
  -20.1304  -24.6856   17.1486 C   0  0  0  0  0  0  0  0  0  0  0  0
  -23.1894   -9.6519   19.9829 C   0  0  0  0  0  0  0  0  0  0  0  0
  -23.5370  -10.1391   22.3236 C   0  0  0  0  0  0  0  0  0  0  0  0
  -18.8678  -26.0807   15.6402 C   0  0  0  0  0  0  0  0  0  0  0  0
  -20.3624  -25.7885   17.9698 C   0  0  0  0  0  0  0  0  0  0  0  0
  -19.6762  -24.7364   22.8756 C   0  0  0  0  0  0  0  0  0  0  0  0
  -22.4279   -8.5355   20.3283 C   0  0  0  0  0  0  0  0  0  0  0  0
  -22.7754   -9.0227   22.6691 C   0  0  0  0  0  0  0  0  0  0  0  0
  -20.6968  -24.0454   23.5275 C   0  0  0  0  0  0  0  0  0  0  0  0
  -23.2010   -5.6731   22.8416 C   0  0  0  0  0  0  0  0  0  0  0  0
  -23.6945   -4.8365   23.8426 C   0  0  0  0  0  0  0  0  0  0  0  0
  -21.4949  -26.1202   24.4643 C   0  0  0  0  0  0  0  0  0  0  0  0
  -29.2335  -18.0287   22.7062 C   0  0  0  0  0  0  0  0  0  0  0  0
  -30.9794  -19.2107   23.8857 C   0  0  0  0  0  0  0  0  0  0  0  0
  -31.4972  -17.1852   22.6749 C   0  0  0  0  0  0  0  0  0  0  0  0
  -21.7192   -5.2577   25.1684 C   0  0  0  0  0  0  0  0  0  0  0  0
  -23.7440  -10.4537   20.9806 C   0  0  0  0  0  0  0  0  0  0  0  0
  -24.0697  -12.9209   20.4196 C   0  0  0  0  0  0  0  0  0  0  0  0
  -19.0855  -27.1974   16.4625 C   0  0  0  0  0  0  0  0  0  0  0  0
  -19.5637  -26.1282   23.0048 C   0  0  0  0  0  0  0  0  0  0  0  0
  -19.8500  -27.0537   17.6360 C   0  0  0  0  0  0  0  0  0  0  0  0
  -20.4705  -26.8261   23.8152 C   0  0  0  0  0  0  0  0  0  0  0  0
  -29.6429  -19.0978   23.5030 C   0  0  0  0  0  0  0  0  0  0  0  0
  -30.1606  -17.0723   22.2922 C   0  0  0  0  0  0  0  0  0  0  0  0
  -22.2209   -8.2209   21.6714 C   0  0  0  0  0  0  0  0  0  0  0  0
  -21.6080  -24.7377   24.3196 C   0  0  0  0  0  0  0  0  0  0  0  0
  -21.9666   -6.3021   23.0039 C   0  0  0  0  0  0  0  0  0  0  0  0
  -22.9536   -4.6288   25.0060 C   0  0  0  0  0  0  0  0  0  0  0  0
  -31.9067  -18.2544   23.4716 C   0  0  0  0  0  0  0  0  0  0  0  0
  -21.2257   -6.0943   24.1674 C   0  0  0  0  0  0  0  0  0  0  0  0
  -24.5312  -11.6068   20.6244 C   0  0  0  0  0  0  0  0  0  0  0  0
  -25.1990  -13.6361   20.1039 C   0  0  0  0  0  0  0  0  0  0  0  0
  -22.7392  -13.4479   20.5070 C   0  0  0  0  0  0  0  0  0  0  0  0
  -19.7111  -28.5866   20.9952 C   0  0  0  0  0  0  0  0  0  0  0  0
  -24.5609  -22.6691   24.6448 C   0  0  0  0  0  0  0  0  0  0  0  0
  -18.8454  -30.2829   23.6211 C   0  0  0  0  0  0  0  0  0  0  0  0
  -27.3407  -20.1095   23.6381 C   0  0  0  0  0  0  0  0  0  0  0  0
  -18.7494  -30.5046   27.0252 C   0  0  0  0  0  0  0  0  0  0  0  0
  -30.5370  -14.9511   20.9864 C   0  0  0  0  0  0  0  0  0  0  0  0
  -18.5477  -28.5368   16.0251 C   0  0  0  0  0  0  0  0  0  0  0  0
  -18.4412  -26.8553   22.3166 C   0  0  0  0  0  0  0  0  0  0  0  0
  -20.3810  -28.3178   24.0028 C   0  0  0  0  0  0  0  0  0  0  0  0
  -18.5224  -29.5772   17.1420 C   0  0  0  0  0  0  0  0  0  0  0  0
  -29.8838  -12.0743   18.9928 C   0  0  0  0  0  0  0  0  0  0  0  0
  -19.8460  -29.5788   17.9001 C   0  0  0  0  0  0  0  0  0  0  0  0
  -28.3951  -11.8043   19.2227 C   0  0  0  0  0  0  0  0  0  0  0  0
  -30.5721  -12.5744   20.2616 C   0  0  0  0  0  0  0  0  0  0  0  0
  -28.4442  -13.4627   21.1291 C   0  0  0  0  0  0  0  0  0  0  0  0
  -20.1024  -28.2211   18.5654 C   0  0  1  0  0  0  0  0  0  0  0  0
  -18.7303  -28.3384   22.1061 C   0  0  1  0  0  0  0  0  0  0  0  0
  -27.6943  -13.0188   19.8625 C   0  0  2  0  0  0  0  0  0  0  0  0
  -18.0142  -32.0264   28.8803 C   0  0  0  0  0  0  0  0  0  0  0  0
  -21.2635  -32.0718   23.1087 C   0  0  0  0  0  0  0  0  0  0  0  0
  -21.0317  -32.9364   25.4469 C   0  0  0  0  0  0  0  0  0  0  0  0
  -19.1920  -33.2906   23.7999 C   0  0  0  0  0  0  0  0  0  0  0  0
  -16.8605  -28.4887   28.0867 C   0  0  0  0  0  0  0  0  0  0  0  0
  -25.1981  -21.4378   24.0175 C   0  0  0  0  0  0  0  0  0  0  0  0
  -23.0928  -22.8799   24.3298 C   0  0  0  0  0  0  0  0  0  1  0  0
  -26.6953  -21.3278   24.2890 C   0  0  0  0  0  0  0  0  0  0  0  0
  -19.5870  -30.9764   24.7382 C   0  0  1  0  0  0  0  0  0  0  0  0
  -17.6253  -30.8640   27.9800 C   0  0  2  0  0  0  0  0  0  0  0  0
  -20.2717  -32.2909   24.2685 C   0  0  0  0  0  0  0  0  0  0  0  0
  -25.8508  -11.4911   20.4530 N   0  0  0  0  0  0  0  0  0  0  0  0
  -26.2281  -12.7417   20.1371 N   0  0  0  0  0  0  0  0  0  0  0  0
  -19.2697  -28.9847   23.3042 N   0  0  0  0  0  0  0  0  0  0  0  0
  -29.8555  -13.7284   20.8091 N   0  0  0  0  0  0  0  0  0  0  0  0
  -25.4021  -14.9365   19.8038 N   0  0  0  0  0  0  0  0  0  0  0  0
  -21.6954  -12.5749   20.8429 N   0  0  0  0  0  0  0  0  0  0  0  0
  -28.7026  -20.0682   23.9236 N   0  0  0  0  0  0  0  0  0  0  0  0
  -29.7451  -15.9858   21.4830 N   0  0  0  0  0  0  0  0  0  0  0  0
  -19.3101  -28.0906   19.7694 N   0  0  0  0  0  0  0  0  0  0  0  0
  -18.6223  -31.1578   25.8176 N   0  0  0  0  0  0  0  0  0  0  0  0
  -17.2837  -29.6966   28.8409 N   0  3  0  0  0  0  0  0  0  0  0  0
  -22.4810  -14.6538   20.2774 O   0  0  0  0  0  0  0  0  0  0  0  0
  -20.7538  -29.1851   21.2323 O   0  0  0  0  0  0  0  0  0  0  0  0
  -25.1864  -23.4461   25.3645 O   0  0  0  0  0  0  0  0  0  0  0  0
  -17.9189  -30.8687   23.0553 O   0  0  0  0  0  0  0  0  0  0  0  0
  -26.6961  -19.3087   22.9693 O   0  0  0  0  0  0  0  0  0  0  0  0
  -19.6522  -29.7254   27.3225 O   0  0  0  0  0  0  0  0  0  0  0  0
  -31.7282  -15.0787   20.6918 O   0  0  0  0  0  0  0  0  0  0  0  0
  -21.4776   -7.1317   22.0088 O   0  0  0  0  0  0  0  0  0  0  0  0
  -22.6055  -24.0658   24.9564 O   0  0  0  0  0  0  0  0  0  1  0  0
  -23.4270   -3.8241   25.9666 F   0  0  0  0  0  0  0  0  0  0  0  0
  -33.1901  -18.3621   23.8396 F   0  0  0  0  0  0  0  0  0  0  0  0
  -20.0386   -6.6949   24.3285 F   0  0  0  0  0  0  0  0  0  0  0  0
  1  2  1  0  0  0  0
  1  5  2  0  0  0  0
  2  6  2  0  0  0  0
  3  8  2  0  0  0  0
  3 18  1  0  0  0  0
  4  9  1  0  0  0  0
  4 18  2  0  0  0  0
  5 20  1  0  0  0  0
  6 22  1  0  0  0  0
  7 10  2  0  0  0  0
  7 21  1  0  0  0  0
  8 26  1  0  0  0  0
  9 26  2  0  0  0  0
 10 27  1  0  0  0  0
 11 12  2  0  0  0  0
 11 28  1  0  0  0  0
 12 29  1  0  0  0  0
 13 23  1  0  0  0  0
 13 27  2  0  0  0  0
 14 24  2  0  0  0  0
 14 25  1  0  0  0  0
 15 24  1  0  0  0  0
 15 30  2  0  0  0  0
 16 25  2  0  0  0  0
 16 30  1  0  0  0  0
 17 29  2  0  0  0  0
 17 31  1  0  0  0  0
 18 32  1  0  0  0  0
 19 32  1  0  0  0  0
 19 33  2  0  0  0  0
 19 34  1  0  0  0  0
 20 22  2  0  0  0  0
 20 41  1  0  0  0  0
 21 23  2  0  0  0  0
 21 42  1  0  0  0  0
 22 50  1  0  0  0  0
 23 43  1  0  0  0  0
 24 70  1  0  0  0  0
 25 71  1  0  0  0  0
 26 82  1  0  0  0  0
 27 83  1  0  0  0  0
 28 31  2  0  0  0  0
 28 82  1  0  0  0  0
 29 84  1  0  0  0  0
 30 85  1  0  0  0  0
 31 86  1  0  0  0  0
 32 64  2  0  0  0  0
 33 65  1  0  0  0  0
 33 68  1  0  0  0  0
 34 69  1  0  0  0  0
 34 75  2  0  0  0  0
 35 51  1  0  0  0  0
 35 72  1  0  0  0  0
 35 76  2  0  0  0  0
 36 58  1  0  0  0  0
 36 59  1  0  0  0  0
 36 77  2  0  0  0  0
 37 61  1  0  0  0  0
 37 66  1  0  0  0  0
 37 78  2  0  0  0  0
 38 60  1  0  0  0  0
 38 70  1  0  0  0  0
 38 79  2  0  0  0  0
 39 62  1  0  0  0  0
 39 73  1  0  0  0  0
 39 80  2  0  0  0  0
 40 67  1  0  0  0  0
 40 71  1  0  0  0  0
 40 81  2  0  0  0  0
 41 44  1  0  0  0  0
 42 51  1  0  0  0  0
 43 66  1  0  0  0  0
 44 46  1  0  0  0  0
 45 47  1  0  0  0  0
 45 48  1  0  0  0  0
 46 50  1  0  0  0  0
 47 52  1  0  0  0  0
 48 67  1  0  0  0  0
 49 52  1  0  0  0  0
 49 67  1  0  0  0  0
 50 72  1  0  0  0  0
 51 66  1  0  0  0  0
 52 65  1  0  0  0  0
 53 62  1  0  0  0  0
 54 63  1  0  0  0  0
 55 63  1  0  0  0  0
 56 63  1  0  0  0  0
 57 74  1  0  0  0  0
 58 60  1  0  0  0  0
 59 83  1  0  0  0  0
 61 63  1  0  0  0  0
 61 73  1  0  0  0  0
 62 74  1  0  0  0  0
 64 65  1  0  0  0  0
M  CHG  1  74   1
M  ISO  4  40 100  59 101  71 100  83 101
M  END
> <Batch ID>
0169

> <Smiles>
CNC(C)C(=O)NC(C(=O)N1Cc2cc([101O:1][101CH2:1]C(=O)CCC(=O)Nc3cc(F)cc([100NH:0][100C:0](=O)N4CCCC(n5nc(-c6ccc(Oc7ccc(F)cc7F)cc6)c(C(N)=O)c5N)C4)c3)ccc2CC1C(=O)NC1CCCc2ccccc21)C(C)(C)C

> <Shape>
0.233

> <Color>
0.171

> <Negative vol penalty>
0.000

$$$$

  -OEChem-04052304173D

 86 94  0     1  0  0  0  0  0999 V2000
  -29.4482  -23.3868   17.5964 C   0  0  0  0  0  0  0  0  0  0  0  0
  -28.1368  -23.8022   17.8043 C   0  0  0  0  0  0  0  0  0  0  0  0
  -26.4105  -15.2260   19.7544 C   0  0  0  0  0  0  0  0  0  0  0  0
  -27.7949  -14.7095   21.6658 C   0  0  0  0  0  0  0  0  0  0  0  0
  -30.3979  -23.5500   18.6040 C   0  0  0  0  0  0  0  0  0  0  0  0
  -27.7742  -24.3801   19.0204 C   0  0  0  0  0  0  0  0  0  0  0  0
  -24.9051  -28.5110   18.4296 C   0  0  0  0  0  0  0  0  0  0  0  0
  -26.0165  -13.8901   19.6787 C   0  0  0  0  0  0  0  0  0  0  0  0
  -27.4009  -13.3736   21.5902 C   0  0  0  0  0  0  0  0  0  0  0  0
  -23.5579  -28.3130   18.1302 C   0  0  0  0  0  0  0  0  0  0  0  0
  -24.3660  -10.6860   19.2043 C   0  0  0  0  0  0  0  0  0  0  0  0
  -23.0109  -10.4196   19.0087 C   0  0  0  0  0  0  0  0  0  0  0  0
  -22.9929  -28.7030   20.4427 C   0  0  0  0  0  0  0  0  0  0  0  0
  -23.9439  -24.2396   23.5473 C   0  0  0  0  0  0  0  0  0  0  0  0
  -22.1804  -24.9829   22.0726 C   0  0  0  0  0  0  0  0  0  0  0  0
  -22.4871  -11.5729   21.0661 C   0  0  0  0  0  0  0  0  0  0  0  0
  -27.2997  -15.6357   20.7479 C   0  0  0  0  0  0  0  0  0  0  0  0
  -28.3743  -17.7623   19.8366 C   0  0  0  0  0  0  0  0  0  0  0  0
  -30.0490  -24.1389   19.8296 C   0  0  0  0  0  0  0  0  0  0  0  0
  -25.3081  -28.7962   19.7421 C   0  0  0  0  0  0  0  0  0  0  0  0
  -28.7198  -24.5501   20.0459 C   0  0  0  0  0  0  0  0  0  0  0  0
  -24.3456  -28.9067   20.7557 C   0  0  0  0  0  0  0  0  0  0  0  0
  -23.7358  -22.9240   23.1330 C   0  0  0  0  0  0  0  0  0  0  0  0
  -21.9723  -23.6674   21.6583 C   0  0  0  0  0  0  0  0  0  0  0  0
  -26.5117  -12.9639   20.5966 C   0  0  0  0  0  0  0  0  0  0  0  0
  -22.6019  -28.4062   19.1373 C   0  0  0  0  0  0  0  0  0  0  0  0
  -24.7817  -11.3959   20.3309 C   0  0  0  0  0  0  0  0  0  0  0  0
  -22.0714  -10.8631   19.9395 C   0  0  0  0  0  0  0  0  0  0  0  0
  -23.1661  -25.2691   23.0171 C   0  0  0  0  0  0  0  0  0  0  0  0
  -23.8423  -11.8393   21.2617 C   0  0  0  0  0  0  0  0  0  0  0  0
  -22.7500  -22.6379   22.1886 C   0  0  0  0  0  0  0  0  0  0  0  0
  -27.7075  -17.0155   20.8262 C   0  0  0  0  0  0  0  0  0  0  0  0
  -28.5318  -19.0076   20.3941 C   0  0  0  0  0  0  0  0  0  0  0  0
  -28.8122  -17.3658   18.5302 C   0  0  0  0  0  0  0  0  0  0  0  0
  -27.1659  -27.3553   21.8813 C   0  0  0  0  0  0  0  0  0  0  0  0
  -20.8905  -25.0978   19.0102 C   0  0  0  0  0  0  0  0  0  0  0  0
  -26.6446  -30.0669   23.5836 C   0  0  0  0  0  0  0  0  0  0  0  0
  -24.6526  -32.7718   24.1857 C   0  0  0  0  0  0  0  0  0  0  0  0
  -25.5452  -21.9957   24.6198 C   0  0  0  0  0  0  0  0  0  0  0  0
  -31.0992  -24.2512   20.9062 C   0  0  0  0  0  0  0  0  0  0  0  0
  -26.7625  -29.0334   20.0436 C   0  0  0  0  0  0  0  0  0  0  0  0
  -24.7242  -29.2307   22.1770 C   0  0  0  0  0  0  0  0  0  0  0  0
  -30.7207  -25.2143   22.0283 C   0  0  0  0  0  0  0  0  0  0  0  0
  -29.0105  -21.1783   24.6359 C   0  0  0  0  0  0  0  0  0  0  0  0
  -29.2871  -24.9642   22.4856 C   0  0  0  0  0  0  0  0  0  0  0  0
  -29.1314  -20.0903   23.5664 C   0  0  0  0  0  0  0  0  0  0  0  0
  -27.7043  -21.0609   25.4193 C   0  0  0  0  0  0  0  0  0  0  0  0
  -26.6098  -19.9250   23.5270 C   0  0  0  0  0  0  0  0  0  0  0  0
  -28.2936  -25.2038   21.3424 C   0  0  1  0  0  0  0  0  0  0  0  0
  -27.1124  -28.8107   21.5117 C   0  0  1  0  0  0  0  0  0  0  0  0
  -27.8798  -20.0415   22.6683 C   0  0  2  0  0  0  0  0  0  0  0  0
  -23.9344  -34.9577   25.1873 C   0  0  0  0  0  0  0  0  0  0  0  0
  -20.2625  -28.1324   16.7025 C   0  0  0  0  0  0  0  0  0  0  0  0
  -25.7261  -28.2932   25.8902 C   0  0  0  0  0  0  0  0  0  0  0  0
  -24.6841  -30.3144   26.9377 C   0  0  0  0  0  0  0  0  0  0  0  0
  -27.1500  -30.2337   26.5694 C   0  0  0  0  0  0  0  0  0  0  0  0
  -26.0221  -34.3238   22.0703 C   0  0  0  0  0  0  0  0  0  0  0  0
  -20.1025  -26.1819   18.2848 C   0  0  0  0  0  0  0  0  0  0  0  0
  -20.1439  -24.3850   20.1196 C   0  0  0  0  0  0  0  0  0  0  0  0
  -25.6091  -30.5179   24.5852 C   0  0  1  0  0  0  0  0  0  0  0  0
  -24.9762  -34.2472   24.3372 C   0  0  2  0  0  0  0  0  0  0  0  0
  -20.9814  -27.3243   17.7737 C   0  0  2  0  0  0  0  0  0  1  0  0
  -25.7851  -29.8318   25.9693 C   0  0  0  0  0  0  0  0  0  0  0  0
  -27.4585  -17.7269   21.9289 N   0  0  0  0  0  0  0  0  0  0  0  0
  -27.9718  -18.9338   21.6355 N   0  0  0  0  0  0  0  0  0  0  0  0
  -26.1595  -29.4478   22.4229 N   0  0  0  0  0  0  0  0  0  0  0  0
  -26.5621  -21.0246   24.5034 N   0  0  0  0  0  0  0  0  0  0  0  0
  -29.0933  -20.1477   19.9386 N   0  0  0  0  0  0  0  0  0  0  0  0
  -30.1013  -16.8338   18.3905 N   0  0  0  0  0  0  0  0  0  0  0  0
  -24.5269  -21.8804   23.6741 N   0  0  0  0  0  0  0  0  0  0  0  0
  -20.9911  -23.3857   20.7185 N   0  0  0  0  0  0  0  0  0  0  0  0
  -28.0791  -26.6218   21.1481 N   0  0  0  0  0  0  0  0  0  0  0  0
  -25.6876  -31.9741   24.6259 N   0  0  0  0  0  0  0  0  0  0  0  0
  -25.0226  -34.9071   23.0018 N   0  3  0  0  0  0  0  0  0  0  0  0
  -28.0880  -17.4951   17.5141 O   0  0  0  0  0  0  0  0  0  0  0  0
  -26.4340  -26.9296   22.7672 O   0  0  0  0  0  0  0  0  0  0  0  0
  -22.0528  -24.8231   18.7152 O   0  0  0  0  0  0  0  0  0  0  0  0
  -27.8394  -30.2632   23.8190 O   0  0  0  0  0  0  0  0  0  0  0  0
  -23.5868  -32.3673   23.7264 O   0  0  0  0  0  0  0  0  0  0  0  0
  -25.5892  -22.8820   25.4769 O   0  0  0  0  0  0  0  0  0  0  0  0
  -26.1273  -11.6602   20.5233 O   0  0  0  0  0  0  0  0  0  0  0  0
  -21.2863  -28.2128   18.8480 O   0  0  0  0  0  0  0  0  0  1  0  0
  -20.7700  -10.6085   19.7507 F   0  0  0  0  0  0  0  0  0  0  0  0
  -23.3669  -26.5325   23.4140 F   0  0  0  0  0  0  0  0  0  0  0  0
  -24.2355  -12.5227   22.3453 F   0  0  0  0  0  0  0  0  0  0  0  0
  -22.5488  -21.3724   21.7901 F   0  0  0  0  0  0  0  0  0  0  0  0
  1  2  1  0  0  0  0
  1  5  2  0  0  0  0
  2  6  2  0  0  0  0
  3  8  2  0  0  0  0
  3 17  1  0  0  0  0
  4  9  1  0  0  0  0
  4 17  2  0  0  0  0
  5 19  1  0  0  0  0
  6 21  1  0  0  0  0
  7 10  2  0  0  0  0
  7 20  1  0  0  0  0
  8 25  1  0  0  0  0
  9 25  2  0  0  0  0
 10 26  1  0  0  0  0
 11 12  2  0  0  0  0
 11 27  1  0  0  0  0
 12 28  1  0  0  0  0
 13 22  1  0  0  0  0
 13 26  2  0  0  0  0
 14 23  2  0  0  0  0
 14 29  1  0  0  0  0
 15 24  1  0  0  0  0
 15 29  2  0  0  0  0
 16 28  2  0  0  0  0
 16 30  1  0  0  0  0
 17 32  1  0  0  0  0
 18 32  1  0  0  0  0
 18 33  2  0  0  0  0
 18 34  1  0  0  0  0
 19 21  2  0  0  0  0
 19 40  1  0  0  0  0
 20 22  2  0  0  0  0
 20 41  1  0  0  0  0
 21 49  1  0  0  0  0
 22 42  1  0  0  0  0
 23 31  1  0  0  0  0
 23 70  1  0  0  0  0
 24 31  2  0  0  0  0
 24 71  1  0  0  0  0
 25 81  1  0  0  0  0
 26 82  1  0  0  0  0
 27 30  2  0  0  0  0
 27 81  1  0  0  0  0
 28 83  1  0  0  0  0
 29 84  1  0  0  0  0
 30 85  1  0  0  0  0
 31 86  1  0  0  0  0
 32 64  2  0  0  0  0
 33 65  1  0  0  0  0
 33 68  1  0  0  0  0
 34 69  1  0  0  0  0
 34 75  2  0  0  0  0
 35 50  1  0  0  0  0
 35 72  1  0  0  0  0
 35 76  2  0  0  0  0
 36 58  1  0  0  0  0
 36 59  1  0  0  0  0
 36 77  2  0  0  0  0
 37 60  1  0  0  0  0
 37 66  1  0  0  0  0
 37 78  2  0  0  0  0
 38 61  1  0  0  0  0
 38 73  1  0  0  0  0
 38 79  2  0  0  0  0
 39 67  1  0  0  0  0
 39 70  1  0  0  0  0
 39 80  2  0  0  0  0
 40 43  1  0  0  0  0
 41 50  1  0  0  0  0
 42 66  1  0  0  0  0
 43 45  1  0  0  0  0
 44 46  1  0  0  0  0
 44 47  1  0  0  0  0
 45 49  1  0  0  0  0
 46 51  1  0  0  0  0
 47 67  1  0  0  0  0
 48 51  1  0  0  0  0
 48 67  1  0  0  0  0
 49 72  1  0  0  0  0
 50 66  1  0  0  0  0
 51 65  1  0  0  0  0
 52 61  1  0  0  0  0
 53 62  1  0  0  0  0
 54 63  1  0  0  0  0
 55 63  1  0  0  0  0
 56 63  1  0  0  0  0
 57 74  1  0  0  0  0
 58 62  1  0  0  0  0
 59 71  1  0  0  0  0
 60 63  1  0  0  0  0
 60 73  1  0  0  0  0
 61 74  1  0  0  0  0
 62 82  1  0  0  0  0
 64 65  1  0  0  0  0
M  CHG  1  74   1
M  ISO  4  39 100  62 101  70 100  82 101
M  END
> <Batch ID>
0169

> <Smiles>
CNC(C)C(=O)NC(C(=O)N1Cc2cc([101O:1][101CH:1](C)CC(=O)CNc3cc(F)cc([100NH:0][100C:0](=O)N4CCCC(n5nc(-c6ccc(Oc7ccc(F)cc7F)cc6)c(C(N)=O)c5N)C4)c3F)ccc2CC1C(=O)NC1CCCc2ccccc21)C(C)(C)C

> <Shape>
0.232

> <Color>
0.060

> <Negative vol penalty>
0.000

$$$$

  -OEChem-04052304173D

 87 96  0     1  0  0  0  0  0999 V2000
  -28.1144  -37.5664   26.1611 C   0  0  0  0  0  0  0  0  0  0  0  0
  -28.5923  -36.2717   26.3366 C   0  0  0  0  0  0  0  0  0  0  0  0
  -22.8068  -10.8980   20.8964 C   0  0  0  0  0  0  0  0  0  0  0  0
  -24.5550   -9.3707   21.5656 C   0  0  0  0  0  0  0  0  0  0  0  0
  -26.7534  -37.7832   25.9502 C   0  0  0  0  0  0  0  0  0  0  0  0
  -27.7092  -35.1931   26.3023 C   0  0  0  0  0  0  0  0  0  0  0  0
  -28.5410  -29.8697   21.5209 C   0  0  0  0  0  0  0  0  0  0  0  0
  -21.9681  -10.3675   21.8765 C   0  0  0  0  0  0  0  0  0  0  0  0
  -23.7163   -8.8402   22.5459 C   0  0  0  0  0  0  0  0  0  0  0  0
  -28.7552  -28.7093   20.7768 C   0  0  0  0  0  0  0  0  0  0  0  0
  -21.1351   -6.6623   22.7038 C   0  0  0  0  0  0  0  0  0  0  0  0
  -21.0802   -5.2740   22.8277 C   0  0  0  0  0  0  0  0  0  0  0  0
  -26.7182  -27.7528   21.6620 C   0  0  0  0  0  0  0  0  0  0  0  0
  -21.8577   -5.4468   25.1087 C   0  0  0  0  0  0  0  0  0  0  0  0
  -27.2669  -19.7290   20.3255 C   0  0  0  0  0  0  0  0  0  0  0  0
  -29.6826  -18.4684   20.1812 C   0  0  0  0  0  0  0  0  0  0  0  0
  -24.1003  -10.3995   20.7409 C   0  0  0  0  0  0  0  0  0  0  0  0
  -24.7430  -10.9679   18.3385 C   0  0  0  0  0  0  0  0  0  0  0  0
  -25.8545  -36.7059   25.9037 C   0  0  0  0  0  0  0  0  0  0  0  0
  -27.4052  -29.9823   22.3276 C   0  0  0  0  0  0  0  0  0  0  0  0
  -26.3346  -35.3958   26.0919 C   0  0  0  0  0  0  0  0  0  0  0  0
  -26.4919  -28.9176   22.4000 C   0  0  0  0  0  0  0  0  0  0  0  0
  -28.5368  -17.6898   20.2081 C   0  0  0  0  0  0  0  0  0  0  0  0
  -22.4228   -9.3387   22.7013 C   0  0  0  0  0  0  0  0  0  0  0  0
  -27.8462  -27.6534   20.8473 C   0  0  0  0  0  0  0  0  0  0  0  0
  -21.5515   -7.4428   23.7824 C   0  0  0  0  0  0  0  0  0  0  0  0
  -21.4414   -4.6663   24.0301 C   0  0  0  0  0  0  0  0  0  0  0  0
  -21.9127   -6.8351   24.9848 C   0  0  0  0  0  0  0  0  0  0  0  0
  -27.3099  -18.3399   20.2817 C   0  0  0  0  0  0  0  0  0  0  0  0
  -24.9670  -10.9467   19.7281 C   0  0  0  0  0  0  0  0  0  0  0  0
  -28.4696  -20.4162   20.2935 C   0  0  0  0  0  0  0  0  0  0  0  0
  -25.8521  -11.5916   17.8214 C   0  0  0  0  0  0  0  0  0  0  0  0
  -23.6317  -10.4686   17.5826 C   0  0  0  0  0  0  0  0  0  0  0  0
  -25.4142  -32.0988   24.7008 C   0  0  0  0  0  0  0  0  0  0  0  0
  -23.4040  -30.6980   22.8549 C   0  0  0  0  0  0  0  0  0  0  0  0
  -20.7118  -29.8332   20.9466 C   0  0  0  0  0  0  0  0  0  0  0  0
  -29.7680  -15.4954   20.0866 C   0  0  0  0  0  0  0  0  0  0  0  0
  -24.3854  -36.9937   25.7202 C   0  0  0  0  0  0  0  0  0  0  0  0
  -27.1657  -31.1889   23.1938 C   0  0  0  0  0  0  0  0  0  0  0  0
  -25.3020  -29.0693   23.3078 C   0  0  0  0  0  0  0  0  0  0  0  0
  -23.5691  -35.7661   25.3241 C   0  0  0  0  0  0  0  0  0  0  0  0
  -30.5054  -12.2971   18.7067 C   0  0  0  0  0  0  0  0  0  0  0  0
  -23.9347  -34.5752   26.2044 C   0  0  0  0  0  0  0  0  0  0  0  0
  -28.3295  -22.5485   18.9382 C   0  0  0  0  0  0  0  0  0  0  0  0
  -29.6927  -22.4897   21.0739 C   0  0  0  0  0  0  0  0  0  0  0  0
  -29.1474  -11.5920   18.6799 C   0  0  0  0  0  0  0  0  0  0  0  0
  -28.3074  -24.0785   18.9968 C   0  0  0  0  0  0  0  0  0  0  0  0
  -29.6659  -24.0192   21.1312 C   0  0  0  0  0  0  0  0  0  0  0  0
  -30.6612  -13.1810   19.9429 C   0  0  0  0  0  0  0  0  0  0  0  0
  -28.2186  -13.4428   20.1286 C   0  0  0  0  0  0  0  0  0  0  0  0
  -25.4116  -34.1979   26.0366 C   0  0  1  0  0  0  0  0  0  0  0  0
  -28.4606  -21.9334   20.3413 C   0  0  0  0  0  0  0  0  0  0  0  0
  -25.6752  -31.5481   23.3296 C   0  0  1  0  0  0  0  0  0  0  0  0
  -27.9895  -12.5916   18.8691 C   0  0  2  0  0  0  0  0  0  0  0  0
  -29.5244  -24.6520   19.7378 C   0  0  0  0  0  0  0  0  0  0  0  0
  -18.2224  -29.5415   21.0696 C   0  0  0  0  0  0  0  0  0  0  0  0
  -23.7899  -28.0605   24.3375 C   0  0  0  0  0  0  0  0  0  0  0  0
  -21.4926  -27.3917   23.6005 C   0  0  0  0  0  0  0  0  0  0  0  0
  -21.7988  -29.3861   25.0672 C   0  0  0  0  0  0  0  0  0  0  0  0
  -20.2497  -31.9186   18.8981 C   0  0  0  0  0  0  0  0  0  0  0  0
  -31.8616  -24.8521   19.5933 C   0  0  0  0  0  0  0  0  0  0  0  0
  -29.4154  -26.1742   19.8439 C   0  0  0  0  0  0  0  0  0  1  0  0
  -22.4960  -29.5135   22.6403 C   0  0  1  0  0  0  0  0  0  0  0  0
  -19.3610  -30.4975   20.7500 C   0  0  2  0  0  0  0  0  0  0  0  0
  -22.4141  -28.5952   23.8923 C   0  0  0  0  0  0  0  0  0  0  0  0
  -29.6807  -19.8196   20.2222 N   0  0  0  0  0  0  0  0  0  0  0  0
  -26.1273  -11.5118   20.0721 N   0  0  0  0  0  0  0  0  0  0  0  0
  -26.6424  -11.8939   18.8911 N   0  0  0  0  0  0  0  0  0  0  0  0
  -24.7386  -30.4220   23.1758 N   0  0  0  0  0  0  0  0  0  0  0  0
  -29.5305  -14.1050   20.0546 N   0  0  0  0  0  0  0  0  0  0  0  0
  -26.2188  -11.9053   16.5607 N   0  0  0  0  0  0  0  0  0  0  0  0
  -22.5762   -9.8559   18.2717 N   0  0  0  0  0  0  0  0  0  0  0  0
  -28.6148  -16.2758   20.1615 N   0  0  0  0  0  0  0  0  0  0  0  0
  -25.6087  -33.4628   24.8057 N   0  0  0  0  0  0  0  0  0  0  0  0
  -21.2112  -30.0563   22.2123 N   0  0  0  0  0  0  0  0  0  0  0  0
  -19.2091  -30.9547   19.3398 N   0  3  0  0  0  0  0  0  0  0  0  0
  -23.5838  -10.5484   16.3316 O   0  0  0  0  0  0  0  0  0  0  0  0
  -25.0606  -31.3429   25.5982 O   0  0  0  0  0  0  0  0  0  0  0  0
  -22.9437  -31.8381   22.7471 O   0  0  0  0  0  0  0  0  0  0  0  0
  -21.2664  -29.1785   20.0667 O   0  0  0  0  0  0  0  0  0  0  0  0
  -30.9089  -15.9605   20.0228 O   0  0  0  0  0  0  0  0  0  0  0  0
  -21.6048   -8.8210   23.6580 O   0  0  0  0  0  0  0  0  0  0  0  0
  -28.0591  -26.5253   20.1147 O   0  0  0  0  0  0  0  0  0  1  0  0
  -30.6921  -24.3508   18.9679 O   0  0  0  0  0  0  0  0  0  0  0  0
  -21.3871   -3.3333   24.1495 F   0  0  0  0  0  0  0  0  0  0  0  0
  -22.3123   -7.5798   26.0248 F   0  0  0  0  0  0  0  0  0  0  0  0
  -26.1672  -17.6399   20.3099 F   0  0  0  0  0  0  0  0  0  0  0  0
  1  2  1  0  0  0  0
  1  5  2  0  0  0  0
  2  6  2  0  0  0  0
  3  8  2  0  0  0  0
  3 17  1  0  0  0  0
  4  9  1  0  0  0  0
  4 17  2  0  0  0  0
  5 19  1  0  0  0  0
  6 21  1  0  0  0  0
  7 10  2  0  0  0  0
  7 20  1  0  0  0  0
  8 24  1  0  0  0  0
  9 24  2  0  0  0  0
 10 25  1  0  0  0  0
 11 12  2  0  0  0  0
 11 26  1  0  0  0  0
 12 27  1  0  0  0  0
 13 22  1  0  0  0  0
 13 25  2  0  0  0  0
 14 27  2  0  0  0  0
 14 28  1  0  0  0  0
 15 29  2  0  0  0  0
 15 31  1  0  0  0  0
 16 23  2  0  0  0  0
 16 66  1  0  0  0  0
 17 30  1  0  0  0  0
 18 30  1  0  0  0  0
 18 32  2  0  0  0  0
 18 33  1  0  0  0  0
 19 21  2  0  0  0  0
 19 38  1  0  0  0  0
 20 22  2  0  0  0  0
 20 39  1  0  0  0  0
 21 51  1  0  0  0  0
 22 40  1  0  0  0  0
 23 29  1  0  0  0  0
 23 73  1  0  0  0  0
 24 82  1  0  0  0  0
 25 83  1  0  0  0  0
 26 28  2  0  0  0  0
 26 82  1  0  0  0  0
 27 85  1  0  0  0  0
 28 86  1  0  0  0  0
 29 87  1  0  0  0  0
 30 67  2  0  0  0  0
 31 52  1  0  0  0  0
 31 66  2  0  0  0  0
 32 68  1  0  0  0  0
 32 71  1  0  0  0  0
 33 72  1  0  0  0  0
 33 77  2  0  0  0  0
 34 53  1  0  0  0  0
 34 74  1  0  0  0  0
 34 78  2  0  0  0  0
 35 63  1  0  0  0  0
 35 69  1  0  0  0  0
 35 79  2  0  0  0  0
 36 64  1  0  0  0  0
 36 75  1  0  0  0  0
 36 80  2  0  0  0  0
 37 70  1  0  0  0  0
 37 73  1  0  0  0  0
 37 81  2  0  0  0  0
 38 41  1  0  0  0  0
 39 53  1  0  0  0  0
 40 69  1  0  0  0  0
 41 43  1  0  0  0  0
 42 46  1  0  0  0  0
 42 49  1  0  0  0  0
 43 51  1  0  0  0  0
 44 47  1  0  0  0  0
 44 52  1  0  0  0  0
 45 48  1  0  0  0  0
 45 52  1  0  0  0  0
 46 54  1  0  0  0  0
 47 55  1  0  0  0  0
 48 55  1  0  0  0  0
 49 70  1  0  0  0  0
 50 54  1  0  0  0  0
 50 70  1  0  0  0  0
 51 74  1  0  0  0  0
 53 69  1  0  0  0  0
 54 68  1  0  0  0  0
 55 62  1  0  0  0  0
 55 84  1  0  0  0  0
 56 64  1  0  0  0  0
 57 65  1  0  0  0  0
 58 65  1  0  0  0  0
 59 65  1  0  0  0  0
 60 76  1  0  0  0  0
 61 84  1  0  0  0  0
 62 83  1  0  0  0  0
 63 65  1  0  0  0  0
 63 75  1  0  0  0  0
 64 76  1  0  0  0  0
 67 68  1  0  0  0  0
M  CHG  1  76   1
M  ISO  4  37 100  62 101  73 100  83 101
M  END
> <Batch ID>
0169

> <Smiles>
CNC(C)C(=O)NC(C(=O)N1Cc2cc([101O:1][101CH2:1]C3(OC)CCC(c4cc(F)c([100NH:0][100C:0](=O)N5CCCC(n6nc(-c7ccc(Oc8ccc(F)cc8F)cc7)c(C(N)=O)c6N)C5)cn4)CC3)ccc2CC1C(=O)NC1CCCc2ccccc21)C(C)(C)C

> <Shape>
0.349

> <Color>
0.113

> <Negative vol penalty>
0.000

$$$$

  -OEChem-04052304173D

 89 97  0     1  0  0  0  0  0999 V2000
  -34.9255  -33.8749   23.9388 C   0  0  0  0  0  0  0  0  0  0  0  0
  -34.3385  -32.6751   23.5499 C   0  0  0  0  0  0  0  0  0  0  0  0
  -23.0439   -9.9725   21.5024 C   0  0  0  0  0  0  0  0  0  0  0  0
  -23.8519  -10.8394   23.6077 C   0  0  0  0  0  0  0  0  0  0  0  0
  -32.7483  -18.2158   21.6916 C   0  0  0  0  0  0  0  0  0  0  0  0
  -34.1779  -34.8204   24.6395 C   0  0  0  0  0  0  0  0  0  0  0  0
  -33.0038  -32.4196   23.8624 C   0  0  0  0  0  0  0  0  0  0  0  0
  -28.9577  -29.3154   20.4714 C   0  0  0  0  0  0  0  0  0  0  0  0
  -32.1346  -17.0634   21.2009 C   0  0  0  0  0  0  0  0  0  0  0  0
  -22.2968   -9.0122   22.1845 C   0  0  0  0  0  0  0  0  0  0  0  0
  -23.1048   -9.8791   24.2899 C   0  0  0  0  0  0  0  0  0  0  0  0
  -28.5045  -27.9980   20.5242 C   0  0  0  0  0  0  0  0  0  0  0  0
  -22.8501   -6.0453   23.7063 C   0  0  0  0  0  0  0  0  0  0  0  0
  -22.8894   -4.7353   23.2289 C   0  0  0  0  0  0  0  0  0  0  0  0
  -26.5979  -28.7122   21.8181 C   0  0  0  0  0  0  0  0  0  0  0  0
  -29.9704  -18.1055   21.4598 C   0  0  0  0  0  0  0  0  0  0  0  0
  -20.4993   -4.7907   22.8801 C   0  0  0  0  0  0  0  0  0  0  0  0
  -23.8216  -10.8860   22.2140 C   0  0  0  0  0  0  0  0  0  0  0  0
  -31.9730  -19.3131   22.0666 C   0  0  0  0  0  0  0  0  0  0  0  0
  -24.1799  -13.1705   21.1368 C   0  0  0  0  0  0  0  0  0  0  0  0
  -32.8306  -34.5806   24.9524 C   0  0  0  0  0  0  0  0  0  0  0  0
  -28.2390  -30.3412   21.1019 C   0  0  0  0  0  0  0  0  0  0  0  0
  -32.2378  -33.3623   24.5691 C   0  0  0  0  0  0  0  0  0  0  0  0
  -27.0428  -30.0421   21.7696 C   0  0  0  0  0  0  0  0  0  0  0  0
  -30.7457  -17.0082   21.0849 C   0  0  0  0  0  0  0  0  0  0  0  0
  -30.5840  -19.2580   21.9506 C   0  0  0  0  0  0  0  0  0  0  0  0
  -22.3272   -8.9655   23.5782 C   0  0  0  0  0  0  0  0  0  0  0  0
  -27.3259  -27.6958   21.2001 C   0  0  0  0  0  0  0  0  0  0  0  0
  -21.6353   -6.7280   23.7707 C   0  0  0  0  0  0  0  0  0  0  0  0
  -21.7140   -4.1080   22.8158 C   0  0  0  0  0  0  0  0  0  0  0  0
  -20.4600   -6.1007   23.3576 C   0  0  0  0  0  0  0  0  0  0  0  0
  -24.5940  -11.8778   21.5099 C   0  0  0  0  0  0  0  0  0  0  0  0
  -25.2697  -13.7092   20.4977 C   0  0  0  0  0  0  0  0  0  0  0  0
  -32.6457  -20.5017   22.5759 C   0  0  0  0  0  0  0  0  0  0  0  0
  -22.9224  -13.8259   21.3491 C   0  0  0  0  0  0  0  0  0  0  0  0
  -27.8873  -21.7612   22.7506 C   0  0  0  0  0  0  0  0  0  0  0  0
  -28.4027  -20.4341   22.2709 C   0  0  0  0  0  0  0  0  0  0  0  0
  -28.8521  -32.3938   23.4502 C   0  0  0  0  0  0  0  0  0  0  0  0
  -27.3864  -24.1498   21.9655 C   0  0  0  0  0  0  0  0  0  0  0  0
  -25.9661  -33.6143   22.6114 C   0  0  0  0  0  0  0  0  0  0  0  0
  -22.9187  -33.1109   21.1600 C   0  0  0  0  0  0  0  0  0  0  0  0
  -30.7461  -14.6607   20.1709 C   0  0  0  0  0  0  0  0  0  0  0  0
  -32.0763  -35.6127   25.7526 C   0  0  0  0  0  0  0  0  0  0  0  0
  -28.7273  -31.7611   21.0130 C   0  0  0  0  0  0  0  0  0  0  0  0
  -26.2236  -31.1100   22.4457 C   0  0  0  0  0  0  0  0  0  0  0  0
  -30.5620  -35.4233   25.7174 C   0  0  0  0  0  0  0  0  0  0  0  0
  -29.5640  -11.5448   18.9176 C   0  0  0  0  0  0  0  0  0  0  0  0
  -30.2010  -33.9615   25.9612 C   0  0  0  0  0  0  0  0  0  0  0  0
  -28.1315  -11.4600   19.4496 C   0  0  0  0  0  0  0  0  0  0  0  0
  -30.5059  -12.1995   19.9266 C   0  0  0  0  0  0  0  0  0  0  0  0
  -28.6339  -13.4231   20.9599 C   0  0  0  0  0  0  0  0  0  0  0  0
  -30.7856  -33.0591   24.8679 C   0  0  1  0  0  0  0  0  0  0  0  0
  -28.1857  -32.6501   22.1281 C   0  0  1  0  0  0  0  0  0  0  0  0
  -27.6352  -12.8297   19.9528 C   0  0  2  0  0  0  0  0  0  0  0  0
  -33.9422  -20.3029   23.3027 C   0  0  0  0  0  0  0  0  0  0  0  0
  -20.7578  -34.2841   20.6583 C   0  0  0  0  0  0  0  0  0  0  0  0
  -25.1383  -33.3348   25.5348 C   0  0  0  0  0  0  0  0  0  0  0  0
  -22.7558  -33.6017   24.8133 C   0  0  0  0  0  0  0  0  0  0  0  0
  -24.3863  -35.4515   24.4355 C   0  0  0  0  0  0  0  0  0  0  0  0
  -23.2683  -32.7545   18.2429 C   0  0  0  0  0  0  0  0  0  0  0  0
  -28.3478  -22.9782   21.9887 C   0  0  0  0  0  0  0  0  0  0  0  0
  -27.8685  -25.3804   21.2219 C   0  0  0  0  0  0  0  0  0  1  0  0
  -24.5366  -33.3592   23.0242 C   0  0  1  0  0  0  0  0  0  0  0  0
  -22.1418  -33.9243   20.1406 C   0  0  2  0  0  0  0  0  0  0  0  0
  -24.2205  -33.9162   24.4409 C   0  0  0  0  0  0  0  0  0  0  0  0
  -25.8490  -11.6113   21.1386 N   0  0  0  0  0  0  0  0  0  0  0  0
  -26.2328  -12.7439   20.5255 N   0  0  0  0  0  0  0  0  0  0  0  0
  -26.7460  -32.4821   22.3361 N   0  0  0  0  0  0  0  0  0  0  0  0
  -29.9733  -13.4947   20.3550 N   0  0  0  0  0  0  0  0  0  0  0  0
  -25.4886  -14.9096   19.9202 N   0  0  0  0  0  0  0  0  0  0  0  0
  -21.9110  -13.1284   22.0235 N   0  0  0  0  0  0  0  0  0  0  0  0
  -29.7780  -20.3581   22.3252 N   0  0  0  0  0  0  0  0  0  0  0  0
  -30.1231  -15.8370   20.5865 N   0  0  0  0  0  0  0  0  0  0  0  0
  -29.9911  -33.1471   23.6615 N   0  0  0  0  0  0  0  0  0  0  0  0
  -23.7007  -33.9127   21.9643 N   0  0  0  0  0  0  0  0  0  0  0  0
  -21.9844  -33.1540   18.8746 N   0  3  0  0  0  0  0  0  0  0  0  0
  -32.2256  -21.6527   22.4572 O   0  0  0  0  0  0  0  0  0  0  0  0
  -22.6967  -14.9893   20.9379 O   0  0  0  0  0  0  0  0  0  0  0  0
  -27.1542  -21.7542   23.7279 O   0  0  0  0  0  0  0  0  0  0  0  0
  -27.5656  -19.6136   21.9328 O   0  0  0  0  0  0  0  0  0  0  0  0
  -28.3680  -31.5744   24.2221 O   0  0  0  0  0  0  0  0  0  0  0  0
  -26.2744  -24.1067   22.4890 O   0  0  0  0  0  0  0  0  0  0  0  0
  -26.3737  -34.7757   22.5291 O   0  0  0  0  0  0  0  0  0  0  0  0
  -22.8369  -31.8871   21.2377 O   0  0  0  0  0  0  0  0  0  0  0  0
  -31.8664  -14.6220   19.6556 O   0  0  0  0  0  0  0  0  0  0  0  0
  -21.5981   -8.0288   24.2442 O   0  0  0  0  0  0  0  0  0  0  0  0
  -26.8816  -26.4106   21.2537 O   0  0  0  0  0  0  0  0  0  1  0  0
  -21.7522   -2.8505   22.3559 F   0  0  0  0  0  0  0  0  0  0  0  0
  -19.2902   -6.7519   23.4160 F   0  0  0  0  0  0  0  0  0  0  0  0
  1  2  1  0  0  0  0
  1  6  2  0  0  0  0
  2  7  2  0  0  0  0
  3 10  2  0  0  0  0
  3 18  1  0  0  0  0
  4 11  1  0  0  0  0
  4 18  2  0  0  0  0
  5  9  2  0  0  0  0
  5 19  1  0  0  0  0
  6 21  1  0  0  0  0
  7 23  1  0  0  0  0
  8 12  2  0  0  0  0
  8 22  1  0  0  0  0
  9 25  1  0  0  0  0
 10 27  1  0  0  0  0
 11 27  2  0  0  0  0
 12 28  1  0  0  0  0
 13 14  2  0  0  0  0
 13 29  1  0  0  0  0
 14 30  1  0  0  0  0
 15 24  1  0  0  0  0
 15 28  2  0  0  0  0
 16 25  2  0  0  0  0
 16 26  1  0  0  0  0
 17 30  2  0  0  0  0
 17 31  1  0  0  0  0
 18 32  1  0  0  0  0
 19 26  2  0  0  0  0
 19 34  1  0  0  0  0
 20 32  1  0  0  0  0
 20 33  2  0  0  0  0
 20 35  1  0  0  0  0
 21 23  2  0  0  0  0
 21 43  1  0  0  0  0
 22 24  2  0  0  0  0
 22 44  1  0  0  0  0
 23 52  1  0  0  0  0
 24 45  1  0  0  0  0
 25 73  1  0  0  0  0
 26 72  1  0  0  0  0
 27 86  1  0  0  0  0
 28 87  1  0  0  0  0
 29 31  2  0  0  0  0
 29 86  1  0  0  0  0
 30 88  1  0  0  0  0
 31 89  1  0  0  0  0
 32 66  2  0  0  0  0
 33 67  1  0  0  0  0
 33 70  1  0  0  0  0
 34 55  1  0  0  0  0
 34 77  2  0  0  0  0
 35 71  1  0  0  0  0
 35 78  2  0  0  0  0
 36 37  1  0  0  0  0
 36 61  1  0  0  0  0
 36 79  2  0  0  0  0
 37 72  1  0  0  0  0
 37 80  2  0  0  0  0
 38 53  1  0  0  0  0
 38 74  1  0  0  0  0
 38 81  2  0  0  0  0
 39 61  1  0  0  0  0
 39 62  1  0  0  0  0
 39 82  2  0  0  0  0
 40 63  1  0  0  0  0
 40 68  1  0  0  0  0
 40 83  2  0  0  0  0
 41 64  1  0  0  0  0
 41 75  1  0  0  0  0
 41 84  2  0  0  0  0
 42 69  1  0  0  0  0
 42 73  1  0  0  0  0
 42 85  2  0  0  0  0
 43 46  1  0  0  0  0
 44 53  1  0  0  0  0
 45 68  1  0  0  0  0
 46 48  1  0  0  0  0
 47 49  1  0  0  0  0
 47 50  1  0  0  0  0
 48 52  1  0  0  0  0
 49 54  1  0  0  0  0
 50 69  1  0  0  0  0
 51 54  1  0  0  0  0
 51 69  1  0  0  0  0
 52 74  1  0  0  0  0
 53 68  1  0  0  0  0
 54 67  1  0  0  0  0
 56 64  1  0  0  0  0
 57 65  1  0  0  0  0
 58 65  1  0  0  0  0
 59 65  1  0  0  0  0
 60 76  1  0  0  0  0
 62 87  1  0  0  0  0
 63 65  1  0  0  0  0
 63 75  1  0  0  0  0
 64 76  1  0  0  0  0
 66 67  1  0  0  0  0
M  CHG  1  76   1
M  ISO  4  42 100  62 101  73 100  87 101
M  END
> <Batch ID>
0169

> <Smiles>
CNC(C)C(=O)NC(C(=O)N1Cc2cc([101O:1][101CH2:1]C(=O)CC(=O)C(=O)Nc3cc([100NH:0][100C:0](=O)N4CCCC(n5nc(-c6ccc(Oc7ccc(F)cc7F)cc6)c(C(N)=O)c5N)C4)ccc3C(C)=O)ccc2CC1C(=O)NC1CCCc2ccccc21)C(C)(C)C

> <Shape>
0.250

> <Color>
0.158

> <Negative vol penalty>
0.000

$$$$

  -OEChem-04052304173D

 89 98  0     1  0  0  0  0  0999 V2000
  -30.2716  -22.9000   17.6592 C   0  0  0  0  0  0  0  0  0  0  0  0
  -28.9360  -23.1610   17.9483 C   0  0  0  0  0  0  0  0  0  0  0  0
  -27.5500  -12.8948   20.8782 C   0  0  0  0  0  0  0  0  0  0  0  0
  -25.3301  -13.8398   21.0054 C   0  0  0  0  0  0  0  0  0  0  0  0
  -31.2751  -23.4246   18.4726 C   0  0  0  0  0  0  0  0  0  0  0  0
  -28.6032  -23.9459   19.0517 C   0  0  0  0  0  0  0  0  0  0  0  0
  -25.0337  -27.3773   17.9891 C   0  0  0  0  0  0  0  0  0  0  0  0
  -27.0621  -11.6830   21.3672 C   0  0  0  0  0  0  0  0  0  0  0  0
  -24.8422  -12.6280   21.4943 C   0  0  0  0  0  0  0  0  0  0  0  0
  -23.7163  -26.9258   17.9219 C   0  0  0  0  0  0  0  0  0  0  0  0
  -22.9453   -9.6727   22.4355 C   0  0  0  0  0  0  0  0  0  0  0  0
  -21.7559   -9.1855   21.8936 C   0  0  0  0  0  0  0  0  0  0  0  0
  -23.3252  -27.7538   20.1537 C   0  0  0  0  0  0  0  0  0  0  0  0
  -22.2545  -21.1269   20.1915 C   0  0  0  0  0  0  0  0  0  0  0  0
  -22.7790   -9.1213   19.7058 C   0  0  0  0  0  0  0  0  0  0  0  0
  -22.9205  -22.6227   21.9165 C   0  0  0  0  0  0  0  0  0  0  0  0
  -26.6839  -13.9733   20.6973 C   0  0  0  0  0  0  0  0  0  0  0  0
  -27.8226  -15.4503   18.9568 C   0  0  0  0  0  0  0  0  0  0  0  0
  -30.9548  -24.2244   19.5810 C   0  0  0  0  0  0  0  0  0  0  0  0
  -25.5106  -28.0118   19.1451 C   0  0  0  0  0  0  0  0  0  0  0  0
  -29.6033  -24.4806   19.8815 C   0  0  0  0  0  0  0  0  0  0  0  0
  -24.6483  -28.2147   20.2320 C   0  0  0  0  0  0  0  0  0  0  0  0
  -20.9713  -21.6568   20.2693 C   0  0  0  0  0  0  0  0  0  0  0  0
  -23.2534  -21.6136   21.0274 C   0  0  0  0  0  0  0  0  0  0  0  0
  -25.7083  -11.5496   21.6752 C   0  0  0  0  0  0  0  0  0  0  0  0
  -22.8627  -27.1114   19.0054 C   0  0  0  0  0  0  0  0  0  0  0  0
  -24.0515   -9.8842   21.6125 C   0  0  0  0  0  0  0  0  0  0  0  0
  -21.6727   -8.9098   20.5288 C   0  0  0  0  0  0  0  0  0  0  0  0
  -23.9683   -9.6085   20.2477 C   0  0  0  0  0  0  0  0  0  0  0  0
  -27.1874  -15.2255   20.1928 C   0  0  0  0  0  0  0  0  0  0  0  0
  -20.7405  -22.6638   21.1926 C   0  0  0  0  0  0  0  0  0  0  0  0
  -28.1058  -16.7943   18.9556 C   0  0  0  0  0  0  0  0  0  0  0  0
  -28.1293  -14.5267   17.9038 C   0  0  0  0  0  0  0  0  0  0  0  0
  -19.9504  -25.1776   19.9320 C   0  0  0  0  0  0  0  0  0  0  0  0
  -27.7874  -27.3826   21.2721 C   0  0  0  0  0  0  0  0  0  0  0  0
  -26.9867  -30.3109   22.4151 C   0  0  0  0  0  0  0  0  0  0  0  0
  -23.9498  -32.1680   23.0032 C   0  0  0  0  0  0  0  0  0  0  0  0
  -25.6653  -21.4825   21.7429 C   0  0  0  0  0  0  0  0  0  0  0  0
  -32.0723  -24.7302   20.4585 C   0  0  0  0  0  0  0  0  0  0  0  0
  -26.9266  -28.5168   19.1916 C   0  0  0  0  0  0  0  0  0  0  0  0
  -25.1055  -28.9081   21.4884 C   0  0  0  0  0  0  0  0  0  0  0  0
  -31.6494  -25.8621   21.3914 C   0  0  0  0  0  0  0  0  0  0  0  0
  -16.8796  -24.3274   22.0093 C   0  0  0  0  0  0  0  0  0  0  0  0
  -17.1132  -22.8237   22.0088 C   0  0  0  0  0  0  0  0  0  0  0  0
  -29.0592  -20.4230   21.9318 C   0  0  0  0  0  0  0  0  0  0  0  0
  -30.3311  -25.5225   22.0794 C   0  0  0  0  0  0  0  0  0  0  0  0
  -17.7530  -24.9852   20.9502 C   0  0  0  0  0  0  0  0  0  0  0  0
  -29.0231  -18.9925   21.3891 C   0  0  0  0  0  0  0  0  0  0  0  0
  -18.5842  -22.4962   22.2402 C   0  0  0  0  0  0  0  0  0  0  0  0
  -27.8136  -20.7492   22.7539 C   0  0  0  0  0  0  0  0  0  0  0  0
  -26.5009  -19.0590   21.5336 C   0  0  0  0  0  0  0  0  0  0  0  0
  -29.2032  -25.3481   21.0552 C   0  0  1  0  0  0  0  0  0  0  0  0
  -19.2382  -24.6563   21.1458 C   0  0  1  0  0  0  0  0  0  0  0  0
  -27.4526  -28.6907   20.6130 C   0  0  1  0  0  0  0  0  0  0  0  0
  -27.7044  -18.7052   20.6448 C   0  0  2  0  0  0  0  0  0  0  0  0
  -23.5350  -34.6424   23.0564 C   0  0  0  0  0  0  0  0  0  0  0  0
  -27.4266  -30.0273   25.4211 C   0  0  0  0  0  0  0  0  0  0  0  0
  -25.5989  -31.7011   25.7761 C   0  0  0  0  0  0  0  0  0  0  0  0
  -27.6678  -32.3579   24.5468 C   0  0  0  0  0  0  0  0  0  0  0  0
  -21.8200  -31.9722   20.9576 C   0  0  0  0  0  0  0  0  0  0  0  0
  -20.9649  -26.2757   20.1699 C   0  0  0  0  0  0  0  0  0  1  0  0
  -19.9025  -21.1322   19.3720 C   0  0  0  0  0  0  0  0  0  0  0  0
  -25.9942  -30.8284   23.4281 C   0  0  1  0  0  0  0  0  0  0  0  0
  -23.4558  -33.3728   22.2229 C   0  0  2  0  0  0  0  0  0  0  0  0
  -26.6670  -31.2049   24.7782 C   0  0  0  0  0  0  0  0  0  0  0  0
  -21.6854  -23.1623   22.0211 N   0  0  0  0  0  0  0  0  0  0  0  0
  -27.0736  -16.3376   20.9238 N   0  0  0  0  0  0  0  0  0  0  0  0
  -27.6413  -17.2741   20.1448 N   0  0  0  0  0  0  0  0  0  0  0  0
  -19.4439  -23.2029   21.2753 N   0  0  1  0  0  0  0  0  0  0  0  0
  -26.5007  -29.3783   21.4878 N   0  0  0  0  0  0  0  0  0  0  0  0
  -26.6032  -20.4562   21.9833 N   0  0  0  0  0  0  0  0  0  0  0  0
  -28.7043  -17.6006   18.0534 N   0  0  0  0  0  0  0  0  0  0  0  0
  -27.7685  -13.1824   18.0680 N   0  0  0  0  0  0  0  0  0  0  0  0
  -24.5705  -21.0941   20.9715 N   0  0  0  0  0  0  0  0  0  0  0  0
  -28.7342  -26.6377   20.5953 N   0  0  0  0  0  0  0  0  0  0  0  0
  -25.2903  -31.9316   22.7831 N   0  0  0  0  0  0  0  0  0  0  0  0
  -22.0397  -33.1733   21.8037 N   0  3  0  0  0  0  0  0  0  0  0  0
  -28.7210  -14.8800   16.8556 O   0  0  0  0  0  0  0  0  0  0  0  0
  -19.7142  -24.7298   18.8109 O   0  0  0  0  0  0  0  0  0  0  0  0
  -27.2291  -27.0728   22.3181 O   0  0  0  0  0  0  0  0  0  0  0  0
  -28.1486  -30.7244   22.4411 O   0  0  0  0  0  0  0  0  0  0  0  0
  -23.2204  -31.5053   23.7376 O   0  0  0  0  0  0  0  0  0  0  0  0
  -25.8352  -22.6290   22.1657 O   0  0  0  0  0  0  0  0  0  0  0  0
  -25.2318  -10.3672   22.1522 O   0  0  0  0  0  0  0  0  0  0  0  0
  -21.5766  -26.6711   18.9428 O   0  0  0  0  0  0  0  0  0  1  0  0
  -20.5310   -8.4405   20.0089 F   0  0  0  0  0  0  0  0  0  0  0  0
  -25.0281   -9.8086   19.4523 F   0  0  0  0  0  0  0  0  0  0  0  0
  -19.2640  -20.0778   19.9445 F   0  0  0  0  0  0  0  0  0  0  0  0
  -20.4310  -20.6751   18.2063 F   0  0  0  0  0  0  0  0  0  0  0  0
  1  2  1  0  0  0  0
  1  5  2  0  0  0  0
  2  6  2  0  0  0  0
  3  8  2  0  0  0  0
  3 17  1  0  0  0  0
  4  9  1  0  0  0  0
  4 17  2  0  0  0  0
  5 19  1  0  0  0  0
  6 21  1  0  0  0  0
  7 10  2  0  0  0  0
  7 20  1  0  0  0  0
  8 25  1  0  0  0  0
  9 25  2  0  0  0  0
 10 26  1  0  0  0  0
 11 12  2  0  0  0  0
 11 27  1  0  0  0  0
 12 28  1  0  0  0  0
 13 22  1  0  0  0  0
 13 26  2  0  0  0  0
 14 23  1  0  0  0  0
 14 24  2  0  0  0  0
 15 28  2  0  0  0  0
 15 29  1  0  0  0  0
 16 24  1  0  0  0  0
 16 66  2  0  0  0  0
 17 30  1  0  0  0  0
 18 30  1  0  0  0  0
 18 32  2  0  0  0  0
 18 33  1  0  0  0  0
 19 21  2  0  0  0  0
 19 39  1  0  0  0  0
 20 22  2  0  0  0  0
 20 40  1  0  0  0  0
 21 52  1  0  0  0  0
 22 41  1  0  0  0  0
 23 31  2  0  0  0  0
 23 62  1  0  0  0  0
 24 74  1  0  0  0  0
 25 84  1  0  0  0  0
 26 85  1  0  0  0  0
 27 29  2  0  0  0  0
 27 84  1  0  0  0  0
 28 86  1  0  0  0  0
 29 87  1  0  0  0  0
 30 67  2  0  0  0  0
 31 66  1  0  0  0  0
 31 69  1  0  0  0  0
 32 68  1  0  0  0  0
 32 72  1  0  0  0  0
 33 73  1  0  0  0  0
 33 78  2  0  0  0  0
 34 53  1  0  0  0  0
 34 61  1  0  0  0  0
 34 79  2  0  0  0  0
 35 54  1  0  0  0  0
 35 75  1  0  0  0  0
 35 80  2  0  0  0  0
 36 63  1  0  0  0  0
 36 70  1  0  0  0  0
 36 81  2  0  0  0  0
 37 64  1  0  0  0  0
 37 76  1  0  0  0  0
 37 82  2  0  0  0  0
 38 71  1  0  0  0  0
 38 74  1  0  0  0  0
 38 83  2  0  0  0  0
 39 42  1  0  0  0  0
 40 54  1  0  0  0  0
 41 70  1  0  0  0  0
 42 46  1  0  0  0  0
 43 44  1  0  0  0  0
 43 47  1  0  0  0  0
 44 49  1  0  0  0  0
 45 48  1  0  0  0  0
 45 50  1  0  0  0  0
 46 52  1  0  0  0  0
 47 53  1  0  0  0  0
 48 55  1  0  0  0  0
 49 69  1  0  0  0  0
 50 71  1  0  0  0  0
 51 55  1  0  0  0  0
 51 71  1  0  0  0  0
 52 75  1  0  0  0  0
 53 69  1  0  0  0  0
 54 70  1  0  0  0  0
 55 68  1  0  0  0  0
 56 64  1  0  0  0  0
 57 65  1  0  0  0  0
 58 65  1  0  0  0  0
 59 65  1  0  0  0  0
 60 77  1  0  0  0  0
 61 85  1  0  0  0  0
 62 88  1  0  0  0  0
 62 89  1  0  0  0  0
 63 65  1  0  0  0  0
 63 76  1  0  0  0  0
 64 77  1  0  0  0  0
 67 68  1  0  0  0  0
M  CHG  1  77   1
M  ISO  4  38 100  61 101  74 100  85 101
M  END
> <Batch ID>
0169

> <Smiles>
CNC(C)C(=O)NC(C(=O)N1Cc2cc([101O:1][101CH2:1]C(=O)C3CCCCN3c3ncc([100NH:0][100C:0](=O)N4CCCC(n5nc(-c6ccc(Oc7ccc(F)cc7F)cc6)c(C(N)=O)c5N)C4)cc3C(F)F)ccc2CC1C(=O)NC1CCCc2ccccc21)C(C)(C)C

> <Shape>
0.253

> <Color>
0.066

> <Negative vol penalty>
0.000

$$$$

  -OEChem-04052304173D

 87 95  0     1  0  0  0  0  0999 V2000
  -21.3952   -6.9942   23.7212 C   0  0  0  0  0  0  0  0  0  0  0  0
  -21.3094   -8.3776   23.6018 C   0  0  0  0  0  0  0  0  0  0  0  0
  -24.4198  -29.1566   22.9760 C   0  0  0  0  0  0  0  0  0  0  0  0
  -24.7286  -30.4685   20.9709 C   0  0  0  0  0  0  0  0  0  0  0  0
  -22.6399   -6.3847   23.8730 C   0  0  0  0  0  0  0  0  0  0  0  0
  -22.4683   -9.1524   23.6352 C   0  0  0  0  0  0  0  0  0  0  0  0
  -22.5266  -12.7169   20.0386 C   0  0  0  0  0  0  0  0  0  0  0  0
  -23.9757  -30.2934   23.6514 C   0  0  0  0  0  0  0  0  0  0  0  0
  -24.2845  -31.6053   21.6463 C   0  0  0  0  0  0  0  0  0  0  0  0
  -21.7635  -13.8617   20.2642 C   0  0  0  0  0  0  0  0  0  0  0  0
  -23.5742  -34.9262   22.9413 C   0  0  0  0  0  0  0  0  0  0  0  0
  -24.2985  -36.1059   22.7709 C   0  0  0  0  0  0  0  0  0  0  0  0
  -23.7511  -15.0443   20.9498 C   0  0  0  0  0  0  0  0  0  0  0  0
  -25.4337  -18.8486   19.2047 C   0  0  0  0  0  0  0  0  0  0  0  0
  -25.3369  -19.4559   21.5412 C   0  0  0  0  0  0  0  0  0  0  0  0
  -26.2644  -35.0291   23.6724 C   0  0  0  0  0  0  0  0  0  0  0  0
  -24.7963  -29.2442   21.6357 C   0  0  0  0  0  0  0  0  0  0  0  0
  -27.2555  -20.0761   20.2103 C   0  0  0  0  0  0  0  0  0  0  0  0
  -24.4727  -27.1503   20.2149 C   0  0  0  0  0  0  0  0  0  0  0  0
  -23.8154   -7.1516   23.8986 C   0  0  0  0  0  0  0  0  0  0  0  0
  -23.9084  -12.7241   20.2777 C   0  0  0  0  0  0  0  0  0  0  0  0
  -23.7298   -8.5526   23.7889 C   0  0  0  0  0  0  0  0  0  0  0  0
  -24.5299  -13.8991   20.7240 C   0  0  0  0  0  0  0  0  0  0  0  0
  -26.6805  -19.4645   19.0963 C   0  0  0  0  0  0  0  0  0  0  0  0
  -24.7618  -18.8443   20.4272 C   0  0  0  0  0  0  0  0  0  0  0  0
  -23.9081  -31.5177   22.9866 C   0  0  0  0  0  0  0  0  0  0  0  0
  -22.3752  -15.0248   20.7227 C   0  0  0  0  0  0  0  0  0  0  0  0
  -24.1949  -33.7979   23.4774 C   0  0  0  0  0  0  0  0  0  0  0  0
  -25.6437  -36.1574   23.1363 C   0  0  0  0  0  0  0  0  0  0  0  0
  -26.5837  -20.0718   21.4327 C   0  0  0  0  0  0  0  0  0  0  0  0
  -25.5400  -33.8493   23.8428 C   0  0  0  0  0  0  0  0  0  0  0  0
  -25.2556  -28.0704   20.9377 C   0  0  0  0  0  0  0  0  0  0  0  0
  -25.3740  -26.2253   19.7475 C   0  0  0  0  0  0  0  0  0  0  0  0
  -28.5820  -20.7385   20.1185 C   0  0  0  0  0  0  0  0  0  0  0  0
  -23.0574  -27.1335   19.9864 C   0  0  0  0  0  0  0  0  0  0  0  0
  -25.8555  -11.1410   22.2286 C   0  0  0  0  0  0  0  0  0  0  0  0
  -28.1598  -12.7046   20.5649 C   0  0  0  0  0  0  0  0  0  0  0  0
  -29.0288  -15.3829   18.6367 C   0  0  0  0  0  0  0  0  0  0  0  0
  -29.7479  -22.8967   20.4452 C   0  0  0  0  0  0  0  0  0  0  0  0
  -25.1342   -6.4517   24.1122 C   0  0  0  0  0  0  0  0  0  0  0  0
  -24.7217  -11.4889   20.0039 C   0  0  0  0  0  0  0  0  0  0  0  0
  -26.0133  -13.9648   20.9766 C   0  0  0  0  0  0  0  0  0  0  0  0
  -26.3447   -7.3132   23.7617 C   0  0  0  0  0  0  0  0  0  0  0  0
  -30.4384  -26.2842   19.7073 C   0  0  0  0  0  0  0  0  0  0  0  0
  -26.1984   -8.7083   24.3609 C   0  0  0  0  0  0  0  0  0  0  0  0
  -29.0860  -26.9774   19.8937 C   0  0  0  0  0  0  0  0  0  0  0  0
  -30.6591  -25.1828   20.7432 C   0  0  0  0  0  0  0  0  0  0  0  0
  -28.2323  -24.8870   21.0275 C   0  0  0  0  0  0  0  0  0  0  0  0
  -24.9662   -9.4251   23.7957 C   0  0  1  0  0  0  0  0  0  0  0  0
  -26.0397  -11.4589   20.7717 C   0  0  1  0  0  0  0  0  0  0  0  0
  -27.9324  -25.9568   19.9651 C   0  0  1  0  0  0  0  0  0  0  0  0
  -27.2764  -20.7970   17.0577 C   0  0  0  0  0  0  0  0  0  0  0  0
  -30.9934  -16.4072   17.4584 C   0  0  0  0  0  0  0  0  0  0  0  0
  -29.2489  -13.6876   23.2403 C   0  0  0  0  0  0  0  0  0  0  0  0
  -30.5643  -15.4135   21.9916 C   0  0  0  0  0  0  0  0  0  0  0  0
  -30.9982  -12.9891   21.5951 C   0  0  0  0  0  0  0  0  0  0  0  0
  -20.6110  -18.2049   20.3542 C   0  0  0  0  0  0  0  0  0  0  0  0
  -20.7533  -16.3183   18.7137 C   0  0  0  0  0  0  0  0  0  0  0  0
  -27.7091  -15.1606   15.9970 C   0  0  0  0  0  0  0  0  0  0  0  0
  -27.3780  -19.4546   17.7752 C   0  0  0  0  0  0  0  0  0  0  0  0
  -22.8562  -17.5766   19.4336 C   0  0  0  0  0  0  0  0  0  0  0  0
  -28.8705  -14.0286   20.7092 C   0  0  1  0  0  0  0  0  0  0  0  0
  -29.7971  -15.4770   17.3308 C   0  0  2  0  0  0  0  0  0  0  0  0
  -29.8922  -14.0282   21.8812 C   0  0  0  0  0  0  0  0  0  0  0  0
  -21.4757  -17.0461   19.8504 C   0  0  0  0  0  0  0  0  0  1  0  0
  -26.5543  -27.7581   20.9328 N   0  0  0  0  0  0  0  0  0  0  0  0
  -26.5943  -26.6314   20.2013 N   0  0  0  0  0  0  0  0  0  0  0  0
  -26.7645  -12.7292   20.7001 N   0  0  0  0  0  0  0  0  0  0  0  0
  -29.5281  -24.2533   20.7412 N   0  0  0  0  0  0  0  0  0  0  0  0
  -25.2337  -25.1121   18.9967 N   0  0  0  0  0  0  0  0  0  0  0  0
  -22.2791  -28.1598   20.5389 N   0  0  0  0  0  0  0  0  0  0  0  0
  -23.5242  -18.2330   20.5352 N   0  0  0  0  0  0  0  0  0  0  0  0
  -28.5983  -22.0991   20.4267 N   0  0  0  0  0  0  0  0  0  0  0  0
  -25.2393   -9.9272   22.4661 N   0  0  0  0  0  0  0  0  0  0  0  0
  -29.4567  -14.3214   19.4057 N   0  0  0  0  0  0  0  0  0  0  0  0
  -28.9143  -15.9926   16.2465 N   0  3  0  0  0  0  0  0  0  0  0  0
  -29.5670  -20.0666   19.8250 O   0  0  0  0  0  0  0  0  0  0  0  0
  -22.4973  -26.2259   19.3260 O   0  0  0  0  0  0  0  0  0  0  0  0
  -26.2451  -11.9373   23.0747 O   0  0  0  0  0  0  0  0  0  0  0  0
  -28.8178  -11.6871   20.3336 O   0  0  0  0  0  0  0  0  0  0  0  0
  -28.1406  -16.1744   18.9456 O   0  0  0  0  0  0  0  0  0  0  0  0
  -30.8656  -22.4418   20.1824 O   0  0  0  0  0  0  0  0  0  0  0  0
  -23.4746  -32.6271   23.6452 O   0  0  0  0  0  0  0  0  0  0  0  0
  -21.6325  -16.1433   20.9444 O   0  0  0  0  0  0  0  0  0  1  0  0
  -26.3396  -37.2899   22.9712 F   0  0  0  0  0  0  0  0  0  0  0  0
  -27.1259  -20.6561   22.5108 F   0  0  0  0  0  0  0  0  0  0  0  0
  -26.1421  -32.7682   24.3572 F   0  0  0  0  0  0  0  0  0  0  0  0
  1  2  1  0  0  0  0
  1  5  2  0  0  0  0
  2  6  2  0  0  0  0
  3  8  2  0  0  0  0
  3 17  1  0  0  0  0
  4  9  1  0  0  0  0
  4 17  2  0  0  0  0
  5 20  1  0  0  0  0
  6 22  1  0  0  0  0
  7 10  2  0  0  0  0
  7 21  1  0  0  0  0
  8 26  1  0  0  0  0
  9 26  2  0  0  0  0
 10 27  1  0  0  0  0
 11 12  2  0  0  0  0
 11 28  1  0  0  0  0
 12 29  1  0  0  0  0
 13 23  1  0  0  0  0
 13 27  2  0  0  0  0
 14 24  1  0  0  0  0
 14 25  2  0  0  0  0
 15 25  1  0  0  0  0
 15 30  2  0  0  0  0
 16 29  2  0  0  0  0
 16 31  1  0  0  0  0
 17 32  1  0  0  0  0
 18 24  2  0  0  0  0
 18 30  1  0  0  0  0
 18 34  1  0  0  0  0
 19 32  1  0  0  0  0
 19 33  2  0  0  0  0
 19 35  1  0  0  0  0
 20 22  2  0  0  0  0
 20 40  1  0  0  0  0
 21 23  2  0  0  0  0
 21 41  1  0  0  0  0
 22 49  1  0  0  0  0
 23 42  1  0  0  0  0
 24 60  1  0  0  0  0
 25 72  1  0  0  0  0
 26 83  1  0  0  0  0
 27 84  1  0  0  0  0
 28 31  2  0  0  0  0
 28 83  1  0  0  0  0
 29 85  1  0  0  0  0
 30 86  1  0  0  0  0
 31 87  1  0  0  0  0
 32 66  2  0  0  0  0
 33 67  1  0  0  0  0
 33 70  1  0  0  0  0
 34 73  1  0  0  0  0
 34 77  2  0  0  0  0
 35 71  1  0  0  0  0
 35 78  2  0  0  0  0
 36 50  1  0  0  0  0
 36 74  1  0  0  0  0
 36 79  2  0  0  0  0
 37 62  1  0  0  0  0
 37 68  1  0  0  0  0
 37 80  2  0  0  0  0
 38 63  1  0  0  0  0
 38 75  1  0  0  0  0
 38 81  2  0  0  0  0
 39 69  1  0  0  0  0
 39 73  1  0  0  0  0
 39 82  2  0  0  0  0
 40 43  1  0  0  0  0
 41 50  1  0  0  0  0
 42 68  1  0  0  0  0
 43 45  1  0  0  0  0
 44 46  1  0  0  0  0
 44 47  1  0  0  0  0
 45 49  1  0  0  0  0
 46 51  1  0  0  0  0
 47 69  1  0  0  0  0
 48 51  1  0  0  0  0
 48 69  1  0  0  0  0
 49 74  1  0  0  0  0
 50 68  1  0  0  0  0
 51 67  1  0  0  0  0
 52 60  1  0  0  0  0
 53 63  1  0  0  0  0
 54 64  1  0  0  0  0
 55 64  1  0  0  0  0
 56 64  1  0  0  0  0
 57 65  1  0  0  0  0
 58 65  1  0  0  0  0
 59 76  1  0  0  0  0
 61 65  1  0  0  0  0
 61 72  1  0  0  0  0
 62 64  1  0  0  0  0
 62 75  1  0  0  0  0
 63 76  1  0  0  0  0
 65 84  1  0  0  0  0
 66 67  1  0  0  0  0
M  CHG  1  76   1
M  ISO  4  39 100  65 101  73 100  84 101
M  END
> <Batch ID>
0169

> <Smiles>
CCc1cc(NC[101C:1](C)(C)[101O:1]c2ccc3c(c2)CN(C(=O)C(NC(=O)C(C)NC)C(C)(C)C)C(C(=O)NC2CCCc4ccccc42)C3)cc(F)c1C(=O)[100NH:0][100C:0](=O)N1CCCC(n2nc(-c3ccc(Oc4ccc(F)cc4F)cc3)c(C(N)=O)c2N)C1

> <Shape>
0.283

> <Color>
0.055

> <Negative vol penalty>
0.000

$$$$

  -OEChem-04052304173D

 89 97  0     1  0  0  0  0  0999 V2000
  -28.6846  -37.2332   20.9234 C   0  0  0  0  0  0  0  0  0  0  0  0
  -29.0214  -35.8882   20.8097 C   0  0  0  0  0  0  0  0  0  0  0  0
  -23.7888   -8.7377   20.1776 C   0  0  0  0  0  0  0  0  0  0  0  0
  -23.1988  -10.6216   21.5704 C   0  0  0  0  0  0  0  0  0  0  0  0
  -30.5734  -19.4954   19.5456 C   0  0  0  0  0  0  0  0  0  0  0  0
  -27.5969  -37.6144   21.7080 C   0  0  0  0  0  0  0  0  0  0  0  0
  -28.2712  -34.9236   21.4815 C   0  0  0  0  0  0  0  0  0  0  0  0
  -26.9964  -29.2517   19.5554 C   0  0  0  0  0  0  0  0  0  0  0  0
  -30.4909  -18.1034   19.5784 C   0  0  0  0  0  0  0  0  0  0  0  0
  -22.9361   -7.9213   20.9206 C   0  0  0  0  0  0  0  0  0  0  0  0
  -22.3461   -9.8052   22.3135 C   0  0  0  0  0  0  0  0  0  0  0  0
  -27.5687  -28.0130   19.8418 C   0  0  0  0  0  0  0  0  0  0  0  0
  -19.6161   -7.3112   21.1167 C   0  0  0  0  0  0  0  0  0  0  0  0
  -18.7742   -6.4466   20.4174 C   0  0  0  0  0  0  0  0  0  0  0  0
  -25.8791  -27.6273   21.5199 C   0  0  0  0  0  0  0  0  0  0  0  0
  -19.7955   -4.5572   21.5239 C   0  0  0  0  0  0  0  0  0  0  0  0
  -23.9202  -10.0878   20.5025 C   0  0  0  0  0  0  0  0  0  0  0  0
  -29.5735  -20.2387   18.9183 C   0  0  0  0  0  0  0  0  0  0  0  0
  -24.4766  -11.6789   18.5877 C   0  0  0  0  0  0  0  0  0  0  0  0
  -26.8272  -36.6532   22.3819 C   0  0  0  0  0  0  0  0  0  0  0  0
  -25.8658  -29.6929   20.2578 C   0  0  0  0  0  0  0  0  0  0  0  0
  -27.1730  -35.2924   22.2768 C   0  0  0  0  0  0  0  0  0  0  0  0
  -25.2929  -28.8709   21.2386 C   0  0  0  0  0  0  0  0  0  0  0  0
  -29.4087  -17.4546   18.9838 C   0  0  0  0  0  0  0  0  0  0  0  0
  -22.2148   -8.4550   21.9885 C   0  0  0  0  0  0  0  0  0  0  0  0
  -27.0117  -27.2019   20.8262 C   0  0  0  0  0  0  0  0  0  0  0  0
  -20.5479   -6.7989   22.0196 C   0  0  0  0  0  0  0  0  0  0  0  0
  -18.8639   -5.0696   20.6210 C   0  0  0  0  0  0  0  0  0  0  0  0
  -20.6375   -5.4219   22.2232 C   0  0  0  0  0  0  0  0  0  0  0  0
  -28.4913  -19.5900   18.3238 C   0  0  0  0  0  0  0  0  0  0  0  0
  -28.4088  -18.1979   18.3565 C   0  0  0  0  0  0  0  0  0  0  0  0
  -24.8012  -10.9316   19.7357 C   0  0  0  0  0  0  0  0  0  0  0  0
  -25.6499  -12.3034   18.2415 C   0  0  0  0  0  0  0  0  0  0  0  0
  -29.6649  -21.7212   18.8869 C   0  0  0  0  0  0  0  0  0  0  0  0
  -23.2263  -11.7981   17.8962 C   0  0  0  0  0  0  0  0  0  0  0  0
  -25.2319  -32.1501   22.1719 C   0  0  0  0  0  0  0  0  0  0  0  0
  -31.7580  -24.1287   20.7870 C   0  0  0  0  0  0  0  0  0  0  0  0
  -29.2271  -24.2564   20.7923 C   0  0  0  0  0  0  0  0  0  0  0  0
  -22.2059  -30.9927   22.0108 C   0  0  0  0  0  0  0  0  0  0  0  0
  -20.1496  -28.3260   21.4566 C   0  0  0  0  0  0  0  0  0  0  0  0
  -30.2346  -15.1559   19.6003 C   0  0  0  0  0  0  0  0  0  0  0  0
  -25.6892  -37.1173   23.2562 C   0  0  0  0  0  0  0  0  0  0  0  0
  -25.2446  -31.0201   19.9183 C   0  0  0  0  0  0  0  0  0  0  0  0
  -24.0672  -29.2896   22.0073 C   0  0  0  0  0  0  0  0  0  0  0  0
  -24.7180  -36.0021   23.6347 C   0  0  0  0  0  0  0  0  0  0  0  0
  -30.3715  -11.6134   19.9302 C   0  0  0  0  0  0  0  0  0  0  0  0
  -25.4803  -34.7631   24.0936 C   0  0  0  0  0  0  0  0  0  0  0  0
  -28.9078  -11.1817   19.8146 C   0  0  0  0  0  0  0  0  0  0  0  0
  -30.5151  -12.9360   20.6812 C   0  0  0  0  0  0  0  0  0  0  0  0
  -28.2311  -13.6057   20.0455 C   0  0  0  0  0  0  0  0  0  0  0  0
  -26.3685  -34.2145   22.9703 C   0  0  1  0  0  0  0  0  0  0  0  0
  -24.3995  -31.5918   21.0525 C   0  0  1  0  0  0  0  0  0  0  0  0
  -28.0308  -12.3114   19.2402 C   0  0  2  0  0  0  0  0  0  0  0  0
  -32.4615  -25.4011   20.3879 C   0  0  0  0  0  0  0  0  0  0  0  0
  -17.7251  -27.6792   21.4343 C   0  0  0  0  0  0  0  0  0  0  0  0
  -22.1876  -30.9651   25.0618 C   0  0  0  0  0  0  0  0  0  0  0  0
  -20.1876  -29.4620   24.9668 C   0  0  0  0  0  0  0  0  0  0  0  0
  -20.0623  -31.7636   24.0131 C   0  0  0  0  0  0  0  0  0  0  0  0
  -20.2540  -27.5852   18.5932 C   0  0  0  0  0  0  0  0  0  0  0  0
  -28.7226  -25.6180   20.3570 C   0  0  0  0  0  0  0  0  0  1  0  0
  -30.4670  -23.7412   20.0837 C   0  0  2  0  0  0  0  0  0  0  0  0
  -21.4004  -29.9920   22.8037 C   0  0  1  0  0  0  0  0  0  0  0  0
  -18.9003  -28.1767   20.6072 C   0  0  2  0  0  0  0  0  0  0  0  0
  -20.9837  -30.5383   24.1984 C   0  0  0  0  0  0  0  0  0  0  0  0
  -26.0805  -11.0674   20.0947 N   0  0  0  0  0  0  0  0  0  0  0  0
  -26.5702  -11.9073   19.1669 N   0  0  0  0  0  0  0  0  0  0  0  0
  -23.5003  -30.5986   21.6434 N   0  0  0  0  0  0  0  0  0  0  0  0
  -29.6588  -13.9598   20.0785 N   0  0  0  0  0  0  0  0  0  0  0  0
  -25.9739  -13.1472   17.2387 N   0  0  0  0  0  0  0  0  0  0  0  0
  -22.1214  -11.0887   18.3864 N   0  0  0  0  0  0  0  0  0  0  0  0
  -29.3271  -16.0404   19.0185 N   0  0  0  0  0  0  0  0  0  0  0  0
  -30.3192  -22.3180   19.9591 N   0  0  0  0  0  0  0  0  0  0  0  0
  -25.5731  -33.4794   22.0104 N   0  0  0  0  0  0  0  0  0  0  0  0
  -20.2792  -29.6055   21.9540 N   0  0  0  0  0  0  0  0  0  0  0  0
  -19.1394  -27.2082   19.5001 N   0  3  0  0  0  0  0  0  0  0  0  0
  -29.1550  -22.3341   17.9526 O   0  0  0  0  0  0  0  0  0  0  0  0
  -23.0969  -12.4995   16.8643 O   0  0  0  0  0  0  0  0  0  0  0  0
  -25.5404  -31.4288   23.1133 O   0  0  0  0  0  0  0  0  0  0  0  0
  -32.2039  -23.4337   21.7036 O   0  0  0  0  0  0  0  0  0  0  0  0
  -28.6812  -23.6194   21.6936 O   0  0  0  0  0  0  0  0  0  0  0  0
  -21.7024  -32.0812   21.7218 O   0  0  0  0  0  0  0  0  0  0  0  0
  -20.9304  -27.3992   21.6616 O   0  0  0  0  0  0  0  0  0  0  0  0
  -31.4478  -15.3673   19.6752 O   0  0  0  0  0  0  0  0  0  0  0  0
  -21.3825   -7.6588   22.7136 O   0  0  0  0  0  0  0  0  0  0  0  0
  -27.5687  -25.9927   21.1082 O   0  0  0  0  0  0  0  0  0  1  0  0
  -18.0542   -4.2394   19.9505 F   0  0  0  0  0  0  0  0  0  0  0  0
  -21.5298   -4.9240   23.0902 F   0  0  0  0  0  0  0  0  0  0  0  0
  -27.5242  -20.2939   17.7180 F   0  0  0  0  0  0  0  0  0  0  0  0
  -27.3642  -17.5853   17.7815 F   0  0  0  0  0  0  0  0  0  0  0  0
  1  2  1  0  0  0  0
  1  6  2  0  0  0  0
  2  7  2  0  0  0  0
  3 10  2  0  0  0  0
  3 17  1  0  0  0  0
  4 11  1  0  0  0  0
  4 17  2  0  0  0  0
  5  9  2  0  0  0  0
  5 18  1  0  0  0  0
  6 20  1  0  0  0  0
  7 22  1  0  0  0  0
  8 12  2  0  0  0  0
  8 21  1  0  0  0  0
  9 24  1  0  0  0  0
 10 25  1  0  0  0  0
 11 25  2  0  0  0  0
 12 26  1  0  0  0  0
 13 14  2  0  0  0  0
 13 27  1  0  0  0  0
 14 28  1  0  0  0  0
 15 23  1  0  0  0  0
 15 26  2  0  0  0  0
 16 28  2  0  0  0  0
 16 29  1  0  0  0  0
 17 32  1  0  0  0  0
 18 30  2  0  0  0  0
 18 34  1  0  0  0  0
 19 32  1  0  0  0  0
 19 33  2  0  0  0  0
 19 35  1  0  0  0  0
 20 22  2  0  0  0  0
 20 42  1  0  0  0  0
 21 23  2  0  0  0  0
 21 43  1  0  0  0  0
 22 51  1  0  0  0  0
 23 44  1  0  0  0  0
 24 31  2  0  0  0  0
 24 71  1  0  0  0  0
 25 84  1  0  0  0  0
 26 85  1  0  0  0  0
 27 29  2  0  0  0  0
 27 84  1  0  0  0  0
 28 86  1  0  0  0  0
 29 87  1  0  0  0  0
 30 31  1  0  0  0  0
 30 88  1  0  0  0  0
 31 89  1  0  0  0  0
 32 65  2  0  0  0  0
 33 66  1  0  0  0  0
 33 69  1  0  0  0  0
 34 72  1  0  0  0  0
 34 76  2  0  0  0  0
 35 70  1  0  0  0  0
 35 77  2  0  0  0  0
 36 52  1  0  0  0  0
 36 73  1  0  0  0  0
 36 78  2  0  0  0  0
 37 54  1  0  0  0  0
 37 61  1  0  0  0  0
 37 79  2  0  0  0  0
 38 60  1  0  0  0  0
 38 61  1  0  0  0  0
 38 80  2  0  0  0  0
 39 62  1  0  0  0  0
 39 67  1  0  0  0  0
 39 81  2  0  0  0  0
 40 63  1  0  0  0  0
 40 74  1  0  0  0  0
 40 82  2  0  0  0  0
 41 68  1  0  0  0  0
 41 71  1  0  0  0  0
 41 83  2  0  0  0  0
 42 45  1  0  0  0  0
 43 52  1  0  0  0  0
 44 67  1  0  0  0  0
 45 47  1  0  0  0  0
 46 48  1  0  0  0  0
 46 49  1  0  0  0  0
 47 51  1  0  0  0  0
 48 53  1  0  0  0  0
 49 68  1  0  0  0  0
 50 53  1  0  0  0  0
 50 68  1  0  0  0  0
 51 73  1  0  0  0  0
 52 67  1  0  0  0  0
 53 66  1  0  0  0  0
 55 63  1  0  0  0  0
 56 64  1  0  0  0  0
 57 64  1  0  0  0  0
 58 64  1  0  0  0  0
 59 75  1  0  0  0  0
 60 85  1  0  0  0  0
 61 72  1  0  0  0  0
 62 64  1  0  0  0  0
 62 74  1  0  0  0  0
 63 75  1  0  0  0  0
 65 66  1  0  0  0  0
M  CHG  1  75   1
M  ISO  4  41 100  60 101  71 100  85 101
M  END
> <Batch ID>
0169

> <Smiles>
CNC(C)C(=O)NC(C(=O)N1Cc2cc([101O:1][101CH2:1]C(=O)C(NC(=O)c3ccc([100NH:0][100C:0](=O)N4CCCC(n5nc(-c6ccc(Oc7ccc(F)cc7F)cc6)c(C(N)=O)c5N)C4)c(F)c3F)C(C)=O)ccc2CC1C(=O)NC1CCCc2ccccc21)C(C)(C)C

> <Shape>
0.308

> <Color>
0.097

> <Negative vol penalty>
0.000

$$$$

  -OEChem-04052304173D

 86 94  0     1  0  0  0  0  0999 V2000
  -16.8534  -30.7695   23.3486 C   0  0  0  0  0  0  0  0  0  0  0  0
  -18.0622  -31.3517   23.7165 C   0  0  0  0  0  0  0  0  0  0  0  0
  -25.2168  -14.8728   20.2503 C   0  0  0  0  0  0  0  0  0  0  0  0
  -27.0810  -14.6253   21.7671 C   0  0  0  0  0  0  0  0  0  0  0  0
  -16.8160  -29.4321   22.9565 C   0  0  0  0  0  0  0  0  0  0  0  0
  -19.2341  -30.5963   23.6936 C   0  0  0  0  0  0  0  0  0  0  0  0
  -24.8560  -32.5655   22.2712 C   0  0  0  0  0  0  0  0  0  0  0  0
  -25.1309  -13.4859   20.1295 C   0  0  0  0  0  0  0  0  0  0  0  0
  -26.9951  -13.2383   21.6463 C   0  0  0  0  0  0  0  0  0  0  0  0
  -25.9400  -32.9552   23.0566 C   0  0  0  0  0  0  0  0  0  0  0  0
  -23.9037  -10.8999   21.9295 C   0  0  0  0  0  0  0  0  0  0  0  0
  -22.6373  -10.3200   22.0027 C   0  0  0  0  0  0  0  0  0  0  0  0
  -26.8668  -30.7361   22.8679 C   0  0  0  0  0  0  0  0  0  0  0  0
  -22.9211   -9.4191   19.7790 C   0  0  0  0  0  0  0  0  0  0  0  0
  -29.5609  -23.9045   23.9755 C   0  0  0  0  0  0  0  0  0  0  0  0
  -26.1919  -15.4425   21.0691 C   0  0  0  0  0  0  0  0  0  0  0  0
  -25.6237  -17.6893   22.1353 C   0  0  0  0  0  0  0  0  0  0  0  0
  -17.9895  -28.6626   22.9195 C   0  0  0  0  0  0  0  0  0  0  0  0
  -24.7636  -31.2529   21.7865 C   0  0  0  0  0  0  0  0  0  0  0  0
  -19.2121  -29.2470   23.3019 C   0  0  0  0  0  0  0  0  0  0  0  0
  -25.7819  -30.3329   22.0744 C   0  0  0  0  0  0  0  0  0  0  0  0
  -26.0200  -12.6686   20.8275 C   0  0  0  0  0  0  0  0  0  0  0  0
  -26.9442  -32.0397   23.3574 C   0  0  0  0  0  0  0  0  0  0  0  0
  -24.6789  -10.7395   20.7810 C   0  0  0  0  0  0  0  0  0  0  0  0
  -22.1460   -9.5796   20.9275 C   0  0  0  0  0  0  0  0  0  0  0  0
  -24.1876   -9.9991   19.7058 C   0  0  0  0  0  0  0  0  0  0  0  0
  -26.2815  -16.8752   21.1938 C   0  0  0  0  0  0  0  0  0  0  0  0
  -30.3605  -26.0294   24.2494 C   0  0  0  0  0  0  0  0  0  0  0  0
  -29.9595  -23.9244   22.6571 C   0  0  0  0  0  0  0  0  0  0  0  0
  -30.7598  -26.0491   22.9311 C   0  0  0  0  0  0  0  0  0  0  0  0
  -26.0379  -18.9641   21.8357 C   0  0  0  0  0  0  0  0  0  0  0  0
  -24.7194  -17.3257   23.1868 C   0  0  0  0  0  0  0  0  0  0  0  0
  -29.7350  -30.7571   24.1624 C   0  0  0  0  0  0  0  0  0  0  0  0
  -30.4922  -29.6709   24.8686 C   0  0  0  0  0  0  0  0  0  0  0  0
  -22.7086  -28.8587   22.1719 C   0  0  0  0  0  0  0  0  0  0  0  0
  -24.5436  -27.4345   19.9078 C   0  0  0  0  0  0  0  0  0  0  0  0
  -27.5692  -27.2212   18.3433 C   0  0  0  0  0  0  0  0  0  0  0  0
  -30.0421  -22.6008   20.5152 C   0  0  0  0  0  0  0  0  0  0  0  0
  -17.8918  -27.2078   22.5341 C   0  0  0  0  0  0  0  0  0  0  0  0
  -23.6013  -30.8556   20.9184 C   0  0  0  0  0  0  0  0  0  0  0  0
  -25.7401  -28.9174   21.5615 C   0  0  0  0  0  0  0  0  0  0  0  0
  -19.2371  -26.5804   22.1778 C   0  0  0  0  0  0  0  0  0  0  0  0
  -28.5917  -20.7454   17.8448 C   0  0  0  0  0  0  0  0  0  0  0  0
  -20.2906  -26.9501   23.2172 C   0  0  0  0  0  0  0  0  0  0  0  0
  -27.8072  -19.6401   18.5555 C   0  0  0  0  0  0  0  0  0  0  0  0
  -29.8997  -21.0661   18.5660 C   0  0  0  0  0  0  0  0  0  0  0  0
  -28.9770  -20.2674   20.7061 C   0  0  0  0  0  0  0  0  0  0  0  0
  -20.5086  -28.4672   23.2663 C   0  0  1  0  0  0  0  0  0  0  0  0
  -23.3516  -29.3507   20.9062 C   0  0  1  0  0  0  0  0  0  0  0  0
  -27.6209  -19.9548   20.0528 C   0  0  2  0  0  0  0  0  0  0  0  0
  -30.0685  -26.9570   26.5831 C   0  0  0  0  0  0  0  0  0  0  0  0
  -28.7776  -25.9363   16.5584 C   0  0  0  0  0  0  0  0  0  0  0  0
  -24.8407  -25.0706   21.8140 C   0  0  0  0  0  0  0  0  0  0  0  0
  -26.7679  -24.2816   20.4242 C   0  0  0  0  0  0  0  0  0  0  0  0
  -24.4905  -24.4418   19.4190 C   0  0  0  0  0  0  0  0  0  0  0  0
  -28.0104  -29.6592   16.7244 C   0  0  0  0  0  0  0  0  0  0  0  0
  -28.6142  -31.4097   24.9291 C   0  0  0  0  0  0  0  0  0  1  0  0
  -30.5795  -27.2131   25.1667 C   0  0  2  0  0  0  0  0  0  0  0  0
  -25.7744  -26.5605   19.9234 C   0  0  1  0  0  0  0  0  0  0  0  0
  -27.9410  -27.1668   16.8725 C   0  0  2  0  0  0  0  0  0  0  0  0
  -25.4685  -25.1147   20.4066 C   0  0  0  0  0  0  0  0  0  0  0  0
  -29.7542  -24.9566   24.7953 N   0  0  0  0  0  0  0  0  0  0  0  0
  -27.0545  -17.5742   20.3585 N   0  0  0  0  0  0  0  0  0  0  0  0
  -30.5661  -24.9971   22.1112 N   0  0  0  0  0  0  0  0  0  0  0  0
  -26.8852  -18.8410   20.7741 N   0  0  0  0  0  0  0  0  0  0  0  0
  -24.5800  -28.5753   20.7220 N   0  0  0  0  0  0  0  0  0  0  0  0
  -29.6447  -21.3580   19.9783 N   0  0  0  0  0  0  0  0  0  0  0  0
  -31.3917  -27.2037   22.4177 N   0  0  0  0  0  0  0  0  0  0  0  0
  -25.7562  -20.1673   22.3794 N   0  0  0  0  0  0  0  0  0  0  0  0
  -24.4011  -15.9712   23.3557 N   0  0  0  0  0  0  0  0  0  0  0  0
  -29.7180  -22.7782   21.8599 N   0  0  0  0  0  0  0  0  0  0  0  0
  -29.9893  -28.4140   24.6229 N   0  0  0  0  0  0  0  0  0  0  0  0
  -21.3274  -28.8964   22.1528 N   0  0  0  0  0  0  0  0  0  0  0  0
  -26.3446  -26.6344   18.5826 N   0  0  0  0  0  0  0  0  0  0  0  0
  -28.7229  -28.3767   16.4908 N   0  3  0  0  0  0  0  0  0  0  0  0
  -24.1958  -18.1783   23.9434 O   0  0  0  0  0  0  0  0  0  0  0  0
  -30.0913  -31.0494   23.0308 O   0  0  0  0  0  0  0  0  0  0  0  0
  -31.4587  -29.9954   25.5405 O   0  0  0  0  0  0  0  0  0  0  0  0
  -23.4133  -28.4721   23.0969 O   0  0  0  0  0  0  0  0  0  0  0  0
  -23.5880  -27.1205   19.1938 O   0  0  0  0  0  0  0  0  0  0  0  0
  -28.2943  -27.7300   19.1953 O   0  0  0  0  0  0  0  0  0  0  0  0
  -30.6026  -23.4563   19.8253 O   0  0  0  0  0  0  0  0  0  0  0  0
  -25.9364  -11.3152   20.7101 O   0  0  0  0  0  0  0  0  0  0  0  0
  -28.0030  -32.4173   24.1244 O   0  0  0  0  0  0  0  0  0  1  0  0
  -20.9304   -9.0215   20.9987 F   0  0  0  0  0  0  0  0  0  0  0  0
  -24.9282   -9.8405   18.6002 F   0  0  0  0  0  0  0  0  0  0  0  0
  1  2  1  0  0  0  0
  1  5  2  0  0  0  0
  2  6  2  0  0  0  0
  3  8  2  0  0  0  0
  3 16  1  0  0  0  0
  4  9  1  0  0  0  0
  4 16  2  0  0  0  0
  5 18  1  0  0  0  0
  6 20  1  0  0  0  0
  7 10  2  0  0  0  0
  7 19  1  0  0  0  0
  8 22  1  0  0  0  0
  9 22  2  0  0  0  0
 10 23  1  0  0  0  0
 11 12  2  0  0  0  0
 11 24  1  0  0  0  0
 12 25  1  0  0  0  0
 13 21  1  0  0  0  0
 13 23  2  0  0  0  0
 14 25  2  0  0  0  0
 14 26  1  0  0  0  0
 15 29  1  0  0  0  0
 15 62  2  0  0  0  0
 16 27  1  0  0  0  0
 17 27  1  0  0  0  0
 17 31  2  0  0  0  0
 17 32  1  0  0  0  0
 18 20  2  0  0  0  0
 18 39  1  0  0  0  0
 19 21  2  0  0  0  0
 19 40  1  0  0  0  0
 20 48  1  0  0  0  0
 21 41  1  0  0  0  0
 22 83  1  0  0  0  0
 23 84  1  0  0  0  0
 24 26  2  0  0  0  0
 24 83  1  0  0  0  0
 25 85  1  0  0  0  0
 26 86  1  0  0  0  0
 27 63  2  0  0  0  0
 28 30  2  0  0  0  0
 28 58  1  0  0  0  0
 28 62  1  0  0  0  0
 29 64  2  0  0  0  0
 29 71  1  0  0  0  0
 30 64  1  0  0  0  0
 30 68  1  0  0  0  0
 31 65  1  0  0  0  0
 31 69  1  0  0  0  0
 32 70  1  0  0  0  0
 32 76  2  0  0  0  0
 33 34  1  0  0  0  0
 33 57  1  0  0  0  0
 33 77  2  0  0  0  0
 34 72  1  0  0  0  0
 34 78  2  0  0  0  0
 35 49  1  0  0  0  0
 35 73  1  0  0  0  0
 35 79  2  0  0  0  0
 36 59  1  0  0  0  0
 36 66  1  0  0  0  0
 36 80  2  0  0  0  0
 37 60  1  0  0  0  0
 37 74  1  0  0  0  0
 37 81  2  0  0  0  0
 38 67  1  0  0  0  0
 38 71  1  0  0  0  0
 38 82  2  0  0  0  0
 39 42  1  0  0  0  0
 40 49  1  0  0  0  0
 41 66  1  0  0  0  0
 42 44  1  0  0  0  0
 43 45  1  0  0  0  0
 43 46  1  0  0  0  0
 44 48  1  0  0  0  0
 45 50  1  0  0  0  0
 46 67  1  0  0  0  0
 47 50  1  0  0  0  0
 47 67  1  0  0  0  0
 48 73  1  0  0  0  0
 49 66  1  0  0  0  0
 50 65  1  0  0  0  0
 51 58  1  0  0  0  0
 52 60  1  0  0  0  0
 53 61  1  0  0  0  0
 54 61  1  0  0  0  0
 55 61  1  0  0  0  0
 56 75  1  0  0  0  0
 57 84  1  0  0  0  0
 58 72  1  0  0  0  0
 59 61  1  0  0  0  0
 59 74  1  0  0  0  0
 60 75  1  0  0  0  0
 63 65  1  0  0  0  0
M  CHG  1  75   1
M  ISO  4  38 100  57 101  71 100  84 101
M  END
> <Batch ID>
0169

> <Smiles>
CNC(C)C(=O)NC(C(=O)N1Cc2cc([101O:1][101CH2:1]C(=O)C(=O)NC(C)c3ncc([100NH:0][100C:0](=O)N4CCCC(n5nc(-c6ccc(Oc7ccc(F)cc7F)cc6)c(C(N)=O)c5N)C4)nc3N)ccc2CC1C(=O)NC1CCCc2ccccc21)C(C)(C)C

> <Shape>
0.280

> <Color>
0.099

> <Negative vol penalty>
0.000

$$$$

  -OEChem-04052304173D

 86 94  0     1  0  0  0  0  0999 V2000
  -34.6193  -33.6242   12.8959 C   0  0  0  0  0  0  0  0  0  0  0  0
  -34.7767  -32.4653   13.6492 C   0  0  0  0  0  0  0  0  0  0  0  0
  -23.0050   -9.8872   19.9806 C   0  0  0  0  0  0  0  0  0  0  0  0
  -23.7266   -9.9438   22.2856 C   0  0  0  0  0  0  0  0  0  0  0  0
  -34.1065  -34.7764   13.4904 C   0  0  0  0  0  0  0  0  0  0  0  0
  -34.4224  -32.4582   14.9979 C   0  0  0  0  0  0  0  0  0  0  0  0
  -32.0349  -27.7833   18.1526 C   0  0  0  0  0  0  0  0  0  0  0  0
  -31.1816  -17.6163   20.5702 C   0  0  0  0  0  0  0  0  0  0  0  0
  -31.3702  -18.9980   20.5443 C   0  0  0  0  0  0  0  0  0  0  0  0
  -22.2403   -8.7517   20.2478 C   0  0  0  0  0  0  0  0  0  0  0  0
  -22.9618   -8.8083   22.5529 C   0  0  0  0  0  0  0  0  0  0  0  0
  -32.6044  -26.8407   19.0075 C   0  0  0  0  0  0  0  0  0  0  0  0
  -23.2134   -5.4690   22.0875 C   0  0  0  0  0  0  0  0  0  0  0  0
  -23.8017   -4.4543   22.8424 C   0  0  0  0  0  0  0  0  0  0  0  0
  -31.9885  -28.1979   20.9043 C   0  0  0  0  0  0  0  0  0  0  0  0
  -29.5245  -17.8749   22.3092 C   0  0  0  0  0  0  0  0  0  0  0  0
  -22.0748   -4.6970   24.5145 C   0  0  0  0  0  0  0  0  0  0  0  0
  -23.7482  -10.4833   20.9995 C   0  0  0  0  0  0  0  0  0  0  0  0
  -24.1289  -12.9993   20.8195 C   0  0  0  0  0  0  0  0  0  0  0  0
  -33.7367  -34.7806   14.8446 C   0  0  0  0  0  0  0  0  0  0  0  0
  -31.4467  -28.9476   18.6673 C   0  0  0  0  0  0  0  0  0  0  0  0
  -33.9054  -33.6119   15.6114 C   0  0  0  0  0  0  0  0  0  0  0  0
  -31.4100  -29.1526   20.0539 C   0  0  0  0  0  0  0  0  0  0  0  0
  -30.2587  -17.0547   21.4526 C   0  0  0  0  0  0  0  0  0  0  0  0
  -30.6360  -19.8183   21.4010 C   0  0  0  0  0  0  0  0  0  0  0  0
  -22.2187   -8.2123   21.5340 C   0  0  0  0  0  0  0  0  0  0  0  0
  -32.5838  -27.0493   20.3835 C   0  0  0  0  0  0  0  0  0  0  0  0
  -22.0557   -6.0978   22.5462 C   0  0  0  0  0  0  0  0  0  0  0  0
  -23.2325   -4.0683   24.0558 C   0  0  0  0  0  0  0  0  0  0  0  0
  -29.7131  -19.2567   22.2834 C   0  0  0  0  0  0  0  0  0  0  0  0
  -21.4865   -5.7117   23.7596 C   0  0  0  0  0  0  0  0  0  0  0  0
  -24.5388  -11.6559   20.7239 C   0  0  0  0  0  0  0  0  0  0  0  0
  -25.2378  -13.7233   20.4554 C   0  0  0  0  0  0  0  0  0  0  0  0
  -22.8593  -13.5439   21.2031 C   0  0  0  0  0  0  0  0  0  0  0  0
  -32.0133  -32.0622   18.3811 C   0  0  0  0  0  0  0  0  0  0  0  0
  -31.7061  -23.3530   20.7264 C   0  0  0  0  0  0  0  0  0  0  0  0
  -29.2699  -32.3223   20.0925 C   0  0  0  0  0  0  0  0  0  0  0  0
  -27.0760  -30.8968   22.2836 C   0  0  0  0  0  0  0  0  0  0  0  0
  -30.7150  -14.6955   20.6960 C   0  0  0  0  0  0  0  0  0  0  0  0
  -33.2311  -36.0638   15.4550 C   0  0  0  0  0  0  0  0  0  0  0  0
  -30.8131  -29.9418   17.7333 C   0  0  0  0  0  0  0  0  0  0  0  0
  -30.7727  -30.3762   20.6581 C   0  0  0  0  0  0  0  0  0  0  0  0
  -32.5292  -35.8652   16.7960 C   0  0  0  0  0  0  0  0  0  0  0  0
  -29.6051  -12.2362   18.3729 C   0  0  0  0  0  0  0  0  0  0  0  0
  -33.3497  -34.9481   17.6974 C   0  0  0  0  0  0  0  0  0  0  0  0
  -28.1544  -11.9765   18.7853 C   0  0  0  0  0  0  0  0  0  0  0  0
  -30.5033  -12.4836   19.5836 C   0  0  0  0  0  0  0  0  0  0  0  0
  -28.5844  -13.2712   20.9127 C   0  0  0  0  0  0  0  0  0  0  0  0
  -33.5093  -33.5576   17.0709 C   0  0  1  0  0  0  0  0  0  0  0  0
  -30.6973  -31.3384   18.3363 C   0  0  1  0  0  0  0  0  0  0  0  0
  -27.6289  -13.0808   19.7234 C   0  0  2  0  0  0  0  0  0  0  0  0
  -24.9477  -31.3677   23.5271 C   0  0  0  0  0  0  0  0  0  0  0  0
  -30.8086  -34.0798   22.0556 C   0  0  0  0  0  0  0  0  0  0  0  0
  -28.9608  -33.7307   23.7085 C   0  0  0  0  0  0  0  0  0  0  0  0
  -28.4931  -34.8716   21.5400 C   0  0  0  0  0  0  0  0  0  0  0  0
  -34.2693  -24.1212   21.7702 C   0  0  0  0  0  0  0  0  0  0  0  0
  -34.8857  -25.4119   19.7200 C   0  0  0  0  0  0  0  0  0  0  0  0
  -25.6648  -28.6652   20.9467 C   0  0  0  0  0  0  0  0  0  0  0  0
  -32.6510  -24.1809   19.8602 C   0  0  0  0  0  0  0  0  0  0  0  0
  -31.7570  -21.8558   20.4969 C   0  0  0  0  0  0  0  0  0  0  0  0
  -28.9279  -32.3812   21.5617 C   0  0  1  0  0  0  0  0  0  0  0  0
  -25.5622  -30.7848   22.2639 C   0  0  2  0  0  0  0  0  0  0  0  0
  -29.3114  -33.7436   22.2052 C   0  0  0  0  0  0  0  0  0  0  0  0
  -33.7264  -24.9770   20.6203 C   0  0  0  0  0  0  0  0  0  1  0  0
  -25.8089  -11.5311   20.3299 N   0  0  0  0  0  0  0  0  0  0  0  0
  -26.2067  -12.8054   20.1746 N   0  0  0  0  0  0  0  0  0  0  0  0
  -30.1722  -31.3222   19.7031 N   0  0  0  0  0  0  0  0  0  0  0  0
  -29.9449  -13.5450   20.4241 N   0  0  0  0  0  0  0  0  0  0  0  0
  -25.4689  -15.0493   20.3513 N   0  0  0  0  0  0  0  0  0  0  0  0
  -21.8287  -12.6584   21.5466 N   0  0  0  0  0  0  0  0  0  0  0  0
  -30.0677  -15.6509   21.4788 N   0  0  0  0  0  0  0  0  0  0  0  0
  -30.8262  -21.1924   21.3738 N   0  0  0  0  0  0  0  0  0  0  0  0
  -32.2967  -32.7856   17.2384 N   0  0  0  0  0  0  0  0  0  0  0  0
  -27.5110  -32.0495   21.6645 N   0  0  0  0  0  0  0  0  0  0  0  0
  -25.1497  -29.3568   22.1564 N   0  3  0  0  0  0  0  0  0  0  0  0
  -22.6401  -14.7788   21.2242 O   0  0  0  0  0  0  0  0  0  0  0  0
  -32.7186  -31.9722   19.3791 O   0  0  0  0  0  0  0  0  0  0  0  0
  -30.9881  -23.8615   21.5860 O   0  0  0  0  0  0  0  0  0  0  0  0
  -28.7501  -33.1292   19.3177 O   0  0  0  0  0  0  0  0  0  0  0  0
  -27.8000  -30.0485   22.8001 O   0  0  0  0  0  0  0  0  0  0  0  0
  -31.8541  -14.8358   20.2435 O   0  0  0  0  0  0  0  0  0  0  0  0
  -21.4724   -7.1044   21.7952 O   0  0  0  0  0  0  0  0  0  0  0  0
  -33.1394  -26.1311   21.2202 O   0  0  0  0  0  0  0  0  0  1  0  0
  -23.7967   -3.0928   24.7799 F   0  0  0  0  0  0  0  0  0  0  0  0
  -29.0034  -20.0358   23.1122 F   0  0  0  0  0  0  0  0  0  0  0  0
  -20.3737   -6.3112   24.2049 F   0  0  0  0  0  0  0  0  0  0  0  0
  1  2  1  0  0  0  0
  1  5  2  0  0  0  0
  2  6  2  0  0  0  0
  3 10  2  0  0  0  0
  3 18  1  0  0  0  0
  4 11  1  0  0  0  0
  4 18  2  0  0  0  0
  5 20  1  0  0  0  0
  6 22  1  0  0  0  0
  7 12  2  0  0  0  0
  7 21  1  0  0  0  0
  8  9  2  0  0  0  0
  8 24  1  0  0  0  0
  9 25  1  0  0  0  0
 10 26  1  0  0  0  0
 11 26  2  0  0  0  0
 12 27  1  0  0  0  0
 13 14  2  0  0  0  0
 13 28  1  0  0  0  0
 14 29  1  0  0  0  0
 15 23  1  0  0  0  0
 15 27  2  0  0  0  0
 16 24  2  0  0  0  0
 16 30  1  0  0  0  0
 17 29  2  0  0  0  0
 17 31  1  0  0  0  0
 18 32  1  0  0  0  0
 19 32  1  0  0  0  0
 19 33  2  0  0  0  0
 19 34  1  0  0  0  0
 20 22  2  0  0  0  0
 20 40  1  0  0  0  0
 21 23  2  0  0  0  0
 21 41  1  0  0  0  0
 22 49  1  0  0  0  0
 23 42  1  0  0  0  0
 24 71  1  0  0  0  0
 25 30  2  0  0  0  0
 25 72  1  0  0  0  0
 26 82  1  0  0  0  0
 27 83  1  0  0  0  0
 28 31  2  0  0  0  0
 28 82  1  0  0  0  0
 29 84  1  0  0  0  0
 30 85  1  0  0  0  0
 31 86  1  0  0  0  0
 32 65  2  0  0  0  0
 33 66  1  0  0  0  0
 33 69  1  0  0  0  0
 34 70  1  0  0  0  0
 34 76  2  0  0  0  0
 35 50  1  0  0  0  0
 35 73  1  0  0  0  0
 35 77  2  0  0  0  0
 36 59  1  0  0  0  0
 36 60  1  0  0  0  0
 36 78  2  0  0  0  0
 37 61  1  0  0  0  0
 37 67  1  0  0  0  0
 37 79  2  0  0  0  0
 38 62  1  0  0  0  0
 38 74  1  0  0  0  0
 38 80  2  0  0  0  0
 39 68  1  0  0  0  0
 39 71  1  0  0  0  0
 39 81  2  0  0  0  0
 40 43  1  0  0  0  0
 41 50  1  0  0  0  0
 42 67  1  0  0  0  0
 43 45  1  0  0  0  0
 44 46  1  0  0  0  0
 44 47  1  0  0  0  0
 45 49  1  0  0  0  0
 46 51  1  0  0  0  0
 47 68  1  0  0  0  0
 48 51  1  0  0  0  0
 48 68  1  0  0  0  0
 49 73  1  0  0  0  0
 50 67  1  0  0  0  0
 51 66  1  0  0  0  0
 52 62  1  0  0  0  0
 53 63  1  0  0  0  0
 54 63  1  0  0  0  0
 55 63  1  0  0  0  0
 56 64  1  0  0  0  0
 57 64  1  0  0  0  0
 58 75  1  0  0  0  0
 59 64  1  0  0  0  0
 60 72  1  0  0  0  0
 61 63  1  0  0  0  0
 61 74  1  0  0  0  0
 62 75  1  0  0  0  0
 64 83  1  0  0  0  0
 65 66  1  0  0  0  0
M  CHG  1  75   1
M  ISO  4  39 100  64 101  71 100  83 101
M  END
> <Batch ID>
0169

> <Smiles>
CNC(C)C(=O)NC(C(=O)N1Cc2cc([101O:1][101C:1](C)(C)CC(=O)CNc3ccc([100NH:0][100C:0](=O)N4CCCC(n5nc(-c6ccc(Oc7ccc(F)cc7F)cc6)c(C(N)=O)c5N)C4)cc3F)ccc2CC1C(=O)NC1CCCc2ccccc21)C(C)(C)C

> <Shape>
0.238

> <Color>
0.193

> <Negative vol penalty>
0.000

$$$$

  -OEChem-04052304173D

 87 96  0     1  0  0  0  0  0999 V2000
  -41.3131  -26.0796   20.1941 C   0  0  0  0  0  0  0  0  0  0  0  0
  -40.9194  -25.0921   21.0915 C   0  0  0  0  0  0  0  0  0  0  0  0
  -23.2314  -10.2885   22.2533 C   0  0  0  0  0  0  0  0  0  0  0  0
  -23.8225   -9.4569   20.0633 C   0  0  0  0  0  0  0  0  0  0  0  0
  -40.3570  -26.9054   19.6045 C   0  0  0  0  0  0  0  0  0  0  0  0
  -39.5692  -24.9307   21.4007 C   0  0  0  0  0  0  0  0  0  0  0  0
  -36.6726  -19.6722   22.6103 C   0  0  0  0  0  0  0  0  0  0  0  0
  -22.5146   -9.1185   22.5042 C   0  0  0  0  0  0  0  0  0  0  0  0
  -23.1057   -8.2868   20.3142 C   0  0  0  0  0  0  0  0  0  0  0  0
  -36.3109  -19.0542   23.8066 C   0  0  0  0  0  0  0  0  0  0  0  0
  -20.2300   -6.5025   23.5816 C   0  0  0  0  0  0  0  0  0  0  0  0
  -18.9654   -6.6257   24.1571 C   0  0  0  0  0  0  0  0  0  0  0  0
  -30.9377  -13.2526   24.9866 C   0  0  0  0  0  0  0  0  0  0  0  0
  -34.1062  -20.0172   23.6303 C   0  0  0  0  0  0  0  0  0  0  0  0
  -32.8212  -13.6640   23.5535 C   0  0  0  0  0  0  0  0  0  0  0  0
  -18.2342   -7.9430   22.2684 C   0  0  0  0  0  0  0  0  0  0  0  0
  -23.8853  -10.4577   21.0329 C   0  0  0  0  0  0  0  0  0  0  0  0
  -24.1257  -12.9823   20.7566 C   0  0  0  0  0  0  0  0  0  0  0  0
  -38.9935  -26.7477   19.8992 C   0  0  0  0  0  0  0  0  0  0  0  0
  -35.7557  -20.4774   21.9195 C   0  0  0  0  0  0  0  0  0  0  0  0
  -38.5941  -25.7561   20.8154 C   0  0  0  0  0  0  0  0  0  0  0  0
  -31.7099  -13.5491   26.1265 C   0  0  0  0  0  0  0  0  0  0  0  0
  -34.4579  -20.6421   22.4241 C   0  0  0  0  0  0  0  0  0  0  0  0
  -33.0723  -13.9011   25.9815 C   0  0  0  0  0  0  0  0  0  0  0  0
  -31.4909  -13.3041   23.7103 C   0  0  0  0  0  0  0  0  0  0  0  0
  -22.4517   -8.1177   21.5346 C   0  0  0  0  0  0  0  0  0  0  0  0
  -35.0284  -19.2290   24.3182 C   0  0  0  0  0  0  0  0  0  0  0  0
  -20.4968   -7.0997   22.3496 C   0  0  0  0  0  0  0  0  0  0  0  0
  -17.9675   -7.3459   23.5005 C   0  0  0  0  0  0  0  0  0  0  0  0
  -33.5989  -13.9616   24.6740 C   0  0  0  0  0  0  0  0  0  0  0  0
  -19.4989   -7.8199   21.6929 C   0  0  0  0  0  0  0  0  0  0  0  0
  -24.6255  -11.6663   20.7729 C   0  0  0  0  0  0  0  0  0  0  0  0
  -25.2186  -13.7609   20.4635 C   0  0  0  0  0  0  0  0  0  0  0  0
  -22.7929  -13.4583   20.9861 C   0  0  0  0  0  0  0  0  0  0  0  0
  -35.6482  -23.5415   21.0806 C   0  0  0  0  0  0  0  0  0  0  0  0
  -34.3864  -16.4973   26.6055 C   0  0  0  0  0  0  0  0  0  0  0  0
  -32.9701  -22.6130   19.5035 C   0  0  0  0  0  0  0  0  0  0  0  0
  -30.1470  -20.4608   20.1483 C   0  0  0  0  0  0  0  0  0  0  0  0
  -31.0950  -13.0066   21.2403 C   0  0  0  0  0  0  0  0  0  0  0  0
  -38.0012  -27.6953   19.2730 C   0  0  0  0  0  0  0  0  0  0  0  0
  -36.1531  -21.1154   20.6166 C   0  0  0  0  0  0  0  0  0  0  0  0
  -31.0132  -13.5727   27.4694 C   0  0  0  0  0  0  0  0  0  0  0  0
  -33.4300  -21.4802   21.7104 C   0  0  0  0  0  0  0  0  0  0  0  0
  -36.5557  -27.2137   19.3679 C   0  0  0  0  0  0  0  0  0  0  0  0
  -31.5832  -12.5935   28.4905 C   0  0  0  0  0  0  0  0  0  0  0  0
  -32.9148  -13.0495   29.0795 C   0  0  0  0  0  0  0  0  0  0  0  0
  -29.4145  -13.6103   18.1600 C   0  0  0  0  0  0  0  0  0  0  0  0
  -36.2475  -26.7246   20.7795 C   0  0  0  0  0  0  0  0  0  0  0  0
  -27.9493  -13.3059   18.4806 C   0  0  0  0  0  0  0  0  0  0  0  0
  -34.0421  -13.0812   28.0573 C   0  0  0  0  0  0  0  0  0  0  0  0
  -30.3637  -12.6621   18.8905 C   0  0  0  0  0  0  0  0  0  0  0  0
  -28.6975  -12.2752   20.6634 C   0  0  0  0  0  0  0  0  0  0  0  0
  -37.1368  -25.5338   21.1573 C   0  0  1  0  0  0  0  0  0  0  0  0
  -35.3012  -22.3303   20.2619 C   0  0  1  0  0  0  0  0  0  0  0  0
  -27.7060  -13.2458   20.0014 C   0  0  2  0  0  0  0  0  0  0  0  0
  -28.6645  -19.1964   18.5669 C   0  0  0  0  0  0  0  0  0  0  0  0
  -31.1709  -25.0708   19.6829 C   0  0  0  0  0  0  0  0  0  0  0  0
  -29.1916  -23.5379   19.6536 C   0  0  0  0  0  0  0  0  0  0  0  0
  -30.7426  -23.6069   17.7010 C   0  0  0  0  0  0  0  0  0  0  0  0
  -30.6819  -17.8920   21.5173 C   0  0  0  0  0  0  0  0  0  0  0  0
  -34.9513  -15.1452   26.9861 C   0  0  0  0  0  0  0  0  0  0  0  0
  -35.3100  -17.3896   25.7992 C   0  0  0  0  0  0  0  0  0  1  0  0
  -31.5042  -22.5161   19.8509 C   0  0  1  0  0  0  0  0  0  0  0  0
  -29.8618  -19.1175   19.5013 C   0  0  2  0  0  0  0  0  0  0  0  0
  -30.6725  -23.6801   19.2419 C   0  0  0  0  0  0  0  0  0  0  0  0
  -25.9339  -11.6083   20.5108 N   0  0  0  0  0  0  0  0  0  0  0  0
  -26.2656  -12.8976   20.3270 N   0  0  0  0  0  0  0  0  0  0  0  0
  -33.8749  -14.1702   27.0941 N   0  0  1  0  0  0  0  0  0  0  0  0
  -33.8685  -22.0884   20.4434 N   0  0  0  0  0  0  0  0  0  0  0  0
  -30.0770  -12.6605   20.3267 N   0  0  0  0  0  0  0  0  0  0  0  0
  -25.3764  -15.0930   20.3116 N   0  0  0  0  0  0  0  0  0  0  0  0
  -21.7899  -12.5230   21.2751 N   0  0  0  0  0  0  0  0  0  0  0  0
  -30.6965  -13.0016   22.5766 N   0  0  0  0  0  0  0  0  0  0  0  0
  -36.6496  -24.3216   20.5346 N   0  0  0  0  0  0  0  0  0  0  0  0
  -31.0716  -21.1882   19.4291 N   0  0  0  0  0  0  0  0  0  0  0  0
  -29.5779  -18.0905   20.5432 N   0  3  0  0  0  0  0  0  0  0  0  0
  -22.4968  -14.6755   20.9201 O   0  0  0  0  0  0  0  0  0  0  0  0
  -35.0507  -23.7534   22.1293 O   0  0  0  0  0  0  0  0  0  0  0  0
  -33.2544  -16.8590   26.9242 O   0  0  0  0  0  0  0  0  0  0  0  0
  -33.3053  -23.1284   18.4341 O   0  0  0  0  0  0  0  0  0  0  0  0
  -29.6012  -20.8296   21.1859 O   0  0  0  0  0  0  0  0  0  0  0  0
  -32.2289  -13.3132   20.8630 O   0  0  0  0  0  0  0  0  0  0  0  0
  -21.7526   -6.9758   21.7792 O   0  0  0  0  0  0  0  0  0  0  0  0
  -34.6729  -18.6275   25.4860 O   0  0  0  0  0  0  0  0  0  1  0  0
  -16.7527   -7.4629   24.0525 F   0  0  0  0  0  0  0  0  0  0  0  0
  -34.8886  -14.2701   24.4701 F   0  0  0  0  0  0  0  0  0  0  0  0
  -19.7489   -8.3947   20.5085 F   0  0  0  0  0  0  0  0  0  0  0  0
  1  2  1  0  0  0  0
  1  5  2  0  0  0  0
  2  6  2  0  0  0  0
  3  8  2  0  0  0  0
  3 17  1  0  0  0  0
  4  9  1  0  0  0  0
  4 17  2  0  0  0  0
  5 19  1  0  0  0  0
  6 21  1  0  0  0  0
  7 10  2  0  0  0  0
  7 20  1  0  0  0  0
  8 26  1  0  0  0  0
  9 26  2  0  0  0  0
 10 27  1  0  0  0  0
 11 12  2  0  0  0  0
 11 28  1  0  0  0  0
 12 29  1  0  0  0  0
 13 22  1  0  0  0  0
 13 25  2  0  0  0  0
 14 23  1  0  0  0  0
 14 27  2  0  0  0  0
 15 25  1  0  0  0  0
 15 30  2  0  0  0  0
 16 29  2  0  0  0  0
 16 31  1  0  0  0  0
 17 32  1  0  0  0  0
 18 32  1  0  0  0  0
 18 33  2  0  0  0  0
 18 34  1  0  0  0  0
 19 21  2  0  0  0  0
 19 40  1  0  0  0  0
 20 23  2  0  0  0  0
 20 41  1  0  0  0  0
 21 53  1  0  0  0  0
 22 24  2  0  0  0  0
 22 42  1  0  0  0  0
 23 43  1  0  0  0  0
 24 30  1  0  0  0  0
 24 68  1  0  0  0  0
 25 73  1  0  0  0  0
 26 83  1  0  0  0  0
 27 84  1  0  0  0  0
 28 31  2  0  0  0  0
 28 83  1  0  0  0  0
 29 85  1  0  0  0  0
 30 86  1  0  0  0  0
 31 87  1  0  0  0  0
 32 66  2  0  0  0  0
 33 67  1  0  0  0  0
 33 71  1  0  0  0  0
 34 72  1  0  0  0  0
 34 77  2  0  0  0  0
 35 54  1  0  0  0  0
 35 74  1  0  0  0  0
 35 78  2  0  0  0  0
 36 61  1  0  0  0  0
 36 62  1  0  0  0  0
 36 79  2  0  0  0  0
 37 63  1  0  0  0  0
 37 69  1  0  0  0  0
 37 80  2  0  0  0  0
 38 64  1  0  0  0  0
 38 75  1  0  0  0  0
 38 81  2  0  0  0  0
 39 70  1  0  0  0  0
 39 73  1  0  0  0  0
 39 82  2  0  0  0  0
 40 44  1  0  0  0  0
 41 54  1  0  0  0  0
 42 45  1  0  0  0  0
 43 69  1  0  0  0  0
 44 48  1  0  0  0  0
 45 46  1  0  0  0  0
 46 50  1  0  0  0  0
 47 49  1  0  0  0  0
 47 51  1  0  0  0  0
 48 53  1  0  0  0  0
 49 55  1  0  0  0  0
 50 68  1  0  0  0  0
 51 70  1  0  0  0  0
 52 55  1  0  0  0  0
 52 70  1  0  0  0  0
 53 74  1  0  0  0  0
 54 69  1  0  0  0  0
 55 67  1  0  0  0  0
 56 64  1  0  0  0  0
 57 65  1  0  0  0  0
 58 65  1  0  0  0  0
 59 65  1  0  0  0  0
 60 76  1  0  0  0  0
 61 68  1  0  0  0  0
 62 84  1  0  0  0  0
 63 65  1  0  0  0  0
 63 75  1  0  0  0  0
 64 76  1  0  0  0  0
 66 67  1  0  0  0  0
M  CHG  1  76   1
M  ISO  4  39 100  62 101  73 100  84 101
M  END
> <Batch ID>
0169

> <Smiles>
CNC(C)C(=O)NC(C(=O)N1Cc2cc([101O:1][101CH2:1]C(=O)CN3CCCCc4cc([100NH:0][100C:0](=O)N5CCCC(n6nc(-c7ccc(Oc8ccc(F)cc8F)cc7)c(C(N)=O)c6N)C5)cc(F)c43)ccc2CC1C(=O)NC1CCCc2ccccc21)C(C)(C)C

> <Shape>
0.177

> <Color>
0.176

> <Negative vol penalty>
0.000

$$$$

  -OEChem-04052304173D

 88 96  0     1  0  0  0  0  0999 V2000
  -23.7478  -38.0428   20.6261 C   0  0  0  0  0  0  0  0  0  0  0  0
  -24.5710  -37.1610   19.9332 C   0  0  0  0  0  0  0  0  0  0  0  0
  -22.6063  -12.1612   18.8505 C   0  0  0  0  0  0  0  0  0  0  0  0
  -22.8545  -10.2856   20.3530 C   0  0  0  0  0  0  0  0  0  0  0  0
  -23.2748  -37.7038   21.8931 C   0  0  0  0  0  0  0  0  0  0  0  0
  -24.9226  -35.9399   20.5075 C   0  0  0  0  0  0  0  0  0  0  0  0
  -26.3891  -29.1549   18.7384 C   0  0  0  0  0  0  0  0  0  0  0  0
  -21.5096  -11.5386   18.2544 C   0  0  0  0  0  0  0  0  0  0  0  0
  -21.7578   -9.6630   19.7569 C   0  0  0  0  0  0  0  0  0  0  0  0
  -27.3670  -28.1795   18.9286 C   0  0  0  0  0  0  0  0  0  0  0  0
  -18.2310  -11.0767   18.9400 C   0  0  0  0  0  0  0  0  0  0  0  0
  -17.0987  -11.8535   18.6949 C   0  0  0  0  0  0  0  0  0  0  0  0
  -29.1498  -17.9353   22.5980 C   0  0  0  0  0  0  0  0  0  0  0  0
  -26.4262  -27.6663   21.0898 C   0  0  0  0  0  0  0  0  0  0  0  0
  -28.4050  -20.2336   22.5880 C   0  0  0  0  0  0  0  0  0  0  0  0
  -17.2874  -11.3834   16.3326 C   0  0  0  0  0  0  0  0  0  0  0  0
  -23.2788  -11.5347   19.8997 C   0  0  0  0  0  0  0  0  0  0  0  0
  -29.9906  -18.2031   21.5178 C   0  0  0  0  0  0  0  0  0  0  0  0
  -30.0386  -19.4861   20.9727 C   0  0  0  0  0  0  0  0  0  0  0  0
  -24.3973  -13.0558   21.6152 C   0  0  0  0  0  0  0  0  0  0  0  0
  -23.6130  -36.4738   22.4791 C   0  0  0  0  0  0  0  0  0  0  0  0
  -25.4274  -29.4012   19.7288 C   0  0  0  0  0  0  0  0  0  0  0  0
  -24.4548  -35.5846   21.7840 C   0  0  0  0  0  0  0  0  0  0  0  0
  -25.4356  -28.6436   20.9087 C   0  0  0  0  0  0  0  0  0  0  0  0
  -29.2458  -20.5014   21.5078 C   0  0  0  0  0  0  0  0  0  0  0  0
  -21.0854  -10.2895   18.7076 C   0  0  0  0  0  0  0  0  0  0  0  0
  -27.3874  -27.4370   20.1057 C   0  0  0  0  0  0  0  0  0  0  0  0
  -18.8916  -10.4533   17.8814 C   0  0  0  0  0  0  0  0  0  0  0  0
  -16.6269  -12.0068   17.3913 C   0  0  0  0  0  0  0  0  0  0  0  0
  -28.3569  -18.9506   23.1331 C   0  0  0  0  0  0  0  0  0  0  0  0
  -18.4198  -10.6066   16.5777 C   0  0  0  0  0  0  0  0  0  0  0  0
  -24.4121  -12.1770   20.5155 C   0  0  0  0  0  0  0  0  0  0  0  0
  -25.7165  -13.3849   21.8095 C   0  0  0  0  0  0  0  0  0  0  0  0
  -30.9189  -19.7648   19.8408 C   0  0  0  0  0  0  0  0  0  0  0  0
  -30.8207  -17.0975   20.9741 C   0  0  0  0  0  0  0  0  0  0  0  0
  -23.2900  -13.5319   22.3918 C   0  0  0  0  0  0  0  0  0  0  0  0
  -24.6508  -31.9037   21.5283 C   0  0  0  0  0  0  0  0  0  0  0  0
  -28.7647  -24.1308   20.6841 C   0  0  0  0  0  0  0  0  0  0  0  0
  -22.2049  -29.9851   22.4551 C   0  0  0  0  0  0  0  0  0  0  0  0
  -20.9869  -26.8188   22.8261 C   0  0  0  0  0  0  0  0  0  0  0  0
  -30.7016  -14.8705   19.9018 C   0  0  0  0  0  0  0  0  0  0  0  0
  -23.1160  -36.1717   23.8706 C   0  0  0  0  0  0  0  0  0  0  0  0
  -24.3631  -30.4385   19.4970 C   0  0  0  0  0  0  0  0  0  0  0  0
  -24.4132  -28.8553   21.9942 C   0  0  0  0  0  0  0  0  0  0  0  0
  -23.2303  -34.6979   24.2516 C   0  0  0  0  0  0  0  0  0  0  0  0
  -29.9340  -11.4210   19.8071 C   0  0  0  0  0  0  0  0  0  0  0  0
  -24.6054  -34.1546   23.8764 C   0  0  0  0  0  0  0  0  0  0  0  0
  -28.4283  -11.3785   20.0813 C   0  0  0  0  0  0  0  0  0  0  0  0
  -30.3192  -12.6182   18.9392 C   0  0  0  0  0  0  0  0  0  0  0  0
  -28.3429  -13.8744   19.6972 C   0  0  0  0  0  0  0  0  0  0  0  0
  -24.8382  -34.2401   22.3632 C   0  0  1  0  0  0  0  0  0  0  0  0
  -23.7444  -30.9593   20.7906 C   0  0  1  0  0  0  0  0  0  0  0  0
  -27.9141  -12.7265   20.6254 C   0  0  1  0  0  0  0  0  0  0  0  0
  -30.3524  -19.5750   18.4669 C   0  0  0  0  0  0  0  0  0  0  0  0
  -18.9724  -25.5665   23.6454 C   0  0  0  0  0  0  0  0  0  0  0  0
  -23.0663  -30.4904   25.3382 C   0  0  0  0  0  0  0  0  0  0  0  0
  -21.6771  -28.5240   26.0245 C   0  0  0  0  0  0  0  0  0  0  0  0
  -20.5927  -30.5077   24.9702 C   0  0  0  0  0  0  0  0  0  0  0  0
  -20.4905  -25.6397   20.1574 C   0  0  0  0  0  0  0  0  0  0  0  0
  -28.4833  -22.8771   21.4848 C   0  0  0  0  0  0  0  0  0  0  0  0
  -27.9889  -25.3641   21.1042 C   0  0  0  0  0  0  0  0  0  1  0  0
  -22.0023  -28.9640   23.5483 C   0  0  1  0  0  0  0  0  0  0  0  0
  -19.6543  -26.2009   22.4431 C   0  0  2  0  0  0  0  0  0  0  0  0
  -21.8552  -29.6186   24.9509 C   0  0  0  0  0  0  0  0  0  0  0  0
  -25.6431  -11.9617   20.0441 N   0  0  0  0  0  0  0  0  0  0  0  0
  -26.4141  -12.7099   20.8514 N   0  0  0  0  0  0  0  0  0  0  0  0
  -23.3967  -29.8853   21.7233 N   0  0  0  0  0  0  0  0  0  0  0  0
  -29.8037  -13.8556   19.5276 N   0  0  0  0  0  0  0  0  0  0  0  0
  -26.3362  -14.1831   22.7046 N   0  0  0  0  0  0  0  0  0  0  0  0
  -22.0015  -13.0939   22.0567 N   0  0  0  0  0  0  0  0  0  0  0  0
  -29.2761  -21.7848   20.9812 N   0  0  0  0  0  0  0  0  0  0  0  0
  -30.1145  -15.9944   20.4937 N   0  0  0  0  0  0  0  0  0  0  0  0
  -24.1329  -33.1755   21.6823 N   0  0  0  0  0  0  0  0  0  0  0  0
  -20.8581  -28.1544   23.1438 N   0  0  0  0  0  0  0  0  0  0  0  0
  -19.8500  -25.1497   21.4050 N   0  3  0  0  0  0  0  0  0  0  0  0
  -32.0864  -20.1372   19.9370 O   0  0  0  0  0  0  0  0  0  0  0  0
  -32.0414  -17.2267   20.9411 O   0  0  0  0  0  0  0  0  0  0  0  0
  -23.4371  -14.3351   23.3439 O   0  0  0  0  0  0  0  0  0  0  0  0
  -25.7388  -31.5075   21.9294 O   0  0  0  0  0  0  0  0  0  0  0  0
  -29.5673  -24.1588   19.7520 O   0  0  0  0  0  0  0  0  0  0  0  0
  -21.3345  -30.8355   22.2530 O   0  0  0  0  0  0  0  0  0  0  0  0
  -22.0365  -26.1796   22.8455 O   0  0  0  0  0  0  0  0  0  0  0  0
  -31.9239  -14.7692   19.7568 O   0  0  0  0  0  0  0  0  0  0  0  0
  -20.0151   -9.6818   18.1264 O   0  0  0  0  0  0  0  0  0  0  0  0
  -28.3412  -26.4848   20.2942 O   0  0  0  0  0  0  0  0  0  1  0  0
  -15.5386  -12.7516   17.1563 F   0  0  0  0  0  0  0  0  0  0  0  0
  -27.5486  -18.6924   24.1696 F   0  0  0  0  0  0  0  0  0  0  0  0
  -19.0495  -10.0091   15.5568 F   0  0  0  0  0  0  0  0  0  0  0  0
  1  2  1  0  0  0  0
  1  5  2  0  0  0  0
  2  6  2  0  0  0  0
  3  8  2  0  0  0  0
  3 17  1  0  0  0  0
  4  9  1  0  0  0  0
  4 17  2  0  0  0  0
  5 21  1  0  0  0  0
  6 23  1  0  0  0  0
  7 10  2  0  0  0  0
  7 22  1  0  0  0  0
  8 26  1  0  0  0  0
  9 26  2  0  0  0  0
 10 27  1  0  0  0  0
 11 12  2  0  0  0  0
 11 28  1  0  0  0  0
 12 29  1  0  0  0  0
 13 18  2  0  0  0  0
 13 30  1  0  0  0  0
 14 24  1  0  0  0  0
 14 27  2  0  0  0  0
 15 25  1  0  0  0  0
 15 30  2  0  0  0  0
 16 29  2  0  0  0  0
 16 31  1  0  0  0  0
 17 32  1  0  0  0  0
 18 19  1  0  0  0  0
 18 35  1  0  0  0  0
 19 25  2  0  0  0  0
 19 34  1  0  0  0  0
 20 32  1  0  0  0  0
 20 33  2  0  0  0  0
 20 36  1  0  0  0  0
 21 23  2  0  0  0  0
 21 42  1  0  0  0  0
 22 24  2  0  0  0  0
 22 43  1  0  0  0  0
 23 51  1  0  0  0  0
 24 44  1  0  0  0  0
 25 71  1  0  0  0  0
 26 84  1  0  0  0  0
 27 85  1  0  0  0  0
 28 31  2  0  0  0  0
 28 84  1  0  0  0  0
 29 86  1  0  0  0  0
 30 87  1  0  0  0  0
 31 88  1  0  0  0  0
 32 65  2  0  0  0  0
 33 66  1  0  0  0  0
 33 69  1  0  0  0  0
 34 54  1  0  0  0  0
 34 76  2  0  0  0  0
 35 72  1  0  0  0  0
 35 77  2  0  0  0  0
 36 70  1  0  0  0  0
 36 78  2  0  0  0  0
 37 52  1  0  0  0  0
 37 73  1  0  0  0  0
 37 79  2  0  0  0  0
 38 60  1  0  0  0  0
 38 61  1  0  0  0  0
 38 80  2  0  0  0  0
 39 62  1  0  0  0  0
 39 67  1  0  0  0  0
 39 81  2  0  0  0  0
 40 63  1  0  0  0  0
 40 74  1  0  0  0  0
 40 82  2  0  0  0  0
 41 68  1  0  0  0  0
 41 72  1  0  0  0  0
 41 83  2  0  0  0  0
 42 45  1  0  0  0  0
 43 52  1  0  0  0  0
 44 67  1  0  0  0  0
 45 47  1  0  0  0  0
 46 48  1  0  0  0  0
 46 49  1  0  0  0  0
 47 51  1  0  0  0  0
 48 53  1  0  0  0  0
 49 68  1  0  0  0  0
 50 53  1  0  0  0  0
 50 68  1  0  0  0  0
 51 73  1  0  0  0  0
 52 67  1  0  0  0  0
 53 66  1  0  0  0  0
 55 63  1  0  0  0  0
 56 64  1  0  0  0  0
 57 64  1  0  0  0  0
 58 64  1  0  0  0  0
 59 75  1  0  0  0  0
 60 71  1  0  0  0  0
 61 85  1  0  0  0  0
 62 64  1  0  0  0  0
 62 74  1  0  0  0  0
 63 75  1  0  0  0  0
 65 66  1  0  0  0  0
M  CHG  1  75   1
M  ISO  4  41 100  61 101  72 100  85 101
M  END
> <Batch ID>
0169

> <Smiles>
CNC(C)C(=O)NC(C(=O)N1Cc2cc([101O:1][101CH2:1]C(=O)CNc3cc(F)cc(C(=O)[100NH:0][100C:0](=O)N4CCCC(n5nc(-c6ccc(Oc7ccc(F)cc7F)cc6)c(C(N)=O)c5N)C4)c3C(C)=O)ccc2CC1C(=O)NC1CCCc2ccccc21)C(C)(C)C

> <Shape>
0.298

> <Color>
0.137

> <Negative vol penalty>
0.000

$$$$

  -OEChem-04052304173D

 83 91  0     1  0  0  0  0  0999 V2000
  -28.0827  -36.3690   21.5010 C   0  0  0  0  0  0  0  0  0  0  0  0
  -28.3775  -35.0101   21.5448 C   0  0  0  0  0  0  0  0  0  0  0  0
  -22.8105  -10.0615   23.0142 C   0  0  0  0  0  0  0  0  0  0  0  0
  -23.7150   -9.9977   20.7748 C   0  0  0  0  0  0  0  0  0  0  0  0
  -26.8766  -36.8366   22.0211 C   0  0  0  0  0  0  0  0  0  0  0  0
  -27.4667  -34.1181   22.1098 C   0  0  0  0  0  0  0  0  0  0  0  0
  -26.8348  -29.9495   19.3047 C   0  0  0  0  0  0  0  0  0  0  0  0
  -22.1662   -8.8452   22.7887 C   0  0  0  0  0  0  0  0  0  0  0  0
  -23.0706   -8.7813   20.5493 C   0  0  0  0  0  0  0  0  0  0  0  0
  -27.8274  -28.9736   19.3819 C   0  0  0  0  0  0  0  0  0  0  0  0
  -22.9861   -5.5653   22.7299 C   0  0  0  0  0  0  0  0  0  0  0  0
  -23.0637   -4.5955   23.7294 C   0  0  0  0  0  0  0  0  0  0  0  0
  -27.7477  -20.2748   19.9245 C   0  0  0  0  0  0  0  0  0  0  0  0
  -26.4548  -27.7068   20.9084 C   0  0  0  0  0  0  0  0  0  0  0  0
  -20.6557   -4.6064   23.9269 C   0  0  0  0  0  0  0  0  0  0  0  0
  -23.5849  -10.6378   22.0073 C   0  0  0  0  0  0  0  0  0  0  0  0
  -29.0937  -20.7074   19.7481 C   0  0  0  0  0  0  0  0  0  0  0  0
  -25.5452  -12.0881   22.7567 C   0  0  0  0  0  0  0  0  0  0  0  0
  -25.9464  -35.9487   22.5841 C   0  0  0  0  0  0  0  0  0  0  0  0
  -25.6473  -29.8165   20.0385 C   0  0  0  0  0  0  0  0  0  0  0  0
  -26.2476  -34.5744   22.6392 C   0  0  0  0  0  0  0  0  0  0  0  0
  -25.4476  -28.6812   20.8368 C   0  0  0  0  0  0  0  0  0  0  0  0
  -22.2963   -8.2050   21.5562 C   0  0  0  0  0  0  0  0  0  0  0  0
  -27.6388  -27.8534   20.1861 C   0  0  0  0  0  0  0  0  0  0  0  0
  -21.7433   -6.0557   22.3289 C   0  0  0  0  0  0  0  0  0  0  0  0
  -21.8985   -4.1160   24.3279 C   0  0  0  0  0  0  0  0  0  0  0  0
  -20.5782   -5.5762   22.9274 C   0  0  0  0  0  0  0  0  0  0  0  0
  -24.2502  -11.8946   22.2394 C   0  0  0  0  0  0  0  0  0  0  0  0
  -25.7048  -13.4521   22.7814 C   0  0  0  0  0  0  0  0  0  0  0  0
  -27.6625  -18.9131   20.1146 C   0  0  0  0  0  0  0  0  0  0  0  0
  -29.9862  -19.6598   19.8104 C   0  0  0  0  0  0  0  0  0  0  0  0
  -28.7762  -23.1331   20.0325 C   0  0  0  0  0  0  0  0  0  0  0  0
  -29.4902  -22.1120   19.5255 C   0  0  0  0  0  0  0  0  0  0  0  0
  -26.5169  -11.1214   23.1772 C   0  0  0  0  0  0  0  0  0  0  0  0
  -29.1237  -24.5751   19.8514 C   0  0  0  0  0  0  0  0  0  0  0  0
  -24.2345  -31.4903   22.3420 C   0  0  0  0  0  0  0  0  0  0  0  0
  -21.8310  -29.3616   21.8790 C   0  0  0  0  0  0  0  0  0  0  0  0
  -20.8641  -26.2755   20.7890 C   0  0  0  0  0  0  0  0  0  0  0  0
  -25.2008  -18.4590   20.3981 C   0  0  0  0  0  0  0  0  0  0  0  0
  -24.6766  -36.5068   23.1764 C   0  0  0  0  0  0  0  0  0  0  0  0
  -24.5750  -30.8650   19.9235 C   0  0  0  0  0  0  0  0  0  0  0  0
  -24.1821  -28.4812   21.6287 C   0  0  0  0  0  0  0  0  0  0  0  0
  -23.6021  -35.4502   23.4195 C   0  0  0  0  0  0  0  0  0  0  0  0
  -22.3448  -17.1747   22.0924 C   0  0  0  0  0  0  0  0  0  0  0  0
  -24.2025  -34.2256   24.1025 C   0  0  0  0  0  0  0  0  0  0  0  0
  -22.6924  -15.7024   22.3243 C   0  0  0  0  0  0  0  0  0  0  0  0
  -22.8685  -17.6761   20.7478 C   0  0  0  0  0  0  0  0  0  0  0  0
  -24.6469  -15.9713   20.7448 C   0  0  0  0  0  0  0  0  0  0  0  0
  -25.2744  -33.5725   23.2216 C   0  0  1  0  0  0  0  0  0  0  0  0
  -23.6216  -30.8778   21.1145 C   0  0  1  0  0  0  0  0  0  0  0  0
  -24.1965  -15.4388   22.1150 C   0  0  2  0  0  0  0  0  0  0  0  0
  -18.8404  -24.8073   20.5734 C   0  0  0  0  0  0  0  0  0  0  0  0
  -21.9343  -28.7835   24.8732 C   0  0  0  0  0  0  0  0  0  0  0  0
  -20.6141  -26.6997   24.4457 C   0  0  0  0  0  0  0  0  0  0  0  0
  -19.6277  -28.9293   23.9178 C   0  0  0  0  0  0  0  0  0  0  0  0
  -21.1266  -26.1487   17.8439 C   0  0  0  0  0  0  0  0  0  0  0  0
  -28.1798  -25.5602   20.5093 C   0  0  0  0  0  0  0  0  0  1  0  0
  -21.4729  -28.0120   22.4529 C   0  0  1  0  0  0  0  0  0  0  0  0
  -19.7243  -25.8372   19.8872 C   0  0  2  0  0  0  0  0  0  0  0  0
  -20.9370  -28.1106   23.9091 C   0  0  0  0  0  0  0  0  0  0  0  0
  -23.6311  -13.0437   21.9561 N   0  0  0  0  0  0  0  0  0  0  0  0
  -24.5409  -13.9724   22.2966 N   0  0  0  0  0  0  0  0  0  0  0  0
  -23.1660  -29.5372   21.4881 N   0  0  0  0  0  0  0  0  0  0  0  0
  -24.3005  -17.3960   20.6220 N   0  0  0  0  0  0  0  0  0  0  0  0
  -26.7256  -14.2451   23.1703 N   0  0  0  0  0  0  0  0  0  0  0  0
  -31.3384  -19.7185   19.6875 N   0  0  0  0  0  0  0  0  0  0  0  0
  -26.1900   -9.7616   23.0847 N   0  0  0  0  0  0  0  0  0  0  0  0
  -26.5398  -18.0756   20.3284 N   0  0  0  0  0  0  0  0  0  0  0  0
  -24.6579  -32.7942   22.1687 N   0  0  0  0  0  0  0  0  0  0  0  0
  -20.5384  -27.4034   21.5122 N   0  0  0  0  0  0  0  0  0  0  0  0
  -20.2584  -25.2367   18.6322 N   0  3  0  0  0  0  0  0  0  0  0  0
  -27.6355  -11.4539   23.6371 O   0  0  0  0  0  0  0  0  0  0  0  0
  -30.1071  -24.9369   19.2121 O   0  0  0  0  0  0  0  0  0  0  0  0
  -24.3158  -30.8293   23.3708 O   0  0  0  0  0  0  0  0  0  0  0  0
  -20.9569  -30.2256   21.7745 O   0  0  0  0  0  0  0  0  0  0  0  0
  -21.9348  -25.6750   20.8489 O   0  0  0  0  0  0  0  0  0  0  0  0
  -24.8153  -19.6272   20.3044 O   0  0  0  0  0  0  0  0  0  0  0  0
  -30.6452  -22.2532   18.7853 O   0  0  0  0  0  0  0  0  0  0  0  0
  -21.6679   -7.0180   21.3359 O   0  0  0  0  0  0  0  0  0  0  0  0
  -28.6063  -26.8997   20.2637 O   0  0  0  0  0  0  0  0  0  1  0  0
  -21.9731   -3.1836   25.2867 F   0  0  0  0  0  0  0  0  0  0  0  0
  -19.3813   -6.0426   22.5455 F   0  0  0  0  0  0  0  0  0  0  0  0
  -29.2011  -18.1621   20.0802 S   0  0  0  0  0  0  0  0  0  0  0  0
  1  2  1  0  0  0  0
  1  5  2  0  0  0  0
  2  6  2  0  0  0  0
  3  8  2  0  0  0  0
  3 16  1  0  0  0  0
  4  9  1  0  0  0  0
  4 16  2  0  0  0  0
  5 19  1  0  0  0  0
  6 21  1  0  0  0  0
  7 10  2  0  0  0  0
  7 20  1  0  0  0  0
  8 23  1  0  0  0  0
  9 23  2  0  0  0  0
 10 24  1  0  0  0  0
 11 12  2  0  0  0  0
 11 25  1  0  0  0  0
 12 26  1  0  0  0  0
 13 17  1  0  0  0  0
 13 30  2  0  0  0  0
 14 22  1  0  0  0  0
 14 24  2  0  0  0  0
 15 26  2  0  0  0  0
 15 27  1  0  0  0  0
 16 28  1  0  0  0  0
 17 31  2  0  0  0  0
 17 33  1  0  0  0  0
 18 28  1  0  0  0  0
 18 29  2  0  0  0  0
 18 34  1  0  0  0  0
 19 21  2  0  0  0  0
 19 40  1  0  0  0  0
 20 22  2  0  0  0  0
 20 41  1  0  0  0  0
 21 49  1  0  0  0  0
 22 42  1  0  0  0  0
 23 79  1  0  0  0  0
 24 80  1  0  0  0  0
 25 27  2  0  0  0  0
 25 79  1  0  0  0  0
 26 81  1  0  0  0  0
 27 82  1  0  0  0  0
 28 61  2  0  0  0  0
 29 62  1  0  0  0  0
 29 65  1  0  0  0  0
 30 68  1  0  0  0  0
 30 83  1  0  0  0  0
 31 66  1  0  0  0  0
 31 83  1  0  0  0  0
 32 33  2  0  0  0  0
 32 35  1  0  0  0  0
 33 78  1  0  0  0  0
 34 67  1  0  0  0  0
 34 72  2  0  0  0  0
 35 57  1  0  0  0  0
 35 73  2  0  0  0  0
 36 50  1  0  0  0  0
 36 69  1  0  0  0  0
 36 74  2  0  0  0  0
 37 58  1  0  0  0  0
 37 63  1  0  0  0  0
 37 75  2  0  0  0  0
 38 59  1  0  0  0  0
 38 70  1  0  0  0  0
 38 76  2  0  0  0  0
 39 64  1  0  0  0  0
 39 68  1  0  0  0  0
 39 77  2  0  0  0  0
 40 43  1  0  0  0  0
 41 50  1  0  0  0  0
 42 63  1  0  0  0  0
 43 45  1  0  0  0  0
 44 46  1  0  0  0  0
 44 47  1  0  0  0  0
 45 49  1  0  0  0  0
 46 51  1  0  0  0  0
 47 64  1  0  0  0  0
 48 51  1  0  0  0  0
 48 64  1  0  0  0  0
 49 69  1  0  0  0  0
 50 63  1  0  0  0  0
 51 62  1  0  0  0  0
 52 59  1  0  0  0  0
 53 60  1  0  0  0  0
 54 60  1  0  0  0  0
 55 60  1  0  0  0  0
 56 71  1  0  0  0  0
 57 80  1  0  0  0  0
 58 60  1  0  0  0  0
 58 70  1  0  0  0  0
 59 71  1  0  0  0  0
 61 62  1  0  0  0  0
M  CHG  1  71   1
M  ISO  4  39 100  57 101  68 100  80 101
M  END
> <Batch ID>
0169

> <Smiles>
CNC(C)C(=O)NC(C(=O)N1Cc2cc([101O:1][101CH2:1]C(=O)CC(=O)c3cc([100NH:0][100C:0](=O)N4CCCC(n5nc(-c6ccc(Oc7ccc(F)cc7F)cc6)c(C(N)=O)c5N)C4)sc3N)ccc2CC1C(=O)NC1CCCc2ccccc21)C(C)(C)C

> <Shape>
0.301

> <Color>
0.101

> <Negative vol penalty>
0.000

$$$$

  -OEChem-04052304173D

 89 97  0     1  0  0  0  0  0999 V2000
  -24.7054  -36.4653   24.9692 C   0  0  0  0  0  0  0  0  0  0  0  0
  -25.5906  -35.6375   24.2862 C   0  0  0  0  0  0  0  0  0  0  0  0
  -24.5773   -9.0933   20.0534 C   0  0  0  0  0  0  0  0  0  0  0  0
  -24.3740   -9.4868   22.4284 C   0  0  0  0  0  0  0  0  0  0  0  0
  -23.6480  -35.9104   25.6888 C   0  0  0  0  0  0  0  0  0  0  0  0
  -25.4195  -34.2541   24.3233 C   0  0  0  0  0  0  0  0  0  0  0  0
  -26.6056  -30.2760   19.8207 C   0  0  0  0  0  0  0  0  0  0  0  0
  -24.2511   -7.7512   20.2478 C   0  0  0  0  0  0  0  0  0  0  0  0
  -24.0478   -8.1446   22.6229 C   0  0  0  0  0  0  0  0  0  0  0  0
  -27.6941  -29.4421   19.5683 C   0  0  0  0  0  0  0  0  0  0  0  0
  -21.3317   -6.1660   22.2649 C   0  0  0  0  0  0  0  0  0  0  0  0
  -20.2599   -5.8769   23.1094 C   0  0  0  0  0  0  0  0  0  0  0  0
  -26.5324  -27.6143   20.6309 C   0  0  0  0  0  0  0  0  0  0  0  0
  -26.3861  -19.0858   22.9834 C   0  0  0  0  0  0  0  0  0  0  0  0
  -26.9299  -21.2937   22.1672 C   0  0  0  0  0  0  0  0  0  0  0  0
  -28.5126  -19.4867   21.9090 C   0  0  0  0  0  0  0  0  0  0  0  0
  -21.7337   -4.6134   24.5475 C   0  0  0  0  0  0  0  0  0  0  0  0
  -24.6388   -9.9612   21.1437 C   0  0  0  0  0  0  0  0  0  0  0  0
  -24.0885  -12.4107   20.6916 C   0  0  0  0  0  0  0  0  0  0  0  0
  -23.4582  -34.5200   25.7268 C   0  0  0  0  0  0  0  0  0  0  0  0
  -25.4749  -29.7873   20.4908 C   0  0  0  0  0  0  0  0  0  0  0  0
  -24.3593  -33.6800   25.0451 C   0  0  0  0  0  0  0  0  0  0  0  0
  -25.4299  -28.4434   20.8882 C   0  0  0  0  0  0  0  0  0  0  0  0
  -26.0398  -20.4241   22.7974 C   0  0  0  0  0  0  0  0  0  0  0  0
  -27.6225  -18.6171   22.5392 C   0  0  0  0  0  0  0  0  0  0  0  0
  -28.1663  -20.8251   21.7230 C   0  0  0  0  0  0  0  0  0  0  0  0
  -23.9864   -7.2768   21.5326 C   0  0  0  0  0  0  0  0  0  0  0  0
  -27.6588  -28.1118   19.9760 C   0  0  0  0  0  0  0  0  0  0  0  0
  -22.6046   -5.6787   22.5616 C   0  0  0  0  0  0  0  0  0  0  0  0
  -20.4609   -5.1006   24.2507 C   0  0  0  0  0  0  0  0  0  0  0  0
  -22.8056   -4.9024   23.7029 C   0  0  0  0  0  0  0  0  0  0  0  0
  -24.9762  -11.3476   20.9436 C   0  0  0  0  0  0  0  0  0  0  0  0
  -24.8980  -13.5146   20.5789 C   0  0  0  0  0  0  0  0  0  0  0  0
  -22.6599  -12.4014   20.5705 C   0  0  0  0  0  0  0  0  0  0  0  0
  -29.9514  -23.7168   20.1605 C   0  0  0  0  0  0  0  0  0  0  0  0
  -29.8689  -25.1896   19.8100 C   0  0  0  0  0  0  0  0  0  0  0  0
  -24.0153  -30.4812   23.2279 C   0  0  0  0  0  0  0  0  0  0  0  0
  -21.8186  -28.3542   22.1449 C   0  0  0  0  0  0  0  0  0  0  0  0
  -23.2363  -21.1952   21.3314 C   0  0  0  0  0  0  0  0  0  0  0  0
  -21.1152  -25.6822   20.1418 C   0  0  0  0  0  0  0  0  0  0  0  0
  -29.1599  -16.6306   22.3480 C   0  0  0  0  0  0  0  0  0  0  0  0
  -22.3284  -33.9640   26.5569 C   0  0  0  0  0  0  0  0  0  0  0  0
  -24.2981  -30.6926   20.7316 C   0  0  0  0  0  0  0  0  0  0  0  0
  -24.2313  -27.8645   21.5931 C   0  0  0  0  0  0  0  0  0  0  0  0
  -21.9973  -32.5083   26.2380 C   0  0  0  0  0  0  0  0  0  0  0  0
  -29.9335  -13.8837   20.2189 C   0  0  0  0  0  0  0  0  0  0  0  0
  -23.2728  -31.6752   26.1614 C   0  0  0  0  0  0  0  0  0  0  0  0
  -28.6397  -13.0664   20.1969 C   0  0  0  0  0  0  0  0  0  0  0  0
  -30.1918  -14.4999   21.5927 C   0  0  0  0  0  0  0  0  0  0  0  0
  -27.7849  -14.4691   22.1175 C   0  0  0  0  0  0  0  0  0  0  0  0
  -24.1924  -32.1759   25.0410 C   0  0  1  0  0  0  0  0  0  0  0  0
  -23.4078  -30.2231   21.8781 C   0  0  1  0  0  0  0  0  0  0  0  0
  -27.4487  -13.8821   20.7369 C   0  0  2  0  0  0  0  0  0  0  0  0
  -22.1066  -20.6478   20.5531 C   0  0  0  0  0  0  0  0  0  0  0  0
  -19.2415  -24.1419   19.4984 C   0  0  0  0  0  0  0  0  0  0  0  0
  -22.1261  -26.8765   24.7966 C   0  0  0  0  0  0  0  0  0  0  0  0
  -21.0031  -24.9009   23.7460 C   0  0  0  0  0  0  0  0  0  0  0  0
  -19.7725  -27.0591   23.9709 C   0  0  0  0  0  0  0  0  0  0  0  0
  -21.2445  -26.5208   17.3065 C   0  0  0  0  0  0  0  0  0  0  0  0
  -24.7179  -20.9253   23.2725 C   0  0  0  0  0  0  0  0  0  0  0  0
  -28.7764  -23.0861   20.8621 C   0  0  0  0  0  0  0  0  0  0  0  0
  -28.6163  -25.9442   20.1768 C   0  0  0  0  0  0  0  0  0  1  0  0
  -21.6267  -26.8616   22.2635 C   0  0  1  0  0  0  0  0  0  0  0  0
  -19.9825  -25.4270   19.1638 C   0  0  2  0  0  0  0  0  0  0  0  0
  -21.1556  -26.4356   23.6827 C   0  0  0  0  0  0  0  0  0  0  0  0
  -26.2520  -11.7406   20.9881 N   0  0  0  0  0  0  0  0  0  0  0  0
  -26.1718  -13.0630   20.7626 N   0  0  0  0  0  0  0  0  0  0  0  0
  -23.1084  -28.7913   21.8113 N   0  0  0  0  0  0  0  0  0  0  0  0
  -29.0224  -15.2610   22.0379 N   0  0  0  0  0  0  0  0  0  0  0  0
  -24.6374  -14.8177   20.3414 N   0  0  0  0  0  0  0  0  0  0  0  0
  -21.9852  -11.1813   20.7141 N   0  0  0  0  0  0  0  0  0  0  0  0
  -27.9738  -17.2575   22.7285 N   0  0  0  0  0  0  0  0  0  0  0  0
  -29.0507  -21.6898   21.0963 N   0  0  0  0  0  0  0  0  0  0  0  0
  -23.7125  -31.7230   23.7530 N   0  0  0  0  0  0  0  0  0  0  0  0
  -23.6350  -20.5096   22.4176 N   0  0  0  0  0  0  0  0  0  0  0  0
  -20.7134  -26.4809   21.1915 N   0  0  0  0  0  0  0  0  0  0  0  0
  -23.7656  -22.3329   20.8977 N   0  3  0  0  0  0  0  0  0  0  0  0
  -20.5122  -25.3163   17.7752 N   0  3  0  0  0  0  0  0  0  0  0  0
  -22.0026  -13.4413   20.3253 O   0  0  0  0  0  0  0  0  0  0  0  0
  -30.9787  -23.1272   19.8493 O   0  0  0  0  0  0  0  0  0  0  0  0
  -30.8314  -25.6888   19.2413 O   0  0  0  0  0  0  0  0  0  0  0  0
  -24.7062  -29.6171   23.7547 O   0  0  0  0  0  0  0  0  0  0  0  0
  -20.8578  -29.1044   22.3339 O   0  0  0  0  0  0  0  0  0  0  0  0
  -22.2425  -25.2164   19.9916 O   0  0  0  0  0  0  0  0  0  0  0  0
  -30.2443  -17.2114   22.2548 O   0  0  0  0  0  0  0  0  0  0  0  0
  -23.6678   -5.9672   21.7226 O   0  0  0  0  0  0  0  0  0  0  0  0
  -28.7201  -27.2959   19.7315 O   0  0  0  0  0  0  0  0  0  1  0  0
  -19.4318   -4.8244   25.0624 F   0  0  0  0  0  0  0  0  0  0  0  0
  -24.0264   -4.4325   23.9939 F   0  0  0  0  0  0  0  0  0  0  0  0
  1  2  1  0  0  0  0
  1  5  2  0  0  0  0
  2  6  2  0  0  0  0
  3  8  2  0  0  0  0
  3 18  1  0  0  0  0
  4  9  1  0  0  0  0
  4 18  2  0  0  0  0
  5 20  1  0  0  0  0
  6 22  1  0  0  0  0
  7 10  2  0  0  0  0
  7 21  1  0  0  0  0
  8 27  1  0  0  0  0
  9 27  2  0  0  0  0
 10 28  1  0  0  0  0
 11 12  2  0  0  0  0
 11 29  1  0  0  0  0
 12 30  1  0  0  0  0
 13 23  1  0  0  0  0
 13 28  2  0  0  0  0
 14 24  1  0  0  0  0
 14 25  2  0  0  0  0
 15 24  2  0  0  0  0
 15 26  1  0  0  0  0
 16 25  1  0  0  0  0
 16 26  2  0  0  0  0
 17 30  2  0  0  0  0
 17 31  1  0  0  0  0
 18 32  1  0  0  0  0
 19 32  1  0  0  0  0
 19 33  2  0  0  0  0
 19 34  1  0  0  0  0
 20 22  2  0  0  0  0
 20 42  1  0  0  0  0
 21 23  2  0  0  0  0
 21 43  1  0  0  0  0
 22 51  1  0  0  0  0
 23 44  1  0  0  0  0
 24 60  1  0  0  0  0
 25 72  1  0  0  0  0
 26 73  1  0  0  0  0
 27 86  1  0  0  0  0
 28 87  1  0  0  0  0
 29 31  2  0  0  0  0
 29 86  1  0  0  0  0
 30 88  1  0  0  0  0
 31 89  1  0  0  0  0
 32 66  2  0  0  0  0
 33 67  1  0  0  0  0
 33 70  1  0  0  0  0
 34 71  1  0  0  0  0
 34 79  2  0  0  0  0
 35 36  1  0  0  0  0
 35 61  1  0  0  0  0
 35 80  2  0  0  0  0
 36 62  1  0  0  0  0
 36 81  2  0  0  0  0
 37 52  1  0  0  0  0
 37 74  1  0  0  0  0
 37 82  2  0  0  0  0
 38 63  1  0  0  0  0
 38 68  1  0  0  0  0
 38 83  2  0  0  0  0
 39 54  1  0  0  0  0
 39 75  1  0  0  0  0
 39 77  2  0  0  0  0
 40 64  1  0  0  0  0
 40 76  1  0  0  0  0
 40 84  2  0  0  0  0
 41 69  1  0  0  0  0
 41 72  1  0  0  0  0
 41 85  2  0  0  0  0
 42 45  1  0  0  0  0
 43 52  1  0  0  0  0
 44 68  1  0  0  0  0
 45 47  1  0  0  0  0
 46 48  1  0  0  0  0
 46 49  1  0  0  0  0
 47 51  1  0  0  0  0
 48 53  1  0  0  0  0
 49 69  1  0  0  0  0
 50 53  1  0  0  0  0
 50 69  1  0  0  0  0
 51 74  1  0  0  0  0
 52 68  1  0  0  0  0
 53 67  1  0  0  0  0
 55 64  1  0  0  0  0
 56 65  1  0  0  0  0
 57 65  1  0  0  0  0
 58 65  1  0  0  0  0
 59 78  1  0  0  0  0
 60 75  1  0  0  0  0
 61 73  1  0  0  0  0
 62 87  1  0  0  0  0
 63 65  1  0  0  0  0
 63 76  1  0  0  0  0
 64 78  1  0  0  0  0
 66 67  1  0  0  0  0
M  CHG  2  77   1  78   1
M  ISO  4  41 100  62 101  72 100  87 101
M  END
> <Batch ID>
0169

> <Smiles>
CNC(C)C(=O)NC(C(=O)N1Cc2cc([101O:1][101CH2:1]C(=O)C(=O)CNc3cc(CNC(C)=N)cc([100NH:0][100C:0](=O)N4CCCC(n5nc(-c6ccc(Oc7ccc(F)cc7F)cc6)c(C(N)=O)c5N)C4)c3)ccc2CC1C(=O)NC1CCCc2ccccc21)C(C)(C)C

> <Shape>
0.324

> <Color>
0.120

> <Negative vol penalty>
0.000

$$$$

  -OEChem-04052304173D

 91 99  0     1  0  0  0  0  0999 V2000
  -16.7805  -29.1696   24.2993 C   0  0  0  0  0  0  0  0  0  0  0  0
  -17.9074  -29.7227   24.8990 C   0  0  0  0  0  0  0  0  0  0  0  0
  -26.6365  -12.6796   21.8547 C   0  0  0  0  0  0  0  0  0  0  0  0
  -26.0087  -14.2459   20.1257 C   0  0  0  0  0  0  0  0  0  0  0  0
  -16.9251  -28.2386   23.2716 C   0  0  0  0  0  0  0  0  0  0  0  0
  -19.1797  -29.3441   24.4720 C   0  0  0  0  0  0  0  0  0  0  0  0
  -25.8013  -31.9532   23.6577 C   0  0  0  0  0  0  0  0  0  0  0  0
  -25.3313  -12.1887   21.8840 C   0  0  0  0  0  0  0  0  0  0  0  0
  -24.7034  -13.7550   20.1549 C   0  0  0  0  0  0  0  0  0  0  0  0
  -27.1221  -31.6649   23.9986 C   0  0  0  0  0  0  0  0  0  0  0  0
  -22.2516  -10.2770   22.1595 C   0  0  0  0  0  0  0  0  0  0  0  0
  -22.0797   -8.8931   22.1900 C   0  0  0  0  0  0  0  0  0  0  0  0
  -27.2499  -30.1073   22.1610 C   0  0  0  0  0  0  0  0  0  0  0  0
  -29.7747  -22.7432   21.9696 C   0  0  0  0  0  0  0  0  0  0  0  0
  -28.6747  -24.1102   20.3089 C   0  0  0  0  0  0  0  0  0  0  0  0
  -29.0865  -21.7708   19.8677 C   0  0  0  0  0  0  0  0  0  0  0  0
  -23.2460   -8.7019   20.0827 C   0  0  0  0  0  0  0  0  0  0  0  0
  -26.9752  -13.7083   20.9756 C   0  0  0  0  0  0  0  0  0  0  0  0
  -29.3864  -13.7584   20.1442 C   0  0  0  0  0  0  0  0  0  0  0  0
  -18.1998  -27.8557   22.8253 C   0  0  0  0  0  0  0  0  0  0  0  0
  -25.1904  -31.3116   22.5707 C   0  0  0  0  0  0  0  0  0  0  0  0
  -19.3416  -28.4060   23.4383 C   0  0  0  0  0  0  0  0  0  0  0  0
  -25.9221  -30.3912   21.8068 C   0  0  0  0  0  0  0  0  0  0  0  0
  -29.2708  -23.9787   21.5630 C   0  0  0  0  0  0  0  0  0  0  0  0
  -29.6826  -21.6393   21.1219 C   0  0  0  0  0  0  0  0  0  0  0  0
  -24.3647  -12.7263   21.0341 C   0  0  0  0  0  0  0  0  0  0  0  0
  -27.8457  -30.7396   23.2520 C   0  0  0  0  0  0  0  0  0  0  0  0
  -22.9205  -10.8734   21.0906 C   0  0  0  0  0  0  0  0  0  0  0  0
  -22.5770   -8.1055   21.1516 C   0  0  0  0  0  0  0  0  0  0  0  0
  -28.5825  -23.0063   19.4612 C   0  0  0  0  0  0  0  0  0  0  0  0
  -23.4178  -10.0858   20.0522 C   0  0  0  0  0  0  0  0  0  0  0  0
  -28.3232  -14.2163   20.9453 C   0  0  0  0  0  0  0  0  0  0  0  0
  -30.4457  -14.5627   20.4870 C   0  0  0  0  0  0  0  0  0  0  0  0
  -28.7946  -28.0748   23.9834 C   0  0  0  0  0  0  0  0  0  0  0  0
  -29.4140  -12.7007   19.1767 C   0  0  0  0  0  0  0  0  0  0  0  0
  -29.1267  -27.3810   22.8786 C   0  0  0  0  0  0  0  0  0  0  0  0
  -28.4868  -26.0752   22.4787 C   0  0  0  0  0  0  0  0  0  0  0  0
  -22.6935  -29.3756   22.2229 C   0  0  0  0  0  0  0  0  0  0  0  0
  -24.9774  -25.0557   22.4625 C   0  0  0  0  0  0  0  0  0  0  0  0
  -23.3314  -29.7576   19.0655 C   0  0  0  0  0  0  0  0  0  0  0  0
  -25.6116  -30.5115   16.6409 C   0  0  0  0  0  0  0  0  0  0  0  0
  -30.8169  -20.0824   22.7454 C   0  0  0  0  0  0  0  0  0  0  0  0
  -18.3064  -26.8104   21.7433 C   0  0  0  0  0  0  0  0  0  0  0  0
  -23.7734  -31.6536   22.1997 C   0  0  0  0  0  0  0  0  0  0  0  0
  -25.3188  -29.6901   20.6181 C   0  0  0  0  0  0  0  0  0  0  0  0
  -19.6868  -26.7431   21.0952 C   0  0  0  0  0  0  0  0  0  0  0  0
  -32.1812  -17.1098   24.1523 C   0  0  0  0  0  0  0  0  0  0  0  0
  -20.7779  -26.7472   22.1612 C   0  0  0  0  0  0  0  0  0  0  0  0
  -31.4478  -15.9887   23.4124 C   0  0  0  0  0  0  0  0  0  0  0  0
  -31.2675  -18.3041   24.4216 C   0  0  0  0  0  0  0  0  0  0  0  0
  -29.8428  -17.7146   22.5001 C   0  0  0  0  0  0  0  0  0  0  0  0
  -20.7384  -28.0393   22.9861 C   0  0  1  0  0  0  0  0  0  0  0  0
  -23.0882  -30.5597   21.3865 C   0  0  1  0  0  0  0  0  0  0  0  0
  -30.7399  -16.5164   22.1491 C   0  0  2  0  0  0  0  0  0  0  0  0
  -30.1378  -27.8927   21.8910 C   0  0  0  0  0  0  0  0  0  0  0  0
  -24.0087  -23.9363   22.1842 C   0  0  0  0  0  0  0  0  0  0  0  0
  -25.8478  -30.7036   14.1499 C   0  0  0  0  0  0  0  0  0  0  0  0
  -28.6326  -29.7598   25.8109 C   0  0  0  0  0  0  0  0  0  0  0  0
  -30.8519  -29.2482   24.7427 C   0  0  0  0  0  0  0  0  0  0  0  0
  -23.4051  -26.7156   18.8403 C   0  0  0  0  0  0  0  0  0  0  0  0
  -24.5546  -26.9765   16.6316 C   0  0  0  0  0  0  0  0  0  0  0  0
  -22.2488  -27.8739   16.9493 C   0  0  0  0  0  0  0  0  0  0  0  0
  -26.3130  -33.3817   16.8122 C   0  0  0  0  0  0  0  0  0  0  0  0
  -26.3582  -24.8973   21.8852 C   0  0  0  0  0  0  0  0  0  0  0  0
  -24.1977  -29.0442   18.0558 C   0  0  1  0  0  0  0  0  0  0  0  0
  -25.5383  -31.4414   15.4432 C   0  0  2  0  0  0  0  0  0  0  0  0
  -29.3454  -29.3869   24.5076 C   0  0  0  0  0  0  0  0  0  1  0  0
  -23.6126  -27.6641   17.6428 C   0  0  0  0  0  0  0  0  0  0  0  0
  -28.6750  -15.2325   21.7375 N   0  0  0  0  0  0  0  0  0  0  0  0
  -29.9712  -15.4198   21.4359 N   0  0  0  0  0  0  0  0  0  0  0  0
  -23.9283  -30.0535   20.2992 N   0  0  0  0  0  0  0  0  0  0  0  0
  -30.6349  -18.7521   23.1790 N   0  0  0  0  0  0  0  0  0  0  0  0
  -31.7275  -14.6132   20.0663 N   0  0  0  0  0  0  0  0  0  0  0  0
  -28.2375  -11.9744   18.9470 N   0  0  0  0  0  0  0  0  0  0  0  0
  -29.3613  -25.0637   22.3957 N   0  0  0  0  0  0  0  0  0  0  0  0
  -30.1951  -20.3842   21.5343 N   0  0  0  0  0  0  0  0  0  0  0  0
  -21.3338  -29.1304   22.2450 N   0  0  0  0  0  0  0  0  0  0  0  0
  -24.3795  -29.9727   16.9453 N   0  0  0  0  0  0  0  0  0  0  0  0
  -27.1628  -26.0617   22.2770 N   0  3  0  0  0  0  0  0  0  0  0  0
  -26.5149  -32.5571   15.5931 N   0  3  0  0  0  0  0  0  0  0  0  0
  -30.4555  -12.3975   18.5467 O   0  0  0  0  0  0  0  0  0  0  0  0
  -23.5588  -28.7311   22.8041 O   0  0  0  0  0  0  0  0  0  0  0  0
  -24.6396  -26.0355   23.1255 O   0  0  0  0  0  0  0  0  0  0  0  0
  -22.1701  -30.0482   18.7678 O   0  0  0  0  0  0  0  0  0  0  0  0
  -26.6581  -30.2829   17.2436 O   0  0  0  0  0  0  0  0  0  0  0  0
  -31.4986  -20.8864   23.3864 O   0  0  0  0  0  0  0  0  0  0  0  0
  -23.0910  -12.2473   21.0622 O   0  0  0  0  0  0  0  0  0  0  0  0
  -29.1423  -30.4542   23.5849 O   0  0  0  0  0  0  0  0  0  1  0  0
  -22.4133   -6.7765   21.1818 F   0  0  0  0  0  0  0  0  0  0  0  0
  -28.0108  -23.1331   18.2565 F   0  0  0  0  0  0  0  0  0  0  0  0
  -24.0623  -10.6529   19.0233 F   0  0  0  0  0  0  0  0  0  0  0  0
  1  2  1  0  0  0  0
  1  5  2  0  0  0  0
  2  6  2  0  0  0  0
  3  8  2  0  0  0  0
  3 18  1  0  0  0  0
  4  9  1  0  0  0  0
  4 18  2  0  0  0  0
  5 20  1  0  0  0  0
  6 22  1  0  0  0  0
  7 10  2  0  0  0  0
  7 21  1  0  0  0  0
  8 26  1  0  0  0  0
  9 26  2  0  0  0  0
 10 27  1  0  0  0  0
 11 12  2  0  0  0  0
 11 28  1  0  0  0  0
 12 29  1  0  0  0  0
 13 23  1  0  0  0  0
 13 27  2  0  0  0  0
 14 24  2  0  0  0  0
 14 25  1  0  0  0  0
 15 24  1  0  0  0  0
 15 30  2  0  0  0  0
 16 25  2  0  0  0  0
 16 30  1  0  0  0  0
 17 29  2  0  0  0  0
 17 31  1  0  0  0  0
 18 32  1  0  0  0  0
 19 32  1  0  0  0  0
 19 33  2  0  0  0  0
 19 35  1  0  0  0  0
 20 22  2  0  0  0  0
 20 43  1  0  0  0  0
 21 23  2  0  0  0  0
 21 44  1  0  0  0  0
 22 52  1  0  0  0  0
 23 45  1  0  0  0  0
 24 75  1  0  0  0  0
 25 76  1  0  0  0  0
 26 87  1  0  0  0  0
 27 88  1  0  0  0  0
 28 31  2  0  0  0  0
 28 87  1  0  0  0  0
 29 89  1  0  0  0  0
 30 90  1  0  0  0  0
 31 91  1  0  0  0  0
 32 69  2  0  0  0  0
 33 70  1  0  0  0  0
 33 73  1  0  0  0  0
 34 36  2  0  0  0  0
 34 67  1  0  0  0  0
 35 74  1  0  0  0  0
 35 81  2  0  0  0  0
 36 37  1  0  0  0  0
 36 55  1  0  0  0  0
 37 75  1  0  0  0  0
 37 79  2  0  0  0  0
 38 53  1  0  0  0  0
 38 77  1  0  0  0  0
 38 82  2  0  0  0  0
 39 56  1  0  0  0  0
 39 64  1  0  0  0  0
 39 83  2  0  0  0  0
 40 65  1  0  0  0  0
 40 71  1  0  0  0  0
 40 84  2  0  0  0  0
 41 66  1  0  0  0  0
 41 78  1  0  0  0  0
 41 85  2  0  0  0  0
 42 72  1  0  0  0  0
 42 76  1  0  0  0  0
 42 86  2  0  0  0  0
 43 46  1  0  0  0  0
 44 53  1  0  0  0  0
 45 71  1  0  0  0  0
 46 48  1  0  0  0  0
 47 49  1  0  0  0  0
 47 50  1  0  0  0  0
 48 52  1  0  0  0  0
 49 54  1  0  0  0  0
 50 72  1  0  0  0  0
 51 54  1  0  0  0  0
 51 72  1  0  0  0  0
 52 77  1  0  0  0  0
 53 71  1  0  0  0  0
 54 70  1  0  0  0  0
 57 66  1  0  0  0  0
 58 67  1  0  0  0  0
 59 67  1  0  0  0  0
 60 68  1  0  0  0  0
 61 68  1  0  0  0  0
 62 68  1  0  0  0  0
 63 80  1  0  0  0  0
 64 79  1  0  0  0  0
 65 68  1  0  0  0  0
 65 78  1  0  0  0  0
 66 80  1  0  0  0  0
 67 88  1  0  0  0  0
 69 70  1  0  0  0  0
M  CHG  2  79   1  80   1
M  ISO  4  42 100  67 101  76 100  88 101
M  END
> <Batch ID>
0169

> <Smiles>
CNC(C)C(=O)NC(C(=O)N1Cc2cc([101O:1][101C:1](C)(C)C=C(C)C(=NCC(C)=O)Nc3cc(F)cc([100NH:0][100C:0](=O)N4CCCC(n5nc(-c6ccc(Oc7ccc(F)cc7F)cc6)c(C(N)=O)c5N)C4)c3)ccc2CC1C(=O)NC1CCCc2ccccc21)C(C)(C)C

> <Shape>
0.336

> <Color>
0.113

> <Negative vol penalty>
0.000

$$$$

  -OEChem-04052304173D

 87 95  0     1  0  0  0  0  0999 V2000
  -17.2749  -25.0772   25.0066 C   0  0  0  0  0  0  0  0  0  0  0  0
  -18.0055  -24.2048   24.2062 C   0  0  0  0  0  0  0  0  0  0  0  0
  -24.9827  -13.6621   22.7580 C   0  0  0  0  0  0  0  0  0  0  0  0
  -26.6429  -13.9387   21.0247 C   0  0  0  0  0  0  0  0  0  0  0  0
  -17.3215  -26.4492   24.7633 C   0  0  0  0  0  0  0  0  0  0  0  0
  -18.7822  -24.7039   23.1612 C   0  0  0  0  0  0  0  0  0  0  0  0
  -24.8713  -23.4063   19.6178 C   0  0  0  0  0  0  0  0  0  0  0  0
  -30.6517  -21.7621   18.4657 C   0  0  0  0  0  0  0  0  0  0  0  0
  -30.1759  -21.1282   19.6135 C   0  0  0  0  0  0  0  0  0  0  0  0
  -24.2805  -12.7738   21.9436 C   0  0  0  0  0  0  0  0  0  0  0  0
  -25.9407  -13.0503   20.2103 C   0  0  0  0  0  0  0  0  0  0  0  0
  -25.3463  -23.2392   18.3177 C   0  0  0  0  0  0  0  0  0  0  0  0
  -24.5085   -9.5292   21.0197 C   0  0  0  0  0  0  0  0  0  0  0  0
  -24.0412   -8.3496   21.5991 C   0  0  0  0  0  0  0  0  0  0  0  0
  -25.4129  -25.6347   18.0407 C   0  0  0  0  0  0  0  0  0  0  0  0
  -28.9023  -23.1027   20.1760 C   0  0  0  0  0  0  0  0  0  0  0  0
  -21.7749   -8.9725   21.0397 C   0  0  0  0  0  0  0  0  0  0  0  0
  -26.1640  -14.2446   22.2985 C   0  0  0  0  0  0  0  0  0  0  0  0
  -27.9055  -14.8492   24.0618 C   0  0  0  0  0  0  0  0  0  0  0  0
  -18.1069  -26.9662   23.7209 C   0  0  0  0  0  0  0  0  0  0  0  0
  -24.6529  -24.6908   20.1362 C   0  0  0  0  0  0  0  0  0  0  0  0
  -18.8383  -26.0841   22.9029 C   0  0  0  0  0  0  0  0  0  0  0  0
  -24.9375  -25.8154   19.3485 C   0  0  0  0  0  0  0  0  0  0  0  0
  -30.2529  -23.0664   18.1731 C   0  0  0  0  0  0  0  0  0  0  0  0
  -29.3012  -21.7985   20.4686 C   0  0  0  0  0  0  0  0  0  0  0  0
  -24.7594  -12.4679   20.6697 C   0  0  0  0  0  0  0  0  0  0  0  0
  -25.6144  -24.3534   17.5279 C   0  0  0  0  0  0  0  0  0  0  0  0
  -23.6090  -10.4306   20.4504 C   0  0  0  0  0  0  0  0  0  0  0  0
  -22.6745   -8.0712   21.6091 C   0  0  0  0  0  0  0  0  0  0  0  0
  -29.3781  -23.7366   19.0282 C   0  0  0  0  0  0  0  0  0  0  0  0
  -22.2422  -10.1522   20.4604 C   0  0  0  0  0  0  0  0  0  0  0  0
  -26.8896  -15.1628   23.1391 C   0  0  0  0  0  0  0  0  0  0  0  0
  -28.2665  -16.0603   24.5997 C   0  0  0  0  0  0  0  0  0  0  0  0
  -28.4722  -13.5769   24.4022 C   0  0  0  0  0  0  0  0  0  0  0  0
  -28.0972  -23.6372   14.2562 C   0  0  0  0  0  0  0  0  0  0  0  0
  -29.2460  -23.1256   15.0756 C   0  0  0  0  0  0  0  0  0  0  0  0
  -22.1133  -26.2772   21.2029 C   0  0  0  0  0  0  0  0  0  0  0  0
  -24.3269  -28.5144   21.9888 C   0  0  0  0  0  0  0  0  0  0  0  0
  -27.4152  -29.8555   21.4310 C   0  0  0  0  0  0  0  0  0  0  0  0
  -27.9465  -21.6782   22.5892 C   0  0  0  0  0  0  0  0  0  0  0  0
  -18.0884  -28.4527   23.4667 C   0  0  0  0  0  0  0  0  0  0  0  0
  -24.1656  -24.8545   21.5498 C   0  0  0  0  0  0  0  0  0  0  0  0
  -24.7391  -27.2162   19.8650 C   0  0  0  0  0  0  0  0  0  0  0  0
  -19.2308  -28.9324   22.5750 C   0  0  0  0  0  0  0  0  0  0  0  0
  -26.4949  -20.4005   25.5787 C   0  0  0  0  0  0  0  0  0  0  0  0
  -19.3743  -28.0254   21.3570 C   0  0  0  0  0  0  0  0  0  0  0  0
  -26.5294  -18.8836   25.3789 C   0  0  0  0  0  0  0  0  0  0  0  0
  -26.2012  -21.1379   24.2735 C   0  0  0  0  0  0  0  0  0  0  0  0
  -27.1157  -19.2711   22.9514 C   0  0  0  0  0  0  0  0  0  0  0  0
  -19.7121  -26.5893   21.7754 C   0  0  1  0  0  0  0  0  0  0  0  0
  -23.4912  -26.2004   21.7972 C   0  0  1  0  0  0  0  0  0  0  0  0
  -27.4724  -18.4884   24.2256 C   0  0  2  0  0  0  0  0  0  0  0  0
  -31.5626  -25.0170   17.2395 C   0  0  0  0  0  0  0  0  0  0  0  0
  -28.9299  -31.7013   22.2030 C   0  0  0  0  0  0  0  0  0  0  0  0
  -22.6561  -30.5350   20.4281 C   0  0  0  0  0  0  0  0  0  0  0  0
  -24.6374  -32.0656   20.4244 C   0  0  0  0  0  0  0  0  0  0  0  0
  -23.5861  -31.3944   22.5848 C   0  0  0  0  0  0  0  0  0  0  0  0
  -29.4907  -27.9397   22.3147 C   0  0  0  0  0  0  0  0  0  0  0  0
  -26.7931  -22.8792   14.3729 C   0  0  0  0  0  0  0  0  0  0  0  0
  -26.2657  -22.8550   15.7998 C   0  0  0  0  0  0  0  0  0  1  0  0
  -30.7700  -23.7498   16.9256 C   0  0  2  0  0  0  0  0  0  0  0  0
  -24.9433  -29.7009   21.2878 C   0  0  1  0  0  0  0  0  0  0  0  0
  -28.5312  -30.2448   22.3835 C   0  0  2  0  0  0  0  0  0  0  0  0
  -23.9578  -30.8977   21.1706 C   0  0  0  0  0  0  0  0  0  0  0  0
  -26.6223  -16.4706   23.0911 N   0  0  0  0  0  0  0  0  0  0  0  0
  -27.4755  -16.9895   23.9905 N   0  0  0  0  0  0  0  0  0  0  0  0
  -24.2550  -27.3241   21.2512 N   0  0  0  0  0  0  0  0  0  0  0  0
  -27.1362  -20.7160   23.2282 N   0  0  0  0  0  0  0  0  0  0  0  0
  -29.1802  -16.4105   25.5298 N   0  0  0  0  0  0  0  0  0  0  0  0
  -27.9850  -12.4336   23.7542 N   0  0  0  0  0  0  0  0  0  0  0  0
  -28.8194  -21.1553   21.6356 N   0  0  0  0  0  0  0  0  0  0  0  0
  -29.6971  -24.0370   16.0023 N   0  0  0  0  0  0  0  0  0  0  0  0
  -21.1108  -26.4824   22.1315 N   0  0  0  0  0  0  0  0  0  0  0  0
  -26.1731  -30.0080   22.0100 N   0  0  0  0  0  0  0  0  0  0  0  0
  -29.7332  -29.3959   22.1477 N   0  3  0  0  0  0  0  0  0  0  0  0
  -29.3721  -13.4556   25.2676 O   0  0  0  0  0  0  0  0  0  0  0  0
  -28.2990  -24.6259   13.5672 O   0  0  0  0  0  0  0  0  0  0  0  0
  -29.6310  -21.9860   14.8663 O   0  0  0  0  0  0  0  0  0  0  0  0
  -21.9705  -26.1605   19.9915 O   0  0  0  0  0  0  0  0  0  0  0  0
  -23.9306  -28.6372   23.1504 O   0  0  0  0  0  0  0  0  0  0  0  0
  -27.6241  -29.4595   20.2864 O   0  0  0  0  0  0  0  0  0  0  0  0
  -27.8910  -22.8742   22.8867 O   0  0  0  0  0  0  0  0  0  0  0  0
  -24.0745  -11.6009   19.8749 O   0  0  0  0  0  0  0  0  0  0  0  0
  -26.0774  -24.1932   16.2584 O   0  0  0  0  0  0  0  0  0  1  0  0
  -22.2261   -6.9376   22.1642 F   0  0  0  0  0  0  0  0  0  0  0  0
  -28.9891  -24.9899   18.7554 F   0  0  0  0  0  0  0  0  0  0  0  0
  -21.3733  -11.0137   19.9139 F   0  0  0  0  0  0  0  0  0  0  0  0
  1  2  1  0  0  0  0
  1  5  2  0  0  0  0
  2  6  2  0  0  0  0
  3 10  2  0  0  0  0
  3 18  1  0  0  0  0
  4 11  1  0  0  0  0
  4 18  2  0  0  0  0
  5 20  1  0  0  0  0
  6 22  1  0  0  0  0
  7 12  2  0  0  0  0
  7 21  1  0  0  0  0
  8  9  2  0  0  0  0
  8 24  1  0  0  0  0
  9 25  1  0  0  0  0
 10 26  1  0  0  0  0
 11 26  2  0  0  0  0
 12 27  1  0  0  0  0
 13 14  2  0  0  0  0
 13 28  1  0  0  0  0
 14 29  1  0  0  0  0
 15 23  1  0  0  0  0
 15 27  2  0  0  0  0
 16 25  2  0  0  0  0
 16 30  1  0  0  0  0
 17 29  2  0  0  0  0
 17 31  1  0  0  0  0
 18 32  1  0  0  0  0
 19 32  1  0  0  0  0
 19 33  2  0  0  0  0
 19 34  1  0  0  0  0
 20 22  2  0  0  0  0
 20 41  1  0  0  0  0
 21 23  2  0  0  0  0
 21 42  1  0  0  0  0
 22 50  1  0  0  0  0
 23 43  1  0  0  0  0
 24 30  2  0  0  0  0
 24 61  1  0  0  0  0
 25 71  1  0  0  0  0
 26 83  1  0  0  0  0
 27 84  1  0  0  0  0
 28 31  2  0  0  0  0
 28 83  1  0  0  0  0
 29 85  1  0  0  0  0
 30 86  1  0  0  0  0
 31 87  1  0  0  0  0
 32 65  2  0  0  0  0
 33 66  1  0  0  0  0
 33 69  1  0  0  0  0
 34 70  1  0  0  0  0
 34 76  2  0  0  0  0
 35 36  1  0  0  0  0
 35 59  1  0  0  0  0
 35 77  2  0  0  0  0
 36 72  1  0  0  0  0
 36 78  2  0  0  0  0
 37 51  1  0  0  0  0
 37 73  1  0  0  0  0
 37 79  2  0  0  0  0
 38 62  1  0  0  0  0
 38 67  1  0  0  0  0
 38 80  2  0  0  0  0
 39 63  1  0  0  0  0
 39 74  1  0  0  0  0
 39 81  2  0  0  0  0
 40 68  1  0  0  0  0
 40 71  1  0  0  0  0
 40 82  2  0  0  0  0
 41 44  1  0  0  0  0
 42 51  1  0  0  0  0
 43 67  1  0  0  0  0
 44 46  1  0  0  0  0
 45 47  1  0  0  0  0
 45 48  1  0  0  0  0
 46 50  1  0  0  0  0
 47 52  1  0  0  0  0
 48 68  1  0  0  0  0
 49 52  1  0  0  0  0
 49 68  1  0  0  0  0
 50 73  1  0  0  0  0
 51 67  1  0  0  0  0
 52 66  1  0  0  0  0
 53 61  1  0  0  0  0
 54 63  1  0  0  0  0
 55 64  1  0  0  0  0
 56 64  1  0  0  0  0
 57 64  1  0  0  0  0
 58 75  1  0  0  0  0
 59 60  1  0  0  0  0
 60 84  1  0  0  0  0
 61 72  1  0  0  0  0
 62 64  1  0  0  0  0
 62 74  1  0  0  0  0
 63 75  1  0  0  0  0
 65 66  1  0  0  0  0
M  CHG  1  75   1
M  ISO  4  40 100  60 101  71 100  84 101
M  END
> <Batch ID>
0169

> <Smiles>
CNC(C)C(=O)NC(C(=O)N1Cc2cc([101O:1][101CH2:1]CC(=O)C(=O)NC(C)c3ccc([100NH:0][100C:0](=O)N4CCCC(n5nc(-c6ccc(Oc7ccc(F)cc7F)cc6)c(C(N)=O)c5N)C4)cc3F)ccc2CC1C(=O)NC1CCCc2ccccc21)C(C)(C)C

> <Shape>
0.226

> <Color>
0.052

> <Negative vol penalty>
0.000

$$$$

  -OEChem-04052304173D

 87 96  0     1  0  0  0  0  0999 V2000
  -26.5103  -37.8108   20.6902 C   0  0  0  0  0  0  0  0  0  0  0  0
  -27.1078  -36.6022   20.3473 C   0  0  0  0  0  0  0  0  0  0  0  0
  -21.5450  -11.2862   19.3015 C   0  0  0  0  0  0  0  0  0  0  0  0
  -20.5129  -13.1472   18.1574 C   0  0  0  0  0  0  0  0  0  0  0  0
  -25.6389  -37.8729   21.7768 C   0  0  0  0  0  0  0  0  0  0  0  0
  -26.8351  -35.4550   21.0916 C   0  0  0  0  0  0  0  0  0  0  0  0
  -27.1000  -22.7335   21.6263 C   0  0  0  0  0  0  0  0  0  0  0  0
  -28.0580  -21.3435   19.8980 C   0  0  0  0  0  0  0  0  0  0  0  0
  -26.4364  -29.7146   18.9952 C   0  0  0  0  0  0  0  0  0  0  0  0
  -26.0396  -21.8372   21.7594 C   0  0  0  0  0  0  0  0  0  0  0  0
  -26.9977  -20.4471   20.0312 C   0  0  0  0  0  0  0  0  0  0  0  0
  -20.6342  -10.4144   18.7050 C   0  0  0  0  0  0  0  0  0  0  0  0
  -19.6021  -12.2753   17.5609 C   0  0  0  0  0  0  0  0  0  0  0  0
  -27.3431  -28.6557   18.9823 C   0  0  0  0  0  0  0  0  0  0  0  0
  -20.2186   -8.9188   15.7011 C   0  0  0  0  0  0  0  0  0  0  0  0
  -20.7148   -7.7314   15.1631 C   0  0  0  0  0  0  0  0  0  0  0  0
  -26.3541  -27.7921   21.0060 C   0  0  0  0  0  0  0  0  0  0  0  0
  -19.3066   -6.4637   16.6620 C   0  0  0  0  0  0  0  0  0  0  0  0
  -21.4843  -12.6527   19.0278 C   0  0  0  0  0  0  0  0  0  0  0  0
  -23.8271  -13.5308   19.5257 C   0  0  0  0  0  0  0  0  0  0  0  0
  -28.1092  -22.4867   20.6955 C   0  0  0  0  0  0  0  0  0  0  0  0
  -25.3479  -36.7238   22.5289 C   0  0  0  0  0  0  0  0  0  0  0  0
  -25.4872  -29.8264   20.0213 C   0  0  0  0  0  0  0  0  0  0  0  0
  -25.9601  -35.5020   22.1902 C   0  0  0  0  0  0  0  0  0  0  0  0
  -25.4348  -28.8520   21.0282 C   0  0  0  0  0  0  0  0  0  0  0  0
  -25.9885  -20.6939   20.9620 C   0  0  0  0  0  0  0  0  0  0  0  0
  -19.6628  -10.9088   17.8346 C   0  0  0  0  0  0  0  0  0  0  0  0
  -27.3040  -27.6958   19.9894 C   0  0  0  0  0  0  0  0  0  0  0  0
  -19.2663   -8.8786   16.7196 C   0  0  0  0  0  0  0  0  0  0  0  0
  -20.2589   -6.5039   15.6435 C   0  0  0  0  0  0  0  0  0  0  0  0
  -18.8103   -7.6511   17.2000 C   0  0  0  0  0  0  0  0  0  0  0  0
  -22.4245  -13.5539   19.6442 C   0  0  0  0  0  0  0  0  0  0  0  0
  -24.2540  -14.5854   20.2952 C   0  0  0  0  0  0  0  0  0  0  0  0
  -29.9951  -25.4023   19.1111 C   0  0  0  0  0  0  0  0  0  0  0  0
  -24.6687  -12.6362   18.7861 C   0  0  0  0  0  0  0  0  0  0  0  0
  -24.8730  -31.9718   22.2849 C   0  0  0  0  0  0  0  0  0  0  0  0
  -22.2939  -30.0818   22.8313 C   0  0  0  0  0  0  0  0  0  0  0  0
  -21.6070  -26.5430   22.9808 C   0  0  0  0  0  0  0  0  0  0  0  0
  -23.8294  -19.8781   21.9716 C   0  0  0  0  0  0  0  0  0  0  0  0
  -24.4364  -36.8500   23.7238 C   0  0  0  0  0  0  0  0  0  0  0  0
  -24.4987  -30.9601   20.0063 C   0  0  0  0  0  0  0  0  0  0  0  0
  -24.4220  -28.9153   22.1412 C   0  0  0  0  0  0  0  0  0  0  0  0
  -29.2966  -24.0600   19.1349 C   0  0  0  0  0  0  0  0  0  0  0  0
  -23.9092  -35.5105   24.2319 C   0  0  0  0  0  0  0  0  0  0  0  0
  -21.7373  -17.4926   23.5870 C   0  0  0  0  0  0  0  0  0  0  0  0
  -25.0424  -34.4942   24.3321 C   0  0  0  0  0  0  0  0  0  0  0  0
  -21.8450  -16.2533   22.6955 C   0  0  0  0  0  0  0  0  0  0  0  0
  -30.5889  -22.7695   20.9266 C   0  0  0  0  0  0  0  0  0  0  0  0
  -21.7463  -18.7825   22.7686 C   0  0  0  0  0  0  0  0  0  0  0  0
  -22.9797  -17.6786   20.9440 C   0  0  0  0  0  0  0  0  0  0  0  0
  -31.7782  -23.7097   21.0578 C   0  0  0  0  0  0  0  0  0  0  0  0
  -29.2670  -23.4657   20.5501 C   0  0  2  0  0  0  0  0  0  0  0  0
  -25.6701  -34.2306   22.9581 C   0  0  1  0  0  0  0  0  0  0  0  0
  -23.9086  -31.2566   21.3815 C   0  0  1  0  0  0  0  0  0  0  0  0
  -23.0400  -16.3574   21.7277 C   0  0  2  0  0  0  0  0  0  0  0  0
  -19.4850  -25.2735   22.5532 C   0  0  0  0  0  0  0  0  0  0  0  0
  -21.8884  -30.3147   25.8465 C   0  0  0  0  0  0  0  0  0  0  0  0
  -20.9657  -27.9873   25.8319 C   0  0  0  0  0  0  0  0  0  0  0  0
  -19.8134  -29.7920   24.5521 C   0  0  0  0  0  0  0  0  0  0  0  0
  -22.9089  -24.8198   20.9573 C   0  0  0  0  0  0  0  0  0  0  0  0
  -29.1292  -26.6216   18.9074 C   0  0  0  0  0  0  0  0  0  1  0  0
  -22.0137  -28.8813   23.7027 C   0  0  1  0  0  0  0  0  0  0  0  0
  -20.8158  -25.7275   21.9740 C   0  0  2  0  0  0  0  0  0  0  0  0
  -21.1963  -29.2491   24.9732 C   0  0  0  0  0  0  0  0  0  0  0  0
  -21.9894  -14.5445   20.4274 N   0  0  0  0  0  0  0  0  0  0  0  0
  -31.2660  -25.5915   19.2690 N   0  0  0  0  0  0  0  0  0  0  0  0
  -23.1252  -15.1537   20.8081 N   0  0  0  0  0  0  0  0  0  0  0  0
  -23.4810  -30.0463   22.0860 N   0  0  0  0  0  0  0  0  0  0  0  0
  -22.9086  -18.8131   21.8782 N   0  0  0  0  0  0  0  0  0  0  0  0
  -25.4812  -15.0727   20.5764 N   0  0  0  0  0  0  0  0  0  0  0  0
  -24.0660  -11.6078   18.0490 N   0  0  0  0  0  0  0  0  0  0  0  0
  -24.9116  -19.7830   21.0972 N   0  0  0  0  0  0  0  0  0  0  0  0
  -24.8281  -33.3488   22.1785 N   0  0  0  0  0  0  0  0  0  0  0  0
  -21.3696  -27.8942   22.8429 N   0  0  0  0  0  0  0  0  0  0  0  0
  -21.5871  -24.5196   21.5653 N   0  3  0  0  0  0  0  0  0  0  0  0
  -25.9192  -12.7355   18.7924 O   0  0  0  0  0  0  0  0  0  0  0  0
  -25.6027  -31.3225   23.0249 O   0  0  0  0  0  0  0  0  0  0  0  0
  -21.4858  -31.0134   22.8072 O   0  0  0  0  0  0  0  0  0  0  0  0
  -22.3574  -26.0321   23.8093 O   0  0  0  0  0  0  0  0  0  0  0  0
  -23.6840  -20.7920   22.7874 O   0  0  0  0  0  0  0  0  0  0  0  0
  -32.2786  -23.3949   18.4933 O   0  0  0  0  0  0  0  0  0  0  0  0
  -33.6304  -25.0296   19.8232 O   0  0  0  0  0  0  0  0  0  0  0  0
  -18.7740  -10.0583   17.2522 O   0  0  0  0  0  0  0  0  0  0  0  0
  -28.1883  -26.6615   19.9795 O   0  0  0  0  0  0  0  0  0  1  0  0
  -20.7344   -5.3637   15.1257 F   0  0  0  0  0  0  0  0  0  0  0  0
  -17.8948   -7.6061   18.1775 F   0  0  0  0  0  0  0  0  0  0  0  0
  -32.3489  -24.4118   19.5261 S   0  0  0  0  0  0  0  0  0  0  0  0
  1  2  1  0  0  0  0
  1  5  2  0  0  0  0
  2  6  2  0  0  0  0
  3 12  2  0  0  0  0
  3 19  1  0  0  0  0
  4 13  1  0  0  0  0
  4 19  2  0  0  0  0
  5 22  1  0  0  0  0
  6 24  1  0  0  0  0
  7 10  2  0  0  0  0
  7 21  1  0  0  0  0
  8 11  1  0  0  0  0
  8 21  2  0  0  0  0
  9 14  2  0  0  0  0
  9 23  1  0  0  0  0
 10 26  1  0  0  0  0
 11 26  2  0  0  0  0
 12 27  1  0  0  0  0
 13 27  2  0  0  0  0
 14 28  1  0  0  0  0
 15 16  2  0  0  0  0
 15 29  1  0  0  0  0
 16 30  1  0  0  0  0
 17 25  1  0  0  0  0
 17 28  2  0  0  0  0
 18 30  2  0  0  0  0
 18 31  1  0  0  0  0
 19 32  1  0  0  0  0
 20 32  1  0  0  0  0
 20 33  2  0  0  0  0
 20 35  1  0  0  0  0
 21 52  1  0  0  0  0
 22 24  2  0  0  0  0
 22 40  1  0  0  0  0
 23 25  2  0  0  0  0
 23 41  1  0  0  0  0
 24 53  1  0  0  0  0
 25 42  1  0  0  0  0
 26 72  1  0  0  0  0
 27 83  1  0  0  0  0
 28 84  1  0  0  0  0
 29 31  2  0  0  0  0
 29 83  1  0  0  0  0
 30 85  1  0  0  0  0
 31 86  1  0  0  0  0
 32 65  2  0  0  0  0
 33 67  1  0  0  0  0
 33 70  1  0  0  0  0
 34 43  1  0  0  0  0
 34 61  1  0  0  0  0
 34 66  2  0  0  0  0
 35 71  1  0  0  0  0
 35 76  2  0  0  0  0
 36 54  1  0  0  0  0
 36 73  1  0  0  0  0
 36 77  2  0  0  0  0
 37 62  1  0  0  0  0
 37 68  1  0  0  0  0
 37 78  2  0  0  0  0
 38 63  1  0  0  0  0
 38 74  1  0  0  0  0
 38 79  2  0  0  0  0
 39 69  1  0  0  0  0
 39 72  1  0  0  0  0
 39 80  2  0  0  0  0
 40 44  1  0  0  0  0
 41 54  1  0  0  0  0
 42 68  1  0  0  0  0
 43 52  1  0  0  0  0
 44 46  1  0  0  0  0
 45 47  1  0  0  0  0
 45 49  1  0  0  0  0
 46 53  1  0  0  0  0
 47 55  1  0  0  0  0
 48 51  1  0  0  0  0
 48 52  1  0  0  0  0
 49 69  1  0  0  0  0
 50 55  1  0  0  0  0
 50 69  1  0  0  0  0
 51 87  1  0  0  0  0
 53 73  1  0  0  0  0
 54 68  1  0  0  0  0
 55 67  1  0  0  0  0
 56 63  1  0  0  0  0
 57 64  1  0  0  0  0
 58 64  1  0  0  0  0
 59 64  1  0  0  0  0
 60 75  1  0  0  0  0
 61 84  1  0  0  0  0
 62 64  1  0  0  0  0
 62 74  1  0  0  0  0
 63 75  1  0  0  0  0
 65 67  1  0  0  0  0
 66 87  1  0  0  0  0
 81 87  2  0  0  0  0
 82 87  2  0  0  0  0
M  CHG  1  75   1
M  ISO  4  39 100  61 101  72 100  84 101
M  END
> <Batch ID>
0169

> <Smiles>
CNC(C)C(=O)NC(C(=O)N1Cc2cc([101O:1][101CH2:1]C3=NS(=O)(=O)CCC(c4ccc([100NH:0][100C:0](=O)N5CCCC(n6nc(-c7ccc(Oc8ccc(F)cc8F)cc7)c(C(N)=O)c6N)C5)cc4)C3)ccc2CC1C(=O)NC1CCCc2ccccc21)C(C)(C)C

> <Shape>
0.214

> <Color>
0.115

> <Negative vol penalty>
0.000

$$$$

  -OEChem-04052304173D

 89 97  0     1  0  0  0  0  0999 V2000
  -30.9889  -25.9441   17.1957 C   0  0  0  0  0  0  0  0  0  0  0  0
  -29.6259  -25.7262   17.3695 C   0  0  0  0  0  0  0  0  0  0  0  0
  -25.3509  -13.9781   20.6672 C   0  0  0  0  0  0  0  0  0  0  0  0
  -23.4212  -15.2407   21.3877 C   0  0  0  0  0  0  0  0  0  0  0  0
  -31.7270  -26.5706   18.1990 C   0  0  0  0  0  0  0  0  0  0  0  0
  -29.0004  -26.1338   18.5472 C   0  0  0  0  0  0  0  0  0  0  0  0
  -23.2910  -28.2700   19.1346 C   0  0  0  0  0  0  0  0  0  0  0  0
  -24.8351  -12.8380   21.2833 C   0  0  0  0  0  0  0  0  0  0  0  0
  -22.9053  -14.1005   22.0038 C   0  0  0  0  0  0  0  0  0  0  0  0
  -22.0979  -27.6631   19.5244 C   0  0  0  0  0  0  0  0  0  0  0  0
  -22.4919  -10.4923   20.6200 C   0  0  0  0  0  0  0  0  0  0  0  0
  -22.5333   -9.2947   19.9062 C   0  0  0  0  0  0  0  0  0  0  0  0
  -22.4341  -28.4619   21.7756 C   0  0  0  0  0  0  0  0  0  0  0  0
  -26.1602  -23.6977   24.6683 C   0  0  0  0  0  0  0  0  0  0  0  0
  -24.0403  -23.0020   23.7413 C   0  0  0  0  0  0  0  0  0  0  0  0
  -23.8932   -8.3071   21.6418 C   0  0  0  0  0  0  0  0  0  0  0  0
  -24.6440  -15.1795   20.7194 C   0  0  0  0  0  0  0  0  0  0  0  0
  -24.9587  -16.7810   18.7588 C   0  0  0  0  0  0  0  0  0  0  0  0
  -31.1083  -26.9947   19.3856 C   0  0  0  0  0  0  0  0  0  0  0  0
  -24.0714  -28.9694   20.0664 C   0  0  0  0  0  0  0  0  0  0  0  0
  -29.7312  -26.7653   19.5679 C   0  0  0  0  0  0  0  0  0  0  0  0
  -23.6354  -29.0789   21.3946 C   0  0  0  0  0  0  0  0  0  0  0  0
  -25.4916  -24.4756   25.6135 C   0  0  0  0  0  0  0  0  0  0  0  0
  -25.4345  -22.9609   23.7322 C   0  0  0  0  0  0  0  0  0  0  0  0
  -23.3717  -23.7799   24.6865 C   0  0  0  0  0  0  0  0  0  0  0  0
  -23.6123  -12.8992   21.9516 C   0  0  0  0  0  0  0  0  0  0  0  0
  -21.6707  -27.7565   20.8457 C   0  0  0  0  0  0  0  0  0  0  0  0
  -23.1512  -10.5974   21.8448 C   0  0  0  0  0  0  0  0  0  0  0  0
  -23.2339   -8.2021   20.4170 C   0  0  0  0  0  0  0  0  0  0  0  0
  -23.8519   -9.5048   22.3557 C   0  0  0  0  0  0  0  0  0  0  0  0
  -24.0973  -24.5168   25.6226 C   0  0  0  0  0  0  0  0  0  0  0  0
  -25.1766  -16.3577   20.0837 C   0  0  0  0  0  0  0  0  0  0  0  0
  -25.6781  -17.9457   18.6477 C   0  0  0  0  0  0  0  0  0  0  0  0
  -24.1758  -16.1755   17.7214 C   0  0  0  0  0  0  0  0  0  0  0  0
  -27.0128  -28.6404   21.2255 C   0  0  0  0  0  0  0  0  0  0  0  0
  -19.4873  -25.5235   22.6915 C   0  0  0  0  0  0  0  0  0  0  0  0
  -26.3383  -31.4635   22.6737 C   0  0  0  0  0  0  0  0  0  0  0  0
  -21.0851  -23.1515   23.8389 C   0  0  0  0  0  0  0  0  0  0  0  0
  -23.9726  -33.6254   23.8469 C   0  0  0  0  0  0  0  0  0  0  0  0
  -27.4923  -22.0185   22.6259 C   0  0  0  0  0  0  0  0  0  0  0  0
  -31.9568  -27.6251   20.4614 C   0  0  0  0  0  0  0  0  0  0  0  0
  -25.3424  -29.6411   19.6241 C   0  0  0  0  0  0  0  0  0  0  0  0
  -24.4265  -29.8355   22.4291 C   0  0  0  0  0  0  0  0  0  0  0  0
  -31.1452  -28.3633   21.5228 C   0  0  0  0  0  0  0  0  0  0  0  0
  -29.5527  -20.1369   20.4142 C   0  0  0  0  0  0  0  0  0  0  0  0
  -29.9676  -27.5103   21.9835 C   0  0  0  0  0  0  0  0  0  0  0  0
  -28.6425  -18.9962   19.9532 C   0  0  0  0  0  0  0  0  0  0  0  0
  -29.3109  -20.4989   21.8785 C   0  0  0  0  0  0  0  0  0  0  0  0
  -27.0028  -19.6454   21.7633 C   0  0  0  0  0  0  0  0  0  0  0  0
  -29.0119  -27.2153   20.8210 C   0  0  1  0  0  0  0  0  0  0  0  0
  -26.3162  -29.8919   20.7714 C   0  0  1  0  0  0  0  0  0  0  0  0
  -27.1643  -19.2889   20.2765 C   0  0  2  0  0  0  0  0  0  0  0  0
  -27.1866  -24.3947   27.4878 C   0  0  0  0  0  0  0  0  0  0  0  0
  -23.7274  -35.8334   25.0139 C   0  0  0  0  0  0  0  0  0  0  0  0
  -27.1167  -30.1508   25.3159 C   0  0  0  0  0  0  0  0  0  0  0  0
  -25.9711  -32.0312   26.5075 C   0  0  0  0  0  0  0  0  0  0  0  0
  -27.9316  -32.4988   25.0376 C   0  0  0  0  0  0  0  0  0  0  0  0
  -22.4984  -34.7991   21.5648 C   0  0  0  0  0  0  0  0  0  0  0  0
  -19.3055  -24.9592   24.0929 C   0  0  0  0  0  0  0  0  0  0  0  0
  -20.4225  -26.7117   22.5795 C   0  0  0  0  0  0  0  0  0  1  0  0
  -19.6378  -23.4736   24.1937 C   0  0  0  0  0  0  0  0  0  0  0  0
  -26.2710  -25.2615   26.6136 C   0  0  1  0  0  0  0  0  0  0  0  0
  -25.7188  -31.8690   23.9893 C   0  0  1  0  0  0  0  0  0  0  0  0
  -23.8012  -35.1234   23.6711 C   0  0  2  0  0  0  0  0  0  0  0  0
  -26.6704  -31.6215   25.1938 C   0  0  0  0  0  0  0  0  0  0  0  0
  -25.9724  -17.1860   20.7653 N   0  0  0  0  0  0  0  0  0  0  0  0
  -26.2609  -18.1414   19.8652 N   0  0  0  0  0  0  0  0  0  0  0  0
  -25.6654  -30.4696   21.9490 N   0  0  0  0  0  0  0  0  0  0  0  0
  -27.8897  -20.7671   22.1093 N   0  0  0  0  0  0  0  0  0  0  0  0
  -25.8628  -18.8112   17.6283 N   0  0  0  0  0  0  0  0  0  0  0  0
  -23.5007  -14.9804   18.0050 N   0  0  0  0  0  0  0  0  0  0  0  0
  -21.9571  -23.8203   24.6935 N   0  0  0  0  0  0  0  0  0  0  0  0
  -26.1139  -22.1704   22.7723 N   0  0  0  0  0  0  0  0  0  0  0  0
  -28.1832  -28.3687   20.5429 N   0  0  0  0  0  0  0  0  0  0  0  0
  -25.3016  -33.2582   23.8331 N   0  0  0  0  0  0  0  0  0  0  0  0
  -27.1255  -26.3326   25.9958 N   0  3  0  0  0  0  0  0  0  0  0  0
  -22.5509  -35.4165   22.9150 N   0  3  0  0  0  0  0  0  0  0  0  0
  -24.0910  -16.6707   16.5720 O   0  0  0  0  0  0  0  0  0  0  0  0
  -26.5254  -27.9716   22.1292 O   0  0  0  0  0  0  0  0  0  0  0  0
  -18.9203  -25.0514   21.7074 O   0  0  0  0  0  0  0  0  0  0  0  0
  -27.3770  -32.0136   22.2994 O   0  0  0  0  0  0  0  0  0  0  0  0
  -21.3788  -22.3963   22.9183 O   0  0  0  0  0  0  0  0  0  0  0  0
  -23.0227  -32.8581   23.9867 O   0  0  0  0  0  0  0  0  0  0  0  0
  -28.3124  -22.9011   22.8914 O   0  0  0  0  0  0  0  0  0  0  0  0
  -23.1085  -11.7868   22.5527 O   0  0  0  0  0  0  0  0  0  0  0  0
  -20.5068  -27.1645   21.2289 O   0  0  0  0  0  0  0  0  0  1  0  0
  -23.2723   -7.0517   19.7321 F   0  0  0  0  0  0  0  0  0  0  0  0
  -24.4862   -9.5993   23.5323 F   0  0  0  0  0  0  0  0  0  0  0  0
  -23.4565  -25.2662   26.5323 F   0  0  0  0  0  0  0  0  0  0  0  0
  1  2  1  0  0  0  0
  1  5  2  0  0  0  0
  2  6  2  0  0  0  0
  3  8  2  0  0  0  0
  3 17  1  0  0  0  0
  4  9  1  0  0  0  0
  4 17  2  0  0  0  0
  5 19  1  0  0  0  0
  6 21  1  0  0  0  0
  7 10  2  0  0  0  0
  7 20  1  0  0  0  0
  8 26  1  0  0  0  0
  9 26  2  0  0  0  0
 10 27  1  0  0  0  0
 11 12  2  0  0  0  0
 11 28  1  0  0  0  0
 12 29  1  0  0  0  0
 13 22  1  0  0  0  0
 13 27  2  0  0  0  0
 14 23  2  0  0  0  0
 14 24  1  0  0  0  0
 15 24  2  0  0  0  0
 15 25  1  0  0  0  0
 16 29  2  0  0  0  0
 16 30  1  0  0  0  0
 17 32  1  0  0  0  0
 18 32  1  0  0  0  0
 18 33  2  0  0  0  0
 18 34  1  0  0  0  0
 19 21  2  0  0  0  0
 19 41  1  0  0  0  0
 20 22  2  0  0  0  0
 20 42  1  0  0  0  0
 21 50  1  0  0  0  0
 22 43  1  0  0  0  0
 23 31  1  0  0  0  0
 23 62  1  0  0  0  0
 24 73  1  0  0  0  0
 25 31  2  0  0  0  0
 25 72  1  0  0  0  0
 26 85  1  0  0  0  0
 27 86  1  0  0  0  0
 28 30  2  0  0  0  0
 28 85  1  0  0  0  0
 29 87  1  0  0  0  0
 30 88  1  0  0  0  0
 31 89  1  0  0  0  0
 32 66  2  0  0  0  0
 33 67  1  0  0  0  0
 33 70  1  0  0  0  0
 34 71  1  0  0  0  0
 34 78  2  0  0  0  0
 35 51  1  0  0  0  0
 35 74  1  0  0  0  0
 35 79  2  0  0  0  0
 36 59  1  0  0  0  0
 36 60  1  0  0  0  0
 36 80  2  0  0  0  0
 37 63  1  0  0  0  0
 37 68  1  0  0  0  0
 37 81  2  0  0  0  0
 38 61  1  0  0  0  0
 38 72  1  0  0  0  0
 38 82  2  0  0  0  0
 39 64  1  0  0  0  0
 39 75  1  0  0  0  0
 39 83  2  0  0  0  0
 40 69  1  0  0  0  0
 40 73  1  0  0  0  0
 40 84  2  0  0  0  0
 41 44  1  0  0  0  0
 42 51  1  0  0  0  0
 43 68  1  0  0  0  0
 44 46  1  0  0  0  0
 45 47  1  0  0  0  0
 45 48  1  0  0  0  0
 46 50  1  0  0  0  0
 47 52  1  0  0  0  0
 48 69  1  0  0  0  0
 49 52  1  0  0  0  0
 49 69  1  0  0  0  0
 50 74  1  0  0  0  0
 51 68  1  0  0  0  0
 52 67  1  0  0  0  0
 53 62  1  0  0  0  0
 54 64  1  0  0  0  0
 55 65  1  0  0  0  0
 56 65  1  0  0  0  0
 57 65  1  0  0  0  0
 58 77  1  0  0  0  0
 59 61  1  0  0  0  0
 60 86  1  0  0  0  0
 62 76  1  0  0  0  0
 63 65  1  0  0  0  0
 63 75  1  0  0  0  0
 64 77  1  0  0  0  0
 66 67  1  0  0  0  0
M  CHG  2  76   1  77   1
M  ISO  4  40 100  60 101  73 100  86 101
M  END
> <Batch ID>
0169

> <Smiles>
CNC(C)C(=O)NC(C(=O)N1Cc2cc([101O:1][101CH2:1]C(=O)CCC(=O)Nc3cc([100NH:0][100C:0](=O)N4CCCC(n5nc(-c6ccc(Oc7ccc(F)cc7F)cc6)c(C(N)=O)c5N)C4)cc(C(C)N)c3F)ccc2CC1C(=O)NC1CCCc2ccccc21)C(C)(C)C

> <Shape>
0.284

> <Color>
0.066

> <Negative vol penalty>
0.000

$$$$

  -OEChem-04052304173D

 99107  0     1  0  0  0  0  0999 V2000
  -17.2162  -11.7560   21.3454 C   0  0  0  0  0  0  0  0  0  0  0  0
  -17.7609  -12.9393   20.8571 C   0  0  0  0  0  0  0  0  0  0  0  0
  -24.6727  -31.9526   26.1445 C   0  0  0  0  0  0  0  0  0  0  0  0
  -27.0191  -31.3877   26.0346 C   0  0  0  0  0  0  0  0  0  0  0  0
  -17.9353  -10.9823   22.2554 C   0  0  0  0  0  0  0  0  0  0  0  0
  -19.0248  -13.3501   21.2795 C   0  0  0  0  0  0  0  0  0  0  0  0
  -23.2333  -16.3120   17.9597 C   0  0  0  0  0  0  0  0  0  0  0  0
  -24.7484  -31.9967   27.5366 C   0  0  0  0  0  0  0  0  0  0  0  0
  -27.0949  -31.4318   27.4267 C   0  0  0  0  0  0  0  0  0  0  0  0
  -23.5822  -17.6591   17.8735 C   0  0  0  0  0  0  0  0  0  0  0  0
  -24.7978  -29.7930   30.0990 C   0  0  0  0  0  0  0  0  0  0  0  0
  -23.7824  -29.1679   30.8227 C   0  0  0  0  0  0  0  0  0  0  0  0
  -25.3578  -17.2949   19.4653 C   0  0  0  0  0  0  0  0  0  0  0  0
  -28.5697  -25.0862   18.6186 C   0  0  0  0  0  0  0  0  0  0  0  0
  -29.9735  -26.4052   20.0769 C   0  0  0  0  0  0  0  0  0  0  0  0
  -23.2233  -31.2770   31.8601 C   0  0  0  0  0  0  0  0  0  0  0  0
  -25.8080  -31.6480   25.3935 C   0  0  0  0  0  0  0  0  0  0  0  0
  -25.9443  -32.6649   23.0579 C   0  0  0  0  0  0  0  0  0  0  0  0
  -19.2126  -11.3789   22.6818 C   0  0  0  0  0  0  0  0  0  0  0  0
  -23.9383  -15.4471   18.8090 C   0  0  0  0  0  0  0  0  0  0  0  0
  -19.7610  -12.5817   22.1971 C   0  0  0  0  0  0  0  0  0  0  0  0
  -25.0175  -15.9367   19.5585 C   0  0  0  0  0  0  0  0  0  0  0  0
  -29.6975  -24.4284   18.1278 C   0  0  0  0  0  0  0  0  0  0  0  0
  -28.7077  -26.0747   19.5931 C   0  0  0  0  0  0  0  0  0  0  0  0
  -31.1014  -25.7474   19.5862 C   0  0  0  0  0  0  0  0  0  0  0  0
  -25.9596  -31.7363   28.1777 C   0  0  0  0  0  0  0  0  0  0  0  0
  -24.6427  -18.1514   18.6285 C   0  0  0  0  0  0  0  0  0  0  0  0
  -25.0260  -31.1602   30.2559 C   0  0  0  0  0  0  0  0  0  0  0  0
  -22.9951  -29.9099   31.7032 C   0  0  0  0  0  0  0  0  0  0  0  0
  -24.2387  -31.9021   31.1364 C   0  0  0  0  0  0  0  0  0  0  0  0
  -30.9634  -24.7589   18.6116 C   0  0  0  0  0  0  0  0  0  0  0  0
  -25.7302  -31.6018   23.9555 C   0  0  0  0  0  0  0  0  0  0  0  0
  -25.7534  -32.1098   21.8163 C   0  0  0  0  0  0  0  0  0  0  0  0
  -26.2854  -34.0321   23.3229 C   0  0  0  0  0  0  0  0  0  0  0  0
  -26.7402  -21.0235   17.9594 C   0  0  0  0  0  0  0  0  0  0  0  0
  -34.1556  -27.1165   21.3135 C   0  0  0  0  0  0  0  0  0  0  0  0
  -28.1160  -21.5154   18.0108 C   0  0  0  0  0  0  0  0  0  0  0  0
  -32.6811  -27.0264   21.0399 C   0  0  0  0  0  0  0  0  0  0  0  0
  -23.1831  -13.6832   21.3431 C   0  0  0  0  0  0  0  0  0  0  0  0
  -30.9168  -18.6538   19.2732 C   0  0  0  0  0  0  0  0  0  0  0  0
  -26.2302  -12.6181   21.0229 C   0  0  0  0  0  0  0  0  0  0  0  0
  -29.3919  -13.1863   19.8706 C   0  0  0  0  0  0  0  0  0  0  0  0
  -26.2341  -26.5351   19.7194 C   0  0  0  0  0  0  0  0  0  0  0  0
  -19.9320  -10.5337   23.7029 C   0  0  0  0  0  0  0  0  0  0  0  0
  -23.5665  -13.9910   18.8704 C   0  0  0  0  0  0  0  0  0  0  0  0
  -25.8192  -15.0452   20.4700 C   0  0  0  0  0  0  0  0  0  0  0  0
  -21.4217  -10.8483   23.8134 C   0  0  0  0  0  0  0  0  0  0  0  0
  -23.3423  -28.6093   19.6099 C   0  0  0  0  0  0  0  0  0  0  0  0
  -21.6452  -12.3556   23.8837 C   0  0  0  0  0  0  0  0  0  0  0  0
  -23.6486  -29.7122   20.6257 C   0  0  0  0  0  0  0  0  0  0  0  0
  -23.8806  -27.2539   20.0647 C   0  0  0  0  0  0  0  0  0  0  0  0
  -25.6108  -28.3430   21.4394 C   0  0  0  0  0  0  0  0  0  0  0  0
  -21.1395  -13.0482   22.6124 C   0  0  1  0  0  0  0  0  0  0  0  0
  -24.0259  -13.3107   20.1563 C   0  0  1  0  0  0  0  0  0  0  0  0
  -25.1448  -29.7390   20.9946 C   0  0  2  0  0  0  0  0  0  0  0  0
  -34.8414  -25.8696   21.7847 C   0  0  0  0  0  0  0  0  0  0  0  0
  -31.5418  -18.4129   17.9187 C   0  0  0  0  0  0  0  0  0  0  0  0
  -29.6279  -23.9165   15.6529 C   0  0  0  0  0  0  0  0  0  0  0  0
  -31.6760  -12.1498   19.7923 C   0  0  0  0  0  0  0  0  0  0  0  0
  -30.3094  -20.0529   21.2563 C   0  0  0  0  0  0  0  0  0  0  0  0
  -32.5099  -20.4042   20.1379 C   0  0  0  0  0  0  0  0  0  0  0  0
  -26.6644  -13.3595   23.9506 C   0  0  0  0  0  0  0  0  0  0  0  0
  -29.1313  -13.2073   23.5510 C   0  0  0  0  0  0  0  0  0  0  0  0
  -27.6956  -11.1881   23.2603 C   0  0  0  0  0  0  0  0  0  0  0  0
  -29.3852  -13.1153   16.9119 C   0  0  0  0  0  0  0  0  0  0  0  0
  -26.3571  -19.7944   18.7606 C   0  0  0  0  0  0  0  0  0  1  0  0
  -30.3883  -21.1276   18.9913 C   0  0  0  0  0  0  0  0  0  0  0  0
  -29.5437  -23.3559   17.0711 C   0  0  2  0  0  0  0  0  0  0  0  0
  -27.5753  -13.0504   21.5546 C   0  0  1  0  0  0  0  0  0  0  0  0
  -30.3456  -12.3143   19.0740 C   0  0  2  0  0  0  0  0  0  0  0  0
  -31.0267  -20.0616   19.8968 C   0  0  0  0  0  0  0  0  0  0  0  0
  -27.7505  -12.7188   23.0635 C   0  0  0  0  0  0  0  0  0  0  0  0
  -25.4263  -30.4578   23.3367 N   0  0  0  0  0  0  0  0  0  0  0  0
  -25.4480  -30.7989   22.0370 N   0  0  0  0  0  0  0  0  0  0  0  0
  -25.4129  -13.6304   20.5005 N   0  0  0  0  0  0  0  0  0  0  0  0
  -25.3043  -27.3551   20.3930 N   0  0  0  0  0  0  0  0  0  0  0  0
  -25.8184  -32.6199   20.5681 N   0  0  0  0  0  0  0  0  0  0  0  0
  -26.4440  -34.4349   24.6559 N   0  0  0  0  0  0  0  0  0  0  0  0
  -32.3665  -26.0799   20.0715 N   0  0  0  0  0  0  0  0  0  0  0  0
  -27.5619  -26.7427   20.0917 N   0  0  0  0  0  0  0  0  0  0  0  0
  -28.3027  -22.6043   17.2545 N   0  0  0  0  0  0  0  0  0  0  0  0
  -22.0827  -12.8685   21.5296 N   0  0  0  0  0  0  0  0  0  0  0  0
  -28.5741  -12.4347   20.6876 N   0  0  0  0  0  0  0  0  0  0  0  0
  -28.9699  -20.8321   18.7812 N   0  3  0  0  0  0  0  0  0  0  0  0
  -30.6051  -12.9181   17.7365 N   0  3  0  0  0  0  0  0  0  0  0  0
  -26.4286  -34.8756   22.4055 O   0  0  0  0  0  0  0  0  0  0  0  0
  -25.9058  -21.6088   17.2691 O   0  0  0  0  0  0  0  0  0  0  0  0
  -34.7029  -28.1959   21.1451 O   0  0  0  0  0  0  0  0  0  0  0  0
  -31.9583  -27.7535   21.7013 O   0  0  0  0  0  0  0  0  0  0  0  0
  -23.5079  -14.6382   22.0390 O   0  0  0  0  0  0  0  0  0  0  0  0
  -30.3295  -17.7325   19.8454 O   0  0  0  0  0  0  0  0  0  0  0  0
  -25.9192  -11.4251   21.0628 O   0  0  0  0  0  0  0  0  0  0  0  0
  -29.3767  -14.4119   19.7801 O   0  0  0  0  0  0  0  0  0  0  0  0
  -25.8814  -25.7287   18.8549 O   0  0  0  0  0  0  0  0  0  0  0  0
  -26.0340  -31.7795   29.5361 O   0  0  0  0  0  0  0  0  0  0  0  0
  -24.9850  -19.4659   18.5467 O   0  0  0  0  0  0  0  0  0  1  0  0
  -22.0191  -29.3097   32.3970 F   0  0  0  0  0  0  0  0  0  0  0  0
  -24.4524  -33.2161   31.2904 F   0  0  0  0  0  0  0  0  0  0  0  0
  -32.0467  -24.1252   18.1377 F   0  0  0  0  0  0  0  0  0  0  0  0
  1  2  1  0  0  0  0
  1  5  2  0  0  0  0
  2  6  2  0  0  0  0
  3  8  2  0  0  0  0
  3 17  1  0  0  0  0
  4  9  1  0  0  0  0
  4 17  2  0  0  0  0
  5 19  1  0  0  0  0
  6 21  1  0  0  0  0
  7 10  2  0  0  0  0
  7 20  1  0  0  0  0
  8 26  1  0  0  0  0
  9 26  2  0  0  0  0
 10 27  1  0  0  0  0
 11 12  2  0  0  0  0
 11 28  1  0  0  0  0
 12 29  1  0  0  0  0
 13 22  1  0  0  0  0
 13 27  2  0  0  0  0
 14 23  1  0  0  0  0
 14 24  2  0  0  0  0
 15 24  1  0  0  0  0
 15 25  2  0  0  0  0
 16 29  2  0  0  0  0
 16 30  1  0  0  0  0
 17 32  1  0  0  0  0
 18 32  1  0  0  0  0
 18 33  2  0  0  0  0
 18 34  1  0  0  0  0
 19 21  2  0  0  0  0
 19 44  1  0  0  0  0
 20 22  2  0  0  0  0
 20 45  1  0  0  0  0
 21 53  1  0  0  0  0
 22 46  1  0  0  0  0
 23 31  2  0  0  0  0
 23 68  1  0  0  0  0
 24 80  1  0  0  0  0
 25 31  1  0  0  0  0
 25 79  1  0  0  0  0
 26 95  1  0  0  0  0
 27 96  1  0  0  0  0
 28 30  2  0  0  0  0
 28 95  1  0  0  0  0
 29 97  1  0  0  0  0
 30 98  1  0  0  0  0
 31 99  1  0  0  0  0
 32 73  2  0  0  0  0
 33 74  1  0  0  0  0
 33 77  1  0  0  0  0
 34 78  1  0  0  0  0
 34 86  2  0  0  0  0
 35 37  1  0  0  0  0
 35 66  1  0  0  0  0
 35 87  2  0  0  0  0
 36 38  1  0  0  0  0
 36 56  1  0  0  0  0
 36 88  2  0  0  0  0
 37 81  1  0  0  0  0
 37 84  2  0  0  0  0
 38 79  1  0  0  0  0
 38 89  2  0  0  0  0
 39 54  1  0  0  0  0
 39 82  1  0  0  0  0
 39 90  2  0  0  0  0
 40 57  1  0  0  0  0
 40 71  1  0  0  0  0
 40 91  2  0  0  0  0
 41 69  1  0  0  0  0
 41 75  1  0  0  0  0
 41 92  2  0  0  0  0
 42 70  1  0  0  0  0
 42 83  1  0  0  0  0
 42 93  2  0  0  0  0
 43 76  1  0  0  0  0
 43 80  1  0  0  0  0
 43 94  2  0  0  0  0
 44 47  1  0  0  0  0
 45 54  1  0  0  0  0
 46 75  1  0  0  0  0
 47 49  1  0  0  0  0
 48 50  1  0  0  0  0
 48 51  1  0  0  0  0
 49 53  1  0  0  0  0
 50 55  1  0  0  0  0
 51 76  1  0  0  0  0
 52 55  1  0  0  0  0
 52 76  1  0  0  0  0
 53 82  1  0  0  0  0
 54 75  1  0  0  0  0
 55 74  1  0  0  0  0
 58 68  1  0  0  0  0
 59 70  1  0  0  0  0
 60 71  1  0  0  0  0
 61 71  1  0  0  0  0
 62 72  1  0  0  0  0
 63 72  1  0  0  0  0
 64 72  1  0  0  0  0
 65 85  1  0  0  0  0
 66 96  1  0  0  0  0
 67 71  1  0  0  0  0
 67 84  1  0  0  0  0
 68 81  1  0  0  0  0
 69 72  1  0  0  0  0
 69 83  1  0  0  0  0
 70 85  1  0  0  0  0
 73 74  1  0  0  0  0
M  CHG  2  84   1  85   1
M  ISO  4  43 100  66 101  80 100  96 101
M  END
> <Batch ID>
0169

> <Smiles>
CNC(C)C(=O)NC(C(=O)N1Cc2cc([101O:1][101CH2:1]C(=O)C(=NCC(C)(C)C(C)=O)NC(C)c3cc([100NH:0][100C:0](=O)N4CCCC(n5nc(-c6ccc(Oc7ccc(F)cc7F)cc6)c(C(N)=O)c5N)C4)cc(NC(=O)C(C)=O)c3F)ccc2CC1C(=O)NC1CCCc2ccccc21)C(C)(C)C

> <Shape>
0.278

> <Color>
0.067

> <Negative vol penalty>
0.000

$$$$

  -OEChem-04052304173D

 87 95  0     1  0  0  0  0  0999 V2000
  -30.0807  -32.3370   24.8287 C   0  0  0  0  0  0  0  0  0  0  0  0
  -29.7840  -31.1430   24.1793 C   0  0  0  0  0  0  0  0  0  0  0  0
  -18.7043  -16.3596   25.2625 C   0  0  0  0  0  0  0  0  0  0  0  0
  -20.3267  -18.0822   24.7750 C   0  0  0  0  0  0  0  0  0  0  0  0
  -29.0715  -33.0437   25.4813 C   0  0  0  0  0  0  0  0  0  0  0  0
  -28.4780  -30.6544   24.1831 C   0  0  0  0  0  0  0  0  0  0  0  0
  -27.0036  -29.0149   19.6243 C   0  0  0  0  0  0  0  0  0  0  0  0
  -18.4922  -16.9163   26.5237 C   0  0  0  0  0  0  0  0  0  0  0  0
  -20.1146  -18.6389   26.0362 C   0  0  0  0  0  0  0  0  0  0  0  0
  -27.4632  -27.7627   19.2187 C   0  0  0  0  0  0  0  0  0  0  0  0
  -17.8110  -20.6070   27.5331 C   0  0  0  0  0  0  0  0  0  0  0  0
  -17.6648  -21.9919   27.6123 C   0  0  0  0  0  0  0  0  0  0  0  0
  -25.3461  -26.7899   19.8439 C   0  0  0  0  0  0  0  0  0  0  0  0
  -27.9102  -14.2543   20.5770 C   0  0  0  0  0  0  0  0  0  0  0  0
  -27.0530  -16.5110   20.4801 C   0  0  0  0  0  0  0  0  0  0  0  0
  -19.5892  -22.1117   29.0682 C   0  0  0  0  0  0  0  0  0  0  0  0
  -19.6216  -16.9426   24.3881 C   0  0  0  0  0  0  0  0  0  0  0  0
  -19.1574  -16.6752   21.8939 C   0  0  0  0  0  0  0  0  0  0  0  0
  -27.7506  -32.5684   25.4850 C   0  0  0  0  0  0  0  0  0  0  0  0
  -25.7135  -29.1624   20.1538 C   0  0  0  0  0  0  0  0  0  0  0  0
  -27.4504  -31.3547   24.8376 C   0  0  0  0  0  0  0  0  0  0  0  0
  -24.8717  -28.0455   20.2531 C   0  0  0  0  0  0  0  0  0  0  0  0
  -29.2134  -14.7507   20.6093 C   0  0  0  0  0  0  0  0  0  0  0  0
  -26.8300  -15.1345   20.5124 C   0  0  0  0  0  0  0  0  0  0  0  0
  -28.3561  -17.0074   20.5124 C   0  0  0  0  0  0  0  0  0  0  0  0
  -19.1973  -18.0559   26.9106 C   0  0  0  0  0  0  0  0  0  0  0  0
  -26.6355  -26.6494   19.3312 C   0  0  0  0  0  0  0  0  0  0  0  0
  -18.8462  -19.9744   28.2215 C   0  0  0  0  0  0  0  0  0  0  0  0
  -18.5539  -22.7442   28.3798 C   0  0  0  0  0  0  0  0  0  0  0  0
  -19.7353  -20.7268   28.9890 C   0  0  0  0  0  0  0  0  0  0  0  0
  -29.4363  -16.1272   20.5770 C   0  0  0  0  0  0  0  0  0  0  0  0
  -19.8415  -16.3677   23.0853 C   0  0  0  0  0  0  0  0  0  0  0  0
  -19.7349  -15.8646   20.9474 C   0  0  0  0  0  0  0  0  0  0  0  0
  -18.0949  -17.6100   21.6635 C   0  0  0  0  0  0  0  0  0  0  0  0
  -24.5305  -30.1051   22.9494 C   0  0  0  0  0  0  0  0  0  0  0  0
  -28.1121  -20.7519   20.3916 C   0  0  0  0  0  0  0  0  0  0  0  0
  -27.5614  -23.1573   19.6413 C   0  0  0  0  0  0  0  0  0  0  0  0
  -21.6947  -29.8420   21.3966 C   0  0  0  0  0  0  0  0  0  0  0  0
  -19.9026  -28.4359   18.8552 C   0  0  0  0  0  0  0  0  0  0  0  0
  -25.1106  -13.2933   20.5057 C   0  0  0  0  0  0  0  0  0  0  0  0
  -26.7026  -33.3429   26.2442 C   0  0  0  0  0  0  0  0  0  0  0  0
  -25.2232  -30.5245   20.5619 C   0  0  0  0  0  0  0  0  0  0  0  0
  -23.4710  -28.1540   20.7960 C   0  0  0  0  0  0  0  0  0  0  0  0
  -25.2729  -32.9485   25.8829 C   0  0  0  0  0  0  0  0  0  0  0  0
  -21.9539  -11.6466   20.4795 C   0  0  0  0  0  0  0  0  0  0  0  0
  -25.1276  -31.4303   25.8596 C   0  0  0  0  0  0  0  0  0  0  0  0
  -20.9907  -12.7005   21.0306 C   0  0  0  0  0  0  0  0  0  0  0  0
  -23.3159  -11.7075   21.1686 C   0  0  0  0  0  0  0  0  0  0  0  0
  -22.9880  -14.0853   21.7234 C   0  0  0  0  0  0  0  0  0  0  0  0
  -26.0411  -30.8049   24.7985 C   0  0  1  0  0  0  0  0  0  0  0  0
  -24.0750  -30.4705   21.5649 C   0  0  1  0  0  0  0  0  0  0  0  0
  -21.6237  -14.1057   21.0149 C   0  0  2  0  0  0  0  0  0  0  0  0
  -30.3661  -13.8068   20.6789 C   0  0  0  0  0  0  0  0  0  0  0  0
  -17.5981  -28.3847   17.8633 C   0  0  0  0  0  0  0  0  0  0  0  0
  -20.7565  -28.0427   23.6752 C   0  0  0  0  0  0  0  0  0  0  0  0
  -18.8790  -27.2785   22.2058 C   0  0  0  0  0  0  0  0  0  0  0  0
  -19.0465  -29.6783   22.8658 C   0  0  0  0  0  0  0  0  0  0  0  0
  -20.8666  -29.5023   16.2682 C   0  0  0  0  0  0  0  0  0  0  0  0
  -27.1057  -21.8850   20.3275 C   0  0  0  0  0  0  0  0  0  0  0  0
  -27.5209  -19.3566   20.4144 C   0  0  0  0  0  0  0  0  0  0  0  0
  -26.5536  -24.2903   19.6206 C   0  0  0  0  0  0  0  0  0  1  0  0
  -20.6879  -28.7364   21.1892 C   0  0  1  0  0  0  0  0  0  0  0  0
  -18.9680  -29.0441   17.8252 C   0  0  2  0  0  0  0  0  0  0  0  0
  -19.8695  -28.4312   22.4755 C   0  0  0  0  0  0  0  0  0  0  0  0
  -20.7816  -15.4345   22.9139 N   0  0  0  0  0  0  0  0  0  0  0  0
  -20.6922  -15.1486   21.6038 N   0  0  0  0  0  0  0  0  0  0  0  0
  -23.0398  -29.5061   21.1876 N   0  0  0  0  0  0  0  0  0  0  0  0
  -23.8561  -13.0676   21.1107 N   0  0  0  0  0  0  0  0  0  0  0  0
  -19.5120  -15.7016   19.6260 N   0  0  0  0  0  0  0  0  0  0  0  0
  -17.6204  -18.3624   22.7466 N   0  0  0  0  0  0  0  0  0  0  0  0
  -25.5062  -14.6303   20.4802 N   0  0  0  0  0  0  0  0  0  0  0  0
  -28.5753  -18.3771   20.4805 N   0  0  0  0  0  0  0  0  0  0  0  0
  -25.4696  -30.9694   23.4791 N   0  0  0  0  0  0  0  0  0  0  0  0
  -19.8755  -29.1335   20.0443 N   0  0  0  0  0  0  0  0  0  0  0  0
  -19.5304  -28.8804   16.4548 N   0  3  0  0  0  0  0  0  0  0  0  0
  -17.5705  -17.7614   20.5341 O   0  0  0  0  0  0  0  0  0  0  0  0
  -24.0634  -29.1133   23.4970 O   0  0  0  0  0  0  0  0  0  0  0  0
  -29.3237  -20.9533   20.4612 O   0  0  0  0  0  0  0  0  0  0  0  0
  -28.6608  -23.2622   19.1002 O   0  0  0  0  0  0  0  0  0  0  0  0
  -21.3015  -30.9642   21.7247 O   0  0  0  0  0  0  0  0  0  0  0  0
  -20.5855  -27.4394   18.6290 O   0  0  0  0  0  0  0  0  0  0  0  0
  -25.7720  -12.3721   20.0199 O   0  0  0  0  0  0  0  0  0  0  0  0
  -18.9905  -18.5995   28.1412 O   0  0  0  0  0  0  0  0  0  0  0  0
  -27.0818  -25.4259   18.9366 O   0  0  0  0  0  0  0  0  0  1  0  0
  -18.4144  -24.0743   28.4546 F   0  0  0  0  0  0  0  0  0  0  0  0
  -20.7326  -20.1248   29.6515 F   0  0  0  0  0  0  0  0  0  0  0  0
  -30.6901  -16.6034   20.6085 F   0  0  0  0  0  0  0  0  0  0  0  0
  1  2  1  0  0  0  0
  1  5  2  0  0  0  0
  2  6  2  0  0  0  0
  3  8  2  0  0  0  0
  3 17  1  0  0  0  0
  4  9  1  0  0  0  0
  4 17  2  0  0  0  0
  5 19  1  0  0  0  0
  6 21  1  0  0  0  0
  7 10  2  0  0  0  0
  7 20  1  0  0  0  0
  8 26  1  0  0  0  0
  9 26  2  0  0  0  0
 10 27  1  0  0  0  0
 11 12  2  0  0  0  0
 11 28  1  0  0  0  0
 12 29  1  0  0  0  0
 13 22  1  0  0  0  0
 13 27  2  0  0  0  0
 14 23  2  0  0  0  0
 14 24  1  0  0  0  0
 15 24  2  0  0  0  0
 15 25  1  0  0  0  0
 16 29  2  0  0  0  0
 16 30  1  0  0  0  0
 17 32  1  0  0  0  0
 18 32  1  0  0  0  0
 18 33  2  0  0  0  0
 18 34  1  0  0  0  0
 19 21  2  0  0  0  0
 19 41  1  0  0  0  0
 20 22  2  0  0  0  0
 20 42  1  0  0  0  0
 21 50  1  0  0  0  0
 22 43  1  0  0  0  0
 23 31  1  0  0  0  0
 23 53  1  0  0  0  0
 24 71  1  0  0  0  0
 25 31  2  0  0  0  0
 25 72  1  0  0  0  0
 26 83  1  0  0  0  0
 27 84  1  0  0  0  0
 28 30  2  0  0  0  0
 28 83  1  0  0  0  0
 29 85  1  0  0  0  0
 30 86  1  0  0  0  0
 31 87  1  0  0  0  0
 32 65  2  0  0  0  0
 33 66  1  0  0  0  0
 33 69  1  0  0  0  0
 34 70  1  0  0  0  0
 34 76  2  0  0  0  0
 35 51  1  0  0  0  0
 35 73  1  0  0  0  0
 35 77  2  0  0  0  0
 36 59  1  0  0  0  0
 36 60  1  0  0  0  0
 36 78  2  0  0  0  0
 37 59  1  0  0  0  0
 37 61  1  0  0  0  0
 37 79  2  0  0  0  0
 38 62  1  0  0  0  0
 38 67  1  0  0  0  0
 38 80  2  0  0  0  0
 39 63  1  0  0  0  0
 39 74  1  0  0  0  0
 39 81  2  0  0  0  0
 40 68  1  0  0  0  0
 40 71  1  0  0  0  0
 40 82  2  0  0  0  0
 41 44  1  0  0  0  0
 42 51  1  0  0  0  0
 43 67  1  0  0  0  0
 44 46  1  0  0  0  0
 45 47  1  0  0  0  0
 45 48  1  0  0  0  0
 46 50  1  0  0  0  0
 47 52  1  0  0  0  0
 48 68  1  0  0  0  0
 49 52  1  0  0  0  0
 49 68  1  0  0  0  0
 50 73  1  0  0  0  0
 51 67  1  0  0  0  0
 52 66  1  0  0  0  0
 54 63  1  0  0  0  0
 55 64  1  0  0  0  0
 56 64  1  0  0  0  0
 57 64  1  0  0  0  0
 58 75  1  0  0  0  0
 60 72  1  0  0  0  0
 61 84  1  0  0  0  0
 62 64  1  0  0  0  0
 62 74  1  0  0  0  0
 63 75  1  0  0  0  0
 65 66  1  0  0  0  0
M  CHG  1  75   1
M  ISO  4  40 100  61 101  71 100  84 101
M  END
> <Batch ID>
0169

> <Smiles>
CNC(C)C(=O)NC(C(=O)N1Cc2cc([101O:1][101CH2:1]C(=O)CC(=O)CNc3cc([100NH:0][100C:0](=O)N4CCCC(n5nc(-c6ccc(Oc7ccc(F)cc7F)cc6)c(C(N)=O)c5N)C4)cc(C)c3F)ccc2CC1C(=O)NC1CCCc2ccccc21)C(C)(C)C

> <Shape>
0.264

> <Color>
0.081

> <Negative vol penalty>
0.000

$$$$

  -OEChem-04052304173D

 86 94  0     1  0  0  0  0  0999 V2000
  -25.0535  -17.2101   33.9528 C   0  0  0  0  0  0  0  0  0  0  0  0
  -25.2799  -17.6284   32.6455 C   0  0  0  0  0  0  0  0  0  0  0  0
  -32.6729  -17.4678   23.4365 C   0  0  0  0  0  0  0  0  0  0  0  0
  -23.0763   -9.8681   19.9410 C   0  0  0  0  0  0  0  0  0  0  0  0
  -23.8352   -9.8753   22.2347 C   0  0  0  0  0  0  0  0  0  0  0  0
  -31.8933  -18.3425   24.1932 C   0  0  0  0  0  0  0  0  0  0  0  0
  -23.9888  -16.3556   34.2356 C   0  0  0  0  0  0  0  0  0  0  0  0
  -24.4422  -17.1914   31.6199 C   0  0  0  0  0  0  0  0  0  0  0  0
  -23.0918  -20.9339   28.4870 C   0  0  0  0  0  0  0  0  0  0  0  0
  -32.0650  -16.5920   22.5369 C   0  0  0  0  0  0  0  0  0  0  0  0
  -22.3321   -8.7151   20.1908 C   0  0  0  0  0  0  0  0  0  0  0  0
  -23.0910   -8.7223   22.4846 C   0  0  0  0  0  0  0  0  0  0  0  0
  -24.0295  -21.3398   27.5384 C   0  0  0  0  0  0  0  0  0  0  0  0
  -21.1050   -5.9857   23.8207 C   0  0  0  0  0  0  0  0  0  0  0  0
  -20.3482   -5.9424   24.9916 C   0  0  0  0  0  0  0  0  0  0  0  0
  -22.8943  -20.0265   25.8633 C   0  0  0  0  0  0  0  0  0  0  0  0
  -19.1043   -7.8798   24.2592 C   0  0  0  0  0  0  0  0  0  0  0  0
  -23.8278  -10.4482   20.9630 C   0  0  0  0  0  0  0  0  0  0  0  0
  -30.5058  -18.3415   24.0504 C   0  0  0  0  0  0  0  0  0  0  0  0
  -24.1701  -12.9733   20.8427 C   0  0  0  0  0  0  0  0  0  0  0  0
  -23.1318  -15.9156   33.2145 C   0  0  0  0  0  0  0  0  0  0  0  0
  -22.0529  -20.0612   28.1328 C   0  0  0  0  0  0  0  0  0  0  0  0
  -23.3658  -16.3291   31.8891 C   0  0  0  0  0  0  0  0  0  0  0  0
  -21.9432  -19.6131   26.8087 C   0  0  0  0  0  0  0  0  0  0  0  0
  -29.8978  -17.4657   23.1509 C   0  0  0  0  0  0  0  0  0  0  0  0
  -30.6775  -16.5909   22.3941 C   0  0  0  0  0  0  0  0  0  0  0  0
  -22.3394   -8.1422   21.4626 C   0  0  0  0  0  0  0  0  0  0  0  0
  -23.9325  -20.8838   26.2270 C   0  0  0  0  0  0  0  0  0  0  0  0
  -20.8615   -6.9761   22.8691 C   0  0  0  0  0  0  0  0  0  0  0  0
  -19.3479   -6.8894   25.2108 C   0  0  0  0  0  0  0  0  0  0  0  0
  -19.8611   -7.9231   23.0883 C   0  0  0  0  0  0  0  0  0  0  0  0
  -24.5972  -11.6389   20.7054 C   0  0  0  0  0  0  0  0  0  0  0  0
  -25.2625  -13.7225   20.4798 C   0  0  0  0  0  0  0  0  0  0  0  0
  -29.7018  -19.2767   24.8626 C   0  0  0  0  0  0  0  0  0  0  0  0
  -22.8995  -13.4893   21.2610 C   0  0  0  0  0  0  0  0  0  0  0  0
  -21.1738  -17.1404   29.0273 C   0  0  0  0  0  0  0  0  0  0  0  0
  -27.1920  -21.2581   24.6953 C   0  0  0  0  0  0  0  0  0  0  0  0
  -18.6183  -17.7493   27.1244 C   0  0  0  0  0  0  0  0  0  0  0  0
  -17.3087  -19.5018   24.5051 C   0  0  0  0  0  0  0  0  0  0  0  0
  -30.7288  -14.7674   20.6568 C   0  0  0  0  0  0  0  0  0  0  0  0
  -22.0224  -14.9547   33.5616 C   0  0  0  0  0  0  0  0  0  0  0  0
  -21.0339  -19.6541   29.1616 C   0  0  0  0  0  0  0  0  0  0  0  0
  -20.8349  -18.6912   26.3727 C   0  0  0  0  0  0  0  0  0  0  0  0
  -20.9566  -14.8368   32.4751 C   0  0  0  0  0  0  0  0  0  0  0  0
  -29.6151  -12.3534   18.2884 C   0  0  0  0  0  0  0  0  0  0  0  0
  -21.6068  -14.6749   31.1048 C   0  0  0  0  0  0  0  0  0  0  0  0
  -28.1752  -12.0621   18.7174 C   0  0  0  0  0  0  0  0  0  0  0  0
  -30.5297  -12.5822   19.4904 C   0  0  0  0  0  0  0  0  0  0  0  0
  -28.6222  -13.3071   20.8707 C   0  0  0  0  0  0  0  0  0  0  0  0
  -22.4642  -15.8967   30.7532 C   0  0  1  0  0  0  0  0  0  0  0  0
  -20.3160  -18.3547   28.8099 C   0  0  1  0  0  0  0  0  0  0  0  0
  -27.6499  -13.1339   19.6925 C   0  0  2  0  0  0  0  0  0  0  0  0
  -28.4084  -17.4653   23.0025 C   0  0  0  0  0  0  0  0  0  0  0  0
  -29.1144  -22.8735   24.6387 C   0  0  0  0  0  0  0  0  0  0  0  0
  -15.2057  -19.7552   23.1595 C   0  0  0  0  0  0  0  0  0  0  0  0
  -19.2362  -15.1383   25.6716 C   0  0  0  0  0  0  0  0  0  0  0  0
  -17.7529  -15.9062   23.8065 C   0  0  0  0  0  0  0  0  0  0  0  0
  -16.8047  -15.5513   26.0863 C   0  0  0  0  0  0  0  0  0  0  0  0
  -17.0221  -22.3456   25.2730 C   0  0  0  0  0  0  0  0  0  0  0  0
  -26.1635  -21.5672   25.7672 C   0  0  0  0  0  0  0  0  0  1  0  0
  -28.6422  -21.4977   25.0655 C   0  0  2  0  0  0  0  0  0  0  0  0
  -18.3009  -17.5448   25.6628 C   0  0  1  0  0  0  0  0  0  0  0  0
  -16.0021  -20.2595   24.3529 C   0  0  2  0  0  0  0  0  0  0  0  0
  -18.0458  -16.0510   25.3151 C   0  0  0  0  0  0  0  0  0  0  0  0
  -25.8622  -11.5428   20.2877 N   0  0  0  0  0  0  0  0  0  0  0  0
  -26.2394  -12.8263   20.1593 N   0  0  0  0  0  0  0  0  0  0  0  0
  -19.8669  -18.3164   27.4167 N   0  0  0  0  0  0  0  0  0  0  0  0
  -29.9705  -13.6132   20.3674 N   0  0  0  0  0  0  0  0  0  0  0  0
  -25.4732  -15.0540   20.4067 N   0  0  0  0  0  0  0  0  0  0  0  0
  -21.8873  -12.5804   21.5980 N   0  0  0  0  0  0  0  0  0  0  0  0
  -30.0812  -15.6926   21.4748 N   0  0  0  0  0  0  0  0  0  0  0  0
  -29.4394  -20.4949   24.3662 N   0  0  0  0  0  0  0  0  0  0  0  0
  -21.6261  -16.9960   30.3250 N   0  0  0  0  0  0  0  0  0  0  0  0
  -17.1799  -18.4284   25.3610 N   0  0  0  0  0  0  0  0  0  0  0  0
  -29.2753  -18.8651   26.0567 N   0  3  0  0  0  0  0  0  0  0  0  0
  -16.2659  -21.7137   24.1613 N   0  3  0  0  0  0  0  0  0  0  0  0
  -22.6634  -14.7200   21.3181 O   0  0  0  0  0  0  0  0  0  0  0  0
  -21.4069  -16.3892   28.0875 O   0  0  0  0  0  0  0  0  0  0  0  0
  -26.8591  -20.8360   23.5877 O   0  0  0  0  0  0  0  0  0  0  0  0
  -17.7861  -17.4248   27.9751 O   0  0  0  0  0  0  0  0  0  0  0  0
  -18.3395  -19.8272   23.9202 O   0  0  0  0  0  0  0  0  0  0  0  0
  -31.8581  -14.9359   20.1896 O   0  0  0  0  0  0  0  0  0  0  0  0
  -21.6132   -7.0173   21.7068 O   0  0  0  0  0  0  0  0  0  0  0  0
  -24.8468  -21.2778   25.2993 O   0  0  0  0  0  0  0  0  0  1  0  0
  -18.6201   -6.8468   26.3346 F   0  0  0  0  0  0  0  0  0  0  0  0
  -19.6218   -8.8762   22.1772 F   0  0  0  0  0  0  0  0  0  0  0  0
  1  2  1  0  0  0  0
  1  7  2  0  0  0  0
  2  8  2  0  0  0  0
  3  6  2  0  0  0  0
  3 10  1  0  0  0  0
  4 11  2  0  0  0  0
  4 18  1  0  0  0  0
  5 12  1  0  0  0  0
  5 18  2  0  0  0  0
  6 19  1  0  0  0  0
  7 21  1  0  0  0  0
  8 23  1  0  0  0  0
  9 13  2  0  0  0  0
  9 22  1  0  0  0  0
 10 26  2  0  0  0  0
 11 27  1  0  0  0  0
 12 27  2  0  0  0  0
 13 28  1  0  0  0  0
 14 15  2  0  0  0  0
 14 29  1  0  0  0  0
 15 30  1  0  0  0  0
 16 24  1  0  0  0  0
 16 28  2  0  0  0  0
 17 30  2  0  0  0  0
 17 31  1  0  0  0  0
 18 32  1  0  0  0  0
 19 25  2  0  0  0  0
 19 34  1  0  0  0  0
 20 32  1  0  0  0  0
 20 33  2  0  0  0  0
 20 35  1  0  0  0  0
 21 23  2  0  0  0  0
 21 41  1  0  0  0  0
 22 24  2  0  0  0  0
 22 42  1  0  0  0  0
 23 50  1  0  0  0  0
 24 43  1  0  0  0  0
 25 26  1  0  0  0  0
 25 53  1  0  0  0  0
 26 71  1  0  0  0  0
 27 83  1  0  0  0  0
 28 84  1  0  0  0  0
 29 31  2  0  0  0  0
 29 83  1  0  0  0  0
 30 85  1  0  0  0  0
 31 86  1  0  0  0  0
 32 65  2  0  0  0  0
 33 66  1  0  0  0  0
 33 69  1  0  0  0  0
 34 72  1  0  0  0  0
 34 75  2  0  0  0  0
 35 70  1  0  0  0  0
 35 77  2  0  0  0  0
 36 51  1  0  0  0  0
 36 73  1  0  0  0  0
 36 78  2  0  0  0  0
 37 60  1  0  0  0  0
 37 61  1  0  0  0  0
 37 79  2  0  0  0  0
 38 62  1  0  0  0  0
 38 67  1  0  0  0  0
 38 80  2  0  0  0  0
 39 63  1  0  0  0  0
 39 74  1  0  0  0  0
 39 81  2  0  0  0  0
 40 68  1  0  0  0  0
 40 71  1  0  0  0  0
 40 82  2  0  0  0  0
 41 44  1  0  0  0  0
 42 51  1  0  0  0  0
 43 67  1  0  0  0  0
 44 46  1  0  0  0  0
 45 47  1  0  0  0  0
 45 48  1  0  0  0  0
 46 50  1  0  0  0  0
 47 52  1  0  0  0  0
 48 68  1  0  0  0  0
 49 52  1  0  0  0  0
 49 68  1  0  0  0  0
 50 73  1  0  0  0  0
 51 67  1  0  0  0  0
 52 66  1  0  0  0  0
 54 61  1  0  0  0  0
 55 63  1  0  0  0  0
 56 64  1  0  0  0  0
 57 64  1  0  0  0  0
 58 64  1  0  0  0  0
 59 76  1  0  0  0  0
 60 84  1  0  0  0  0
 61 72  1  0  0  0  0
 62 64  1  0  0  0  0
 62 74  1  0  0  0  0
 63 76  1  0  0  0  0
 65 66  1  0  0  0  0
M  CHG  2  75   1  76   1
M  ISO  4  40 100  60 101  71 100  84 101
M  END
> <Batch ID>
0169

> <Smiles>
CNC(C)C(=O)NC(C(=O)N1Cc2cc([101O:1][101CH2:1]C(=O)C(C)NC(=N)c3cccc([100NH:0][100C:0](=O)N4CCCC(n5nc(-c6ccc(Oc7ccc(F)cc7F)cc6)c(C(N)=O)c5N)C4)c3C)ccc2CC1C(=O)NC1CCCc2ccccc21)C(C)(C)C

> <Shape>
0.161

> <Color>
0.184

> <Negative vol penalty>
0.000

$$$$

  -OEChem-04052304173D

 89 97  0     1  0  0  0  0  0999 V2000
  -23.4741   -8.0000   22.0210 C   0  0  0  0  0  0  0  0  0  0  0  0
  -24.3509   -9.0234   21.6756 C   0  0  0  0  0  0  0  0  0  0  0  0
  -19.5150  -28.5176   23.5647 C   0  0  0  0  0  0  0  0  0  0  0  0
  -20.6845  -26.7100   22.4685 C   0  0  0  0  0  0  0  0  0  0  0  0
  -22.0975   -8.2121   21.9582 C   0  0  0  0  0  0  0  0  0  0  0  0
  -23.8515  -10.2593   21.2662 C   0  0  0  0  0  0  0  0  0  0  0  0
  -26.3116  -15.7635   22.3420 C   0  0  0  0  0  0  0  0  0  0  0  0
  -18.3466  -28.1742   22.8846 C   0  0  0  0  0  0  0  0  0  0  0  0
  -19.5161  -26.3665   21.7884 C   0  0  0  0  0  0  0  0  0  0  0  0
  -27.1082  -16.6030   21.5646 C   0  0  0  0  0  0  0  0  0  0  0  0
  -16.7493  -24.7890   20.0350 C   0  0  0  0  0  0  0  0  0  0  0  0
  -16.4077  -23.4381   19.9724 C   0  0  0  0  0  0  0  0  0  0  0  0
  -25.1424  -17.8183   20.8733 C   0  0  0  0  0  0  0  0  0  0  0  0
  -28.7332  -27.3537   20.5054 C   0  0  0  0  0  0  0  0  0  0  0  0
  -29.9635  -29.4319   20.5703 C   0  0  0  0  0  0  0  0  0  0  0  0
  -16.3048  -23.3524   22.3847 C   0  0  0  0  0  0  0  0  0  0  0  0
  -20.6840  -27.7855   23.3566 C   0  0  0  0  0  0  0  0  0  0  0  0
  -30.9723  -27.4606   19.6043 C   0  0  0  0  0  0  0  0  0  0  0  0
  -22.3200  -27.6583   25.3098 C   0  0  0  0  0  0  0  0  0  0  0  0
  -21.5810   -9.4542   21.5571 C   0  0  0  0  0  0  0  0  0  0  0  0
  -24.9208  -15.9386   22.3824 C   0  0  0  0  0  0  0  0  0  0  0  0
  -22.4667  -10.4878   21.1968 C   0  0  0  0  0  0  0  0  0  0  0  0
  -24.3306  -16.9813   21.6540 C   0  0  0  0  0  0  0  0  0  0  0  0
  -28.8071  -28.7035   20.8491 C   0  0  0  0  0  0  0  0  0  0  0  0
  -29.8159  -26.7322   19.8830 C   0  0  0  0  0  0  0  0  0  0  0  0
  -18.3472  -27.0986   21.9965 C   0  0  0  0  0  0  0  0  0  0  0  0
  -26.5234  -17.6288   20.8278 C   0  0  0  0  0  0  0  0  0  0  0  0
  -16.8687  -25.4217   21.2724 C   0  0  0  0  0  0  0  0  0  0  0  0
  -16.1854  -22.7198   21.1473 C   0  0  0  0  0  0  0  0  0  0  0  0
  -31.0462  -28.8104   19.9479 C   0  0  0  0  0  0  0  0  0  0  0  0
  -16.6465  -24.7034   22.4473 C   0  0  0  0  0  0  0  0  0  0  0  0
  -21.8914  -28.1401   24.0584 C   0  0  0  0  0  0  0  0  0  0  0  0
  -23.5159  -28.2961   25.5320 C   0  0  0  0  0  0  0  0  0  0  0  0
  -32.1178  -26.8372   18.9532 C   0  0  0  0  0  0  0  0  0  0  0  0
  -21.6932  -26.7181   26.1923 C   0  0  0  0  0  0  0  0  0  0  0  0
  -22.4121  -14.1634   21.5709 C   0  0  0  0  0  0  0  0  0  0  0  0
  -28.7988  -23.1625   19.3194 C   0  0  0  0  0  0  0  0  0  0  0  0
  -28.0085  -20.7392   19.7136 C   0  0  0  0  0  0  0  0  0  0  0  0
  -20.7458  -16.5925   22.9293 C   0  0  0  0  0  0  0  0  0  0  0  0
  -20.6403  -19.8798   23.8399 C   0  0  0  0  0  0  0  0  0  0  0  0
  -27.6175  -30.6653   21.8894 C   0  0  0  0  0  0  0  0  0  0  0  0
  -20.0853   -9.6212   21.4596 C   0  0  0  0  0  0  0  0  0  0  0  0
  -24.0783  -15.0412   23.2469 C   0  0  0  0  0  0  0  0  0  0  0  0
  -22.8444  -17.2241   21.6793 C   0  0  0  0  0  0  0  0  0  0  0  0
  -19.6393  -11.0787   21.3751 C   0  0  0  0  0  0  0  0  0  0  0  0
  -25.8522  -32.3437   24.4864 C   0  0  0  0  0  0  0  0  0  0  0  0
  -20.4866  -11.8382   20.3592 C   0  0  0  0  0  0  0  0  0  0  0  0
  -24.6786  -31.4094   24.7894 C   0  0  0  0  0  0  0  0  0  0  0  0
  -26.1866  -32.3692   22.9960 C   0  0  0  0  0  0  0  0  0  0  0  0
  -25.2354  -30.1173   22.6900 C   0  0  0  0  0  0  0  0  0  0  0  0
  -21.9635  -11.8502   20.7716 C   0  0  1  0  0  0  0  0  0  0  0  0
  -22.6178  -14.9892   22.8092 C   0  0  1  0  0  0  0  0  0  0  0  0
  -24.9034  -30.0085   24.1872 C   0  0  2  0  0  0  0  0  0  0  0  0
  -32.5594  -27.4078   17.6386 C   0  0  0  0  0  0  0  0  0  0  0  0
  -19.1309  -21.5840   24.8958 C   0  0  0  0  0  0  0  0  0  0  0  0
  -19.1470  -16.7788   20.3372 C   0  0  0  0  0  0  0  0  0  0  0  0
  -18.3513  -19.0361   21.0719 C   0  0  0  0  0  0  0  0  0  0  0  0
  -17.7858  -17.0160   22.4217 C   0  0  0  0  0  0  0  0  0  0  0  0
  -22.5292  -20.3406   26.0713 C   0  0  0  0  0  0  0  0  0  0  0  0
  -27.6457  -22.1988   19.5259 C   0  0  0  0  0  0  0  0  0  0  0  0
  -28.5602  -24.5774   19.8072 C   0  0  0  0  0  0  0  0  0  0  0  0
  -26.8397  -19.7876   19.8816 C   0  0  0  0  0  0  0  0  0  1  0  0
  -20.1573  -17.8923   22.4361 C   0  0  1  0  0  0  0  0  0  0  0  0
  -20.2234  -20.5534   25.1349 C   0  0  2  0  0  0  0  0  0  0  0  0
  -18.8882  -17.6753   21.5645 C   0  0  0  0  0  0  0  0  0  0  0  0
  -22.7454  -29.0166   23.5233 N   0  0  0  0  0  0  0  0  0  0  0  0
  -23.7227  -29.0906   24.4429 N   0  0  0  0  0  0  0  0  0  0  0  0
  -22.0625  -16.3160   22.5347 N   0  0  0  0  0  0  0  0  0  0  0  0
  -26.3905  -31.0078   22.4960 N   0  0  0  0  0  0  0  0  0  0  0  0
  -24.4002  -28.2494   26.5510 N   0  0  0  0  0  0  0  0  0  0  0  0
  -20.4668  -26.1577   25.8098 N   0  0  0  0  0  0  0  0  0  0  0  0
  -27.7079  -29.3346   21.4825 N   0  0  0  0  0  0  0  0  0  0  0  0
  -29.7224  -25.3887   19.5492 N   0  0  0  0  0  0  0  0  0  0  0  0
  -22.1877  -12.8227   21.8196 N   0  0  0  0  0  0  0  0  0  0  0  0
  -19.9355  -18.7153   23.6201 N   0  0  0  0  0  0  0  0  0  0  0  0
  -21.3889  -21.2404   25.7599 N   0  3  0  0  0  0  0  0  0  0  0  0
  -32.7441  -25.8765   19.4005 O   0  0  0  0  0  0  0  0  0  0  0  0
  -22.1974  -26.3973   27.2952 O   0  0  0  0  0  0  0  0  0  0  0  0
  -22.4523  -14.7028   20.4713 O   0  0  0  0  0  0  0  0  0  0  0  0
  -29.8410  -22.8281   18.7577 O   0  0  0  0  0  0  0  0  0  0  0  0
  -29.1727  -20.3461   19.7656 O   0  0  0  0  0  0  0  0  0  0  0  0
  -20.0648  -15.8532   23.6444 O   0  0  0  0  0  0  0  0  0  0  0  0
  -21.5022  -20.3425   23.0959 O   0  0  0  0  0  0  0  0  0  0  0  0
  -28.5316  -31.4847   21.7663 O   0  0  0  0  0  0  0  0  0  0  0  0
  -17.2072  -26.7631   21.3328 O   0  0  0  0  0  0  0  0  0  0  0  0
  -27.2985  -18.4493   20.0677 O   0  0  0  0  0  0  0  0  0  1  0  0
  -15.8559  -21.4229   21.0870 F   0  0  0  0  0  0  0  0  0  0  0  0
  -32.1517  -29.5215   19.6841 F   0  0  0  0  0  0  0  0  0  0  0  0
  -16.7586  -25.3060   23.6389 F   0  0  0  0  0  0  0  0  0  0  0  0
  1  2  1  0  0  0  0
  1  5  2  0  0  0  0
  2  6  2  0  0  0  0
  3  8  2  0  0  0  0
  3 17  1  0  0  0  0
  4  9  1  0  0  0  0
  4 17  2  0  0  0  0
  5 20  1  0  0  0  0
  6 22  1  0  0  0  0
  7 10  2  0  0  0  0
  7 21  1  0  0  0  0
  8 26  1  0  0  0  0
  9 26  2  0  0  0  0
 10 27  1  0  0  0  0
 11 12  2  0  0  0  0
 11 28  1  0  0  0  0
 12 29  1  0  0  0  0
 13 23  1  0  0  0  0
 13 27  2  0  0  0  0
 14 24  2  0  0  0  0
 14 25  1  0  0  0  0
 15 24  1  0  0  0  0
 15 30  2  0  0  0  0
 16 29  2  0  0  0  0
 16 31  1  0  0  0  0
 17 32  1  0  0  0  0
 18 25  2  0  0  0  0
 18 30  1  0  0  0  0
 18 34  1  0  0  0  0
 19 32  1  0  0  0  0
 19 33  2  0  0  0  0
 19 35  1  0  0  0  0
 20 22  2  0  0  0  0
 20 42  1  0  0  0  0
 21 23  2  0  0  0  0
 21 43  1  0  0  0  0
 22 51  1  0  0  0  0
 23 44  1  0  0  0  0
 24 72  1  0  0  0  0
 25 73  1  0  0  0  0
 26 85  1  0  0  0  0
 27 86  1  0  0  0  0
 28 31  2  0  0  0  0
 28 85  1  0  0  0  0
 29 87  1  0  0  0  0
 30 88  1  0  0  0  0
 31 89  1  0  0  0  0
 32 66  2  0  0  0  0
 33 67  1  0  0  0  0
 33 70  1  0  0  0  0
 34 54  1  0  0  0  0
 34 77  2  0  0  0  0
 35 71  1  0  0  0  0
 35 78  2  0  0  0  0
 36 52  1  0  0  0  0
 36 74  1  0  0  0  0
 36 79  2  0  0  0  0
 37 60  1  0  0  0  0
 37 61  1  0  0  0  0
 37 80  2  0  0  0  0
 38 60  1  0  0  0  0
 38 62  1  0  0  0  0
 38 81  2  0  0  0  0
 39 63  1  0  0  0  0
 39 68  1  0  0  0  0
 39 82  2  0  0  0  0
 40 64  1  0  0  0  0
 40 75  1  0  0  0  0
 40 83  2  0  0  0  0
 41 69  1  0  0  0  0
 41 72  1  0  0  0  0
 41 84  2  0  0  0  0
 42 45  1  0  0  0  0
 43 52  1  0  0  0  0
 44 68  1  0  0  0  0
 45 47  1  0  0  0  0
 46 48  1  0  0  0  0
 46 49  1  0  0  0  0
 47 51  1  0  0  0  0
 48 53  1  0  0  0  0
 49 69  1  0  0  0  0
 50 53  1  0  0  0  0
 50 69  1  0  0  0  0
 51 74  1  0  0  0  0
 52 68  1  0  0  0  0
 53 67  1  0  0  0  0
 55 64  1  0  0  0  0
 56 65  1  0  0  0  0
 57 65  1  0  0  0  0
 58 65  1  0  0  0  0
 59 76  1  0  0  0  0
 61 73  1  0  0  0  0
 62 86  1  0  0  0  0
 63 65  1  0  0  0  0
 63 75  1  0  0  0  0
 64 76  1  0  0  0  0
 66 67  1  0  0  0  0
M  CHG  1  76   1
M  ISO  4  41 100  62 101  72 100  86 101
M  END
> <Batch ID>
0169

> <Smiles>
CNC(C)C(=O)NC(C(=O)N1Cc2cc([101O:1][101CH2:1]C(=O)CC(=O)CNc3cc([100NH:0][100C:0](=O)N4CCCC(n5nc(-c6ccc(Oc7ccc(F)cc7F)cc6)c(C(N)=O)c5N)C4)cc(F)c3C(C)=O)ccc2CC1C(=O)NC1CCCc2ccccc21)C(C)(C)C

> <Shape>
0.225

> <Color>
0.105

> <Negative vol penalty>
0.000

$$$$

  -OEChem-04052304173D

 85 93  0     1  0  0  0  0  0999 V2000
  -16.7523  -29.4363   20.9112 C   0  0  0  0  0  0  0  0  0  0  0  0
  -17.9147  -28.7098   20.6738 C   0  0  0  0  0  0  0  0  0  0  0  0
  -23.3245   -9.5483   20.6220 C   0  0  0  0  0  0  0  0  0  0  0  0
  -23.8786  -10.2195   22.8758 C   0  0  0  0  0  0  0  0  0  0  0  0
  -16.8161  -30.6454   21.6023 C   0  0  0  0  0  0  0  0  0  0  0  0
  -19.1420  -29.1927   21.1266 C   0  0  0  0  0  0  0  0  0  0  0  0
  -21.9522  -25.5991   23.3252 C   0  0  0  0  0  0  0  0  0  0  0  0
  -22.6430   -8.4379   21.1202 C   0  0  0  0  0  0  0  0  0  0  0  0
  -23.1970   -9.1091   23.3740 C   0  0  0  0  0  0  0  0  0  0  0  0
  -22.6204  -24.7101   22.4844 C   0  0  0  0  0  0  0  0  0  0  0  0
  -19.6411   -7.7852   22.5328 C   0  0  0  0  0  0  0  0  0  0  0  0
  -18.3880   -7.4974   21.9920 C   0  0  0  0  0  0  0  0  0  0  0  0
  -29.2393  -18.4732   21.6646 C   0  0  0  0  0  0  0  0  0  0  0  0
  -24.6574  -25.9671   22.7841 C   0  0  0  0  0  0  0  0  0  0  0  0
  -19.1940   -5.3356   21.2749 C   0  0  0  0  0  0  0  0  0  0  0  0
  -31.3878  -17.9683   20.7783 C   0  0  0  0  0  0  0  0  0  0  0  0
  -23.9424  -10.4390   21.4998 C   0  0  0  0  0  0  0  0  0  0  0  0
  -29.6369  -19.7995   21.7916 C   0  0  0  0  0  0  0  0  0  0  0  0
  -24.1184  -12.8662   20.7346 C   0  0  0  0  0  0  0  0  0  0  0  0
  -18.0435  -31.1387   22.0723 C   0  0  0  0  0  0  0  0  0  0  0  0
  -22.6301  -26.6870   23.8939 C   0  0  0  0  0  0  0  0  0  0  0  0
  -19.2225  -30.4103   21.8236 C   0  0  0  0  0  0  0  0  0  0  0  0
  -23.9962  -26.8671   23.6337 C   0  0  0  0  0  0  0  0  0  0  0  0
  -30.1255  -17.5339   21.1492 C   0  0  0  0  0  0  0  0  0  0  0  0
  -22.5792   -8.2183   22.4961 C   0  0  0  0  0  0  0  0  0  0  0  0
  -23.9725  -24.8956   22.2115 C   0  0  0  0  0  0  0  0  0  0  0  0
  -20.6707   -6.8482   22.4446 C   0  0  0  0  0  0  0  0  0  0  0  0
  -18.1644   -6.2726   21.3631 C   0  0  0  0  0  0  0  0  0  0  0  0
  -20.4471   -5.6234   21.8157 C   0  0  0  0  0  0  0  0  0  0  0  0
  -24.6471  -11.5859   20.9857 C   0  0  0  0  0  0  0  0  0  0  0  0
  -30.9212  -20.1325   21.3921 C   0  0  0  0  0  0  0  0  0  0  0  0
  -25.1838  -13.5902   20.2580 C   0  0  0  0  0  0  0  0  0  0  0  0
  -28.6833  -20.7955   22.3430 C   0  0  0  0  0  0  0  0  0  0  0  0
  -22.7836  -13.3572   20.9160 C   0  0  0  0  0  0  0  0  0  0  0  0
  -22.3422  -29.8479   23.7220 C   0  0  0  0  0  0  0  0  0  0  0  0
  -24.6363  -29.7911   26.0146 C   0  0  0  0  0  0  0  0  0  0  0  0
  -26.4605  -21.8175   21.9960 C   0  0  0  0  0  0  0  0  0  0  0  0
  -27.2097  -28.1099   27.4972 C   0  0  0  0  0  0  0  0  0  0  0  0
  -30.5285  -15.1309   20.5092 C   0  0  0  0  0  0  0  0  0  0  0  0
  -18.0688  -32.4738   22.7733 C   0  0  0  0  0  0  0  0  0  0  0  0
  -21.9014  -27.6217   24.8200 C   0  0  0  0  0  0  0  0  0  0  0  0
  -24.7744  -28.0075   24.2356 C   0  0  0  0  0  0  0  0  0  0  0  0
  -19.3596  -32.7314   23.5466 C   0  0  0  0  0  0  0  0  0  0  0  0
  -29.7948  -12.0944   18.8008 C   0  0  0  0  0  0  0  0  0  0  0  0
  -20.5730  -32.3764   22.6932 C   0  0  0  0  0  0  0  0  0  0  0  0
  -28.3466  -11.7968   19.1963 C   0  0  0  0  0  0  0  0  0  0  0  0
  -30.5833  -12.7089   19.9560 C   0  0  0  0  0  0  0  0  0  0  0  0
  -28.5174  -13.5937   20.9652 C   0  0  0  0  0  0  0  0  0  0  0  0
  -20.5694  -30.8889   22.3206 C   0  0  1  0  0  0  0  0  0  0  0  0
  -22.5676  -28.9893   24.9343 C   0  0  1  0  0  0  0  0  0  0  0  0
  -27.6656  -13.0336   19.8143 C   0  0  2  0  0  0  0  0  0  0  0  0
  -28.9177  -28.3346   29.3219 C   0  0  0  0  0  0  0  0  0  0  0  0
  -26.2676  -31.6736   24.2525 C   0  0  0  0  0  0  0  0  0  0  0  0
  -28.2799  -31.1070   25.6302 C   0  0  0  0  0  0  0  0  0  0  0  0
  -26.3176  -32.2228   26.6918 C   0  0  0  0  0  0  0  0  0  0  0  0
  -26.1413  -25.7605   28.9456 C   0  0  0  0  0  0  0  0  0  0  0  0
  -25.3119  -21.7560   21.0007 C   0  0  0  0  0  0  0  0  0  0  0  0
  -24.1611  -22.6811   21.3651 C   0  0  0  0  0  0  0  0  0  1  0  0
  -26.1460  -29.7924   26.0167 C   0  0  1  0  0  0  0  0  0  0  0  0
  -27.5274  -27.8384   28.9566 C   0  0  2  0  0  0  0  0  0  0  0  0
  -26.7379  -31.1785   25.6348 C   0  0  0  0  0  0  0  0  0  0  0  0
  -31.8100  -19.2480   20.8868 N   0  0  0  0  0  0  0  0  0  0  0  0
  -25.9473  -11.4984   20.6927 N   0  0  0  0  0  0  0  0  0  0  0  0
  -26.2445  -12.7328   20.2524 N   0  0  0  0  0  0  0  0  0  0  0  0
  -24.0160  -28.8980   25.1296 N   0  0  0  0  0  0  0  0  0  0  0  0
  -29.8799  -13.8780   20.4882 N   0  0  0  0  0  0  0  0  0  0  0  0
  -31.3340  -21.4827   21.5187 N   0  0  0  0  0  0  0  0  0  0  0  0
  -25.3074  -14.8702   19.8471 N   0  0  0  0  0  0  0  0  0  0  0  0
  -21.8112  -12.4801   21.4155 N   0  0  0  0  0  0  0  0  0  0  0  0
  -29.7498  -16.1750   21.0071 N   0  0  0  0  0  0  0  0  0  0  0  0
  -27.4972  -20.9556   21.6284 N   0  0  0  0  0  0  0  0  0  0  0  0
  -21.0104  -30.0861   23.4410 N   0  0  0  0  0  0  0  0  0  0  0  0
  -26.5528  -29.3109   27.3324 N   0  0  0  0  0  0  0  0  0  0  0  0
  -27.4613  -26.3763   29.2378 N   0  3  0  0  0  0  0  0  0  0  0  0
  -28.9695  -21.3865   23.3807 O   0  0  0  0  0  0  0  0  0  0  0  0
  -22.4589  -14.5340   20.6279 O   0  0  0  0  0  0  0  0  0  0  0  0
  -23.3054  -30.2645   23.0892 O   0  0  0  0  0  0  0  0  0  0  0  0
  -24.0299  -30.5493   26.7755 O   0  0  0  0  0  0  0  0  0  0  0  0
  -26.4557  -22.5417   22.9874 O   0  0  0  0  0  0  0  0  0  0  0  0
  -27.5171  -27.3358   26.5934 O   0  0  0  0  0  0  0  0  0  0  0  0
  -31.6799  -15.2727   20.0893 O   0  0  0  0  0  0  0  0  0  0  0  0
  -21.9140   -7.1351   22.9827 O   0  0  0  0  0  0  0  0  0  0  0  0
  -24.6270  -24.0297   21.3907 O   0  0  0  0  0  0  0  0  0  1  0  0
  -16.9605   -5.9957   20.8452 F   0  0  0  0  0  0  0  0  0  0  0  0
  -21.4320   -4.7188   21.7289 F   0  0  0  0  0  0  0  0  0  0  0  0
  1  2  1  0  0  0  0
  1  5  2  0  0  0  0
  2  6  2  0  0  0  0
  3  8  2  0  0  0  0
  3 17  1  0  0  0  0
  4  9  1  0  0  0  0
  4 17  2  0  0  0  0
  5 20  1  0  0  0  0
  6 22  1  0  0  0  0
  7 10  2  0  0  0  0
  7 21  1  0  0  0  0
  8 25  1  0  0  0  0
  9 25  2  0  0  0  0
 10 26  1  0  0  0  0
 11 12  2  0  0  0  0
 11 27  1  0  0  0  0
 12 28  1  0  0  0  0
 13 18  1  0  0  0  0
 13 24  2  0  0  0  0
 14 23  1  0  0  0  0
 14 26  2  0  0  0  0
 15 28  2  0  0  0  0
 15 29  1  0  0  0  0
 16 24  1  0  0  0  0
 16 62  2  0  0  0  0
 17 30  1  0  0  0  0
 18 31  2  0  0  0  0
 18 33  1  0  0  0  0
 19 30  1  0  0  0  0
 19 32  2  0  0  0  0
 19 34  1  0  0  0  0
 20 22  2  0  0  0  0
 20 40  1  0  0  0  0
 21 23  2  0  0  0  0
 21 41  1  0  0  0  0
 22 49  1  0  0  0  0
 23 42  1  0  0  0  0
 24 70  1  0  0  0  0
 25 82  1  0  0  0  0
 26 83  1  0  0  0  0
 27 29  2  0  0  0  0
 27 82  1  0  0  0  0
 28 84  1  0  0  0  0
 29 85  1  0  0  0  0
 30 63  2  0  0  0  0
 31 62  1  0  0  0  0
 31 67  1  0  0  0  0
 32 64  1  0  0  0  0
 32 68  1  0  0  0  0
 33 71  1  0  0  0  0
 33 75  2  0  0  0  0
 34 69  1  0  0  0  0
 34 76  2  0  0  0  0
 35 50  1  0  0  0  0
 35 72  1  0  0  0  0
 35 77  2  0  0  0  0
 36 59  1  0  0  0  0
 36 65  1  0  0  0  0
 36 78  2  0  0  0  0
 37 57  1  0  0  0  0
 37 71  1  0  0  0  0
 37 79  2  0  0  0  0
 38 60  1  0  0  0  0
 38 73  1  0  0  0  0
 38 80  2  0  0  0  0
 39 66  1  0  0  0  0
 39 70  1  0  0  0  0
 39 81  2  0  0  0  0
 40 43  1  0  0  0  0
 41 50  1  0  0  0  0
 42 65  1  0  0  0  0
 43 45  1  0  0  0  0
 44 46  1  0  0  0  0
 44 47  1  0  0  0  0
 45 49  1  0  0  0  0
 46 51  1  0  0  0  0
 47 66  1  0  0  0  0
 48 51  1  0  0  0  0
 48 66  1  0  0  0  0
 49 72  1  0  0  0  0
 50 65  1  0  0  0  0
 51 64  1  0  0  0  0
 52 60  1  0  0  0  0
 53 61  1  0  0  0  0
 54 61  1  0  0  0  0
 55 61  1  0  0  0  0
 56 74  1  0  0  0  0
 57 58  1  0  0  0  0
 58 83  1  0  0  0  0
 59 61  1  0  0  0  0
 59 73  1  0  0  0  0
 60 74  1  0  0  0  0
 63 64  1  0  0  0  0
M  CHG  1  74   1
M  ISO  4  39 100  58 101  70 100  83 101
M  END
> <Batch ID>
0169

> <Smiles>
CNC(C)C(=O)NC(C(=O)N1Cc2cc([101O:1][101CH2:1]CC(=O)NC(=O)c3cc([100NH:0][100C:0](=O)N4CCCC(n5nc(-c6ccc(Oc7ccc(F)cc7F)cc6)c(C(N)=O)c5N)C4)cnc3N)ccc2CC1C(=O)NC1CCCc2ccccc21)C(C)(C)C

> <Shape>
0.240

> <Color>
0.159

> <Negative vol penalty>
0.000

$$$$

  -OEChem-04052304173D

 89 97  0     1  0  0  0  0  0999 V2000
  -31.0827  -25.9313   18.1844 C   0  0  0  0  0  0  0  0  0  0  0  0
  -29.6966  -25.8221   18.2320 C   0  0  0  0  0  0  0  0  0  0  0  0
  -22.5196  -13.8313   20.4946 C   0  0  0  0  0  0  0  0  0  0  0  0
  -24.0612  -12.5428   21.8363 C   0  0  0  0  0  0  0  0  0  0  0  0
  -25.6145  -22.7057   19.3819 C   0  0  0  0  0  0  0  0  0  0  0  0
  -31.7696  -26.5372   19.2355 C   0  0  0  0  0  0  0  0  0  0  0  0
  -28.9967  -26.3178   19.3315 C   0  0  0  0  0  0  0  0  0  0  0  0
  -23.4405  -28.8936   19.3024 C   0  0  0  0  0  0  0  0  0  0  0  0
  -24.6698  -23.4320   20.1068 C   0  0  0  0  0  0  0  0  0  0  0  0
  -21.6741  -12.7256   20.4042 C   0  0  0  0  0  0  0  0  0  0  0  0
  -23.2157  -11.4371   21.7460 C   0  0  0  0  0  0  0  0  0  0  0  0
  -22.1726  -28.3919   19.5927 C   0  0  0  0  0  0  0  0  0  0  0  0
  -22.4844   -9.0388   19.4778 C   0  0  0  0  0  0  0  0  0  0  0  0
  -23.0634   -7.8017   19.1951 C   0  0  0  0  0  0  0  0  0  0  0  0
  -22.3565  -29.2448   21.8416 C   0  0  0  0  0  0  0  0  0  0  0  0
  -26.3810  -24.0857   21.6820 C   0  0  0  0  0  0  0  0  0  0  0  0
  -22.2174   -6.9285   21.2829 C   0  0  0  0  0  0  0  0  0  0  0  0
  -23.7132  -13.7399   21.2106 C   0  0  0  0  0  0  0  0  0  0  0  0
  -26.9426  -22.6693   19.8071 C   0  0  0  0  0  0  0  0  0  0  0  0
  -24.5704  -15.8869   22.2891 C   0  0  0  0  0  0  0  0  0  0  0  0
  -31.0769  -27.0492   20.3440 C   0  0  0  0  0  0  0  0  0  0  0  0
  -24.1818  -29.5663   20.2844 C   0  0  0  0  0  0  0  0  0  0  0  0
  -29.6751  -26.9299   20.3991 C   0  0  0  0  0  0  0  0  0  0  0  0
  -23.6326  -29.7563   21.5605 C   0  0  0  0  0  0  0  0  0  0  0  0
  -27.3258  -23.3593   20.9571 C   0  0  0  0  0  0  0  0  0  0  0  0
  -25.0530  -24.1220   21.2568 C   0  0  0  0  0  0  0  0  0  0  0  0
  -22.0221  -11.5285   21.0299 C   0  0  0  0  0  0  0  0  0  0  0  0
  -21.6315  -28.5649   20.8633 C   0  0  0  0  0  0  0  0  0  0  0  0
  -21.7720   -9.2208   20.6632 C   0  0  0  0  0  0  0  0  0  0  0  0
  -22.9298   -6.7465   20.0976 C   0  0  0  0  0  0  0  0  0  0  0  0
  -21.6385   -8.1657   21.5657 C   0  0  0  0  0  0  0  0  0  0  0  0
  -24.5873  -14.8815   21.3039 C   0  0  0  0  0  0  0  0  0  0  0  0
  -25.5906  -16.7344   21.9324 C   0  0  0  0  0  0  0  0  0  0  0  0
  -27.9277  -21.8884   19.0155 C   0  0  0  0  0  0  0  0  0  0  0  0
  -23.7095  -16.0408   23.4253 C   0  0  0  0  0  0  0  0  0  0  0  0
  -26.9667  -29.0615   21.7311 C   0  0  0  0  0  0  0  0  0  0  0  0
  -21.9813  -25.7945   22.6206 C   0  0  0  0  0  0  0  0  0  0  0  0
  -26.3803  -31.9778   23.0246 C   0  0  0  0  0  0  0  0  0  0  0  0
  -24.0898  -34.3513   23.9005 C   0  0  0  0  0  0  0  0  0  0  0  0
  -28.4307  -19.6241   18.1533 C   0  0  0  0  0  0  0  0  0  0  0  0
  -31.8668  -27.6533   21.4779 C   0  0  0  0  0  0  0  0  0  0  0  0
  -25.5371  -30.1248   19.9475 C   0  0  0  0  0  0  0  0  0  0  0  0
  -24.3793  -30.4891   22.6441 C   0  0  0  0  0  0  0  0  0  0  0  0
  -31.0188  -28.4882   22.4340 C   0  0  0  0  0  0  0  0  0  0  0  0
  -29.2642  -16.2048   18.4859 C   0  0  0  0  0  0  0  0  0  0  0  0
  -29.7404  -27.7426   22.8035 C   0  0  0  0  0  0  0  0  0  0  0  0
  -28.1252  -15.6366   19.3369 C   0  0  0  0  0  0  0  0  0  0  0  0
  -28.7635  -17.2567   17.4971 C   0  0  0  0  0  0  0  0  0  0  0  0
  -26.8336  -17.7708   18.9356 C   0  0  0  0  0  0  0  0  0  0  0  0
  -28.8783  -27.4776   21.5633 C   0  0  1  0  0  0  0  0  0  0  0  0
  -26.4152  -30.3440   21.1756 C   0  0  1  0  0  0  0  0  0  0  0  0
  -27.2972  -16.7583   19.9954 C   0  0  1  0  0  0  0  0  0  0  0  0
  -23.9081  -36.6125   24.9734 C   0  0  0  0  0  0  0  0  0  0  0  0
  -18.7649  -26.4395   20.5791 C   0  0  0  0  0  0  0  0  0  0  0  0
  -26.8025  -30.7079   25.7667 C   0  0  0  0  0  0  0  0  0  0  0  0
  -25.6994  -32.7106   26.7868 C   0  0  0  0  0  0  0  0  0  0  0  0
  -27.8198  -32.9769   25.5001 C   0  0  0  0  0  0  0  0  0  0  0  0
  -22.9324  -35.5478   21.4535 C   0  0  0  0  0  0  0  0  0  0  0  0
  -20.4930  -25.9800   22.3500 C   0  0  0  0  0  0  0  0  0  0  0  0
  -22.7215  -24.9347   21.6160 C   0  0  0  0  0  0  0  0  0  0  0  0
  -28.7415  -23.3377   21.4339 C   0  0  0  0  0  0  0  0  0  0  0  0
  -25.6732  -32.4760   24.2619 C   0  0  1  0  0  0  0  0  0  0  0  0
  -24.0526  -35.8505   23.6653 C   0  0  2  0  0  0  0  0  0  0  0  0
  -20.2056  -26.6676   21.0146 C   0  0  2  0  0  0  0  0  0  1  0  0
  -26.4852  -32.2023   25.5593 C   0  0  0  0  0  0  0  0  0  0  0  0
  -25.5424  -15.0714   20.3897 N   0  0  0  0  0  0  0  0  0  0  0  0
  -26.1351  -16.2060   20.7990 N   0  0  0  0  0  0  0  0  0  0  0  0
  -25.7034  -31.0111   22.2676 N   0  0  0  0  0  0  0  0  0  0  0  0
  -27.9979  -18.2874   18.2005 N   0  0  0  0  0  0  0  0  0  0  0  0
  -26.0660  -17.8728   22.4806 N   0  0  0  0  0  0  0  0  0  0  0  0
  -22.7139  -15.0790   23.6444 N   0  0  0  0  0  0  0  0  0  0  0  0
  -24.1126  -24.8429   21.9787 N   0  0  0  0  0  0  0  0  0  0  0  0
  -27.6562  -20.5255   18.8920 N   0  0  0  0  0  0  0  0  0  0  0  0
  -28.1715  -28.6786   21.1730 N   0  0  0  0  0  0  0  0  0  0  0  0
  -25.3817  -33.8858   24.0257 N   0  0  0  0  0  0  0  0  0  0  0  0
  -22.9054  -36.2083   22.7838 N   0  3  0  0  0  0  0  0  0  0  0  0
  -28.8749  -22.4723   18.4960 O   0  0  0  0  0  0  0  0  0  0  0  0
  -23.8094  -17.0115   24.2135 O   0  0  0  0  0  0  0  0  0  0  0  0
  -26.3460  -28.4642   22.6027 O   0  0  0  0  0  0  0  0  0  0  0  0
  -22.5408  -26.3067   23.5891 O   0  0  0  0  0  0  0  0  0  0  0  0
  -27.4892  -32.4350   22.7365 O   0  0  0  0  0  0  0  0  0  0  0  0
  -23.0742  -33.6626   23.9701 O   0  0  0  0  0  0  0  0  0  0  0  0
  -29.4412  -19.9788   17.5381 O   0  0  0  0  0  0  0  0  0  0  0  0
  -21.1972  -10.4494   20.9422 O   0  0  0  0  0  0  0  0  0  0  0  0
  -20.3944  -28.0757   21.1495 O   0  0  0  0  0  0  0  0  0  1  0  0
  -23.4845   -5.5581   19.8251 F   0  0  0  0  0  0  0  0  0  0  0  0
  -20.9543   -8.3342   22.7056 F   0  0  0  0  0  0  0  0  0  0  0  0
  -29.1309  -22.0702   21.7275 F   0  0  0  0  0  0  0  0  0  0  0  0
  -28.8744  -24.0582   22.5773 F   0  0  0  0  0  0  0  0  0  0  0  0
  1  2  1  0  0  0  0
  1  6  2  0  0  0  0
  2  7  2  0  0  0  0
  3 10  2  0  0  0  0
  3 18  1  0  0  0  0
  4 11  1  0  0  0  0
  4 18  2  0  0  0  0
  5  9  2  0  0  0  0
  5 19  1  0  0  0  0
  6 21  1  0  0  0  0
  7 23  1  0  0  0  0
  8 12  2  0  0  0  0
  8 22  1  0  0  0  0
  9 26  1  0  0  0  0
 10 27  1  0  0  0  0
 11 27  2  0  0  0  0
 12 28  1  0  0  0  0
 13 14  2  0  0  0  0
 13 29  1  0  0  0  0
 14 30  1  0  0  0  0
 15 24  1  0  0  0  0
 15 28  2  0  0  0  0
 16 25  1  0  0  0  0
 16 26  2  0  0  0  0
 17 30  2  0  0  0  0
 17 31  1  0  0  0  0
 18 32  1  0  0  0  0
 19 25  2  0  0  0  0
 19 34  1  0  0  0  0
 20 32  1  0  0  0  0
 20 33  2  0  0  0  0
 20 35  1  0  0  0  0
 21 23  2  0  0  0  0
 21 41  1  0  0  0  0
 22 24  2  0  0  0  0
 22 42  1  0  0  0  0
 23 50  1  0  0  0  0
 24 43  1  0  0  0  0
 25 61  1  0  0  0  0
 26 72  1  0  0  0  0
 27 84  1  0  0  0  0
 28 85  1  0  0  0  0
 29 31  2  0  0  0  0
 29 84  1  0  0  0  0
 30 86  1  0  0  0  0
 31 87  1  0  0  0  0
 32 66  2  0  0  0  0
 33 67  1  0  0  0  0
 33 70  1  0  0  0  0
 34 73  1  0  0  0  0
 34 77  2  0  0  0  0
 35 71  1  0  0  0  0
 35 78  2  0  0  0  0
 36 51  1  0  0  0  0
 36 74  1  0  0  0  0
 36 79  2  0  0  0  0
 37 59  1  0  0  0  0
 37 60  1  0  0  0  0
 37 80  2  0  0  0  0
 38 62  1  0  0  0  0
 38 68  1  0  0  0  0
 38 81  2  0  0  0  0
 39 63  1  0  0  0  0
 39 75  1  0  0  0  0
 39 82  2  0  0  0  0
 40 69  1  0  0  0  0
 40 73  1  0  0  0  0
 40 83  2  0  0  0  0
 41 44  1  0  0  0  0
 42 51  1  0  0  0  0
 43 68  1  0  0  0  0
 44 46  1  0  0  0  0
 45 47  1  0  0  0  0
 45 48  1  0  0  0  0
 46 50  1  0  0  0  0
 47 52  1  0  0  0  0
 48 69  1  0  0  0  0
 49 52  1  0  0  0  0
 49 69  1  0  0  0  0
 50 74  1  0  0  0  0
 51 68  1  0  0  0  0
 52 67  1  0  0  0  0
 53 63  1  0  0  0  0
 54 64  1  0  0  0  0
 55 65  1  0  0  0  0
 56 65  1  0  0  0  0
 57 65  1  0  0  0  0
 58 76  1  0  0  0  0
 59 64  1  0  0  0  0
 60 72  1  0  0  0  0
 61 88  1  0  0  0  0
 61 89  1  0  0  0  0
 62 65  1  0  0  0  0
 62 75  1  0  0  0  0
 63 76  1  0  0  0  0
 64 85  1  0  0  0  0
 66 67  1  0  0  0  0
M  CHG  1  76   1
M  ISO  4  40 100  64 101  73 100  85 101
M  END
> <Batch ID>
0169

> <Smiles>
CNC(C)C(=O)NC(C(=O)N1Cc2cc([101O:1][101CH:1](C)CC(=O)CNc3ccc(C(=O)[100NH:0][100C:0](=O)N4CCCC(n5nc(-c6ccc(Oc7ccc(F)cc7F)cc6)c(C(N)=O)c5N)C4)c(C(F)F)c3)ccc2CC1C(=O)NC1CCCc2ccccc21)C(C)(C)C

> <Shape>
0.318

> <Color>
0.076

> <Negative vol penalty>
0.000

$$$$

  -OEChem-04052304173D

 86 94  0     1  0  0  0  0  0999 V2000
  -18.0781  -28.4617   23.2014 C   0  0  0  0  0  0  0  0  0  0  0  0
  -19.2475  -29.1821   23.4224 C   0  0  0  0  0  0  0  0  0  0  0  0
  -25.5232  -13.7126   21.1420 C   0  0  0  0  0  0  0  0  0  0  0  0
  -25.7768  -13.8390   18.7426 C   0  0  0  0  0  0  0  0  0  0  0  0
  -18.1430  -27.1781   22.6609 C   0  0  0  0  0  0  0  0  0  0  0  0
  -20.4827  -28.6189   23.1041 C   0  0  0  0  0  0  0  0  0  0  0  0
  -27.0072  -30.4286   20.7647 C   0  0  0  0  0  0  0  0  0  0  0  0
  -24.5563  -12.7193   20.9875 C   0  0  0  0  0  0  0  0  0  0  0  0
  -24.8099  -12.8456   18.5881 C   0  0  0  0  0  0  0  0  0  0  0  0
  -28.3522  -30.2719   21.0966 C   0  0  0  0  0  0  0  0  0  0  0  0
  -24.4752   -9.3991   20.3529 C   0  0  0  0  0  0  0  0  0  0  0  0
  -24.5581   -8.2794   21.1806 C   0  0  0  0  0  0  0  0  0  0  0  0
  -28.3376  -28.0777   20.0942 C   0  0  0  0  0  0  0  0  0  0  0  0
  -31.9873  -22.7089   19.0918 C   0  0  0  0  0  0  0  0  0  0  0  0
  -34.0380  -21.1727   17.9883 C   0  0  0  0  0  0  0  0  0  0  0  0
  -22.3653   -8.7723   22.0670 C   0  0  0  0  0  0  0  0  0  0  0  0
  -26.1335  -14.2725   20.0195 C   0  0  0  0  0  0  0  0  0  0  0  0
  -28.5215  -15.1194   20.3157 C   0  0  0  0  0  0  0  0  0  0  0  0
  -19.3791  -26.6026   22.3268 C   0  0  0  0  0  0  0  0  0  0  0  0
  -26.3132  -29.4049   20.1037 C   0  0  0  0  0  0  0  0  0  0  0  0
  -20.5644  -27.3259   22.5599 C   0  0  0  0  0  0  0  0  0  0  0  0
  -26.9845  -28.2249   19.7528 C   0  0  0  0  0  0  0  0  0  0  0  0
  -33.3110  -23.1372   19.1922 C   0  0  0  0  0  0  0  0  0  0  0  0
  -31.6890  -21.5124   18.4398 C   0  0  0  0  0  0  0  0  0  0  0  0
  -34.3363  -22.3692   18.6404 C   0  0  0  0  0  0  0  0  0  0  0  0
  -24.1996  -12.2857   19.7106 C   0  0  0  0  0  0  0  0  0  0  0  0
  -29.0169  -29.0951   20.7639 C   0  0  0  0  0  0  0  0  0  0  0  0
  -23.3374  -10.2054   20.3823 C   0  0  0  0  0  0  0  0  0  0  0  0
  -23.5032   -7.9660   22.0376 C   0  0  0  0  0  0  0  0  0  0  0  0
  -32.7143  -20.7443   17.8880 C   0  0  0  0  0  0  0  0  0  0  0  0
  -22.2824   -9.8920   21.2394 C   0  0  0  0  0  0  0  0  0  0  0  0
  -27.1320  -15.2990   20.1785 C   0  0  0  0  0  0  0  0  0  0  0  0
  -29.0222  -16.3929   20.4348 C   0  0  0  0  0  0  0  0  0  0  0  0
  -29.2908  -13.9097   20.3337 C   0  0  0  0  0  0  0  0  0  0  0  0
  -33.2515  -26.5119   20.8040 C   0  0  0  0  0  0  0  0  0  0  0  0
  -32.3956  -27.7181   21.1378 C   0  0  0  0  0  0  0  0  0  0  0  0
  -23.8039  -27.5828   20.8013 C   0  0  0  0  0  0  0  0  0  0  0  0
  -24.1839  -26.5664   17.7443 C   0  0  0  0  0  0  0  0  0  0  0  0
  -26.2586  -26.1473   15.0673 C   0  0  0  0  0  0  0  0  0  0  0  0
  -29.2097  -21.7225   18.8341 C   0  0  0  0  0  0  0  0  0  0  0  0
  -19.4022  -25.1938   21.7889 C   0  0  0  0  0  0  0  0  0  0  0  0
  -24.8697  -29.6002   19.7290 C   0  0  0  0  0  0  0  0  0  0  0  0
  -26.2902  -27.1040   19.0249 C   0  0  0  0  0  0  0  0  0  0  0  0
  -20.7262  -24.8148   21.1305 C   0  0  0  0  0  0  0  0  0  0  0  0
  -26.6543  -20.8108   21.1396 C   0  0  0  0  0  0  0  0  0  0  0  0
  -21.8995  -25.2380   22.0086 C   0  0  0  0  0  0  0  0  0  0  0  0
  -26.6650  -19.2808   21.1064 C   0  0  0  0  0  0  0  0  0  0  0  0
  -26.9253  -21.4099   19.7607 C   0  0  0  0  0  0  0  0  0  0  0  0
  -28.1517  -19.3896   19.0656 C   0  0  0  0  0  0  0  0  0  0  0  0
  -21.9217  -26.7587   22.2045 C   0  0  1  0  0  0  0  0  0  0  0  0
  -24.1253  -28.2862   19.5131 C   0  0  1  0  0  0  0  0  0  0  0  0
  -27.9477  -18.7405   20.4442 C   0  0  2  0  0  0  0  0  0  0  0  0
  -26.2927  -25.2548   12.7221 C   0  0  0  0  0  0  0  0  0  0  0  0
  -24.2509  -23.7166   18.8324 C   0  0  0  0  0  0  0  0  0  0  0  0
  -25.2178  -22.9781   16.6443 C   0  0  0  0  0  0  0  0  0  0  0  0
  -22.9417  -23.9962   16.7200 C   0  0  0  0  0  0  0  0  0  0  0  0
  -26.9605  -28.7948   13.9462 C   0  0  0  0  0  0  0  0  0  0  0  0
  -32.6071  -25.3638   20.0709 C   0  0  0  0  0  0  0  0  0  0  0  0
  -30.9481  -27.7081   20.7161 C   0  0  0  0  0  0  0  0  0  1  0  0
  -24.9689  -25.4650   17.0737 C   0  0  1  0  0  0  0  0  0  0  0  0
  -26.0855  -26.4816   13.5967 C   0  0  2  0  0  0  0  0  0  0  0  0
  -24.3577  -24.0591   17.3330 C   0  0  0  0  0  0  0  0  0  0  0  0
  -26.7729  -16.5852   20.2077 N   0  0  0  0  0  0  0  0  0  0  0  0
  -27.9441  -17.2253   20.3648 N   0  0  0  0  0  0  0  0  0  0  0  0
  -24.8771  -27.3401   18.6860 N   0  0  0  0  0  0  0  0  0  0  0  0
  -28.1579  -20.8550   19.1972 N   0  0  0  0  0  0  0  0  0  0  0  0
  -35.6839  -22.7838   18.7309 N   0  0  0  0  0  0  0  0  0  0  0  0
  -30.2750  -16.8705   20.5917 N   0  0  0  0  0  0  0  0  0  0  0  0
  -28.6177  -12.6878   20.1990 N   0  0  0  0  0  0  0  0  0  0  0  0
  -30.3437  -21.0786   18.3401 N   0  0  0  0  0  0  0  0  0  0  0  0
  -33.5860  -24.3291   19.8452 N   0  0  0  0  0  0  0  0  0  0  0  0
  -22.4513  -27.4124   21.0269 N   0  0  0  0  0  0  0  0  0  0  0  0
  -25.0571  -25.8273   15.6632 N   0  0  0  0  0  0  0  0  0  0  0  0
  -27.0668  -27.5244   13.1835 N   0  3  0  0  0  0  0  0  0  0  0  0
  -30.5364  -13.9114   20.4819 O   0  0  0  0  0  0  0  0  0  0  0  0
  -34.4240  -26.5468   21.1557 O   0  0  0  0  0  0  0  0  0  0  0  0
  -32.9322  -28.6427   21.7346 O   0  0  0  0  0  0  0  0  0  0  0  0
  -24.7156  -27.2201   21.5354 O   0  0  0  0  0  0  0  0  0  0  0  0
  -23.0013  -26.7386   17.4386 O   0  0  0  0  0  0  0  0  0  0  0  0
  -27.3511  -26.1644   15.6302 O   0  0  0  0  0  0  0  0  0  0  0  0
  -29.1220  -22.9447   18.9781 O   0  0  0  0  0  0  0  0  0  0  0  0
  -23.2563  -11.3163   19.5595 O   0  0  0  0  0  0  0  0  0  0  0  0
  -30.3295  -28.9393   21.0872 O   0  0  0  0  0  0  0  0  0  1  0  0
  -23.5823   -6.8899   22.8312 F   0  0  0  0  0  0  0  0  0  0  0  0
  -32.4394  -19.5916   17.2609 F   0  0  0  0  0  0  0  0  0  0  0  0
  -21.1863  -10.6622   21.2712 F   0  0  0  0  0  0  0  0  0  0  0  0
  1  2  1  0  0  0  0
  1  5  2  0  0  0  0
  2  6  2  0  0  0  0
  3  8  2  0  0  0  0
  3 17  1  0  0  0  0
  4  9  1  0  0  0  0
  4 17  2  0  0  0  0
  5 19  1  0  0  0  0
  6 21  1  0  0  0  0
  7 10  2  0  0  0  0
  7 20  1  0  0  0  0
  8 26  1  0  0  0  0
  9 26  2  0  0  0  0
 10 27  1  0  0  0  0
 11 12  2  0  0  0  0
 11 28  1  0  0  0  0
 12 29  1  0  0  0  0
 13 22  1  0  0  0  0
 13 27  2  0  0  0  0
 14 23  1  0  0  0  0
 14 24  2  0  0  0  0
 15 25  1  0  0  0  0
 15 30  2  0  0  0  0
 16 29  2  0  0  0  0
 16 31  1  0  0  0  0
 17 32  1  0  0  0  0
 18 32  1  0  0  0  0
 18 33  2  0  0  0  0
 18 34  1  0  0  0  0
 19 21  2  0  0  0  0
 19 41  1  0  0  0  0
 20 22  2  0  0  0  0
 20 42  1  0  0  0  0
 21 50  1  0  0  0  0
 22 43  1  0  0  0  0
 23 25  2  0  0  0  0
 23 71  1  0  0  0  0
 24 30  1  0  0  0  0
 24 70  1  0  0  0  0
 25 67  1  0  0  0  0
 26 82  1  0  0  0  0
 27 83  1  0  0  0  0
 28 31  2  0  0  0  0
 28 82  1  0  0  0  0
 29 84  1  0  0  0  0
 30 85  1  0  0  0  0
 31 86  1  0  0  0  0
 32 63  2  0  0  0  0
 33 64  1  0  0  0  0
 33 68  1  0  0  0  0
 34 69  1  0  0  0  0
 34 75  2  0  0  0  0
 35 36  1  0  0  0  0
 35 58  1  0  0  0  0
 35 76  2  0  0  0  0
 36 59  1  0  0  0  0
 36 77  2  0  0  0  0
 37 51  1  0  0  0  0
 37 72  1  0  0  0  0
 37 78  2  0  0  0  0
 38 60  1  0  0  0  0
 38 65  1  0  0  0  0
 38 79  2  0  0  0  0
 39 61  1  0  0  0  0
 39 73  1  0  0  0  0
 39 80  2  0  0  0  0
 40 66  1  0  0  0  0
 40 70  1  0  0  0  0
 40 81  2  0  0  0  0
 41 44  1  0  0  0  0
 42 51  1  0  0  0  0
 43 65  1  0  0  0  0
 44 46  1  0  0  0  0
 45 47  1  0  0  0  0
 45 48  1  0  0  0  0
 46 50  1  0  0  0  0
 47 52  1  0  0  0  0
 48 66  1  0  0  0  0
 49 52  1  0  0  0  0
 49 66  1  0  0  0  0
 50 72  1  0  0  0  0
 51 65  1  0  0  0  0
 52 64  1  0  0  0  0
 53 61  1  0  0  0  0
 54 62  1  0  0  0  0
 55 62  1  0  0  0  0
 56 62  1  0  0  0  0
 57 74  1  0  0  0  0
 58 71  1  0  0  0  0
 59 83  1  0  0  0  0
 60 62  1  0  0  0  0
 60 73  1  0  0  0  0
 61 74  1  0  0  0  0
 63 64  1  0  0  0  0
M  CHG  1  74   1
M  ISO  4  40 100  59 101  70 100  83 101
M  END
> <Batch ID>
0169

> <Smiles>
CNC(C)C(=O)NC(C(=O)N1Cc2cc([101O:1][101CH2:1]C(=O)C(=O)CNc3cc([100NH:0][100C:0](=O)N4CCCC(n5nc(-c6ccc(Oc7ccc(F)cc7F)cc6)c(C(N)=O)c5N)C4)c(F)cc3N)ccc2CC1C(=O)NC1CCCc2ccccc21)C(C)(C)C

> <Shape>
0.253

> <Color>
0.075

> <Negative vol penalty>
0.000

$$$$

  -OEChem-04052304173D

 83 91  0     1  0  0  0  0  0999 V2000
  -24.5782  -37.2359   18.8270 C   0  0  0  0  0  0  0  0  0  0  0  0
  -25.2819  -36.0713   18.5368 C   0  0  0  0  0  0  0  0  0  0  0  0
  -23.7763   -9.0025   20.0511 C   0  0  0  0  0  0  0  0  0  0  0  0
  -23.1389  -10.7839   21.5536 C   0  0  0  0  0  0  0  0  0  0  0  0
  -24.1062  -37.4601   20.1196 C   0  0  0  0  0  0  0  0  0  0  0  0
  -25.5148  -35.1307   19.5396 C   0  0  0  0  0  0  0  0  0  0  0  0
  -25.7200  -29.0434   18.9012 C   0  0  0  0  0  0  0  0  0  0  0  0
  -28.2070  -18.6723   18.8475 C   0  0  0  0  0  0  0  0  0  0  0  0
  -22.9389   -8.1236   20.7379 C   0  0  0  0  0  0  0  0  0  0  0  0
  -22.3015   -9.9050   22.2404 C   0  0  0  0  0  0  0  0  0  0  0  0
  -26.7817  -28.1491   18.7711 C   0  0  0  0  0  0  0  0  0  0  0  0
  -19.6325   -7.4301   20.8780 C   0  0  0  0  0  0  0  0  0  0  0  0
  -18.8128   -6.5918   20.1223 C   0  0  0  0  0  0  0  0  0  0  0  0
  -28.2843  -20.0590   18.9143 C   0  0  0  0  0  0  0  0  0  0  0  0
  -26.6992  -27.7154   21.1426 C   0  0  0  0  0  0  0  0  0  0  0  0
  -19.8712   -4.6609   21.1165 C   0  0  0  0  0  0  0  0  0  0  0  0
  -30.2537  -18.5521   20.0529 C   0  0  0  0  0  0  0  0  0  0  0  0
  -23.8764  -10.3327   20.4589 C   0  0  0  0  0  0  0  0  0  0  0  0
  -24.4053  -12.0502   18.6484 C   0  0  0  0  0  0  0  0  0  0  0  0
  -24.3251  -36.5173   21.1363 C   0  0  0  0  0  0  0  0  0  0  0  0
  -25.1461  -29.2890   20.1569 C   0  0  0  0  0  0  0  0  0  0  0  0
  -25.0465  -35.3431   20.8473 C   0  0  0  0  0  0  0  0  0  0  0  0
  -25.6287  -28.6113   21.2856 C   0  0  0  0  0  0  0  0  0  0  0  0
  -29.2064  -17.8972   19.4251 C   0  0  0  0  0  0  0  0  0  0  0  0
  -22.2015   -8.5748   21.8326 C   0  0  0  0  0  0  0  0  0  0  0  0
  -27.2734  -27.4872   19.8923 C   0  0  0  0  0  0  0  0  0  0  0  0
  -20.5716   -6.8838   21.7528 C   0  0  0  0  0  0  0  0  0  0  0  0
  -18.9322   -5.2072   20.2416 C   0  0  0  0  0  0  0  0  0  0  0  0
  -20.6909   -5.4992   21.8721 C   0  0  0  0  0  0  0  0  0  0  0  0
  -24.7417  -11.2410   19.7501 C   0  0  0  0  0  0  0  0  0  0  0  0
  -29.3727  -20.6171   19.5652 C   0  0  0  0  0  0  0  0  0  0  0  0
  -25.5659  -12.7203   18.3475 C   0  0  0  0  0  0  0  0  0  0  0  0
  -28.0200  -25.3020   19.5205 C   0  0  0  0  0  0  0  0  0  1  0  0
  -23.1556  -12.1842   17.9586 C   0  0  0  0  0  0  0  0  0  0  0  0
  -28.9595  -24.3590   19.3804 C   0  0  0  0  0  0  0  0  0  0  0  0
  -28.5373  -22.9461   19.1090 C   0  0  0  0  0  0  0  0  0  0  0  0
  -24.8358  -31.8455   22.0200 C   0  0  0  0  0  0  0  0  0  0  0  0
  -23.0373  -29.8331   23.8195 C   0  0  0  0  0  0  0  0  0  0  0  0
  -22.2972  -26.6238   24.7133 C   0  0  0  0  0  0  0  0  0  0  0  0
  -30.0806  -15.5836   19.9040 C   0  0  0  0  0  0  0  0  0  0  0  0
  -23.8366  -36.8255   22.5295 C   0  0  0  0  0  0  0  0  0  0  0  0
  -23.9840  -30.2364   20.2762 C   0  0  0  0  0  0  0  0  0  0  0  0
  -25.0341  -28.8245   22.6529 C   0  0  0  0  0  0  0  0  0  0  0  0
  -23.8011  -35.6054   23.4464 C   0  0  0  0  0  0  0  0  0  0  0  0
  -30.2946  -12.0313   20.0167 C   0  0  0  0  0  0  0  0  0  0  0  0
  -25.0985  -34.8118   23.3294 C   0  0  0  0  0  0  0  0  0  0  0  0
  -28.8414  -11.5756   19.8668 C   0  0  0  0  0  0  0  0  0  0  0  0
  -30.4057  -13.3081   20.8481 C   0  0  0  0  0  0  0  0  0  0  0  0
  -28.1101  -13.9654   20.2422 C   0  0  0  0  0  0  0  0  0  0  0  0
  -25.2978  -34.2876   21.9022 C   0  0  1  0  0  0  0  0  0  0  0  0
  -23.8127  -30.7975   21.6845 C   0  0  1  0  0  0  0  0  0  0  0  0
  -27.9419  -12.7191   19.3579 C   0  0  2  0  0  0  0  0  0  0  0  0
  -20.8076  -25.2965   26.2354 C   0  0  0  0  0  0  0  0  0  0  0  0
  -24.8025  -30.5794   26.1937 C   0  0  0  0  0  0  0  0  0  0  0  0
  -23.9108  -28.5737   27.3980 C   0  0  0  0  0  0  0  0  0  0  0  0
  -22.3636  -30.4092   26.7199 C   0  0  0  0  0  0  0  0  0  0  0  0
  -21.0044  -25.2446   22.4361 C   0  0  0  0  0  0  0  0  0  0  0  0
  -23.3152  -28.8735   24.9513 C   0  0  1  0  0  0  0  0  0  0  0  0
  -20.9720  -25.8956   24.8473 C   0  0  2  0  0  0  0  0  0  0  0  0
  -23.6107  -29.6062   26.2904 C   0  0  0  0  0  0  0  0  0  0  0  0
  -30.3630  -19.8968   20.1382 N   0  0  0  0  0  0  0  0  0  0  0  0
  -26.0162  -11.3825   20.1238 N   0  0  0  0  0  0  0  0  0  0  0  0
  -26.4909  -12.2883   19.2520 N   0  0  0  0  0  0  0  0  0  0  0  0
  -23.9036  -29.7653   22.7192 N   0  0  0  0  0  0  0  0  0  0  0  0
  -29.5294  -14.3481   20.3047 N   0  0  0  0  0  0  0  0  0  0  0  0
  -25.8752  -13.6310   17.4002 N   0  0  0  0  0  0  0  0  0  0  0  0
  -22.0646  -11.4221   18.3983 N   0  0  0  0  0  0  0  0  0  0  0  0
  -29.1560  -16.4821   19.3725 N   0  0  0  0  0  0  0  0  0  0  0  0
  -29.4416  -22.0298   19.6281 N   0  0  0  0  0  0  0  0  0  0  0  0
  -24.4630  -33.1288   21.6682 N   0  0  0  0  0  0  0  0  0  0  0  0
  -22.1745  -27.9656   25.0060 N   0  0  0  0  0  0  0  0  0  0  0  0
  -20.8822  -24.7948   23.8467 N   0  3  0  0  0  0  0  0  0  0  0  0
  -23.0149  -12.9447   16.9710 O   0  0  0  0  0  0  0  0  0  0  0  0
  -27.5036  -22.7043   18.4952 O   0  0  0  0  0  0  0  0  0  0  0  0
  -25.8851  -31.5146   22.5596 O   0  0  0  0  0  0  0  0  0  0  0  0
  -22.0824  -30.6092   23.9053 O   0  0  0  0  0  0  0  0  0  0  0  0
  -23.3379  -26.0580   24.3856 O   0  0  0  0  0  0  0  0  0  0  0  0
  -31.2884  -15.8165   19.9983 O   0  0  0  0  0  0  0  0  0  0  0  0
  -30.3083  -24.6355   19.4748 O   0  0  0  0  0  0  0  0  0  0  0  0
  -21.3841   -7.7174   22.5029 O   0  0  0  0  0  0  0  0  0  0  0  0
  -28.3100  -26.6143   19.7682 O   0  0  0  0  0  0  0  0  0  1  0  0
  -18.1439   -4.4023   19.5170 F   0  0  0  0  0  0  0  0  0  0  0  0
  -21.5905   -4.9685   22.7118 F   0  0  0  0  0  0  0  0  0  0  0  0
  1  2  1  0  0  0  0
  1  5  2  0  0  0  0
  2  6  2  0  0  0  0
  3  9  2  0  0  0  0
  3 18  1  0  0  0  0
  4 10  1  0  0  0  0
  4 18  2  0  0  0  0
  5 20  1  0  0  0  0
  6 22  1  0  0  0  0
  7 11  2  0  0  0  0
  7 21  1  0  0  0  0
  8 14  2  0  0  0  0
  8 24  1  0  0  0  0
  9 25  1  0  0  0  0
 10 25  2  0  0  0  0
 11 26  1  0  0  0  0
 12 13  2  0  0  0  0
 12 27  1  0  0  0  0
 13 28  1  0  0  0  0
 14 31  1  0  0  0  0
 15 23  1  0  0  0  0
 15 26  2  0  0  0  0
 16 28  2  0  0  0  0
 16 29  1  0  0  0  0
 17 24  2  0  0  0  0
 17 61  1  0  0  0  0
 18 30  1  0  0  0  0
 19 30  1  0  0  0  0
 19 32  2  0  0  0  0
 19 34  1  0  0  0  0
 20 22  2  0  0  0  0
 20 41  1  0  0  0  0
 21 23  2  0  0  0  0
 21 42  1  0  0  0  0
 22 50  1  0  0  0  0
 23 43  1  0  0  0  0
 24 68  1  0  0  0  0
 25 80  1  0  0  0  0
 26 81  1  0  0  0  0
 27 29  2  0  0  0  0
 27 80  1  0  0  0  0
 28 82  1  0  0  0  0
 29 83  1  0  0  0  0
 30 62  2  0  0  0  0
 31 61  2  0  0  0  0
 31 69  1  0  0  0  0
 32 63  1  0  0  0  0
 32 66  1  0  0  0  0
 33 35  2  0  0  0  0
 33 81  1  0  0  0  0
 34 67  1  0  0  0  0
 34 73  2  0  0  0  0
 35 36  1  0  0  0  0
 35 79  1  0  0  0  0
 36 69  1  0  0  0  0
 36 74  2  0  0  0  0
 37 51  1  0  0  0  0
 37 70  1  0  0  0  0
 37 75  2  0  0  0  0
 38 58  1  0  0  0  0
 38 64  1  0  0  0  0
 38 76  2  0  0  0  0
 39 59  1  0  0  0  0
 39 71  1  0  0  0  0
 39 77  2  0  0  0  0
 40 65  1  0  0  0  0
 40 68  1  0  0  0  0
 40 78  2  0  0  0  0
 41 44  1  0  0  0  0
 42 51  1  0  0  0  0
 43 64  1  0  0  0  0
 44 46  1  0  0  0  0
 45 47  1  0  0  0  0
 45 48  1  0  0  0  0
 46 50  1  0  0  0  0
 47 52  1  0  0  0  0
 48 65  1  0  0  0  0
 49 52  1  0  0  0  0
 49 65  1  0  0  0  0
 50 70  1  0  0  0  0
 51 64  1  0  0  0  0
 52 63  1  0  0  0  0
 53 59  1  0  0  0  0
 54 60  1  0  0  0  0
 55 60  1  0  0  0  0
 56 60  1  0  0  0  0
 57 72  1  0  0  0  0
 58 60  1  0  0  0  0
 58 71  1  0  0  0  0
 59 72  1  0  0  0  0
 62 63  1  0  0  0  0
M  CHG  1  72   1
M  ISO  4  33 101  40 100  68 100  81 101
M  END
> <Batch ID>
0169

> <Smiles>
CNC(C)C(=O)NC(C(=O)N1Cc2cc([101O:1][101CH2:1]C(=O)C(=O)Nc3ccc([100NH:0][100C:0](=O)N4CCCC(n5nc(-c6ccc(Oc7ccc(F)cc7F)cc6)c(C(N)=O)c5N)C4)cn3)ccc2CC1C(=O)NC1CCCc2ccccc21)C(C)(C)C

> <Shape>
0.273

> <Color>
0.109

> <Negative vol penalty>
0.000

$$$$

  -OEChem-04052304173D

 86 95  0     1  0  0  0  0  0999 V2000
  -30.4064  -35.0097   25.8849 C   0  0  0  0  0  0  0  0  0  0  0  0
  -30.6132  -34.1513   24.8098 C   0  0  0  0  0  0  0  0  0  0  0  0
  -23.7468   -9.7748   22.0749 C   0  0  0  0  0  0  0  0  0  0  0  0
  -24.4475  -11.2320   23.8700 C   0  0  0  0  0  0  0  0  0  0  0  0
  -29.3857  -34.7483   26.7979 C   0  0  0  0  0  0  0  0  0  0  0  0
  -29.8000  -33.0302   24.6478 C   0  0  0  0  0  0  0  0  0  0  0  0
  -26.9058  -28.9236   19.5414 C   0  0  0  0  0  0  0  0  0  0  0  0
  -23.2481   -8.8655   23.0076 C   0  0  0  0  0  0  0  0  0  0  0  0
  -23.9488  -10.3227   24.8028 C   0  0  0  0  0  0  0  0  0  0  0  0
  -26.8043  -27.5852   19.1643 C   0  0  0  0  0  0  0  0  0  0  0  0
  -20.4970   -8.5424   24.9467 C   0  0  0  0  0  0  0  0  0  0  0  0
  -19.2358   -7.9961   24.7092 C   0  0  0  0  0  0  0  0  0  0  0  0
  -25.0212  -27.2773   20.7596 C   0  0  0  0  0  0  0  0  0  0  0  0
  -30.0827  -20.5041   18.1973 C   0  0  0  0  0  0  0  0  0  0  0  0
  -28.6716  -18.8516   19.2371 C   0  0  0  0  0  0  0  0  0  0  0  0
  -20.2022   -5.7822   24.6691 C   0  0  0  0  0  0  0  0  0  0  0  0
  -24.3466  -10.9580   22.5061 C   0  0  0  0  0  0  0  0  0  0  0  0
  -24.1708  -12.9677   20.9446 C   0  0  0  0  0  0  0  0  0  0  0  0
  -28.5533  -33.6287   26.6416 C   0  0  0  0  0  0  0  0  0  0  0  0
  -26.0717  -29.4470   20.5398 C   0  0  0  0  0  0  0  0  0  0  0  0
  -28.7680  -32.7528   25.5604 C   0  0  0  0  0  0  0  0  0  0  0  0
  -25.1124  -28.6232   21.1457 C   0  0  0  0  0  0  0  0  0  0  0  0
  -28.9059  -20.1708   18.8609 C   0  0  0  0  0  0  0  0  0  0  0  0
  -23.3490   -9.1394   24.3716 C   0  0  0  0  0  0  0  0  0  0  0  0
  -25.8638  -26.7611   19.7754 C   0  0  0  0  0  0  0  0  0  0  0  0
  -21.6109   -7.7086   25.0454 C   0  0  0  0  0  0  0  0  0  0  0  0
  -19.0884   -6.6161   24.5704 C   0  0  0  0  0  0  0  0  0  0  0  0
  -21.4635   -6.3285   24.9066 C   0  0  0  0  0  0  0  0  0  0  0  0
  -24.8624  -11.8975   21.5430 C   0  0  0  0  0  0  0  0  0  0  0  0
  -31.0029  -19.5020   17.9243 C   0  0  0  0  0  0  0  0  0  0  0  0
  -25.0945  -13.5507   20.1119 C   0  0  0  0  0  0  0  0  0  0  0  0
  -29.6274  -17.8913   18.9377 C   0  0  0  0  0  0  0  0  0  0  0  0
  -22.8146  -13.3965   21.1253 C   0  0  0  0  0  0  0  0  0  0  0  0
  -26.5419  -30.7394   23.4055 C   0  0  0  0  0  0  0  0  0  0  0  0
  -26.9172  -23.3291   19.2512 C   0  0  0  0  0  0  0  0  0  0  0  0
  -23.3472  -31.2813   23.2546 C   0  0  0  0  0  0  0  0  0  0  0  0
  -20.3197  -30.4104   21.9422 C   0  0  0  0  0  0  0  0  0  0  0  0
  -30.2305  -15.4511   19.1055 C   0  0  0  0  0  0  0  0  0  0  0  0
  -27.4933  -33.3616   27.6806 C   0  0  0  0  0  0  0  0  0  0  0  0
  -26.1756  -30.8995   20.9163 C   0  0  0  0  0  0  0  0  0  0  0  0
  -24.1795  -29.1416   22.2086 C   0  0  0  0  0  0  0  0  0  0  0  0
  -26.4362  -32.3575   27.2281 C   0  0  0  0  0  0  0  0  0  0  0  0
  -33.5067  -19.8040   15.3569 C   0  0  0  0  0  0  0  0  0  0  0  0
  -29.6726  -11.9646   18.6466 C   0  0  0  0  0  0  0  0  0  0  0  0
  -27.0956  -31.1412   26.5858 C   0  0  0  0  0  0  0  0  0  0  0  0
  -32.8742  -18.6528   16.1618 C   0  0  0  0  0  0  0  0  0  0  0  0
  -32.4399  -20.7232   15.9824 C   0  0  0  0  0  0  0  0  0  0  0  0
  -28.3146  -11.7244   19.3100 C   0  0  0  0  0  0  0  0  0  0  0  0
  -30.5002  -12.9993   19.4071 C   0  0  0  0  0  0  0  0  0  0  0  0
  -28.4610  -14.0354   20.3223 C   0  0  0  0  0  0  0  0  0  0  0  0
  -27.8909  -31.5400   25.3368 C   0  0  1  0  0  0  0  0  0  0  0  0
  -32.3824  -19.7263   17.1792 C   0  0  0  0  0  0  0  0  0  0  0  0
  -25.6243  -31.1971   22.3073 C   0  0  1  0  0  0  0  0  0  0  0  0
  -27.5653  -13.0487   19.5558 C   0  0  2  0  0  0  0  0  0  0  0  0
  -17.8850  -31.0109   22.0376 C   0  0  0  0  0  0  0  0  0  0  0  0
  -23.1070  -29.8695   25.9489 C   0  0  0  0  0  0  0  0  0  0  0  0
  -20.6464  -29.6560   25.5391 C   0  0  0  0  0  0  0  0  0  0  0  0
  -21.6886  -31.9157   25.7132 C   0  0  0  0  0  0  0  0  0  0  0  0
  -20.2599  -31.1078   19.0666 C   0  0  0  0  0  0  0  0  0  0  0  0
  -28.1261  -22.5400   18.7950 C   0  0  0  0  0  0  0  0  0  0  0  0
  -26.9532  -24.8148   18.9500 C   0  0  0  0  0  0  0  0  0  1  0  0
  -22.1121  -30.5108   23.6544 C   0  0  1  0  0  0  0  0  0  0  0  0
  -19.2100  -31.2451   21.3288 C   0  0  2  0  0  0  0  0  0  0  0  0
  -21.9073  -30.4774   25.1953 C   0  0  0  0  0  0  0  0  0  0  0  0
  -26.1278  -11.8037   21.1258 N   0  0  0  0  0  0  0  0  0  0  0  0
  -26.2386  -12.8224   20.2563 N   0  0  0  0  0  0  0  0  0  0  0  0
  -30.7520  -18.2398   18.2978 N   0  3  0  0  0  0  0  0  0  0  0  0
  -24.3243  -30.5671   22.5467 N   0  0  0  0  0  0  0  0  0  0  0  0
  -29.7277  -14.2287   19.5991 N   0  0  0  0  0  0  0  0  0  0  0  0
  -25.0315  -14.6100   19.2776 N   0  0  0  0  0  0  0  0  0  0  0  0
  -22.0024  -12.6850   22.0189 N   0  0  0  0  0  0  0  0  0  0  0  0
  -27.9675  -21.1521   19.1467 N   0  0  0  0  0  0  0  0  0  0  0  0
  -29.3940  -16.5464   19.3181 N   0  0  0  0  0  0  0  0  0  0  0  0
  -26.9990  -31.7591   24.2183 N   0  0  0  0  0  0  0  0  0  0  0  0
  -21.0030  -31.1062   22.9169 N   0  0  0  0  0  0  0  0  0  0  0  0
  -19.0396  -30.9023   19.8885 N   0  3  0  0  0  0  0  0  0  0  0  0
  -22.3325  -14.3713   20.5003 O   0  0  0  0  0  0  0  0  0  0  0  0
  -26.8137  -29.5489   23.5088 O   0  0  0  0  0  0  0  0  0  0  0  0
  -25.9632  -22.8100   19.8292 O   0  0  0  0  0  0  0  0  0  0  0  0
  -23.4384  -32.4747   23.5530 O   0  0  0  0  0  0  0  0  0  0  0  0
  -20.5543  -29.2552   21.5942 O   0  0  0  0  0  0  0  0  0  0  0  0
  -31.3101  -15.5165   18.5122 O   0  0  0  0  0  0  0  0  0  0  0  0
  -22.8623   -8.2525   25.2820 O   0  0  0  0  0  0  0  0  0  0  0  0
  -25.7631  -25.4542   19.4097 O   0  0  0  0  0  0  0  0  0  1  0  0
  -17.8769   -6.0915   24.3439 F   0  0  0  0  0  0  0  0  0  0  0  0
  -22.5297   -5.5224   25.0016 F   0  0  0  0  0  0  0  0  0  0  0  0
  1  2  1  0  0  0  0
  1  5  2  0  0  0  0
  2  6  2  0  0  0  0
  3  8  2  0  0  0  0
  3 17  1  0  0  0  0
  4  9  1  0  0  0  0
  4 17  2  0  0  0  0
  5 19  1  0  0  0  0
  6 21  1  0  0  0  0
  7 10  2  0  0  0  0
  7 20  1  0  0  0  0
  8 24  1  0  0  0  0
  9 24  2  0  0  0  0
 10 25  1  0  0  0  0
 11 12  2  0  0  0  0
 11 26  1  0  0  0  0
 12 27  1  0  0  0  0
 13 22  1  0  0  0  0
 13 25  2  0  0  0  0
 14 23  2  0  0  0  0
 14 30  1  0  0  0  0
 15 23  1  0  0  0  0
 15 32  2  0  0  0  0
 16 27  2  0  0  0  0
 16 28  1  0  0  0  0
 17 29  1  0  0  0  0
 18 29  1  0  0  0  0
 18 31  2  0  0  0  0
 18 33  1  0  0  0  0
 19 21  2  0  0  0  0
 19 39  1  0  0  0  0
 20 22  2  0  0  0  0
 20 40  1  0  0  0  0
 21 51  1  0  0  0  0
 22 41  1  0  0  0  0
 23 72  1  0  0  0  0
 24 83  1  0  0  0  0
 25 84  1  0  0  0  0
 26 28  2  0  0  0  0
 26 83  1  0  0  0  0
 27 85  1  0  0  0  0
 28 86  1  0  0  0  0
 29 65  2  0  0  0  0
 30 52  1  0  0  0  0
 30 67  2  0  0  0  0
 31 66  1  0  0  0  0
 31 70  1  0  0  0  0
 32 67  1  0  0  0  0
 32 73  1  0  0  0  0
 33 71  1  0  0  0  0
 33 77  2  0  0  0  0
 34 53  1  0  0  0  0
 34 74  1  0  0  0  0
 34 78  2  0  0  0  0
 35 60  1  0  0  0  0
 35 61  1  0  0  0  0
 35 79  2  0  0  0  0
 36 62  1  0  0  0  0
 36 68  1  0  0  0  0
 36 80  2  0  0  0  0
 37 63  1  0  0  0  0
 37 75  1  0  0  0  0
 37 81  2  0  0  0  0
 38 69  1  0  0  0  0
 38 73  1  0  0  0  0
 38 82  2  0  0  0  0
 39 42  1  0  0  0  0
 40 53  1  0  0  0  0
 41 68  1  0  0  0  0
 42 45  1  0  0  0  0
 43 46  1  0  0  0  0
 43 47  1  0  0  0  0
 44 48  1  0  0  0  0
 44 49  1  0  0  0  0
 45 51  1  0  0  0  0
 46 52  1  0  0  0  0
 47 52  1  0  0  0  0
 48 54  1  0  0  0  0
 49 69  1  0  0  0  0
 50 54  1  0  0  0  0
 50 69  1  0  0  0  0
 51 74  1  0  0  0  0
 53 68  1  0  0  0  0
 54 66  1  0  0  0  0
 55 63  1  0  0  0  0
 56 64  1  0  0  0  0
 57 64  1  0  0  0  0
 58 64  1  0  0  0  0
 59 76  1  0  0  0  0
 60 72  1  0  0  0  0
 61 84  1  0  0  0  0
 62 64  1  0  0  0  0
 62 75  1  0  0  0  0
 63 76  1  0  0  0  0
 65 66  1  0  0  0  0
M  CHG  2  67   1  76   1
M  ISO  4  38 100  61 101  73 100  84 101
M  END
> <Batch ID>
0169

> <Smiles>
CNC(C)C(=O)NC(C(=O)N1Cc2cc([101O:1][101CH2:1]C(=O)CNc3cc([100NH:0][100C:0](=O)N4CCCC(n5nc(-c6ccc(Oc7ccc(F)cc7F)cc6)c(C(N)=O)c5N)C4)nc(C4CCC4)c3)ccc2CC1C(=O)NC1CCCc2ccccc21)C(C)(C)C

> <Shape>
0.278

> <Color>
0.144

> <Negative vol penalty>
0.000

$$$$

  -OEChem-04052304173D

 86 94  0     1  0  0  0  0  0999 V2000
  -38.1476  -27.0448   22.3538 C   0  0  0  0  0  0  0  0  0  0  0  0
  -36.9052  -26.7230   22.8907 C   0  0  0  0  0  0  0  0  0  0  0  0
  -23.0768   -9.8665   19.9384 C   0  0  0  0  0  0  0  0  0  0  0  0
  -23.8367   -9.8712   22.2318 C   0  0  0  0  0  0  0  0  0  0  0  0
  -38.5720  -28.3727   22.3282 C   0  0  0  0  0  0  0  0  0  0  0  0
  -36.0869  -27.7289   23.4035 C   0  0  0  0  0  0  0  0  0  0  0  0
  -31.2649  -27.2487   21.9329 C   0  0  0  0  0  0  0  0  0  0  0  0
  -22.3337   -8.7126   20.1869 C   0  0  0  0  0  0  0  0  0  0  0  0
  -23.0935   -8.7173   22.4803 C   0  0  0  0  0  0  0  0  0  0  0  0
  -30.4908  -26.2937   22.5904 C   0  0  0  0  0  0  0  0  0  0  0  0
  -19.8659   -7.9167   23.0819 C   0  0  0  0  0  0  0  0  0  0  0  0
  -19.1090   -7.8749   24.2527 C   0  0  0  0  0  0  0  0  0  0  0  0
  -29.5157  -28.0301   23.9518 C   0  0  0  0  0  0  0  0  0  0  0  0
  -31.1474  -17.6981   20.6034 C   0  0  0  0  0  0  0  0  0  0  0  0
  -30.5871  -19.8702   21.5007 C   0  0  0  0  0  0  0  0  0  0  0  0
  -20.3516   -5.9373   24.9868 C   0  0  0  0  0  0  0  0  0  0  0  0
  -23.8284  -10.4458   20.9608 C   0  0  0  0  0  0  0  0  0  0  0  0
  -24.1686  -12.9713   20.8438 C   0  0  0  0  0  0  0  0  0  0  0  0
  -37.7543  -29.3965   22.8321 C   0  0  0  0  0  0  0  0  0  0  0  0
  -31.1781  -28.6025   22.2879 C   0  0  0  0  0  0  0  0  0  0  0  0
  -36.5012  -29.0716   23.3859 C   0  0  0  0  0  0  0  0  0  0  0  0
  -30.2879  -29.0007   23.2954 C   0  0  0  0  0  0  0  0  0  0  0  0
  -30.2476  -17.1012   21.4863 C   0  0  0  0  0  0  0  0  0  0  0  0
  -29.6872  -19.2733   22.3836 C   0  0  0  0  0  0  0  0  0  0  0  0
  -22.3420   -8.1380   21.4579 C   0  0  0  0  0  0  0  0  0  0  0  0
  -29.6181  -26.6839   23.6020 C   0  0  0  0  0  0  0  0  0  0  0  0
  -20.8657   -6.9688   22.8634 C   0  0  0  0  0  0  0  0  0  0  0  0
  -19.3518   -6.8852   25.2052 C   0  0  0  0  0  0  0  0  0  0  0  0
  -31.3173  -19.0826   20.6107 C   0  0  0  0  0  0  0  0  0  0  0  0
  -21.1085   -5.9791   23.8159 C   0  0  0  0  0  0  0  0  0  0  0  0
  -29.5174  -17.8888   22.3764 C   0  0  0  0  0  0  0  0  0  0  0  0
  -24.5967  -11.6375   20.7045 C   0  0  0  0  0  0  0  0  0  0  0  0
  -25.2603  -13.7220   20.4815 C   0  0  0  0  0  0  0  0  0  0  0  0
  -22.8978  -13.4858   21.2634 C   0  0  0  0  0  0  0  0  0  0  0  0
  -28.1485  -22.0154   24.4093 C   0  0  0  0  0  0  0  0  0  0  0  0
  -28.1151  -23.5102   24.6606 C   0  0  0  0  0  0  0  0  0  0  0  0
  -33.2104  -30.7505   23.4538 C   0  0  0  0  0  0  0  0  0  0  0  0
  -30.7315  -32.7854   22.9676 C   0  0  0  0  0  0  0  0  0  0  0  0
  -27.3637  -33.2196   22.6261 C   0  0  0  0  0  0  0  0  0  0  0  0
  -30.7258  -14.7708   20.6574 C   0  0  0  0  0  0  0  0  0  0  0  0
  -38.2760  -30.8116   22.8258 C   0  0  0  0  0  0  0  0  0  0  0  0
  -32.0003  -29.6238   21.5506 C   0  0  0  0  0  0  0  0  0  0  0  0
  -30.1426  -30.4441   23.7003 C   0  0  0  0  0  0  0  0  0  0  0  0
  -37.1907  -31.8618   23.0482 C   0  0  0  0  0  0  0  0  0  0  0  0
  -29.6130  -12.3592   18.2862 C   0  0  0  0  0  0  0  0  0  0  0  0
  -36.2922  -31.4623   24.2143 C   0  0  0  0  0  0  0  0  0  0  0  0
  -28.1735  -12.0662   18.7155 C   0  0  0  0  0  0  0  0  0  0  0  0
  -30.5279  -12.5871   19.4882 C   0  0  0  0  0  0  0  0  0  0  0  0
  -28.6205  -13.3087   20.8703 C   0  0  0  0  0  0  0  0  0  0  0  0
  -35.5745  -30.1375   23.9292 C   0  0  1  0  0  0  0  0  0  0  0  0
  -32.2088  -30.9094   22.3451 C   0  0  1  0  0  0  0  0  0  0  0  0
  -27.6478  -13.1362   19.6923 C   0  0  2  0  0  0  0  0  0  0  0  0
  -25.6328  -35.0026   22.2768 C   0  0  0  0  0  0  0  0  0  0  0  0
  -31.0130  -33.6271   25.8869 C   0  0  0  0  0  0  0  0  0  0  0  0
  -28.7330  -34.6508   25.7390 C   0  0  0  0  0  0  0  0  0  0  0  0
  -30.5788  -35.5075   24.2962 C   0  0  0  0  0  0  0  0  0  0  0  0
  -26.4738  -32.0180   20.0720 C   0  0  0  0  0  0  0  0  0  0  0  0
  -29.0757  -21.4945   23.3418 C   0  0  0  0  0  0  0  0  0  0  0  0
  -29.0128  -24.3958   23.8341 C   0  0  0  0  0  0  0  0  0  1  0  0
  -29.5545  -33.2522   23.7896 C   0  0  1  0  0  0  0  0  0  0  0  0
  -26.5458  -33.9890   21.6046 C   0  0  2  0  0  0  0  0  0  0  0  0
  -29.9737  -34.2319   24.9218 C   0  0  0  0  0  0  0  0  0  0  0  0
  -25.8617  -11.5430   20.2861 N   0  0  0  0  0  0  0  0  0  0  0  0
  -26.2377  -12.8270   20.1593 N   0  0  0  0  0  0  0  0  0  0  0  0
  -30.9726  -31.4043   22.9542 N   0  0  0  0  0  0  0  0  0  0  0  0
  -29.9683  -13.6165   20.3668 N   0  0  0  0  0  0  0  0  0  0  0  0
  -25.4699  -15.0537   20.4101 N   0  0  0  0  0  0  0  0  0  0  0  0
  -21.8865  -12.5756   21.5995 N   0  0  0  0  0  0  0  0  0  0  0  0
  -30.0779  -15.6945   21.4770 N   0  0  0  0  0  0  0  0  0  0  0  0
  -28.9625  -20.0587   23.2672 N   0  0  0  0  0  0  0  0  0  0  0  0
  -34.4622  -30.3490   23.0279 N   0  0  0  0  0  0  0  0  0  0  0  0
  -28.5915  -33.8078   22.8450 N   0  0  0  0  0  0  0  0  0  0  0  0
  -25.7032  -33.0547   20.8058 N   0  3  0  0  0  0  0  0  0  0  0  0
  -22.6608  -14.7162   21.3222 O   0  0  0  0  0  0  0  0  0  0  0  0
  -27.4114  -21.3189   25.0959 O   0  0  0  0  0  0  0  0  0  0  0  0
  -27.3563  -23.9192   25.5300 O   0  0  0  0  0  0  0  0  0  0  0  0
  -32.8730  -30.9770   24.6099 O   0  0  0  0  0  0  0  0  0  0  0  0
  -31.4076  -33.6149   22.3540 O   0  0  0  0  0  0  0  0  0  0  0  0
  -26.9530  -32.2009   23.1776 O   0  0  0  0  0  0  0  0  0  0  0  0
  -31.8548  -14.9408   20.1900 O   0  0  0  0  0  0  0  0  0  0  0  0
  -21.6168   -7.0121   21.7009 O   0  0  0  0  0  0  0  0  0  0  0  0
  -28.8619  -25.7537   24.2459 O   0  0  0  0  0  0  0  0  0  1  0  0
  -18.6259   -6.8461   26.3302 F   0  0  0  0  0  0  0  0  0  0  0  0
  -32.1805  -19.6558   19.7619 F   0  0  0  0  0  0  0  0  0  0  0  0
  -22.0684   -5.0665   23.6122 F   0  0  0  0  0  0  0  0  0  0  0  0
  -28.6520  -17.3151   23.2265 F   0  0  0  0  0  0  0  0  0  0  0  0
  1  2  1  0  0  0  0
  1  5  2  0  0  0  0
  2  6  2  0  0  0  0
  3  8  2  0  0  0  0
  3 17  1  0  0  0  0
  4  9  1  0  0  0  0
  4 17  2  0  0  0  0
  5 19  1  0  0  0  0
  6 21  1  0  0  0  0
  7 10  2  0  0  0  0
  7 20  1  0  0  0  0
  8 25  1  0  0  0  0
  9 25  2  0  0  0  0
 10 26  1  0  0  0  0
 11 12  2  0  0  0  0
 11 27  1  0  0  0  0
 12 28  1  0  0  0  0
 13 22  1  0  0  0  0
 13 26  2  0  0  0  0
 14 23  2  0  0  0  0
 14 29  1  0  0  0  0
 15 24  1  0  0  0  0
 15 29  2  0  0  0  0
 16 28  2  0  0  0  0
 16 30  1  0  0  0  0
 17 32  1  0  0  0  0
 18 32  1  0  0  0  0
 18 33  2  0  0  0  0
 18 34  1  0  0  0  0
 19 21  2  0  0  0  0
 19 41  1  0  0  0  0
 20 22  2  0  0  0  0
 20 42  1  0  0  0  0
 21 50  1  0  0  0  0
 22 43  1  0  0  0  0
 23 31  1  0  0  0  0
 23 69  1  0  0  0  0
 24 31  2  0  0  0  0
 24 70  1  0  0  0  0
 25 81  1  0  0  0  0
 26 82  1  0  0  0  0
 27 30  2  0  0  0  0
 27 81  1  0  0  0  0
 28 83  1  0  0  0  0
 29 84  1  0  0  0  0
 30 85  1  0  0  0  0
 31 86  1  0  0  0  0
 32 63  2  0  0  0  0
 33 64  1  0  0  0  0
 33 67  1  0  0  0  0
 34 68  1  0  0  0  0
 34 74  2  0  0  0  0
 35 36  1  0  0  0  0
 35 58  1  0  0  0  0
 35 75  2  0  0  0  0
 36 59  1  0  0  0  0
 36 76  2  0  0  0  0
 37 51  1  0  0  0  0
 37 71  1  0  0  0  0
 37 77  2  0  0  0  0
 38 60  1  0  0  0  0
 38 65  1  0  0  0  0
 38 78  2  0  0  0  0
 39 61  1  0  0  0  0
 39 72  1  0  0  0  0
 39 79  2  0  0  0  0
 40 66  1  0  0  0  0
 40 69  1  0  0  0  0
 40 80  2  0  0  0  0
 41 44  1  0  0  0  0
 42 51  1  0  0  0  0
 43 65  1  0  0  0  0
 44 46  1  0  0  0  0
 45 47  1  0  0  0  0
 45 48  1  0  0  0  0
 46 50  1  0  0  0  0
 47 52  1  0  0  0  0
 48 66  1  0  0  0  0
 49 52  1  0  0  0  0
 49 66  1  0  0  0  0
 50 71  1  0  0  0  0
 51 65  1  0  0  0  0
 52 64  1  0  0  0  0
 53 61  1  0  0  0  0
 54 62  1  0  0  0  0
 55 62  1  0  0  0  0
 56 62  1  0  0  0  0
 57 73  1  0  0  0  0
 58 70  1  0  0  0  0
 59 82  1  0  0  0  0
 60 62  1  0  0  0  0
 60 72  1  0  0  0  0
 61 73  1  0  0  0  0
 63 64  1  0  0  0  0
M  CHG  1  73   1
M  ISO  4  40 100  59 101  69 100  82 101
M  END
> <Batch ID>
0169

> <Smiles>
CNC(C)C(=O)NC(C(=O)N1Cc2cc([101O:1][101CH2:1]C(=O)C(=O)CNc3cc(F)cc([100NH:0][100C:0](=O)N4CCCC(n5nc(-c6ccc(Oc7ccc(F)cc7F)cc6)c(C(N)=O)c5N)C4)c3F)ccc2CC1C(=O)NC1CCCc2ccccc21)C(C)(C)C

> <Shape>
0.207

> <Color>
0.188

> <Negative vol penalty>
0.000

$$$$

  -OEChem-04052304173D

 89 97  0     1  0  0  0  0  0999 V2000
  -18.3788  -29.0111   26.2931 C   0  0  0  0  0  0  0  0  0  0  0  0
  -19.7456  -28.7793   26.4093 C   0  0  0  0  0  0  0  0  0  0  0  0
  -24.4570   -9.4436   20.1258 C   0  0  0  0  0  0  0  0  0  0  0  0
  -24.5928  -10.0149   22.4694 C   0  0  0  0  0  0  0  0  0  0  0  0
  -17.7491  -28.8566   25.0588 C   0  0  0  0  0  0  0  0  0  0  0  0
  -20.4834  -28.3919   25.2913 C   0  0  0  0  0  0  0  0  0  0  0  0
  -27.0013  -29.0651   22.3963 C   0  0  0  0  0  0  0  0  0  0  0  0
  -24.1461   -8.1268   20.4648 C   0  0  0  0  0  0  0  0  0  0  0  0
  -24.2818   -8.6981   22.8084 C   0  0  0  0  0  0  0  0  0  0  0  0
  -28.0352  -28.2866   21.8779 C   0  0  0  0  0  0  0  0  0  0  0  0
  -21.5200   -6.7583   22.9819 C   0  0  0  0  0  0  0  0  0  0  0  0
  -20.5738   -6.5555   23.9864 C   0  0  0  0  0  0  0  0  0  0  0  0
  -26.8555  -28.1280   19.7796 C   0  0  0  0  0  0  0  0  0  0  0  0
  -29.1841  -20.0793   21.8032 C   0  0  0  0  0  0  0  0  0  0  0  0
  -22.2201   -5.3692   25.2976 C   0  0  0  0  0  0  0  0  0  0  0  0
  -27.0568  -19.7189   22.4468 C   0  0  0  0  0  0  0  0  0  0  0  0
  -24.6805  -10.3877   21.1281 C   0  0  0  0  0  0  0  0  0  0  0  0
  -24.1002  -12.8089   20.5724 C   0  0  0  0  0  0  0  0  0  0  0  0
  -18.4814  -28.4764   23.9230 C   0  0  0  0  0  0  0  0  0  0  0  0
  -25.8798  -29.3723   21.6125 C   0  0  0  0  0  0  0  0  0  0  0  0
  -19.8627  -28.2308   24.0409 C   0  0  0  0  0  0  0  0  0  0  0  0
  -25.8100  -28.9127   20.2896 C   0  0  0  0  0  0  0  0  0  0  0  0
  -28.1817  -19.0906   21.9599 C   0  0  0  0  0  0  0  0  0  0  0  0
  -24.0584   -7.7541   21.8061 C   0  0  0  0  0  0  0  0  0  0  0  0
  -27.9611  -27.8155   20.5703 C   0  0  0  0  0  0  0  0  0  0  0  0
  -22.8163   -6.2665   23.1351 C   0  0  0  0  0  0  0  0  0  0  0  0
  -20.9238   -5.8610   25.1443 C   0  0  0  0  0  0  0  0  0  0  0  0
  -23.1663   -5.5719   24.2930 C   0  0  0  0  0  0  0  0  0  0  0  0
  -25.0023  -11.7479   20.7785 C   0  0  0  0  0  0  0  0  0  0  0  0
  -28.6413  -21.2818   22.1993 C   0  0  0  0  0  0  0  0  0  0  0  0
  -24.8985  -13.8835   20.2650 C   0  0  0  0  0  0  0  0  0  0  0  0
  -22.6687  -12.8218   20.6517 C   0  0  0  0  0  0  0  0  0  0  0  0
  -29.3023  -22.6121   22.2177 C   0  0  0  0  0  0  0  0  0  0  0  0
  -22.7656  -28.7700   21.8192 C   0  0  0  0  0  0  0  0  0  0  0  0
  -30.2209  -24.9944   20.2968 C   0  0  0  0  0  0  0  0  0  0  0  0
  -22.6119  -30.7274   19.2371 C   0  0  0  0  0  0  0  0  0  0  0  0
  -24.1944  -32.0967   16.5412 C   0  0  0  0  0  0  0  0  0  0  0  0
  -29.4012  -17.0273   21.1841 C   0  0  0  0  0  0  0  0  0  0  0  0
  -17.7484  -28.2763   22.6202 C   0  0  0  0  0  0  0  0  0  0  0  0
  -24.7854  -30.2355   22.1778 C   0  0  0  0  0  0  0  0  0  0  0  0
  -24.6370  -29.2315   19.4003 C   0  0  0  0  0  0  0  0  0  0  0  0
  -18.6699  -28.2267   21.4042 C   0  0  0  0  0  0  0  0  0  0  0  0
  -29.8378  -14.1150   19.1828 C   0  0  0  0  0  0  0  0  0  0  0  0
  -19.8609  -27.3126   21.6739 C   0  0  0  0  0  0  0  0  0  0  0  0
  -28.5445  -13.3268   19.4026 C   0  0  0  0  0  0  0  0  0  0  0  0
  -30.2928  -14.8248   20.4567 C   0  0  0  0  0  0  0  0  0  0  0  0
  -27.9830  -14.8853   21.3112 C   0  0  0  0  0  0  0  0  0  0  0  0
  -20.7017  -27.8333   22.8458 C   0  0  1  0  0  0  0  0  0  0  0  0
  -23.4519  -30.0571   21.4585 C   0  0  1  0  0  0  0  0  0  0  0  0
  -27.4501  -14.2058   20.0392 C   0  0  2  0  0  0  0  0  0  0  0  0
  -33.2735  -22.8749   21.3835 C   0  0  0  0  0  0  0  0  0  0  0  0
  -23.7993  -33.6297   14.5942 C   0  0  0  0  0  0  0  0  0  0  0  0
  -24.8075  -23.9387   22.5271 C   0  0  0  0  0  0  0  0  0  0  0  0
  -25.0533  -21.9924   20.9723 C   0  0  0  0  0  0  0  0  0  0  0  0
  -21.0888  -28.5074   17.8014 C   0  0  0  0  0  0  0  0  0  0  0  0
  -21.5556  -29.6806   15.6395 C   0  0  0  0  0  0  0  0  0  0  0  0
  -20.1988  -30.8102   17.4018 C   0  0  0  0  0  0  0  0  0  0  0  0
  -26.2531  -34.0056   17.4775 C   0  0  0  0  0  0  0  0  0  0  0  0
  -29.6956  -26.2414   20.9817 C   0  0  0  0  0  0  0  0  0  1  0  0
  -32.4232  -23.8371   20.5658 C   0  0  0  0  0  0  0  0  0  0  0  0
  -26.4196  -22.0467   23.0767 C   0  0  0  0  0  0  0  0  0  0  0  0
  -31.0339  -24.0441   21.1654 C   0  0  2  0  0  0  0  0  0  0  0  0
  -22.6887  -30.5329   17.7420 C   0  0  1  0  0  0  0  0  0  0  0  0
  -24.2700  -33.5264   16.0366 C   0  0  2  0  0  0  0  0  0  0  0  0
  -25.7811  -22.8998   21.9662 C   0  0  0  0  0  0  0  0  0  0  0  0
  -21.4043  -29.8750   17.1633 C   0  0  0  0  0  0  0  0  0  0  0  0
  -26.2761  -12.1152   20.6157 N   0  0  0  0  0  0  0  0  0  0  0  0
  -27.3479  -21.0505   22.5888 N   0  0  0  0  0  0  0  0  0  0  0  0
  -26.1802  -13.4189   20.3039 N   0  0  0  0  0  0  0  0  0  0  0  0
  -23.5893  -30.0737   20.0007 N   0  0  0  0  0  0  0  0  0  0  0  0
  -29.2061  -15.6420   21.0008 N   0  0  0  0  0  0  0  0  0  0  0  0
  -24.6220  -15.1710   19.9679 N   0  0  0  0  0  0  0  0  0  0  0  0
  -22.0069  -11.6307   20.9797 N   0  0  0  0  0  0  0  0  0  0  0  0
  -28.2872  -17.7062   21.6767 N   0  0  0  0  0  0  0  0  0  0  0  0
  -30.2868  -22.8171   21.2597 N   0  0  0  0  0  0  0  0  0  0  0  0
  -21.5326  -28.9390   22.4198 N   0  0  0  0  0  0  0  0  0  0  0  0
  -22.9970  -31.8415   17.1755 N   0  0  0  0  0  0  0  0  0  0  0  0
  -25.6712  -34.0285   16.1108 N   0  3  0  0  0  0  0  0  0  0  0  0
  -21.9954  -13.8550   20.4220 O   0  0  0  0  0  0  0  0  0  0  0  0
  -28.9709  -23.4351   23.0670 O   0  0  0  0  0  0  0  0  0  0  0  0
  -23.3134  -27.7026   21.5697 O   0  0  0  0  0  0  0  0  0  0  0  0
  -30.0286  -24.7837   19.0990 O   0  0  0  0  0  0  0  0  0  0  0  0
  -21.7220  -31.4391   19.7095 O   0  0  0  0  0  0  0  0  0  0  0  0
  -25.1050  -31.2861   16.3849 O   0  0  0  0  0  0  0  0  0  0  0  0
  -30.4684  -17.5758   20.8975 O   0  0  0  0  0  0  0  0  0  0  0  0
  -23.7548   -6.4693   22.1373 O   0  0  0  0  0  0  0  0  0  0  0  0
  -28.9685  -27.0549   20.0620 O   0  0  0  0  0  0  0  0  0  1  0  0
  -20.0155   -5.6677   26.1096 F   0  0  0  0  0  0  0  0  0  0  0  0
  -24.4104   -5.0981   24.4465 F   0  0  0  0  0  0  0  0  0  0  0  0
  1  2  1  0  0  0  0
  1  5  2  0  0  0  0
  2  6  2  0  0  0  0
  3  8  2  0  0  0  0
  3 17  1  0  0  0  0
  4  9  1  0  0  0  0
  4 17  2  0  0  0  0
  5 19  1  0  0  0  0
  6 21  1  0  0  0  0
  7 10  2  0  0  0  0
  7 20  1  0  0  0  0
  8 24  1  0  0  0  0
  9 24  2  0  0  0  0
 10 25  1  0  0  0  0
 11 12  2  0  0  0  0
 11 26  1  0  0  0  0
 12 27  1  0  0  0  0
 13 22  1  0  0  0  0
 13 25  2  0  0  0  0
 14 23  1  0  0  0  0
 14 30  2  0  0  0  0
 15 27  2  0  0  0  0
 15 28  1  0  0  0  0
 16 23  2  0  0  0  0
 16 68  1  0  0  0  0
 17 29  1  0  0  0  0
 18 29  1  0  0  0  0
 18 31  2  0  0  0  0
 18 32  1  0  0  0  0
 19 21  2  0  0  0  0
 19 39  1  0  0  0  0
 20 22  2  0  0  0  0
 20 40  1  0  0  0  0
 21 48  1  0  0  0  0
 22 41  1  0  0  0  0
 23 74  1  0  0  0  0
 24 86  1  0  0  0  0
 25 87  1  0  0  0  0
 26 28  2  0  0  0  0
 26 86  1  0  0  0  0
 27 88  1  0  0  0  0
 28 89  1  0  0  0  0
 29 67  2  0  0  0  0
 30 33  1  0  0  0  0
 30 68  1  0  0  0  0
 31 69  1  0  0  0  0
 31 72  1  0  0  0  0
 32 73  1  0  0  0  0
 32 79  2  0  0  0  0
 33 75  1  0  0  0  0
 33 80  2  0  0  0  0
 34 49  1  0  0  0  0
 34 76  1  0  0  0  0
 34 81  2  0  0  0  0
 35 59  1  0  0  0  0
 35 62  1  0  0  0  0
 35 82  2  0  0  0  0
 36 63  1  0  0  0  0
 36 70  1  0  0  0  0
 36 83  2  0  0  0  0
 37 64  1  0  0  0  0
 37 77  1  0  0  0  0
 37 84  2  0  0  0  0
 38 71  1  0  0  0  0
 38 74  1  0  0  0  0
 38 85  2  0  0  0  0
 39 42  1  0  0  0  0
 40 49  1  0  0  0  0
 41 70  1  0  0  0  0
 42 44  1  0  0  0  0
 43 45  1  0  0  0  0
 43 46  1  0  0  0  0
 44 48  1  0  0  0  0
 45 50  1  0  0  0  0
 46 71  1  0  0  0  0
 47 50  1  0  0  0  0
 47 71  1  0  0  0  0
 48 76  1  0  0  0  0
 49 70  1  0  0  0  0
 50 69  1  0  0  0  0
 51 60  1  0  0  0  0
 52 64  1  0  0  0  0
 53 65  1  0  0  0  0
 54 65  1  0  0  0  0
 55 66  1  0  0  0  0
 56 66  1  0  0  0  0
 57 66  1  0  0  0  0
 58 78  1  0  0  0  0
 59 87  1  0  0  0  0
 60 62  1  0  0  0  0
 61 65  1  0  0  0  0
 61 68  1  0  0  0  0
 62 75  1  0  0  0  0
 63 66  1  0  0  0  0
 63 77  1  0  0  0  0
 64 78  1  0  0  0  0
 67 69  1  0  0  0  0
M  CHG  1  78   1
M  ISO  4  38 100  59 101  74 100  87 101
M  END
> <Batch ID>
0169

> <Smiles>
CCC(NC(=O)c1cc([100NH:0][100C:0](=O)N2CCCC(n3nc(-c4ccc(Oc5ccc(F)cc5F)cc4)c(C(N)=O)c3N)C2)cn1CC(C)C)C(=O)[101CH2:1][101O:1]c1ccc2c(c1)CN(C(=O)C(NC(=O)C(C)NC)C(C)(C)C)C(C(=O)NC1CCCc3ccccc31)C2

> <Shape>
0.301

> <Color>
0.152

> <Negative vol penalty>
0.000

$$$$

  -OEChem-04052304173D

 89 98  0     1  0  0  0  0  0999 V2000
  -24.5360  -37.8738   17.4875 C   0  0  0  0  0  0  0  0  0  0  0  0
  -24.5954  -36.5791   16.9819 C   0  0  0  0  0  0  0  0  0  0  0  0
  -22.8994   -9.9628   20.3983 C   0  0  0  0  0  0  0  0  0  0  0  0
  -24.6407   -8.5863   21.3523 C   0  0  0  0  0  0  0  0  0  0  0  0
  -25.1159  -38.1664   18.7211 C   0  0  0  0  0  0  0  0  0  0  0  0
  -25.2357  -35.5764   17.7093 C   0  0  0  0  0  0  0  0  0  0  0  0
  -24.8830  -28.5443   19.0288 C   0  0  0  0  0  0  0  0  0  0  0  0
  -21.9817   -9.4289   21.3028 C   0  0  0  0  0  0  0  0  0  0  0  0
  -23.7229   -8.0523   22.2569 C   0  0  0  0  0  0  0  0  0  0  0  0
  -25.6845  -27.4036   19.0112 C   0  0  0  0  0  0  0  0  0  0  0  0
  -21.2721   -5.7234   22.2373 C   0  0  0  0  0  0  0  0  0  0  0  0
  -21.2833   -4.3424   22.4328 C   0  0  0  0  0  0  0  0  0  0  0  0
  -26.5815  -28.0080   21.1674 C   0  0  0  0  0  0  0  0  0  0  0  0
  -26.8895  -17.5171   20.3604 C   0  0  0  0  0  0  0  0  0  0  0  0
  -29.1291  -17.6498   21.2568 C   0  0  0  0  0  0  0  0  0  0  0  0
  -21.7711   -4.6780   24.7752 C   0  0  0  0  0  0  0  0  0  0  0  0
  -24.2289   -9.5415   20.4229 C   0  0  0  0  0  0  0  0  0  0  0  0
  -25.1203  -10.0299   18.0832 C   0  0  0  0  0  0  0  0  0  0  0  0
  -25.7552  -37.1648   19.4685 C   0  0  0  0  0  0  0  0  0  0  0  0
  -24.9329  -29.4326   20.1127 C   0  0  0  0  0  0  0  0  0  0  0  0
  -25.8259  -35.8563   18.9535 C   0  0  0  0  0  0  0  0  0  0  0  0
  -25.7779  -29.1579   21.1975 C   0  0  0  0  0  0  0  0  0  0  0  0
  -27.5916  -19.4870   21.5701 C   0  0  0  0  0  0  0  0  0  0  0  0
  -26.6110  -18.7861   20.8681 C   0  0  0  0  0  0  0  0  0  0  0  0
  -28.1485  -16.9489   20.5548 C   0  0  0  0  0  0  0  0  0  0  0  0
  -22.3934   -8.4737   22.2322 C   0  0  0  0  0  0  0  0  0  0  0  0
  -26.5360  -27.1368   20.0792 C   0  0  0  0  0  0  0  0  0  0  0  0
  -21.5105   -6.5817   23.3107 C   0  0  0  0  0  0  0  0  0  0  0  0
  -21.5328   -3.8196   23.7018 C   0  0  0  0  0  0  0  0  0  0  0  0
  -28.8507  -18.9189   21.7645 C   0  0  0  0  0  0  0  0  0  0  0  0
  -21.7599   -6.0590   24.5796 C   0  0  0  0  0  0  0  0  0  0  0  0
  -25.1773  -10.0922   19.4884 C   0  0  0  0  0  0  0  0  0  0  0  0
  -26.2452  -10.6972   17.6640 C   0  0  0  0  0  0  0  0  0  0  0  0
  -24.1382   -9.4232   17.2328 C   0  0  0  0  0  0  0  0  0  0  0  0
  -27.8598  -23.9492   21.1846 C   0  0  0  0  0  0  0  0  0  0  0  0
  -25.7258  -32.4896   20.4729 C   0  0  0  0  0  0  0  0  0  0  0  0
  -24.6702  -32.0028   23.5013 C   0  0  0  0  0  0  0  0  0  0  0  0
  -24.0482  -29.8016   26.0340 C   0  0  0  0  0  0  0  0  0  0  0  0
  -29.6290  -14.9526   20.1433 C   0  0  0  0  0  0  0  0  0  0  0  0
  -26.4087  -37.5394   20.7751 C   0  0  0  0  0  0  0  0  0  0  0  0
  -24.0424  -30.6447   20.1287 C   0  0  0  0  0  0  0  0  0  0  0  0
  -25.8537  -30.0692   22.3942 C   0  0  0  0  0  0  0  0  0  0  0  0
  -26.7416  -36.3380   21.6561 C   0  0  0  0  0  0  0  0  0  0  0  0
  -30.7104  -11.7437   19.0430 C   0  0  0  0  0  0  0  0  0  0  0  0
  -27.4173  -35.2446   20.8347 C   0  0  0  0  0  0  0  0  0  0  0  0
  -29.4085  -10.9522   18.8986 C   0  0  0  0  0  0  0  0  0  0  0  0
  -26.7536  -20.8131   23.5626 C   0  0  0  0  0  0  0  0  0  0  0  0
  -27.1127  -23.3183   23.4871 C   0  0  0  0  0  0  0  0  0  0  0  0
  -30.6657  -12.6962   20.2365 C   0  0  0  0  0  0  0  0  0  0  0  0
  -28.2074  -12.8092   20.1216 C   0  0  0  0  0  0  0  0  0  0  0  0
  -26.4900  -34.7360   19.7243 C   0  0  1  0  0  0  0  0  0  0  0  0
  -27.3103  -20.8652   22.1279 C   0  0  1  0  0  0  0  0  0  0  0  0
  -28.2195  -23.2113   22.4340 C   0  0  1  0  0  0  0  0  0  0  0  0
  -24.5526  -31.7488   21.0495 C   0  0  1  0  0  0  0  0  0  0  0  0
  -27.0480  -22.0804   24.3873 C   0  0  1  0  0  0  0  0  0  0  0  0
  -28.1804  -11.8835   18.8945 C   0  0  2  0  0  0  0  0  0  0  0  0
  -25.2561  -19.3743   20.6471 C   0  0  0  0  0  0  0  0  0  0  0  0
  -26.0178  -22.2561   25.5011 C   0  0  0  0  0  0  0  0  0  0  0  0
  -23.2236  -29.7053   28.4022 C   0  0  0  0  0  0  0  0  0  0  0  0
  -27.3514  -33.0845   24.4763 C   0  0  0  0  0  0  0  0  0  0  0  0
  -26.8547  -32.0958   26.7222 C   0  0  0  0  0  0  0  0  0  0  0  0
  -25.3712  -33.8696   25.7864 C   0  0  0  0  0  0  0  0  0  0  0  0
  -21.7649  -28.0713   25.2911 C   0  0  0  0  0  0  0  0  0  0  0  0
  -27.6432  -25.4408   21.3257 C   0  0  0  0  0  0  0  0  0  1  0  0
  -25.3028  -31.5456   24.7935 C   0  0  1  0  0  0  0  0  0  0  0  0
  -22.8394  -29.6163   26.9334 C   0  0  2  0  0  0  0  0  0  0  0  0
  -26.2202  -32.6325   25.4213 C   0  0  0  0  0  0  0  0  0  0  0  0
  -26.2534  -10.7472   19.9323 N   0  0  0  0  0  0  0  0  0  0  0  0
  -26.8830  -11.1025   18.7994 N   0  0  0  0  0  0  0  0  0  0  0  0
  -24.9681  -31.2448   22.3601 N   0  0  0  0  0  0  0  0  0  0  0  0
  -29.4780  -13.5499   20.1631 N   0  0  0  0  0  0  0  0  0  0  0  0
  -26.7413  -10.9708   16.4386 N   0  0  0  0  0  0  0  0  0  0  0  0
  -24.3148   -8.0844   16.8576 N   0  0  0  0  0  0  0  0  0  0  0  0
  -28.4318  -15.6600   20.0389 N   0  0  0  0  0  0  0  0  0  0  0  0
  -25.4954  -33.8367   20.2688 N   0  0  0  0  0  0  0  0  0  0  0  0
  -24.2064  -31.1181   25.6558 N   0  0  0  0  0  0  0  0  0  0  0  0
  -28.5115  -21.7733   22.1078 N   0  3  0  0  0  0  0  0  0  0  0  0
  -22.2126  -28.2861   26.6913 N   0  3  0  0  0  0  0  0  0  0  0  0
  -23.1425  -10.0546   16.8046 O   0  0  0  0  0  0  0  0  0  0  0  0
  -27.7485  -23.3657   20.1074 O   0  0  0  0  0  0  0  0  0  0  0  0
  -26.7637  -31.8841   20.2324 O   0  0  0  0  0  0  0  0  0  0  0  0
  -23.9329  -32.9918   23.5057 O   0  0  0  0  0  0  0  0  0  0  0  0
  -24.7810  -28.8720   25.7032 O   0  0  0  0  0  0  0  0  0  0  0  0
  -30.7404  -15.4864   20.1862 O   0  0  0  0  0  0  0  0  0  0  0  0
  -21.4982   -7.9526   23.1151 O   0  0  0  0  0  0  0  0  0  0  0  0
  -27.3198  -26.0245   20.0643 O   0  0  0  0  0  0  0  0  0  1  0  0
  -21.5420   -2.4935   23.8897 F   0  0  0  0  0  0  0  0  0  0  0  0
  -29.8008  -19.5851   22.4355 F   0  0  0  0  0  0  0  0  0  0  0  0
  -21.9884   -6.8786   25.6149 F   0  0  0  0  0  0  0  0  0  0  0  0
  1  2  1  0  0  0  0
  1  5  2  0  0  0  0
  2  6  2  0  0  0  0
  3  8  2  0  0  0  0
  3 17  1  0  0  0  0
  4  9  1  0  0  0  0
  4 17  2  0  0  0  0
  5 19  1  0  0  0  0
  6 21  1  0  0  0  0
  7 10  2  0  0  0  0
  7 20  1  0  0  0  0
  8 26  1  0  0  0  0
  9 26  2  0  0  0  0
 10 27  1  0  0  0  0
 11 12  2  0  0  0  0
 11 28  1  0  0  0  0
 12 29  1  0  0  0  0
 13 22  1  0  0  0  0
 13 27  2  0  0  0  0
 14 24  2  0  0  0  0
 14 25  1  0  0  0  0
 15 25  2  0  0  0  0
 15 30  1  0  0  0  0
 16 29  2  0  0  0  0
 16 31  1  0  0  0  0
 17 32  1  0  0  0  0
 18 32  1  0  0  0  0
 18 33  2  0  0  0  0
 18 34  1  0  0  0  0
 19 21  2  0  0  0  0
 19 40  1  0  0  0  0
 20 22  2  0  0  0  0
 20 41  1  0  0  0  0
 21 51  1  0  0  0  0
 22 42  1  0  0  0  0
 23 24  1  0  0  0  0
 23 30  2  0  0  0  0
 23 52  1  0  0  0  0
 24 57  1  0  0  0  0
 25 74  1  0  0  0  0
 26 85  1  0  0  0  0
 27 86  1  0  0  0  0
 28 31  2  0  0  0  0
 28 85  1  0  0  0  0
 29 87  1  0  0  0  0
 30 88  1  0  0  0  0
 31 89  1  0  0  0  0
 32 68  2  0  0  0  0
 33 69  1  0  0  0  0
 33 72  1  0  0  0  0
 34 73  1  0  0  0  0
 34 79  2  0  0  0  0
 35 53  1  0  0  0  0
 35 64  1  0  0  0  0
 35 80  2  0  0  0  0
 36 54  1  0  0  0  0
 36 75  1  0  0  0  0
 36 81  2  0  0  0  0
 37 65  1  0  0  0  0
 37 70  1  0  0  0  0
 37 82  2  0  0  0  0
 38 66  1  0  0  0  0
 38 76  1  0  0  0  0
 38 83  2  0  0  0  0
 39 71  1  0  0  0  0
 39 74  1  0  0  0  0
 39 84  2  0  0  0  0
 40 43  1  0  0  0  0
 41 54  1  0  0  0  0
 42 70  1  0  0  0  0
 43 45  1  0  0  0  0
 44 46  1  0  0  0  0
 44 49  1  0  0  0  0
 45 51  1  0  0  0  0
 46 56  1  0  0  0  0
 47 52  1  0  0  0  0
 47 55  1  0  0  0  0
 48 53  1  0  0  0  0
 48 55  1  0  0  0  0
 49 71  1  0  0  0  0
 50 56  1  0  0  0  0
 50 71  1  0  0  0  0
 51 75  1  0  0  0  0
 52 77  1  0  0  0  0
 53 77  1  0  0  0  0
 54 70  1  0  0  0  0
 55 58  1  0  0  0  0
 56 69  1  0  0  0  0
 59 66  1  0  0  0  0
 60 67  1  0  0  0  0
 61 67  1  0  0  0  0
 62 67  1  0  0  0  0
 63 78  1  0  0  0  0
 64 86  1  0  0  0  0
 65 67  1  0  0  0  0
 65 76  1  0  0  0  0
 66 78  1  0  0  0  0
 68 69  1  0  0  0  0
M  CHG  2  77   1  78   1
M  ISO  4  39 100  64 101  74 100  86 101
M  END
> <Batch ID>
0169

> <Smiles>
CNC(C)C(=O)NC(C(=O)N1Cc2cc([101O:1][101CH2:1]C(=O)C3CC(C)CC(c4c(C)cc([100NH:0][100C:0](=O)N5CCCC(n6nc(-c7ccc(Oc8ccc(F)cc8F)cc7)c(C(N)=O)c6N)C5)cc4F)N3)ccc2CC1C(=O)NC1CCCc2ccccc21)C(C)(C)C

> <Shape>
0.270

> <Color>
0.104

> <Negative vol penalty>
0.000

$$$$

  -OEChem-04052304173D

 85 93  0     1  0  0  0  0  0999 V2000
  -29.0008  -17.9073   18.9356 C   0  0  0  0  0  0  0  0  0  0  0  0
  -28.7145  -18.7207   20.0274 C   0  0  0  0  0  0  0  0  0  0  0  0
  -31.6238  -18.1713   24.6595 C   0  0  0  0  0  0  0  0  0  0  0  0
  -23.3885   -9.7784   19.7698 C   0  0  0  0  0  0  0  0  0  0  0  0
  -23.6430   -9.9664   22.1650 C   0  0  0  0  0  0  0  0  0  0  0  0
  -29.8612  -18.3607   17.9366 C   0  0  0  0  0  0  0  0  0  0  0  0
  -29.2894  -19.9876   20.1213 C   0  0  0  0  0  0  0  0  0  0  0  0
  -25.9539  -23.5367   21.5082 C   0  0  0  0  0  0  0  0  0  0  0  0
  -30.6450  -19.0293   25.1608 C   0  0  0  0  0  0  0  0  0  0  0  0
  -31.2843  -17.2012   23.7164 C   0  0  0  0  0  0  0  0  0  0  0  0
  -22.6645   -8.5983   19.9394 C   0  0  0  0  0  0  0  0  0  0  0  0
  -22.9190   -8.7863   22.3346 C   0  0  0  0  0  0  0  0  0  0  0  0
  -25.6146  -23.5984   22.8590 C   0  0  0  0  0  0  0  0  0  0  0  0
  -19.5170   -7.7080   20.7957 C   0  0  0  0  0  0  0  0  0  0  0  0
  -18.3466   -7.5531   20.0529 C   0  0  0  0  0  0  0  0  0  0  0  0
  -27.1405  -25.4438   23.1517 C   0  0  0  0  0  0  0  0  0  0  0  0
  -28.9871  -17.9472   23.7760 C   0  0  0  0  0  0  0  0  0  0  0  0
  -19.2665   -5.5741   19.0163 C   0  0  0  0  0  0  0  0  0  0  0  0
  -23.8778  -10.4625   20.8827 C   0  0  0  0  0  0  0  0  0  0  0  0
  -24.1161  -12.9925   20.6596 C   0  0  0  0  0  0  0  0  0  0  0  0
  -30.4393  -19.6376   18.0135 C   0  0  0  0  0  0  0  0  0  0  0  0
  -26.8987  -24.4224   20.9704 C   0  0  0  0  0  0  0  0  0  0  0  0
  -30.1594  -20.4580   19.1230 C   0  0  0  0  0  0  0  0  0  0  0  0
  -27.4881  -25.3929   21.7931 C   0  0  0  0  0  0  0  0  0  0  0  0
  -29.3267  -18.9173   24.7191 C   0  0  0  0  0  0  0  0  0  0  0  0
  -29.9659  -17.0891   23.2747 C   0  0  0  0  0  0  0  0  0  0  0  0
  -22.4298   -8.1022   21.2217 C   0  0  0  0  0  0  0  0  0  0  0  0
  -26.2101  -24.5502   23.6817 C   0  0  0  0  0  0  0  0  0  0  0  0
  -20.5622   -6.7961   20.6488 C   0  0  0  0  0  0  0  0  0  0  0  0
  -18.2213   -6.4862   19.1632 C   0  0  0  0  0  0  0  0  0  0  0  0
  -20.4369   -5.7291   19.7591 C   0  0  0  0  0  0  0  0  0  0  0  0
  -24.6262  -11.6813   20.7081 C   0  0  0  0  0  0  0  0  0  0  0  0
  -25.2234  -13.7853   20.4806 C   0  0  0  0  0  0  0  0  0  0  0  0
  -22.7625  -13.4528   20.7669 C   0  0  0  0  0  0  0  0  0  0  0  0
  -29.7405  -24.1002   19.5831 C   0  0  0  0  0  0  0  0  0  0  0  0
  -29.4353  -27.2942   19.1057 C   0  0  0  0  0  0  0  0  0  0  0  0
  -26.9813  -19.8170   24.9008 C   0  0  0  0  0  0  0  0  0  0  0  0
  -28.0214  -30.2460   20.0724 C   0  0  0  0  0  0  0  0  0  0  0  0
  -30.4715  -15.1738   21.7183 C   0  0  0  0  0  0  0  0  0  0  0  0
  -31.4005  -20.0656   16.9329 C   0  0  0  0  0  0  0  0  0  0  0  0
  -27.2340  -24.3602   19.5054 C   0  0  0  0  0  0  0  0  0  0  0  0
  -28.4931  -26.3800   21.2603 C   0  0  0  0  0  0  0  0  0  0  0  0
  -31.6736  -21.5674   16.9205 C   0  0  0  0  0  0  0  0  0  0  0  0
  -30.0019  -12.5615   19.3451 C   0  0  0  0  0  0  0  0  0  0  0  0
  -31.9541  -22.0707   18.3329 C   0  0  0  0  0  0  0  0  0  0  0  0
  -28.5195  -12.2075   19.4841 C   0  0  0  0  0  0  0  0  0  0  0  0
  -30.6291  -12.9161   20.6921 C   0  0  0  0  0  0  0  0  0  0  0  0
  -28.4400  -13.6014   21.5907 C   0  0  0  0  0  0  0  0  0  0  0  0
  -30.7441  -21.8482   19.2482 C   0  0  1  0  0  0  0  0  0  0  0  0
  -28.5900  -24.9768   19.1761 C   0  0  1  0  0  0  0  0  0  0  0  0
  -27.7488  -13.3000   20.2509 C   0  0  2  0  0  0  0  0  0  0  0  0
  -27.9931  -32.6925   19.5147 C   0  0  0  0  0  0  0  0  0  0  0  0
  -32.1594  -27.6272   20.4393 C   0  0  0  0  0  0  0  0  0  0  0  0
  -31.6508  -30.0635   20.7111 C   0  0  0  0  0  0  0  0  0  0  0  0
  -31.7992  -29.0692   18.4281 C   0  0  0  0  0  0  0  0  0  0  0  0
  -23.9774  -23.2533   25.4773 C   0  0  0  0  0  0  0  0  0  0  0  0
  -25.8657  -23.5279   27.1082 C   0  0  0  0  0  0  0  0  0  0  0  0
  -25.1256  -30.1923   19.4637 C   0  0  0  0  0  0  0  0  0  0  0  0
  -26.2665  -20.9142   25.6806 C   0  0  0  0  0  0  0  0  0  0  0  0
  -26.2637  -22.2508   24.9381 C   0  0  0  0  0  0  0  0  0  0  0  0
  -29.8052  -28.5320   19.8867 C   0  0  1  0  0  0  0  0  0  0  0  0
  -27.3351  -31.3421   19.2775 C   0  0  2  0  0  0  0  0  0  0  0  0
  -31.3362  -28.8033   19.8770 C   0  0  0  0  0  0  0  0  0  0  0  0
  -25.4933  -23.3924   25.6314 C   0  0  0  0  0  0  0  0  0  1  0  0
  -25.9541  -11.6392   20.5708 N   0  0  0  0  0  0  0  0  0  0  0  0
  -26.2878  -12.9338   20.4342 N   0  0  0  0  0  0  0  0  0  0  0  0
  -28.7927  -26.2749   19.8227 N   0  0  0  0  0  0  0  0  0  0  0  0
  -29.8480  -13.9602   21.3590 N   0  0  0  0  0  0  0  0  0  0  0  0
  -25.3805  -15.1206   20.3598 N   0  0  0  0  0  0  0  0  0  0  0  0
  -21.7467  -12.5044   20.9486 N   0  0  0  0  0  0  0  0  0  0  0  0
  -28.3343  -19.7885   25.2278 N   0  0  0  0  0  0  0  0  0  0  0  0
  -29.6217  -16.1036   22.3166 N   0  0  0  0  0  0  0  0  0  0  0  0
  -29.7293  -22.8490   18.9968 N   0  0  0  0  0  0  0  0  0  0  0  0
  -29.0025  -29.6180   19.3347 N   0  0  0  0  0  0  0  0  0  0  0  0
  -25.9002  -31.4436   19.6670 N   0  3  0  0  0  0  0  0  0  0  0  0
  -22.4609  -14.6678   20.6872 O   0  0  0  0  0  0  0  0  0  0  0  0
  -30.5771  -24.5279   20.3697 O   0  0  0  0  0  0  0  0  0  0  0  0
  -29.7001  -27.2367   17.9023 O   0  0  0  0  0  0  0  0  0  0  0  0
  -26.3915  -19.0907   24.1075 O   0  0  0  0  0  0  0  0  0  0  0  0
  -27.7200  -29.9765   21.2330 O   0  0  0  0  0  0  0  0  0  0  0  0
  -31.6647  -15.3841   21.4860 O   0  0  0  0  0  0  0  0  0  0  0  0
  -21.7232   -6.9508   21.3876 O   0  0  0  0  0  0  0  0  0  0  0  0
  -25.8812  -24.6122   25.0007 O   0  0  0  0  0  0  0  0  0  1  0  0
  -17.0968   -6.3366   18.4510 F   0  0  0  0  0  0  0  0  0  0  0  0
  -21.4371   -4.8491   19.6145 F   0  0  0  0  0  0  0  0  0  0  0  0
  1  2  1  0  0  0  0
  1  6  2  0  0  0  0
  2  7  2  0  0  0  0
  3  9  2  0  0  0  0
  3 10  1  0  0  0  0
  4 11  2  0  0  0  0
  4 19  1  0  0  0  0
  5 12  1  0  0  0  0
  5 19  2  0  0  0  0
  6 21  1  0  0  0  0
  7 23  1  0  0  0  0
  8 13  2  0  0  0  0
  8 22  1  0  0  0  0
  9 25  1  0  0  0  0
 10 26  2  0  0  0  0
 11 27  1  0  0  0  0
 12 27  2  0  0  0  0
 13 28  1  0  0  0  0
 14 15  2  0  0  0  0
 14 29  1  0  0  0  0
 15 30  1  0  0  0  0
 16 24  1  0  0  0  0
 16 28  2  0  0  0  0
 17 25  2  0  0  0  0
 17 26  1  0  0  0  0
 18 30  2  0  0  0  0
 18 31  1  0  0  0  0
 19 32  1  0  0  0  0
 20 32  1  0  0  0  0
 20 33  2  0  0  0  0
 20 34  1  0  0  0  0
 21 23  2  0  0  0  0
 21 40  1  0  0  0  0
 22 24  2  0  0  0  0
 22 41  1  0  0  0  0
 23 49  1  0  0  0  0
 24 42  1  0  0  0  0
 25 71  1  0  0  0  0
 26 72  1  0  0  0  0
 27 82  1  0  0  0  0
 28 83  1  0  0  0  0
 29 31  2  0  0  0  0
 29 82  1  0  0  0  0
 30 84  1  0  0  0  0
 31 85  1  0  0  0  0
 32 65  2  0  0  0  0
 33 66  1  0  0  0  0
 33 69  1  0  0  0  0
 34 70  1  0  0  0  0
 34 76  2  0  0  0  0
 35 50  1  0  0  0  0
 35 73  1  0  0  0  0
 35 77  2  0  0  0  0
 36 61  1  0  0  0  0
 36 67  1  0  0  0  0
 36 78  2  0  0  0  0
 37 59  1  0  0  0  0
 37 71  1  0  0  0  0
 37 79  2  0  0  0  0
 38 62  1  0  0  0  0
 38 74  1  0  0  0  0
 38 80  2  0  0  0  0
 39 68  1  0  0  0  0
 39 72  1  0  0  0  0
 39 81  2  0  0  0  0
 40 43  1  0  0  0  0
 41 50  1  0  0  0  0
 42 67  1  0  0  0  0
 43 45  1  0  0  0  0
 44 46  1  0  0  0  0
 44 47  1  0  0  0  0
 45 49  1  0  0  0  0
 46 51  1  0  0  0  0
 47 68  1  0  0  0  0
 48 51  1  0  0  0  0
 48 68  1  0  0  0  0
 49 73  1  0  0  0  0
 50 67  1  0  0  0  0
 51 66  1  0  0  0  0
 52 62  1  0  0  0  0
 53 63  1  0  0  0  0
 54 63  1  0  0  0  0
 55 63  1  0  0  0  0
 56 64  1  0  0  0  0
 57 64  1  0  0  0  0
 58 75  1  0  0  0  0
 59 60  1  0  0  0  0
 60 64  1  0  0  0  0
 61 63  1  0  0  0  0
 61 74  1  0  0  0  0
 62 75  1  0  0  0  0
 64 83  1  0  0  0  0
 65 66  1  0  0  0  0
M  CHG  1  75   1
M  ISO  4  39 100  64 101  72 100  83 101
M  END
> <Batch ID>
0169

> <Smiles>
CNC(C)C(=O)NC(C(=O)N1Cc2cc([101O:1][101C:1](C)(C)CCC(=O)Nc3cccc([100NH:0][100C:0](=O)N4CCCC(n5nc(-c6ccc(Oc7ccc(F)cc7F)cc6)c(C(N)=O)c5N)C4)c3)ccc2CC1C(=O)NC1CCCc2ccccc21)C(C)(C)C

> <Shape>
0.234

> <Color>
0.161

> <Negative vol penalty>
0.000

$$$$

  -OEChem-04052304173D

 86 94  0     1  0  0  0  0  0999 V2000
  -29.5815  -33.3329   26.2455 C   0  0  0  0  0  0  0  0  0  0  0  0
  -29.1921  -32.1229   25.6800 C   0  0  0  0  0  0  0  0  0  0  0  0
  -23.4714   -8.9549   20.3476 C   0  0  0  0  0  0  0  0  0  0  0  0
  -23.1041  -10.7911   21.8741 C   0  0  0  0  0  0  0  0  0  0  0  0
  -28.6391  -34.3393   26.4530 C   0  0  0  0  0  0  0  0  0  0  0  0
  -27.8599  -31.9183   25.3227 C   0  0  0  0  0  0  0  0  0  0  0  0
  -27.3795  -29.7803   20.7573 C   0  0  0  0  0  0  0  0  0  0  0  0
  -22.5850   -8.1671   21.0819 C   0  0  0  0  0  0  0  0  0  0  0  0
  -22.2176  -10.0034   22.6084 C   0  0  0  0  0  0  0  0  0  0  0  0
  -27.6063  -28.4074   20.6700 C   0  0  0  0  0  0  0  0  0  0  0  0
  -22.6309   -6.3795   23.9501 C   0  0  0  0  0  0  0  0  0  0  0  0
  -23.0141   -5.0693   24.2368 C   0  0  0  0  0  0  0  0  0  0  0  0
  -25.2256  -28.0188   20.6938 C   0  0  0  0  0  0  0  0  0  0  0  0
  -28.7964  -18.0947   18.8591 C   0  0  0  0  0  0  0  0  0  0  0  0
  -30.9143  -17.7579   19.9718 C   0  0  0  0  0  0  0  0  0  0  0  0
  -21.0786   -4.2435   23.0498 C   0  0  0  0  0  0  0  0  0  0  0  0
  -23.7311  -10.2669   20.7437 C   0  0  0  0  0  0  0  0  0  0  0  0
  -30.1515  -19.9966   19.4785 C   0  0  0  0  0  0  0  0  0  0  0  0
  -24.3385  -11.9221   18.9001 C   0  0  0  0  0  0  0  0  0  0  0  0
  -27.2965  -34.1505   26.0891 C   0  0  0  0  0  0  0  0  0  0  0  0
  -26.0721  -30.2829   20.8245 C   0  0  0  0  0  0  0  0  0  0  0  0
  -26.8985  -32.9226   25.5267 C   0  0  0  0  0  0  0  0  0  0  0  0
  -24.9849  -29.3986   20.7793 C   0  0  0  0  0  0  0  0  0  0  0  0
  -29.7566  -17.2362   19.3944 C   0  0  0  0  0  0  0  0  0  0  0  0
  -21.9581   -8.6913   22.2123 C   0  0  0  0  0  0  0  0  0  0  0  0
  -26.5293  -27.5263   20.6412 C   0  0  0  0  0  0  0  0  0  0  0  0
  -21.4715   -6.6217   23.2134 C   0  0  0  0  0  0  0  0  0  0  0  0
  -22.2380   -4.0013   23.7866 C   0  0  0  0  0  0  0  0  0  0  0  0
  -28.9939  -19.4749   18.9011 C   0  0  0  0  0  0  0  0  0  0  0  0
  -31.1117  -19.1381   20.0139 C   0  0  0  0  0  0  0  0  0  0  0  0
  -20.6954   -5.5537   22.7632 C   0  0  0  0  0  0  0  0  0  0  0  0
  -24.6471  -11.0810   19.9859 C   0  0  0  0  0  0  0  0  0  0  0  0
  -25.5447  -12.4680   18.5349 C   0  0  0  0  0  0  0  0  0  0  0  0
  -30.3601  -21.4578   19.5234 C   0  0  0  0  0  0  0  0  0  0  0  0
  -23.0744  -12.1864   18.2772 C   0  0  0  0  0  0  0  0  0  0  0  0
  -24.4194  -31.9559   22.9630 C   0  0  0  0  0  0  0  0  0  0  0  0
  -28.1840  -24.2420   20.3862 C   0  0  0  0  0  0  0  0  0  0  0  0
  -22.1700  -31.9834   20.6259 C   0  0  0  0  0  0  0  0  0  0  0  0
  -20.8811  -30.5149   17.8279 C   0  0  0  0  0  0  0  0  0  0  0  0
  -30.4096  -14.8436   19.8362 C   0  0  0  0  0  0  0  0  0  0  0  0
  -26.3050  -35.2501   26.3763 C   0  0  0  0  0  0  0  0  0  0  0  0
  -25.8438  -31.7681   20.8914 C   0  0  0  0  0  0  0  0  0  0  0  0
  -23.5615  -29.8887   20.8283 C   0  0  0  0  0  0  0  0  0  0  0  0
  -24.9856  -35.0920   25.6249 C   0  0  0  0  0  0  0  0  0  0  0  0
  -30.2584  -11.2882   19.9530 C   0  0  0  0  0  0  0  0  0  0  0  0
  -24.4773  -33.6580   25.7346 C   0  0  0  0  0  0  0  0  0  0  0  0
  -28.7597  -10.9865   19.8826 C   0  0  0  0  0  0  0  0  0  0  0  0
  -30.5461  -12.5454   20.7717 C   0  0  0  0  0  0  0  0  0  0  0  0
  -28.3023  -13.4391   20.2860 C   0  0  0  0  0  0  0  0  0  0  0  0
  -25.4674  -32.6719   25.1030 C   0  0  1  0  0  0  0  0  0  0  0  0
  -24.4827  -32.1378   21.4729 C   0  0  1  0  0  0  0  0  0  0  0  0
  -27.9582  -12.2181   19.4174 C   0  0  2  0  0  0  0  0  0  0  0  0
  -19.0172  -30.7445   16.1634 C   0  0  0  0  0  0  0  0  0  0  0  0
  -20.2036  -30.8743   22.6785 C   0  0  0  0  0  0  0  0  0  0  0  0
  -18.6919  -30.2422   20.7855 C   0  0  0  0  0  0  0  0  0  0  0  0
  -19.2608  -32.6390   21.1781 C   0  0  0  0  0  0  0  0  0  0  0  0
  -22.7753  -30.8562   15.5797 C   0  0  0  0  0  0  0  0  0  0  0  0
  -29.5724  -23.6636   20.3053 C   0  0  0  0  0  0  0  0  0  0  0  0
  -28.1060  -25.7513   20.5013 C   0  0  0  0  0  0  0  0  0  1  0  0
  -21.0201  -31.0855   20.2382 C   0  0  1  0  0  0  0  0  0  0  0  0
  -20.4610  -31.0939   16.4890 C   0  0  2  0  0  0  0  0  0  0  0  0
  -19.8208  -31.2006   21.2211 C   0  0  0  0  0  0  0  0  0  0  0  0
  -25.9475  -11.0885   20.2906 N   0  0  0  0  0  0  0  0  0  0  0  0
  -26.4667  -11.9410   19.3907 N   0  0  0  0  0  0  0  0  0  0  0  0
  -23.3901  -31.3491   20.8997 N   0  0  0  0  0  0  0  0  0  0  0  0
  -29.7550  -13.6717   20.2711 N   0  0  0  0  0  0  0  0  0  0  0  0
  -25.8961  -13.3426   17.5685 N   0  0  0  0  0  0  0  0  0  0  0  0
  -21.9351  -11.5415   18.7777 N   0  0  0  0  0  0  0  0  0  0  0  0
  -29.5565  -15.8341   19.3508 N   0  0  0  0  0  0  0  0  0  0  0  0
  -29.4655  -22.2200   20.1773 N   0  0  0  0  0  0  0  0  0  0  0  0
  -25.3545  -32.6965   23.6604 N   0  0  0  0  0  0  0  0  0  0  0  0
  -20.6930  -31.4152   18.8552 N   0  0  0  0  0  0  0  0  0  0  0  0
  -31.4310  -21.9588   18.9076 N   0  3  0  0  0  0  0  0  0  0  0  0
  -21.3298  -30.5641   15.4001 N   0  3  0  0  0  0  0  0  0  0  0  0
  -22.9611  -12.9586   17.2952 O   0  0  0  0  0  0  0  0  0  0  0  0
  -23.5830  -31.2007   23.4445 O   0  0  0  0  0  0  0  0  0  0  0  0
  -27.1732  -23.5411   20.3614 O   0  0  0  0  0  0  0  0  0  0  0  0
  -21.9941  -33.2033   20.6769 O   0  0  0  0  0  0  0  0  0  0  0  0
  -21.3276  -29.3765   17.9508 O   0  0  0  0  0  0  0  0  0  0  0  0
  -31.6384  -14.9492   19.8651 O   0  0  0  0  0  0  0  0  0  0  0  0
  -21.0928   -7.9230   22.9289 O   0  0  0  0  0  0  0  0  0  0  0  0
  -26.7479  -26.1857   20.5568 O   0  0  0  0  0  0  0  0  0  1  0  0
  -22.6070   -2.7432   24.0607 F   0  0  0  0  0  0  0  0  0  0  0  0
  -28.0658  -20.2921   18.3836 F   0  0  0  0  0  0  0  0  0  0  0  0
  -32.2280  -19.6295   20.5701 F   0  0  0  0  0  0  0  0  0  0  0  0
  -19.5812   -5.7801   22.0539 F   0  0  0  0  0  0  0  0  0  0  0  0
  1  2  1  0  0  0  0
  1  5  2  0  0  0  0
  2  6  2  0  0  0  0
  3  8  2  0  0  0  0
  3 17  1  0  0  0  0
  4  9  1  0  0  0  0
  4 17  2  0  0  0  0
  5 20  1  0  0  0  0
  6 22  1  0  0  0  0
  7 10  2  0  0  0  0
  7 21  1  0  0  0  0
  8 25  1  0  0  0  0
  9 25  2  0  0  0  0
 10 26  1  0  0  0  0
 11 12  2  0  0  0  0
 11 27  1  0  0  0  0
 12 28  1  0  0  0  0
 13 23  1  0  0  0  0
 13 26  2  0  0  0  0
 14 24  1  0  0  0  0
 14 29  2  0  0  0  0
 15 24  2  0  0  0  0
 15 30  1  0  0  0  0
 16 28  2  0  0  0  0
 16 31  1  0  0  0  0
 17 32  1  0  0  0  0
 18 29  1  0  0  0  0
 18 30  2  0  0  0  0
 18 34  1  0  0  0  0
 19 32  1  0  0  0  0
 19 33  2  0  0  0  0
 19 35  1  0  0  0  0
 20 22  2  0  0  0  0
 20 41  1  0  0  0  0
 21 23  2  0  0  0  0
 21 42  1  0  0  0  0
 22 50  1  0  0  0  0
 23 43  1  0  0  0  0
 24 69  1  0  0  0  0
 25 81  1  0  0  0  0
 26 82  1  0  0  0  0
 27 31  2  0  0  0  0
 27 81  1  0  0  0  0
 28 83  1  0  0  0  0
 29 84  1  0  0  0  0
 30 85  1  0  0  0  0
 31 86  1  0  0  0  0
 32 63  2  0  0  0  0
 33 64  1  0  0  0  0
 33 67  1  0  0  0  0
 34 70  1  0  0  0  0
 34 73  2  0  0  0  0
 35 68  1  0  0  0  0
 35 75  2  0  0  0  0
 36 51  1  0  0  0  0
 36 71  1  0  0  0  0
 36 76  2  0  0  0  0
 37 58  1  0  0  0  0
 37 59  1  0  0  0  0
 37 77  2  0  0  0  0
 38 60  1  0  0  0  0
 38 65  1  0  0  0  0
 38 78  2  0  0  0  0
 39 61  1  0  0  0  0
 39 72  1  0  0  0  0
 39 79  2  0  0  0  0
 40 66  1  0  0  0  0
 40 69  1  0  0  0  0
 40 80  2  0  0  0  0
 41 44  1  0  0  0  0
 42 51  1  0  0  0  0
 43 65  1  0  0  0  0
 44 46  1  0  0  0  0
 45 47  1  0  0  0  0
 45 48  1  0  0  0  0
 46 50  1  0  0  0  0
 47 52  1  0  0  0  0
 48 66  1  0  0  0  0
 49 52  1  0  0  0  0
 49 66  1  0  0  0  0
 50 71  1  0  0  0  0
 51 65  1  0  0  0  0
 52 64  1  0  0  0  0
 53 61  1  0  0  0  0
 54 62  1  0  0  0  0
 55 62  1  0  0  0  0
 56 62  1  0  0  0  0
 57 74  1  0  0  0  0
 58 70  1  0  0  0  0
 59 82  1  0  0  0  0
 60 62  1  0  0  0  0
 60 72  1  0  0  0  0
 61 74  1  0  0  0  0
 63 64  1  0  0  0  0
M  CHG  2  73   1  74   1
M  ISO  4  40 100  59 101  69 100  82 101
M  END
> <Batch ID>
0169

> <Smiles>
CNC(C)C(=O)NC(C(=O)N1Cc2cc([101O:1][101CH2:1]C(=O)CNC(=N)c3c(F)cc([100NH:0][100C:0](=O)N4CCCC(n5nc(-c6ccc(Oc7ccc(F)cc7F)cc6)c(C(N)=O)c5N)C4)cc3F)ccc2CC1C(=O)NC1CCCc2ccccc21)C(C)(C)C

> <Shape>
0.304

> <Color>
0.107

> <Negative vol penalty>
0.000

$$$$

  -OEChem-04052304173D

 84 92  0     1  0  0  0  0  0999 V2000
  -23.3590  -19.0367   27.5687 C   0  0  0  0  0  0  0  0  0  0  0  0
  -24.2233  -20.0969   27.3201 C   0  0  0  0  0  0  0  0  0  0  0  0
  -25.1597  -13.4141   22.0731 C   0  0  0  0  0  0  0  0  0  0  0  0
  -26.1425  -13.6107   19.8748 C   0  0  0  0  0  0  0  0  0  0  0  0
  -22.2561  -18.8330   26.7420 C   0  0  0  0  0  0  0  0  0  0  0  0
  -23.9785  -20.9607   26.2520 C   0  0  0  0  0  0  0  0  0  0  0  0
  -27.2477  -25.6345   24.1081 C   0  0  0  0  0  0  0  0  0  0  0  0
  -24.2472  -12.4805   21.5817 C   0  0  0  0  0  0  0  0  0  0  0  0
  -25.2301  -12.6771   19.3834 C   0  0  0  0  0  0  0  0  0  0  0  0
  -28.2387  -25.8434   23.1500 C   0  0  0  0  0  0  0  0  0  0  0  0
  -24.2298   -9.1939   20.7876 C   0  0  0  0  0  0  0  0  0  0  0  0
  -24.0089   -8.0430   21.5441 C   0  0  0  0  0  0  0  0  0  0  0  0
  -26.5540  -26.5296   21.5657 C   0  0  0  0  0  0  0  0  0  0  0  0
  -21.6718   -8.6224   21.7431 C   0  0  0  0  0  0  0  0  0  0  0  0
  -26.1073  -13.9792   21.2197 C   0  0  0  0  0  0  0  0  0  0  0  0
  -28.3215  -14.6849   22.2718 C   0  0  0  0  0  0  0  0  0  0  0  0
  -22.0054  -19.6878   25.6560 C   0  0  0  0  0  0  0  0  0  0  0  0
  -25.8990  -25.8615   23.7983 C   0  0  0  0  0  0  0  0  0  0  0  0
  -22.8575  -20.7860   25.4206 C   0  0  0  0  0  0  0  0  0  0  0  0
  -25.5480  -26.3253   22.5224 C   0  0  0  0  0  0  0  0  0  0  0  0
  -24.2824  -12.1120   20.2369 C   0  0  0  0  0  0  0  0  0  0  0  0
  -27.8917  -26.2882   21.8777 C   0  0  0  0  0  0  0  0  0  0  0  0
  -23.1717  -10.0591   20.5089 C   0  0  0  0  0  0  0  0  0  0  0  0
  -22.7300   -7.7572   22.0218 C   0  0  0  0  0  0  0  0  0  0  0  0
  -21.8927   -9.7733   20.9866 C   0  0  0  0  0  0  0  0  0  0  0  0
  -27.0498  -14.9441   21.7266 C   0  0  0  0  0  0  0  0  0  0  0  0
  -31.1248  -22.1471   17.0831 C   0  0  0  0  0  0  0  0  0  0  0  0
  -30.2916  -23.1849   17.4447 C   0  0  0  0  0  0  0  0  0  0  0  0
  -28.8129  -15.9244   22.6014 C   0  0  0  0  0  0  0  0  0  0  0  0
  -29.5044  -21.6448   18.7932 C   0  0  0  0  0  0  0  0  0  0  0  0
  -28.9982  -13.4354   22.4631 C   0  0  0  0  0  0  0  0  0  0  0  0
  -23.2879  -24.0522   23.6860 C   0  0  0  0  0  0  0  0  0  0  0  0
  -29.6782  -25.8039   18.7689 C   0  0  0  0  0  0  0  0  0  0  0  0
  -21.8166  -26.8916   23.1422 C   0  0  0  0  0  0  0  0  0  0  0  0
  -22.0507  -30.1103   22.0323 C   0  0  0  0  0  0  0  0  0  0  0  0
  -27.7136  -21.4286   20.5518 C   0  0  0  0  0  0  0  0  0  0  0  0
  -20.7928  -19.4258   24.7980 C   0  0  0  0  0  0  0  0  0  0  0  0
  -24.8445  -25.6570   24.8512 C   0  0  0  0  0  0  0  0  0  0  0  0
  -24.1164  -26.6033   22.1458 C   0  0  0  0  0  0  0  0  0  0  0  0
  -20.8639  -20.1181   23.4409 C   0  0  0  0  0  0  0  0  0  0  0  0
  -27.3681  -20.2986   23.9105 C   0  0  0  0  0  0  0  0  0  0  0  0
  -21.2335  -21.5826   23.6232 C   0  0  0  0  0  0  0  0  0  0  0  0
  -27.3691  -18.7736   23.7818 C   0  0  0  0  0  0  0  0  0  0  0  0
  -26.6403  -20.9656   22.7447 C   0  0  0  0  0  0  0  0  0  0  0  0
  -27.1060  -19.0385   21.2823 C   0  0  0  0  0  0  0  0  0  0  0  0
  -22.6283  -21.7203   24.2464 C   0  0  1  0  0  0  0  0  0  0  0  0
  -23.4538  -25.4277   24.2675 C   0  0  1  0  0  0  0  0  0  0  0  0
  -27.8839  -18.3249   22.4000 C   0  0  2  0  0  0  0  0  0  0  0  0
  -32.2158  -22.0988   16.0880 C   0  0  0  0  0  0  0  0  0  0  0  0
  -20.6712  -32.1758   21.6744 C   0  0  0  0  0  0  0  0  0  0  0  0
  -28.0315  -25.1004   16.9692 C   0  0  0  0  0  0  0  0  0  0  0  0
  -29.8458  -26.7772   16.4669 C   0  0  0  0  0  0  0  0  0  0  0  0
  -20.5812  -25.6322   20.6527 C   0  0  0  0  0  0  0  0  0  0  0  0
  -20.0176  -27.9364   19.8518 C   0  0  0  0  0  0  0  0  0  0  0  0
  -19.0244  -27.0773   21.9727 C   0  0  0  0  0  0  0  0  0  0  0  0
  -23.7027  -31.6810   23.9197 C   0  0  0  0  0  0  0  0  0  0  0  0
  -28.4883  -26.2986   19.5756 C   0  0  0  0  0  0  0  0  0  1  0  0
  -21.4740  -27.7003   21.9144 C   0  0  1  0  0  0  0  0  0  0  0  0
  -21.5767  -31.4205   22.6348 C   0  0  2  0  0  0  0  0  0  0  0  0
  -29.4659  -25.5331   17.2707 C   0  0  0  0  0  0  0  0  0  0  0  0
  -20.3012  -27.0795   21.1041 C   0  0  0  0  0  0  0  0  0  0  0  0
  -26.7517  -16.2460   21.7092 N   0  0  0  0  0  0  0  0  0  0  0  0
  -29.3614  -22.8986   18.4249 N   0  0  0  0  0  0  0  0  0  0  0  0
  -27.8432  -16.8159   22.2477 N   0  0  0  0  0  0  0  0  0  0  0  0
  -23.1212  -26.3822   23.2079 N   0  0  0  0  0  0  0  0  0  0  0  0
  -27.1841  -20.4959   21.4685 N   0  0  0  0  0  0  0  0  0  0  0  0
  -29.9754  -16.3278   23.1565 N   0  0  0  0  0  0  0  0  0  0  0  0
  -28.3498  -12.2572   22.0687 N   0  0  0  0  0  0  0  0  0  0  0  0
  -30.3498  -24.4448   16.8846 N   0  0  0  0  0  0  0  0  0  0  0  0
  -28.7599  -20.9391   19.7707 N   0  0  0  0  0  0  0  0  0  0  0  0
  -22.8551  -23.1056   24.5948 N   0  0  0  0  0  0  0  0  0  0  0  0
  -21.2256  -29.0610   22.3781 N   0  0  0  0  0  0  0  0  0  0  0  0
  -22.7411  -32.2900   22.9650 N   0  3  0  0  0  0  0  0  0  0  0  0
  -30.1372  -13.3646   22.9839 O   0  0  0  0  0  0  0  0  0  0  0  0
  -23.5331  -23.8640   22.5001 O   0  0  0  0  0  0  0  0  0  0  0  0
  -30.7809  -25.6583   19.3019 O   0  0  0  0  0  0  0  0  0  0  0  0
  -20.9604  -26.7241   24.0143 O   0  0  0  0  0  0  0  0  0  0  0  0
  -23.0506  -30.0266   21.3226 O   0  0  0  0  0  0  0  0  0  0  0  0
  -27.2895  -22.5852   20.4848 O   0  0  0  0  0  0  0  0  0  0  0  0
  -23.3924  -11.2009   19.7571 O   0  0  0  0  0  0  0  0  0  0  0  0
  -28.8570  -26.4923   20.9405 O   0  0  0  0  0  0  0  0  0  1  0  0
  -22.5177   -6.6512   22.7469 F   0  0  0  0  0  0  0  0  0  0  0  0
  -20.8720  -10.6000   20.7211 F   0  0  0  0  0  0  0  0  0  0  0  0
  -30.7383  -20.7519   18.0025 S   0  0  0  0  0  0  0  0  0  0  0  0
  1  2  1  0  0  0  0
  1  5  2  0  0  0  0
  2  6  2  0  0  0  0
  3  8  2  0  0  0  0
  3 15  1  0  0  0  0
  4  9  1  0  0  0  0
  4 15  2  0  0  0  0
  5 17  1  0  0  0  0
  6 19  1  0  0  0  0
  7 10  2  0  0  0  0
  7 18  1  0  0  0  0
  8 21  1  0  0  0  0
  9 21  2  0  0  0  0
 10 22  1  0  0  0  0
 11 12  2  0  0  0  0
 11 23  1  0  0  0  0
 12 24  1  0  0  0  0
 13 20  1  0  0  0  0
 13 22  2  0  0  0  0
 14 24  2  0  0  0  0
 14 25  1  0  0  0  0
 15 26  1  0  0  0  0
 16 26  1  0  0  0  0
 16 29  2  0  0  0  0
 16 31  1  0  0  0  0
 17 19  2  0  0  0  0
 17 37  1  0  0  0  0
 18 20  2  0  0  0  0
 18 38  1  0  0  0  0
 19 46  1  0  0  0  0
 20 39  1  0  0  0  0
 21 80  1  0  0  0  0
 22 81  1  0  0  0  0
 23 25  2  0  0  0  0
 23 80  1  0  0  0  0
 24 82  1  0  0  0  0
 25 83  1  0  0  0  0
 26 62  2  0  0  0  0
 27 28  2  0  0  0  0
 27 49  1  0  0  0  0
 27 84  1  0  0  0  0
 28 63  1  0  0  0  0
 28 69  1  0  0  0  0
 29 64  1  0  0  0  0
 29 67  1  0  0  0  0
 30 63  2  0  0  0  0
 30 70  1  0  0  0  0
 30 84  1  0  0  0  0
 31 68  1  0  0  0  0
 31 74  2  0  0  0  0
 32 47  1  0  0  0  0
 32 71  1  0  0  0  0
 32 75  2  0  0  0  0
 33 57  1  0  0  0  0
 33 60  1  0  0  0  0
 33 76  2  0  0  0  0
 34 58  1  0  0  0  0
 34 65  1  0  0  0  0
 34 77  2  0  0  0  0
 35 59  1  0  0  0  0
 35 72  1  0  0  0  0
 35 78  2  0  0  0  0
 36 66  1  0  0  0  0
 36 70  1  0  0  0  0
 36 79  2  0  0  0  0
 37 40  1  0  0  0  0
 38 47  1  0  0  0  0
 39 65  1  0  0  0  0
 40 42  1  0  0  0  0
 41 43  1  0  0  0  0
 41 44  1  0  0  0  0
 42 46  1  0  0  0  0
 43 48  1  0  0  0  0
 44 66  1  0  0  0  0
 45 48  1  0  0  0  0
 45 66  1  0  0  0  0
 46 71  1  0  0  0  0
 47 65  1  0  0  0  0
 48 64  1  0  0  0  0
 50 59  1  0  0  0  0
 51 60  1  0  0  0  0
 52 60  1  0  0  0  0
 53 61  1  0  0  0  0
 54 61  1  0  0  0  0
 55 61  1  0  0  0  0
 56 73  1  0  0  0  0
 57 81  1  0  0  0  0
 58 61  1  0  0  0  0
 58 72  1  0  0  0  0
 59 73  1  0  0  0  0
 60 69  1  0  0  0  0
 62 64  1  0  0  0  0
M  CHG  1  73   1
M  ISO  4  36 100  57 101  70 100  81 101
M  END
> <Batch ID>
0169

> <Smiles>
CNC(C)C(=O)NC(C(=O)N1Cc2cc([101O:1][101CH2:1]C(=O)C(C)(C)Nc3nc([100NH:0][100C:0](=O)N4CCCC(n5nc(-c6ccc(Oc7ccc(F)cc7F)cc6)c(C(N)=O)c5N)C4)sc3C)ccc2CC1C(=O)NC1CCCc2ccccc21)C(C)(C)C

> <Shape>
0.221

> <Color>
0.084

> <Negative vol penalty>
0.000

$$$$

  -OEChem-04052304173D

 87 95  0     1  0  0  0  0  0999 V2000
  -30.7168  -34.6344   22.5867 C   0  0  0  0  0  0  0  0  0  0  0  0
  -30.3625  -33.8217   21.5146 C   0  0  0  0  0  0  0  0  0  0  0  0
  -26.7905  -12.8278   21.8167 C   0  0  0  0  0  0  0  0  0  0  0  0
  -26.1819  -14.4220   20.1064 C   0  0  0  0  0  0  0  0  0  0  0  0
  -30.3601  -34.2694   23.8842 C   0  0  0  0  0  0  0  0  0  0  0  0
  -29.6523  -32.6430   21.7395 C   0  0  0  0  0  0  0  0  0  0  0  0
  -25.3896  -30.1633   18.1081 C   0  0  0  0  0  0  0  0  0  0  0  0
  -25.4789  -12.3538   21.8416 C   0  0  0  0  0  0  0  0  0  0  0  0
  -24.8703  -13.9480   20.1313 C   0  0  0  0  0  0  0  0  0  0  0  0
  -25.4422  -29.1388   17.1640 C   0  0  0  0  0  0  0  0  0  0  0  0
  -23.5367  -10.3004   19.9857 C   0  0  0  0  0  0  0  0  0  0  0  0
  -23.3469   -8.9186   19.9967 C   0  0  0  0  0  0  0  0  0  0  0  0
  -24.6740  -27.5724   18.8300 C   0  0  0  0  0  0  0  0  0  0  0  0
  -29.3581  -21.9086   19.9322 C   0  0  0  0  0  0  0  0  0  0  0  0
  -30.0620  -22.8467   22.0444 C   0  0  0  0  0  0  0  0  0  0  0  0
  -22.1842   -9.0951   22.1073 C   0  0  0  0  0  0  0  0  0  0  0  0
  -27.1420  -13.8619   20.9491 C   0  0  0  0  0  0  0  0  0  0  0  0
  -29.5530  -13.8897   20.1160 C   0  0  0  0  0  0  0  0  0  0  0  0
  -29.6368  -33.0905   24.1242 C   0  0  0  0  0  0  0  0  0  0  0  0
  -24.9885  -29.8976   19.4253 C   0  0  0  0  0  0  0  0  0  0  0  0
  -29.2868  -32.2612   23.0415 C   0  0  0  0  0  0  0  0  0  0  0  0
  -24.6146  -28.5958   19.7882 C   0  0  0  0  0  0  0  0  0  0  0  0
  -28.8699  -23.1553   19.5411 C   0  0  0  0  0  0  0  0  0  0  0  0
  -29.9541  -21.7542   21.1838 C   0  0  0  0  0  0  0  0  0  0  0  0
  -28.9778  -24.2478   20.4017 C   0  0  0  0  0  0  0  0  0  0  0  0
  -24.5188  -12.9139   20.9989 C   0  0  0  0  0  0  0  0  0  0  0  0
  -25.0872  -27.8425   17.5256 C   0  0  0  0  0  0  0  0  0  0  0  0
  -23.0503  -11.0796   21.0355 C   0  0  0  0  0  0  0  0  0  0  0  0
  -22.6706   -8.3159   21.0575 C   0  0  0  0  0  0  0  0  0  0  0  0
  -29.5739  -24.0935   21.6533 C   0  0  0  0  0  0  0  0  0  0  0  0
  -22.3741  -10.4770   22.0963 C   0  0  0  0  0  0  0  0  0  0  0  0
  -28.4966  -14.3524   20.9233 C   0  0  0  0  0  0  0  0  0  0  0  0
  -30.6231  -14.6760   20.4669 C   0  0  0  0  0  0  0  0  0  0  0  0
  -29.5658  -12.8429   19.1363 C   0  0  0  0  0  0  0  0  0  0  0  0
  -26.3678  -30.1277   22.2798 C   0  0  0  0  0  0  0  0  0  0  0  0
  -26.8020  -23.7921   18.2845 C   0  0  0  0  0  0  0  0  0  0  0  0
  -23.4076  -29.3328   23.3419 C   0  0  0  0  0  0  0  0  0  0  0  0
  -20.4027  -27.8464   22.7031 C   0  0  0  0  0  0  0  0  0  0  0  0
  -31.0691  -20.1639   22.7882 C   0  0  0  0  0  0  0  0  0  0  0  0
  -29.3149  -32.7136   25.5486 C   0  0  0  0  0  0  0  0  0  0  0  0
  -24.9114  -31.0189   20.4249 C   0  0  0  0  0  0  0  0  0  0  0  0
  -24.1576  -28.2621   21.1840 C   0  0  0  0  0  0  0  0  0  0  0  0
  -28.2371  -31.6389   25.6656 C   0  0  0  0  0  0  0  0  0  0  0  0
  -32.3952  -17.1576   24.1595 C   0  0  0  0  0  0  0  0  0  0  0  0
  -28.5157  -30.4956   24.6950 C   0  0  0  0  0  0  0  0  0  0  0  0
  -31.6465  -16.0549   23.4075 C   0  0  0  0  0  0  0  0  0  0  0  0
  -31.4975  -18.3606   24.4434 C   0  0  0  0  0  0  0  0  0  0  0  0
  -30.0636  -17.8122   22.5167 C   0  0  0  0  0  0  0  0  0  0  0  0
  -28.4949  -30.9875   23.2427 C   0  0  1  0  0  0  0  0  0  0  0  0
  -24.9810  -30.5365   21.8705 C   0  0  1  0  0  0  0  0  0  0  0  0
  -30.9445  -16.6064   22.1510 C   0  0  2  0  0  0  0  0  0  0  0  0
  -26.0061  -23.3974   19.5070 C   0  0  0  0  0  0  0  0  0  0  0  0
  -18.1968  -27.3210   23.7779 C   0  0  0  0  0  0  0  0  0  0  0  0
  -25.3274  -24.7863   14.5339 C   0  0  0  0  0  0  0  0  0  0  0  0
  -24.7168  -27.0717   24.9177 C   0  0  0  0  0  0  0  0  0  0  0  0
  -22.4518  -26.0382   25.1821 C   0  0  0  0  0  0  0  0  0  0  0  0
  -22.9128  -28.2918   26.1472 C   0  0  0  0  0  0  0  0  0  0  0  0
  -18.9175  -29.4531   20.7102 C   0  0  0  0  0  0  0  0  0  0  0  0
  -28.2308  -23.2931   18.1846 C   0  0  0  0  0  0  0  0  0  0  0  0
  -27.2514  -24.7755   16.1838 C   0  0  0  0  0  0  0  0  0  0  0  0
  -26.1131  -26.9582   15.5708 C   0  0  0  0  0  0  0  0  0  1  0  0
  -22.6912  -28.0382   23.6414 C   0  0  1  0  0  0  0  0  0  0  0  0
  -18.9776  -28.3158   22.9332 C   0  0  2  0  0  0  0  0  0  0  0  0
  -26.5271  -25.5636   15.0863 C   0  0  2  0  0  0  0  0  0  0  0  0
  -23.2036  -27.3656   24.9462 C   0  0  0  0  0  0  0  0  0  0  0  0
  -28.8625  -15.3547   21.7268 N   0  0  0  0  0  0  0  0  0  0  0  0
  -26.3463  -24.4765   17.2962 N   0  0  0  0  0  0  0  0  0  0  0  0
  -30.1607  -15.5283   21.4260 N   0  0  0  0  0  0  0  0  0  0  0  0
  -24.1051  -29.3914   22.1270 N   0  0  0  0  0  0  0  0  0  0  0  0
  -30.8698  -18.8313   23.2067 N   0  0  0  0  0  0  0  0  0  0  0  0
  -28.4885  -25.5163   20.0202 N   0  0  0  0  0  0  0  0  0  0  0  0
  -31.9051  -14.7144   20.0456 N   0  0  0  0  0  0  0  0  0  0  0  0
  -28.3796  -12.1350   18.8995 N   0  0  0  0  0  0  0  0  0  0  0  0
  -30.4503  -20.4879   21.5813 N   0  0  0  0  0  0  0  0  0  0  0  0
  -27.1321  -31.1610   22.7873 N   0  0  0  0  0  0  0  0  0  0  0  0
  -21.2666  -28.3528   23.6510 N   0  0  0  0  0  0  0  0  0  0  0  0
  -18.2710  -28.4838   21.6319 N   0  3  0  0  0  0  0  0  0  0  0  0
  -30.6026  -12.5333   18.5018 O   0  0  0  0  0  0  0  0  0  0  0  0
  -26.7178  -28.9609   22.1465 O   0  0  0  0  0  0  0  0  0  0  0  0
  -23.3446  -30.2605   24.1525 O   0  0  0  0  0  0  0  0  0  0  0  0
  -20.7175  -27.1017   21.7773 O   0  0  0  0  0  0  0  0  0  0  0  0
  -31.7619  -20.9514   23.4378 O   0  0  0  0  0  0  0  0  0  0  0  0
  -23.2389  -12.4514   21.0227 O   0  0  0  0  0  0  0  0  0  0  0  0
  -25.1383  -26.8405   16.6063 O   0  0  0  0  0  0  0  0  0  1  0  0
  -22.4871   -6.9891   21.0672 F   0  0  0  0  0  0  0  0  0  0  0  0
  -29.6837  -25.1363   22.4889 F   0  0  0  0  0  0  0  0  0  0  0  0
  -21.9036  -11.2204   23.1070 F   0  0  0  0  0  0  0  0  0  0  0  0
  1  2  1  0  0  0  0
  1  5  2  0  0  0  0
  2  6  2  0  0  0  0
  3  8  2  0  0  0  0
  3 17  1  0  0  0  0
  4  9  1  0  0  0  0
  4 17  2  0  0  0  0
  5 19  1  0  0  0  0
  6 21  1  0  0  0  0
  7 10  2  0  0  0  0
  7 20  1  0  0  0  0
  8 26  1  0  0  0  0
  9 26  2  0  0  0  0
 10 27  1  0  0  0  0
 11 12  2  0  0  0  0
 11 28  1  0  0  0  0
 12 29  1  0  0  0  0
 13 22  1  0  0  0  0
 13 27  2  0  0  0  0
 14 23  1  0  0  0  0
 14 24  2  0  0  0  0
 15 24  1  0  0  0  0
 15 30  2  0  0  0  0
 16 29  2  0  0  0  0
 16 31  1  0  0  0  0
 17 32  1  0  0  0  0
 18 32  1  0  0  0  0
 18 33  2  0  0  0  0
 18 34  1  0  0  0  0
 19 21  2  0  0  0  0
 19 40  1  0  0  0  0
 20 22  2  0  0  0  0
 20 41  1  0  0  0  0
 21 49  1  0  0  0  0
 22 42  1  0  0  0  0
 23 25  2  0  0  0  0
 23 59  1  0  0  0  0
 24 74  1  0  0  0  0
 25 30  1  0  0  0  0
 25 71  1  0  0  0  0
 26 83  1  0  0  0  0
 27 84  1  0  0  0  0
 28 31  2  0  0  0  0
 28 83  1  0  0  0  0
 29 85  1  0  0  0  0
 30 86  1  0  0  0  0
 31 87  1  0  0  0  0
 32 66  2  0  0  0  0
 33 68  1  0  0  0  0
 33 72  1  0  0  0  0
 34 73  1  0  0  0  0
 34 78  2  0  0  0  0
 35 50  1  0  0  0  0
 35 75  1  0  0  0  0
 35 79  2  0  0  0  0
 36 52  1  0  0  0  0
 36 59  1  0  0  0  0
 36 67  2  0  0  0  0
 37 62  1  0  0  0  0
 37 69  1  0  0  0  0
 37 80  2  0  0  0  0
 38 63  1  0  0  0  0
 38 76  1  0  0  0  0
 38 81  2  0  0  0  0
 39 70  1  0  0  0  0
 39 74  1  0  0  0  0
 39 82  2  0  0  0  0
 40 43  1  0  0  0  0
 41 50  1  0  0  0  0
 42 69  1  0  0  0  0
 43 45  1  0  0  0  0
 44 46  1  0  0  0  0
 44 47  1  0  0  0  0
 45 49  1  0  0  0  0
 46 51  1  0  0  0  0
 47 70  1  0  0  0  0
 48 51  1  0  0  0  0
 48 70  1  0  0  0  0
 49 75  1  0  0  0  0
 50 69  1  0  0  0  0
 51 68  1  0  0  0  0
 53 63  1  0  0  0  0
 54 64  1  0  0  0  0
 55 65  1  0  0  0  0
 56 65  1  0  0  0  0
 57 65  1  0  0  0  0
 58 77  1  0  0  0  0
 60 64  1  0  0  0  0
 60 67  1  0  0  0  0
 61 64  1  0  0  0  0
 61 84  1  0  0  0  0
 62 65  1  0  0  0  0
 62 76  1  0  0  0  0
 63 77  1  0  0  0  0
 66 68  1  0  0  0  0
M  CHG  1  77   1
M  ISO  4  39 100  61 101  74 100  84 101
M  END
> <Batch ID>
0169

> <Smiles>
CNC(C)C(=O)NC(C(=O)N1Cc2cc([101O:1][101CH2:1]C(C)CN=C(C)Cc3cc([100NH:0][100C:0](=O)N4CCCC(n5nc(-c6ccc(Oc7ccc(F)cc7F)cc6)c(C(N)=O)c5N)C4)cc(F)c3N)ccc2CC1C(=O)NC1CCCc2ccccc21)C(C)(C)C

> <Shape>
0.285

> <Color>
0.059

> <Negative vol penalty>
0.000

$$$$

  -OEChem-04052304173D

 87 95  0     1  0  0  0  0  0999 V2000
  -26.0019  -25.4621   30.3408 C   0  0  0  0  0  0  0  0  0  0  0  0
  -26.0978  -24.0840   30.1770 C   0  0  0  0  0  0  0  0  0  0  0  0
  -23.2857   -9.8014   19.9142 C   0  0  0  0  0  0  0  0  0  0  0  0
  -23.7381   -9.9424   22.2833 C   0  0  0  0  0  0  0  0  0  0  0  0
  -25.4901  -26.2514   29.3117 C   0  0  0  0  0  0  0  0  0  0  0  0
  -25.6810  -23.4941   28.9842 C   0  0  0  0  0  0  0  0  0  0  0  0
  -28.9656  -20.0402   27.2733 C   0  0  0  0  0  0  0  0  0  0  0  0
  -32.1648  -15.1939   25.9063 C   0  0  0  0  0  0  0  0  0  0  0  0
  -22.5586   -8.6295   20.1227 C   0  0  0  0  0  0  0  0  0  0  0  0
  -23.0109   -8.7705   22.4918 C   0  0  0  0  0  0  0  0  0  0  0  0
  -28.9520  -18.7890   27.8884 C   0  0  0  0  0  0  0  0  0  0  0  0
  -19.4772   -7.7718   21.2191 C   0  0  0  0  0  0  0  0  0  0  0  0
  -32.1820  -15.7133   24.6119 C   0  0  0  0  0  0  0  0  0  0  0  0
  -18.2477   -7.6480   20.5721 C   0  0  0  0  0  0  0  0  0  0  0  0
  -27.6451  -17.9114   26.0605 C   0  0  0  0  0  0  0  0  0  0  0  0
  -19.0469   -5.6743   19.4308 C   0  0  0  0  0  0  0  0  0  0  0  0
  -23.8756  -10.4579   20.9944 C   0  0  0  0  0  0  0  0  0  0  0  0
  -24.1368  -12.9876   20.7949 C   0  0  0  0  0  0  0  0  0  0  0  0
  -25.0758  -25.6720   28.1020 C   0  0  0  0  0  0  0  0  0  0  0  0
  -28.3087  -20.2393   26.0505 C   0  0  0  0  0  0  0  0  0  0  0  0
  -25.1620  -24.2762   27.9384 C   0  0  0  0  0  0  0  0  0  0  0  0
  -27.6540  -19.1654   25.4308 C   0  0  0  0  0  0  0  0  0  0  0  0
  -31.6562  -13.9159   26.1382 C   0  0  0  0  0  0  0  0  0  0  0  0
  -31.1818  -13.6769   23.7814 C   0  0  0  0  0  0  0  0  0  0  0  0
  -22.4212   -8.1141   21.4116 C   0  0  0  0  0  0  0  0  0  0  0  0
  -28.2892  -17.7251   27.2834 C   0  0  0  0  0  0  0  0  0  0  0  0
  -20.4916   -6.8469   20.9718 C   0  0  0  0  0  0  0  0  0  0  0  0
  -18.0325   -6.5993   19.6780 C   0  0  0  0  0  0  0  0  0  0  0  0
  -31.6905  -14.9549   23.5494 C   0  0  0  0  0  0  0  0  0  0  0  0
  -20.2765   -5.7981   20.0777 C   0  0  0  0  0  0  0  0  0  0  0  0
  -31.1647  -13.1574   25.0758 C   0  0  0  0  0  0  0  0  0  0  0  0
  -24.6273  -11.6682   20.7796 C   0  0  0  0  0  0  0  0  0  0  0  0
  -25.2387  -13.7666   20.5390 C   0  0  0  0  0  0  0  0  0  0  0  0
  -22.8043  -13.4663   21.0204 C   0  0  0  0  0  0  0  0  0  0  0  0
  -25.9006  -22.0677   25.0696 C   0  0  0  0  0  0  0  0  0  0  0  0
  -26.7146  -20.9008   22.1545 C   0  0  0  0  0  0  0  0  0  0  0  0
  -28.1907  -18.4182   20.3365 C   0  0  0  0  0  0  0  0  0  0  0  0
  -29.5164  -13.9505   28.6635 C   0  0  0  0  0  0  0  0  0  0  0  0
  -31.0989  -12.9480   21.3713 C   0  0  0  0  0  0  0  0  0  0  0  0
  -24.4853  -26.5607   27.0362 C   0  0  0  0  0  0  0  0  0  0  0  0
  -28.3553  -21.5884   25.3869 C   0  0  0  0  0  0  0  0  0  0  0  0
  -26.9508  -19.3219   24.1081 C   0  0  0  0  0  0  0  0  0  0  0  0
  -24.4143  -25.8994   25.6622 C   0  0  0  0  0  0  0  0  0  0  0  0
  -29.4641  -13.6527   18.2879 C   0  0  0  0  0  0  0  0  0  0  0  0
  -23.8461  -24.4884   25.7775 C   0  0  0  0  0  0  0  0  0  0  0  0
  -27.9927  -13.3497   18.5801 C   0  0  0  0  0  0  0  0  0  0  0  0
  -30.3970  -12.6770   19.0030 C   0  0  0  0  0  0  0  0  0  0  0  0
  -28.7045  -12.2508   20.7418 C   0  0  0  0  0  0  0  0  0  0  0  0
  -24.7433  -23.6020   26.6499 C   0  0  1  0  0  0  0  0  0  0  0  0
  -27.2172  -21.8058   24.3945 C   0  0  1  0  0  0  0  0  0  0  0  0
  -27.7285  -13.2473   20.0951 C   0  0  2  0  0  0  0  0  0  0  0  0
  -28.6665  -17.7245   17.9723 C   0  0  0  0  0  0  0  0  0  0  0  0
  -29.5744  -14.8405   31.0197 C   0  0  0  0  0  0  0  0  0  0  0  0
  -27.3846  -14.5507   29.8565 C   0  0  0  0  0  0  0  0  0  0  0  0
  -23.8033  -20.0507   21.8205 C   0  0  0  0  0  0  0  0  0  0  0  0
  -24.5255  -18.5660   19.9384 C   0  0  0  0  0  0  0  0  0  0  0  0
  -24.8446  -21.0343   19.7705 C   0  0  0  0  0  0  0  0  0  0  0  0
  -31.1155  -18.4810   20.7841 C   0  0  0  0  0  0  0  0  0  0  0  0
  -31.6400  -13.3597   27.5327 C   0  0  0  0  0  0  0  0  0  0  0  0
  -28.9572  -16.3819   29.1288 C   0  0  0  0  0  0  0  0  0  1  0  0
  -26.3144  -19.6981   21.3345 C   0  0  1  0  0  0  0  0  0  0  0  0
  -29.1893  -18.4638   19.1941 C   0  0  2  0  0  0  0  0  0  0  0  0
  -28.8639  -14.9367   29.6586 C   0  0  0  0  0  0  0  0  0  0  0  0
  -24.8835  -19.8345   20.7418 C   0  0  0  0  0  0  0  0  0  0  0  0
  -25.9387  -11.6084   20.5332 N   0  0  0  0  0  0  0  0  0  0  0  0
  -26.2816  -12.9001   20.3913 N   0  0  0  0  0  0  0  0  0  0  0  0
  -27.0193  -20.6619   23.5020 N   0  0  0  0  0  0  0  0  0  0  0  0
  -30.0910  -12.6358   20.4347 N   0  0  0  0  0  0  0  0  0  0  0  0
  -25.4076  -15.1013   20.4280 N   0  0  0  0  0  0  0  0  0  0  0  0
  -21.7911  -12.5303   21.2688 N   0  0  0  0  0  0  0  0  0  0  0  0
  -30.6825  -12.9072   22.7016 N   0  0  0  0  0  0  0  0  0  0  0  0
  -25.9054  -23.1695   25.9036 N   0  0  0  0  0  0  0  0  0  0  0  0
  -30.8646  -14.1804   28.4328 N   0  0  0  0  0  0  0  0  0  0  0  0
  -27.3610  -19.5196   20.3340 N   0  0  0  0  0  0  0  0  0  0  0  0
  -30.4773  -17.8380   19.6067 N   0  3  0  0  0  0  0  0  0  0  0  0
  -22.5173  -14.6870   20.9859 O   0  0  0  0  0  0  0  0  0  0  0  0
  -24.9504  -21.3260   24.8490 O   0  0  0  0  0  0  0  0  0  0  0  0
  -26.7623  -22.0102   21.6173 O   0  0  0  0  0  0  0  0  0  0  0  0
  -28.1482  -17.4958   21.1477 O   0  0  0  0  0  0  0  0  0  0  0  0
  -28.8810  -13.0417   28.1277 O   0  0  0  0  0  0  0  0  0  0  0  0
  -32.2398  -13.2573   21.0181 O   0  0  0  0  0  0  0  0  0  0  0  0
  -21.7115   -6.9707   21.6155 O   0  0  0  0  0  0  0  0  0  0  0  0
  -28.2739  -16.5031   27.8819 O   0  0  0  0  0  0  0  0  0  1  0  0
  -16.8512   -6.4796   19.0580 F   0  0  0  0  0  0  0  0  0  0  0  0
  -31.7116  -15.4641   22.3095 F   0  0  0  0  0  0  0  0  0  0  0  0
  -21.2468   -4.9058   19.8370 F   0  0  0  0  0  0  0  0  0  0  0  0
  -30.6763  -11.9284   25.3011 F   0  0  0  0  0  0  0  0  0  0  0  0
  1  2  1  0  0  0  0
  1  5  2  0  0  0  0
  2  6  2  0  0  0  0
  3  9  2  0  0  0  0
  3 17  1  0  0  0  0
  4 10  1  0  0  0  0
  4 17  2  0  0  0  0
  5 19  1  0  0  0  0
  6 21  1  0  0  0  0
  7 11  2  0  0  0  0
  7 20  1  0  0  0  0
  8 13  2  0  0  0  0
  8 23  1  0  0  0  0
  9 25  1  0  0  0  0
 10 25  2  0  0  0  0
 11 26  1  0  0  0  0
 12 14  2  0  0  0  0
 12 27  1  0  0  0  0
 13 29  1  0  0  0  0
 14 28  1  0  0  0  0
 15 22  1  0  0  0  0
 15 26  2  0  0  0  0
 16 28  2  0  0  0  0
 16 30  1  0  0  0  0
 17 32  1  0  0  0  0
 18 32  1  0  0  0  0
 18 33  2  0  0  0  0
 18 34  1  0  0  0  0
 19 21  2  0  0  0  0
 19 40  1  0  0  0  0
 20 22  2  0  0  0  0
 20 41  1  0  0  0  0
 21 49  1  0  0  0  0
 22 42  1  0  0  0  0
 23 31  2  0  0  0  0
 23 59  1  0  0  0  0
 24 29  2  0  0  0  0
 24 31  1  0  0  0  0
 24 71  1  0  0  0  0
 25 82  1  0  0  0  0
 26 83  1  0  0  0  0
 27 30  2  0  0  0  0
 27 82  1  0  0  0  0
 28 84  1  0  0  0  0
 29 85  1  0  0  0  0
 30 86  1  0  0  0  0
 31 87  1  0  0  0  0
 32 65  2  0  0  0  0
 33 66  1  0  0  0  0
 33 69  1  0  0  0  0
 34 70  1  0  0  0  0
 34 76  2  0  0  0  0
 35 50  1  0  0  0  0
 35 72  1  0  0  0  0
 35 77  2  0  0  0  0
 36 61  1  0  0  0  0
 36 67  1  0  0  0  0
 36 78  2  0  0  0  0
 37 62  1  0  0  0  0
 37 74  1  0  0  0  0
 37 79  2  0  0  0  0
 38 63  1  0  0  0  0
 38 73  1  0  0  0  0
 38 80  2  0  0  0  0
 39 68  1  0  0  0  0
 39 71  1  0  0  0  0
 39 81  2  0  0  0  0
 40 43  1  0  0  0  0
 41 50  1  0  0  0  0
 42 67  1  0  0  0  0
 43 45  1  0  0  0  0
 44 46  1  0  0  0  0
 44 47  1  0  0  0  0
 45 49  1  0  0  0  0
 46 51  1  0  0  0  0
 47 68  1  0  0  0  0
 48 51  1  0  0  0  0
 48 68  1  0  0  0  0
 49 72  1  0  0  0  0
 50 67  1  0  0  0  0
 51 66  1  0  0  0  0
 52 62  1  0  0  0  0
 53 63  1  0  0  0  0
 54 63  1  0  0  0  0
 55 64  1  0  0  0  0
 56 64  1  0  0  0  0
 57 64  1  0  0  0  0
 58 75  1  0  0  0  0
 59 73  1  0  0  0  0
 60 63  1  0  0  0  0
 60 83  1  0  0  0  0
 61 64  1  0  0  0  0
 61 74  1  0  0  0  0
 62 75  1  0  0  0  0
 65 66  1  0  0  0  0
M  CHG  1  75   1
M  ISO  4  39 100  60 101  71 100  83 101
M  END
> <Batch ID>
0169

> <Smiles>
CNC(C)C(=O)NC(C(=O)N1Cc2cc([101O:1][101CH2:1]C(C)(C)C(=O)NCc3ccc(F)c([100NH:0][100C:0](=O)N4CCCC(n5nc(-c6ccc(Oc7ccc(F)cc7F)cc6)c(C(N)=O)c5N)C4)c3F)ccc2CC1C(=O)NC1CCCc2ccccc21)C(C)(C)C

> <Shape>
0.158

> <Color>
0.171

> <Negative vol penalty>
0.000

$$$$

  -OEChem-04052304173D

 87 95  0     1  0  0  0  0  0999 V2000
  -16.9360  -29.4814   24.5236 C   0  0  0  0  0  0  0  0  0  0  0  0
  -18.0106  -28.6055   24.6393 C   0  0  0  0  0  0  0  0  0  0  0  0
  -23.1629   -9.6718   19.9414 C   0  0  0  0  0  0  0  0  0  0  0  0
  -23.7432   -9.8809   22.2773 C   0  0  0  0  0  0  0  0  0  0  0  0
  -16.9011  -30.4062   23.4808 C   0  0  0  0  0  0  0  0  0  0  0  0
  -19.0505  -28.6531   23.7115 C   0  0  0  0  0  0  0  0  0  0  0  0
  -24.9898  -27.6115   24.7818 C   0  0  0  0  0  0  0  0  0  0  0  0
  -22.4389   -8.5138   20.2249 C   0  0  0  0  0  0  0  0  0  0  0  0
  -23.0191   -8.7229   22.5608 C   0  0  0  0  0  0  0  0  0  0  0  0
  -25.7940  -26.4885   24.5931 C   0  0  0  0  0  0  0  0  0  0  0  0
  -23.4571   -5.3815   22.2887 C   0  0  0  0  0  0  0  0  0  0  0  0
  -24.0475   -4.4374   23.1285 C   0  0  0  0  0  0  0  0  0  0  0  0
  -31.3176  -18.7834   24.1631 C   0  0  0  0  0  0  0  0  0  0  0  0
  -26.5186  -27.3719   22.4685 C   0  0  0  0  0  0  0  0  0  0  0  0
  -31.7050  -16.9213   22.6733 C   0  0  0  0  0  0  0  0  0  0  0  0
  -22.2150   -4.6758   24.6849 C   0  0  0  0  0  0  0  0  0  0  0  0
  -23.8151  -10.3554   20.9676 C   0  0  0  0  0  0  0  0  0  0  0  0
  -29.9489  -18.7041   23.9064 C   0  0  0  0  0  0  0  0  0  0  0  0
  -24.0851  -12.8752   20.6759 C   0  0  0  0  0  0  0  0  0  0  0  0
  -17.9457  -30.4717   22.5454 C   0  0  0  0  0  0  0  0  0  0  0  0
  -24.9354  -28.6198   23.8088 C   0  0  0  0  0  0  0  0  0  0  0  0
  -19.0289  -29.5788   22.6544 C   0  0  0  0  0  0  0  0  0  0  0  0
  -25.7148  -28.5080   22.6485 C   0  0  0  0  0  0  0  0  0  0  0  0
  -30.3362  -16.8420   22.4166 C   0  0  0  0  0  0  0  0  0  0  0  0
  -22.3669   -8.0394   21.5346 C   0  0  0  0  0  0  0  0  0  0  0  0
  -26.5563  -26.3671   23.4350 C   0  0  0  0  0  0  0  0  0  0  0  0
  -22.2456   -5.9729   22.6469 C   0  0  0  0  0  0  0  0  0  0  0  0
  -23.4265   -4.0844   24.3266 C   0  0  0  0  0  0  0  0  0  0  0  0
  -32.1957  -17.8920   23.5465 C   0  0  0  0  0  0  0  0  0  0  0  0
  -21.6246   -5.6200   23.8450 C   0  0  0  0  0  0  0  0  0  0  0  0
  -29.4582  -17.7334   23.0331 C   0  0  0  0  0  0  0  0  0  0  0  0
  -24.5637  -11.5513   20.6753 C   0  0  0  0  0  0  0  0  0  0  0  0
  -25.1778  -13.6355   20.3373 C   0  0  0  0  0  0  0  0  0  0  0  0
  -29.0222  -19.6491   24.5613 C   0  0  0  0  0  0  0  0  0  0  0  0
  -22.7705  -13.3733   20.9574 C   0  0  0  0  0  0  0  0  0  0  0  0
  -22.6499  -29.8377   21.9658 C   0  0  0  0  0  0  0  0  0  0  0  0
  -28.2472  -23.1270   23.9157 C   0  0  0  0  0  0  0  0  0  0  0  0
  -24.9744  -31.9465   21.1462 C   0  0  0  0  0  0  0  0  0  0  0  0
  -28.3086  -32.6260   20.8842 C   0  0  0  0  0  0  0  0  0  0  0  0
  -30.5784  -14.8955   20.8358 C   0  0  0  0  0  0  0  0  0  0  0  0
  -17.8409  -31.4565   21.4079 C   0  0  0  0  0  0  0  0  0  0  0  0
  -24.0834  -29.8377   24.0396 C   0  0  0  0  0  0  0  0  0  0  0  0
  -25.7075  -29.5722   21.5827 C   0  0  0  0  0  0  0  0  0  0  0  0
  -19.1637  -31.6939   20.6839 C   0  0  0  0  0  0  0  0  0  0  0  0
  -29.7268  -12.2692   18.5876 C   0  0  0  0  0  0  0  0  0  0  0  0
  -19.8553  -30.3671   20.3870 C   0  0  0  0  0  0  0  0  0  0  0  0
  -28.2683  -11.9572   18.9303 C   0  0  0  0  0  0  0  0  0  0  0  0
  -30.5389  -12.6225   19.8323 C   0  0  0  0  0  0  0  0  0  0  0  0
  -28.5092  -13.3774   21.0069 C   0  0  0  0  0  0  0  0  0  0  0  0
  -20.1879  -29.6164   21.6821 C   0  0  1  0  0  0  0  0  0  0  0  0
  -23.7102  -30.5593   22.7484 C   0  0  1  0  0  0  0  0  0  0  0  0
  -27.6360  -13.0791   19.7771 C   0  0  2  0  0  0  0  0  0  0  0  0
  -28.9162  -22.4362   26.2359 C   0  0  0  0  0  0  0  0  0  0  0  0
  -29.9015  -34.4186   20.1450 C   0  0  0  0  0  0  0  0  0  0  0  0
  -24.4162  -31.2373   18.2315 C   0  0  0  0  0  0  0  0  0  0  0  0
  -26.6053  -32.2919   17.6283 C   0  0  0  0  0  0  0  0  0  0  0  0
  -24.7999  -33.6715   18.6578 C   0  0  0  0  0  0  0  0  0  0  0  0
  -29.4763  -32.8671   23.5929 C   0  0  0  0  0  0  0  0  0  0  0  0
  -27.3367  -24.2851   24.2790 C   0  0  0  0  0  0  0  0  0  1  0  0
  -28.3207  -21.9899   24.9152 C   0  0  2  0  0  0  0  0  0  0  0  0
  -26.0461  -31.9969   20.0842 C   0  0  1  0  0  0  0  0  0  0  0  0
  -29.1282  -33.8291   21.3143 C   0  0  2  0  0  0  0  0  0  0  0  0
  -25.4658  -32.2782   18.6694 C   0  0  0  0  0  0  0  0  0  0  0  0
  -25.8595  -11.4716   20.3611 N   0  0  0  0  0  0  0  0  0  0  0  0
  -26.2043  -12.7550   20.1610 N   0  0  0  0  0  0  0  0  0  0  0  0
  -24.8536  -30.7409   21.8517 N   0  0  0  0  0  0  0  0  0  0  0  0
  -29.8816  -13.6951   20.5822 N   0  0  0  0  0  0  0  0  0  0  0  0
  -25.3510  -14.9645   20.1760 N   0  0  0  0  0  0  0  0  0  0  0  0
  -21.7648  -12.4549   21.2886 N   0  0  0  0  0  0  0  0  0  0  0  0
  -29.8410  -15.8549   21.5287 N   0  0  0  0  0  0  0  0  0  0  0  0
  -29.1829  -20.9622   24.3400 N   0  0  0  0  0  0  0  0  0  0  0  0
  -21.3588  -30.1885   22.3115 N   0  0  0  0  0  0  0  0  0  0  0  0
  -27.0227  -32.9819   20.5361 N   0  0  0  0  0  0  0  0  0  0  0  0
  -28.0674  -19.1502   25.3466 N   0  3  0  0  0  0  0  0  0  0  0  0
  -30.1018  -33.4407   22.3736 N   0  3  0  0  0  0  0  0  0  0  0  0
  -22.4917  -14.5950   20.9004 O   0  0  0  0  0  0  0  0  0  0  0  0
  -22.9787  -29.0241   21.1105 O   0  0  0  0  0  0  0  0  0  0  0  0
  -28.8881  -23.1186   22.8645 O   0  0  0  0  0  0  0  0  0  0  0  0
  -24.2752  -32.9426   21.3474 O   0  0  0  0  0  0  0  0  0  0  0  0
  -28.7646  -31.4850   20.8560 O   0  0  0  0  0  0  0  0  0  0  0  0
  -31.7343  -15.0705   20.4417 O   0  0  0  0  0  0  0  0  0  0  0  0
  -21.6602   -6.9096   21.8116 O   0  0  0  0  0  0  0  0  0  0  0  0
  -27.3417  -25.2717   23.2479 O   0  0  0  0  0  0  0  0  0  1  0  0
  -23.9929   -3.1766   25.1323 F   0  0  0  0  0  0  0  0  0  0  0  0
  -33.5099  -17.9680   23.7932 F   0  0  0  0  0  0  0  0  0  0  0  0
  -20.4600   -6.1839   24.1939 F   0  0  0  0  0  0  0  0  0  0  0  0
  -28.1415  -17.6586   22.7869 F   0  0  0  0  0  0  0  0  0  0  0  0
  1  2  1  0  0  0  0
  1  5  2  0  0  0  0
  2  6  2  0  0  0  0
  3  8  2  0  0  0  0
  3 17  1  0  0  0  0
  4  9  1  0  0  0  0
  4 17  2  0  0  0  0
  5 20  1  0  0  0  0
  6 22  1  0  0  0  0
  7 10  2  0  0  0  0
  7 21  1  0  0  0  0
  8 25  1  0  0  0  0
  9 25  2  0  0  0  0
 10 26  1  0  0  0  0
 11 12  2  0  0  0  0
 11 27  1  0  0  0  0
 12 28  1  0  0  0  0
 13 18  1  0  0  0  0
 13 29  2  0  0  0  0
 14 23  1  0  0  0  0
 14 26  2  0  0  0  0
 15 24  2  0  0  0  0
 15 29  1  0  0  0  0
 16 28  2  0  0  0  0
 16 30  1  0  0  0  0
 17 32  1  0  0  0  0
 18 31  2  0  0  0  0
 18 34  1  0  0  0  0
 19 32  1  0  0  0  0
 19 33  2  0  0  0  0
 19 35  1  0  0  0  0
 20 22  2  0  0  0  0
 20 41  1  0  0  0  0
 21 23  2  0  0  0  0
 21 42  1  0  0  0  0
 22 50  1  0  0  0  0
 23 43  1  0  0  0  0
 24 31  1  0  0  0  0
 24 70  1  0  0  0  0
 25 82  1  0  0  0  0
 26 83  1  0  0  0  0
 27 30  2  0  0  0  0
 27 82  1  0  0  0  0
 28 84  1  0  0  0  0
 29 85  1  0  0  0  0
 30 86  1  0  0  0  0
 31 87  1  0  0  0  0
 32 64  2  0  0  0  0
 33 65  1  0  0  0  0
 33 68  1  0  0  0  0
 34 71  1  0  0  0  0
 34 74  2  0  0  0  0
 35 69  1  0  0  0  0
 35 76  2  0  0  0  0
 36 51  1  0  0  0  0
 36 72  1  0  0  0  0
 36 77  2  0  0  0  0
 37 59  1  0  0  0  0
 37 60  1  0  0  0  0
 37 78  2  0  0  0  0
 38 61  1  0  0  0  0
 38 66  1  0  0  0  0
 38 79  2  0  0  0  0
 39 62  1  0  0  0  0
 39 73  1  0  0  0  0
 39 80  2  0  0  0  0
 40 67  1  0  0  0  0
 40 70  1  0  0  0  0
 40 81  2  0  0  0  0
 41 44  1  0  0  0  0
 42 51  1  0  0  0  0
 43 66  1  0  0  0  0
 44 46  1  0  0  0  0
 45 47  1  0  0  0  0
 45 48  1  0  0  0  0
 46 50  1  0  0  0  0
 47 52  1  0  0  0  0
 48 67  1  0  0  0  0
 49 52  1  0  0  0  0
 49 67  1  0  0  0  0
 50 72  1  0  0  0  0
 51 66  1  0  0  0  0
 52 65  1  0  0  0  0
 53 60  1  0  0  0  0
 54 62  1  0  0  0  0
 55 63  1  0  0  0  0
 56 63  1  0  0  0  0
 57 63  1  0  0  0  0
 58 75  1  0  0  0  0
 59 83  1  0  0  0  0
 60 71  1  0  0  0  0
 61 63  1  0  0  0  0
 61 73  1  0  0  0  0
 62 75  1  0  0  0  0
 64 65  1  0  0  0  0
M  CHG  2  74   1  75   1
M  ISO  4  40 100  59 101  70 100  83 101
M  END
> <Batch ID>
0169

> <Smiles>
CNC(C)C(=O)NC(C(=O)N1Cc2cc([101O:1][101CH2:1]C(=O)C(C)NC(=N)c3cc(F)cc([100NH:0][100C:0](=O)N4CCCC(n5nc(-c6ccc(Oc7ccc(F)cc7F)cc6)c(C(N)=O)c5N)C4)c3F)ccc2CC1C(=O)NC1CCCc2ccccc21)C(C)(C)C

> <Shape>
0.268

> <Color>
0.216

> <Negative vol penalty>
0.000

$$$$

  -OEChem-04052304173D

 91 99  0     1  0  0  0  0  0999 V2000
  -30.6323  -35.8729   21.1025 C   0  0  0  0  0  0  0  0  0  0  0  0
  -30.5454  -34.5774   20.6027 C   0  0  0  0  0  0  0  0  0  0  0  0
  -24.6565   -9.2641   21.8992 C   0  0  0  0  0  0  0  0  0  0  0  0
  -23.1951   -9.9023   20.0842 C   0  0  0  0  0  0  0  0  0  0  0  0
  -30.0182  -36.1948   22.3121 C   0  0  0  0  0  0  0  0  0  0  0  0
  -29.8452  -33.6029   21.3130 C   0  0  0  0  0  0  0  0  0  0  0  0
  -26.5520  -28.9984   18.9764 C   0  0  0  0  0  0  0  0  0  0  0  0
  -23.6077   -8.5665   22.4984 C   0  0  0  0  0  0  0  0  0  0  0  0
  -22.1463   -9.2047   20.6834 C   0  0  0  0  0  0  0  0  0  0  0  0
  -26.8422  -27.6516   18.7630 C   0  0  0  0  0  0  0  0  0  0  0  0
  -22.0516   -5.5901   22.1083 C   0  0  0  0  0  0  0  0  0  0  0  0
  -22.3209   -4.3142   22.6033 C   0  0  0  0  0  0  0  0  0  0  0  0
  -31.7760  -19.5693   19.7122 C   0  0  0  0  0  0  0  0  0  0  0  0
  -25.7894  -27.0985   20.8618 C   0  0  0  0  0  0  0  0  0  0  0  0
  -33.6272  -21.0580   20.1527 C   0  0  0  0  0  0  0  0  0  0  0  0
  -21.6803   -5.0380   24.8175 C   0  0  0  0  0  0  0  0  0  0  0  0
  -24.4502   -9.9320   20.6921 C   0  0  0  0  0  0  0  0  0  0  0  0
  -32.5404  -18.4886   20.1519 C   0  0  0  0  0  0  0  0  0  0  0  0
  -26.4666  -10.1535   19.1452 C   0  0  0  0  0  0  0  0  0  0  0  0
  -29.3021  -35.2261   23.0328 C   0  0  0  0  0  0  0  0  0  0  0  0
  -25.8869  -29.4074   20.1412 C   0  0  0  0  0  0  0  0  0  0  0  0
  -29.2222  -33.9118   22.5341 C   0  0  0  0  0  0  0  0  0  0  0  0
  -25.4897  -28.4509   21.0864 C   0  0  0  0  0  0  0  0  0  0  0  0
  -33.8481  -18.6926   20.5921 C   0  0  0  0  0  0  0  0  0  0  0  0
  -32.3194  -20.8540   19.7126 C   0  0  0  0  0  0  0  0  0  0  0  0
  -34.3916  -19.9772   20.5925 C   0  0  0  0  0  0  0  0  0  0  0  0
  -22.3526   -8.5368   21.8905 C   0  0  0  0  0  0  0  0  0  0  0  0
  -26.4634  -26.7017   19.7072 C   0  0  0  0  0  0  0  0  0  0  0  0
  -21.5967   -6.5900   22.9679 C   0  0  0  0  0  0  0  0  0  0  0  0
  -22.1352   -4.0381   23.9579 C   0  0  0  0  0  0  0  0  0  0  0  0
  -21.4110   -6.3140   24.3225 C   0  0  0  0  0  0  0  0  0  0  0  0
  -25.5330  -10.6532   20.0729 C   0  0  0  0  0  0  0  0  0  0  0  0
  -27.2800  -11.2244   18.8658 C   0  0  0  0  0  0  0  0  0  0  0  0
  -31.9416  -17.1602   20.1385 C   0  0  0  0  0  0  0  0  0  0  0  0
  -30.8234  -16.8014   20.8014 C   0  0  0  0  0  0  0  0  0  0  0  0
  -26.5877   -8.8388   18.5861 C   0  0  0  0  0  0  0  0  0  0  0  0
  -30.3345  -15.4133   20.6791 C   0  0  0  0  0  0  0  0  0  0  0  0
  -26.6117  -31.2974   22.5919 C   0  0  0  0  0  0  0  0  0  0  0  0
  -36.5273  -15.9153   20.4800 C   0  0  0  0  0  0  0  0  0  0  0  0
  -28.4989  -23.7502   19.1621 C   0  0  0  0  0  0  0  0  0  0  0  0
  -23.5223  -30.7562   23.4195 C   0  0  0  0  0  0  0  0  0  0  0  0
  -30.2338  -21.9283   18.8073 C   0  0  0  0  0  0  0  0  0  0  0  0
  -20.7789  -28.7367   23.2135 C   0  0  0  0  0  0  0  0  0  0  0  0
  -28.6951  -35.6095   24.3591 C   0  0  0  0  0  0  0  0  0  0  0  0
  -25.5576  -30.8610   20.3438 C   0  0  0  0  0  0  0  0  0  0  0  0
  -24.7555  -28.8359   22.3438 C   0  0  0  0  0  0  0  0  0  0  0  0
  -27.6558  -34.6121   24.8644 C   0  0  0  0  0  0  0  0  0  0  0  0
  -26.8049  -16.1178   19.9880 C   0  0  0  0  0  0  0  0  0  0  0  0
  -28.1764  -33.1846   24.7302 C   0  0  0  0  0  0  0  0  0  0  0  0
  -26.2312  -14.7049   19.9207 C   0  0  0  0  0  0  0  0  0  0  0  0
  -27.9374  -16.2270   21.0079 C   0  0  0  0  0  0  0  0  0  0  0  0
  -28.4552  -13.8200   20.7275 C   0  0  0  0  0  0  0  0  0  0  0  0
  -28.4508  -32.8331   23.2630 C   0  0  1  0  0  0  0  0  0  0  0  0
  -25.3318  -31.2240   21.8082 C   0  0  1  0  0  0  0  0  0  0  0  0
  -27.3458  -13.6760   19.6740 C   0  0  1  0  0  0  0  0  0  0  0  0
  -37.5156  -15.4020   19.4873 C   0  0  0  0  0  0  0  0  0  0  0  0
  -18.4134  -28.5382   24.0274 C   0  0  0  0  0  0  0  0  0  0  0  0
  -24.5409  -29.8754   26.1575 C   0  0  0  0  0  0  0  0  0  0  0  0
  -22.3097  -28.8170   26.5697 C   0  0  0  0  0  0  0  0  0  0  0  0
  -22.4732  -31.2810   26.2163 C   0  0  0  0  0  0  0  0  0  0  0  0
  -19.7010  -28.8243   20.4586 C   0  0  0  0  0  0  0  0  0  0  0  0
  -34.6757  -17.5375   21.0672 C   0  0  0  0  0  0  0  0  0  0  0  0
  -29.7416  -23.3087   18.4171 C   0  0  0  0  0  0  0  0  0  0  0  0
  -35.6936  -17.0899   20.0149 C   0  0  0  0  0  0  0  0  0  0  0  0
  -27.9158  -25.0844   18.7423 C   0  0  0  0  0  0  0  0  0  1  0  0
  -22.8041  -29.7226   24.2531 C   0  0  1  0  0  0  0  0  0  0  0  0
  -19.3220  -29.0438   22.9177 C   0  0  2  0  0  0  0  0  0  0  0  0
  -23.0475  -29.9166   25.7765 C   0  0  0  0  0  0  0  0  0  0  0  0
  -25.7338  -11.9413   20.3635 N   0  0  0  0  0  0  0  0  0  0  0  0
  -26.8029  -12.2600   19.6142 N   0  0  0  0  0  0  0  0  0  0  0  0
  -28.9621  -15.1955   20.7869 N   0  0  0  0  0  0  0  0  0  0  0  0
  -24.4620  -30.2702   22.4994 N   0  0  0  0  0  0  0  0  0  0  0  0
  -35.7137  -20.2050   21.0348 N   0  0  0  0  0  0  0  0  0  0  0  0
  -28.3496  -11.3717   18.0554 N   0  0  0  0  0  0  0  0  0  0  0  0
  -25.6688   -7.8572   18.9817 N   0  0  0  0  0  0  0  0  0  0  0  0
  -31.5441  -21.9512   19.2667 N   0  0  0  0  0  0  0  0  0  0  0  0
  -27.2125  -32.5417   22.5730 N   0  0  0  0  0  0  0  0  0  0  0  0
  -21.4007  -29.7842   23.8596 N   0  0  0  0  0  0  0  0  0  0  0  0
  -18.9060  -28.3999   21.6397 N   0  3  0  0  0  0  0  0  0  0  0  0
  -27.4941   -8.5389   17.7725 O   0  0  0  0  0  0  0  0  0  0  0  0
  -31.1729  -14.5294   20.4936 O   0  0  0  0  0  0  0  0  0  0  0  0
  -27.0230  -30.2994   23.1721 O   0  0  0  0  0  0  0  0  0  0  0  0
  -36.4336  -15.3861   21.5800 O   0  0  0  0  0  0  0  0  0  0  0  0
  -27.9964  -23.0732   20.0580 O   0  0  0  0  0  0  0  0  0  0  0  0
  -23.2540  -31.9503   23.5737 O   0  0  0  0  0  0  0  0  0  0  0  0
  -29.4850  -20.9583   18.7239 O   0  0  0  0  0  0  0  0  0  0  0  0
  -21.3111  -27.6725   22.9058 O   0  0  0  0  0  0  0  0  0  0  0  0
  -21.3290   -7.8561   22.4748 O   0  0  0  0  0  0  0  0  0  0  0  0
  -26.7460  -25.3865   19.5018 O   0  0  0  0  0  0  0  0  0  1  0  0
  -22.3924   -2.8123   24.4328 F   0  0  0  0  0  0  0  0  0  0  0  0
  -20.9731   -7.2702   25.1530 F   0  0  0  0  0  0  0  0  0  0  0  0
  1  2  1  0  0  0  0
  1  5  2  0  0  0  0
  2  6  2  0  0  0  0
  3  8  2  0  0  0  0
  3 17  1  0  0  0  0
  4  9  1  0  0  0  0
  4 17  2  0  0  0  0
  5 20  1  0  0  0  0
  6 22  1  0  0  0  0
  7 10  2  0  0  0  0
  7 21  1  0  0  0  0
  8 27  1  0  0  0  0
  9 27  2  0  0  0  0
 10 28  1  0  0  0  0
 11 12  2  0  0  0  0
 11 29  1  0  0  0  0
 12 30  1  0  0  0  0
 13 18  1  0  0  0  0
 13 25  2  0  0  0  0
 14 23  1  0  0  0  0
 14 28  2  0  0  0  0
 15 25  1  0  0  0  0
 15 26  2  0  0  0  0
 16 30  2  0  0  0  0
 16 31  1  0  0  0  0
 17 32  1  0  0  0  0
 18 24  2  0  0  0  0
 18 34  1  0  0  0  0
 19 32  1  0  0  0  0
 19 33  2  0  0  0  0
 19 36  1  0  0  0  0
 20 22  2  0  0  0  0
 20 44  1  0  0  0  0
 21 23  2  0  0  0  0
 21 45  1  0  0  0  0
 22 53  1  0  0  0  0
 23 46  1  0  0  0  0
 24 26  1  0  0  0  0
 24 62  1  0  0  0  0
 25 76  1  0  0  0  0
 26 73  1  0  0  0  0
 27 88  1  0  0  0  0
 28 89  1  0  0  0  0
 29 31  2  0  0  0  0
 29 88  1  0  0  0  0
 30 90  1  0  0  0  0
 31 91  1  0  0  0  0
 32 69  2  0  0  0  0
 33 70  1  0  0  0  0
 33 74  1  0  0  0  0
 34 35  2  0  0  0  0
 35 37  1  0  0  0  0
 36 75  1  0  0  0  0
 36 80  2  0  0  0  0
 37 71  1  0  0  0  0
 37 81  2  0  0  0  0
 38 54  1  0  0  0  0
 38 77  1  0  0  0  0
 38 82  2  0  0  0  0
 39 56  1  0  0  0  0
 39 64  1  0  0  0  0
 39 83  2  0  0  0  0
 40 63  1  0  0  0  0
 40 65  1  0  0  0  0
 40 84  2  0  0  0  0
 41 66  1  0  0  0  0
 41 72  1  0  0  0  0
 41 85  2  0  0  0  0
 42 63  1  0  0  0  0
 42 76  1  0  0  0  0
 42 86  2  0  0  0  0
 43 67  1  0  0  0  0
 43 78  1  0  0  0  0
 43 87  2  0  0  0  0
 44 47  1  0  0  0  0
 45 54  1  0  0  0  0
 46 72  1  0  0  0  0
 47 49  1  0  0  0  0
 48 50  1  0  0  0  0
 48 51  1  0  0  0  0
 49 53  1  0  0  0  0
 50 55  1  0  0  0  0
 51 71  1  0  0  0  0
 52 55  1  0  0  0  0
 52 71  1  0  0  0  0
 53 77  1  0  0  0  0
 54 72  1  0  0  0  0
 55 70  1  0  0  0  0
 57 67  1  0  0  0  0
 58 68  1  0  0  0  0
 59 68  1  0  0  0  0
 60 68  1  0  0  0  0
 61 79  1  0  0  0  0
 62 64  1  0  0  0  0
 65 89  1  0  0  0  0
 66 68  1  0  0  0  0
 66 78  1  0  0  0  0
 67 79  1  0  0  0  0
 69 70  1  0  0  0  0
M  CHG  1  79   1
M  ISO  4  35 100  37 100  65 101  89 101
M  END
> <Batch ID>
0169

> <Smiles>
CNC(C)C(=O)NC(C(=O)N1Cc2cc([101O:1][101CH2:1]C(=O)CC(=O)Nc3cc(N)c(CCC(C)=O)c(C=[100CH:0][100C:0](=O)N4CCCC(n5nc(-c6ccc(Oc7ccc(F)cc7F)cc6)c(C(N)=O)c5N)C4)c3)ccc2CC1C(=O)NC1CCCc2ccccc21)C(C)(C)C

> <Shape>
0.293

> <Color>
0.114

> <Negative vol penalty>
0.000

$$$$

  -OEChem-04052304173D

 89 97  0     1  0  0  0  0  0999 V2000
  -31.9137  -17.7719   22.7835 C   0  0  0  0  0  0  0  0  0  0  0  0
  -30.7582  -18.5466   22.7721 C   0  0  0  0  0  0  0  0  0  0  0  0
  -27.9077  -23.7280   21.0028 C   0  0  0  0  0  0  0  0  0  0  0  0
  -28.8454  -23.9821   18.7908 C   0  0  0  0  0  0  0  0  0  0  0  0
  -31.9318  -16.5395   22.1319 C   0  0  0  0  0  0  0  0  0  0  0  0
  -29.6203  -18.0896   22.1082 C   0  0  0  0  0  0  0  0  0  0  0  0
  -23.7893  -18.9924   23.7484 C   0  0  0  0  0  0  0  0  0  0  0  0
  -19.4981  -28.9586   22.0030 C   0  0  0  0  0  0  0  0  0  0  0  0
  -28.3122  -22.3932   21.0210 C   0  0  0  0  0  0  0  0  0  0  0  0
  -29.2500  -22.6473   18.8089 C   0  0  0  0  0  0  0  0  0  0  0  0
  -22.8268  -19.9079   23.3250 C   0  0  0  0  0  0  0  0  0  0  0  0
  -31.7601  -20.8252   20.1505 C   0  0  0  0  0  0  0  0  0  0  0  0
  -18.4173  -28.6199   22.8171 C   0  0  0  0  0  0  0  0  0  0  0  0
  -33.0517  -20.5351   19.7109 C   0  0  0  0  0  0  0  0  0  0  0  0
  -21.9505  -18.2671   21.7890 C   0  0  0  0  0  0  0  0  0  0  0  0
  -32.1435  -19.1163   17.9790 C   0  0  0  0  0  0  0  0  0  0  0  0
  -28.1742  -24.5224   19.8877 C   0  0  0  0  0  0  0  0  0  0  0  0
  -28.4907  -27.0186   20.3077 C   0  0  0  0  0  0  0  0  0  0  0  0
  -30.7906  -16.0628   21.4678 C   0  0  0  0  0  0  0  0  0  0  0  0
  -23.8466  -17.7088   23.1865 C   0  0  0  0  0  0  0  0  0  0  0  0
  -29.6236  -16.8502   21.4460 C   0  0  0  0  0  0  0  0  0  0  0  0
  -22.9131  -17.3363   22.2088 C   0  0  0  0  0  0  0  0  0  0  0  0
  -20.4315  -26.7535   22.3246 C   0  0  0  0  0  0  0  0  0  0  0  0
  -19.3506  -26.4148   23.1387 C   0  0  0  0  0  0  0  0  0  0  0  0
  -20.5052  -28.0254   21.7568 C   0  0  0  0  0  0  0  0  0  0  0  0
  -28.9834  -21.8529   19.9241 C   0  0  0  0  0  0  0  0  0  0  0  0
  -21.9091  -19.5463   22.3431 C   0  0  0  0  0  0  0  0  0  0  0  0
  -30.6602  -20.2609   19.5044 C   0  0  0  0  0  0  0  0  0  0  0  0
  -33.2434  -19.6807   18.6251 C   0  0  0  0  0  0  0  0  0  0  0  0
  -18.3435  -27.3480   23.3849 C   0  0  0  0  0  0  0  0  0  0  0  0
  -30.8519  -19.4065   18.4186 C   0  0  0  0  0  0  0  0  0  0  0  0
  -27.7560  -25.9011   19.8681 C   0  0  0  0  0  0  0  0  0  0  0  0
  -27.6600  -28.0879   20.0774 C   0  0  0  0  0  0  0  0  0  0  0  0
  -18.6405  -24.2459   23.0182 C   0  0  0  0  0  0  0  0  0  0  0  0
  -29.8065  -27.0843   20.8735 C   0  0  0  0  0  0  0  0  0  0  0  0
  -26.0089  -16.0868   21.5140 C   0  0  0  0  0  0  0  0  0  0  0  0
  -19.0849  -21.8037   22.6019 C   0  0  0  0  0  0  0  0  0  0  0  0
  -23.8936  -13.6544   21.8760 C   0  0  0  0  0  0  0  0  0  0  0  0
  -20.6723  -12.6752   22.4338 C   0  0  0  0  0  0  0  0  0  0  0  0
  -21.5736  -28.1903   19.5148 C   0  0  0  0  0  0  0  0  0  0  0  0
  -30.8727  -14.7458   20.7375 C   0  0  0  0  0  0  0  0  0  0  0  0
  -24.8741  -16.7240   23.6732 C   0  0  0  0  0  0  0  0  0  0  0  0
  -22.9193  -15.9639   21.5885 C   0  0  0  0  0  0  0  0  0  0  0  0
  -29.5086  -14.1642   20.3750 C   0  0  0  0  0  0  0  0  0  0  0  0
  -24.1212  -29.5473   17.2173 C   0  0  0  0  0  0  0  0  0  0  0  0
  -28.6158  -15.2388   19.7627 C   0  0  0  0  0  0  0  0  0  0  0  0
  -25.3893  -28.8072   17.6395 C   0  0  0  0  0  0  0  0  0  0  0  0
  -22.8682  -28.7138   17.4686 C   0  0  0  0  0  0  0  0  0  0  0  0
  -24.0069  -27.4933   19.2972 C   0  0  0  0  0  0  0  0  0  0  0  0
  -28.3614  -16.3776   20.7577 C   0  0  1  0  0  0  0  0  0  0  0  0
  -25.1650  -15.6167   22.6649 C   0  0  1  0  0  0  0  0  0  0  0  0
  -25.2833  -28.3242   19.0964 C   0  0  1  0  0  0  0  0  0  0  0  0
  -22.4599  -25.6021   23.2446 C   0  0  0  0  0  0  0  0  0  0  0  0
  -19.2449  -10.6213   22.6373 C   0  0  0  0  0  0  0  0  0  0  0  0
  -23.9644  -13.3080   18.8453 C   0  0  0  0  0  0  0  0  0  0  0  0
  -21.8723  -11.9441   19.0222 C   0  0  0  0  0  0  0  0  0  0  0  0
  -23.9631  -11.1684   20.1402 C   0  0  0  0  0  0  0  0  0  0  0  0
  -22.6867  -29.2182   21.4831 C   0  0  0  0  0  0  0  0  0  0  0  0
  -16.3845  -23.5090   24.7038 C   0  0  0  0  0  0  0  0  0  0  0  0
  -19.9140  -13.3366   25.2171 C   0  0  0  0  0  0  0  0  0  0  0  0
  -21.5096  -25.7488   22.0617 C   0  0  0  0  0  0  0  0  0  0  0  0
  -20.5213  -21.4013   22.8806 C   0  0  0  0  0  0  0  0  0  1  0  0
  -18.4881  -22.8423   23.5338 C   0  0  2  0  0  0  0  0  0  0  0  0
  -22.7071  -13.1442   21.0944 C   0  0  1  0  0  0  0  0  0  0  0  0
  -20.0816  -11.6488   23.3836 C   0  0  2  0  0  0  0  0  0  0  0  0
  -23.1276  -12.4178   19.7856 C   0  0  0  0  0  0  0  0  0  0  0  0
  -26.5512  -26.2300   19.3945 N   0  0  0  0  0  0  0  0  0  0  0  0
  -19.2596  -25.1388   23.7193 N   0  0  0  0  0  0  0  0  0  0  0  0
  -26.5224  -27.5662   19.5354 N   0  0  0  0  0  0  0  0  0  0  0  0
  -23.9472  -15.0386   22.0932 N   0  0  0  0  0  0  0  0  0  0  0  0
  -22.8149  -28.2293   18.8485 N   0  0  0  0  0  0  0  0  0  0  0  0
  -27.7989  -29.4141   20.2879 N   0  0  0  0  0  0  0  0  0  0  0  0
  -30.5222  -25.8909   21.0406 N   0  0  0  0  0  0  0  0  0  0  0  0
  -27.3691  -15.9830   21.7344 N   0  0  0  0  0  0  0  0  0  0  0  0
  -21.9365  -12.3166   22.0161 N   0  0  0  0  0  0  0  0  0  0  0  0
  -21.6143  -28.3979   20.9106 N   0  0  0  0  0  0  0  0  0  0  0  0
  -17.0370  -22.5747   23.7516 N   0  3  0  0  0  0  0  0  0  0  0  0
  -19.2138  -12.3171   24.3941 N   0  3  0  0  0  0  0  0  0  0  0  0
  -30.3255  -28.1673   21.2358 O   0  0  0  0  0  0  0  0  0  0  0  0
  -25.4662  -16.5109   20.5004 O   0  0  0  0  0  0  0  0  0  0  0  0
  -18.4429  -21.3038   21.6784 O   0  0  0  0  0  0  0  0  0  0  0  0
  -24.7379  -12.8536   22.2851 O   0  0  0  0  0  0  0  0  0  0  0  0
  -20.0708  -13.6915   22.0935 O   0  0  0  0  0  0  0  0  0  0  0  0
  -20.5116  -28.0140   18.9060 O   0  0  0  0  0  0  0  0  0  0  0  0
  -29.3785  -20.5505   19.9416 O   0  0  0  0  0  0  0  0  0  0  0  0
  -20.9690  -20.4382   21.9276 O   0  0  0  0  0  0  0  0  0  1  0  0
  -34.4836  -19.4033   18.2021 F   0  0  0  0  0  0  0  0  0  0  0  0
  -17.3010  -27.0323   24.1663 F   0  0  0  0  0  0  0  0  0  0  0  0
  -29.7990  -18.8622   17.7932 F   0  0  0  0  0  0  0  0  0  0  0  0
  1  2  1  0  0  0  0
  1  5  2  0  0  0  0
  2  6  2  0  0  0  0
  3  9  2  0  0  0  0
  3 17  1  0  0  0  0
  4 10  1  0  0  0  0
  4 17  2  0  0  0  0
  5 19  1  0  0  0  0
  6 21  1  0  0  0  0
  7 11  2  0  0  0  0
  7 20  1  0  0  0  0
  8 13  1  0  0  0  0
  8 25  2  0  0  0  0
  9 26  1  0  0  0  0
 10 26  2  0  0  0  0
 11 27  1  0  0  0  0
 12 14  2  0  0  0  0
 12 28  1  0  0  0  0
 13 30  2  0  0  0  0
 14 29  1  0  0  0  0
 15 22  1  0  0  0  0
 15 27  2  0  0  0  0
 16 29  2  0  0  0  0
 16 31  1  0  0  0  0
 17 32  1  0  0  0  0
 18 32  1  0  0  0  0
 18 33  2  0  0  0  0
 18 35  1  0  0  0  0
 19 21  2  0  0  0  0
 19 41  1  0  0  0  0
 20 22  2  0  0  0  0
 20 42  1  0  0  0  0
 21 50  1  0  0  0  0
 22 43  1  0  0  0  0
 23 24  2  0  0  0  0
 23 25  1  0  0  0  0
 23 61  1  0  0  0  0
 24 30  1  0  0  0  0
 24 68  1  0  0  0  0
 25 76  1  0  0  0  0
 26 85  1  0  0  0  0
 27 86  1  0  0  0  0
 28 31  2  0  0  0  0
 28 85  1  0  0  0  0
 29 87  1  0  0  0  0
 30 88  1  0  0  0  0
 31 89  1  0  0  0  0
 32 67  2  0  0  0  0
 33 69  1  0  0  0  0
 33 72  1  0  0  0  0
 34 63  1  0  0  0  0
 34 68  2  0  0  0  0
 35 73  1  0  0  0  0
 35 79  2  0  0  0  0
 36 51  1  0  0  0  0
 36 74  1  0  0  0  0
 36 80  2  0  0  0  0
 37 62  1  0  0  0  0
 37 63  1  0  0  0  0
 37 81  2  0  0  0  0
 38 64  1  0  0  0  0
 38 70  1  0  0  0  0
 38 82  2  0  0  0  0
 39 65  1  0  0  0  0
 39 75  1  0  0  0  0
 39 83  2  0  0  0  0
 40 71  1  0  0  0  0
 40 76  1  0  0  0  0
 40 84  2  0  0  0  0
 41 44  1  0  0  0  0
 42 51  1  0  0  0  0
 43 70  1  0  0  0  0
 44 46  1  0  0  0  0
 45 47  1  0  0  0  0
 45 48  1  0  0  0  0
 46 50  1  0  0  0  0
 47 52  1  0  0  0  0
 48 71  1  0  0  0  0
 49 52  1  0  0  0  0
 49 71  1  0  0  0  0
 50 74  1  0  0  0  0
 51 70  1  0  0  0  0
 52 69  1  0  0  0  0
 53 61  1  0  0  0  0
 54 65  1  0  0  0  0
 55 66  1  0  0  0  0
 56 66  1  0  0  0  0
 57 66  1  0  0  0  0
 58 76  1  0  0  0  0
 59 77  1  0  0  0  0
 60 78  1  0  0  0  0
 62 86  1  0  0  0  0
 63 77  1  0  0  0  0
 64 66  1  0  0  0  0
 64 75  1  0  0  0  0
 65 78  1  0  0  0  0
 67 69  1  0  0  0  0
M  CHG  2  77   1  78   1
M  ISO  4  40 100  62 101  76 100  86 101
M  END
> <Batch ID>
0169

> <Smiles>
CCc1c([100N:0](C)[100C:0](=O)N2CCCC(n3nc(-c4ccc(Oc5ccc(F)cc5F)cc4)c(C(N)=O)c3N)C2)ccc(F)c1NCC(=NC)C(=O)[101CH2:1][101O:1]c1ccc2c(c1)CN(C(=O)C(NC(=O)C(C)NC)C(C)(C)C)C(C(=O)NC1CCCc3ccccc31)C2

> <Shape>
0.232

> <Color>
0.054

> <Negative vol penalty>
0.000

$$$$

  -OEChem-04052304173D

 87 95  0     1  0  0  0  0  0999 V2000
  -19.3624  -18.3993   14.2096 C   0  0  0  0  0  0  0  0  0  0  0  0
  -20.2579  -17.3962   14.5662 C   0  0  0  0  0  0  0  0  0  0  0  0
  -26.9960  -28.8126   19.9295 C   0  0  0  0  0  0  0  0  0  0  0  0
  -25.7662  -26.8873   20.7155 C   0  0  0  0  0  0  0  0  0  0  0  0
  -19.3044  -19.5772   14.9533 C   0  0  0  0  0  0  0  0  0  0  0  0
  -21.0968  -17.5709   15.6663 C   0  0  0  0  0  0  0  0  0  0  0  0
  -22.9874  -13.2536   19.5768 C   0  0  0  0  0  0  0  0  0  0  0  0
  -30.9021  -17.3935   19.6335 C   0  0  0  0  0  0  0  0  0  0  0  0
  -31.1169  -18.7557   19.4240 C   0  0  0  0  0  0  0  0  0  0  0  0
  -25.7991  -29.4267   19.5609 C   0  0  0  0  0  0  0  0  0  0  0  0
  -24.5692  -27.5013   20.3469 C   0  0  0  0  0  0  0  0  0  0  0  0
  -24.1690  -12.5187   19.6632 C   0  0  0  0  0  0  0  0  0  0  0  0
  -21.1650  -28.7123   19.9435 C   0  0  0  0  0  0  0  0  0  0  0  0
  -20.1043  -28.6626   20.8480 C   0  0  0  0  0  0  0  0  0  0  0  0
  -25.0253  -14.0964   21.2747 C   0  0  0  0  0  0  0  0  0  0  0  0
  -21.4448  -29.8299   22.4843 C   0  0  0  0  0  0  0  0  0  0  0  0
  -26.9796  -27.5429   20.5068 C   0  0  0  0  0  0  0  0  0  0  0  0
  -28.8698  -26.9974   22.1307 C   0  0  0  0  0  0  0  0  0  0  0  0
  -20.1363  -19.7625   16.0688 C   0  0  0  0  0  0  0  0  0  0  0  0
  -22.8199  -14.4233   20.3318 C   0  0  0  0  0  0  0  0  0  0  0  0
  -21.0509  -18.7530   16.4248 C   0  0  0  0  0  0  0  0  0  0  0  0
  -23.8396  -14.8429   21.1980 C   0  0  0  0  0  0  0  0  0  0  0  0
  -28.5231  -17.7902   19.7742 C   0  0  0  0  0  0  0  0  0  0  0  0
  -28.7379  -19.1525   19.5648 C   0  0  0  0  0  0  0  0  0  0  0  0
  -29.6052  -16.9107   19.8086 C   0  0  0  0  0  0  0  0  0  0  0  0
  -30.0348  -19.6352   19.3897 C   0  0  0  0  0  0  0  0  0  0  0  0
  -24.5857  -28.7710   19.7695 C   0  0  0  0  0  0  0  0  0  0  0  0
  -25.1894  -12.9416   20.5100 C   0  0  0  0  0  0  0  0  0  0  0  0
  -22.3657  -29.3208   20.3095 C   0  0  0  0  0  0  0  0  0  0  0  0
  -20.2442  -29.2214   22.1183 C   0  0  0  0  0  0  0  0  0  0  0  0
  -22.5055  -29.8796   21.5798 C   0  0  0  0  0  0  0  0  0  0  0  0
  -28.2157  -26.9079   20.8874 C   0  0  0  0  0  0  0  0  0  0  0  0
  -29.9925  -26.2197   21.9848 C   0  0  0  0  0  0  0  0  0  0  0  0
  -28.9601  -12.6911   19.4078 C   0  0  0  0  0  0  0  0  0  0  0  0
  -28.4960  -27.7189   23.3120 C   0  0  0  0  0  0  0  0  0  0  0  0
  -29.8145  -13.1743   20.3274 C   0  0  0  0  0  0  0  0  0  0  0  0
  -30.3861  -14.5405   20.0950 C   0  0  0  0  0  0  0  0  0  0  0  0
  -22.3599  -17.4919   19.6418 C   0  0  0  0  0  0  0  0  0  0  0  0
  -21.9995  -17.7581   22.8545 C   0  0  0  0  0  0  0  0  0  0  0  0
  -22.6541  -16.4976   25.9576 C   0  0  0  0  0  0  0  0  0  0  0  0
  -31.3190  -21.5882   18.4500 C   0  0  0  0  0  0  0  0  0  0  0  0
  -20.0708  -21.0723   16.8136 C   0  0  0  0  0  0  0  0  0  0  0  0
  -21.5286  -15.1901   20.2474 C   0  0  0  0  0  0  0  0  0  0  0  0
  -23.7013  -16.0806   22.0450 C   0  0  0  0  0  0  0  0  0  0  0  0
  -20.7308  -21.0243   18.1893 C   0  0  0  0  0  0  0  0  0  0  0  0
  -33.0743  -24.6789   18.6588 C   0  0  0  0  0  0  0  0  0  0  0  0
  -22.0945  -20.3460   18.1038 C   0  0  0  0  0  0  0  0  0  0  0  0
  -32.0894  -25.6077   19.3726 C   0  0  0  0  0  0  0  0  0  0  0  0
  -32.3613  -23.7186   17.7084 C   0  0  0  0  0  0  0  0  0  0  0  0
  -30.2855  -23.8719   19.0263 C   0  0  0  0  0  0  0  0  0  0  0  0
  -21.9599  -18.8950   17.6263 C   0  0  1  0  0  0  0  0  0  0  0  0
  -21.6701  -16.6475   20.6756 C   0  0  1  0  0  0  0  0  0  0  0  0
  -30.9510  -24.8139   20.0429 C   0  0  2  0  0  0  0  0  0  0  0  0
  -27.1305  -17.2742   19.9611 C   0  0  0  0  0  0  0  0  0  0  0  0
  -27.5753  -20.0947   19.5283 C   0  0  0  0  0  0  0  0  0  0  0  0
  -30.2973  -12.4829   21.5638 C   0  0  0  0  0  0  0  0  0  0  0  0
  -22.2590  -16.9551   28.3932 C   0  0  0  0  0  0  0  0  0  0  0  0
  -24.1250  -19.9461   22.7858 C   0  0  0  0  0  0  0  0  0  0  0  0
  -24.3688  -19.6903   25.2644 C   0  0  0  0  0  0  0  0  0  0  0  0
  -22.1887  -20.4198   24.2960 C   0  0  0  0  0  0  0  0  0  0  0  0
  -21.1803  -13.9562   26.3150 C   0  0  0  0  0  0  0  0  0  0  0  0
  -28.2678  -11.3554   19.4301 C   0  0  0  0  0  0  0  0  0  0  0  0
  -26.7519  -11.5096   19.4313 C   0  0  0  0  0  0  0  0  0  1  0  0
  -22.9274  -18.0181   24.0165 C   0  0  1  0  0  0  0  0  0  0  0  0
  -21.7519  -16.2395   27.1509 C   0  0  2  0  0  0  0  0  0  0  0  0
  -23.4062  -19.4963   24.0734 C   0  0  0  0  0  0  0  0  0  0  0  0
  -28.8685  -26.1344   20.0158 N   0  0  0  0  0  0  0  0  0  0  0  0
  -29.9446  -25.7309   20.7124 N   0  0  0  0  0  0  0  0  0  0  0  0
  -22.4225  -16.7997   21.9226 N   0  0  0  0  0  0  0  0  0  0  0  0
  -31.2989  -22.9986   18.4138 N   0  0  0  0  0  0  0  0  0  0  0  0
  -31.0061  -25.9131   22.8221 N   0  0  0  0  0  0  0  0  0  0  0  0
  -27.3115  -28.4678   23.2906 N   0  0  0  0  0  0  0  0  0  0  0  0
  -29.4106  -15.5242   20.0190 N   0  0  0  0  0  0  0  0  0  0  0  0
  -30.2762  -21.0152   19.1772 N   0  0  0  0  0  0  0  0  0  0  0  0
  -21.5062  -18.0471   18.7078 N   0  0  0  0  0  0  0  0  0  0  0  0
  -22.2194  -17.5729   25.2119 N   0  0  0  0  0  0  0  0  0  0  0  0
  -21.6853  -14.7797   27.4436 N   0  3  0  0  0  0  0  0  0  0  0  0
  -29.2002  -27.7134   24.3500 O   0  0  0  0  0  0  0  0  0  0  0  0
  -31.6041  -14.6766   20.0459 O   0  0  0  0  0  0  0  0  0  0  0  0
  -23.5766  -17.6307   19.6889 O   0  0  0  0  0  0  0  0  0  0  0  0
  -20.9351  -18.3772   22.7803 O   0  0  0  0  0  0  0  0  0  0  0  0
  -23.6474  -15.8162   25.7138 O   0  0  0  0  0  0  0  0  0  0  0  0
  -32.2119  -20.9376   17.9009 O   0  0  0  0  0  0  0  0  0  0  0  0
  -23.4175  -29.3700   19.4101 O   0  0  0  0  0  0  0  0  0  0  0  0
  -26.3440  -12.2266   20.5957 O   0  0  0  0  0  0  0  0  0  1  0  0
  -19.2250  -29.1750   22.9862 F   0  0  0  0  0  0  0  0  0  0  0  0
  -23.6562  -30.4665   21.9366 F   0  0  0  0  0  0  0  0  0  0  0  0
  1  2  1  0  0  0  0
  1  5  2  0  0  0  0
  2  6  2  0  0  0  0
  3 10  2  0  0  0  0
  3 17  1  0  0  0  0
  4 11  1  0  0  0  0
  4 17  2  0  0  0  0
  5 19  1  0  0  0  0
  6 21  1  0  0  0  0
  7 12  2  0  0  0  0
  7 20  1  0  0  0  0
  8  9  2  0  0  0  0
  8 25  1  0  0  0  0
  9 26  1  0  0  0  0
 10 27  1  0  0  0  0
 11 27  2  0  0  0  0
 12 28  1  0  0  0  0
 13 14  2  0  0  0  0
 13 29  1  0  0  0  0
 14 30  1  0  0  0  0
 15 22  1  0  0  0  0
 15 28  2  0  0  0  0
 16 30  2  0  0  0  0
 16 31  1  0  0  0  0
 17 32  1  0  0  0  0
 18 32  1  0  0  0  0
 18 33  2  0  0  0  0
 18 35  1  0  0  0  0
 19 21  2  0  0  0  0
 19 42  1  0  0  0  0
 20 22  2  0  0  0  0
 20 43  1  0  0  0  0
 21 51  1  0  0  0  0
 22 44  1  0  0  0  0
 23 24  1  0  0  0  0
 23 25  2  0  0  0  0
 23 54  1  0  0  0  0
 24 26  2  0  0  0  0
 24 55  1  0  0  0  0
 25 73  1  0  0  0  0
 26 74  1  0  0  0  0
 27 84  1  0  0  0  0
 28 85  1  0  0  0  0
 29 31  2  0  0  0  0
 29 84  1  0  0  0  0
 30 86  1  0  0  0  0
 31 87  1  0  0  0  0
 32 67  2  0  0  0  0
 33 68  1  0  0  0  0
 33 71  1  0  0  0  0
 34 36  2  0  0  0  0
 34 62  1  0  0  0  0
 35 72  1  0  0  0  0
 35 78  2  0  0  0  0
 36 37  1  0  0  0  0
 36 56  1  0  0  0  0
 37 73  1  0  0  0  0
 37 79  2  0  0  0  0
 38 52  1  0  0  0  0
 38 75  1  0  0  0  0
 38 80  2  0  0  0  0
 39 64  1  0  0  0  0
 39 69  1  0  0  0  0
 39 81  2  0  0  0  0
 40 65  1  0  0  0  0
 40 76  1  0  0  0  0
 40 82  2  0  0  0  0
 41 70  1  0  0  0  0
 41 74  1  0  0  0  0
 41 83  2  0  0  0  0
 42 45  1  0  0  0  0
 43 52  1  0  0  0  0
 44 69  1  0  0  0  0
 45 47  1  0  0  0  0
 46 48  1  0  0  0  0
 46 49  1  0  0  0  0
 47 51  1  0  0  0  0
 48 53  1  0  0  0  0
 49 70  1  0  0  0  0
 50 53  1  0  0  0  0
 50 70  1  0  0  0  0
 51 75  1  0  0  0  0
 52 69  1  0  0  0  0
 53 68  1  0  0  0  0
 57 65  1  0  0  0  0
 58 66  1  0  0  0  0
 59 66  1  0  0  0  0
 60 66  1  0  0  0  0
 61 77  1  0  0  0  0
 62 63  1  0  0  0  0
 63 85  1  0  0  0  0
 64 66  1  0  0  0  0
 64 76  1  0  0  0  0
 65 77  1  0  0  0  0
 67 68  1  0  0  0  0
M  CHG  1  77   1
M  ISO  4  41 100  63 101  74 100  85 101
M  END
> <Batch ID>
0169

> <Smiles>
CNC(C)C(=O)NC(C(=O)N1Cc2cc([101O:1][101CH2:1]CC=C(C)C(=O)Nc3ccc([100NH:0][100C:0](=O)N4CCCC(n5nc(-c6ccc(Oc7ccc(F)cc7F)cc6)c(C(N)=O)c5N)C4)c(C)c3C)ccc2CC1C(=O)NC1CCCc2ccccc21)C(C)(C)C

> <Shape>
0.218

> <Color>
0.058

> <Negative vol penalty>
0.000

$$$$

  -OEChem-04052304173D

 88 96  0     1  0  0  0  0  0999 V2000
  -26.4583  -21.1942   14.9304 C   0  0  0  0  0  0  0  0  0  0  0  0
  -27.1956  -20.4106   15.8124 C   0  0  0  0  0  0  0  0  0  0  0  0
  -22.2538  -28.1144   20.9575 C   0  0  0  0  0  0  0  0  0  0  0  0
  -23.6617  -27.8835   22.9072 C   0  0  0  0  0  0  0  0  0  0  0  0
  -25.1172  -21.4671   15.1962 C   0  0  0  0  0  0  0  0  0  0  0  0
  -26.5923  -19.9004   16.9614 C   0  0  0  0  0  0  0  0  0  0  0  0
  -27.7315  -15.0303   17.7548 C   0  0  0  0  0  0  0  0  0  0  0  0
  -21.1223  -27.9362   21.7534 C   0  0  0  0  0  0  0  0  0  0  0  0
  -22.5301  -27.7054   23.7032 C   0  0  0  0  0  0  0  0  0  0  0  0
  -28.9849  -14.7498   18.2970 C   0  0  0  0  0  0  0  0  0  0  0  0
  -19.2537  -29.7887   23.8770 C   0  0  0  0  0  0  0  0  0  0  0  0
  -18.1774  -30.6528   23.6763 C   0  0  0  0  0  0  0  0  0  0  0  0
  -27.9776  -14.4855   20.4730 C   0  0  0  0  0  0  0  0  0  0  0  0
  -31.0837  -22.3557   20.8719 C   0  0  0  0  0  0  0  0  0  0  0  0
  -30.8358  -24.0688   22.5574 C   0  0  0  0  0  0  0  0  0  0  0  0
  -16.7676  -28.7692   23.1272 C   0  0  0  0  0  0  0  0  0  0  0  0
  -23.5235  -28.0880   21.5344 C   0  0  0  0  0  0  0  0  0  0  0  0
  -25.3284  -29.4874   20.3979 C   0  0  0  0  0  0  0  0  0  0  0  0
  -24.4945  -20.9520   16.3441 C   0  0  0  0  0  0  0  0  0  0  0  0
  -26.5913  -15.0513   18.5709 C   0  0  0  0  0  0  0  0  0  0  0  0
  -25.2419  -20.1678   17.2435 C   0  0  0  0  0  0  0  0  0  0  0  0
  -26.7105  -14.7641   19.9382 C   0  0  0  0  0  0  0  0  0  0  0  0
  -31.8042  -21.5727   21.7737 C   0  0  0  0  0  0  0  0  0  0  0  0
  -30.5995  -23.6038   21.2637 C   0  0  0  0  0  0  0  0  0  0  0  0
  -21.2604  -27.7318   23.1262 C   0  0  0  0  0  0  0  0  0  0  0  0
  -29.1085  -14.4801   19.6569 C   0  0  0  0  0  0  0  0  0  0  0  0
  -19.0871  -28.4148   23.7028 C   0  0  0  0  0  0  0  0  0  0  0  0
  -16.9343  -30.1431   23.3014 C   0  0  0  0  0  0  0  0  0  0  0  0
  -31.5562  -23.2858   23.4592 C   0  0  0  0  0  0  0  0  0  0  0  0
  -17.8440  -27.9050   23.3279 C   0  0  0  0  0  0  0  0  0  0  0  0
  -32.0405  -22.0377   23.0674 C   0  0  0  0  0  0  0  0  0  0  0  0
  -24.6928  -28.2714   20.7127 C   0  0  0  0  0  0  0  0  0  0  0  0
  -26.3826  -29.1261   19.5950 C   0  0  0  0  0  0  0  0  0  0  0  0
  -24.9957  -30.8241   20.7958 C   0  0  0  0  0  0  0  0  0  0  0  0
  -24.4542  -17.2598   19.3827 C   0  0  0  0  0  0  0  0  0  0  0  0
  -22.9917  -14.7531   20.8317 C   0  0  0  0  0  0  0  0  0  0  0  0
  -31.4863  -17.0241   20.8182 C   0  0  0  0  0  0  0  0  0  0  0  0
  -23.2649  -11.6489   22.2231 C   0  0  0  0  0  0  0  0  0  0  0  0
  -29.5424  -24.0863   19.0285 C   0  0  0  0  0  0  0  0  0  0  0  0
  -23.0552  -21.3133   16.6132 C   0  0  0  0  0  0  0  0  0  0  0  0
  -25.2427  -15.3294   17.9657 C   0  0  0  0  0  0  0  0  0  0  0  0
  -25.5146  -14.7541   20.8536 C   0  0  0  0  0  0  0  0  0  0  0  0
  -22.3897  -20.4244   17.6608 C   0  0  0  0  0  0  0  0  0  0  0  0
  -27.7235  -25.7587   16.4650 C   0  0  0  0  0  0  0  0  0  0  0  0
  -23.2984  -20.2578   18.8746 C   0  0  0  0  0  0  0  0  0  0  0  0
  -26.8020  -26.7079   17.2345 C   0  0  0  0  0  0  0  0  0  0  0  0
  -27.9023  -24.4277   17.1931 C   0  0  0  0  0  0  0  0  0  0  0  0
  -27.4116  -25.4878   19.3621 C   0  0  0  0  0  0  0  0  0  0  0  0
  -24.6162  -19.5758   18.4878 C   0  0  1  0  0  0  0  0  0  0  0  0
  -24.2226  -15.8298   18.9838 C   0  0  1  0  0  0  0  0  0  0  0  0
  -27.2528  -26.8661   18.6999 C   0  0  2  0  0  0  0  0  0  0  0  0
  -33.8661  -20.1902   21.3783 C   0  0  0  0  0  0  0  0  0  0  0  0
  -21.9036   -9.8717   23.3571 C   0  0  0  0  0  0  0  0  0  0  0  0
  -32.3777  -13.7124   19.0458 C   0  0  0  0  0  0  0  0  0  0  0  0
  -22.9698  -16.4088   23.3946 C   0  0  0  0  0  0  0  0  0  0  0  0
  -22.4988  -14.3047   24.6672 C   0  0  0  0  0  0  0  0  0  0  0  0
  -20.8683  -15.1225   22.9656 C   0  0  0  0  0  0  0  0  0  0  0  0
  -23.8651   -9.6731   20.1030 C   0  0  0  0  0  0  0  0  0  0  0  0
  -32.1769  -15.6868   20.5941 C   0  0  0  0  0  0  0  0  0  0  0  0
  -31.6987  -19.0918   22.1921 C   0  0  0  0  0  0  0  0  0  0  0  0
  -32.3324  -20.2123   21.3432 C   0  0  1  0  0  0  0  0  0  0  0  0
  -23.0603  -14.1212   22.2010 C   0  0  1  0  0  0  0  0  0  0  0  0
  -22.4473  -10.3841   22.0325 C   0  0  2  0  0  0  0  0  0  0  0  0
  -31.4615  -14.8130   19.5642 C   0  0  2  0  0  0  0  0  0  1  0  0
  -22.3723  -14.9913   23.2905 C   0  0  0  0  0  0  0  0  0  0  0  0
  -25.2929  -27.2164   20.1550 N   0  0  0  0  0  0  0  0  0  0  0  0
  -26.3166  -27.7685   19.4817 N   0  0  0  0  0  0  0  0  0  0  0  0
  -24.2185  -15.0382   20.2157 N   0  0  0  0  0  0  0  0  0  0  0  0
  -28.3343  -24.6560   18.5737 N   0  0  0  0  0  0  0  0  0  0  0  0
  -27.3501  -29.8404   18.9818 N   0  0  0  0  0  0  0  0  0  0  0  0
  -23.8808  -31.0171   21.6228 N   0  0  0  0  0  0  0  0  0  0  0  0
  -29.8664  -24.3990   20.3483 N   0  0  0  0  0  0  0  0  0  0  0  0
  -24.4198  -18.1510   18.3272 N   0  0  0  0  0  0  0  0  0  0  0  0
  -32.1408  -17.7787   21.7815 N   0  0  0  0  0  0  0  0  0  0  0  0
  -22.4969  -12.7827   22.0615 N   0  0  0  0  0  0  0  0  0  0  0  0
  -23.2847   -9.3130   21.4223 N   0  3  0  0  0  0  0  0  0  0  0  0
  -25.6576  -31.8195   20.4155 O   0  0  0  0  0  0  0  0  0  0  0  0
  -24.6482  -17.5345   20.5610 O   0  0  0  0  0  0  0  0  0  0  0  0
  -21.8902  -14.9788   20.3243 O   0  0  0  0  0  0  0  0  0  0  0  0
  -30.4764  -17.3715   20.2123 O   0  0  0  0  0  0  0  0  0  0  0  0
  -24.4639  -11.6327   22.4924 O   0  0  0  0  0  0  0  0  0  0  0  0
  -30.2518  -23.3958   18.2924 O   0  0  0  0  0  0  0  0  0  0  0  0
  -20.1565  -27.5581   23.9032 O   0  0  0  0  0  0  0  0  0  0  0  0
  -30.3308  -14.2066   20.1888 O   0  0  0  0  0  0  0  0  0  1  0  0
  -15.9004  -30.9729   23.1101 F   0  0  0  0  0  0  0  0  0  0  0  0
  -31.7830  -23.7321   24.7015 F   0  0  0  0  0  0  0  0  0  0  0  0
  -17.6775  -26.5860   23.1601 F   0  0  0  0  0  0  0  0  0  0  0  0
  -32.7324  -21.2928   23.9408 F   0  0  0  0  0  0  0  0  0  0  0  0
  1  2  1  0  0  0  0
  1  5  2  0  0  0  0
  2  6  2  0  0  0  0
  3  8  2  0  0  0  0
  3 17  1  0  0  0  0
  4  9  1  0  0  0  0
  4 17  2  0  0  0  0
  5 19  1  0  0  0  0
  6 21  1  0  0  0  0
  7 10  2  0  0  0  0
  7 20  1  0  0  0  0
  8 25  1  0  0  0  0
  9 25  2  0  0  0  0
 10 26  1  0  0  0  0
 11 12  2  0  0  0  0
 11 27  1  0  0  0  0
 12 28  1  0  0  0  0
 13 22  1  0  0  0  0
 13 26  2  0  0  0  0
 14 23  1  0  0  0  0
 14 24  2  0  0  0  0
 15 24  1  0  0  0  0
 15 29  2  0  0  0  0
 16 28  2  0  0  0  0
 16 30  1  0  0  0  0
 17 32  1  0  0  0  0
 18 32  1  0  0  0  0
 18 33  2  0  0  0  0
 18 34  1  0  0  0  0
 19 21  2  0  0  0  0
 19 40  1  0  0  0  0
 20 22  2  0  0  0  0
 20 41  1  0  0  0  0
 21 49  1  0  0  0  0
 22 42  1  0  0  0  0
 23 31  2  0  0  0  0
 23 61  1  0  0  0  0
 24 72  1  0  0  0  0
 25 83  1  0  0  0  0
 26 84  1  0  0  0  0
 27 30  2  0  0  0  0
 27 83  1  0  0  0  0
 28 85  1  0  0  0  0
 29 31  1  0  0  0  0
 29 86  1  0  0  0  0
 30 87  1  0  0  0  0
 31 88  1  0  0  0  0
 32 66  2  0  0  0  0
 33 67  1  0  0  0  0
 33 70  1  0  0  0  0
 34 71  1  0  0  0  0
 34 77  2  0  0  0  0
 35 50  1  0  0  0  0
 35 73  1  0  0  0  0
 35 78  2  0  0  0  0
 36 62  1  0  0  0  0
 36 68  1  0  0  0  0
 36 79  2  0  0  0  0
 37 59  1  0  0  0  0
 37 74  1  0  0  0  0
 37 80  2  0  0  0  0
 38 63  1  0  0  0  0
 38 75  1  0  0  0  0
 38 81  2  0  0  0  0
 39 69  1  0  0  0  0
 39 72  1  0  0  0  0
 39 82  2  0  0  0  0
 40 43  1  0  0  0  0
 41 50  1  0  0  0  0
 42 68  1  0  0  0  0
 43 45  1  0  0  0  0
 44 46  1  0  0  0  0
 44 47  1  0  0  0  0
 45 49  1  0  0  0  0
 46 51  1  0  0  0  0
 47 69  1  0  0  0  0
 48 51  1  0  0  0  0
 48 69  1  0  0  0  0
 49 73  1  0  0  0  0
 50 68  1  0  0  0  0
 51 67  1  0  0  0  0
 52 61  1  0  0  0  0
 53 63  1  0  0  0  0
 54 64  1  0  0  0  0
 55 65  1  0  0  0  0
 56 65  1  0  0  0  0
 57 65  1  0  0  0  0
 58 76  1  0  0  0  0
 59 64  1  0  0  0  0
 60 61  1  0  0  0  0
 60 74  1  0  0  0  0
 62 65  1  0  0  0  0
 62 75  1  0  0  0  0
 63 76  1  0  0  0  0
 64 84  1  0  0  0  0
 66 67  1  0  0  0  0
M  CHG  1  76   1
M  ISO  4  39 100  64 101  72 100  84 101
M  END
> <Batch ID>
0169

> <Smiles>
CNC(C)C(=O)NC(C(=O)N1Cc2cc([101O:1][101CH:1](C)CC(=O)NCC(C)c3cc([100NH:0][100C:0](=O)N4CCCC(n5nc(-c6ccc(Oc7ccc(F)cc7F)cc6)c(C(N)=O)c5N)C4)cc(F)c3F)ccc2CC1C(=O)NC1CCCc2ccccc21)C(C)(C)C

> <Shape>
0.237

> <Color>
0.081

> <Negative vol penalty>
0.000

$$$$

  -OEChem-04052304173D

 90 98  0     1  0  0  0  0  0999 V2000
  -22.5626  -19.1374   35.5472 C   0  0  0  0  0  0  0  0  0  0  0  0
  -23.1042  -19.8705   34.4961 C   0  0  0  0  0  0  0  0  0  0  0  0
  -23.0004   -9.8942   19.9809 C   0  0  0  0  0  0  0  0  0  0  0  0
  -23.7256   -9.9448   22.2849 C   0  0  0  0  0  0  0  0  0  0  0  0
  -22.2492  -17.7907   35.3676 C   0  0  0  0  0  0  0  0  0  0  0  0
  -23.3338  -19.2569   33.2652 C   0  0  0  0  0  0  0  0  0  0  0  0
  -22.8177  -21.8138   27.7242 C   0  0  0  0  0  0  0  0  0  0  0  0
  -22.2337   -8.7598   20.2471 C   0  0  0  0  0  0  0  0  0  0  0  0
  -22.9589   -8.8104   22.5512 C   0  0  0  0  0  0  0  0  0  0  0  0
  -23.7586  -22.3573   26.8506 C   0  0  0  0  0  0  0  0  0  0  0  0
  -23.2026   -5.4715   22.0788 C   0  0  0  0  0  0  0  0  0  0  0  0
  -23.7900   -4.4541   22.8308 C   0  0  0  0  0  0  0  0  0  0  0  0
  -23.8678  -20.2561   25.6707 C   0  0  0  0  0  0  0  0  0  0  0  0
  -29.8800  -17.4478   23.0991 C   0  0  0  0  0  0  0  0  0  0  0  0
  -32.0584  -16.5500   22.5650 C   0  0  0  0  0  0  0  0  0  0  0  0
  -22.0662   -4.6971   24.5060 C   0  0  0  0  0  0  0  0  0  0  0  0
  -23.7464  -10.4867   20.9998 C   0  0  0  0  0  0  0  0  0  0  0  0
  -24.1322  -13.0023   20.8241 C   0  0  0  0  0  0  0  0  0  0  0  0
  -22.4661  -17.1629   34.1309 C   0  0  0  0  0  0  0  0  0  0  0  0
  -22.4022  -20.4818   27.5840 C   0  0  0  0  0  0  0  0  0  0  0  0
  -23.0243  -17.9003   33.0693 C   0  0  0  0  0  0  0  0  0  0  0  0
  -22.9196  -19.6989   26.5422 C   0  0  0  0  0  0  0  0  0  0  0  0
  -31.8516  -18.3436   24.1703 C   0  0  0  0  0  0  0  0  0  0  0  0
  -30.6751  -16.5507   22.3860 C   0  0  0  0  0  0  0  0  0  0  0  0
  -30.4683  -18.3443   23.9913 C   0  0  0  0  0  0  0  0  0  0  0  0
  -22.2129   -8.2179   21.5322 C   0  0  0  0  0  0  0  0  0  0  0  0
  -24.2860  -21.5775   25.8255 C   0  0  0  0  0  0  0  0  0  0  0  0
  -22.0470   -6.1018   22.5405 C   0  0  0  0  0  0  0  0  0  0  0  0
  -23.2218   -4.0669   24.0444 C   0  0  0  0  0  0  0  0  0  0  0  0
  -32.6467  -17.4465   23.4572 C   0  0  0  0  0  0  0  0  0  0  0  0
  -21.4788   -5.7145   23.7541 C   0  0  0  0  0  0  0  0  0  0  0  0
  -24.5391  -11.6582   20.7253 C   0  0  0  0  0  0  0  0  0  0  0  0
  -25.2420  -13.7247   20.4598 C   0  0  0  0  0  0  0  0  0  0  0  0
  -22.8643  -13.5488   21.2107 C   0  0  0  0  0  0  0  0  0  0  0  0
  -27.7394  -20.4252   25.5353 C   0  0  0  0  0  0  0  0  0  0  0  0
  -28.2732  -19.3517   24.6312 C   0  0  0  0  0  0  0  0  0  0  0  0
  -22.5570  -17.8804   29.4040 C   0  0  0  0  0  0  0  0  0  0  0  0
  -20.7417  -16.5950   27.0430 C   0  0  0  0  0  0  0  0  0  0  0  0
  -19.7537  -16.6771   23.7774 C   0  0  0  0  0  0  0  0  0  0  0  0
  -30.7217  -14.6849   20.6939 C   0  0  0  0  0  0  0  0  0  0  0  0
  -22.1556  -15.6929   33.9987 C   0  0  0  0  0  0  0  0  0  0  0  0
  -21.3666  -19.9186   28.5182 C   0  0  0  0  0  0  0  0  0  0  0  0
  -22.4914  -18.2696   26.3364 C   0  0  0  0  0  0  0  0  0  0  0  0
  -22.0810  -15.2139   32.5512 C   0  0  0  0  0  0  0  0  0  0  0  0
  -29.6030  -12.2325   18.3677 C   0  0  0  0  0  0  0  0  0  0  0  0
  -23.2672  -15.7437   31.7518 C   0  0  0  0  0  0  0  0  0  0  0  0
  -28.1524  -11.9750   18.7818 C   0  0  0  0  0  0  0  0  0  0  0  0
  -30.5036  -12.4756   19.5775 C   0  0  0  0  0  0  0  0  0  0  0  0
  -28.5883  -13.2646   20.9111 C   0  0  0  0  0  0  0  0  0  0  0  0
  -23.2650  -17.2766   31.7116 C   0  0  1  0  0  0  0  0  0  0  0  0
  -21.3986  -18.3954   28.5974 C   0  0  1  0  0  0  0  0  0  0  0  0
  -27.6306  -13.0785   19.7229 C   0  0  2  0  0  0  0  0  0  0  0  0
  -18.2899  -15.4750   22.1313 C   0  0  0  0  0  0  0  0  0  0  0  0
  -26.5467  -24.0710   25.2540 C   0  0  0  0  0  0  0  0  0  0  0  0
  -22.8058  -14.3566   26.8459 C   0  0  0  0  0  0  0  0  0  0  0  0
  -21.8285  -13.7457   24.6233 C   0  0  0  0  0  0  0  0  0  0  0  0
  -20.4277  -13.6000   26.6822 C   0  0  0  0  0  0  0  0  0  0  0  0
  -18.0985  -19.0863   23.3136 C   0  0  0  0  0  0  0  0  0  0  0  0
  -27.5860  -21.8024   24.9260 C   0  0  0  0  0  0  0  0  0  0  0  0
  -21.0266  -15.8720   25.7487 C   0  0  1  0  0  0  0  0  0  0  0  0
  -18.3779  -16.6104   23.1393 C   0  0  2  0  0  0  0  0  0  0  0  0
  -26.4236  -22.5807   25.5422 C   0  0  2  0  0  0  0  0  0  1  0  0
  -32.5055  -19.2932   25.1212 C   0  0  0  0  0  0  0  0  0  0  0  0
  -21.5319  -14.4199   25.9798 C   0  0  0  0  0  0  0  0  0  0  0  0
  -25.8084  -11.5316   20.3291 N   0  0  0  0  0  0  0  0  0  0  0  0
  -26.2085  -12.8053   20.1757 N   0  0  0  0  0  0  0  0  0  0  0  0
  -21.4811  -17.7625   27.2795 N   0  0  0  0  0  0  0  0  0  0  0  0
  -29.9487  -13.5365   20.4209 N   0  0  0  0  0  0  0  0  0  0  0  0
  -25.4757  -15.0504   20.3579 N   0  0  0  0  0  0  0  0  0  0  0  0
  -21.8323  -12.6648   21.5541 N   0  0  0  0  0  0  0  0  0  0  0  0
  -29.6454  -19.2464   24.7050 N   0  0  0  0  0  0  0  0  0  0  0  0
  -30.0775  -15.6401   21.4796 N   0  0  0  0  0  0  0  0  0  0  0  0
  -22.2911  -17.7557   30.7543 N   0  0  0  0  0  0  0  0  0  0  0  0
  -19.8061  -15.9607   24.9544 N   0  0  0  0  0  0  0  0  0  0  0  0
  -18.0705  -17.8879   22.4361 N   0  3  0  0  0  0  0  0  0  0  0  0
  -22.6478  -14.7842   21.2346 O   0  0  0  0  0  0  0  0  0  0  0  0
  -27.4650  -20.1053   26.6820 O   0  0  0  0  0  0  0  0  0  0  0  0
  -27.4505  -18.7179   23.9913 O   0  0  0  0  0  0  0  0  0  0  0  0
  -23.6133  -17.6144   28.8427 O   0  0  0  0  0  0  0  0  0  0  0  0
  -19.8892  -16.1444   27.8124 O   0  0  0  0  0  0  0  0  0  0  0  0
  -20.6894  -17.2993   23.2795 O   0  0  0  0  0  0  0  0  0  0  0  0
  -31.8603  -14.8237   20.2399 O   0  0  0  0  0  0  0  0  0  0  0  0
  -21.4647   -7.1111   21.7924 O   0  0  0  0  0  0  0  0  0  0  0  0
  -25.2050  -22.1053   24.9718 O   0  0  0  0  0  0  0  0  0  1  0  0
  -23.7851   -3.0888   24.7657 F   0  0  0  0  0  0  0  0  0  0  0  0
  -33.9768  -17.4366   23.6231 F   0  0  0  0  0  0  0  0  0  0  0  0
  -20.3680   -6.3155   24.2021 F   0  0  0  0  0  0  0  0  0  0  0  0
  -31.6247  -20.1179   25.7590 F   0  0  0  0  0  0  0  0  0  0  0  0
  -33.2011  -18.6721   26.1176 F   0  0  0  0  0  0  0  0  0  0  0  0
  -33.4007  -20.1164   24.5042 F   0  0  0  0  0  0  0  0  0  0  0  0
  1  2  1  0  0  0  0
  1  5  2  0  0  0  0
  2  6  2  0  0  0  0
  3  8  2  0  0  0  0
  3 17  1  0  0  0  0
  4  9  1  0  0  0  0
  4 17  2  0  0  0  0
  5 19  1  0  0  0  0
  6 21  1  0  0  0  0
  7 10  2  0  0  0  0
  7 20  1  0  0  0  0
  8 26  1  0  0  0  0
  9 26  2  0  0  0  0
 10 27  1  0  0  0  0
 11 12  2  0  0  0  0
 11 28  1  0  0  0  0
 12 29  1  0  0  0  0
 13 22  1  0  0  0  0
 13 27  2  0  0  0  0
 14 24  2  0  0  0  0
 14 25  1  0  0  0  0
 15 24  1  0  0  0  0
 15 30  2  0  0  0  0
 16 29  2  0  0  0  0
 16 31  1  0  0  0  0
 17 32  1  0  0  0  0
 18 32  1  0  0  0  0
 18 33  2  0  0  0  0
 18 34  1  0  0  0  0
 19 21  2  0  0  0  0
 19 41  1  0  0  0  0
 20 22  2  0  0  0  0
 20 42  1  0  0  0  0
 21 50  1  0  0  0  0
 22 43  1  0  0  0  0
 23 25  2  0  0  0  0
 23 30  1  0  0  0  0
 23 63  1  0  0  0  0
 24 72  1  0  0  0  0
 25 71  1  0  0  0  0
 26 83  1  0  0  0  0
 27 84  1  0  0  0  0
 28 31  2  0  0  0  0
 28 83  1  0  0  0  0
 29 85  1  0  0  0  0
 30 86  1  0  0  0  0
 31 87  1  0  0  0  0
 32 65  2  0  0  0  0
 33 66  1  0  0  0  0
 33 69  1  0  0  0  0
 34 70  1  0  0  0  0
 34 76  2  0  0  0  0
 35 36  1  0  0  0  0
 35 59  1  0  0  0  0
 35 77  2  0  0  0  0
 36 71  1  0  0  0  0
 36 78  2  0  0  0  0
 37 51  1  0  0  0  0
 37 73  1  0  0  0  0
 37 79  2  0  0  0  0
 38 60  1  0  0  0  0
 38 67  1  0  0  0  0
 38 80  2  0  0  0  0
 39 61  1  0  0  0  0
 39 74  1  0  0  0  0
 39 81  2  0  0  0  0
 40 68  1  0  0  0  0
 40 72  1  0  0  0  0
 40 82  2  0  0  0  0
 41 44  1  0  0  0  0
 42 51  1  0  0  0  0
 43 67  1  0  0  0  0
 44 46  1  0  0  0  0
 45 47  1  0  0  0  0
 45 48  1  0  0  0  0
 46 50  1  0  0  0  0
 47 52  1  0  0  0  0
 48 68  1  0  0  0  0
 49 52  1  0  0  0  0
 49 68  1  0  0  0  0
 50 73  1  0  0  0  0
 51 67  1  0  0  0  0
 52 66  1  0  0  0  0
 53 61  1  0  0  0  0
 54 62  1  0  0  0  0
 55 64  1  0  0  0  0
 56 64  1  0  0  0  0
 57 64  1  0  0  0  0
 58 75  1  0  0  0  0
 59 62  1  0  0  0  0
 60 64  1  0  0  0  0
 60 74  1  0  0  0  0
 61 75  1  0  0  0  0
 62 84  1  0  0  0  0
 63 88  1  0  0  0  0
 63 89  1  0  0  0  0
 63 90  1  0  0  0  0
 65 66  1  0  0  0  0
M  CHG  1  75   1
M  ISO  4  40 100  62 101  72 100  84 101
M  END
> <Batch ID>
0169

> <Smiles>
CNC(C)C(=O)NC(C(=O)N1Cc2cc([101O:1][101CH:1](C)CC(=O)C(=O)Nc3cc([100NH:0][100C:0](=O)N4CCCC(n5nc(-c6ccc(Oc7ccc(F)cc7F)cc6)c(C(N)=O)c5N)C4)cc(F)c3C(F)(F)F)ccc2CC1C(=O)NC1CCCc2ccccc21)C(C)(C)C

> <Shape>
0.168

> <Color>
0.193

> <Negative vol penalty>
0.000

$$$$

  -OEChem-04052304173D

 85 93  0     1  0  0  0  0  0999 V2000
  -28.0848  -16.2464   16.7043 C   0  0  0  0  0  0  0  0  0  0  0  0
  -28.1875  -16.9365   17.9078 C   0  0  0  0  0  0  0  0  0  0  0  0
  -23.2535  -10.1327   22.1648 C   0  0  0  0  0  0  0  0  0  0  0  0
  -23.5065   -9.5577   19.8319 C   0  0  0  0  0  0  0  0  0  0  0  0
  -29.0506  -16.4252   15.7148 C   0  0  0  0  0  0  0  0  0  0  0  0
  -29.2569  -17.8052   18.1230 C   0  0  0  0  0  0  0  0  0  0  0  0
  -27.8059  -22.2014   20.1757 C   0  0  0  0  0  0  0  0  0  0  0  0
  -22.4930   -8.9810   22.3663 C   0  0  0  0  0  0  0  0  0  0  0  0
  -22.7460   -8.4059   20.0334 C   0  0  0  0  0  0  0  0  0  0  0  0
  -27.5355  -22.2069   21.5434 C   0  0  0  0  0  0  0  0  0  0  0  0
  -23.0467   -5.6709   22.7782 C   0  0  0  0  0  0  0  0  0  0  0  0
  -23.3297   -4.8957   23.9027 C   0  0  0  0  0  0  0  0  0  0  0  0
  -29.9501  -17.2206   23.3376 C   0  0  0  0  0  0  0  0  0  0  0  0
  -29.7139  -23.1540   21.9641 C   0  0  0  0  0  0  0  0  0  0  0  0
  -32.1125  -16.3673   22.6796 C   0  0  0  0  0  0  0  0  0  0  0  0
  -21.0731   -5.2281   24.6995 C   0  0  0  0  0  0  0  0  0  0  0  0
  -23.7602  -10.4212   20.8976 C   0  0  0  0  0  0  0  0  0  0  0  0
  -30.5630  -18.0494   24.2772 C   0  0  0  0  0  0  0  0  0  0  0  0
  -24.1415  -12.9435   20.8970 C   0  0  0  0  0  0  0  0  0  0  0  0
  -30.1271  -17.3039   15.9142 C   0  0  0  0  0  0  0  0  0  0  0  0
  -29.0386  -22.6627   19.6920 C   0  0  0  0  0  0  0  0  0  0  0  0
  -30.2387  -17.9950   17.1358 C   0  0  0  0  0  0  0  0  0  0  0  0
  -29.9964  -23.1556   20.5896 C   0  0  0  0  0  0  0  0  0  0  0  0
  -30.7248  -16.3794   22.5388 C   0  0  0  0  0  0  0  0  0  0  0  0
  -22.2393   -8.1175   21.3006 C   0  0  0  0  0  0  0  0  0  0  0  0
  -28.4907  -22.6806   22.4381 C   0  0  0  0  0  0  0  0  0  0  0  0
  -21.7770   -6.2247   22.6142 C   0  0  0  0  0  0  0  0  0  0  0  0
  -22.3429   -4.6743   24.8634 C   0  0  0  0  0  0  0  0  0  0  0  0
  -32.7255  -17.1961   23.6193 C   0  0  0  0  0  0  0  0  0  0  0  0
  -20.7902   -6.0032   23.5749 C   0  0  0  0  0  0  0  0  0  0  0  0
  -31.9507  -18.0372   24.4180 C   0  0  0  0  0  0  0  0  0  0  0  0
  -24.5454  -11.6111   20.6888 C   0  0  0  0  0  0  0  0  0  0  0  0
  -25.2413  -13.6928   20.5571 C   0  0  0  0  0  0  0  0  0  0  0  0
  -29.7407  -18.9389   25.1217 C   0  0  0  0  0  0  0  0  0  0  0  0
  -22.8846  -13.4579   21.3567 C   0  0  0  0  0  0  0  0  0  0  0  0
  -31.4486  -21.3550   18.0841 C   0  0  0  0  0  0  0  0  0  0  0  0
  -32.5603  -24.4021   18.0398 C   0  0  0  0  0  0  0  0  0  0  0  0
  -32.5771  -27.5010   19.4693 C   0  0  0  0  0  0  0  0  0  0  0  0
  -30.7254  -14.6431   20.7135 C   0  0  0  0  0  0  0  0  0  0  0  0
  -31.1721  -17.4286   14.8338 C   0  0  0  0  0  0  0  0  0  0  0  0
  -29.3044  -22.6749   18.2116 C   0  0  0  0  0  0  0  0  0  0  0  0
  -31.3275  -23.6807   20.1195 C   0  0  0  0  0  0  0  0  0  0  0  0
  -32.0712  -18.6517   14.9944 C   0  0  0  0  0  0  0  0  0  0  0  0
  -29.5440  -12.3663   18.2443 C   0  0  0  0  0  0  0  0  0  0  0  0
  -32.5513  -18.7757   16.4370 C   0  0  0  0  0  0  0  0  0  0  0  0
  -28.1050  -12.0765   18.6772 C   0  0  0  0  0  0  0  0  0  0  0  0
  -30.4769  -12.5215   19.4440 C   0  0  0  0  0  0  0  0  0  0  0  0
  -28.5984  -13.2069   20.8831 C   0  0  0  0  0  0  0  0  0  0  0  0
  -31.3706  -18.9649   17.3970 C   0  0  1  0  0  0  0  0  0  0  0  0
  -30.7916  -22.6895   17.8717 C   0  0  1  0  0  0  0  0  0  0  0  0
  -27.6090  -13.1069   19.7106 C   0  0  2  0  0  0  0  0  0  0  0  0
  -33.1065  -29.9395   19.7358 C   0  0  0  0  0  0  0  0  0  0  0  0
  -26.1207  -22.3224   24.8840 C   0  0  0  0  0  0  0  0  0  0  0  0
  -35.1661  -23.3358   19.2157 C   0  0  0  0  0  0  0  0  0  0  0  0
  -35.7696  -25.6867   19.8300 C   0  0  0  0  0  0  0  0  0  0  0  0
  -35.4568  -25.0666   17.4341 C   0  0  0  0  0  0  0  0  0  0  0  0
  -30.2092  -28.3069   17.8874 C   0  0  0  0  0  0  0  0  0  0  0  0
  -28.1208  -20.7979   25.2497 C   0  0  0  0  0  0  0  0  0  0  0  0
  -33.4367  -25.2337   18.9451 C   0  0  1  0  0  0  0  0  0  0  0  0
  -32.4312  -28.8878   18.8694 C   0  0  2  0  0  0  0  0  0  0  0  0
  -27.3535  -21.6747   24.2687 C   0  0  2  0  0  0  0  0  0  1  0  0
  -34.9331  -24.8191   18.8655 C   0  0  0  0  0  0  0  0  0  0  0  0
  -25.8035  -11.5162   20.2503 N   0  0  0  0  0  0  0  0  0  0  0  0
  -26.1996  -12.7985   20.1802 N   0  0  0  0  0  0  0  0  0  0  0  0
  -31.5427  -23.6661   18.6632 N   0  0  0  0  0  0  0  0  0  0  0  0
  -29.9451  -13.5165   20.3778 N   0  0  0  0  0  0  0  0  0  0  0  0
  -25.4724  -15.0228   20.5466 N   0  0  0  0  0  0  0  0  0  0  0  0
  -29.7997  -18.7807   26.4440 N   0  0  0  0  0  0  0  0  0  0  0  0
  -21.8981  -13.7579   20.4075 N   0  0  0  0  0  0  0  0  0  0  0  0
  -30.1029  -15.5368   21.5844 N   0  0  0  0  0  0  0  0  0  0  0  0
  -30.8908  -20.3293   17.3451 N   0  0  0  0  0  0  0  0  0  0  0  0
  -33.1829  -26.6263   18.5922 N   0  0  0  0  0  0  0  0  0  0  0  0
  -28.9757  -19.8574   24.5203 N   0  3  0  0  0  0  0  0  0  0  0  0
  -30.9906  -29.2447   18.7342 N   0  3  0  0  0  0  0  0  0  0  0  0
  -22.6494  -13.6614   22.5719 O   0  0  0  0  0  0  0  0  0  0  0  0
  -32.3929  -21.2631   18.8598 O   0  0  0  0  0  0  0  0  0  0  0  0
  -32.7664  -24.4110   16.8236 O   0  0  0  0  0  0  0  0  0  0  0  0
  -32.1956  -27.2225   20.6039 O   0  0  0  0  0  0  0  0  0  0  0  0
  -31.8514  -14.8170   20.2405 O   0  0  0  0  0  0  0  0  0  0  0  0
  -21.4975   -6.9934   21.4968 O   0  0  0  0  0  0  0  0  0  0  0  0
  -28.2296  -22.6866   23.7736 O   0  0  0  0  0  0  0  0  0  1  0  0
  -22.6143   -3.9286   25.9425 F   0  0  0  0  0  0  0  0  0  0  0  0
  -34.0578  -17.1846   23.7548 F   0  0  0  0  0  0  0  0  0  0  0  0
  -19.5682   -6.5317   23.4223 F   0  0  0  0  0  0  0  0  0  0  0  0
  -32.5490  -18.8297   25.3184 F   0  0  0  0  0  0  0  0  0  0  0  0
  1  2  1  0  0  0  0
  1  5  2  0  0  0  0
  2  6  2  0  0  0  0
  3  8  2  0  0  0  0
  3 17  1  0  0  0  0
  4  9  1  0  0  0  0
  4 17  2  0  0  0  0
  5 20  1  0  0  0  0
  6 22  1  0  0  0  0
  7 10  2  0  0  0  0
  7 21  1  0  0  0  0
  8 25  1  0  0  0  0
  9 25  2  0  0  0  0
 10 26  1  0  0  0  0
 11 12  2  0  0  0  0
 11 27  1  0  0  0  0
 12 28  1  0  0  0  0
 13 18  1  0  0  0  0
 13 24  2  0  0  0  0
 14 23  1  0  0  0  0
 14 26  2  0  0  0  0
 15 24  1  0  0  0  0
 15 29  2  0  0  0  0
 16 28  2  0  0  0  0
 16 30  1  0  0  0  0
 17 32  1  0  0  0  0
 18 31  2  0  0  0  0
 18 34  1  0  0  0  0
 19 32  1  0  0  0  0
 19 33  2  0  0  0  0
 19 35  1  0  0  0  0
 20 22  2  0  0  0  0
 20 40  1  0  0  0  0
 21 23  2  0  0  0  0
 21 41  1  0  0  0  0
 22 49  1  0  0  0  0
 23 42  1  0  0  0  0
 24 70  1  0  0  0  0
 25 80  1  0  0  0  0
 26 81  1  0  0  0  0
 27 30  2  0  0  0  0
 27 80  1  0  0  0  0
 28 82  1  0  0  0  0
 29 31  1  0  0  0  0
 29 83  1  0  0  0  0
 30 84  1  0  0  0  0
 31 85  1  0  0  0  0
 32 63  2  0  0  0  0
 33 64  1  0  0  0  0
 33 67  1  0  0  0  0
 34 68  1  0  0  0  0
 34 73  2  0  0  0  0
 35 69  1  0  0  0  0
 35 75  2  0  0  0  0
 36 50  1  0  0  0  0
 36 71  1  0  0  0  0
 36 76  2  0  0  0  0
 37 59  1  0  0  0  0
 37 65  1  0  0  0  0
 37 77  2  0  0  0  0
 38 60  1  0  0  0  0
 38 72  1  0  0  0  0
 38 78  2  0  0  0  0
 39 66  1  0  0  0  0
 39 70  1  0  0  0  0
 39 79  2  0  0  0  0
 40 43  1  0  0  0  0
 41 50  1  0  0  0  0
 42 65  1  0  0  0  0
 43 45  1  0  0  0  0
 44 46  1  0  0  0  0
 44 47  1  0  0  0  0
 45 49  1  0  0  0  0
 46 51  1  0  0  0  0
 47 66  1  0  0  0  0
 48 51  1  0  0  0  0
 48 66  1  0  0  0  0
 49 71  1  0  0  0  0
 50 65  1  0  0  0  0
 51 64  1  0  0  0  0
 52 60  1  0  0  0  0
 53 61  1  0  0  0  0
 54 62  1  0  0  0  0
 55 62  1  0  0  0  0
 56 62  1  0  0  0  0
 57 74  1  0  0  0  0
 58 61  1  0  0  0  0
 58 73  1  0  0  0  0
 59 62  1  0  0  0  0
 59 72  1  0  0  0  0
 60 74  1  0  0  0  0
 61 81  1  0  0  0  0
 63 64  1  0  0  0  0
M  CHG  2  73   1  74   1
M  ISO  4  39 100  61 101  70 100  81 101
M  END
> <Batch ID>
0169

> <Smiles>
CNC(C)C(=O)NC(C(=O)N1Cc2cc([101O:1][101CH:1](C)CNC(=N)c3cc([100NH:0][100C:0](=O)N4CCCC(n5nc(-c6ccc(Oc7ccc(F)cc7F)cc6)c(C(N)=O)c5N)C4)cc(F)c3F)ccc2CC1C(=O)NC1CCCc2ccccc21)C(C)(C)C

> <Shape>
0.235

> <Color>
0.173

> <Negative vol penalty>
0.000

$$$$

  -OEChem-04052304173D

 89 97  0     1  0  0  0  0  0999 V2000
  -21.5803  -31.2558   29.8023 C   0  0  0  0  0  0  0  0  0  0  0  0
  -22.5165  -30.3099   29.3971 C   0  0  0  0  0  0  0  0  0  0  0  0
  -32.2298  -18.9108   20.3404 C   0  0  0  0  0  0  0  0  0  0  0  0
  -23.3386   -9.9792   22.1668 C   0  0  0  0  0  0  0  0  0  0  0  0
  -24.0015  -11.4148   23.9934 C   0  0  0  0  0  0  0  0  0  0  0  0
  -31.3476  -19.9878   20.4249 C   0  0  0  0  0  0  0  0  0  0  0  0
  -20.6908  -31.7964   28.8747 C   0  0  0  0  0  0  0  0  0  0  0  0
  -22.5629  -29.9030   28.0642 C   0  0  0  0  0  0  0  0  0  0  0  0
  -27.5480  -28.3688   24.8548 C   0  0  0  0  0  0  0  0  0  0  0  0
  -31.7378  -17.6194   20.1507 C   0  0  0  0  0  0  0  0  0  0  0  0
  -22.6644   -9.1500   23.0631 C   0  0  0  0  0  0  0  0  0  0  0  0
  -23.3272  -10.5857   24.8898 C   0  0  0  0  0  0  0  0  0  0  0  0
  -28.1131  -27.1358   24.5321 C   0  0  0  0  0  0  0  0  0  0  0  0
  -19.7193   -9.1503   24.7243 C   0  0  0  0  0  0  0  0  0  0  0  0
  -18.4395   -8.7209   24.3731 C   0  0  0  0  0  0  0  0  0  0  0  0
  -26.9789  -27.1798   22.4035 C   0  0  0  0  0  0  0  0  0  0  0  0
  -19.1824   -6.4242   24.4739 C   0  0  0  0  0  0  0  0  0  0  0  0
  -24.0073  -11.1116   22.6319 C   0  0  0  0  0  0  0  0  0  0  0  0
  -29.9733  -19.7736   20.3199 C   0  0  0  0  0  0  0  0  0  0  0  0
  -24.1831  -13.0816   21.0208 C   0  0  0  0  0  0  0  0  0  0  0  0
  -20.7327  -31.4031   27.5278 C   0  0  0  0  0  0  0  0  0  0  0  0
  -26.6840  -29.0126   23.9573 C   0  0  0  0  0  0  0  0  0  0  0  0
  -21.6722  -30.4378   27.1179 C   0  0  0  0  0  0  0  0  0  0  0  0
  -26.4061  -28.4222   22.7162 C   0  0  0  0  0  0  0  0  0  0  0  0
  -30.3635  -17.4051   20.0456 C   0  0  0  0  0  0  0  0  0  0  0  0
  -22.6586   -9.4533   24.4246 C   0  0  0  0  0  0  0  0  0  0  0  0
  -27.8263  -26.5398   23.3075 C   0  0  0  0  0  0  0  0  0  0  0  0
  -20.7307   -8.2167   24.9502 C   0  0  0  0  0  0  0  0  0  0  0  0
  -18.1710   -7.3579   24.2480 C   0  0  0  0  0  0  0  0  0  0  0  0
  -20.4623   -6.8536   24.8251 C   0  0  0  0  0  0  0  0  0  0  0  0
  -29.4812  -18.4822   20.1302 C   0  0  0  0  0  0  0  0  0  0  0  0
  -24.7044  -11.9682   21.7065 C   0  0  0  0  0  0  0  0  0  0  0  0
  -25.2364  -13.5483   20.2729 C   0  0  0  0  0  0  0  0  0  0  0  0
  -29.0422  -20.9162   20.4091 C   0  0  0  0  0  0  0  0  0  0  0  0
  -22.8647  -13.6439   21.0568 C   0  0  0  0  0  0  0  0  0  0  0  0
  -23.6369  -29.9142   24.0327 C   0  0  0  0  0  0  0  0  0  0  0  0
  -27.9151  -23.0256   22.4271 C   0  0  0  0  0  0  0  0  0  0  0  0
  -24.3747  -31.2772   21.1831 C   0  0  0  0  0  0  0  0  0  0  0  0
  -26.3918  -31.3260   18.4307 C   0  0  0  0  0  0  0  0  0  0  0  0
  -30.6081  -14.9158   19.7459 C   0  0  0  0  0  0  0  0  0  0  0  0
  -19.7196  -31.9804   26.5711 C   0  0  0  0  0  0  0  0  0  0  0  0
  -26.1037  -30.3549   24.3092 C   0  0  0  0  0  0  0  0  0  0  0  0
  -25.5009  -29.0817   21.7092 C   0  0  0  0  0  0  0  0  0  0  0  0
  -20.0813  -31.7730   25.1027 C   0  0  0  0  0  0  0  0  0  0  0  0
  -29.7567  -11.4870   19.3035 C   0  0  0  0  0  0  0  0  0  0  0  0
  -20.5184  -30.3320   24.8589 C   0  0  0  0  0  0  0  0  0  0  0  0
  -28.3235  -11.3981   19.8328 C   0  0  0  0  0  0  0  0  0  0  0  0
  -30.6042  -12.4595   20.1219 C   0  0  0  0  0  0  0  0  0  0  0  0
  -28.5978  -13.7134   20.8082 C   0  0  0  0  0  0  0  0  0  0  0  0
  -21.7700  -29.9895   25.6759 C   0  0  1  0  0  0  0  0  0  0  0  0
  -24.8307  -30.6776   23.5330 C   0  0  1  0  0  0  0  0  0  0  0  0
  -27.6880  -12.7950   19.9761 C   0  0  2  0  0  0  0  0  0  0  0  0
  -26.7252  -32.5291   16.2538 C   0  0  0  0  0  0  0  0  0  0  0  0
  -22.0021  -29.7735   19.9915 C   0  0  0  0  0  0  0  0  0  0  0  0
  -22.9391  -30.2386   17.7168 C   0  0  0  0  0  0  0  0  0  0  0  0
  -22.2523  -32.1297   19.1914 C   0  0  0  0  0  0  0  0  0  0  0  0
  -25.2502  -20.3775   21.3106 C   0  0  0  0  0  0  0  0  0  0  0  0
  -24.8306  -22.5782   22.4154 C   0  0  0  0  0  0  0  0  0  0  0  0
  -29.0977  -32.2339   19.2136 C   0  0  0  0  0  0  0  0  0  0  0  0
  -27.6214  -24.4839   22.1296 C   0  0  0  0  0  0  0  0  0  1  0  0
  -27.1633  -22.0006   21.5885 C   0  0  2  0  0  0  0  0  0  0  0  0
  -24.3468  -30.8256   19.7428 C   0  0  1  0  0  0  0  0  0  0  0  0
  -27.1054  -32.4649   17.7249 C   0  0  2  0  0  0  0  0  0  0  0  0
  -22.9006  -30.7282   19.1802 C   0  0  0  0  0  0  0  0  0  0  0  0
  -25.8609  -21.4596   22.2149 C   0  0  0  0  0  0  0  0  0  0  0  0
  -25.9890  -11.7409   21.4196 N   0  0  0  0  0  0  0  0  0  0  0  0
  -26.2836  -12.7181   20.5452 N   0  0  0  0  0  0  0  0  0  0  0  0
  -24.9529  -30.3904   22.1023 N   0  0  0  0  0  0  0  0  0  0  0  0
  -29.9416  -13.7625   20.2112 N   0  0  0  0  0  0  0  0  0  0  0  0
  -25.3596  -14.5836   19.4154 N   0  0  0  0  0  0  0  0  0  0  0  0
  -21.9032  -13.0406   21.8789 N   0  0  0  0  0  0  0  0  0  0  0  0
  -29.8669  -16.0923   19.8520 N   0  0  0  0  0  0  0  0  0  0  0  0
  -28.1276  -20.9168   21.3864 N   0  0  0  0  0  0  0  0  0  0  0  0
  -22.9500  -30.5475   25.0508 N   0  0  0  0  0  0  0  0  0  0  0  0
  -25.2124  -31.7434   19.0104 N   0  0  0  0  0  0  0  0  0  0  0  0
  -29.1570  -21.8921   19.5082 N   0  3  0  0  0  0  0  0  0  0  0  0
  -28.5822  -32.2898   17.8214 N   0  3  0  0  0  0  0  0  0  0  0  0
  -22.5440  -14.6416   20.3674 O   0  0  0  0  0  0  0  0  0  0  0  0
  -23.3586  -28.8316   23.5306 O   0  0  0  0  0  0  0  0  0  0  0  0
  -28.7250  -22.6955   23.2937 O   0  0  0  0  0  0  0  0  0  0  0  0
  -23.9073  -32.3794   21.4804 O   0  0  0  0  0  0  0  0  0  0  0  0
  -26.8344  -30.1798   18.4613 O   0  0  0  0  0  0  0  0  0  0  0  0
  -31.7415  -14.8596   19.2620 O   0  0  0  0  0  0  0  0  0  0  0  0
  -22.0006   -8.6445   25.2995 O   0  0  0  0  0  0  0  0  0  0  0  0
  -28.3760  -25.3360   22.9903 O   0  0  0  0  0  0  0  0  0  1  0  0
  -16.9416   -6.9456   23.9123 F   0  0  0  0  0  0  0  0  0  0  0  0
  -21.4295   -5.9519   25.0420 F   0  0  0  0  0  0  0  0  0  0  0  0
  -28.1590  -18.2779   20.0291 F   0  0  0  0  0  0  0  0  0  0  0  0
  -26.1767  -20.7066   23.8234 Cl  0  0  0  0  0  0  0  0  0  0  0  0
  1  2  1  0  0  0  0
  1  7  2  0  0  0  0
  2  8  2  0  0  0  0
  3  6  2  0  0  0  0
  3 10  1  0  0  0  0
  4 11  2  0  0  0  0
  4 18  1  0  0  0  0
  5 12  1  0  0  0  0
  5 18  2  0  0  0  0
  6 19  1  0  0  0  0
  7 21  1  0  0  0  0
  8 23  1  0  0  0  0
  9 13  2  0  0  0  0
  9 22  1  0  0  0  0
 10 25  2  0  0  0  0
 11 26  1  0  0  0  0
 12 26  2  0  0  0  0
 13 27  1  0  0  0  0
 14 15  2  0  0  0  0
 14 28  1  0  0  0  0
 15 29  1  0  0  0  0
 16 24  1  0  0  0  0
 16 27  2  0  0  0  0
 17 29  2  0  0  0  0
 17 30  1  0  0  0  0
 18 32  1  0  0  0  0
 19 31  2  0  0  0  0
 19 34  1  0  0  0  0
 20 32  1  0  0  0  0
 20 33  2  0  0  0  0
 20 35  1  0  0  0  0
 21 23  2  0  0  0  0
 21 41  1  0  0  0  0
 22 24  2  0  0  0  0
 22 42  1  0  0  0  0
 23 50  1  0  0  0  0
 24 43  1  0  0  0  0
 25 31  1  0  0  0  0
 25 72  1  0  0  0  0
 26 84  1  0  0  0  0
 27 85  1  0  0  0  0
 28 30  2  0  0  0  0
 28 84  1  0  0  0  0
 29 86  1  0  0  0  0
 30 87  1  0  0  0  0
 31 88  1  0  0  0  0
 32 66  2  0  0  0  0
 33 67  1  0  0  0  0
 33 70  1  0  0  0  0
 34 73  1  0  0  0  0
 34 76  2  0  0  0  0
 35 71  1  0  0  0  0
 35 78  2  0  0  0  0
 36 51  1  0  0  0  0
 36 74  1  0  0  0  0
 36 79  2  0  0  0  0
 37 60  1  0  0  0  0
 37 61  1  0  0  0  0
 37 80  2  0  0  0  0
 38 62  1  0  0  0  0
 38 68  1  0  0  0  0
 38 81  2  0  0  0  0
 39 63  1  0  0  0  0
 39 75  1  0  0  0  0
 39 82  2  0  0  0  0
 40 69  1  0  0  0  0
 40 72  1  0  0  0  0
 40 83  2  0  0  0  0
 41 44  1  0  0  0  0
 42 51  1  0  0  0  0
 43 68  1  0  0  0  0
 44 46  1  0  0  0  0
 45 47  1  0  0  0  0
 45 48  1  0  0  0  0
 46 50  1  0  0  0  0
 47 52  1  0  0  0  0
 48 69  1  0  0  0  0
 49 52  1  0  0  0  0
 49 69  1  0  0  0  0
 50 74  1  0  0  0  0
 51 68  1  0  0  0  0
 52 67  1  0  0  0  0
 53 63  1  0  0  0  0
 54 64  1  0  0  0  0
 55 64  1  0  0  0  0
 56 64  1  0  0  0  0
 57 65  1  0  0  0  0
 58 65  1  0  0  0  0
 59 77  1  0  0  0  0
 60 85  1  0  0  0  0
 61 65  1  0  0  0  0
 61 73  1  0  0  0  0
 62 64  1  0  0  0  0
 62 75  1  0  0  0  0
 63 77  1  0  0  0  0
 65 89  1  0  0  0  0
 66 67  1  0  0  0  0
M  CHG  2  76   1  77   1
M  ISO  4  40 100  60 101  72 100  85 101
M  END
> <Batch ID>
0169

> <Smiles>
CNC(C)C(=O)NC(C(=O)N1Cc2cc([101O:1][101CH2:1]C(=O)C(NC(=N)c3cccc([100NH:0][100C:0](=O)N4CCCC(n5nc(-c6ccc(Oc7ccc(F)cc7F)cc6)c(C(N)=O)c5N)C4)c3F)C(C)(C)Cl)ccc2CC1C(=O)NC1CCCc2ccccc21)C(C)(C)C

> <Shape>
0.218

> <Color>
0.112

> <Negative vol penalty>
0.000

$$$$

  -OEChem-04052304173D

 86 94  0     1  0  0  0  0  0999 V2000
  -29.6993  -35.1438   25.4713 C   0  0  0  0  0  0  0  0  0  0  0  0
  -29.4394  -33.9300   24.8432 C   0  0  0  0  0  0  0  0  0  0  0  0
  -30.2786  -22.3427   24.2685 C   0  0  0  0  0  0  0  0  0  0  0  0
  -24.1419   -9.6475   22.1923 C   0  0  0  0  0  0  0  0  0  0  0  0
  -22.8657  -10.2950   20.2457 C   0  0  0  0  0  0  0  0  0  0  0  0
  -30.0653  -20.9933   23.9871 C   0  0  0  0  0  0  0  0  0  0  0  0
  -28.6591  -35.8559   26.0670 C   0  0  0  0  0  0  0  0  0  0  0  0
  -28.1392  -33.4270   24.8114 C   0  0  0  0  0  0  0  0  0  0  0  0
  -26.8536  -31.6527   20.2459 C   0  0  0  0  0  0  0  0  0  0  0  0
  -29.7944  -23.3212   23.4003 C   0  0  0  0  0  0  0  0  0  0  0  0
  -23.2046   -8.6543   22.4765 C   0  0  0  0  0  0  0  0  0  0  0  0
  -21.9284   -9.3018   20.5298 C   0  0  0  0  0  0  0  0  0  0  0  0
  -27.3409  -30.3955   19.8910 C   0  0  0  0  0  0  0  0  0  0  0  0
  -22.4580   -5.5456   21.3758 C   0  0  0  0  0  0  0  0  0  0  0  0
  -22.9370   -4.2827   21.7237 C   0  0  0  0  0  0  0  0  0  0  0  0
  -25.2120  -29.4157   20.4626 C   0  0  0  0  0  0  0  0  0  0  0  0
  -21.8173   -4.4460   23.8584 C   0  0  0  0  0  0  0  0  0  0  0  0
  -23.9724  -10.4678   21.0770 C   0  0  0  0  0  0  0  0  0  0  0  0
  -29.3678  -20.6224   22.8375 C   0  0  0  0  0  0  0  0  0  0  0  0
  -26.0937  -11.3719   19.9859 C   0  0  0  0  0  0  0  0  0  0  0  0
  -27.3440  -35.3661   26.0341 C   0  0  0  0  0  0  0  0  0  0  0  0
  -25.5431  -31.7994   20.7229 C   0  0  0  0  0  0  0  0  0  0  0  0
  -27.0807  -34.1326   25.4084 C   0  0  0  0  0  0  0  0  0  0  0  0
  -24.7096  -30.6761   20.8205 C   0  0  0  0  0  0  0  0  0  0  0  0
  -28.8836  -21.6009   21.9692 C   0  0  0  0  0  0  0  0  0  0  0  0
  -29.0969  -22.9503   22.2507 C   0  0  0  0  0  0  0  0  0  0  0  0
  -22.0979   -8.4815   21.6452 C   0  0  0  0  0  0  0  0  0  0  0  0
  -26.5210  -29.2764   20.0021 C   0  0  0  0  0  0  0  0  0  0  0  0
  -21.6586   -6.2589   22.2692 C   0  0  0  0  0  0  0  0  0  0  0  0
  -22.6166   -3.7328   22.9650 C   0  0  0  0  0  0  0  0  0  0  0  0
  -21.3383   -5.7090   23.5105 C   0  0  0  0  0  0  0  0  0  0  0  0
  -24.9400  -11.4943   20.7832 C   0  0  0  0  0  0  0  0  0  0  0  0
  -26.6697  -12.6183   20.0219 C   0  0  0  0  0  0  0  0  0  0  0  0
  -29.1633  -19.2036   22.5746 C   0  0  0  0  0  0  0  0  0  0  0  0
  -28.4888  -18.3514   23.3727 C   0  0  0  0  0  0  0  0  0  0  0  0
  -27.6024  -27.2979   20.6241 C   0  0  0  0  0  0  0  0  0  1  0  0
  -26.5995  -10.2334   19.2762 C   0  0  0  0  0  0  0  0  0  0  0  0
  -28.1037  -26.0779   20.3962 C   0  0  0  0  0  0  0  0  0  0  0  0
  -28.3591  -16.9388   22.9620 C   0  0  0  0  0  0  0  0  0  0  0  0
  -28.7514  -25.3349   21.5261 C   0  0  0  0  0  0  0  0  0  0  0  0
  -24.2466  -32.8015   23.4466 C   0  0  0  0  0  0  0  0  0  0  0  0
  -21.4738  -32.4661   21.7969 C   0  0  0  0  0  0  0  0  0  0  0  0
  -19.7928  -30.9741   19.2288 C   0  0  0  0  0  0  0  0  0  0  0  0
  -26.2603  -36.1484   26.7330 C   0  0  0  0  0  0  0  0  0  0  0  0
  -25.0240  -33.1662   21.0763 C   0  0  0  0  0  0  0  0  0  0  0  0
  -23.2885  -30.7830   21.3078 C   0  0  0  0  0  0  0  0  0  0  0  0
  -24.8492  -35.7287   26.3293 C   0  0  0  0  0  0  0  0  0  0  0  0
  -24.9095  -17.0255   21.7272 C   0  0  0  0  0  0  0  0  0  0  0  0
  -24.7205  -34.2088   26.3409 C   0  0  0  0  0  0  0  0  0  0  0  0
  -24.6956  -15.5620   21.3503 C   0  0  0  0  0  0  0  0  0  0  0  0
  -25.8174  -17.1750   22.9470 C   0  0  0  0  0  0  0  0  0  0  0  0
  -26.9149  -15.0154   22.4256 C   0  0  0  0  0  0  0  0  0  0  0  0
  -25.6795  -33.5662   25.3315 C   0  0  1  0  0  0  0  0  0  0  0  0
  -23.8396  -33.1255   22.0370 C   0  0  1  0  0  0  0  0  0  0  0  0
  -26.0425  -14.8433   21.1724 C   0  0  1  0  0  0  0  0  0  0  0  0
  -26.6303  -21.4070   20.8868 C   0  0  0  0  0  0  0  0  0  0  0  0
  -17.5277  -30.8712   18.1535 C   0  0  0  0  0  0  0  0  0  0  0  0
  -20.4693  -30.7164   24.0859 C   0  0  0  0  0  0  0  0  0  0  0  0
  -18.6562  -29.8931   22.5685 C   0  0  0  0  0  0  0  0  0  0  0  0
  -18.7742  -32.3110   23.1704 C   0  0  0  0  0  0  0  0  0  0  0  0
  -20.8421  -31.9833   16.6521 C   0  0  0  0  0  0  0  0  0  0  0  0
  -28.1335  -21.2099   20.7324 C   0  0  0  0  0  0  0  0  0  0  0  0
  -20.4868  -31.3442   21.5816 C   0  0  1  0  0  0  0  0  0  0  0  0
  -18.8912  -31.5447   18.1489 C   0  0  2  0  0  0  0  0  0  0  0  0
  -19.6240  -31.0636   22.8442 C   0  0  0  0  0  0  0  0  0  0  0  0
  -24.7905  -12.7215   21.2889 N   0  0  0  0  0  0  0  0  0  0  0  0
  -25.8578  -13.3816   20.8082 N   0  0  0  0  0  0  0  0  0  0  0  0
  -27.0744  -16.4310   22.7768 N   0  0  0  0  0  0  0  0  0  0  0  0
  -22.8291  -32.1400   21.6471 N   0  0  0  0  0  0  0  0  0  0  0  0
  -27.7865  -13.1247   19.4573 N   0  0  0  0  0  0  0  0  0  0  0  0
  -25.8838   -9.0304   19.3462 N   0  0  0  0  0  0  0  0  0  0  0  0
  -28.6159  -23.9607   21.3835 N   0  0  0  0  0  0  0  0  0  0  0  0
  -25.1562  -33.6898   23.9879 N   0  0  0  0  0  0  0  0  0  0  0  0
  -19.7140  -31.7022   20.3972 N   0  0  0  0  0  0  0  0  0  0  0  0
  -19.5063  -31.3515   16.8053 N   0  3  0  0  0  0  0  0  0  0  0  0
  -27.6636  -10.2770   18.6134 O   0  0  0  0  0  0  0  0  0  0  0  0
  -29.3976  -16.2925   22.8124 O   0  0  0  0  0  0  0  0  0  0  0  0
  -29.3157  -25.9359   22.4339 O   0  0  0  0  0  0  0  0  0  0  0  0
  -23.7694  -31.8192   24.0026 O   0  0  0  0  0  0  0  0  0  0  0  0
  -21.0571  -33.5920   22.0803 O   0  0  0  0  0  0  0  0  0  0  0  0
  -20.4938  -29.9798   19.0546 O   0  0  0  0  0  0  0  0  0  0  0  0
  -28.0473  -25.4718   19.1576 O   0  0  0  0  0  0  0  0  0  0  0  0
  -21.1832   -7.5123   21.9220 O   0  0  0  0  0  0  0  0  0  0  0  0
  -26.9943  -28.0480   19.6570 O   0  0  0  0  0  0  0  0  0  1  0  0
  -23.0754   -2.5193   23.2983 F   0  0  0  0  0  0  0  0  0  0  0  0
  -20.5698   -6.3890   24.3725 F   0  0  0  0  0  0  0  0  0  0  0  0
  1  2  1  0  0  0  0
  1  7  2  0  0  0  0
  2  8  2  0  0  0  0
  3  6  1  0  0  0  0
  3 10  2  0  0  0  0
  4 11  2  0  0  0  0
  4 18  1  0  0  0  0
  5 12  1  0  0  0  0
  5 18  2  0  0  0  0
  6 19  2  0  0  0  0
  7 21  1  0  0  0  0
  8 23  1  0  0  0  0
  9 13  2  0  0  0  0
  9 22  1  0  0  0  0
 10 26  1  0  0  0  0
 11 27  1  0  0  0  0
 12 27  2  0  0  0  0
 13 28  1  0  0  0  0
 14 15  2  0  0  0  0
 14 29  1  0  0  0  0
 15 30  1  0  0  0  0
 16 24  1  0  0  0  0
 16 28  2  0  0  0  0
 17 30  2  0  0  0  0
 17 31  1  0  0  0  0
 18 32  1  0  0  0  0
 19 25  1  0  0  0  0
 19 34  1  0  0  0  0
 20 32  1  0  0  0  0
 20 33  2  0  0  0  0
 20 37  1  0  0  0  0
 21 23  2  0  0  0  0
 21 44  1  0  0  0  0
 22 24  2  0  0  0  0
 22 45  1  0  0  0  0
 23 53  1  0  0  0  0
 24 46  1  0  0  0  0
 25 26  2  0  0  0  0
 25 62  1  0  0  0  0
 26 72  1  0  0  0  0
 27 83  1  0  0  0  0
 28 84  1  0  0  0  0
 29 31  2  0  0  0  0
 29 83  1  0  0  0  0
 30 85  1  0  0  0  0
 31 86  1  0  0  0  0
 32 66  2  0  0  0  0
 33 67  1  0  0  0  0
 33 70  1  0  0  0  0
 34 35  2  0  0  0  0
 35 39  1  0  0  0  0
 36 38  2  0  0  0  0
 36 84  1  0  0  0  0
 37 71  1  0  0  0  0
 37 76  2  0  0  0  0
 38 40  1  0  0  0  0
 38 82  1  0  0  0  0
 39 68  1  0  0  0  0
 39 77  2  0  0  0  0
 40 72  1  0  0  0  0
 40 78  2  0  0  0  0
 41 54  1  0  0  0  0
 41 73  1  0  0  0  0
 41 79  2  0  0  0  0
 42 63  1  0  0  0  0
 42 69  1  0  0  0  0
 42 80  2  0  0  0  0
 43 64  1  0  0  0  0
 43 74  1  0  0  0  0
 43 81  2  0  0  0  0
 44 47  1  0  0  0  0
 45 54  1  0  0  0  0
 46 69  1  0  0  0  0
 47 49  1  0  0  0  0
 48 50  1  0  0  0  0
 48 51  1  0  0  0  0
 49 53  1  0  0  0  0
 50 55  1  0  0  0  0
 51 68  1  0  0  0  0
 52 55  1  0  0  0  0
 52 68  1  0  0  0  0
 53 73  1  0  0  0  0
 54 69  1  0  0  0  0
 55 67  1  0  0  0  0
 56 62  1  0  0  0  0
 57 64  1  0  0  0  0
 58 65  1  0  0  0  0
 59 65  1  0  0  0  0
 60 65  1  0  0  0  0
 61 75  1  0  0  0  0
 63 65  1  0  0  0  0
 63 74  1  0  0  0  0
 64 75  1  0  0  0  0
 66 67  1  0  0  0  0
M  CHG  1  75   1
M  ISO  4  35 100  36 101  39 100  84 101
M  END
> <Batch ID>
0169

> <Smiles>
CCc1c(C=[100CH:0][100C:0](=O)N2CCCC(n3nc(-c4ccc(Oc5ccc(F)cc5F)cc4)c(C(N)=O)c3N)C2)cccc1NC(=O)C(=O)[101CH2:1][101O:1]c1ccc2c(c1)CN(C(=O)C(NC(=O)C(C)NC)C(C)(C)C)C(C(=O)NC1CCCc3ccccc31)C2

> <Shape>
0.260

> <Color>
0.079

> <Negative vol penalty>
0.000

$$$$

  -OEChem-04052304173D

 85 93  0     1  0  0  0  0  0999 V2000
  -32.4257  -12.0025   21.6346 C   0  0  0  0  0  0  0  0  0  0  0  0
  -32.0830  -13.3043   21.9859 C   0  0  0  0  0  0  0  0  0  0  0  0
  -18.5563  -28.2737   24.2704 C   0  0  0  0  0  0  0  0  0  0  0  0
  -29.1902  -26.5023   19.9721 C   0  0  0  0  0  0  0  0  0  0  0  0
  -27.2788  -25.0518   19.6904 C   0  0  0  0  0  0  0  0  0  0  0  0
  -31.6128  -11.2802   20.7621 C   0  0  0  0  0  0  0  0  0  0  0  0
  -30.9275  -13.8848   21.4640 C   0  0  0  0  0  0  0  0  0  0  0  0
  -25.7448  -18.5224   23.1810 C   0  0  0  0  0  0  0  0  0  0  0  0
  -18.0786  -27.1327   23.6258 C   0  0  0  0  0  0  0  0  0  0  0  0
  -19.6618  -28.9529   23.7581 C   0  0  0  0  0  0  0  0  0  0  0  0
  -29.9810  -25.3984   20.2908 C   0  0  0  0  0  0  0  0  0  0  0  0
  -28.0696  -23.9478   20.0090 C   0  0  0  0  0  0  0  0  0  0  0  0
  -25.1186  -19.6677   22.6911 C   0  0  0  0  0  0  0  0  0  0  0  0
  -29.6683  -20.7056   20.3962 C   0  0  0  0  0  0  0  0  0  0  0  0
  -29.5452  -19.5671   19.5997 C   0  0  0  0  0  0  0  0  0  0  0  0
  -23.7482  -18.2968   21.2550 C   0  0  0  0  0  0  0  0  0  0  0  0
  -19.8117  -27.3500   21.9566 C   0  0  0  0  0  0  0  0  0  0  0  0
  -30.2249  -20.8465   17.6661 C   0  0  0  0  0  0  0  0  0  0  0  0
  -27.8391  -26.3291   19.6720 C   0  0  0  0  0  0  0  0  0  0  0  0
  -26.7966  -28.0136   18.0647 C   0  0  0  0  0  0  0  0  0  0  0  0
  -30.4417  -11.8488   20.2369 C   0  0  0  0  0  0  0  0  0  0  0  0
  -25.3844  -17.2544   22.7029 C   0  0  0  0  0  0  0  0  0  0  0  0
  -30.0988  -13.1699   20.5827 C   0  0  0  0  0  0  0  0  0  0  0  0
  -24.3696  -17.1368   21.7424 C   0  0  0  0  0  0  0  0  0  0  0  0
  -18.7063  -26.6708   22.4690 C   0  0  0  0  0  0  0  0  0  0  0  0
  -20.2895  -28.4910   22.6012 C   0  0  0  0  0  0  0  0  0  0  0  0
  -29.4207  -24.1211   20.3092 C   0  0  0  0  0  0  0  0  0  0  0  0
  -24.1222  -19.5552   21.7259 C   0  0  0  0  0  0  0  0  0  0  0  0
  -30.0696  -21.9145   19.8277 C   0  0  0  0  0  0  0  0  0  0  0  0
  -29.8235  -19.6376   18.2347 C   0  0  0  0  0  0  0  0  0  0  0  0
  -30.3479  -21.9849   18.4627 C   0  0  0  0  0  0  0  0  0  0  0  0
  -27.0216  -27.4691   19.3433 C   0  0  0  0  0  0  0  0  0  0  0  0
  -25.9560  -29.0767   18.2872 C   0  0  0  0  0  0  0  0  0  0  0  0
  -22.3882  -21.1166   21.8870 C   0  0  0  0  0  0  0  0  0  1  0  0
  -18.8556  -24.2000   22.3035 C   0  0  0  0  0  0  0  0  0  0  0  0
  -27.3023  -27.5956   16.7898 C   0  0  0  0  0  0  0  0  0  0  0  0
  -21.7070  -22.2022   21.5012 C   0  0  0  0  0  0  0  0  0  0  0  0
  -20.4906  -22.6043   22.2707 C   0  0  0  0  0  0  0  0  0  0  0  0
  -26.8991  -14.9260   21.1575 C   0  0  0  0  0  0  0  0  0  0  0  0
  -24.1243  -13.3210   21.6546 C   0  0  0  0  0  0  0  0  0  0  0  0
  -20.7655  -13.4549   22.2440 C   0  0  0  0  0  0  0  0  0  0  0  0
  -22.0118  -30.3295   22.5975 C   0  0  0  0  0  0  0  0  0  0  0  0
  -29.6195  -11.0456   19.2603 C   0  0  0  0  0  0  0  0  0  0  0  0
  -26.0508  -16.0268   23.2610 C   0  0  0  0  0  0  0  0  0  0  0  0
  -23.9319  -15.7972   21.2111 C   0  0  0  0  0  0  0  0  0  0  0  0
  -28.2141  -11.6014   19.0458 C   0  0  0  0  0  0  0  0  0  0  0  0
  -24.8095  -32.3081   21.6305 C   0  0  0  0  0  0  0  0  0  0  0  0
  -28.2641  -13.1104   18.8289 C   0  0  0  0  0  0  0  0  0  0  0  0
  -25.6708  -31.3430   20.8128 C   0  0  0  0  0  0  0  0  0  0  0  0
  -24.1330  -31.6068   22.8071 C   0  0  0  0  0  0  0  0  0  0  0  0
  -24.2263  -29.4404   21.6378 C   0  0  0  0  0  0  0  0  0  0  0  0
  -28.8403  -13.8255   20.0569 C   0  0  1  0  0  0  0  0  0  0  0  0
  -25.9629  -14.8228   22.3282 C   0  0  1  0  0  0  0  0  0  0  0  0
  -24.8765  -30.0870   20.4038 C   0  0  2  0  0  0  0  0  0  0  0  0
  -18.7615  -11.9790   22.5650 C   0  0  0  0  0  0  0  0  0  0  0  0
  -24.0462  -12.7783   18.6530 C   0  0  0  0  0  0  0  0  0  0  0  0
  -21.6312  -12.1649   18.8973 C   0  0  0  0  0  0  0  0  0  0  0  0
  -23.3795  -10.8371   20.0818 C   0  0  0  0  0  0  0  0  0  0  0  0
  -20.2891  -14.4985   24.9721 C   0  0  0  0  0  0  0  0  0  0  0  0
  -18.1906  -25.4402   21.7742 C   0  0  0  0  0  0  0  0  0  0  0  0
  -22.8282  -13.1662   20.8962 C   0  0  1  0  0  0  0  0  0  0  0  0
  -19.8901  -12.7322   23.2518 C   0  0  2  0  0  0  0  0  0  0  0  0
  -22.9807  -12.2621   19.6405 C   0  0  0  0  0  0  0  0  0  0  0  0
  -26.3761  -28.1317   20.3067 N   0  0  0  0  0  0  0  0  0  0  0  0
  -19.9195  -23.7373   21.7358 N   0  0  0  0  0  0  0  0  0  0  0  0
  -25.7373  -29.1036   19.6332 N   0  0  0  0  0  0  0  0  0  0  0  0
  -24.6179  -14.6270   21.7834 N   0  0  0  0  0  0  0  0  0  0  0  0
  -23.3961  -30.4293   22.3433 N   0  0  0  0  0  0  0  0  0  0  0  0
  -25.3900  -29.9819   17.4610 N   0  0  0  0  0  0  0  0  0  0  0  0
  -28.1542  -26.4838   16.7408 N   0  0  0  0  0  0  0  0  0  0  0  0
  -21.4119  -29.1816   22.0807 N   0  0  0  0  0  0  0  0  0  0  0  0
  -27.8432  -13.9185   21.1017 N   0  0  0  0  0  0  0  0  0  0  0  0
  -21.8451  -12.6870   21.8617 N   0  0  0  0  0  0  0  0  0  0  0  0
  -19.2916  -13.7046   24.2095 N   0  3  0  0  0  0  0  0  0  0  0  0
  -27.0206  -28.2005   15.7276 O   0  0  0  0  0  0  0  0  0  0  0  0
  -20.1016  -21.9698   23.2464 O   0  0  0  0  0  0  0  0  0  0  0  0
  -26.7732  -15.8503   20.3628 O   0  0  0  0  0  0  0  0  0  0  0  0
  -24.6747  -12.3208   22.1218 O   0  0  0  0  0  0  0  0  0  0  0  0
  -20.5146  -14.5860   21.8338 O   0  0  0  0  0  0  0  0  0  0  0  0
  -21.3981  -31.2114   23.2038 O   0  0  0  0  0  0  0  0  0  0  0  0
  -22.0811  -22.9687   20.4166 O   0  0  0  0  0  0  0  0  0  0  0  0
  -30.1921  -23.0436   20.6199 O   0  0  0  0  0  0  0  0  0  0  0  0
  -23.5098  -20.6715   21.2455 O   0  0  0  0  0  0  0  0  0  1  0  0
  -29.7068  -18.5439   17.4702 F   0  0  0  0  0  0  0  0  0  0  0  0
  -30.7350  -23.1432   17.9110 F   0  0  0  0  0  0  0  0  0  0  0  0
  1  2  1  0  0  0  0
  1  6  2  0  0  0  0
  2  7  2  0  0  0  0
  3  9  2  0  0  0  0
  3 10  1  0  0  0  0
  4 11  2  0  0  0  0
  4 19  1  0  0  0  0
  5 12  1  0  0  0  0
  5 19  2  0  0  0  0
  6 21  1  0  0  0  0
  7 23  1  0  0  0  0
  8 13  2  0  0  0  0
  8 22  1  0  0  0  0
  9 25  1  0  0  0  0
 10 26  2  0  0  0  0
 11 27  1  0  0  0  0
 12 27  2  0  0  0  0
 13 28  1  0  0  0  0
 14 15  2  0  0  0  0
 14 29  1  0  0  0  0
 15 30  1  0  0  0  0
 16 24  1  0  0  0  0
 16 28  2  0  0  0  0
 17 25  2  0  0  0  0
 17 26  1  0  0  0  0
 18 30  2  0  0  0  0
 18 31  1  0  0  0  0
 19 32  1  0  0  0  0
 20 32  1  0  0  0  0
 20 33  2  0  0  0  0
 20 36  1  0  0  0  0
 21 23  2  0  0  0  0
 21 43  1  0  0  0  0
 22 24  2  0  0  0  0
 22 44  1  0  0  0  0
 23 52  1  0  0  0  0
 24 45  1  0  0  0  0
 25 60  1  0  0  0  0
 26 71  1  0  0  0  0
 27 82  1  0  0  0  0
 28 83  1  0  0  0  0
 29 31  2  0  0  0  0
 29 82  1  0  0  0  0
 30 84  1  0  0  0  0
 31 85  1  0  0  0  0
 32 64  2  0  0  0  0
 33 66  1  0  0  0  0
 33 69  1  0  0  0  0
 34 37  2  0  0  0  0
 34 83  1  0  0  0  0
 35 60  1  0  0  0  0
 35 65  2  0  0  0  0
 36 70  1  0  0  0  0
 36 75  2  0  0  0  0
 37 38  1  0  0  0  0
 37 81  1  0  0  0  0
 38 65  1  0  0  0  0
 38 76  2  0  0  0  0
 39 53  1  0  0  0  0
 39 72  1  0  0  0  0
 39 77  2  0  0  0  0
 40 61  1  0  0  0  0
 40 67  1  0  0  0  0
 40 78  2  0  0  0  0
 41 62  1  0  0  0  0
 41 73  1  0  0  0  0
 41 79  2  0  0  0  0
 42 68  1  0  0  0  0
 42 71  1  0  0  0  0
 42 80  2  0  0  0  0
 43 46  1  0  0  0  0
 44 53  1  0  0  0  0
 45 67  1  0  0  0  0
 46 48  1  0  0  0  0
 47 49  1  0  0  0  0
 47 50  1  0  0  0  0
 48 52  1  0  0  0  0
 49 54  1  0  0  0  0
 50 68  1  0  0  0  0
 51 54  1  0  0  0  0
 51 68  1  0  0  0  0
 52 72  1  0  0  0  0
 53 67  1  0  0  0  0
 54 66  1  0  0  0  0
 55 62  1  0  0  0  0
 56 63  1  0  0  0  0
 57 63  1  0  0  0  0
 58 63  1  0  0  0  0
 59 74  1  0  0  0  0
 61 63  1  0  0  0  0
 61 73  1  0  0  0  0
 62 74  1  0  0  0  0
 64 66  1  0  0  0  0
M  CHG  1  74   1
M  ISO  4  34 101  42 100  71 100  83 101
M  END
> <Batch ID>
0169

> <Smiles>
CNC(C)C(=O)NC(C(=O)N1Cc2cc([101O:1][101CH2:1]C(=O)C(=O)NC=Cc3cccc([100NH:0][100C:0](=O)N4CCCC(n5nc(-c6ccc(Oc7ccc(F)cc7F)cc6)c(C(N)=O)c5N)C4)c3)ccc2CC1C(=O)NC1CCCc2ccccc21)C(C)(C)C

> <Shape>
0.265

> <Color>
0.079

> <Negative vol penalty>
0.000

$$$$

  -OEChem-04052304173D

 87 95  0     1  0  0  0  0  0999 V2000
  -26.2236  -34.3294   31.4567 C   0  0  0  0  0  0  0  0  0  0  0  0
  -26.4206  -32.9652   31.2678 C   0  0  0  0  0  0  0  0  0  0  0  0
  -23.0733   -9.8638   19.9487 C   0  0  0  0  0  0  0  0  0  0  0  0
  -23.8274   -9.8827   22.2439 C   0  0  0  0  0  0  0  0  0  0  0  0
  -25.5489  -35.0755   30.4913 C   0  0  0  0  0  0  0  0  0  0  0  0
  -25.9419  -32.3461   30.1136 C   0  0  0  0  0  0  0  0  0  0  0  0
  -28.5385  -27.7032   27.0794 C   0  0  0  0  0  0  0  0  0  0  0  0
  -22.3261   -8.7140   20.2036 C   0  0  0  0  0  0  0  0  0  0  0  0
  -23.0801   -8.7328   22.4989 C   0  0  0  0  0  0  0  0  0  0  0  0
  -28.3008  -26.3294   27.0849 C   0  0  0  0  0  0  0  0  0  0  0  0
  -19.8485   -7.9462   23.0979 C   0  0  0  0  0  0  0  0  0  0  0  0
  -19.0885   -7.9150   24.2671 C   0  0  0  0  0  0  0  0  0  0  0  0
  -26.8912  -26.5717   25.1423 C   0  0  0  0  0  0  0  0  0  0  0  0
  -31.8076  -17.5387   21.6922 C   0  0  0  0  0  0  0  0  0  0  0  0
  -20.3235   -5.9790   25.0182 C   0  0  0  0  0  0  0  0  0  0  0  0
  -23.8240  -10.4482   20.9689 C   0  0  0  0  0  0  0  0  0  0  0  0
  -24.1721  -12.9718   20.8347 C   0  0  0  0  0  0  0  0  0  0  0  0
  -25.0702  -34.4670   29.3203 C   0  0  0  0  0  0  0  0  0  0  0  0
  -27.9447  -28.5244   26.1102 C   0  0  0  0  0  0  0  0  0  0  0  0
  -25.2590  -33.0845   29.1322 C   0  0  0  0  0  0  0  0  0  0  0  0
  -27.1251  -27.9552   25.1251 C   0  0  0  0  0  0  0  0  0  0  0  0
  -31.8969  -18.8019   22.3454 C   0  0  0  0  0  0  0  0  0  0  0  0
  -22.3294   -8.1484   21.4787 C   0  0  0  0  0  0  0  0  0  0  0  0
  -27.4747  -25.7638   26.1180 C   0  0  0  0  0  0  0  0  0  0  0  0
  -20.8460   -6.9937   22.8888 C   0  0  0  0  0  0  0  0  0  0  0  0
  -19.3260   -6.9314   25.2272 C   0  0  0  0  0  0  0  0  0  0  0  0
  -21.0835   -6.0102   23.8489 C   0  0  0  0  0  0  0  0  0  0  0  0
  -24.5965  -11.6357   20.7060 C   0  0  0  0  0  0  0  0  0  0  0  0
  -25.2669  -13.7165   20.4698 C   0  0  0  0  0  0  0  0  0  0  0  0
  -30.5943  -16.9257   21.9147 C   0  0  0  0  0  0  0  0  0  0  0  0
  -30.7481  -19.1063   23.0421 C   0  0  0  0  0  0  0  0  0  0  0  0
  -29.2402  -21.7820   25.2067 C   0  0  0  0  0  0  0  0  0  0  0  0
  -22.9018  -13.4931   21.2473 C   0  0  0  0  0  0  0  0  0  0  0  0
  -28.2176  -22.2547   25.9377 C   0  0  0  0  0  0  0  0  0  0  0  0
  -29.2094  -20.4641   24.4971 C   0  0  0  0  0  0  0  0  0  0  0  0
  -25.9018  -30.9587   26.1792 C   0  0  0  0  0  0  0  0  0  0  0  0
  -26.5487  -31.0845   23.0030 C   0  0  0  0  0  0  0  0  0  0  0  0
  -27.6048  -29.4581   20.1947 C   0  0  0  0  0  0  0  0  0  0  0  0
  -30.7351  -14.7502   20.6523 C   0  0  0  0  0  0  0  0  0  0  0  0
  -24.3054  -35.3056   28.3270 C   0  0  0  0  0  0  0  0  0  0  0  0
  -28.2325  -30.0007   26.1019 C   0  0  0  0  0  0  0  0  0  0  0  0
  -26.4798  -28.7904   24.0506 C   0  0  0  0  0  0  0  0  0  0  0  0
  -24.1582  -34.6457   26.9584 C   0  0  0  0  0  0  0  0  0  0  0  0
  -29.6210  -12.3251   18.2954 C   0  0  0  0  0  0  0  0  0  0  0  0
  -23.7265  -33.1907   27.1109 C   0  0  0  0  0  0  0  0  0  0  0  0
  -28.1796  -12.0395   18.7230 C   0  0  0  0  0  0  0  0  0  0  0  0
  -30.5336  -12.5588   19.4980 C   0  0  0  0  0  0  0  0  0  0  0  0
  -28.6249  -13.2959   20.8702 C   0  0  0  0  0  0  0  0  0  0  0  0
  -24.7764  -32.3816   27.8820 C   0  0  1  0  0  0  0  0  0  0  0  0
  -27.1642  -30.8137   25.3773 C   0  0  1  0  0  0  0  0  0  0  0  0
  -27.6546  -13.1180   19.6909 C   0  0  2  0  0  0  0  0  0  0  0  0
  -27.9912  -29.8129   17.7407 C   0  0  0  0  0  0  0  0  0  0  0  0
  -34.2217  -19.0395   21.4047 C   0  0  0  0  0  0  0  0  0  0  0  0
  -33.6936  -19.9411   23.6948 C   0  0  0  0  0  0  0  0  0  0  0  0
  -32.8562  -21.1014   21.6616 C   0  0  0  0  0  0  0  0  0  0  0  0
  -23.5402  -30.9497   22.5122 C   0  0  0  0  0  0  0  0  0  0  0  0
  -24.0260  -30.3538   20.1295 C   0  0  0  0  0  0  0  0  0  0  0  0
  -24.7667  -32.5555   21.0386 C   0  0  0  0  0  0  0  0  0  0  0  0
  -30.4896  -28.8456   20.4423 C   0  0  0  0  0  0  0  0  0  0  0  0
  -28.2766  -23.5842   26.6301 C   0  0  0  0  0  0  0  0  0  1  0  0
  -25.9608  -30.4492   21.7662 C   0  0  1  0  0  0  0  0  0  0  0  0
  -28.6140  -29.8421   19.1278 C   0  0  2  0  0  0  0  0  0  0  0  0
  -33.0913  -19.6775   22.2763 C   0  0  0  0  0  0  0  0  0  0  0  0
  -24.5839  -31.0613   21.3829 C   0  0  0  0  0  0  0  0  0  0  0  0
  -25.8622  -11.5344   20.2915 N   0  0  0  0  0  0  0  0  0  0  0  0
  -26.2425  -12.8163   20.1566 N   0  0  0  0  0  0  0  0  0  0  0  0
  -26.7868  -30.2298   24.0886 N   0  0  0  0  0  0  0  0  0  0  0  0
  -29.9749  -13.5961   20.3679 N   0  0  0  0  0  0  0  0  0  0  0  0
  -25.4806  -15.0470   20.3894 N   0  0  0  0  0  0  0  0  0  0  0  0
  -21.8868  -12.5883   21.5874 N   0  0  0  0  0  0  0  0  0  0  0  0
  -30.4030  -20.2374   23.8224 N   0  0  0  0  0  0  0  0  0  0  0  0
  -30.0879  -15.6816   21.4636 N   0  0  0  0  0  0  0  0  0  0  0  0
  -25.8933  -32.0536   27.0221 N   0  0  0  0  0  0  0  0  0  0  0  0
  -26.9767  -30.5649   20.7256 N   0  0  0  0  0  0  0  0  0  0  0  0
  -29.7689  -28.9003   19.1444 N   0  3  0  0  0  0  0  0  0  0  0  0
  -22.6683  -14.7245   21.2967 O   0  0  0  0  0  0  0  0  0  0  0  0
  -28.2301  -19.7302   24.5458 O   0  0  0  0  0  0  0  0  0  0  0  0
  -25.0015  -30.1387   26.0421 O   0  0  0  0  0  0  0  0  0  0  0  0
  -26.7945  -32.2933   23.0033 O   0  0  0  0  0  0  0  0  0  0  0  0
  -27.3920  -28.2927   20.5217 O   0  0  0  0  0  0  0  0  0  0  0  0
  -31.8658  -14.9135   20.1866 O   0  0  0  0  0  0  0  0  0  0  0  0
  -27.0340  -21.5595   26.0872 O   0  0  0  0  0  0  0  0  0  0  0  0
  -21.6002   -7.0265   21.7279 O   0  0  0  0  0  0  0  0  0  0  0  0
  -27.2405  -24.4233   26.1214 O   0  0  0  0  0  0  0  0  0  1  0  0
  -18.5971   -6.9025   26.3506 F   0  0  0  0  0  0  0  0  0  0  0  0
  -22.0412   -5.0933   23.6542 F   0  0  0  0  0  0  0  0  0  0  0  0
  -29.5689  -17.8719   22.9075 S   0  0  0  0  0  0  0  0  0  0  0  0
  1  2  1  0  0  0  0
  1  5  2  0  0  0  0
  2  6  2  0  0  0  0
  3  8  2  0  0  0  0
  3 16  1  0  0  0  0
  4  9  1  0  0  0  0
  4 16  2  0  0  0  0
  5 18  1  0  0  0  0
  6 20  1  0  0  0  0
  7 10  2  0  0  0  0
  7 19  1  0  0  0  0
  8 23  1  0  0  0  0
  9 23  2  0  0  0  0
 10 24  1  0  0  0  0
 11 12  2  0  0  0  0
 11 25  1  0  0  0  0
 12 26  1  0  0  0  0
 13 21  1  0  0  0  0
 13 24  2  0  0  0  0
 14 22  1  0  0  0  0
 14 30  2  0  0  0  0
 15 26  2  0  0  0  0
 15 27  1  0  0  0  0
 16 28  1  0  0  0  0
 17 28  1  0  0  0  0
 17 29  2  0  0  0  0
 17 33  1  0  0  0  0
 18 20  2  0  0  0  0
 18 40  1  0  0  0  0
 19 21  2  0  0  0  0
 19 41  1  0  0  0  0
 20 49  1  0  0  0  0
 21 42  1  0  0  0  0
 22 31  2  0  0  0  0
 22 63  1  0  0  0  0
 23 83  1  0  0  0  0
 24 84  1  0  0  0  0
 25 27  2  0  0  0  0
 25 83  1  0  0  0  0
 26 85  1  0  0  0  0
 27 86  1  0  0  0  0
 28 65  2  0  0  0  0
 29 66  1  0  0  0  0
 29 69  1  0  0  0  0
 30 72  1  0  0  0  0
 30 87  1  0  0  0  0
 31 71  1  0  0  0  0
 31 87  1  0  0  0  0
 32 34  2  0  0  0  0
 32 35  1  0  0  0  0
 33 70  1  0  0  0  0
 33 76  2  0  0  0  0
 34 60  1  0  0  0  0
 34 82  1  0  0  0  0
 35 71  1  0  0  0  0
 35 77  2  0  0  0  0
 36 50  1  0  0  0  0
 36 73  1  0  0  0  0
 36 78  2  0  0  0  0
 37 61  1  0  0  0  0
 37 67  1  0  0  0  0
 37 79  2  0  0  0  0
 38 62  1  0  0  0  0
 38 74  1  0  0  0  0
 38 80  2  0  0  0  0
 39 68  1  0  0  0  0
 39 72  1  0  0  0  0
 39 81  2  0  0  0  0
 40 43  1  0  0  0  0
 41 50  1  0  0  0  0
 42 67  1  0  0  0  0
 43 45  1  0  0  0  0
 44 46  1  0  0  0  0
 44 47  1  0  0  0  0
 45 49  1  0  0  0  0
 46 51  1  0  0  0  0
 47 68  1  0  0  0  0
 48 51  1  0  0  0  0
 48 68  1  0  0  0  0
 49 73  1  0  0  0  0
 50 67  1  0  0  0  0
 51 66  1  0  0  0  0
 52 62  1  0  0  0  0
 53 63  1  0  0  0  0
 54 63  1  0  0  0  0
 55 63  1  0  0  0  0
 56 64  1  0  0  0  0
 57 64  1  0  0  0  0
 58 64  1  0  0  0  0
 59 75  1  0  0  0  0
 60 84  1  0  0  0  0
 61 64  1  0  0  0  0
 61 74  1  0  0  0  0
 62 75  1  0  0  0  0
 65 66  1  0  0  0  0
M  CHG  1  75   1
M  ISO  4  39 100  60 101  72 100  84 101
M  END
> <Batch ID>
0169

> <Smiles>
CNC(C)C(=O)NC(C(=O)N1Cc2cc([101O:1][101CH2:1]C(=O)CC(=O)Nc3sc([100NH:0][100C:0](=O)N4CCCC(n5nc(-c6ccc(Oc7ccc(F)cc7F)cc6)c(C(N)=O)c5N)C4)cc3C(C)(C)C)ccc2CC1C(=O)NC1CCCc2ccccc21)C(C)(C)C

> <Shape>
0.283

> <Color>
0.184

> <Negative vol penalty>
0.000

$$$$

  -OEChem-04052304173D

 85 93  0     1  0  0  0  0  0999 V2000
  -27.4116  -34.8105   23.2855 C   0  0  0  0  0  0  0  0  0  0  0  0
  -27.6904  -33.4711   23.0333 C   0  0  0  0  0  0  0  0  0  0  0  0
  -24.0835   -9.5624   22.7265 C   0  0  0  0  0  0  0  0  0  0  0  0
  -23.8208  -10.2041   20.4122 C   0  0  0  0  0  0  0  0  0  0  0  0
  -26.1651  -35.1789   23.7898 C   0  0  0  0  0  0  0  0  0  0  0  0
  -26.7232  -32.4991   23.2864 C   0  0  0  0  0  0  0  0  0  0  0  0
  -26.3291  -29.1260   19.5298 C   0  0  0  0  0  0  0  0  0  0  0  0
  -30.4407  -19.6281   17.6673 C   0  0  0  0  0  0  0  0  0  0  0  0
  -23.0884   -8.5973   22.5719 C   0  0  0  0  0  0  0  0  0  0  0  0
  -22.8257   -9.2390   20.2575 C   0  0  0  0  0  0  0  0  0  0  0  0
  -27.3024  -28.1299   19.4638 C   0  0  0  0  0  0  0  0  0  0  0  0
  -22.8147   -5.4875   21.2729 C   0  0  0  0  0  0  0  0  0  0  0  0
  -30.7066  -18.2742   17.8717 C   0  0  0  0  0  0  0  0  0  0  0  0
  -23.0527   -4.2201   21.8045 C   0  0  0  0  0  0  0  0  0  0  0  0
  -25.7811  -26.5820   20.5167 C   0  0  0  0  0  0  0  0  0  0  0  0
  -28.7719  -19.5641   19.4132 C   0  0  0  0  0  0  0  0  0  0  0  0
  -21.1090   -4.4494   23.2211 C   0  0  0  0  0  0  0  0  0  0  0  0
  -24.4497  -10.3659   21.6467 C   0  0  0  0  0  0  0  0  0  0  0  0
  -26.8605  -11.1988   21.6031 C   0  0  0  0  0  0  0  0  0  0  0  0
  -25.1787  -34.2120   24.0402 C   0  0  0  0  0  0  0  0  0  0  0  0
  -25.0762  -28.8601   20.1006 C   0  0  0  0  0  0  0  0  0  0  0  0
  -25.4628  -32.8548   23.7959 C   0  0  0  0  0  0  0  0  0  0  0  0
  -24.7927  -27.5756   20.5864 C   0  0  0  0  0  0  0  0  0  0  0  0
  -29.4734  -20.2731   18.4381 C   0  0  0  0  0  0  0  0  0  0  0  0
  -29.0377  -18.2101   19.6175 C   0  0  0  0  0  0  0  0  0  0  0  0
  -22.4595   -8.4355   21.3374 C   0  0  0  0  0  0  0  0  0  0  0  0
  -27.0295  -26.8585   19.9599 C   0  0  0  0  0  0  0  0  0  0  0  0
  -21.7239   -6.2359   21.7154 C   0  0  0  0  0  0  0  0  0  0  0  0
  -22.1998   -3.7010   22.7786 C   0  0  0  0  0  0  0  0  0  0  0  0
  -30.0051  -17.5652   18.8468 C   0  0  0  0  0  0  0  0  0  0  0  0
  -20.8711   -5.7169   22.6895 C   0  0  0  0  0  0  0  0  0  0  0  0
  -25.4772  -11.3634   21.8059 C   0  0  0  0  0  0  0  0  0  0  0  0
  -27.3976  -12.4315   21.8831 C   0  0  0  0  0  0  0  0  0  0  0  0
  -29.3958  -24.5666   18.5242 C   0  0  0  0  0  0  0  0  0  0  0  0
  -27.5943  -10.0357   21.1977 C   0  0  0  0  0  0  0  0  0  0  0  0
  -29.2708  -23.8931   17.3666 C   0  0  0  0  0  0  0  0  0  0  0  0
  -29.8057  -22.4929   17.3095 C   0  0  0  0  0  0  0  0  0  0  0  0
  -23.4635  -29.9881   22.5967 C   0  0  0  0  0  0  0  0  0  0  0  0
  -21.0987  -28.1004   21.4275 C   0  0  0  0  0  0  0  0  0  0  0  0
  -20.2163  -25.3866   19.5558 C   0  0  0  0  0  0  0  0  0  0  0  0
  -27.3334  -17.9830   21.4587 C   0  0  0  0  0  0  0  0  0  0  0  0
  -23.8626  -34.6533   24.6300 C   0  0  0  0  0  0  0  0  0  0  0  0
  -24.0278  -29.9379   20.1401 C   0  0  0  0  0  0  0  0  0  0  0  0
  -23.4562  -27.2333   21.1904 C   0  0  0  0  0  0  0  0  0  0  0  0
  -22.7618  -33.6017   24.5179 C   0  0  0  0  0  0  0  0  0  0  0  0
  -25.3138  -16.5278   24.0045 C   0  0  0  0  0  0  0  0  0  0  0  0
  -23.2850  -32.2336   24.9436 C   0  0  0  0  0  0  0  0  0  0  0  0
  -25.2901  -15.0409   23.6427 C   0  0  0  0  0  0  0  0  0  0  0  0
  -25.2945  -17.4144   22.7606 C   0  0  0  0  0  0  0  0  0  0  0  0
  -26.3080  -15.6248   21.4045 C   0  0  0  0  0  0  0  0  0  0  0  0
  -24.4309  -31.7738   24.0342 C   0  0  1  0  0  0  0  0  0  0  0  0
  -22.9655  -29.6994   21.2088 C   0  0  1  0  0  0  0  0  0  0  0  0
  -26.3918  -14.6913   22.6232 C   0  0  2  0  0  0  0  0  0  0  0  0
  -28.6090  -24.3735   16.1125 C   0  0  0  0  0  0  0  0  0  0  0  0
  -18.2111  -24.0712   18.8166 C   0  0  0  0  0  0  0  0  0  0  0  0
  -20.9122  -26.8331   24.1968 C   0  0  0  0  0  0  0  0  0  0  0  0
  -19.6226  -24.9482   23.1709 C   0  0  0  0  0  0  0  0  0  0  0  0
  -18.7081  -27.2679   23.0979 C   0  0  0  0  0  0  0  0  0  0  0  0
  -20.7570  -25.9465   16.7004 C   0  0  0  0  0  0  0  0  0  0  0  0
  -28.9054  -25.9499   18.8147 C   0  0  0  0  0  0  0  0  0  1  0  0
  -20.6772  -26.6652   21.6312 C   0  0  1  0  0  0  0  0  0  0  0  0
  -19.1642  -25.2064   18.4764 C   0  0  2  0  0  0  0  0  0  0  0  0
  -20.0060  -26.4353   23.0147 C   0  0  0  0  0  0  0  0  0  0  0  0
  -25.1556  -12.6029   22.1856 N   0  0  0  0  0  0  0  0  0  0  0  0
  -26.3444  -13.2284   22.2237 N   0  0  0  0  0  0  0  0  0  0  0  0
  -22.4662  -28.3228   21.2120 N   0  0  0  0  0  0  0  0  0  0  0  0
  -26.3682  -17.0281   21.8426 N   0  0  0  0  0  0  0  0  0  0  0  0
  -28.6633  -12.9007   21.8687 N   0  0  0  0  0  0  0  0  0  0  0  0
  -26.8864   -8.8516   20.9505 N   0  0  0  0  0  0  0  0  0  0  0  0
  -29.2037  -21.6475   18.2304 N   0  0  0  0  0  0  0  0  0  0  0  0
  -28.3240  -17.4921   20.6089 N   0  0  0  0  0  0  0  0  0  0  0  0
  -23.9115  -31.2830   22.7757 N   0  0  0  0  0  0  0  0  0  0  0  0
  -19.8319  -26.3225   20.4926 N   0  0  0  0  0  0  0  0  0  0  0  0
  -19.8106  -24.9015   17.1687 N   0  3  0  0  0  0  0  0  0  0  0  0
  -28.8426  -10.0417   21.0747 O   0  0  0  0  0  0  0  0  0  0  0  0
  -30.7192  -22.2359   16.5319 O   0  0  0  0  0  0  0  0  0  0  0  0
  -23.4414  -29.1021   23.4430 O   0  0  0  0  0  0  0  0  0  0  0  0
  -20.2451  -28.9906   21.4514 O   0  0  0  0  0  0  0  0  0  0  0  0
  -21.2718  -24.7571   19.5688 O   0  0  0  0  0  0  0  0  0  0  0  0
  -27.3001  -19.1433   21.8764 O   0  0  0  0  0  0  0  0  0  0  0  0
  -21.4886   -7.4937   21.1861 O   0  0  0  0  0  0  0  0  0  0  0  0
  -27.9779  -25.8846   19.8972 O   0  0  0  0  0  0  0  0  0  1  0  0
  -22.4275   -2.4833   23.2879 F   0  0  0  0  0  0  0  0  0  0  0  0
  -30.2688  -16.2643   19.0340 F   0  0  0  0  0  0  0  0  0  0  0  0
  -19.8209   -6.4307   23.1177 F   0  0  0  0  0  0  0  0  0  0  0  0
  1  2  1  0  0  0  0
  1  5  2  0  0  0  0
  2  6  2  0  0  0  0
  3  9  2  0  0  0  0
  3 18  1  0  0  0  0
  4 10  1  0  0  0  0
  4 18  2  0  0  0  0
  5 20  1  0  0  0  0
  6 22  1  0  0  0  0
  7 11  2  0  0  0  0
  7 21  1  0  0  0  0
  8 13  2  0  0  0  0
  8 24  1  0  0  0  0
  9 26  1  0  0  0  0
 10 26  2  0  0  0  0
 11 27  1  0  0  0  0
 12 14  2  0  0  0  0
 12 28  1  0  0  0  0
 13 30  1  0  0  0  0
 14 29  1  0  0  0  0
 15 23  1  0  0  0  0
 15 27  2  0  0  0  0
 16 24  2  0  0  0  0
 16 25  1  0  0  0  0
 17 29  2  0  0  0  0
 17 31  1  0  0  0  0
 18 32  1  0  0  0  0
 19 32  1  0  0  0  0
 19 33  2  0  0  0  0
 19 35  1  0  0  0  0
 20 22  2  0  0  0  0
 20 42  1  0  0  0  0
 21 23  2  0  0  0  0
 21 43  1  0  0  0  0
 22 51  1  0  0  0  0
 23 44  1  0  0  0  0
 24 70  1  0  0  0  0
 25 30  2  0  0  0  0
 25 71  1  0  0  0  0
 26 81  1  0  0  0  0
 27 82  1  0  0  0  0
 28 31  2  0  0  0  0
 28 81  1  0  0  0  0
 29 83  1  0  0  0  0
 30 84  1  0  0  0  0
 31 85  1  0  0  0  0
 32 64  2  0  0  0  0
 33 65  1  0  0  0  0
 33 68  1  0  0  0  0
 34 36  2  0  0  0  0
 34 60  1  0  0  0  0
 35 69  1  0  0  0  0
 35 75  2  0  0  0  0
 36 37  1  0  0  0  0
 36 54  1  0  0  0  0
 37 70  1  0  0  0  0
 37 76  2  0  0  0  0
 38 52  1  0  0  0  0
 38 72  1  0  0  0  0
 38 77  2  0  0  0  0
 39 61  1  0  0  0  0
 39 66  1  0  0  0  0
 39 78  2  0  0  0  0
 40 62  1  0  0  0  0
 40 73  1  0  0  0  0
 40 79  2  0  0  0  0
 41 67  1  0  0  0  0
 41 71  1  0  0  0  0
 41 80  2  0  0  0  0
 42 45  1  0  0  0  0
 43 52  1  0  0  0  0
 44 66  1  0  0  0  0
 45 47  1  0  0  0  0
 46 48  1  0  0  0  0
 46 49  1  0  0  0  0
 47 51  1  0  0  0  0
 48 53  1  0  0  0  0
 49 67  1  0  0  0  0
 50 53  1  0  0  0  0
 50 67  1  0  0  0  0
 51 72  1  0  0  0  0
 52 66  1  0  0  0  0
 53 65  1  0  0  0  0
 55 62  1  0  0  0  0
 56 63  1  0  0  0  0
 57 63  1  0  0  0  0
 58 63  1  0  0  0  0
 59 74  1  0  0  0  0
 60 82  1  0  0  0  0
 61 63  1  0  0  0  0
 61 73  1  0  0  0  0
 62 74  1  0  0  0  0
 64 65  1  0  0  0  0
M  CHG  1  74   1
M  ISO  4  41 100  60 101  71 100  82 101
M  END
> <Batch ID>
0169

> <Smiles>
CNC(C)C(=O)NC(C(=O)N1Cc2cc([101O:1][101CH2:1]C=C(C)C(=O)Nc3ccc(F)c([100NH:0][100C:0](=O)N4CCCC(n5nc(-c6ccc(Oc7ccc(F)cc7F)cc6)c(C(N)=O)c5N)C4)c3)ccc2CC1C(=O)NC1CCCc2ccccc21)C(C)(C)C

> <Shape>
0.308

> <Color>
0.073

> <Negative vol penalty>
0.000

$$$$

  -OEChem-04052304173D

 89 97  0     1  0  0  0  0  0999 V2000
  -27.8085  -38.6409   23.9097 C   0  0  0  0  0  0  0  0  0  0  0  0
  -28.4617  -37.5150   23.4187 C   0  0  0  0  0  0  0  0  0  0  0  0
  -24.0327   -9.0882   22.4724 C   0  0  0  0  0  0  0  0  0  0  0  0
  -23.5480   -9.5628   20.1536 C   0  0  0  0  0  0  0  0  0  0  0  0
  -26.7140  -38.4947   24.7609 C   0  0  0  0  0  0  0  0  0  0  0  0
  -28.0212  -36.2421   23.7795 C   0  0  0  0  0  0  0  0  0  0  0  0
  -28.0767  -31.2034   20.2989 C   0  0  0  0  0  0  0  0  0  0  0  0
  -23.0509   -8.0974   22.4749 C   0  0  0  0  0  0  0  0  0  0  0  0
  -22.5662   -8.5720   20.1561 C   0  0  0  0  0  0  0  0  0  0  0  0
  -28.9571  -30.1249   20.2238 C   0  0  0  0  0  0  0  0  0  0  0  0
  -20.9208   -5.1969   22.9894 C   0  0  0  0  0  0  0  0  0  0  0  0
  -21.2340   -3.9751   23.5848 C   0  0  0  0  0  0  0  0  0  0  0  0
  -27.5307  -28.8651   21.7062 C   0  0  0  0  0  0  0  0  0  0  0  0
  -29.7210  -16.8811   17.9167 C   0  0  0  0  0  0  0  0  0  0  0  0
  -23.0487   -3.6768   22.0181 C   0  0  0  0  0  0  0  0  0  0  0  0
  -24.2812   -9.8209   21.3118 C   0  0  0  0  0  0  0  0  0  0  0  0
  -30.9323  -18.9101   17.4692 C   0  0  0  0  0  0  0  0  0  0  0  0
  -26.6579  -10.6909   20.9922 C   0  0  0  0  0  0  0  0  0  0  0  0
  -26.2540  -37.2192   25.1246 C   0  0  0  0  0  0  0  0  0  0  0  0
  -26.9204  -31.1246   21.0882 C   0  0  0  0  0  0  0  0  0  0  0  0
  -26.9204  -36.0787   24.6374 C   0  0  0  0  0  0  0  0  0  0  0  0
  -26.6360  -29.9430   21.7876 C   0  0  0  0  0  0  0  0  0  0  0  0
  -30.7453  -17.5490   17.2550 C   0  0  0  0  0  0  0  0  0  0  0  0
  -22.3177   -7.8393   21.3167 C   0  0  0  0  0  0  0  0  0  0  0  0
  -28.6856  -28.9566   20.9298 C   0  0  0  0  0  0  0  0  0  0  0  0
  -21.6715   -5.6587   21.9082 C   0  0  0  0  0  0  0  0  0  0  0  0
  -22.2980   -3.2150   23.0992 C   0  0  0  0  0  0  0  0  0  0  0  0
  -22.7355   -4.8986   21.4226 C   0  0  0  0  0  0  0  0  0  0  0  0
  -25.2949  -10.8449   21.3088 C   0  0  0  0  0  0  0  0  0  0  0  0
  -28.9176  -17.6139   18.7754 C   0  0  0  0  0  0  0  0  0  0  0  0
  -30.0745  -19.5521   18.3477 C   0  0  0  0  0  0  0  0  0  0  0  0
  -27.1886  -11.9493   21.1379 C   0  0  0  0  0  0  0  0  0  0  0  0
  -32.0025  -19.6260   16.7828 C   0  0  0  0  0  0  0  0  0  0  0  0
  -27.3798   -9.5155   20.6011 C   0  0  0  0  0  0  0  0  0  0  0  0
  -25.8210  -32.7009   23.6201 C   0  0  0  0  0  0  0  0  0  0  0  0
  -29.7735  -25.5812   20.2033 C   0  0  0  0  0  0  0  0  0  0  0  0
  -23.1750  -30.8957   23.1076 C   0  0  0  0  0  0  0  0  0  0  0  0
  -29.5039  -21.7605   19.4150 C   0  0  0  0  0  0  0  0  0  0  0  0
  -21.8165  -28.0535   21.7950 C   0  0  0  0  0  0  0  0  0  0  0  0
  -26.9548  -17.4559   20.3466 C   0  0  0  0  0  0  0  0  0  0  0  0
  -25.0962  -37.1118   26.0851 C   0  0  0  0  0  0  0  0  0  0  0  0
  -25.9672  -32.2871   21.1375 C   0  0  0  0  0  0  0  0  0  0  0  0
  -25.3977  -29.8004   22.6331 C   0  0  0  0  0  0  0  0  0  0  0  0
  -24.4604  -35.7244   26.1199 C   0  0  0  0  0  0  0  0  0  0  0  0
  -25.2071  -16.1461   23.1586 C   0  0  0  0  0  0  0  0  0  0  0  0
  -25.5359  -34.6465   26.2115 C   0  0  0  0  0  0  0  0  0  0  0  0
  -25.1863  -14.6375   22.9020 C   0  0  0  0  0  0  0  0  0  0  0  0
  -25.0552  -16.9436   21.8646 C   0  0  0  0  0  0  0  0  0  0  0  0
  -25.9850  -15.0820   20.5458 C   0  0  0  0  0  0  0  0  0  0  0  0
  -26.4571  -34.6808   24.9861 C   0  0  1  0  0  0  0  0  0  0  0  0
  -25.0825  -32.2821   22.3804 C   0  0  1  0  0  0  0  0  0  0  0  0
  -26.2000  -14.2372   21.8122 C   0  0  2  0  0  0  0  0  0  0  0  0
  -31.6254  -16.7811   16.3239 C   0  0  0  0  0  0  0  0  0  0  0  0
  -31.6799  -20.2360   15.4521 C   0  0  0  0  0  0  0  0  0  0  0  0
  -19.6335  -26.8369   21.5670 C   0  0  0  0  0  0  0  0  0  0  0  0
  -23.3644  -30.0147   26.0228 C   0  0  0  0  0  0  0  0  0  0  0  0
  -21.8002  -28.1355   25.4837 C   0  0  0  0  0  0  0  0  0  0  0  0
  -21.0431  -30.4986   25.2278 C   0  0  0  0  0  0  0  0  0  0  0  0
  -21.9142  -28.1935   18.8404 C   0  0  0  0  0  0  0  0  0  0  0  0
  -29.2605  -24.1502   20.2690 C   0  0  0  0  0  0  0  0  0  0  0  0
  -28.9834  -26.5982   21.0035 C   0  0  0  0  0  0  0  0  0  1  0  0
  -30.0341  -23.1892   19.3715 C   0  0  0  0  0  0  0  0  0  0  0  0
  -22.6982  -29.5413   23.5736 C   0  0  1  0  0  0  0  0  0  0  0  0
  -20.5909  -27.8305   20.9275 C   0  0  2  0  0  0  0  0  0  0  0  0
  -22.2509  -29.5506   25.0627 C   0  0  0  0  0  0  0  0  0  0  0  0
  -24.9794  -12.1020   21.6315 N   0  0  0  0  0  0  0  0  0  0  0  0
  -29.0685  -18.9369   19.0088 N   0  0  0  0  0  0  0  0  0  0  0  0
  -26.1516  -12.7494   21.5185 N   0  0  0  0  0  0  0  0  0  0  0  0
  -24.4999  -30.9669   22.6542 N   0  0  0  0  0  0  0  0  0  0  0  0
  -26.0509  -16.5132   20.8806 N   0  0  0  0  0  0  0  0  0  0  0  0
  -28.4364  -12.4385   20.9765 N   0  0  0  0  0  0  0  0  0  0  0  0
  -26.6808   -8.3048   20.5002 N   0  0  0  0  0  0  0  0  0  0  0  0
  -30.2509  -20.9374   18.5769 N   0  0  0  0  0  0  0  0  0  0  0  0
  -27.8764  -16.9245   19.4451 N   0  0  0  0  0  0  0  0  0  0  0  0
  -25.8088  -34.0636   23.8490 N   0  0  0  0  0  0  0  0  0  0  0  0
  -21.6554  -29.1319   22.6390 N   0  0  0  0  0  0  0  0  0  0  0  0
  -20.9907  -27.3048   19.5915 N   0  3  0  0  0  0  0  0  0  0  0  0
  -33.1466  -19.7597   17.2144 O   0  0  0  0  0  0  0  0  0  0  0  0
  -28.6115   -9.5347   20.3646 O   0  0  0  0  0  0  0  0  0  0  0  0
  -26.3606  -31.8505   24.3182 O   0  0  0  0  0  0  0  0  0  0  0  0
  -30.7652  -25.9012   19.5498 O   0  0  0  0  0  0  0  0  0  0  0  0
  -22.3984  -31.8536   23.1379 O   0  0  0  0  0  0  0  0  0  0  0  0
  -28.5492  -21.4397   20.1149 O   0  0  0  0  0  0  0  0  0  0  0  0
  -22.8153  -27.3400   21.7330 O   0  0  0  0  0  0  0  0  0  0  0  0
  -26.9316  -18.6417   20.6861 O   0  0  0  0  0  0  0  0  0  0  0  0
  -21.3598   -6.8724   21.3187 O   0  0  0  0  0  0  0  0  0  0  0  0
  -29.5436  -27.9027   20.8587 O   0  0  0  0  0  0  0  0  0  1  0  0
  -22.5996   -2.0424   23.6721 F   0  0  0  0  0  0  0  0  0  0  0  0
  -23.4611   -5.3376   20.3850 F   0  0  0  0  0  0  0  0  0  0  0  0
  1  2  1  0  0  0  0
  1  5  2  0  0  0  0
  2  6  2  0  0  0  0
  3  8  2  0  0  0  0
  3 16  1  0  0  0  0
  4  9  1  0  0  0  0
  4 16  2  0  0  0  0
  5 19  1  0  0  0  0
  6 21  1  0  0  0  0
  7 10  2  0  0  0  0
  7 20  1  0  0  0  0
  8 24  1  0  0  0  0
  9 24  2  0  0  0  0
 10 25  1  0  0  0  0
 11 12  2  0  0  0  0
 11 26  1  0  0  0  0
 12 27  1  0  0  0  0
 13 22  1  0  0  0  0
 13 25  2  0  0  0  0
 14 23  2  0  0  0  0
 14 30  1  0  0  0  0
 15 27  2  0  0  0  0
 15 28  1  0  0  0  0
 16 29  1  0  0  0  0
 17 23  1  0  0  0  0
 17 31  2  0  0  0  0
 17 33  1  0  0  0  0
 18 29  1  0  0  0  0
 18 32  2  0  0  0  0
 18 34  1  0  0  0  0
 19 21  2  0  0  0  0
 19 41  1  0  0  0  0
 20 22  2  0  0  0  0
 20 42  1  0  0  0  0
 21 50  1  0  0  0  0
 22 43  1  0  0  0  0
 23 53  1  0  0  0  0
 24 86  1  0  0  0  0
 25 87  1  0  0  0  0
 26 28  2  0  0  0  0
 26 86  1  0  0  0  0
 27 88  1  0  0  0  0
 28 89  1  0  0  0  0
 29 66  2  0  0  0  0
 30 67  2  0  0  0  0
 30 74  1  0  0  0  0
 31 67  1  0  0  0  0
 31 73  1  0  0  0  0
 32 68  1  0  0  0  0
 32 71  1  0  0  0  0
 33 54  1  0  0  0  0
 33 78  2  0  0  0  0
 34 72  1  0  0  0  0
 34 79  2  0  0  0  0
 35 51  1  0  0  0  0
 35 75  1  0  0  0  0
 35 80  2  0  0  0  0
 36 60  1  0  0  0  0
 36 61  1  0  0  0  0
 36 81  2  0  0  0  0
 37 63  1  0  0  0  0
 37 69  1  0  0  0  0
 37 82  2  0  0  0  0
 38 62  1  0  0  0  0
 38 73  1  0  0  0  0
 38 83  2  0  0  0  0
 39 64  1  0  0  0  0
 39 76  1  0  0  0  0
 39 84  2  0  0  0  0
 40 70  1  0  0  0  0
 40 74  1  0  0  0  0
 40 85  2  0  0  0  0
 41 44  1  0  0  0  0
 42 51  1  0  0  0  0
 43 69  1  0  0  0  0
 44 46  1  0  0  0  0
 45 47  1  0  0  0  0
 45 48  1  0  0  0  0
 46 50  1  0  0  0  0
 47 52  1  0  0  0  0
 48 70  1  0  0  0  0
 49 52  1  0  0  0  0
 49 70  1  0  0  0  0
 50 75  1  0  0  0  0
 51 69  1  0  0  0  0
 52 68  1  0  0  0  0
 55 64  1  0  0  0  0
 56 65  1  0  0  0  0
 57 65  1  0  0  0  0
 58 65  1  0  0  0  0
 59 77  1  0  0  0  0
 60 62  1  0  0  0  0
 61 87  1  0  0  0  0
 63 65  1  0  0  0  0
 63 76  1  0  0  0  0
 64 77  1  0  0  0  0
 66 68  1  0  0  0  0
M  CHG  1  77   1
M  ISO  4  40 100  61 101  74 100  87 101
M  END
> <Batch ID>
0169

> <Smiles>
CNC(C)C(=O)NC(C(=O)N1Cc2cc([101O:1][101CH2:1]C(=O)CCC(=O)Nc3nc([100NH:0][100C:0](=O)N4CCCC(n5nc(-c6ccc(Oc7ccc(F)cc7F)cc6)c(C(N)=O)c5N)C4)cc(C)c3C(C)=O)ccc2CC1C(=O)NC1CCCc2ccccc21)C(C)(C)C

> <Shape>
0.328

> <Color>
0.092

> <Negative vol penalty>
0.000

$$$$

  -OEChem-04052304173D

 87 95  0     1  0  0  0  0  0999 V2000
  -17.4398  -27.3822   19.4166 C   0  0  0  0  0  0  0  0  0  0  0  0
  -18.7313  -27.7428   19.0459 C   0  0  0  0  0  0  0  0  0  0  0  0
  -24.4362  -14.6658   20.7060 C   0  0  0  0  0  0  0  0  0  0  0  0
  -26.5951  -14.5597   21.7854 C   0  0  0  0  0  0  0  0  0  0  0  0
  -17.0915  -27.3317   20.7657 C   0  0  0  0  0  0  0  0  0  0  0  0
  -19.6750  -28.0543   20.0241 C   0  0  0  0  0  0  0  0  0  0  0  0
  -25.6872  -26.9035   19.8385 C   0  0  0  0  0  0  0  0  0  0  0  0
  -24.4919  -13.2939   20.4599 C   0  0  0  0  0  0  0  0  0  0  0  0
  -26.6507  -13.1879   21.5394 C   0  0  0  0  0  0  0  0  0  0  0  0
  -26.7843  -27.6972   19.5067 C   0  0  0  0  0  0  0  0  0  0  0  0
  -23.9889  -10.4310   22.1873 C   0  0  0  0  0  0  0  0  0  0  0  0
  -22.8446   -9.6783   22.4507 C   0  0  0  0  0  0  0  0  0  0  0  0
  -27.1336  -28.1809   21.8441 C   0  0  0  0  0  0  0  0  0  0  0  0
  -31.2586  -24.1089   20.9670 C   0  0  0  0  0  0  0  0  0  0  0  0
  -31.1827  -24.7076   23.3064 C   0  0  0  0  0  0  0  0  0  0  0  0
  -22.7563   -9.0015   20.1331 C   0  0  0  0  0  0  0  0  0  0  0  0
  -25.4879  -15.2987   21.3687 C   0  0  0  0  0  0  0  0  0  0  0  0
  -24.8959  -17.3556   22.7566 C   0  0  0  0  0  0  0  0  0  0  0  0
  -18.0340  -27.6334   21.7613 C   0  0  0  0  0  0  0  0  0  0  0  0
  -25.2978  -26.7510   21.1770 C   0  0  0  0  0  0  0  0  0  0  0  0
  -19.3385  -28.0091   21.3878 C   0  0  0  0  0  0  0  0  0  0  0  0
  -26.0327  -27.3827   22.1904 C   0  0  0  0  0  0  0  0  0  0  0  0
  -31.2073  -22.7581   21.3110 C   0  0  0  0  0  0  0  0  0  0  0  0
  -31.1436  -22.3820   22.6526 C   0  0  0  0  0  0  0  0  0  0  0  0
  -31.2463  -25.0837   21.9647 C   0  0  0  0  0  0  0  0  0  0  0  0
  -31.1313  -23.3567   23.6504 C   0  0  0  0  0  0  0  0  0  0  0  0
  -25.5991  -12.5550   20.8767 C   0  0  0  0  0  0  0  0  0  0  0  0
  -27.5060  -28.3384   20.5093 C   0  0  0  0  0  0  0  0  0  0  0  0
  -24.5169  -10.4691   20.8967 C   0  0  0  0  0  0  0  0  0  0  0  0
  -22.2283   -8.9635   21.4237 C   0  0  0  0  0  0  0  0  0  0  0  0
  -23.9006   -9.7543   19.8697 C   0  0  0  0  0  0  0  0  0  0  0  0
  -25.4313  -16.7159   21.6227 C   0  0  0  0  0  0  0  0  0  0  0  0
  -25.0830  -18.6948   22.5158 C   0  0  0  0  0  0  0  0  0  0  0  0
  -24.2842  -16.7899   23.9234 C   0  0  0  0  0  0  0  0  0  0  0  0
  -22.6875  -27.4568   22.8480 C   0  0  0  0  0  0  0  0  0  0  0  0
  -24.2405  -25.8633   25.2084 C   0  0  0  0  0  0  0  0  0  0  0  0
  -31.3611  -27.0026   20.3378 C   0  0  0  0  0  0  0  0  0  0  0  0
  -27.2050  -24.7913   26.5158 C   0  0  0  0  0  0  0  0  0  0  0  0
  -28.9911  -21.7230   19.1382 C   0  0  0  0  0  0  0  0  0  0  0  0
  -17.5977  -27.6109   23.2048 C   0  0  0  0  0  0  0  0  0  0  0  0
  -24.1281  -25.8699   21.5205 C   0  0  0  0  0  0  0  0  0  0  0  0
  -25.6680  -27.2349   23.6443 C   0  0  0  0  0  0  0  0  0  0  0  0
  -18.7613  -27.5921   24.1927 C   0  0  0  0  0  0  0  0  0  0  0  0
  -25.4388  -21.8401   18.9281 C   0  0  0  0  0  0  0  0  0  0  0  0
  -19.8084  -28.6310   23.8040 C   0  0  0  0  0  0  0  0  0  0  0  0
  -24.9858  -20.5978   19.6972 C   0  0  0  0  0  0  0  0  0  0  0  0
  -26.7254  -21.5822   18.1469 C   0  0  0  0  0  0  0  0  0  0  0  0
  -27.3871  -19.8029   19.7185 C   0  0  0  0  0  0  0  0  0  0  0  0
  -20.3972  -28.3299   22.4205 C   0  0  1  0  0  0  0  0  0  0  0  0
  -23.5095  -26.1993   22.8755 C   0  0  1  0  0  0  0  0  0  0  0  0
  -26.1240  -20.0304   20.5665 C   0  0  2  0  0  0  0  0  0  0  0  0
  -32.4315  -20.4137   23.5207 C   0  0  0  0  0  0  0  0  0  0  0  0
  -28.7645  -23.5785   28.0631 C   0  0  0  0  0  0  0  0  0  0  0  0
  -23.8171  -28.3169   26.9720 C   0  0  0  0  0  0  0  0  0  0  0  0
  -25.5653  -27.4179   28.5224 C   0  0  0  0  0  0  0  0  0  0  0  0
  -23.4670  -26.1276   28.1290 C   0  0  0  0  0  0  0  0  0  0  0  0
  -27.1049  -22.3303   24.8751 C   0  0  0  0  0  0  0  0  0  0  0  0
  -31.0888  -20.9317   23.0178 C   0  0  0  0  0  0  0  0  0  0  0  0
  -31.2231  -21.7344   20.2234 C   0  0  0  0  0  0  0  0  0  0  0  0
  -31.3994  -28.5228   20.4107 C   0  0  0  0  0  0  0  0  0  0  0  0
  -30.7600  -29.1855   19.1955 C   0  0  0  0  0  0  0  0  0  0  0  0
  -29.3109  -28.7559   19.0181 C   0  0  0  0  0  0  0  0  0  1  0  0
  -25.2088  -26.2486   26.3005 C   0  0  1  0  0  0  0  0  0  0  0  0
  -27.6403  -23.4382   27.0487 C   0  0  2  0  0  0  0  0  0  0  0  0
  -24.5205  -27.0323   27.4535 C   0  0  0  0  0  0  0  0  0  0  0  0
  -25.9216  -17.5778   20.7278 N   0  0  0  0  0  0  0  0  0  0  0  0
  -25.6950  -18.7728   21.2994 N   0  0  0  0  0  0  0  0  0  0  0  0
  -24.5126  -26.3679   23.9289 N   0  0  0  0  0  0  0  0  0  0  0  0
  -27.7649  -21.0467   19.0292 N   0  0  0  0  0  0  0  0  0  0  0  0
  -31.0671  -22.9960   25.0145 N   0  0  0  0  0  0  0  0  0  0  0  0
  -24.7821  -19.8015   23.2279 N   0  0  0  0  0  0  0  0  0  0  0  0
  -24.1718  -15.3955   24.0095 N   0  0  0  0  0  0  0  0  0  0  0  0
  -31.2969  -26.4542   21.6156 N   0  0  0  0  0  0  0  0  0  0  0  0
  -21.3639  -27.2563   22.5053 N   0  0  0  0  0  0  0  0  0  0  0  0
  -25.8600  -25.0133   26.7231 N   0  0  0  0  0  0  0  0  0  0  0  0
  -29.9187  -21.1515   20.0007 N   0  0  0  0  0  0  0  0  0  0  0  0
  -28.1182  -22.5719   25.9342 N   0  3  0  0  0  0  0  0  0  0  0  0
  -23.8352  -17.5005   24.8545 O   0  0  0  0  0  0  0  0  0  0  0  0
  -23.2147  -28.5293   23.1191 O   0  0  0  0  0  0  0  0  0  0  0  0
  -23.2820  -25.1355   25.4790 O   0  0  0  0  0  0  0  0  0  0  0  0
  -31.3866  -26.4011   19.2692 O   0  0  0  0  0  0  0  0  0  0  0  0
  -27.9813  -25.5747   25.9734 O   0  0  0  0  0  0  0  0  0  0  0  0
  -29.2389  -22.7622   18.5173 O   0  0  0  0  0  0  0  0  0  0  0  0
  -25.6536  -11.2163   20.6370 O   0  0  0  0  0  0  0  0  0  0  0  0
  -28.5769  -29.1142   20.1882 O   0  0  0  0  0  0  0  0  0  1  0  0
  -21.1302   -8.2394   21.6771 F   0  0  0  0  0  0  0  0  0  0  0  0
  -24.4039   -9.7860   18.6281 F   0  0  0  0  0  0  0  0  0  0  0  0
  1  2  1  0  0  0  0
  1  5  2  0  0  0  0
  2  6  2  0  0  0  0
  3  8  2  0  0  0  0
  3 17  1  0  0  0  0
  4  9  1  0  0  0  0
  4 17  2  0  0  0  0
  5 19  1  0  0  0  0
  6 21  1  0  0  0  0
  7 10  2  0  0  0  0
  7 20  1  0  0  0  0
  8 27  1  0  0  0  0
  9 27  2  0  0  0  0
 10 28  1  0  0  0  0
 11 12  2  0  0  0  0
 11 29  1  0  0  0  0
 12 30  1  0  0  0  0
 13 22  1  0  0  0  0
 13 28  2  0  0  0  0
 14 23  1  0  0  0  0
 14 25  2  0  0  0  0
 15 25  1  0  0  0  0
 15 26  2  0  0  0  0
 16 30  2  0  0  0  0
 16 31  1  0  0  0  0
 17 32  1  0  0  0  0
 18 32  1  0  0  0  0
 18 33  2  0  0  0  0
 18 34  1  0  0  0  0
 19 21  2  0  0  0  0
 19 40  1  0  0  0  0
 20 22  2  0  0  0  0
 20 41  1  0  0  0  0
 21 49  1  0  0  0  0
 22 42  1  0  0  0  0
 23 24  2  0  0  0  0
 23 59  1  0  0  0  0
 24 26  1  0  0  0  0
 24 58  1  0  0  0  0
 25 73  1  0  0  0  0
 26 70  1  0  0  0  0
 27 84  1  0  0  0  0
 28 85  1  0  0  0  0
 29 31  2  0  0  0  0
 29 84  1  0  0  0  0
 30 86  1  0  0  0  0
 31 87  1  0  0  0  0
 32 66  2  0  0  0  0
 33 67  1  0  0  0  0
 33 71  1  0  0  0  0
 34 72  1  0  0  0  0
 34 78  2  0  0  0  0
 35 50  1  0  0  0  0
 35 74  1  0  0  0  0
 35 79  2  0  0  0  0
 36 63  1  0  0  0  0
 36 68  1  0  0  0  0
 36 80  2  0  0  0  0
 37 60  1  0  0  0  0
 37 73  1  0  0  0  0
 37 81  2  0  0  0  0
 38 64  1  0  0  0  0
 38 75  1  0  0  0  0
 38 82  2  0  0  0  0
 39 69  1  0  0  0  0
 39 76  1  0  0  0  0
 39 83  2  0  0  0  0
 40 43  1  0  0  0  0
 41 50  1  0  0  0  0
 42 68  1  0  0  0  0
 43 45  1  0  0  0  0
 44 46  1  0  0  0  0
 44 47  1  0  0  0  0
 45 49  1  0  0  0  0
 46 51  1  0  0  0  0
 47 69  1  0  0  0  0
 48 51  1  0  0  0  0
 48 69  1  0  0  0  0
 49 74  1  0  0  0  0
 50 68  1  0  0  0  0
 51 67  1  0  0  0  0
 52 58  1  0  0  0  0
 53 64  1  0  0  0  0
 54 65  1  0  0  0  0
 55 65  1  0  0  0  0
 56 65  1  0  0  0  0
 57 77  1  0  0  0  0
 59 76  1  0  0  0  0
 60 61  1  0  0  0  0
 61 62  1  0  0  0  0
 62 85  1  0  0  0  0
 63 65  1  0  0  0  0
 63 75  1  0  0  0  0
 64 77  1  0  0  0  0
 66 67  1  0  0  0  0
M  CHG  1  77   1
M  ISO  4  39 100  62 101  76 100  85 101
M  END
> <Batch ID>
0169

> <Smiles>
CCc1c(N)cc(NC(=O)CC[101CH2:1][101O:1]c2ccc3c(c2)CN(C(=O)C(NC(=O)C(C)NC)C(C)(C)C)C(C(=O)NC2CCCc4ccccc42)C3)cc1C[100NH:0][100C:0](=O)N1CCCC(n2nc(-c3ccc(Oc4ccc(F)cc4F)cc3)c(C(N)=O)c2N)C1

> <Shape>
0.181

> <Color>
0.085

> <Negative vol penalty>
0.000

$$$$

  -OEChem-04052304173D

 87 95  0     1  0  0  0  0  0999 V2000
  -27.8913  -18.9541   14.8881 C   0  0  0  0  0  0  0  0  0  0  0  0
  -28.5216  -18.2777   15.9276 C   0  0  0  0  0  0  0  0  0  0  0  0
  -26.7088  -29.3099   19.9827 C   0  0  0  0  0  0  0  0  0  0  0  0
  -27.2069  -28.6062   22.2396 C   0  0  0  0  0  0  0  0  0  0  0  0
  -26.5121  -19.1552   14.9238 C   0  0  0  0  0  0  0  0  0  0  0  0
  -27.7731  -17.8031   17.0041 C   0  0  0  0  0  0  0  0  0  0  0  0
  -29.0365  -13.0777   18.3155 C   0  0  0  0  0  0  0  0  0  0  0  0
  -30.9451  -20.3211   24.6162 C   0  0  0  0  0  0  0  0  0  0  0  0
  -30.0930  -21.0182   23.7597 C   0  0  0  0  0  0  0  0  0  0  0  0
  -25.7235  -30.1696   20.4682 C   0  0  0  0  0  0  0  0  0  0  0  0
  -26.2216  -29.4659   22.7251 C   0  0  0  0  0  0  0  0  0  0  0  0
  -30.2019  -12.9144   19.0631 C   0  0  0  0  0  0  0  0  0  0  0  0
  -22.5388  -29.9346   21.5759 C   0  0  0  0  0  0  0  0  0  0  0  0
  -21.3095  -29.9481   20.9169 C   0  0  0  0  0  0  0  0  0  0  0  0
  -28.8795  -12.7234   21.0716 C   0  0  0  0  0  0  0  0  0  0  0  0
  -30.6331  -19.4837   21.9735 C   0  0  0  0  0  0  0  0  0  0  0  0
  -21.5988  -32.2959   20.4254 C   0  0  0  0  0  0  0  0  0  0  0  0
  -27.4505  -28.5281   20.8684 C   0  0  0  0  0  0  0  0  0  0  0  0
  -29.8285  -27.9359   20.1599 C   0  0  0  0  0  0  0  0  0  0  0  0
  -25.7450  -18.6744   15.9966 C   0  0  0  0  0  0  0  0  0  0  0  0
  -27.7824  -13.0760   18.9428 C   0  0  0  0  0  0  0  0  0  0  0  0
  -26.3825  -17.9992   17.0549 C   0  0  0  0  0  0  0  0  0  0  0  0
  -27.6996  -12.8843   20.3293 C   0  0  0  0  0  0  0  0  0  0  0  0
  -31.6413  -19.2054   24.1513 C   0  0  0  0  0  0  0  0  0  0  0  0
  -29.9369  -20.5995   22.4384 C   0  0  0  0  0  0  0  0  0  0  0  0
  -31.4853  -18.7867   22.8299 C   0  0  0  0  0  0  0  0  0  0  0  0
  -25.4799  -30.2476   21.8394 C   0  0  0  0  0  0  0  0  0  0  0  0
  -30.1237  -12.7401   20.4417 C   0  0  0  0  0  0  0  0  0  0  0  0
  -23.2981  -31.1018   21.6596 C   0  0  0  0  0  0  0  0  0  0  0  0
  -20.8395  -31.1287   20.3417 C   0  0  0  0  0  0  0  0  0  0  0  0
  -22.8281  -32.2824   21.0844 C   0  0  0  0  0  0  0  0  0  0  0  0
  -28.4680  -27.6395   20.3675 C   0  0  0  0  0  0  0  0  0  0  0  0
  -30.3650  -26.7670   19.6779 C   0  0  0  0  0  0  0  0  0  0  0  0
  -30.5434  -29.1586   20.3828 C   0  0  0  0  0  0  0  0  0  0  0  0
  -33.0051  -15.9312   20.9023 C   0  0  0  0  0  0  0  0  0  0  0  0
  -32.1286  -17.1407   21.0633 C   0  0  0  0  0  0  0  0  0  0  0  0
  -25.4266  -15.1873   19.2532 C   0  0  0  0  0  0  0  0  0  0  0  0
  -23.8925  -12.6874   20.6385 C   0  0  0  0  0  0  0  0  0  0  0  0
  -24.1113   -9.7019   22.2775 C   0  0  0  0  0  0  0  0  0  0  0  0
  -28.8027  -21.0259   20.2297 C   0  0  0  0  0  0  0  0  0  0  0  0
  -24.2637  -18.9573   16.0141 C   0  0  0  0  0  0  0  0  0  0  0  0
  -26.5331  -13.2266   18.1187 C   0  0  0  0  0  0  0  0  0  0  0  0
  -26.3764  -12.8543   21.0481 C   0  0  0  0  0  0  0  0  0  0  0  0
  -23.4906  -18.0951   17.0086 C   0  0  0  0  0  0  0  0  0  0  0  0
  -29.1807  -22.8476   17.1940 C   0  0  0  0  0  0  0  0  0  0  0  0
  -24.2038  -18.0653   18.3566 C   0  0  0  0  0  0  0  0  0  0  0  0
  -29.1707  -24.3099   17.6450 C   0  0  0  0  0  0  0  0  0  0  0  0
  -28.2178  -21.9936   18.0170 C   0  0  0  0  0  0  0  0  0  0  0  0
  -28.3869  -23.5455   19.9228 C   0  0  0  0  0  0  0  0  0  0  0  0
  -25.6014  -17.4476   18.2278 C   0  0  1  0  0  0  0  0  0  0  0  0
  -25.3393  -13.7229   18.9286 C   0  0  1  0  0  0  0  0  0  0  0  0
  -29.3892  -24.4321   19.1659 C   0  0  2  0  0  0  0  0  0  0  0  0
  -32.5472  -18.4780   25.0910 C   0  0  0  0  0  0  0  0  0  0  0  0
  -22.6870   -7.9152   23.3148 C   0  0  0  0  0  0  0  0  0  0  0  0
  -23.3757  -14.4970   23.0402 C   0  0  0  0  0  0  0  0  0  0  0  0
  -22.8251  -12.4516   24.3748 C   0  0  0  0  0  0  0  0  0  0  0  0
  -21.4418  -13.0519   22.3876 C   0  0  0  0  0  0  0  0  0  0  0  0
  -30.8827  -14.4833   22.6059 C   0  0  0  0  0  0  0  0  0  0  0  0
  -33.1064  -13.3326   22.4886 C   0  0  0  0  0  0  0  0  0  0  0  0
  -25.1458   -7.6392   20.4244 C   0  0  0  0  0  0  0  0  0  0  0  0
  -32.3154  -14.6416   20.5040 C   0  0  0  0  0  0  0  0  0  0  0  0
  -23.7783  -12.1492   22.0443 C   0  0  1  0  0  0  0  0  0  0  0  0
  -23.4043   -8.3770   22.0559 C   0  0  2  0  0  0  0  0  0  0  0  0
  -22.8804  -13.0399   22.9487 C   0  0  0  0  0  0  0  0  0  0  0  0
  -31.8728  -13.7635   21.6865 C   0  0  0  0  0  0  0  0  0  1  0  0
  -28.1593  -26.3809   20.0437 N   0  0  0  0  0  0  0  0  0  0  0  0
  -29.3333  -25.8763   19.6277 N   0  0  0  0  0  0  0  0  0  0  0  0
  -25.1838  -13.0123   20.1994 N   0  0  0  0  0  0  0  0  0  0  0  0
  -28.4870  -22.1568   19.4473 N   0  0  0  0  0  0  0  0  0  0  0  0
  -31.6137  -26.4245   19.2962 N   0  0  0  0  0  0  0  0  0  0  0  0
  -29.8391  -30.2629   20.8818 N   0  0  0  0  0  0  0  0  0  0  0  0
  -32.1826  -17.6579   22.3400 N   0  0  0  0  0  0  0  0  0  0  0  0
  -29.0712  -21.3080   21.5688 N   0  0  0  0  0  0  0  0  0  0  0  0
  -25.5108  -16.0057   18.1430 N   0  0  0  0  0  0  0  0  0  0  0  0
  -23.3179  -10.7707   21.9176 N   0  0  0  0  0  0  0  0  0  0  0  0
  -24.3848   -7.3263   21.6614 N   0  3  0  0  0  0  0  0  0  0  0  0
  -31.7669  -29.2734   20.1311 O   0  0  0  0  0  0  0  0  0  0  0  0
  -34.1967  -16.0721   21.1330 O   0  0  0  0  0  0  0  0  0  0  0  0
  -31.5239  -17.5121   20.0710 O   0  0  0  0  0  0  0  0  0  0  0  0
  -25.4168  -15.5482   20.4243 O   0  0  0  0  0  0  0  0  0  0  0  0
  -22.8743  -12.8081   19.9526 O   0  0  0  0  0  0  0  0  0  0  0  0
  -25.2519   -9.7811   22.7284 O   0  0  0  0  0  0  0  0  0  0  0  0
  -28.8595  -19.8943   19.7416 O   0  0  0  0  0  0  0  0  0  0  0  0
  -24.5187  -31.0866   22.3135 O   0  0  0  0  0  0  0  0  0  0  0  0
  -31.2597  -12.5812   21.1739 O   0  0  0  0  0  0  0  0  0  1  0  0
  -19.6597  -31.1411   19.7076 F   0  0  0  0  0  0  0  0  0  0  0  0
  -23.5536  -33.4065   21.1606 F   0  0  0  0  0  0  0  0  0  0  0  0
  1  2  1  0  0  0  0
  1  5  2  0  0  0  0
  2  6  2  0  0  0  0
  3 10  2  0  0  0  0
  3 18  1  0  0  0  0
  4 11  1  0  0  0  0
  4 18  2  0  0  0  0
  5 20  1  0  0  0  0
  6 22  1  0  0  0  0
  7 12  2  0  0  0  0
  7 21  1  0  0  0  0
  8  9  2  0  0  0  0
  8 24  1  0  0  0  0
  9 25  1  0  0  0  0
 10 27  1  0  0  0  0
 11 27  2  0  0  0  0
 12 28  1  0  0  0  0
 13 14  2  0  0  0  0
 13 29  1  0  0  0  0
 14 30  1  0  0  0  0
 15 23  1  0  0  0  0
 15 28  2  0  0  0  0
 16 25  2  0  0  0  0
 16 26  1  0  0  0  0
 17 30  2  0  0  0  0
 17 31  1  0  0  0  0
 18 32  1  0  0  0  0
 19 32  1  0  0  0  0
 19 33  2  0  0  0  0
 19 34  1  0  0  0  0
 20 22  2  0  0  0  0
 20 41  1  0  0  0  0
 21 23  2  0  0  0  0
 21 42  1  0  0  0  0
 22 50  1  0  0  0  0
 23 43  1  0  0  0  0
 24 26  2  0  0  0  0
 24 53  1  0  0  0  0
 25 73  1  0  0  0  0
 26 72  1  0  0  0  0
 27 84  1  0  0  0  0
 28 85  1  0  0  0  0
 29 31  2  0  0  0  0
 29 84  1  0  0  0  0
 30 86  1  0  0  0  0
 31 87  1  0  0  0  0
 32 66  2  0  0  0  0
 33 67  1  0  0  0  0
 33 70  1  0  0  0  0
 34 71  1  0  0  0  0
 34 77  2  0  0  0  0
 35 36  1  0  0  0  0
 35 61  1  0  0  0  0
 35 78  2  0  0  0  0
 36 72  1  0  0  0  0
 36 79  2  0  0  0  0
 37 51  1  0  0  0  0
 37 74  1  0  0  0  0
 37 80  2  0  0  0  0
 38 62  1  0  0  0  0
 38 68  1  0  0  0  0
 38 81  2  0  0  0  0
 39 63  1  0  0  0  0
 39 75  1  0  0  0  0
 39 82  2  0  0  0  0
 40 69  1  0  0  0  0
 40 73  1  0  0  0  0
 40 83  2  0  0  0  0
 41 44  1  0  0  0  0
 42 51  1  0  0  0  0
 43 68  1  0  0  0  0
 44 46  1  0  0  0  0
 45 47  1  0  0  0  0
 45 48  1  0  0  0  0
 46 50  1  0  0  0  0
 47 52  1  0  0  0  0
 48 69  1  0  0  0  0
 49 52  1  0  0  0  0
 49 69  1  0  0  0  0
 50 74  1  0  0  0  0
 51 68  1  0  0  0  0
 52 67  1  0  0  0  0
 54 63  1  0  0  0  0
 55 64  1  0  0  0  0
 56 64  1  0  0  0  0
 57 64  1  0  0  0  0
 58 65  1  0  0  0  0
 59 65  1  0  0  0  0
 60 76  1  0  0  0  0
 61 65  1  0  0  0  0
 62 64  1  0  0  0  0
 62 75  1  0  0  0  0
 63 76  1  0  0  0  0
 65 85  1  0  0  0  0
 66 67  1  0  0  0  0
M  CHG  1  76   1
M  ISO  4  40 100  65 101  73 100  85 101
M  END
> <Batch ID>
0169

> <Smiles>
CNC(C)C(=O)NC(C(=O)N1Cc2cc([101O:1][101C:1](C)(C)CC(=O)C(=O)Nc3cc([100NH:0][100C:0](=O)N4CCCC(n5nc(-c6ccc(Oc7ccc(F)cc7F)cc6)c(C(N)=O)c5N)C4)ccc3C)ccc2CC1C(=O)NC1CCCc2ccccc21)C(C)(C)C

> <Shape>
0.282

> <Color>
0.070

> <Negative vol penalty>
0.000

$$$$

  -OEChem-04052304173D

 84 93  0     1  0  0  0  0  0999 V2000
  -27.0720  -34.5018   25.3519 C   0  0  0  0  0  0  0  0  0  0  0  0
  -27.4259  -33.2561   24.8435 C   0  0  0  0  0  0  0  0  0  0  0  0
  -23.9943  -12.5634   23.4186 C   0  0  0  0  0  0  0  0  0  0  0  0
  -25.9361  -13.0688   22.0729 C   0  0  0  0  0  0  0  0  0  0  0  0
  -25.7424  -34.7692   25.6754 C   0  0  0  0  0  0  0  0  0  0  0  0
  -26.4505  -32.2767   24.6595 C   0  0  0  0  0  0  0  0  0  0  0  0
  -29.6300  -21.3244   20.6549 C   0  0  0  0  0  0  0  0  0  0  0  0
  -28.0895  -23.1514   21.0097 C   0  0  0  0  0  0  0  0  0  0  0  0
  -26.8809  -29.9204   20.1976 C   0  0  0  0  0  0  0  0  0  0  0  0
  -28.9958  -20.5944   21.6601 C   0  0  0  0  0  0  0  0  0  0  0  0
  -27.4552  -22.4214   22.0149 C   0  0  0  0  0  0  0  0  0  0  0  0
  -23.5560  -11.6627   22.4479 C   0  0  0  0  0  0  0  0  0  0  0  0
  -25.4978  -12.1681   21.1022 C   0  0  0  0  0  0  0  0  0  0  0  0
  -27.8710  -28.9453   20.0855 C   0  0  0  0  0  0  0  0  0  0  0  0
  -24.2663   -8.5014   21.4812 C   0  0  0  0  0  0  0  0  0  0  0  0
  -23.8039   -7.2580   21.9122 C   0  0  0  0  0  0  0  0  0  0  0  0
  -26.2086  -27.2283   20.4136 C   0  0  0  0  0  0  0  0  0  0  0  0
  -21.6485   -7.7161   20.9215 C   0  0  0  0  0  0  0  0  0  0  0  0
  -25.1843  -13.2665   23.2311 C   0  0  0  0  0  0  0  0  0  0  0  0
  -26.4715  -13.9230   25.3334 C   0  0  0  0  0  0  0  0  0  0  0  0
  -29.1769  -22.6030   20.3297 C   0  0  0  0  0  0  0  0  0  0  0  0
  -24.7487  -33.7959   25.4862 C   0  0  0  0  0  0  0  0  0  0  0  0
  -25.5467  -29.5567   20.4299 C   0  0  0  0  0  0  0  0  0  0  0  0
  -25.1066  -32.5309   24.9821 C   0  0  0  0  0  0  0  0  0  0  0  0
  -25.2031  -28.2007   20.5258 C   0  0  0  0  0  0  0  0  0  0  0  0
  -27.9083  -21.1429   22.3401 C   0  0  0  0  0  0  0  0  0  0  0  0
  -24.3078  -11.4650   21.2898 C   0  0  0  0  0  0  0  0  0  0  0  0
  -27.5354  -27.5991   20.1963 C   0  0  0  0  0  0  0  0  0  0  0  0
  -23.4197   -9.3522   20.7704 C   0  0  0  0  0  0  0  0  0  0  0  0
  -22.4951   -6.8653   21.6323 C   0  0  0  0  0  0  0  0  0  0  0  0
  -22.1109   -8.9595   20.4905 C   0  0  0  0  0  0  0  0  0  0  0  0
  -25.6373  -14.1975   24.2332 C   0  0  0  0  0  0  0  0  0  0  0  0
  -26.6026  -15.1305   25.9746 C   0  0  0  0  0  0  0  0  0  0  0  0
  -29.1383  -24.9310   17.8603 C   0  0  0  0  0  0  0  0  0  0  0  0
  -27.0741  -12.6870   25.7395 C   0  0  0  0  0  0  0  0  0  0  0  0
  -23.4490  -30.0900   22.7579 C   0  0  0  0  0  0  0  0  0  0  0  0
  -21.4047  -28.6009   20.7267 C   0  0  0  0  0  0  0  0  0  0  0  0
  -20.9705  -26.4421   18.1194 C   0  0  0  0  0  0  0  0  0  0  0  0
  -26.1720  -20.7985   24.1325 C   0  0  0  0  0  0  0  0  0  0  0  0
  -23.3325  -34.1153   25.8949 C   0  0  0  0  0  0  0  0  0  0  0  0
  -24.4863  -30.6195   20.5219 C   0  0  0  0  0  0  0  0  0  0  0  0
  -23.7821  -27.7569   20.7548 C   0  0  0  0  0  0  0  0  0  0  0  0
  -22.2998  -33.1502   25.3184 C   0  0  0  0  0  0  0  0  0  0  0  0
  -24.2740  -19.2491   26.7159 C   0  0  0  0  0  0  0  0  0  0  0  0
  -22.7607  -31.7069   25.4954 C   0  0  0  0  0  0  0  0  0  0  0  0
  -24.4891  -17.7529   26.4762 C   0  0  0  0  0  0  0  0  0  0  0  0
  -24.1815  -20.0261   25.4039 C   0  0  0  0  0  0  0  0  0  0  0  0
  -25.5131  -18.3144   24.2350 C   0  0  0  0  0  0  0  0  0  0  0  0
  -24.0733  -31.4510   24.7450 C   0  0  1  0  0  0  0  0  0  0  0  0
  -29.8558  -23.3842   19.2541 C   0  0  1  0  0  0  0  0  0  0  0  0
  -30.1646  -25.6579   18.6777 C   0  0  1  0  0  0  0  0  0  0  0  0
  -23.2405  -30.1574   21.2714 C   0  0  1  0  0  0  0  0  0  0  0  0
  -25.6774  -17.4992   25.5281 C   0  0  2  0  0  0  0  0  0  0  0  0
  -19.1808  -25.3954   16.7057 C   0  0  0  0  0  0  0  0  0  0  0  0
  -20.7067  -26.7082   23.0159 C   0  0  0  0  0  0  0  0  0  0  0  0
  -19.6880  -25.1599   21.3326 C   0  0  0  0  0  0  0  0  0  0  0  0
  -18.7522  -27.4513   21.6439 C   0  0  0  0  0  0  0  0  0  0  0  0
  -31.9096  -24.5879   20.1542 C   0  0  0  0  0  0  0  0  0  0  0  0
  -22.0489  -27.6604   15.6472 C   0  0  0  0  0  0  0  0  0  0  0  0
  -29.6203  -26.9461   19.2569 C   0  0  0  0  0  0  0  0  0  1  0  0
  -20.9847  -27.1702   20.4910 C   0  0  1  0  0  0  0  0  0  0  0  0
  -20.1556  -26.5545   16.8436 C   0  0  2  0  0  0  0  0  0  0  0  0
  -20.0601  -26.6305   21.6185 C   0  0  0  0  0  0  0  0  0  0  0  0
  -25.2646  -15.4788   24.1757 N   0  0  0  0  0  0  0  0  0  0  0  0
  -28.9220  -23.6850   18.1368 N   0  0  0  0  0  0  0  0  0  0  0  0
  -25.8673  -16.0202   25.2479 N   0  0  0  0  0  0  0  0  0  0  0  0
  -22.7823  -28.8339   20.8441 N   0  0  0  0  0  0  0  0  0  0  0  0
  -25.3428  -19.7395   24.5589 N   0  0  0  0  0  0  0  0  0  0  0  0
  -27.2739  -15.5075   27.0835 N   0  0  0  0  0  0  0  0  0  0  0  0
  -26.8359  -11.5420   24.9671 N   0  0  0  0  0  0  0  0  0  0  0  0
  -27.2637  -20.4014   23.3610 N   0  0  0  0  0  0  0  0  0  0  0  0
  -23.8230  -31.2916   23.3285 N   0  0  0  0  0  0  0  0  0  0  0  0
  -20.3879  -27.1339   19.1602 N   0  0  0  0  0  0  0  0  0  0  0  0
  -30.4671  -24.6784   19.7730 N   0  3  2  0  0  0  0  0  0  0  0  0
  -21.0534  -26.5576   15.6541 N   0  3  0  0  0  0  0  0  0  0  0  0
  -27.7889  -12.5970   26.7664 O   0  0  0  0  0  0  0  0  0  0  0  0
  -23.2815  -29.0269   23.3439 O   0  0  0  0  0  0  0  0  0  0  0  0
  -20.5427  -29.4805   20.7968 O   0  0  0  0  0  0  0  0  0  0  0  0
  -22.0171  -25.8014   18.1870 O   0  0  0  0  0  0  0  0  0  0  0  0
  -25.9466  -21.9685   24.4526 O   0  0  0  0  0  0  0  0  0  0  0  0
  -23.8805  -10.5860   20.3425 O   0  0  0  0  0  0  0  0  0  0  0  0
  -28.4999  -26.6453   20.0879 O   0  0  0  0  0  0  0  0  0  1  0  0
  -22.0517   -5.6706   22.0450 F   0  0  0  0  0  0  0  0  0  0  0  0
  -21.2933   -9.7721   19.8070 F   0  0  0  0  0  0  0  0  0  0  0  0
  1  2  1  0  0  0  0
  1  5  2  0  0  0  0
  2  6  2  0  0  0  0
  3 12  2  0  0  0  0
  3 19  1  0  0  0  0
  4 13  1  0  0  0  0
  4 19  2  0  0  0  0
  5 22  1  0  0  0  0
  6 24  1  0  0  0  0
  7 10  2  0  0  0  0
  7 21  1  0  0  0  0
  8 11  1  0  0  0  0
  8 21  2  0  0  0  0
  9 14  2  0  0  0  0
  9 23  1  0  0  0  0
 10 26  1  0  0  0  0
 11 26  2  0  0  0  0
 12 27  1  0  0  0  0
 13 27  2  0  0  0  0
 14 28  1  0  0  0  0
 15 16  2  0  0  0  0
 15 29  1  0  0  0  0
 16 30  1  0  0  0  0
 17 25  1  0  0  0  0
 17 28  2  0  0  0  0
 18 30  2  0  0  0  0
 18 31  1  0  0  0  0
 19 32  1  0  0  0  0
 20 32  1  0  0  0  0
 20 33  2  0  0  0  0
 20 35  1  0  0  0  0
 21 50  1  0  0  0  0
 22 24  2  0  0  0  0
 22 40  1  0  0  0  0
 23 25  2  0  0  0  0
 23 41  1  0  0  0  0
 24 49  1  0  0  0  0
 25 42  1  0  0  0  0
 26 71  1  0  0  0  0
 27 81  1  0  0  0  0
 28 82  1  0  0  0  0
 29 31  2  0  0  0  0
 29 81  1  0  0  0  0
 30 83  1  0  0  0  0
 31 84  1  0  0  0  0
 32 64  2  0  0  0  0
 33 66  1  0  0  0  0
 33 69  1  0  0  0  0
 34 51  1  0  0  0  0
 34 65  2  0  0  0  0
 35 70  1  0  0  0  0
 35 76  2  0  0  0  0
 36 52  1  0  0  0  0
 36 72  1  0  0  0  0
 36 77  2  0  0  0  0
 37 61  1  0  0  0  0
 37 67  1  0  0  0  0
 37 78  2  0  0  0  0
 38 62  1  0  0  0  0
 38 73  1  0  0  0  0
 38 79  2  0  0  0  0
 39 68  1  0  0  0  0
 39 71  1  0  0  0  0
 39 80  2  0  0  0  0
 40 43  1  0  0  0  0
 41 52  1  0  0  0  0
 42 67  1  0  0  0  0
 43 45  1  0  0  0  0
 44 46  1  0  0  0  0
 44 47  1  0  0  0  0
 45 49  1  0  0  0  0
 46 53  1  0  0  0  0
 47 68  1  0  0  0  0
 48 53  1  0  0  0  0
 48 68  1  0  0  0  0
 49 72  1  0  0  0  0
 50 65  1  0  0  0  0
 50 74  1  0  0  0  0
 51 60  1  0  0  0  0
 51 74  1  0  0  0  0
 52 67  1  0  0  0  0
 53 66  1  0  0  0  0
 54 62  1  0  0  0  0
 55 63  1  0  0  0  0
 56 63  1  0  0  0  0
 57 63  1  0  0  0  0
 58 74  1  0  0  0  0
 59 75  1  0  0  0  0
 60 82  1  0  0  0  0
 61 63  1  0  0  0  0
 61 73  1  0  0  0  0
 62 75  1  0  0  0  0
 64 66  1  0  0  0  0
M  CHG  2  74   1  75   1
M  ISO  4  39 100  60 101  71 100  82 101
M  END
> <Batch ID>
0169

> <Smiles>
CNC(C)C(=O)NC(C(=O)N1Cc2cc([101O:1][101CH2:1]C3C=NC(c4ccc([100NH:0][100C:0](=O)N5CCCC(n6nc(-c7ccc(Oc8ccc(F)cc8F)cc7)c(C(N)=O)c6N)C5)cc4)N3C)ccc2CC1C(=O)NC1CCCc2ccccc21)C(C)(C)C

> <Shape>
0.265

> <Color>
0.066

> <Negative vol penalty>
0.000

$$$$

  -OEChem-04052304173D

 85 94  0     1  0  0  0  0  0999 V2000
  -27.8900  -35.4546   25.0549 C   0  0  0  0  0  0  0  0  0  0  0  0
  -28.3299  -34.3760   24.2943 C   0  0  0  0  0  0  0  0  0  0  0  0
  -32.7976  -18.7403   19.1704 C   0  0  0  0  0  0  0  0  0  0  0  0
  -23.3663  -12.2412   23.6503 C   0  0  0  0  0  0  0  0  0  0  0  0
  -24.5829  -14.2526   24.2082 C   0  0  0  0  0  0  0  0  0  0  0  0
  -26.7318  -35.3387   25.8224 C   0  0  0  0  0  0  0  0  0  0  0  0
  -27.6124  -33.1804   24.3016 C   0  0  0  0  0  0  0  0  0  0  0  0
  -32.0895  -19.9004   19.4838 C   0  0  0  0  0  0  0  0  0  0  0  0
  -26.8727  -29.3020   19.6201 C   0  0  0  0  0  0  0  0  0  0  0  0
  -32.2222  -17.4897   19.3954 C   0  0  0  0  0  0  0  0  0  0  0  0
  -22.8039  -12.2272   24.9266 C   0  0  0  0  0  0  0  0  0  0  0  0
  -24.0204  -14.2387   25.4846 C   0  0  0  0  0  0  0  0  0  0  0  0
  -27.5150  -28.1132   19.2764 C   0  0  0  0  0  0  0  0  0  0  0  0
  -20.3118  -13.8174   26.5680 C   0  0  0  0  0  0  0  0  0  0  0  0
  -18.9430  -13.5697   26.6705 C   0  0  0  0  0  0  0  0  0  0  0  0
  -30.2305  -18.5594   20.2473 C   0  0  0  0  0  0  0  0  0  0  0  0
  -25.7590  -26.8596   20.3555 C   0  0  0  0  0  0  0  0  0  0  0  0
  -19.3973  -11.6177   28.0198 C   0  0  0  0  0  0  0  0  0  0  0  0
  -24.2559  -13.2538   23.2911 C   0  0  0  0  0  0  0  0  0  0  0  0
  -24.1560  -13.3479   20.7437 C   0  0  0  0  0  0  0  0  0  0  0  0
  -30.8059  -19.8100   20.0222 C   0  0  0  0  0  0  0  0  0  0  0  0
  -25.9944  -34.1442   25.8316 C   0  0  0  0  0  0  0  0  0  0  0  0
  -25.6724  -29.2787   20.3447 C   0  0  0  0  0  0  0  0  0  0  0  0
  -26.4439  -33.0479   25.0710 C   0  0  0  0  0  0  0  0  0  0  0  0
  -25.1022  -28.0494   20.7049 C   0  0  0  0  0  0  0  0  0  0  0  0
  -30.9386  -17.3993   19.9338 C   0  0  0  0  0  0  0  0  0  0  0  0
  -23.1309  -13.2260   25.8438 C   0  0  0  0  0  0  0  0  0  0  0  0
  -26.9597  -26.8919   19.6466 C   0  0  0  0  0  0  0  0  0  0  0  0
  -21.2234  -12.9652   27.1913 C   0  0  0  0  0  0  0  0  0  0  0  0
  -18.4857  -12.4699   27.3965 C   0  0  0  0  0  0  0  0  0  0  0  0
  -20.7662  -11.8654   27.9172 C   0  0  0  0  0  0  0  0  0  0  0  0
  -24.8376  -13.2684   21.9729 C   0  0  0  0  0  0  0  0  0  0  0  0
  -25.1512  -13.3274   19.7974 C   0  0  0  0  0  0  0  0  0  0  0  0
  -28.6520  -23.7735   20.1074 C   0  0  0  0  0  0  0  0  0  0  0  0
  -22.7491  -13.4329   20.4809 C   0  0  0  0  0  0  0  0  0  0  0  0
  -24.7463  -30.3611   23.1863 C   0  0  0  0  0  0  0  0  0  0  0  0
  -21.8278  -29.3646   22.1805 C   0  0  0  0  0  0  0  0  0  0  0  0
  -18.6478  -28.2354   21.6716 C   0  0  0  0  0  0  0  0  0  0  0  0
  -30.9203  -14.8803   19.9059 C   0  0  0  0  0  0  0  0  0  0  0  0
  -24.7747  -34.0508   26.7138 C   0  0  0  0  0  0  0  0  0  0  0  0
  -24.9782  -30.5691   20.6845 C   0  0  0  0  0  0  0  0  0  0  0  0
  -23.8048  -27.9695   21.4658 C   0  0  0  0  0  0  0  0  0  0  0  0
  -29.7777  -24.0924   21.0654 C   0  0  0  0  0  0  0  0  0  0  0  0
  -23.8658  -32.8724   26.3738 C   0  0  0  0  0  0  0  0  0  0  0  0
  -29.5903  -11.6860   19.0662 C   0  0  0  0  0  0  0  0  0  0  0  0
  -24.6869  -31.5995   26.1938 C   0  0  0  0  0  0  0  0  0  0  0  0
  -28.1567  -11.7388   19.5990 C   0  0  0  0  0  0  0  0  0  0  0  0
  -29.8694  -21.9812   19.1357 C   0  0  0  0  0  0  0  0  0  0  0  0
  -30.5641  -12.4223   19.9846 C   0  0  0  0  0  0  0  0  0  0  0  0
  -28.7540  -13.8569   20.8415 C   0  0  0  0  0  0  0  0  0  0  0  0
  -29.9605  -22.9763   22.0764 C   0  0  0  0  0  0  0  0  0  0  0  0
  -25.6792  -31.7426   25.0335 C   0  0  1  0  0  0  0  0  0  0  0  0
  -30.0359  -21.0726   20.3631 C   0  0  2  0  0  0  0  0  0  0  0  0
  -24.0264  -30.4414   21.8699 C   0  0  1  0  0  0  0  0  0  0  0  0
  -27.7263  -13.1843   19.9168 C   0  0  2  0  0  0  0  0  0  0  0  0
  -16.5717  -27.5687   22.9137 C   0  0  0  0  0  0  0  0  0  0  0  0
  -23.1405  -26.7198   22.9500 C   0  0  0  0  0  0  0  0  0  0  0  0
  -20.8523  -25.7668   23.3024 C   0  0  0  0  0  0  0  0  0  0  0  0
  -21.6317  -27.6828   24.6967 C   0  0  0  0  0  0  0  0  0  0  0  0
  -17.0486  -30.3600   20.3725 C   0  0  0  0  0  0  0  0  0  0  0  0
  -27.4081  -24.6213   20.1938 C   0  0  0  0  0  0  0  0  0  1  0  0
  -21.0505  -28.0734   22.2674 C   0  0  1  0  0  0  0  0  0  0  0  0
  -17.3127  -28.7027   22.2225 C   0  0  2  0  0  0  0  0  0  0  0  0
  -21.6760  -27.0720   23.2790 C   0  0  0  0  0  0  0  0  0  0  0  0
  -26.1633  -13.2021   21.8241 N   0  0  0  0  0  0  0  0  0  0  0  0
  -28.6756  -22.8189   19.2437 N   0  0  0  0  0  0  0  0  0  0  0  0
  -26.3227  -13.2399   20.4902 N   0  0  0  0  0  0  0  0  0  0  0  0
  -23.1674  -29.2588   21.7802 N   0  0  0  0  0  0  0  0  0  0  0  0
  -30.0939  -13.7859   20.2378 N   0  0  0  0  0  0  0  0  0  0  0  0
  -25.1297  -13.3758   18.4484 N   0  0  0  0  0  0  0  0  0  0  0  0
  -21.8656  -13.4425   21.5688 N   0  0  0  0  0  0  0  0  0  0  0  0
  -30.3541  -16.1287   20.1616 N   0  0  0  0  0  0  0  0  0  0  0  0
  -24.9992  -31.5901   23.7651 N   0  0  0  0  0  0  0  0  0  0  0  0
  -19.6727  -28.4459   22.5696 N   0  0  0  0  0  0  0  0  0  0  0  0
  -30.7212  -21.8425   21.4688 N   0  3  0  0  0  0  0  0  0  0  0  0
  -16.4527  -29.2248   21.1230 N   0  3  0  0  0  0  0  0  0  0  0  0
  -22.2882  -13.4817   19.3153 O   0  0  0  0  0  0  0  0  0  0  0  0
  -25.0486  -29.2652   23.6438 O   0  0  0  0  0  0  0  0  0  0  0  0
  -21.2651  -30.4285   22.4507 O   0  0  0  0  0  0  0  0  0  0  0  0
  -18.7687  -27.7304   20.5576 O   0  0  0  0  0  0  0  0  0  0  0  0
  -32.0363  -14.7221   19.4045 O   0  0  0  0  0  0  0  0  0  0  0  0
  -22.5821  -13.2129   27.0892 O   0  0  0  0  0  0  0  0  0  0  0  0
  -27.5848  -25.7301   19.3130 O   0  0  0  0  0  0  0  0  0  1  0  0
  -17.1711  -12.2330   27.4961 F   0  0  0  0  0  0  0  0  0  0  0  0
  -21.6371  -11.0439   28.5192 F   0  0  0  0  0  0  0  0  0  0  0  0
  1  2  1  0  0  0  0
  1  6  2  0  0  0  0
  2  7  2  0  0  0  0
  3  8  2  0  0  0  0
  3 10  1  0  0  0  0
  4 11  2  0  0  0  0
  4 19  1  0  0  0  0
  5 12  1  0  0  0  0
  5 19  2  0  0  0  0
  6 22  1  0  0  0  0
  7 24  1  0  0  0  0
  8 21  1  0  0  0  0
  9 13  2  0  0  0  0
  9 23  1  0  0  0  0
 10 26  2  0  0  0  0
 11 27  1  0  0  0  0
 12 27  2  0  0  0  0
 13 28  1  0  0  0  0
 14 15  2  0  0  0  0
 14 29  1  0  0  0  0
 15 30  1  0  0  0  0
 16 21  2  0  0  0  0
 16 26  1  0  0  0  0
 17 25  1  0  0  0  0
 17 28  2  0  0  0  0
 18 30  2  0  0  0  0
 18 31  1  0  0  0  0
 19 32  1  0  0  0  0
 20 32  1  0  0  0  0
 20 33  2  0  0  0  0
 20 35  1  0  0  0  0
 21 53  1  0  0  0  0
 22 24  2  0  0  0  0
 22 40  1  0  0  0  0
 23 25  2  0  0  0  0
 23 41  1  0  0  0  0
 24 52  1  0  0  0  0
 25 42  1  0  0  0  0
 26 72  1  0  0  0  0
 27 82  1  0  0  0  0
 28 83  1  0  0  0  0
 29 31  2  0  0  0  0
 29 82  1  0  0  0  0
 30 84  1  0  0  0  0
 31 85  1  0  0  0  0
 32 65  2  0  0  0  0
 33 67  1  0  0  0  0
 33 70  1  0  0  0  0
 34 43  1  0  0  0  0
 34 61  1  0  0  0  0
 34 66  2  0  0  0  0
 35 71  1  0  0  0  0
 35 77  2  0  0  0  0
 36 54  1  0  0  0  0
 36 73  1  0  0  0  0
 36 78  2  0  0  0  0
 37 62  1  0  0  0  0
 37 68  1  0  0  0  0
 37 79  2  0  0  0  0
 38 63  1  0  0  0  0
 38 74  1  0  0  0  0
 38 80  2  0  0  0  0
 39 69  1  0  0  0  0
 39 72  1  0  0  0  0
 39 81  2  0  0  0  0
 40 44  1  0  0  0  0
 41 54  1  0  0  0  0
 42 68  1  0  0  0  0
 43 51  1  0  0  0  0
 44 46  1  0  0  0  0
 45 47  1  0  0  0  0
 45 49  1  0  0  0  0
 46 52  1  0  0  0  0
 47 55  1  0  0  0  0
 48 53  1  0  0  0  0
 48 66  1  0  0  0  0
 49 69  1  0  0  0  0
 50 55  1  0  0  0  0
 50 69  1  0  0  0  0
 51 75  1  0  0  0  0
 52 73  1  0  0  0  0
 53 75  1  0  0  0  0
 54 68  1  0  0  0  0
 55 67  1  0  0  0  0
 56 63  1  0  0  0  0
 57 64  1  0  0  0  0
 58 64  1  0  0  0  0
 59 64  1  0  0  0  0
 60 76  1  0  0  0  0
 61 83  1  0  0  0  0
 62 64  1  0  0  0  0
 62 74  1  0  0  0  0
 63 76  1  0  0  0  0
 65 67  1  0  0  0  0
M  CHG  2  75   1  76   1
M  ISO  4  39 100  61 101  72 100  83 101
M  END
> <Batch ID>
0169

> <Smiles>
CNC(C)C(=O)NC(C(=O)N1Cc2cc([101O:1][101CH2:1]C3=NCC(c4cccc([100NH:0][100C:0](=O)N5CCCC(n6nc(-c7ccc(Oc8ccc(F)cc8F)cc7)c(C(N)=O)c6N)C5)c4)NCC3)ccc2CC1C(=O)NC1CCCc2ccccc21)C(C)(C)C

> <Shape>
0.292

> <Color>
0.094

> <Negative vol penalty>
0.000

$$$$

  -OEChem-04052304173D

 90 98  0     1  0  0  0  0  0999 V2000
  -19.4489  -33.6033   20.5787 C   0  0  0  0  0  0  0  0  0  0  0  0
  -20.7143  -33.1424   20.2301 C   0  0  0  0  0  0  0  0  0  0  0  0
  -21.9023  -13.5780   24.3597 C   0  0  0  0  0  0  0  0  0  0  0  0
  -21.5617  -15.0549   22.4783 C   0  0  0  0  0  0  0  0  0  0  0  0
  -28.9158  -21.0675   18.7128 C   0  0  0  0  0  0  0  0  0  0  0  0
  -18.8299  -33.1299   21.7349 C   0  0  0  0  0  0  0  0  0  0  0  0
  -21.3621  -32.2086   21.0381 C   0  0  0  0  0  0  0  0  0  0  0  0
  -25.0758  -27.6983   19.2018 C   0  0  0  0  0  0  0  0  0  0  0  0
  -20.7017  -14.0145   24.9197 C   0  0  0  0  0  0  0  0  0  0  0  0
  -20.3610  -15.4914   23.0383 C   0  0  0  0  0  0  0  0  0  0  0  0
  -26.4647  -27.5900   19.1487 C   0  0  0  0  0  0  0  0  0  0  0  0
  -17.3849  -17.2593   24.1460 C   0  0  0  0  0  0  0  0  0  0  0  0
  -28.3833  -19.9900   18.0049 C   0  0  0  0  0  0  0  0  0  0  0  0
  -17.1300  -18.6306   24.1454 C   0  0  0  0  0  0  0  0  0  0  0  0
  -26.4525  -26.4651   21.2827 C   0  0  0  0  0  0  0  0  0  0  0  0
  -19.1197  -19.0010   25.4649 C   0  0  0  0  0  0  0  0  0  0  0  0
  -22.3323  -14.0982   23.1390 C   0  0  0  0  0  0  0  0  0  0  0  0
  -29.3183  -20.9008   20.0380 C   0  0  0  0  0  0  0  0  0  0  0  0
  -23.7561  -12.5667   21.6779 C   0  0  0  0  0  0  0  0  0  0  0  0
  -19.4663  -32.1826   22.5523 C   0  0  0  0  0  0  0  0  0  0  0  0
  -24.3645  -27.1998   20.3027 C   0  0  0  0  0  0  0  0  0  0  0  0
  -20.7516  -31.7231   22.2070 C   0  0  0  0  0  0  0  0  0  0  0  0
  -25.0543  -26.5661   21.3462 C   0  0  0  0  0  0  0  0  0  0  0  0
  -28.6556  -18.5793   19.9473 C   0  0  0  0  0  0  0  0  0  0  0  0
  -19.9310  -14.9711   24.2590 C   0  0  0  0  0  0  0  0  0  0  0  0
  -27.1536  -26.9759   20.1906 C   0  0  0  0  0  0  0  0  0  0  0  0
  -18.5072  -16.7588   24.8061 C   0  0  0  0  0  0  0  0  0  0  0  0
  -17.9973  -19.5015   24.8048 C   0  0  0  0  0  0  0  0  0  0  0  0
  -28.2532  -18.7460   18.6222 C   0  0  0  0  0  0  0  0  0  0  0  0
  -19.3745  -17.6296   25.4655 C   0  0  0  0  0  0  0  0  0  0  0  0
  -29.1882  -19.6568   20.6552 C   0  0  0  0  0  0  0  0  0  0  0  0
  -23.5727  -13.6482   22.5603 C   0  0  0  0  0  0  0  0  0  0  0  0
  -25.1059  -12.5558   21.4240 C   0  0  0  0  0  0  0  0  0  0  0  0
  -29.8813  -22.0437   20.7846 C   0  0  0  0  0  0  0  0  0  0  0  0
  -22.7926  -11.6536   21.1362 C   0  0  0  0  0  0  0  0  0  0  0  0
  -22.4918  -28.4795   22.5296 C   0  0  0  0  0  0  0  0  0  0  0  0
  -33.4332  -23.2994   21.3691 C   0  0  0  0  0  0  0  0  0  0  0  0
  -30.3904  -25.3426   20.1156 C   0  0  0  0  0  0  0  0  0  0  0  0
  -22.0345  -25.3805   23.3717 C   0  0  0  0  0  0  0  0  0  0  0  0
  -23.2006  -22.1732   23.3620 C   0  0  0  0  0  0  0  0  0  0  0  0
  -29.3240  -16.7851   21.5845 C   0  0  0  0  0  0  0  0  0  0  0  0
  -18.7774  -31.7357   23.8174 C   0  0  0  0  0  0  0  0  0  0  0  0
  -22.8641  -27.3007   20.3323 C   0  0  0  0  0  0  0  0  0  0  0  0
  -24.3357  -25.9963   22.5409 C   0  0  0  0  0  0  0  0  0  0  0  0
  -19.3738  -30.4662   24.4199 C   0  0  0  0  0  0  0  0  0  0  0  0
  -29.3004  -13.7308   23.4141 C   0  0  0  0  0  0  0  0  0  0  0  0
  -20.8960  -30.5574   24.4578 C   0  0  0  0  0  0  0  0  0  0  0  0
  -27.8469  -13.2614   23.3174 C   0  0  0  0  0  0  0  0  0  0  0  0
  -29.3987  -15.2503   23.5374 C   0  0  0  0  0  0  0  0  0  0  0  0
  -27.2303  -15.5355   22.4033 C   0  0  0  0  0  0  0  0  0  0  0  0
  -21.4760  -30.6917   23.0446 C   0  0  1  0  0  0  0  0  0  0  0  0
  -22.2872  -27.2163   21.7421 C   0  0  1  0  0  0  0  0  0  0  0  0
  -27.0831  -14.0171   22.2123 C   0  0  2  0  0  0  0  0  0  0  0  0
  -34.9289  -23.3264   21.1882 C   0  0  0  0  0  0  0  0  0  0  0  0
  -22.6245  -19.8652   24.1611 C   0  0  0  0  0  0  0  0  0  0  0  0
  -22.8501  -26.1610   26.2065 C   0  0  0  0  0  0  0  0  0  0  0  0
  -23.1764  -23.7297   26.7072 C   0  0  0  0  0  0  0  0  0  0  0  0
  -20.9176  -24.5789   26.0752 C   0  0  0  0  0  0  0  0  0  0  0  0
  -23.1252  -21.1104   20.6010 C   0  0  0  0  0  0  0  0  0  0  0  0
  -32.6322  -24.2017   20.4439 C   0  0  0  0  0  0  0  0  0  0  0  0
  -29.0968  -25.7470   20.7986 C   0  0  0  0  0  0  0  0  0  1  0  0
  -31.1351  -24.1702   20.7279 C   0  0  2  0  0  0  0  0  0  0  0  0
  -22.7191  -24.4151   24.3089 C   0  0  1  0  0  0  0  0  0  0  0  0
  -22.5279  -20.8578   23.0131 C   0  0  2  0  0  0  0  0  0  0  0  0
  -22.4298  -24.7335   25.8030 C   0  0  0  0  0  0  0  0  0  0  0  0
  -24.7147  -14.2785   22.8478 N   0  0  0  0  0  0  0  0  0  0  0  0
  -25.6286  -13.5909   22.1420 N   0  0  0  0  0  0  0  0  0  0  0  0
  -22.8692  -26.1252   22.5265 N   0  0  0  0  0  0  0  0  0  0  0  0
  -28.6552  -15.8986   22.4549 N   0  0  0  0  0  0  0  0  0  0  0  0
  -25.8848  -11.7619   20.6589 N   0  0  0  0  0  0  0  0  0  0  0  0
  -21.4480  -11.8070   21.5009 N   0  0  0  0  0  0  0  0  0  0  0  0
  -28.5225  -17.3156   20.5742 N   0  0  0  0  0  0  0  0  0  0  0  0
  -30.5502  -22.9872   20.1049 N   0  0  0  0  0  0  0  0  0  0  0  0
  -21.4802  -29.4082   22.3759 N   0  0  0  0  0  0  0  0  0  0  0  0
  -22.3065  -23.0793   23.8918 N   0  0  0  0  0  0  0  0  0  0  0  0
  -29.6996  -22.0826   22.1047 N   0  3  0  0  0  0  0  0  0  0  0  0
  -23.1686  -20.2511   21.8120 N   0  3  0  0  0  0  0  0  0  0  0  0
  -23.1166  -10.7190   20.3648 O   0  0  0  0  0  0  0  0  0  0  0  0
  -23.4925  -28.6019   23.2262 O   0  0  0  0  0  0  0  0  0  0  0  0
  -32.9119  -22.5818   22.2213 O   0  0  0  0  0  0  0  0  0  0  0  0
  -30.8031  -25.9305   19.1161 O   0  0  0  0  0  0  0  0  0  0  0  0
  -20.8039  -25.4653   23.3840 O   0  0  0  0  0  0  0  0  0  0  0  0
  -24.4001  -22.3752   23.1860 O   0  0  0  0  0  0  0  0  0  0  0  0
  -30.5262  -17.0329   21.7087 O   0  0  0  0  0  0  0  0  0  0  0  0
  -18.7593  -15.3971   24.8051 O   0  0  0  0  0  0  0  0  0  0  0  0
  -28.5094  -26.8694   20.1416 O   0  0  0  0  0  0  0  0  0  1  0  0
  -17.7533  -20.8185   24.8029 F   0  0  0  0  0  0  0  0  0  0  0  0
  -27.7401  -17.7175   17.9318 F   0  0  0  0  0  0  0  0  0  0  0  0
  -20.4550  -17.1548   26.1004 F   0  0  0  0  0  0  0  0  0  0  0  0
  -29.5751  -19.4986   21.9303 F   0  0  0  0  0  0  0  0  0  0  0  0
  1  2  1  0  0  0  0
  1  6  2  0  0  0  0
  2  7  2  0  0  0  0
  3  9  2  0  0  0  0
  3 17  1  0  0  0  0
  4 10  1  0  0  0  0
  4 17  2  0  0  0  0
  5 13  2  0  0  0  0
  5 18  1  0  0  0  0
  6 20  1  0  0  0  0
  7 22  1  0  0  0  0
  8 11  2  0  0  0  0
  8 21  1  0  0  0  0
  9 25  1  0  0  0  0
 10 25  2  0  0  0  0
 11 26  1  0  0  0  0
 12 14  2  0  0  0  0
 12 27  1  0  0  0  0
 13 29  1  0  0  0  0
 14 28  1  0  0  0  0
 15 23  1  0  0  0  0
 15 26  2  0  0  0  0
 16 28  2  0  0  0  0
 16 30  1  0  0  0  0
 17 32  1  0  0  0  0
 18 31  2  0  0  0  0
 18 34  1  0  0  0  0
 19 32  1  0  0  0  0
 19 33  2  0  0  0  0
 19 35  1  0  0  0  0
 20 22  2  0  0  0  0
 20 42  1  0  0  0  0
 21 23  2  0  0  0  0
 21 43  1  0  0  0  0
 22 51  1  0  0  0  0
 23 44  1  0  0  0  0
 24 29  2  0  0  0  0
 24 31  1  0  0  0  0
 24 72  1  0  0  0  0
 25 85  1  0  0  0  0
 26 86  1  0  0  0  0
 27 30  2  0  0  0  0
 27 85  1  0  0  0  0
 28 87  1  0  0  0  0
 29 88  1  0  0  0  0
 30 89  1  0  0  0  0
 31 90  1  0  0  0  0
 32 66  2  0  0  0  0
 33 67  1  0  0  0  0
 33 70  1  0  0  0  0
 34 73  1  0  0  0  0
 34 76  2  0  0  0  0
 35 71  1  0  0  0  0
 35 78  2  0  0  0  0
 36 52  1  0  0  0  0
 36 74  1  0  0  0  0
 36 79  2  0  0  0  0
 37 54  1  0  0  0  0
 37 60  1  0  0  0  0
 37 80  2  0  0  0  0
 38 61  1  0  0  0  0
 38 62  1  0  0  0  0
 38 81  2  0  0  0  0
 39 63  1  0  0  0  0
 39 68  1  0  0  0  0
 39 82  2  0  0  0  0
 40 64  1  0  0  0  0
 40 75  1  0  0  0  0
 40 83  2  0  0  0  0
 41 69  1  0  0  0  0
 41 72  1  0  0  0  0
 41 84  2  0  0  0  0
 42 45  1  0  0  0  0
 43 52  1  0  0  0  0
 44 68  1  0  0  0  0
 45 47  1  0  0  0  0
 46 48  1  0  0  0  0
 46 49  1  0  0  0  0
 47 51  1  0  0  0  0
 48 53  1  0  0  0  0
 49 69  1  0  0  0  0
 50 53  1  0  0  0  0
 50 69  1  0  0  0  0
 51 74  1  0  0  0  0
 52 68  1  0  0  0  0
 53 67  1  0  0  0  0
 55 64  1  0  0  0  0
 56 65  1  0  0  0  0
 57 65  1  0  0  0  0
 58 65  1  0  0  0  0
 59 77  1  0  0  0  0
 60 62  1  0  0  0  0
 61 86  1  0  0  0  0
 62 73  1  0  0  0  0
 63 65  1  0  0  0  0
 63 75  1  0  0  0  0
 64 77  1  0  0  0  0
 66 67  1  0  0  0  0
M  CHG  2  76   1  77   1
M  ISO  4  41 100  61 101  72 100  86 101
M  END
> <Batch ID>
0169

> <Smiles>
CNC(C)C(=O)NC(C(=O)N1Cc2cc([101O:1][101CH2:1]C(=O)C(CC(C)=O)NC(=N)c3ccc(F)c([100NH:0][100C:0](=O)N4CCCC(n5nc(-c6ccc(Oc7ccc(F)cc7F)cc6)c(C(N)=O)c5N)C4)c3F)ccc2CC1C(=O)NC1CCCc2ccccc21)C(C)(C)C

> <Shape>
0.187

> <Color>
0.093

> <Negative vol penalty>
0.000

$$$$

  -OEChem-04052304173D

 89 97  0     1  0  0  0  0  0999 V2000
  -16.5935  -28.9883   23.4743 C   0  0  0  0  0  0  0  0  0  0  0  0
  -17.2542  -28.5563   22.3287 C   0  0  0  0  0  0  0  0  0  0  0  0
  -26.3873  -12.3383   19.8788 C   0  0  0  0  0  0  0  0  0  0  0  0
  -25.0400  -14.1880   20.6536 C   0  0  0  0  0  0  0  0  0  0  0  0
  -17.2049  -29.9081   24.3252 C   0  0  0  0  0  0  0  0  0  0  0  0
  -18.5263  -29.0448   22.0328 C   0  0  0  0  0  0  0  0  0  0  0  0
  -21.7189  -25.3939   20.5756 C   0  0  0  0  0  0  0  0  0  0  0  0
  -25.6648  -11.4695   20.6966 C   0  0  0  0  0  0  0  0  0  0  0  0
  -24.3175  -13.3192   21.4714 C   0  0  0  0  0  0  0  0  0  0  0  0
  -21.6004  -24.9297   19.2663 C   0  0  0  0  0  0  0  0  0  0  0  0
  -23.9390   -8.7061   22.3091 C   0  0  0  0  0  0  0  0  0  0  0  0
  -23.5250   -7.4925   21.7602 C   0  0  0  0  0  0  0  0  0  0  0  0
  -28.9062  -24.5442   16.4128 C   0  0  0  0  0  0  0  0  0  0  0  0
  -23.4672  -26.3114   18.6141 C   0  0  0  0  0  0  0  0  0  0  0  0
  -30.2283  -22.9932   17.7104 C   0  0  0  0  0  0  0  0  0  0  0  0
  -22.2571   -8.6834   20.0834 C   0  0  0  0  0  0  0  0  0  0  0  0
  -26.0749  -13.6976   19.8573 C   0  0  0  0  0  0  0  0  0  0  0  0
  -28.1825  -23.4790   15.8770 C   0  0  0  0  0  0  0  0  0  0  0  0
  -26.5340  -14.9451   17.6800 C   0  0  0  0  0  0  0  0  0  0  0  0
  -18.4891  -30.4008   24.0446 C   0  0  0  0  0  0  0  0  0  0  0  0
  -22.7071  -26.3301   20.9122 C   0  0  0  0  0  0  0  0  0  0  0  0
  -19.1549  -29.9731   22.8800 C   0  0  0  0  0  0  0  0  0  0  0  0
  -23.5977  -26.7839   19.9289 C   0  0  0  0  0  0  0  0  0  0  0  0
  -29.5046  -21.9280   17.1745 C   0  0  0  0  0  0  0  0  0  0  0  0
  -24.6299  -11.9599   21.4929 C   0  0  0  0  0  0  0  0  0  0  0  0
  -22.4728  -25.3906   18.2847 C   0  0  0  0  0  0  0  0  0  0  0  0
  -23.5121   -9.9084   21.7452 C   0  0  0  0  0  0  0  0  0  0  0  0
  -22.6841   -7.4811   20.6473 C   0  0  0  0  0  0  0  0  0  0  0  0
  -29.9292  -24.3013   17.3295 C   0  0  0  0  0  0  0  0  0  0  0  0
  -22.6712   -9.8970   20.6324 C   0  0  0  0  0  0  0  0  0  0  0  0
  -28.4816  -22.1709   16.2578 C   0  0  0  0  0  0  0  0  0  0  0  0
  -26.8212  -14.5956   19.0131 C   0  0  0  0  0  0  0  0  0  0  0  0
  -27.5335  -15.8202   17.3315 C   0  0  0  0  0  0  0  0  0  0  0  0
  -27.0999  -23.7398   14.9072 C   0  0  0  0  0  0  0  0  0  0  0  0
  -25.4596  -14.5170   16.8325 C   0  0  0  0  0  0  0  0  0  0  0  0
  -22.6905  -29.3006   22.0435 C   0  0  0  0  0  0  0  0  0  0  0  0
  -24.6561  -22.3590   13.4347 C   0  0  0  0  0  0  0  0  0  0  0  0
  -23.4871  -23.7440   15.2266 C   0  0  0  0  0  0  0  0  0  0  0  0
  -25.9007  -28.8531   22.1746 C   0  0  0  0  0  0  0  0  0  0  0  0
  -28.6432  -27.1859   21.0146 C   0  0  0  0  0  0  0  0  0  0  0  0
  -30.7956  -20.1890   18.4612 C   0  0  0  0  0  0  0  0  0  0  0  0
  -19.0899  -31.4297   24.9693 C   0  0  0  0  0  0  0  0  0  0  0  0
  -22.8387  -26.8008   22.3348 C   0  0  0  0  0  0  0  0  0  0  0  0
  -24.6887  -27.7736   20.2429 C   0  0  0  0  0  0  0  0  0  0  0  0
  -20.5935  -31.6141   24.7807 C   0  0  0  0  0  0  0  0  0  0  0  0
  -31.8373  -17.0215   19.7099 C   0  0  0  0  0  0  0  0  0  0  0  0
  -20.9348  -31.7344   23.2988 C   0  0  0  0  0  0  0  0  0  0  0  0
  -30.6015  -16.1368   19.5302 C   0  0  0  0  0  0  0  0  0  0  0  0
  -31.4607  -18.4483   20.1052 C   0  0  0  0  0  0  0  0  0  0  0  0
  -29.2507  -18.2161   19.0415 C   0  0  0  0  0  0  0  0  0  0  0  0
  -20.5459  -30.4611   22.5379 C   0  0  1  0  0  0  0  0  0  0  0  0
  -23.5543  -28.1426   22.4564 C   0  0  1  0  0  0  0  0  0  0  0  0
  -29.5767  -16.7863   18.5797 C   0  0  2  0  0  0  0  0  0  0  0  0
  -24.1379  -22.5839   12.0371 C   0  0  0  0  0  0  0  0  0  0  0  0
  -31.1352  -27.0648   21.2847 C   0  0  0  0  0  0  0  0  0  0  0  0
  -26.1988  -31.4198   20.5520 C   0  0  0  0  0  0  0  0  0  0  0  0
  -28.5573  -30.7463   20.0504 C   0  0  0  0  0  0  0  0  0  0  0  0
  -27.8550  -31.1606   22.4078 C   0  0  0  0  0  0  0  0  0  0  0  0
  -28.5261  -24.3659   21.9050 C   0  0  0  0  0  0  0  0  0  0  0  0
  -23.5546  -24.8808   16.2291 C   0  0  0  0  0  0  0  0  0  1  0  0
  -24.7019  -23.5614   14.3460 C   0  0  1  0  0  0  0  0  0  0  0  0
  -27.0510  -29.0769   21.2230 C   0  0  1  0  0  0  0  0  0  0  0  0
  -29.7937  -26.5118   21.7401 C   0  0  2  0  0  0  0  0  0  0  0  0
  -27.3938  -30.5837   21.0516 C   0  0  0  0  0  0  0  0  0  0  0  0
  -27.9175  -15.1994   19.4797 N   0  0  0  0  0  0  0  0  0  0  0  0
  -28.3280  -15.9369   18.4339 N   0  0  0  0  0  0  0  0  0  0  0  0
  -24.7727  -28.2088   21.6469 N   0  0  0  0  0  0  0  0  0  0  0  0
  -30.4901  -19.0004   19.1575 N   0  0  0  0  0  0  0  0  0  0  0  0
  -27.8017  -16.4935   16.1925 N   0  0  0  0  0  0  0  0  0  0  0  0
  -24.5197  -13.6150   17.3494 N   0  0  0  0  0  0  0  0  0  0  0  0
  -29.8111  -20.6004   17.5633 N   0  0  0  0  0  0  0  0  0  0  0  0
  -25.8520  -23.3448   15.2110 N   0  0  0  0  0  0  0  0  0  0  0  0
  -21.5204  -29.4165   22.7694 N   0  0  0  0  0  0  0  0  0  0  0  0
  -28.1565  -28.2654   21.7209 N   0  0  0  0  0  0  0  0  0  0  0  0
  -27.4125  -24.3564   13.7673 N   0  3  0  0  0  0  0  0  0  0  0  0
  -29.7790  -25.0438   21.4834 N   0  3  0  0  0  0  0  0  0  0  0  0
  -25.3460  -14.9097   15.6466 O   0  0  0  0  0  0  0  0  0  0  0  0
  -23.0591  -30.0354   21.1348 O   0  0  0  0  0  0  0  0  0  0  0  0
  -25.0354  -21.2456   13.7974 O   0  0  0  0  0  0  0  0  0  0  0  0
  -22.4959  -23.0197   15.1384 O   0  0  0  0  0  0  0  0  0  0  0  0
  -26.0020  -29.2295   23.3449 O   0  0  0  0  0  0  0  0  0  0  0  0
  -28.2211  -26.7962   19.9281 O   0  0  0  0  0  0  0  0  0  0  0  0
  -31.8643  -20.7823   18.6278 O   0  0  0  0  0  0  0  0  0  0  0  0
  -23.9246  -11.1124   22.2909 O   0  0  0  0  0  0  0  0  0  0  0  0
  -22.3590  -24.9397   17.0058 O   0  0  0  0  0  0  0  0  0  1  0  0
  -22.2878   -6.3156   20.1194 F   0  0  0  0  0  0  0  0  0  0  0  0
  -30.6239  -25.3242   17.8441 F   0  0  0  0  0  0  0  0  0  0  0  0
  -22.2586  -11.0488   20.0856 F   0  0  0  0  0  0  0  0  0  0  0  0
  -27.7849  -21.1473   15.7413 F   0  0  0  0  0  0  0  0  0  0  0  0
  1  2  1  0  0  0  0
  1  5  2  0  0  0  0
  2  6  2  0  0  0  0
  3  8  2  0  0  0  0
  3 17  1  0  0  0  0
  4  9  1  0  0  0  0
  4 17  2  0  0  0  0
  5 20  1  0  0  0  0
  6 22  1  0  0  0  0
  7 10  2  0  0  0  0
  7 21  1  0  0  0  0
  8 25  1  0  0  0  0
  9 25  2  0  0  0  0
 10 26  1  0  0  0  0
 11 12  2  0  0  0  0
 11 27  1  0  0  0  0
 12 28  1  0  0  0  0
 13 18  1  0  0  0  0
 13 29  2  0  0  0  0
 14 23  1  0  0  0  0
 14 26  2  0  0  0  0
 15 24  2  0  0  0  0
 15 29  1  0  0  0  0
 16 28  2  0  0  0  0
 16 30  1  0  0  0  0
 17 32  1  0  0  0  0
 18 31  2  0  0  0  0
 18 34  1  0  0  0  0
 19 32  1  0  0  0  0
 19 33  2  0  0  0  0
 19 35  1  0  0  0  0
 20 22  2  0  0  0  0
 20 42  1  0  0  0  0
 21 23  2  0  0  0  0
 21 43  1  0  0  0  0
 22 51  1  0  0  0  0
 23 44  1  0  0  0  0
 24 31  1  0  0  0  0
 24 71  1  0  0  0  0
 25 84  1  0  0  0  0
 26 85  1  0  0  0  0
 27 30  2  0  0  0  0
 27 84  1  0  0  0  0
 28 86  1  0  0  0  0
 29 87  1  0  0  0  0
 30 88  1  0  0  0  0
 31 89  1  0  0  0  0
 32 65  2  0  0  0  0
 33 66  1  0  0  0  0
 33 69  1  0  0  0  0
 34 72  1  0  0  0  0
 34 75  2  0  0  0  0
 35 70  1  0  0  0  0
 35 77  2  0  0  0  0
 36 52  1  0  0  0  0
 36 73  1  0  0  0  0
 36 78  2  0  0  0  0
 37 54  1  0  0  0  0
 37 61  1  0  0  0  0
 37 79  2  0  0  0  0
 38 60  1  0  0  0  0
 38 61  1  0  0  0  0
 38 80  2  0  0  0  0
 39 62  1  0  0  0  0
 39 67  1  0  0  0  0
 39 81  2  0  0  0  0
 40 63  1  0  0  0  0
 40 74  1  0  0  0  0
 40 82  2  0  0  0  0
 41 68  1  0  0  0  0
 41 71  1  0  0  0  0
 41 83  2  0  0  0  0
 42 45  1  0  0  0  0
 43 52  1  0  0  0  0
 44 67  1  0  0  0  0
 45 47  1  0  0  0  0
 46 48  1  0  0  0  0
 46 49  1  0  0  0  0
 47 51  1  0  0  0  0
 48 53  1  0  0  0  0
 49 68  1  0  0  0  0
 50 53  1  0  0  0  0
 50 68  1  0  0  0  0
 51 73  1  0  0  0  0
 52 67  1  0  0  0  0
 53 66  1  0  0  0  0
 55 63  1  0  0  0  0
 56 64  1  0  0  0  0
 57 64  1  0  0  0  0
 58 64  1  0  0  0  0
 59 76  1  0  0  0  0
 60 85  1  0  0  0  0
 61 72  1  0  0  0  0
 62 64  1  0  0  0  0
 62 74  1  0  0  0  0
 63 76  1  0  0  0  0
 65 66  1  0  0  0  0
M  CHG  2  75   1  76   1
M  ISO  4  41 100  60 101  71 100  85 101
M  END
> <Batch ID>
0169

> <Smiles>
CNC(C)C(=O)NC(C(=O)N1Cc2cc([101O:1][101CH2:1]C(=O)C(NC(=N)c3cc(F)cc([100NH:0][100C:0](=O)N4CCCC(n5nc(-c6ccc(Oc7ccc(F)cc7F)cc6)c(C(N)=O)c5N)C4)c3F)C(C)=O)ccc2CC1C(=O)NC1CCCc2ccccc21)C(C)(C)C

> <Shape>
0.251

> <Color>
0.080

> <Negative vol penalty>
0.000

$$$$

  -OEChem-04052304173D

 88 97  0     1  0  0  0  0  0999 V2000
  -15.8319  -30.9619   20.9492 C   0  0  0  0  0  0  0  0  0  0  0  0
  -17.0107  -31.6224   20.6181 C   0  0  0  0  0  0  0  0  0  0  0  0
  -27.2599  -10.7877   19.9416 C   0  0  0  0  0  0  0  0  0  0  0  0
  -26.3396  -12.5896   18.6211 C   0  0  0  0  0  0  0  0  0  0  0  0
  -15.8098  -30.0746   22.0244 C   0  0  0  0  0  0  0  0  0  0  0  0
  -18.1678  -31.3969   21.3627 C   0  0  0  0  0  0  0  0  0  0  0  0
  -25.2296  -29.0053   19.0306 C   0  0  0  0  0  0  0  0  0  0  0  0
  -26.0713  -10.0728   19.7944 C   0  0  0  0  0  0  0  0  0  0  0  0
  -25.1510  -11.8746   18.4738 C   0  0  0  0  0  0  0  0  0  0  0  0
  -26.4750  -28.4370   18.7622 C   0  0  0  0  0  0  0  0  0  0  0  0
  -22.9748  -10.0830   21.1493 C   0  0  0  0  0  0  0  0  0  0  0  0
  -22.4419   -9.4723   22.2845 C   0  0  0  0  0  0  0  0  0  0  0  0
  -26.5989  -27.6106   21.0315 C   0  0  0  0  0  0  0  0  0  0  0  0
  -29.7859  -21.5993   18.3776 C   0  0  0  0  0  0  0  0  0  0  0  0
  -22.6143   -7.3173   21.2059 C   0  0  0  0  0  0  0  0  0  0  0  0
  -29.0990  -20.0866   16.7521 C   0  0  0  0  0  0  0  0  0  0  0  0
  -27.3941  -12.0462   19.3550 C   0  0  0  0  0  0  0  0  0  0  0  0
  -29.9086  -12.3900   19.0965 C   0  0  0  0  0  0  0  0  0  0  0  0
  -16.9697  -29.8307   22.7767 C   0  0  0  0  0  0  0  0  0  0  0  0
  -24.6564  -28.8650   20.2976 C   0  0  0  0  0  0  0  0  0  0  0  0
  -18.1609  -30.5065   22.4499 C   0  0  0  0  0  0  0  0  0  0  0  0
  -25.3460  -28.1670   21.3026 C   0  0  0  0  0  0  0  0  0  0  0  0
  -29.4323  -20.2518   18.0784 C   0  0  0  0  0  0  0  0  0  0  0  0
  -25.0169  -10.6162   19.0605 C   0  0  0  0  0  0  0  0  0  0  0  0
  -27.1581  -27.7416   19.7603 C   0  0  0  0  0  0  0  0  0  0  0  0
  -23.3274   -9.3109   20.0424 C   0  0  0  0  0  0  0  0  0  0  0  0
  -22.2617   -8.0894   22.3128 C   0  0  0  0  0  0  0  0  0  0  0  0
  -23.1472   -7.9280   20.0707 C   0  0  0  0  0  0  0  0  0  0  0  0
  -28.6214  -12.7855   19.5071 C   0  0  0  0  0  0  0  0  0  0  0  0
  -29.7095  -22.4127   17.2684 C   0  0  0  0  0  0  0  0  0  0  0  0
  -30.7225  -13.4327   19.4663 C   0  0  0  0  0  0  0  0  0  0  0  0
  -29.6205  -25.1806   19.3295 C   0  0  0  0  0  0  0  0  0  0  0  0
  -30.3307  -11.1875   18.4395 C   0  0  0  0  0  0  0  0  0  0  0  0
  -31.7587  -25.7185   17.1317 C   0  0  0  0  0  0  0  0  0  0  0  0
  -21.7400  -29.5929   22.5427 C   0  0  0  0  0  0  0  0  0  0  0  0
  -22.6104  -26.7085   23.1196 C   0  0  0  0  0  0  0  0  0  0  0  0
  -23.6118  -23.4477   23.1555 C   0  0  0  0  0  0  0  0  0  0  0  0
  -29.7387  -19.2564   20.3722 C   0  0  0  0  0  0  0  0  0  0  0  0
  -16.8852  -28.8987   23.9594 C   0  0  0  0  0  0  0  0  0  0  0  0
  -23.3449  -29.5131   20.6494 C   0  0  0  0  0  0  0  0  0  0  0  0
  -24.7065  -28.0710   22.6608 C   0  0  0  0  0  0  0  0  0  0  0  0
  -29.0343  -24.7290   18.0117 C   0  0  0  0  0  0  0  0  0  0  0  0
  -18.2476  -28.4315   24.4653 C   0  0  0  0  0  0  0  0  0  0  0  0
  -31.0805  -16.9341   22.7139 C   0  0  0  0  0  0  0  0  0  0  0  0
  -19.2067  -29.6118   24.5833 C   0  0  0  0  0  0  0  0  0  0  0  0
  -30.7246  -15.5706   22.1168 C   0  0  0  0  0  0  0  0  0  0  0  0
  -29.9746  -17.9617   22.4801 C   0  0  0  0  0  0  0  0  0  0  0  0
  -29.1933  -16.7454   20.4852 C   0  0  0  0  0  0  0  0  0  0  0  0
  -19.4429  -30.2694   23.2183 C   0  0  1  0  0  0  0  0  0  0  0  0
  -30.0036  -23.9069   17.1637 C   0  0  1  0  0  0  0  0  0  0  0  0
  -22.5031  -28.6779   21.6307 C   0  0  1  0  0  0  0  0  0  0  0  0
  -30.3052  -15.6947   20.6389 C   0  0  2  0  0  0  0  0  0  0  0  0
  -31.4467  -24.2937   17.5320 C   0  0  1  0  0  0  0  0  0  0  0  0
  -31.6409  -26.0518   15.6690 C   0  0  0  0  0  0  0  0  0  0  0  0
  -33.8812  -23.8023   17.2524 C   0  0  0  0  0  0  0  0  0  0  0  0
  -23.1372  -21.2536   24.2772 C   0  0  0  0  0  0  0  0  0  0  0  0
  -24.0744  -27.6723   25.6159 C   0  0  0  0  0  0  0  0  0  0  0  0
  -24.4060  -25.2759   26.2604 C   0  0  0  0  0  0  0  0  0  0  0  0
  -22.0994  -26.2055   26.0654 C   0  0  0  0  0  0  0  0  0  0  0  0
  -22.8724  -22.1652   20.5928 C   0  0  0  0  0  0  0  0  0  0  0  0
  -28.7211  -26.0077   20.2161 C   0  0  0  0  0  0  0  0  0  1  0  0
  -32.5005  -23.4306   16.8289 C   0  0  0  0  0  0  0  0  0  0  0  0
  -23.4479  -25.7858   23.9684 C   0  0  1  0  0  0  0  0  0  0  0  0
  -22.8247  -22.1512   23.0900 C   0  0  2  0  0  0  0  0  0  0  0  0
  -23.5162  -26.2445   25.4524 C   0  0  0  0  0  0  0  0  0  0  0  0
  -28.6132  -13.9857   20.0931 N   0  0  0  0  0  0  0  0  0  0  0  0
  -30.8275  -24.9535   19.7465 N   0  0  0  0  0  0  0  0  0  0  0  0
  -29.9052  -14.3534   20.0534 N   0  0  0  0  0  0  0  0  0  0  0  0
  -23.2693  -27.7890   22.5206 N   0  0  0  0  0  0  0  0  0  0  0  0
  -29.6326  -18.0277   21.0576 N   0  0  0  0  0  0  0  0  0  0  0  0
  -32.0503  -13.6426   19.3434 N   0  0  0  0  0  0  0  0  0  0  0  0
  -30.3420  -11.1605   17.0383 N   0  0  0  0  0  0  0  0  0  0  0  0
  -29.4187  -19.1901   19.0166 N   0  0  0  0  0  0  0  0  0  0  0  0
  -20.3671  -29.4818   22.4310 N   0  0  0  0  0  0  0  0  0  0  0  0
  -22.8978  -24.4475   23.7814 N   0  0  0  0  0  0  0  0  0  0  0  0
  -23.1527  -21.4087   21.8402 N   0  3  0  0  0  0  0  0  0  0  0  0
  -30.6717  -10.1619   19.0761 O   0  0  0  0  0  0  0  0  0  0  0  0
  -32.0905  -26.5639   17.9614 O   0  0  0  0  0  0  0  0  0  0  0  0
  -22.3506  -30.3441   23.2941 O   0  0  0  0  0  0  0  0  0  0  0  0
  -21.4035  -26.4831   22.9939 O   0  0  0  0  0  0  0  0  0  0  0  0
  -24.7478  -23.5609   22.7004 O   0  0  0  0  0  0  0  0  0  0  0  0
  -30.1140  -20.2856   20.9396 O   0  0  0  0  0  0  0  0  0  0  0  0
  -31.6402  -24.1413   18.9323 O   0  0  0  0  0  0  0  0  0  0  0  0
  -23.8570   -9.9187   18.9164 O   0  0  0  0  0  0  0  0  0  0  0  0
  -28.3715  -27.1855   19.4902 O   0  0  0  0  0  0  0  0  0  1  0  0
  -21.7514   -7.5029   23.4036 F   0  0  0  0  0  0  0  0  0  0  0  0
  -23.4851   -7.1809   19.0108 F   0  0  0  0  0  0  0  0  0  0  0  0
  -29.2129  -21.5522   15.8737 S   0  0  0  0  0  0  0  0  0  0  0  0
  1  2  1  0  0  0  0
  1  5  2  0  0  0  0
  2  6  2  0  0  0  0
  3  8  2  0  0  0  0
  3 17  1  0  0  0  0
  4  9  1  0  0  0  0
  4 17  2  0  0  0  0
  5 19  1  0  0  0  0
  6 21  1  0  0  0  0
  7 10  2  0  0  0  0
  7 20  1  0  0  0  0
  8 24  1  0  0  0  0
  9 24  2  0  0  0  0
 10 25  1  0  0  0  0
 11 12  2  0  0  0  0
 11 26  1  0  0  0  0
 12 27  1  0  0  0  0
 13 22  1  0  0  0  0
 13 25  2  0  0  0  0
 14 23  1  0  0  0  0
 14 30  2  0  0  0  0
 15 27  2  0  0  0  0
 15 28  1  0  0  0  0
 16 23  2  0  0  0  0
 16 88  1  0  0  0  0
 17 29  1  0  0  0  0
 18 29  1  0  0  0  0
 18 31  2  0  0  0  0
 18 33  1  0  0  0  0
 19 21  2  0  0  0  0
 19 39  1  0  0  0  0
 20 22  2  0  0  0  0
 20 40  1  0  0  0  0
 21 49  1  0  0  0  0
 22 41  1  0  0  0  0
 23 73  1  0  0  0  0
 24 84  1  0  0  0  0
 25 85  1  0  0  0  0
 26 28  2  0  0  0  0
 26 84  1  0  0  0  0
 27 86  1  0  0  0  0
 28 87  1  0  0  0  0
 29 66  2  0  0  0  0
 30 50  1  0  0  0  0
 30 88  1  0  0  0  0
 31 68  1  0  0  0  0
 31 71  1  0  0  0  0
 32 42  1  0  0  0  0
 32 61  1  0  0  0  0
 32 67  2  0  0  0  0
 33 72  1  0  0  0  0
 33 77  2  0  0  0  0
 34 53  1  0  0  0  0
 34 54  1  0  0  0  0
 34 78  2  0  0  0  0
 35 51  1  0  0  0  0
 35 74  1  0  0  0  0
 35 79  2  0  0  0  0
 36 63  1  0  0  0  0
 36 69  1  0  0  0  0
 36 80  2  0  0  0  0
 37 64  1  0  0  0  0
 37 75  1  0  0  0  0
 37 81  2  0  0  0  0
 38 70  1  0  0  0  0
 38 73  1  0  0  0  0
 38 82  2  0  0  0  0
 39 43  1  0  0  0  0
 40 51  1  0  0  0  0
 41 69  1  0  0  0  0
 42 50  1  0  0  0  0
 43 45  1  0  0  0  0
 44 46  1  0  0  0  0
 44 47  1  0  0  0  0
 45 49  1  0  0  0  0
 46 52  1  0  0  0  0
 47 70  1  0  0  0  0
 48 52  1  0  0  0  0
 48 70  1  0  0  0  0
 49 74  1  0  0  0  0
 50 53  1  0  0  0  0
 51 69  1  0  0  0  0
 52 68  1  0  0  0  0
 53 62  1  0  0  0  0
 53 83  1  0  0  0  0
 55 62  1  0  0  0  0
 56 64  1  0  0  0  0
 57 65  1  0  0  0  0
 58 65  1  0  0  0  0
 59 65  1  0  0  0  0
 60 76  1  0  0  0  0
 61 85  1  0  0  0  0
 63 65  1  0  0  0  0
 63 75  1  0  0  0  0
 64 76  1  0  0  0  0
 66 68  1  0  0  0  0
 67 83  1  0  0  0  0
M  CHG  1  76   1
M  ISO  4  38 100  61 101  73 100  85 101
M  END
> <Batch ID>
0169

> <Smiles>
CCC1(C(C)=O)ON=C([101CH2:1][101O:1]c2ccc3c(c2)CN(C(=O)C(NC(=O)C(C)NC)C(C)(C)C)C(C(=O)NC2CCCc4ccccc42)C3)CC1c1cc([100NH:0][100C:0](=O)N2CCCC(n3nc(-c4ccc(Oc5ccc(F)cc5F)cc4)c(C(N)=O)c3N)C2)cs1

> <Shape>
0.282

> <Color>
0.100

> <Negative vol penalty>
0.000

$$$$

  -OEChem-04052304173D

 90 98  0     1  0  0  0  0  0999 V2000
  -23.0481  -19.7446   25.2752 C   0  0  0  0  0  0  0  0  0  0  0  0
  -23.9718  -20.4608   24.5206 C   0  0  0  0  0  0  0  0  0  0  0  0
  -24.2900  -15.4796   22.4065 C   0  0  0  0  0  0  0  0  0  0  0  0
  -23.2851  -15.4994   20.2095 C   0  0  0  0  0  0  0  0  0  0  0  0
  -21.7242  -20.1759   25.3472 C   0  0  0  0  0  0  0  0  0  0  0  0
  -23.5717  -21.6082   23.8366 C   0  0  0  0  0  0  0  0  0  0  0  0
  -26.8459  -25.4334   24.3774 C   0  0  0  0  0  0  0  0  0  0  0  0
  -23.5808  -16.6331   22.7413 C   0  0  0  0  0  0  0  0  0  0  0  0
  -22.5758  -16.6529   20.5443 C   0  0  0  0  0  0  0  0  0  0  0  0
  -28.0086  -25.3896   23.6093 C   0  0  0  0  0  0  0  0  0  0  0  0
  -20.7745  -19.8061   20.6954 C   0  0  0  0  0  0  0  0  0  0  0  0
  -20.7384  -20.8396   19.7594 C   0  0  0  0  0  0  0  0  0  0  0  0
  -28.1269  -20.7182   19.6685 C   0  0  0  0  0  0  0  0  0  0  0  0
  -27.0258  -26.9399   22.0441 C   0  0  0  0  0  0  0  0  0  0  0  0
  -27.6324  -18.4772   18.9131 C   0  0  0  0  0  0  0  0  0  0  0  0
  -23.1471  -21.0045   19.8486 C   0  0  0  0  0  0  0  0  0  0  0  0
  -24.1422  -14.9128   21.1405 C   0  0  0  0  0  0  0  0  0  0  0  0
  -29.4257  -20.3235   19.9892 C   0  0  0  0  0  0  0  0  0  0  0  0
  -24.4617  -12.3876   20.9707 C   0  0  0  0  0  0  0  0  0  0  0  0
  -21.3099  -21.3345   24.6715 C   0  0  0  0  0  0  0  0  0  0  0  0
  -25.7584  -26.2236   23.9781 C   0  0  0  0  0  0  0  0  0  0  0  0
  -22.2407  -22.0546   23.8984 C   0  0  0  0  0  0  0  0  0  0  0  0
  -25.8514  -26.9940   22.8102 C   0  0  0  0  0  0  0  0  0  0  0  0
  -28.9312  -18.0825   19.2338 C   0  0  0  0  0  0  0  0  0  0  0  0
  -22.7237  -17.2197   21.8103 C   0  0  0  0  0  0  0  0  0  0  0  0
  -28.0977  -26.1407   22.4410 C   0  0  0  0  0  0  0  0  0  0  0  0
  -21.9970  -19.3718   21.2081 C   0  0  0  0  0  0  0  0  0  0  0  0
  -21.9247  -21.4388   19.3359 C   0  0  0  0  0  0  0  0  0  0  0  0
  -27.2302  -19.7950   19.1305 C   0  0  0  0  0  0  0  0  0  0  0  0
  -23.1833  -19.9710   20.7846 C   0  0  0  0  0  0  0  0  0  0  0  0
  -29.8279  -19.0057   19.7719 C   0  0  0  0  0  0  0  0  0  0  0  0
  -24.8750  -13.7216   20.7939 C   0  0  0  0  0  0  0  0  0  0  0  0
  -25.5052  -11.6377   20.4857 C   0  0  0  0  0  0  0  0  0  0  0  0
  -30.3726  -21.3035   20.5581 C   0  0  0  0  0  0  0  0  0  0  0  0
  -23.2434  -11.8724   21.5238 C   0  0  0  0  0  0  0  0  0  0  0  0
  -22.7413  -25.6413   23.1649 C   0  0  0  0  0  0  0  0  0  0  0  0
  -33.8172  -22.5432   19.4942 C   0  0  0  0  0  0  0  0  0  0  0  0
  -30.7213  -24.6864   20.4034 C   0  0  0  0  0  0  0  0  0  0  0  0
  -22.5376  -28.8784   23.1202 C   0  0  0  0  0  0  0  0  0  0  0  0
  -24.1349  -31.8778   22.8054 C   0  0  0  0  0  0  0  0  0  0  0  0
  -28.5685  -15.7050   18.4860 C   0  0  0  0  0  0  0  0  0  0  0  0
  -19.8575  -21.7351   24.7407 C   0  0  0  0  0  0  0  0  0  0  0  0
  -24.5213  -26.2806   24.8318 C   0  0  0  0  0  0  0  0  0  0  0  0
  -24.7197  -27.8742   22.3487 C   0  0  0  0  0  0  0  0  0  0  0  0
  -19.5994  -23.1705   24.2899 C   0  0  0  0  0  0  0  0  0  0  0  0
  -29.5268  -13.2421   21.0377 C   0  0  0  0  0  0  0  0  0  0  0  0
  -20.3342  -23.4606   22.9850 C   0  0  0  0  0  0  0  0  0  0  0  0
  -28.8761  -11.9645   20.5101 C   0  0  0  0  0  0  0  0  0  0  0  0
  -30.0146  -14.1213   19.8938 C   0  0  0  0  0  0  0  0  0  0  0  0
  -28.2652  -13.2433   18.3824 C   0  0  0  0  0  0  0  0  0  0  0  0
  -21.8507  -23.3180   23.1623 C   0  0  1  0  0  0  0  0  0  0  0  0
  -23.2819  -26.7211   24.0590 C   0  0  1  0  0  0  0  0  0  0  0  0
  -27.7984  -12.2236   19.4414 C   0  0  2  0  0  0  0  0  0  0  0  0
  -35.0146  -22.6655   18.5876 C   0  0  0  0  0  0  0  0  0  0  0  0
  -23.6978  -34.3487   22.7746 C   0  0  0  0  0  0  0  0  0  0  0  0
  -21.4294  -28.6446   20.2869 C   0  0  0  0  0  0  0  0  0  0  0  0
  -21.9076  -31.0821   19.9735 C   0  0  0  0  0  0  0  0  0  0  0  0
  -20.2838  -30.3457   21.7181 C   0  0  0  0  0  0  0  0  0  0  0  0
  -25.8514  -32.3283   25.1739 C   0  0  0  0  0  0  0  0  0  0  0  0
  -32.7294  -23.5891   19.3086 C   0  0  0  0  0  0  0  0  0  0  0  0
  -29.9834  -24.8870   21.7144 C   0  0  0  0  0  0  0  0  0  1  0  0
  -31.5825  -23.4406   20.3013 C   0  0  2  0  0  0  0  0  0  0  0  0
  -22.7546  -29.9490   22.0782 C   0  0  1  0  0  0  0  0  0  0  0  0
  -24.0645  -33.1482   23.6333 C   0  0  2  0  0  0  0  0  0  0  0  0
  -21.6146  -29.9874   21.0216 C   0  0  0  0  0  0  0  0  0  0  0  0
  -26.0867  -13.8169   20.2400 N   0  0  0  0  0  0  0  0  0  0  0  0
  -26.4437  -12.5332   20.0646 N   0  0  0  0  0  0  0  0  0  0  0  0
  -23.5288  -27.8912   23.2141 N   0  0  0  0  0  0  0  0  0  0  0  0
  -28.9207  -14.4206   18.9600 N   0  0  0  0  0  0  0  0  0  0  0  0
  -25.7023  -10.3061   20.3828 N   0  0  0  0  0  0  0  0  0  0  0  0
  -22.2771  -12.7820   21.9748 N   0  0  0  0  0  0  0  0  0  0  0  0
  -29.3365  -16.7431   19.0121 N   0  0  0  0  0  0  0  0  0  0  0  0
  -30.6761  -22.3944   19.8389 N   0  0  0  0  0  0  0  0  0  0  0  0
  -22.3930  -24.4815   23.8306 N   0  0  0  0  0  0  0  0  0  0  0  0
  -22.9347  -31.1989   22.8086 N   0  0  0  0  0  0  0  0  0  0  0  0
  -30.8850  -21.0553   21.7636 N   0  3  0  0  0  0  0  0  0  0  0  0
  -25.3792  -33.4179   24.2812 N   0  3  0  0  0  0  0  0  0  0  0  0
  -23.0251  -10.6417   21.6305 O   0  0  0  0  0  0  0  0  0  0  0  0
  -22.6458  -25.8457   21.9604 O   0  0  0  0  0  0  0  0  0  0  0  0
  -33.7446  -21.6421   20.3283 O   0  0  0  0  0  0  0  0  0  0  0  0
  -30.6164  -25.4878   19.4751 O   0  0  0  0  0  0  0  0  0  0  0  0
  -21.5294  -28.9206   23.8296 O   0  0  0  0  0  0  0  0  0  0  0  0
  -25.1517  -31.5249   22.2120 O   0  0  0  0  0  0  0  0  0  0  0  0
  -27.6326  -15.8732   17.6999 O   0  0  0  0  0  0  0  0  0  0  0  0
  -22.0312  -18.3451   22.1367 O   0  0  0  0  0  0  0  0  0  0  0  0
  -29.2312  -26.0994   21.6891 O   0  0  0  0  0  0  0  0  0  1  0  0
  -21.8900  -22.4302   18.4359 F   0  0  0  0  0  0  0  0  0  0  0  0
  -25.9832  -20.1742   18.8225 F   0  0  0  0  0  0  0  0  0  0  0  0
  -24.3607  -19.5574   21.2727 F   0  0  0  0  0  0  0  0  0  0  0  0
  -31.0774  -18.6273   20.0811 F   0  0  0  0  0  0  0  0  0  0  0  0
  1  2  1  0  0  0  0
  1  5  2  0  0  0  0
  2  6  2  0  0  0  0
  3  8  2  0  0  0  0
  3 17  1  0  0  0  0
  4  9  1  0  0  0  0
  4 17  2  0  0  0  0
  5 20  1  0  0  0  0
  6 22  1  0  0  0  0
  7 10  2  0  0  0  0
  7 21  1  0  0  0  0
  8 25  1  0  0  0  0
  9 25  2  0  0  0  0
 10 26  1  0  0  0  0
 11 12  2  0  0  0  0
 11 27  1  0  0  0  0
 12 28  1  0  0  0  0
 13 18  1  0  0  0  0
 13 29  2  0  0  0  0
 14 23  1  0  0  0  0
 14 26  2  0  0  0  0
 15 24  2  0  0  0  0
 15 29  1  0  0  0  0
 16 28  2  0  0  0  0
 16 30  1  0  0  0  0
 17 32  1  0  0  0  0
 18 31  2  0  0  0  0
 18 34  1  0  0  0  0
 19 32  1  0  0  0  0
 19 33  2  0  0  0  0
 19 35  1  0  0  0  0
 20 22  2  0  0  0  0
 20 42  1  0  0  0  0
 21 23  2  0  0  0  0
 21 43  1  0  0  0  0
 22 51  1  0  0  0  0
 23 44  1  0  0  0  0
 24 31  1  0  0  0  0
 24 72  1  0  0  0  0
 25 85  1  0  0  0  0
 26 86  1  0  0  0  0
 27 30  2  0  0  0  0
 27 85  1  0  0  0  0
 28 87  1  0  0  0  0
 29 88  1  0  0  0  0
 30 89  1  0  0  0  0
 31 90  1  0  0  0  0
 32 66  2  0  0  0  0
 33 67  1  0  0  0  0
 33 70  1  0  0  0  0
 34 73  1  0  0  0  0
 34 76  2  0  0  0  0
 35 71  1  0  0  0  0
 35 78  2  0  0  0  0
 36 52  1  0  0  0  0
 36 74  1  0  0  0  0
 36 79  2  0  0  0  0
 37 54  1  0  0  0  0
 37 60  1  0  0  0  0
 37 80  2  0  0  0  0
 38 61  1  0  0  0  0
 38 62  1  0  0  0  0
 38 81  2  0  0  0  0
 39 63  1  0  0  0  0
 39 68  1  0  0  0  0
 39 82  2  0  0  0  0
 40 64  1  0  0  0  0
 40 75  1  0  0  0  0
 40 83  2  0  0  0  0
 41 69  1  0  0  0  0
 41 72  1  0  0  0  0
 41 84  2  0  0  0  0
 42 45  1  0  0  0  0
 43 52  1  0  0  0  0
 44 68  1  0  0  0  0
 45 47  1  0  0  0  0
 46 48  1  0  0  0  0
 46 49  1  0  0  0  0
 47 51  1  0  0  0  0
 48 53  1  0  0  0  0
 49 69  1  0  0  0  0
 50 53  1  0  0  0  0
 50 69  1  0  0  0  0
 51 74  1  0  0  0  0
 52 68  1  0  0  0  0
 53 67  1  0  0  0  0
 55 64  1  0  0  0  0
 56 65  1  0  0  0  0
 57 65  1  0  0  0  0
 58 65  1  0  0  0  0
 59 77  1  0  0  0  0
 60 62  1  0  0  0  0
 61 86  1  0  0  0  0
 62 73  1  0  0  0  0
 63 65  1  0  0  0  0
 63 75  1  0  0  0  0
 64 77  1  0  0  0  0
 66 67  1  0  0  0  0
M  CHG  2  76   1  77   1
M  ISO  4  41 100  61 101  72 100  86 101
M  END
> <Batch ID>
0169

> <Smiles>
CNC(C)C(=O)NC(C(=O)N1Cc2cc([101O:1][101CH2:1]C(=O)C(CC(C)=O)NC(=N)c3cc(F)cc([100NH:0][100C:0](=O)N4CCCC(n5nc(-c6ccc(Oc7ccc(F)cc7F)cc6)c(C(N)=O)c5N)C4)c3F)ccc2CC1C(=O)NC1CCCc2ccccc21)C(C)(C)C

> <Shape>
0.221

> <Color>
0.086

> <Negative vol penalty>
0.000

$$$$

  -OEChem-04052304173D

 89 97  0     1  0  0  0  0  0999 V2000
  -23.6483  -30.1462   33.2543 C   0  0  0  0  0  0  0  0  0  0  0  0
  -24.3629  -29.1170   32.6497 C   0  0  0  0  0  0  0  0  0  0  0  0
  -23.0783   -9.8648   19.9420 C   0  0  0  0  0  0  0  0  0  0  0  0
  -23.8346   -9.8769   22.2365 C   0  0  0  0  0  0  0  0  0  0  0  0
  -22.9930  -31.0935   32.4688 C   0  0  0  0  0  0  0  0  0  0  0  0
  -24.4217  -29.0340   31.2590 C   0  0  0  0  0  0  0  0  0  0  0  0
  -29.1476  -27.0901   27.8836 C   0  0  0  0  0  0  0  0  0  0  0  0
  -22.3348   -8.7117   20.1931 C   0  0  0  0  0  0  0  0  0  0  0  0
  -23.0911   -8.7237   22.4877 C   0  0  0  0  0  0  0  0  0  0  0  0
  -29.4279  -25.8651   27.2798 C   0  0  0  0  0  0  0  0  0  0  0  0
  -19.8626   -7.9248   23.0868 C   0  0  0  0  0  0  0  0  0  0  0  0
  -19.1039   -7.8867   24.2566 C   0  0  0  0  0  0  0  0  0  0  0  0
  -28.5174  -26.6874   25.2027 C   0  0  0  0  0  0  0  0  0  0  0  0
  -32.1279  -17.8317   23.7177 C   0  0  0  0  0  0  0  0  0  0  0  0
  -20.3455   -5.9516   24.9988 C   0  0  0  0  0  0  0  0  0  0  0  0
  -23.8282  -10.4475   20.9637 C   0  0  0  0  0  0  0  0  0  0  0  0
  -24.1684  -12.9726   20.8392 C   0  0  0  0  0  0  0  0  0  0  0  0
  -23.0519  -31.0276   31.0678 C   0  0  0  0  0  0  0  0  0  0  0  0
  -28.5390  -28.1209   27.1532 C   0  0  0  0  0  0  0  0  0  0  0  0
  -23.7655  -29.9806   30.4539 C   0  0  0  0  0  0  0  0  0  0  0  0
  -28.2327  -27.9254   25.7989 C   0  0  0  0  0  0  0  0  0  0  0  0
  -31.9889  -16.8135   22.7307 C   0  0  0  0  0  0  0  0  0  0  0  0
  -22.3412   -8.1411   21.4659 C   0  0  0  0  0  0  0  0  0  0  0  0
  -29.1102  -25.6626   25.9399 C   0  0  0  0  0  0  0  0  0  0  0  0
  -20.8628   -6.9763   22.8729 C   0  0  0  0  0  0  0  0  0  0  0  0
  -19.3453   -6.9001   25.2126 C   0  0  0  0  0  0  0  0  0  0  0  0
  -21.1043   -5.9897   23.8290 C   0  0  0  0  0  0  0  0  0  0  0  0
  -24.5968  -11.6384   20.7048 C   0  0  0  0  0  0  0  0  0  0  0  0
  -30.9113  -18.3564   24.0948 C   0  0  0  0  0  0  0  0  0  0  0  0
  -25.2606  -13.7221   20.4761 C   0  0  0  0  0  0  0  0  0  0  0  0
  -30.6711  -16.5985   22.3912 C   0  0  0  0  0  0  0  0  0  0  0  0
  -22.8969  -13.4883   21.2551 C   0  0  0  0  0  0  0  0  0  0  0  0
  -30.6240  -19.4242   25.0869 C   0  0  0  0  0  0  0  0  0  0  0  0
  -25.7984  -29.7151   27.3799 C   0  0  0  0  0  0  0  0  0  0  0  0
  -28.9357  -22.0866   25.3883 C   0  0  0  0  0  0  0  0  0  0  0  0
  -27.0732  -31.4749   24.9715 C   0  0  0  0  0  0  0  0  0  0  0  0
  -29.2653  -31.6564   22.3622 C   0  0  0  0  0  0  0  0  0  0  0  0
  -30.7258  -14.7719   20.6572 C   0  0  0  0  0  0  0  0  0  0  0  0
  -22.2882  -32.0472   30.2603 C   0  0  0  0  0  0  0  0  0  0  0  0
  -28.2675  -29.4456   27.8120 C   0  0  0  0  0  0  0  0  0  0  0  0
  -27.5971  -29.0069   24.9654 C   0  0  0  0  0  0  0  0  0  0  0  0
  -22.7108  -32.1040   28.7946 C   0  0  0  0  0  0  0  0  0  0  0  0
  -29.6167  -12.3527   18.2919 C   0  0  0  0  0  0  0  0  0  0  0  0
  -22.8113  -30.6974   28.2131 C   0  0  0  0  0  0  0  0  0  0  0  0
  -28.1766  -12.0610   18.7198 C   0  0  0  0  0  0  0  0  0  0  0  0
  -30.5298  -12.5845   19.4945 C   0  0  0  0  0  0  0  0  0  0  0  0
  -28.6202  -13.3103   20.8715 C   0  0  0  0  0  0  0  0  0  0  0  0
  -23.8733  -29.8710   28.9484 C   0  0  1  0  0  0  0  0  0  0  0  0
  -27.1768  -30.2492   27.1108 C   0  0  1  0  0  0  0  0  0  0  0  0
  -27.6493  -13.1341   19.6925 C   0  0  2  0  0  0  0  0  0  0  0  0
  -30.0548  -33.2107   20.5572 C   0  0  0  0  0  0  0  0  0  0  0  0
  -27.6839  -18.2124   27.6091 C   0  0  0  0  0  0  0  0  0  0  0  0
  -28.1437  -20.2022   29.0454 C   0  0  0  0  0  0  0  0  0  0  0  0
  -25.7921  -19.6384   28.4272 C   0  0  0  0  0  0  0  0  0  0  0  0
  -24.5184  -30.9354   23.3929 C   0  0  0  0  0  0  0  0  0  0  0  0
  -25.7246  -31.6675   21.3247 C   0  0  0  0  0  0  0  0  0  0  0  0
  -25.3873  -33.2728   23.2041 C   0  0  0  0  0  0  0  0  0  0  0  0
  -32.0349  -31.6479   23.4055 C   0  0  0  0  0  0  0  0  0  0  0  0
  -29.3555  -23.3094   26.1814 C   0  0  0  0  0  0  0  0  0  1  0  0
  -27.4176  -20.5698   26.6762 C   0  0  0  0  0  0  0  0  0  0  0  0
  -28.8495  -20.7800   26.1681 C   0  0  1  0  0  0  0  0  0  0  0  0
  -27.0583  -31.3934   23.4641 C   0  0  1  0  0  0  0  0  0  0  0  0
  -30.2854  -32.7119   21.9752 C   0  0  2  0  0  0  0  0  0  0  0  0
  -27.2422  -19.6532   27.9202 C   0  0  0  0  0  0  0  0  0  0  0  0
  -25.6823  -31.7960   22.8624 C   0  0  0  0  0  0  0  0  0  0  0  0
  -25.8624  -11.5426   20.2886 N   0  0  0  0  0  0  0  0  0  0  0  0
  -26.2386  -12.8262   20.1583 N   0  0  0  0  0  0  0  0  0  0  0  0
  -27.3455  -30.2823   25.6566 N   0  0  0  0  0  0  0  0  0  0  0  0
  -29.9688  -13.6166   20.3691 N   0  0  0  0  0  0  0  0  0  0  0  0
  -33.0338  -16.1397   22.1946 N   0  0  0  0  0  0  0  0  0  0  0  0
  -25.4702  -15.0536   20.4007 N   0  0  0  0  0  0  0  0  0  0  0  0
  -21.8851  -12.5791   21.5926 N   0  0  0  0  0  0  0  0  0  0  0  0
  -30.0765  -15.6981   21.4729 N   0  0  0  0  0  0  0  0  0  0  0  0
  -29.2850  -19.7507   25.2619 N   0  0  0  0  0  0  0  0  0  0  0  0
  -25.1998  -30.2450   28.5070 N   0  0  0  0  0  0  0  0  0  0  0  0
  -28.1752  -32.2093   23.0002 N   0  0  0  0  0  0  0  0  0  0  0  0
  -31.6649  -32.1544   22.0588 N   0  3  0  0  0  0  0  0  0  0  0  0
  -22.6597  -14.7189   21.3096 O   0  0  0  0  0  0  0  0  0  0  0  0
  -31.5577  -19.9659   25.6728 O   0  0  0  0  0  0  0  0  0  0  0  0
  -25.3133  -28.8847   26.6203 O   0  0  0  0  0  0  0  0  0  0  0  0
  -28.6484  -22.1573   24.1930 O   0  0  0  0  0  0  0  0  0  0  0  0
  -26.8583  -32.5583   25.5207 O   0  0  0  0  0  0  0  0  0  0  0  0
  -29.4185  -30.4614   22.1194 O   0  0  0  0  0  0  0  0  0  0  0  0
  -31.8555  -14.9405   20.1910 O   0  0  0  0  0  0  0  0  0  0  0  0
  -21.6157   -7.0160   21.7114 O   0  0  0  0  0  0  0  0  0  0  0  0
  -29.3822  -24.4677   25.3483 O   0  0  0  0  0  0  0  0  0  1  0  0
  -18.6177   -6.8645   26.3366 F   0  0  0  0  0  0  0  0  0  0  0  0
  -22.0645   -5.0765   23.6296 F   0  0  0  0  0  0  0  0  0  0  0  0
  -29.6085  -17.6221   23.2605 S   0  0  0  0  0  0  0  0  0  0  0  0
  1  2  1  0  0  0  0
  1  5  2  0  0  0  0
  2  6  2  0  0  0  0
  3  8  2  0  0  0  0
  3 16  1  0  0  0  0
  4  9  1  0  0  0  0
  4 16  2  0  0  0  0
  5 18  1  0  0  0  0
  6 20  1  0  0  0  0
  7 10  2  0  0  0  0
  7 19  1  0  0  0  0
  8 23  1  0  0  0  0
  9 23  2  0  0  0  0
 10 24  1  0  0  0  0
 11 12  2  0  0  0  0
 11 25  1  0  0  0  0
 12 26  1  0  0  0  0
 13 21  1  0  0  0  0
 13 24  2  0  0  0  0
 14 22  1  0  0  0  0
 14 29  2  0  0  0  0
 15 26  2  0  0  0  0
 15 27  1  0  0  0  0
 16 28  1  0  0  0  0
 17 28  1  0  0  0  0
 17 30  2  0  0  0  0
 17 32  1  0  0  0  0
 18 20  2  0  0  0  0
 18 39  1  0  0  0  0
 19 21  2  0  0  0  0
 19 40  1  0  0  0  0
 20 48  1  0  0  0  0
 21 41  1  0  0  0  0
 22 31  2  0  0  0  0
 22 70  1  0  0  0  0
 23 85  1  0  0  0  0
 24 86  1  0  0  0  0
 25 27  2  0  0  0  0
 25 85  1  0  0  0  0
 26 87  1  0  0  0  0
 27 88  1  0  0  0  0
 28 66  2  0  0  0  0
 29 33  1  0  0  0  0
 29 89  1  0  0  0  0
 30 67  1  0  0  0  0
 30 71  1  0  0  0  0
 31 73  1  0  0  0  0
 31 89  1  0  0  0  0
 32 72  1  0  0  0  0
 32 78  2  0  0  0  0
 33 74  1  0  0  0  0
 33 79  2  0  0  0  0
 34 49  1  0  0  0  0
 34 75  1  0  0  0  0
 34 80  2  0  0  0  0
 35 59  1  0  0  0  0
 35 61  1  0  0  0  0
 35 81  2  0  0  0  0
 36 62  1  0  0  0  0
 36 68  1  0  0  0  0
 36 82  2  0  0  0  0
 37 63  1  0  0  0  0
 37 76  1  0  0  0  0
 37 83  2  0  0  0  0
 38 69  1  0  0  0  0
 38 73  1  0  0  0  0
 38 84  2  0  0  0  0
 39 42  1  0  0  0  0
 40 49  1  0  0  0  0
 41 68  1  0  0  0  0
 42 44  1  0  0  0  0
 43 45  1  0  0  0  0
 43 46  1  0  0  0  0
 44 48  1  0  0  0  0
 45 50  1  0  0  0  0
 46 69  1  0  0  0  0
 47 50  1  0  0  0  0
 47 69  1  0  0  0  0
 48 75  1  0  0  0  0
 49 68  1  0  0  0  0
 50 67  1  0  0  0  0
 51 63  1  0  0  0  0
 52 64  1  0  0  0  0
 53 64  1  0  0  0  0
 54 64  1  0  0  0  0
 55 65  1  0  0  0  0
 56 65  1  0  0  0  0
 57 65  1  0  0  0  0
 58 77  1  0  0  0  0
 59 86  1  0  0  0  0
 60 61  1  0  0  0  0
 60 64  1  0  0  0  0
 61 74  1  0  0  0  0
 62 65  1  0  0  0  0
 62 76  1  0  0  0  0
 63 77  1  0  0  0  0
 66 67  1  0  0  0  0
M  CHG  1  77   1
M  ISO  4  38 100  59 101  73 100  86 101
M  END
> <Batch ID>
0169

> <Smiles>
CNC(C)C(=O)NC(C(=O)N1Cc2cc([101O:1][101CH2:1]C(=O)C(CC(C)(C)C)NC(=O)c3cc(N)c([100NH:0][100C:0](=O)N4CCCC(n5nc(-c6ccc(Oc7ccc(F)cc7F)cc6)c(C(N)=O)c5N)C4)s3)ccc2CC1C(=O)NC1CCCc2ccccc21)C(C)(C)C

> <Shape>
0.235

> <Color>
0.176

> <Negative vol penalty>
0.000

$$$$

  -OEChem-04052304173D

 87 96  0     1  0  0  0  0  0999 V2000
  -30.5265  -30.6989   25.9528 C   0  0  0  0  0  0  0  0  0  0  0  0
  -29.8885  -29.7418   25.1703 C   0  0  0  0  0  0  0  0  0  0  0  0
  -23.4694   -9.0669   21.3468 C   0  0  0  0  0  0  0  0  0  0  0  0
  -25.6202   -8.9834   22.4440 C   0  0  0  0  0  0  0  0  0  0  0  0
  -29.7860  -31.7234   26.5408 C   0  0  0  0  0  0  0  0  0  0  0  0
  -28.5092  -29.8080   24.9763 C   0  0  0  0  0  0  0  0  0  0  0  0
  -27.1872  -29.0406   20.1485 C   0  0  0  0  0  0  0  0  0  0  0  0
  -22.9328   -8.2428   22.3360 C   0  0  0  0  0  0  0  0  0  0  0  0
  -25.0836   -8.1593   23.4332 C   0  0  0  0  0  0  0  0  0  0  0  0
  -27.1809  -27.7234   19.6917 C   0  0  0  0  0  0  0  0  0  0  0  0
  -22.9187   -4.9494   23.0962 C   0  0  0  0  0  0  0  0  0  0  0  0
  -22.1057   -3.8924   22.6873 C   0  0  0  0  0  0  0  0  0  0  0  0
  -24.7865  -27.6435   19.9736 C   0  0  0  0  0  0  0  0  0  0  0  0
  -22.4603  -19.9156   19.3981 C   0  0  0  0  0  0  0  0  0  0  0  0
  -22.8390  -17.5560   19.7017 C   0  0  0  0  0  0  0  0  0  0  0  0
  -20.2719   -4.8080   23.9664 C   0  0  0  0  0  0  0  0  0  0  0  0
  -24.8131   -9.4372   21.4008 C   0  0  0  0  0  0  0  0  0  0  0  0
  -25.4332  -10.0259   18.9973 C   0  0  0  0  0  0  0  0  0  0  0  0
  -28.3983  -31.8079   26.3460 C   0  0  0  0  0  0  0  0  0  0  0  0
  -25.9926  -29.6667   20.5322 C   0  0  0  0  0  0  0  0  0  0  0  0
  -27.7492  -30.8339   25.5634 C   0  0  0  0  0  0  0  0  0  0  0  0
  -24.7800  -28.9696   20.4324 C   0  0  0  0  0  0  0  0  0  0  0  0
  -21.9674  -18.6164   19.4724 C   0  0  0  0  0  0  0  0  0  0  0  0
  -23.7399   -7.7890   23.3792 C   0  0  0  0  0  0  0  0  0  0  0  0
  -25.9808  -27.0237   19.6069 C   0  0  0  0  0  0  0  0  0  0  0  0
  -22.4083   -5.9358   23.9403 C   0  0  0  0  0  0  0  0  0  0  0  0
  -20.7823   -3.8216   23.1223 C   0  0  0  0  0  0  0  0  0  0  0  0
  -21.0849   -5.8650   24.3753 C   0  0  0  0  0  0  0  0  0  0  0  0
  -25.3682  -10.2880   20.3790 C   0  0  0  0  0  0  0  0  0  0  0  0
  -23.8232  -20.1234   19.5561 C   0  0  0  0  0  0  0  0  0  0  0  0
  -26.0451  -11.1348   18.4659 C   0  0  0  0  0  0  0  0  0  0  0  0
  -24.1923  -17.8235   19.8518 C   0  0  0  0  0  0  0  0  0  0  0  0
  -24.9809   -8.8823   18.2602 C   0  0  0  0  0  0  0  0  0  0  0  0
  -24.8771  -30.9029   23.2398 C   0  0  0  0  0  0  0  0  0  0  0  0
  -22.4143  -31.8331   21.3446 C   0  0  0  0  0  0  0  0  0  0  0  0
  -20.6033  -31.3360   18.4950 C   0  0  0  0  0  0  0  0  0  0  0  0
  -26.4660  -16.8187   20.2605 C   0  0  0  0  0  0  0  0  0  0  0  0
  -27.6333  -32.9064   27.0407 C   0  0  0  0  0  0  0  0  0  0  0  0
  -26.0130  -31.0969   20.9974 C   0  0  0  0  0  0  0  0  0  0  0  0
  -23.4676  -29.6030   20.8128 C   0  0  0  0  0  0  0  0  0  0  0  0
  -26.2300  -33.1205   26.4792 C   0  0  0  0  0  0  0  0  0  0  0  0
  -29.1623  -14.5920   19.5907 C   0  0  0  0  0  0  0  0  0  0  0  0
  -25.5149  -31.7843   26.3054 C   0  0  0  0  0  0  0  0  0  0  0  0
  -25.4283  -21.6360   18.3214 C   0  0  0  0  0  0  0  0  0  0  0  0
  -28.5002  -13.2123   19.5851 C   0  0  0  0  0  0  0  0  0  0  0  0
  -26.0349  -23.0369   18.2591 C   0  0  0  0  0  0  0  0  0  0  0  0
  -25.0983  -21.9059   20.8205 C   0  0  0  0  0  0  0  0  0  0  0  0
  -28.5454  -15.5128   20.6420 C   0  0  0  0  0  0  0  0  0  0  0  0
  -26.4225  -14.2652   20.5656 C   0  0  0  0  0  0  0  0  0  0  0  0
  -26.2583  -30.8862   25.3093 C   0  0  1  0  0  0  0  0  0  0  0  0
  -24.4411  -21.5087   19.4891 C   0  0  2  0  0  0  0  0  0  0  0  0
  -24.8018  -31.4656   21.8486 C   0  0  1  0  0  0  0  0  0  0  0  0
  -25.7172  -23.3175   20.7617 C   0  0  2  0  0  0  0  0  0  0  0  0
  -26.9666  -13.3236   19.4789 C   0  0  2  0  0  0  0  0  0  0  0  0
  -26.7253  -23.4755   19.5770 C   0  0  1  0  0  0  0  0  0  0  0  0
  -26.2992  -23.6666   22.1373 C   0  0  0  0  0  0  0  0  0  0  0  0
  -28.0132  -22.6517   19.7873 C   0  0  0  0  0  0  0  0  0  0  0  0
  -18.6259  -32.2319   17.2362 C   0  0  0  0  0  0  0  0  0  0  0  0
  -20.5377  -30.4725   23.3289 C   0  0  0  0  0  0  0  0  0  0  0  0
  -18.7428  -30.5617   21.5857 C   0  0  0  0  0  0  0  0  0  0  0  0
  -19.7270  -32.6767   22.4694 C   0  0  0  0  0  0  0  0  0  0  0  0
  -22.2647  -32.0238   16.1444 C   0  0  0  0  0  0  0  0  0  0  0  0
  -27.1379  -24.9548   19.4148 C   0  0  0  0  0  0  0  0  0  1  0  0
  -21.0998  -31.2220   20.9230 C   0  0  1  0  0  0  0  0  0  0  0  0
  -20.1342  -32.2984   17.4189 C   0  0  2  0  0  0  0  0  0  0  0  0
  -20.0516  -31.2204   22.0713 C   0  0  0  0  0  0  0  0  0  0  0  0
  -25.8967  -11.4705   20.7049 N   0  0  0  0  0  0  0  0  0  0  0  0
  -26.2998  -11.9613   19.5205 N   0  0  0  0  0  0  0  0  0  0  0  0
  -24.6401  -19.0842   19.7757 N   0  3  0  0  0  0  0  0  0  0  0  0
  -23.5404  -31.0013   21.2679 N   0  0  0  0  0  0  0  0  0  0  0  0
  -27.0914  -15.5727   20.4771 N   0  0  0  0  0  0  0  0  0  0  0  0
  -20.5870  -18.3749   19.3157 N   0  0  0  0  0  0  0  0  0  0  0  0
  -26.3849  -11.4737   17.2041 N   0  0  0  0  0  0  0  0  0  0  0  0
  -25.8700   -7.8158   18.0697 N   0  0  0  0  0  0  0  0  0  0  0  0
  -25.0844  -16.7477   20.0854 N   0  0  0  0  0  0  0  0  0  0  0  0
  -25.9904  -31.3080   23.9511 N   0  0  0  0  0  0  0  0  0  0  0  0
  -20.6772  -31.9464   19.7292 N   0  0  0  0  0  0  0  0  0  0  0  0
  -20.7803  -31.9733   16.1159 N   0  3  0  0  0  0  0  0  0  0  0  0
  -23.8280   -8.8155   17.7705 O   0  0  0  0  0  0  0  0  0  0  0  0
  -23.9900  -30.1576   23.6388 O   0  0  0  0  0  0  0  0  0  0  0  0
  -22.4421  -33.0074   21.7212 O   0  0  0  0  0  0  0  0  0  0  0  0
  -20.8734  -30.1593   18.2646 O   0  0  0  0  0  0  0  0  0  0  0  0
  -27.1121  -17.8683   20.2055 O   0  0  0  0  0  0  0  0  0  0  0  0
  -23.2165   -6.9850   24.3447 O   0  0  0  0  0  0  0  0  0  0  0  0
  -25.9719  -25.7376   19.1621 O   0  0  0  0  0  0  0  0  0  1  0  0
  -20.0012   -2.8073   22.7283 F   0  0  0  0  0  0  0  0  0  0  0  0
  -20.5887   -6.8103   25.1853 F   0  0  0  0  0  0  0  0  0  0  0  0
  1  2  1  0  0  0  0
  1  5  2  0  0  0  0
  2  6  2  0  0  0  0
  3  8  2  0  0  0  0
  3 17  1  0  0  0  0
  4  9  1  0  0  0  0
  4 17  2  0  0  0  0
  5 19  1  0  0  0  0
  6 21  1  0  0  0  0
  7 10  2  0  0  0  0
  7 20  1  0  0  0  0
  8 24  1  0  0  0  0
  9 24  2  0  0  0  0
 10 25  1  0  0  0  0
 11 12  2  0  0  0  0
 11 26  1  0  0  0  0
 12 27  1  0  0  0  0
 13 22  1  0  0  0  0
 13 25  2  0  0  0  0
 14 23  2  0  0  0  0
 14 30  1  0  0  0  0
 15 23  1  0  0  0  0
 15 32  2  0  0  0  0
 16 27  2  0  0  0  0
 16 28  1  0  0  0  0
 17 29  1  0  0  0  0
 18 29  1  0  0  0  0
 18 31  2  0  0  0  0
 18 33  1  0  0  0  0
 19 21  2  0  0  0  0
 19 38  1  0  0  0  0
 20 22  2  0  0  0  0
 20 39  1  0  0  0  0
 21 50  1  0  0  0  0
 22 40  1  0  0  0  0
 23 72  1  0  0  0  0
 24 84  1  0  0  0  0
 25 85  1  0  0  0  0
 26 28  2  0  0  0  0
 26 84  1  0  0  0  0
 27 86  1  0  0  0  0
 28 87  1  0  0  0  0
 29 67  2  0  0  0  0
 30 51  1  0  0  0  0
 30 69  2  0  0  0  0
 31 68  1  0  0  0  0
 31 73  1  0  0  0  0
 32 69  1  0  0  0  0
 32 75  1  0  0  0  0
 33 74  1  0  0  0  0
 33 79  2  0  0  0  0
 34 52  1  0  0  0  0
 34 76  1  0  0  0  0
 34 80  2  0  0  0  0
 35 64  1  0  0  0  0
 35 70  1  0  0  0  0
 35 81  2  0  0  0  0
 36 65  1  0  0  0  0
 36 77  1  0  0  0  0
 36 82  2  0  0  0  0
 37 71  1  0  0  0  0
 37 75  1  0  0  0  0
 37 83  2  0  0  0  0
 38 41  1  0  0  0  0
 39 52  1  0  0  0  0
 40 70  1  0  0  0  0
 41 43  1  0  0  0  0
 42 45  1  0  0  0  0
 42 48  1  0  0  0  0
 43 50  1  0  0  0  0
 44 46  1  0  0  0  0
 44 51  1  0  0  0  0
 45 54  1  0  0  0  0
 46 55  1  0  0  0  0
 47 51  1  0  0  0  0
 47 53  1  0  0  0  0
 48 71  1  0  0  0  0
 49 54  1  0  0  0  0
 49 71  1  0  0  0  0
 50 76  1  0  0  0  0
 52 70  1  0  0  0  0
 53 55  1  0  0  0  0
 53 56  1  0  0  0  0
 54 68  1  0  0  0  0
 55 57  1  0  0  0  0
 55 63  1  0  0  0  0
 58 65  1  0  0  0  0
 59 66  1  0  0  0  0
 60 66  1  0  0  0  0
 61 66  1  0  0  0  0
 62 78  1  0  0  0  0
 63 85  1  0  0  0  0
 64 66  1  0  0  0  0
 64 77  1  0  0  0  0
 65 78  1  0  0  0  0
 67 68  1  0  0  0  0
M  CHG  2  69   1  78   1
M  ISO  4  37 100  63 101  75 100  85 101
M  END
> <Batch ID>
0169

> <Smiles>
CNC(C)C(=O)NC(C(=O)N1Cc2cc([101O:1][101CH2:1]C3(C)CCC(c4cc(N)cc([100NH:0][100C:0](=O)N5CCCC(n6nc(-c7ccc(Oc8ccc(F)cc8F)cc7)c(C(N)=O)c6N)C5)n4)CC3C)ccc2CC1C(=O)NC1CCCc2ccccc21)C(C)(C)C

> <Shape>
0.238

> <Color>
0.075

> <Negative vol penalty>
0.000

$$$$

  -OEChem-04052304173D

 85 93  0     1  0  0  0  0  0999 V2000
  -17.2273  -23.5657   23.5846 C   0  0  0  0  0  0  0  0  0  0  0  0
  -18.4929  -23.0944   23.9185 C   0  0  0  0  0  0  0  0  0  0  0  0
  -22.9463   -9.9702   20.0094 C   0  0  0  0  0  0  0  0  0  0  0  0
  -23.6998   -9.9922   22.3048 C   0  0  0  0  0  0  0  0  0  0  0  0
  -17.0905  -24.7894   22.9305 C   0  0  0  0  0  0  0  0  0  0  0  0
  -19.6227  -23.8461   23.5974 C   0  0  0  0  0  0  0  0  0  0  0  0
  -24.7930  -24.2936   26.8491 C   0  0  0  0  0  0  0  0  0  0  0  0
  -22.1647   -8.8463   20.2767 C   0  0  0  0  0  0  0  0  0  0  0  0
  -22.9181   -8.8682   22.5721 C   0  0  0  0  0  0  0  0  0  0  0  0
  -26.0300  -23.6605   26.7359 C   0  0  0  0  0  0  0  0  0  0  0  0
  -23.1024   -5.5294   22.0729 C   0  0  0  0  0  0  0  0  0  0  0  0
  -23.6823   -4.4972   22.8104 C   0  0  0  0  0  0  0  0  0  0  0  0
  -26.8710  -25.5413   25.4811 C   0  0  0  0  0  0  0  0  0  0  0  0
  -31.9075  -17.3974   21.6725 C   0  0  0  0  0  0  0  0  0  0  0  0
  -21.9828   -4.7555   24.5081 C   0  0  0  0  0  0  0  0  0  0  0  0
  -23.7140  -10.5431   21.0234 C   0  0  0  0  0  0  0  0  0  0  0  0
  -24.1380  -13.0534   20.8611 C   0  0  0  0  0  0  0  0  0  0  0  0
  -18.2186  -25.5610   22.6099 C   0  0  0  0  0  0  0  0  0  0  0  0
  -24.5820  -25.5526   26.2688 C   0  0  0  0  0  0  0  0  0  0  0  0
  -19.5009  -25.0806   22.9372 C   0  0  0  0  0  0  0  0  0  0  0  0
  -25.6311  -26.1894   25.5905 C   0  0  0  0  0  0  0  0  0  0  0  0
  -32.0346  -18.6646   22.3115 C   0  0  0  0  0  0  0  0  0  0  0  0
  -22.1505   -8.2953   21.5580 C   0  0  0  0  0  0  0  0  0  0  0  0
  -27.0684  -24.2831   26.0493 C   0  0  0  0  0  0  0  0  0  0  0  0
  -21.9627   -6.1747   22.5530 C   0  0  0  0  0  0  0  0  0  0  0  0
  -23.1225   -4.1102   24.0279 C   0  0  0  0  0  0  0  0  0  0  0  0
  -21.4029   -5.7877   23.7706 C   0  0  0  0  0  0  0  0  0  0  0  0
  -24.5220  -11.7038   20.7478 C   0  0  0  0  0  0  0  0  0  0  0  0
  -25.2549  -13.7606   20.4886 C   0  0  0  0  0  0  0  0  0  0  0  0
  -30.6761  -16.8238   21.9011 C   0  0  0  0  0  0  0  0  0  0  0  0
  -30.8952  -19.0114   23.0040 C   0  0  0  0  0  0  0  0  0  0  0  0
  -28.3238  -22.4526   25.3119 C   0  0  0  0  0  0  0  0  0  1  0  0
  -22.8838  -13.6173   21.2670 C   0  0  0  0  0  0  0  0  0  0  0  0
  -29.4565  -21.7590   25.1459 C   0  0  0  0  0  0  0  0  0  0  0  0
  -29.4024  -20.4346   24.4449 C   0  0  0  0  0  0  0  0  0  0  0  0
  -22.6472  -26.6891   24.0175 C   0  0  0  0  0  0  0  0  0  0  0  0
  -23.9095  -29.5380   24.9189 C   0  0  0  0  0  0  0  0  0  0  0  0
  -26.5002  -31.2354   26.3521 C   0  0  0  0  0  0  0  0  0  0  0  0
  -30.7518  -14.6310   20.6633 C   0  0  0  0  0  0  0  0  0  0  0  0
  -18.0237  -26.8552   21.8604 C   0  0  0  0  0  0  0  0  0  0  0  0
  -23.2500  -26.2340   26.4228 C   0  0  0  0  0  0  0  0  0  0  0  0
  -25.4621  -27.5499   24.9670 C   0  0  0  0  0  0  0  0  0  0  0  0
  -19.2479  -27.7666   21.8902 C   0  0  0  0  0  0  0  0  0  0  0  0
  -29.5659  -12.2142   18.3331 C   0  0  0  0  0  0  0  0  0  0  0  0
  -20.5125  -26.9723   21.5793 C   0  0  0  0  0  0  0  0  0  0  0  0
  -28.1163  -11.9770   18.7629 C   0  0  0  0  0  0  0  0  0  0  0  0
  -30.4847  -12.4338   19.5336 C   0  0  0  0  0  0  0  0  0  0  0  0
  -28.5986  -13.2435   20.8960 C   0  0  0  0  0  0  0  0  0  0  0  0
  -20.7489  -25.8788   22.6280 C   0  0  1  0  0  0  0  0  0  0  0  0
  -22.9910  -27.2888   25.3515 C   0  0  1  0  0  0  0  0  0  0  0  0
  -27.6238  -13.0817   19.7182 C   0  0  2  0  0  0  0  0  0  0  0  0
  -34.5173  -18.8066   22.7687 C   0  0  0  0  0  0  0  0  0  0  0  0
  -27.2619  -33.5597   26.9130 C   0  0  0  0  0  0  0  0  0  0  0  0
  -24.6102  -30.0131   21.9875 C   0  0  0  0  0  0  0  0  0  0  0  0
  -26.1658  -31.8305   22.7262 C   0  0  0  0  0  0  0  0  0  0  0  0
  -23.7214  -32.0200   23.1862 C   0  0  0  0  0  0  0  0  0  0  0  0
  -26.5842  -30.6337   29.2486 C   0  0  0  0  0  0  0  0  0  0  0  0
  -33.2549  -19.5030   22.2334 C   0  0  1  0  0  0  0  0  0  0  0  0
  -25.1043  -30.3591   24.4979 C   0  0  1  0  0  0  0  0  0  0  0  0
  -26.5288  -32.3236   27.4102 C   0  0  2  0  0  0  0  0  0  0  0  0
  -24.9034  -31.0292   23.1094 C   0  0  0  0  0  0  0  0  0  0  0  0
  -25.7842  -11.5597   20.3353 N   0  0  0  0  0  0  0  0  0  0  0  0
  -26.2030  -12.8280   20.1862 N   0  0  0  0  0  0  0  0  0  0  0  0
  -24.1392  -28.1725   25.1393 N   0  0  0  0  0  0  0  0  0  0  0  0
  -29.9572  -13.4972   20.3914 N   0  0  0  0  0  0  0  0  0  0  0  0
  -25.5087  -15.0831   20.3934 N   0  0  0  0  0  0  0  0  0  0  0  0
  -21.8420  -12.7475   21.6165 N   0  0  0  0  0  0  0  0  0  0  0  0
  -30.5844  -20.1602   23.7707 N   0  0  0  0  0  0  0  0  0  0  0  0
  -30.1326  -15.5905   21.4636 N   0  0  0  0  0  0  0  0  0  0  0  0
  -21.2979  -26.4501   23.8390 N   0  0  0  0  0  0  0  0  0  0  0  0
  -25.3566  -31.2995   25.5844 N   0  0  0  0  0  0  0  0  0  0  0  0
  -33.5741  -19.9799   20.8402 N   0  3  0  0  0  0  0  0  0  0  0  0
  -27.2142  -31.8332   28.6392 N   0  3  0  0  0  0  0  0  0  0  0  0
  -22.6876  -14.8558   21.3024 O   0  0  0  0  0  0  0  0  0  0  0  0
  -28.3999  -19.7309   24.5043 O   0  0  0  0  0  0  0  0  0  0  0  0
  -23.5398  -26.4614   23.2093 O   0  0  0  0  0  0  0  0  0  0  0  0
  -22.8144  -30.0893   25.0544 O   0  0  0  0  0  0  0  0  0  0  0  0
  -27.4038  -30.4133   26.2176 O   0  0  0  0  0  0  0  0  0  0  0  0
  -31.8870  -14.7549   20.1965 O   0  0  0  0  0  0  0  0  0  0  0  0
  -30.6791  -22.2158   25.5946 O   0  0  0  0  0  0  0  0  0  0  0  0
  -21.3877   -7.1988   21.8193 O   0  0  0  0  0  0  0  0  0  0  0  0
  -28.2766  -23.6671   25.9368 O   0  0  0  0  0  0  0  0  0  1  0  0
  -23.6785   -3.1180   24.7353 F   0  0  0  0  0  0  0  0  0  0  0  0
  -20.3074   -6.4031   24.2364 F   0  0  0  0  0  0  0  0  0  0  0  0
  -29.6794  -17.8117   22.8824 S   0  0  0  0  0  0  0  0  0  0  0  0
  1  2  1  0  0  0  0
  1  5  2  0  0  0  0
  2  6  2  0  0  0  0
  3  8  2  0  0  0  0
  3 16  1  0  0  0  0
  4  9  1  0  0  0  0
  4 16  2  0  0  0  0
  5 18  1  0  0  0  0
  6 20  1  0  0  0  0
  7 10  2  0  0  0  0
  7 19  1  0  0  0  0
  8 23  1  0  0  0  0
  9 23  2  0  0  0  0
 10 24  1  0  0  0  0
 11 12  2  0  0  0  0
 11 25  1  0  0  0  0
 12 26  1  0  0  0  0
 13 21  1  0  0  0  0
 13 24  2  0  0  0  0
 14 22  1  0  0  0  0
 14 30  2  0  0  0  0
 15 26  2  0  0  0  0
 15 27  1  0  0  0  0
 16 28  1  0  0  0  0
 17 28  1  0  0  0  0
 17 29  2  0  0  0  0
 17 33  1  0  0  0  0
 18 20  2  0  0  0  0
 18 40  1  0  0  0  0
 19 21  2  0  0  0  0
 19 41  1  0  0  0  0
 20 49  1  0  0  0  0
 21 42  1  0  0  0  0
 22 31  2  0  0  0  0
 22 58  1  0  0  0  0
 23 81  1  0  0  0  0
 24 82  1  0  0  0  0
 25 27  2  0  0  0  0
 25 81  1  0  0  0  0
 26 83  1  0  0  0  0
 27 84  1  0  0  0  0
 28 62  2  0  0  0  0
 29 63  1  0  0  0  0
 29 66  1  0  0  0  0
 30 69  1  0  0  0  0
 30 85  1  0  0  0  0
 31 68  1  0  0  0  0
 31 85  1  0  0  0  0
 32 34  2  0  0  0  0
 32 82  1  0  0  0  0
 33 67  1  0  0  0  0
 33 74  2  0  0  0  0
 34 35  1  0  0  0  0
 34 80  1  0  0  0  0
 35 68  1  0  0  0  0
 35 75  2  0  0  0  0
 36 50  1  0  0  0  0
 36 70  1  0  0  0  0
 36 76  2  0  0  0  0
 37 59  1  0  0  0  0
 37 64  1  0  0  0  0
 37 77  2  0  0  0  0
 38 60  1  0  0  0  0
 38 71  1  0  0  0  0
 38 78  2  0  0  0  0
 39 65  1  0  0  0  0
 39 69  1  0  0  0  0
 39 79  2  0  0  0  0
 40 43  1  0  0  0  0
 41 50  1  0  0  0  0
 42 64  1  0  0  0  0
 43 45  1  0  0  0  0
 44 46  1  0  0  0  0
 44 47  1  0  0  0  0
 45 49  1  0  0  0  0
 46 51  1  0  0  0  0
 47 65  1  0  0  0  0
 48 51  1  0  0  0  0
 48 65  1  0  0  0  0
 49 70  1  0  0  0  0
 50 64  1  0  0  0  0
 51 63  1  0  0  0  0
 52 58  1  0  0  0  0
 53 60  1  0  0  0  0
 54 61  1  0  0  0  0
 55 61  1  0  0  0  0
 56 61  1  0  0  0  0
 57 73  1  0  0  0  0
 58 72  1  0  0  0  0
 59 61  1  0  0  0  0
 59 71  1  0  0  0  0
 60 73  1  0  0  0  0
 62 63  1  0  0  0  0
M  CHG  2  72   1  73   1
M  ISO  4  32 101  39 100  69 100  82 101
M  END
> <Batch ID>
0169

> <Smiles>
CNC(C)C(=O)NC(C(=O)N1Cc2cc([101O:1][101CH2:1]C(=O)C(=O)Nc3sc([100NH:0][100C:0](=O)N4CCCC(n5nc(-c6ccc(Oc7ccc(F)cc7F)cc6)c(C(N)=O)c5N)C4)cc3C(C)N)ccc2CC1C(=O)NC1CCCc2ccccc21)C(C)(C)C

> <Shape>
0.286

> <Color>
0.189

> <Negative vol penalty>
0.000

$$$$

  -OEChem-04052304173D

 86 94  0     1  0  0  0  0  0999 V2000
  -27.7575  -32.3306   27.5642 C   0  0  0  0  0  0  0  0  0  0  0  0
  -27.9182  -31.2929   26.6517 C   0  0  0  0  0  0  0  0  0  0  0  0
  -24.2347   -8.2025   20.9554 C   0  0  0  0  0  0  0  0  0  0  0  0
  -23.5589  -10.4874   20.5560 C   0  0  0  0  0  0  0  0  0  0  0  0
  -26.4828  -32.8232   27.8406 C   0  0  0  0  0  0  0  0  0  0  0  0
  -26.8040  -30.7464   26.0157 C   0  0  0  0  0  0  0  0  0  0  0  0
  -27.5401  -30.0644   21.0521 C   0  0  0  0  0  0  0  0  0  0  0  0
  -23.1827   -8.0492   21.8584 C   0  0  0  0  0  0  0  0  0  0  0  0
  -22.5069  -10.3341   21.4590 C   0  0  0  0  0  0  0  0  0  0  0  0
  -28.2943  -28.9571   20.6665 C   0  0  0  0  0  0  0  0  0  0  0  0
  -22.5110   -8.8830   25.0643 C   0  0  0  0  0  0  0  0  0  0  0  0
  -22.7863   -8.2537   26.2782 C   0  0  0  0  0  0  0  0  0  0  0  0
  -26.2636  -27.7600   20.1539 C   0  0  0  0  0  0  0  0  0  0  0  0
  -31.1711  -16.1290   20.3888 C   0  0  0  0  0  0  0  0  0  0  0  0
  -21.1674   -6.5380   25.7560 C   0  0  0  0  0  0  0  0  0  0  0  0
  -29.0357  -16.4167   19.3818 C   0  0  0  0  0  0  0  0  0  0  0  0
  -24.4229   -9.4216   20.3043 C   0  0  0  0  0  0  0  0  0  0  0  0
  -25.4848   -9.3315   17.9866 C   0  0  0  0  0  0  0  0  0  0  0  0
  -25.3534  -32.2890   27.2006 C   0  0  0  0  0  0  0  0  0  0  0  0
  -26.1393  -30.0240   21.0017 C   0  0  0  0  0  0  0  0  0  0  0  0
  -25.5128  -31.2314   26.2848 C   0  0  0  0  0  0  0  0  0  0  0  0
  -25.4940  -28.8691   20.5370 C   0  0  0  0  0  0  0  0  0  0  0  0
  -30.0830  -15.5760   19.7227 C   0  0  0  0  0  0  0  0  0  0  0  0
  -22.3188   -9.1149   22.1102 C   0  0  0  0  0  0  0  0  0  0  0  0
  -27.6560  -27.8036   20.2201 C   0  0  0  0  0  0  0  0  0  0  0  0
  -21.5637   -8.3400   24.1962 C   0  0  0  0  0  0  0  0  0  0  0  0
  -22.1146   -7.0812   26.6241 C   0  0  0  0  0  0  0  0  0  0  0  0
  -31.1785  -17.4865   20.6893 C   0  0  0  0  0  0  0  0  0  0  0  0
  -20.8919   -7.1675   24.5421 C   0  0  0  0  0  0  0  0  0  0  0  0
  -25.5097   -9.5808   19.3718 C   0  0  0  0  0  0  0  0  0  0  0  0
  -30.0822  -18.2417   20.3049 C   0  0  0  0  0  0  0  0  0  0  0  0
  -26.7550   -9.6336   17.5604 C   0  0  0  0  0  0  0  0  0  0  0  0
  -24.4095   -8.8683   17.1590 C   0  0  0  0  0  0  0  0  0  0  0  0
  -23.8095  -30.2701   23.1500 C   0  0  0  0  0  0  0  0  0  0  0  0
  -29.3871  -21.9039   20.7520 C   0  0  0  0  0  0  0  0  0  0  0  0
  -28.8560  -24.3823   20.2745 C   0  0  0  0  0  0  0  0  0  0  0  0
  -21.9089  -30.2013   20.5222 C   0  0  0  0  0  0  0  0  0  0  0  0
  -21.5108  -29.2899   17.2576 C   0  0  0  0  0  0  0  0  0  0  0  0
  -31.0227  -13.2390   19.6801 C   0  0  0  0  0  0  0  0  0  0  0  0
  -23.9911  -32.8224   27.5671 C   0  0  0  0  0  0  0  0  0  0  0  0
  -25.3409  -31.2363   21.3959 C   0  0  0  0  0  0  0  0  0  0  0  0
  -23.9932  -28.7819   20.4448 C   0  0  0  0  0  0  0  0  0  0  0  0
  -22.8993  -32.4407   26.5708 C   0  0  0  0  0  0  0  0  0  0  0  0
  -31.2922   -9.7382   19.0893 C   0  0  0  0  0  0  0  0  0  0  0  0
  -22.9895  -30.9585   26.2218 C   0  0  0  0  0  0  0  0  0  0  0  0
  -29.8378   -9.2789   18.9626 C   0  0  0  0  0  0  0  0  0  0  0  0
  -31.4510  -10.8350   20.1408 C   0  0  0  0  0  0  0  0  0  0  0  0
  -29.1064  -11.5313   19.8452 C   0  0  0  0  0  0  0  0  0  0  0  0
  -24.3311  -30.6291   25.5562 C   0  0  1  0  0  0  0  0  0  0  0  0
  -23.9054  -30.9038   21.7910 C   0  0  1  0  0  0  0  0  0  0  0  0
  -28.8861  -10.4729   18.7521 C   0  0  2  0  0  0  0  0  0  0  0  0
  -19.8346  -29.3337   15.3905 C   0  0  0  0  0  0  0  0  0  0  0  0
  -20.3922  -27.9011   21.8331 C   0  0  0  0  0  0  0  0  0  0  0  0
  -19.3945  -27.3769   19.5975 C   0  0  0  0  0  0  0  0  0  0  0  0
  -18.9443  -29.5804   20.6766 C   0  0  0  0  0  0  0  0  0  0  0  0
  -23.2776  -30.9445   15.5548 C   0  0  0  0  0  0  0  0  0  0  0  0
  -28.3447  -22.9686   20.4676 C   0  0  0  0  0  0  0  0  0  0  0  0
  -29.0384  -20.5078   20.2765 C   0  0  0  0  0  0  0  0  0  0  0  0
  -27.7948  -25.4372   20.0280 C   0  0  0  0  0  0  0  0  0  1  0  0
  -21.2367  -29.1156   19.7170 C   0  0  1  0  0  0  0  0  0  0  0  0
  -20.9965  -30.0574   16.0531 C   0  0  2  0  0  0  0  0  0  0  0  0
  -20.0202  -28.4941   20.4595 C   0  0  0  0  0  0  0  0  0  0  0  0
  -29.0071  -17.7400   19.6567 N   0  0  0  0  0  0  0  0  0  0  0  0
  -26.7015  -10.0082   19.7974 N   0  0  0  0  0  0  0  0  0  0  0  0
  -27.4372  -10.0297   18.6730 N   0  0  0  0  0  0  0  0  0  0  0  0
  -23.2564  -29.9912   20.8475 N   0  0  0  0  0  0  0  0  0  0  0  0
  -30.5211  -11.9347   19.8747 N   0  0  0  0  0  0  0  0  0  0  0  0
  -27.3439   -9.5963   16.3462 N   0  0  0  0  0  0  0  0  0  0  0  0
  -23.1702   -8.6058   17.7586 N   0  0  0  0  0  0  0  0  0  0  0  0
  -30.0475  -14.1963   19.4021 N   0  0  0  0  0  0  0  0  0  0  0  0
  -30.1019  -19.5950   20.6101 N   0  0  0  0  0  0  0  0  0  0  0  0
  -24.3239  -31.0467   24.1706 N   0  0  0  0  0  0  0  0  0  0  0  0
  -20.9088  -29.7090   18.4252 N   0  0  0  0  0  0  0  0  0  0  0  0
  -22.0810  -30.2267   15.0450 N   0  3  0  0  0  0  0  0  0  0  0  0
  -24.5483   -8.6768   15.9271 O   0  0  0  0  0  0  0  0  0  0  0  0
  -23.3046  -29.1593   23.2644 O   0  0  0  0  0  0  0  0  0  0  0  0
  -30.4264  -22.1496   21.3627 O   0  0  0  0  0  0  0  0  0  0  0  0
  -30.0538  -24.6611   20.2780 O   0  0  0  0  0  0  0  0  0  0  0  0
  -21.2641  -31.2024   20.8443 O   0  0  0  0  0  0  0  0  0  0  0  0
  -22.3587  -28.4045   17.1709 O   0  0  0  0  0  0  0  0  0  0  0  0
  -32.2310  -13.4834   19.7276 O   0  0  0  0  0  0  0  0  0  0  0  0
  -21.2920   -8.9656   22.9911 O   0  0  0  0  0  0  0  0  0  0  0  0
  -28.3898  -26.7211   19.8437 O   0  0  0  0  0  0  0  0  0  1  0  0
  -22.3803   -6.4760   27.7891 F   0  0  0  0  0  0  0  0  0  0  0  0
  -32.2197  -18.0329   21.3300 F   0  0  0  0  0  0  0  0  0  0  0  0
  -19.9818   -6.6404   23.7117 F   0  0  0  0  0  0  0  0  0  0  0  0
  1  2  1  0  0  0  0
  1  5  2  0  0  0  0
  2  6  2  0  0  0  0
  3  8  2  0  0  0  0
  3 17  1  0  0  0  0
  4  9  1  0  0  0  0
  4 17  2  0  0  0  0
  5 19  1  0  0  0  0
  6 21  1  0  0  0  0
  7 10  2  0  0  0  0
  7 20  1  0  0  0  0
  8 24  1  0  0  0  0
  9 24  2  0  0  0  0
 10 25  1  0  0  0  0
 11 12  2  0  0  0  0
 11 26  1  0  0  0  0
 12 27  1  0  0  0  0
 13 22  1  0  0  0  0
 13 25  2  0  0  0  0
 14 23  2  0  0  0  0
 14 28  1  0  0  0  0
 15 27  2  0  0  0  0
 15 29  1  0  0  0  0
 16 23  1  0  0  0  0
 16 63  2  0  0  0  0
 17 30  1  0  0  0  0
 18 30  1  0  0  0  0
 18 32  2  0  0  0  0
 18 33  1  0  0  0  0
 19 21  2  0  0  0  0
 19 40  1  0  0  0  0
 20 22  2  0  0  0  0
 20 41  1  0  0  0  0
 21 49  1  0  0  0  0
 22 42  1  0  0  0  0
 23 70  1  0  0  0  0
 24 82  1  0  0  0  0
 25 83  1  0  0  0  0
 26 29  2  0  0  0  0
 26 82  1  0  0  0  0
 27 84  1  0  0  0  0
 28 31  2  0  0  0  0
 28 85  1  0  0  0  0
 29 86  1  0  0  0  0
 30 64  2  0  0  0  0
 31 63  1  0  0  0  0
 31 71  1  0  0  0  0
 32 65  1  0  0  0  0
 32 68  1  0  0  0  0
 33 69  1  0  0  0  0
 33 75  2  0  0  0  0
 34 50  1  0  0  0  0
 34 72  1  0  0  0  0
 34 76  2  0  0  0  0
 35 57  1  0  0  0  0
 35 58  1  0  0  0  0
 35 77  2  0  0  0  0
 36 57  1  0  0  0  0
 36 59  1  0  0  0  0
 36 78  2  0  0  0  0
 37 60  1  0  0  0  0
 37 66  1  0  0  0  0
 37 79  2  0  0  0  0
 38 61  1  0  0  0  0
 38 73  1  0  0  0  0
 38 80  2  0  0  0  0
 39 67  1  0  0  0  0
 39 70  1  0  0  0  0
 39 81  2  0  0  0  0
 40 43  1  0  0  0  0
 41 50  1  0  0  0  0
 42 66  1  0  0  0  0
 43 45  1  0  0  0  0
 44 46  1  0  0  0  0
 44 47  1  0  0  0  0
 45 49  1  0  0  0  0
 46 51  1  0  0  0  0
 47 67  1  0  0  0  0
 48 51  1  0  0  0  0
 48 67  1  0  0  0  0
 49 72  1  0  0  0  0
 50 66  1  0  0  0  0
 51 65  1  0  0  0  0
 52 61  1  0  0  0  0
 53 62  1  0  0  0  0
 54 62  1  0  0  0  0
 55 62  1  0  0  0  0
 56 74  1  0  0  0  0
 58 71  1  0  0  0  0
 59 83  1  0  0  0  0
 60 62  1  0  0  0  0
 60 73  1  0  0  0  0
 61 74  1  0  0  0  0
 64 65  1  0  0  0  0
M  CHG  1  74   1
M  ISO  4  39 100  59 101  70 100  83 101
M  END
> <Batch ID>
0169

> <Smiles>
CNC(C)C(=O)NC(C(=O)N1Cc2cc([101O:1][101CH2:1]C(=O)CC(=O)CNc3ncc([100NH:0][100C:0](=O)N4CCCC(n5nc(-c6ccc(Oc7ccc(F)cc7F)cc6)c(C(N)=O)c5N)C4)cc3F)ccc2CC1C(=O)NC1CCCc2ccccc21)C(C)(C)C

> <Shape>
0.271

> <Color>
0.084

> <Negative vol penalty>
0.000

$$$$

  -OEChem-04052304173D

 89 98  0     1  0  0  0  0  0999 V2000
  -27.8832  -33.6562   26.1179 C   0  0  0  0  0  0  0  0  0  0  0  0
  -28.5940  -32.6876   25.4165 C   0  0  0  0  0  0  0  0  0  0  0  0
  -22.9102   -9.9974   20.1260 C   0  0  0  0  0  0  0  0  0  0  0  0
  -24.2254   -9.5678   22.1067 C   0  0  0  0  0  0  0  0  0  0  0  0
  -26.5108  -33.5070   26.3135 C   0  0  0  0  0  0  0  0  0  0  0  0
  -27.9330  -31.5686   24.9112 C   0  0  0  0  0  0  0  0  0  0  0  0
  -29.1804  -28.5953   19.7046 C   0  0  0  0  0  0  0  0  0  0  0  0
  -22.5020   -8.6637   20.1078 C   0  0  0  0  0  0  0  0  0  0  0  0
  -23.8172   -8.2342   22.0885 C   0  0  0  0  0  0  0  0  0  0  0  0
  -29.9026  -27.4329   19.4381 C   0  0  0  0  0  0  0  0  0  0  0  0
  -21.0837   -6.4553   22.9741 C   0  0  0  0  0  0  0  0  0  0  0  0
  -20.6823   -5.8855   24.1823 C   0  0  0  0  0  0  0  0  0  0  0  0
  -27.8526  -26.1615   19.4600 C   0  0  0  0  0  0  0  0  0  0  0  0
  -29.1431  -19.2279   21.8861 C   0  0  0  0  0  0  0  0  0  0  0  0
  -22.4325   -4.2317   23.9838 C   0  0  0  0  0  0  0  0  0  0  0  0
  -28.0461  -18.4714   23.8561 C   0  0  0  0  0  0  0  0  0  0  0  0
  -23.7719  -10.4494   21.1254 C   0  0  0  0  0  0  0  0  0  0  0  0
  -23.5615  -12.9012   21.7979 C   0  0  0  0  0  0  0  0  0  0  0  0
  -25.8310  -32.3904   25.8020 C   0  0  0  0  0  0  0  0  0  0  0  0
  -27.7877  -28.5477   19.8618 C   0  0  0  0  0  0  0  0  0  0  0  0
  -26.5505  -31.4037   25.1013 C   0  0  0  0  0  0  0  0  0  0  0  0
  -27.1148  -27.3251   19.7259 C   0  0  0  0  0  0  0  0  0  0  0  0
  -28.6522  -18.1724   22.6466 C   0  0  0  0  0  0  0  0  0  0  0  0
  -29.0147  -20.5317   22.3519 C   0  0  0  0  0  0  0  0  0  0  0  0
  -22.9555   -7.7821   21.0890 C   0  0  0  0  0  0  0  0  0  0  0  0
  -29.2390  -26.2153   19.3187 C   0  0  0  0  0  0  0  0  0  0  0  0
  -22.1594   -5.9133   22.2707 C   0  0  0  0  0  0  0  0  0  0  0  0
  -21.3567   -4.7737   24.6872 C   0  0  0  0  0  0  0  0  0  0  0  0
  -22.8338   -4.8016   22.7755 C   0  0  0  0  0  0  0  0  0  0  0  0
  -24.1944  -11.8269   21.1445 C   0  0  0  0  0  0  0  0  0  0  0  0
  -28.3922  -20.7251   23.5746 C   0  0  0  0  0  0  0  0  0  0  0  0
  -24.3493  -13.9893   21.5118 C   0  0  0  0  0  0  0  0  0  0  0  0
  -22.3681  -12.9144   22.5926 C   0  0  0  0  0  0  0  0  0  0  0  0
  -30.5352  -22.8911   19.8458 C   0  0  0  0  0  0  0  0  0  0  0  0
  -30.1446  -21.5369   20.3631 C   0  0  0  0  0  0  0  0  0  0  0  0
  -25.7737  -29.2124   22.2294 C   0  0  0  0  0  0  0  0  0  0  0  0
  -23.5286  -28.6336   19.9608 C   0  0  0  0  0  0  0  0  0  0  0  0
  -22.7044  -27.1017   17.0246 C   0  0  0  0  0  0  0  0  0  0  0  0
  -29.3505  -16.3857   21.0137 C   0  0  0  0  0  0  0  0  0  0  0  0
  -24.3552  -32.2492   26.0795 C   0  0  0  0  0  0  0  0  0  0  0  0
  -27.0203  -29.8148   20.1225 C   0  0  0  0  0  0  0  0  0  0  0  0
  -25.6186  -27.2236   19.8657 C   0  0  0  0  0  0  0  0  0  0  0  0
  -23.6637  -31.2203   25.1888 C   0  0  0  0  0  0  0  0  0  0  0  0
  -26.8650  -24.2309   25.7125 C   0  0  0  0  0  0  0  0  0  0  0  0
  -28.1432  -23.5676   26.2164 C   0  0  0  0  0  0  0  0  0  0  0  0
  -26.7840  -24.2118   24.1891 C   0  0  0  0  0  0  0  0  0  0  0  0
  -28.1594  -14.5235   18.2225 C   0  0  0  0  0  0  0  0  0  0  0  0
  -24.4807  -29.9337   25.1259 C   0  0  0  0  0  0  0  0  0  0  0  0
  -28.2947  -22.1485   25.6715 C   0  0  0  0  0  0  0  0  0  0  0  0
  -26.9288  -22.7959   23.6342 C   0  0  0  0  0  0  0  0  0  0  0  0
  -26.9696  -13.7443   18.7876 C   0  0  0  0  0  0  0  0  0  0  0  0
  -29.2921  -14.6460   19.2403 C   0  0  0  0  0  0  0  0  0  0  0  0
  -27.7073  -14.4093   21.1115 C   0  0  0  0  0  0  0  0  0  0  0  0
  -25.8646  -30.1881   24.5164 C   0  0  1  0  0  0  0  0  0  0  0  0
  -28.2194  -22.1210   24.1339 C   0  0  0  0  0  0  0  0  0  0  0  0
  -25.6629  -29.5679   20.7737 C   0  0  1  0  0  0  0  0  0  0  0  0
  -26.5153  -14.3157   20.1451 C   0  0  2  0  0  0  0  0  0  0  0  0
  -20.7843  -26.7816   15.4409 C   0  0  0  0  0  0  0  0  0  0  0  0
  -22.2702  -26.6363   21.8939 C   0  0  0  0  0  0  0  0  0  0  0  0
  -20.9854  -25.6862   19.9665 C   0  0  0  0  0  0  0  0  0  0  0  0
  -20.6316  -28.0589   20.6506 C   0  0  0  0  0  0  0  0  0  0  0  0
  -24.1730  -28.3888   14.8007 C   0  0  0  0  0  0  0  0  0  0  0  0
  -29.4121  -23.8568   19.5713 C   0  0  0  0  0  0  0  0  0  1  0  0
  -22.7798  -27.4122   19.4847 C   0  0  1  0  0  0  0  0  0  0  0  0
  -22.0076  -27.6194   15.7793 C   0  0  2  0  0  0  0  0  0  0  0  0
  -21.6952  -26.9496   20.4982 C   0  0  0  0  0  0  0  0  0  0  0  0
  -27.9029  -19.7250   24.3415 N   0  0  0  0  0  0  0  0  0  0  0  0
  -25.2990  -12.1987   20.4922 N   0  0  0  0  0  0  0  0  0  0  0  0
  -25.3664  -13.5189   20.7343 N   0  0  0  0  0  0  0  0  0  0  0  0
  -24.9133  -28.4893   20.1266 N   0  0  0  0  0  0  0  0  0  0  0  0
  -28.7882  -15.1981   20.4997 N   0  0  0  0  0  0  0  0  0  0  0  0
  -24.2643  -15.2929   21.8518 N   0  0  0  0  0  0  0  0  0  0  0  0
  -21.6811  -11.7083   22.7864 N   0  0  0  0  0  0  0  0  0  0  0  0
  -29.5116  -21.6113   21.5850 N   0  0  0  0  0  0  0  0  0  0  0  0
  -28.7687  -16.8329   22.1995 N   0  0  0  0  0  0  0  0  0  0  0  0
  -25.7694  -30.3038   23.0770 N   0  0  0  0  0  0  0  0  0  0  0  0
  -22.2599  -27.7419   18.1621 N   0  0  0  0  0  0  0  0  0  0  0  0
  -22.9365  -27.5867   14.6144 N   0  3  0  0  0  0  0  0  0  0  0  0
  -21.9153  -13.9676   23.1018 O   0  0  0  0  0  0  0  0  0  0  0  0
  -31.7244  -23.1064   19.6661 O   0  0  0  0  0  0  0  0  0  0  0  0
  -30.4505  -20.5791   19.6724 O   0  0  0  0  0  0  0  0  0  0  0  0
  -25.8554  -28.0350   22.5593 O   0  0  0  0  0  0  0  0  0  0  0  0
  -22.9087  -29.6792   20.1707 O   0  0  0  0  0  0  0  0  0  0  0  0
  -23.5552  -26.2153   16.9920 O   0  0  0  0  0  0  0  0  0  0  0  0
  -30.2614  -16.9782   20.4296 O   0  0  0  0  0  0  0  0  0  0  0  0
  -22.5572   -6.4807   21.0717 O   0  0  0  0  0  0  0  0  0  0  0  0
  -29.9416  -25.0791   19.0593 O   0  0  0  0  0  0  0  0  0  1  0  0
  -20.9721   -4.2275   25.8482 F   0  0  0  0  0  0  0  0  0  0  0  0
  -23.8687   -4.2772   22.1048 F   0  0  0  0  0  0  0  0  0  0  0  0
  1  2  1  0  0  0  0
  1  5  2  0  0  0  0
  2  6  2  0  0  0  0
  3  8  2  0  0  0  0
  3 17  1  0  0  0  0
  4  9  1  0  0  0  0
  4 17  2  0  0  0  0
  5 19  1  0  0  0  0
  6 21  1  0  0  0  0
  7 10  2  0  0  0  0
  7 20  1  0  0  0  0
  8 25  1  0  0  0  0
  9 25  2  0  0  0  0
 10 26  1  0  0  0  0
 11 12  2  0  0  0  0
 11 27  1  0  0  0  0
 12 28  1  0  0  0  0
 13 22  1  0  0  0  0
 13 26  2  0  0  0  0
 14 23  2  0  0  0  0
 14 24  1  0  0  0  0
 15 28  2  0  0  0  0
 15 29  1  0  0  0  0
 16 23  1  0  0  0  0
 16 67  2  0  0  0  0
 17 30  1  0  0  0  0
 18 30  1  0  0  0  0
 18 32  2  0  0  0  0
 18 33  1  0  0  0  0
 19 21  2  0  0  0  0
 19 40  1  0  0  0  0
 20 22  2  0  0  0  0
 20 41  1  0  0  0  0
 21 54  1  0  0  0  0
 22 42  1  0  0  0  0
 23 75  1  0  0  0  0
 24 31  2  0  0  0  0
 24 74  1  0  0  0  0
 25 86  1  0  0  0  0
 26 87  1  0  0  0  0
 27 29  2  0  0  0  0
 27 86  1  0  0  0  0
 28 88  1  0  0  0  0
 29 89  1  0  0  0  0
 30 68  2  0  0  0  0
 31 55  1  0  0  0  0
 31 67  1  0  0  0  0
 32 69  1  0  0  0  0
 32 72  1  0  0  0  0
 33 73  1  0  0  0  0
 33 79  2  0  0  0  0
 34 35  1  0  0  0  0
 34 63  1  0  0  0  0
 34 80  2  0  0  0  0
 35 74  1  0  0  0  0
 35 81  2  0  0  0  0
 36 56  1  0  0  0  0
 36 76  1  0  0  0  0
 36 82  2  0  0  0  0
 37 64  1  0  0  0  0
 37 70  1  0  0  0  0
 37 83  2  0  0  0  0
 38 65  1  0  0  0  0
 38 77  1  0  0  0  0
 38 84  2  0  0  0  0
 39 71  1  0  0  0  0
 39 75  1  0  0  0  0
 39 85  2  0  0  0  0
 40 43  1  0  0  0  0
 41 56  1  0  0  0  0
 42 70  1  0  0  0  0
 43 48  1  0  0  0  0
 44 45  1  0  0  0  0
 44 46  1  0  0  0  0
 45 49  1  0  0  0  0
 46 50  1  0  0  0  0
 47 51  1  0  0  0  0
 47 52  1  0  0  0  0
 48 54  1  0  0  0  0
 49 55  1  0  0  0  0
 50 55  1  0  0  0  0
 51 57  1  0  0  0  0
 52 71  1  0  0  0  0
 53 57  1  0  0  0  0
 53 71  1  0  0  0  0
 54 76  1  0  0  0  0
 56 70  1  0  0  0  0
 57 69  1  0  0  0  0
 58 65  1  0  0  0  0
 59 66  1  0  0  0  0
 60 66  1  0  0  0  0
 61 66  1  0  0  0  0
 62 78  1  0  0  0  0
 63 87  1  0  0  0  0
 64 66  1  0  0  0  0
 64 77  1  0  0  0  0
 65 78  1  0  0  0  0
 68 69  1  0  0  0  0
M  CHG  1  78   1
M  ISO  4  39 100  63 101  75 100  87 101
M  END
> <Batch ID>
0169

> <Smiles>
CNC(C)C(=O)NC(C(=O)N1Cc2cc([101O:1][101CH2:1]C(=O)C(=O)Nc3cc([100NH:0][100C:0](=O)N4CCCC(n5nc(-c6ccc(Oc7ccc(F)cc7F)cc6)c(C(N)=O)c5N)C4)cnc3C3CCCCC3)ccc2CC1C(=O)NC1CCCc2ccccc21)C(C)(C)C

> <Shape>
0.330

> <Color>
0.102

> <Negative vol penalty>
0.000

$$$$

  -OEChem-04052304173D

 86 94  0     1  0  0  0  0  0999 V2000
  -23.4212  -25.9230   21.2318 C   0  0  0  0  0  0  0  0  0  0  0  0
  -24.5292  -25.4519   21.9288 C   0  0  0  0  0  0  0  0  0  0  0  0
  -23.0721   -9.8573   19.9388 C   0  0  0  0  0  0  0  0  0  0  0  0
  -23.8326   -9.8598   22.2320 C   0  0  0  0  0  0  0  0  0  0  0  0
  -23.5414  -27.0411   20.4075 C   0  0  0  0  0  0  0  0  0  0  0  0
  -25.7583  -26.0979   21.8011 C   0  0  0  0  0  0  0  0  0  0  0  0
  -28.0741  -26.7656   26.2548 C   0  0  0  0  0  0  0  0  0  0  0  0
  -22.3265   -8.7050   20.1873 C   0  0  0  0  0  0  0  0  0  0  0  0
  -23.0869   -8.7075   22.4806 C   0  0  0  0  0  0  0  0  0  0  0  0
  -28.7204  -25.6612   26.8084 C   0  0  0  0  0  0  0  0  0  0  0  0
  -19.8576   -7.9140   23.0827 C   0  0  0  0  0  0  0  0  0  0  0  0
  -19.1009   -7.8736   24.2538 C   0  0  0  0  0  0  0  0  0  0  0  0
  -30.8333  -26.5013   26.0027 C   0  0  0  0  0  0  0  0  0  0  0  0
  -31.8054  -17.5263   21.7148 C   0  0  0  0  0  0  0  0  0  0  0  0
  -20.3394   -5.9331   24.9872 C   0  0  0  0  0  0  0  0  0  0  0  0
  -23.8253  -10.4347   20.9612 C   0  0  0  0  0  0  0  0  0  0  0  0
  -24.1711  -12.9595   20.8446 C   0  0  0  0  0  0  0  0  0  0  0  0
  -24.7703  -27.7070   20.2772 C   0  0  0  0  0  0  0  0  0  0  0  0
  -28.8025  -27.7423   25.5605 C   0  0  0  0  0  0  0  0  0  0  0  0
  -25.8953  -27.2252   20.9733 C   0  0  0  0  0  0  0  0  0  0  0  0
  -30.1943  -27.6185   25.4435 C   0  0  0  0  0  0  0  0  0  0  0  0
  -31.8954  -18.7842   22.3780 C   0  0  0  0  0  0  0  0  0  0  0  0
  -22.3338   -8.1301   21.4582 C   0  0  0  0  0  0  0  0  0  0  0  0
  -30.0997  -25.5274   26.6799 C   0  0  0  0  0  0  0  0  0  0  0  0
  -20.8552   -6.9639   22.8639 C   0  0  0  0  0  0  0  0  0  0  0  0
  -19.3418   -6.8832   25.2060 C   0  0  0  0  0  0  0  0  0  0  0  0
  -21.0961   -5.9735   23.8161 C   0  0  0  0  0  0  0  0  0  0  0  0
  -24.5962  -11.6248   20.7049 C   0  0  0  0  0  0  0  0  0  0  0  0
  -25.2643  -13.7078   20.4822 C   0  0  0  0  0  0  0  0  0  0  0  0
  -30.5933  -16.9103   21.9359 C   0  0  0  0  0  0  0  0  0  0  0  0
  -30.7483  -19.0818   23.0805 C   0  0  0  0  0  0  0  0  0  0  0  0
  -22.9015  -13.4767   21.2646 C   0  0  0  0  0  0  0  0  0  0  0  0
  -30.4812  -22.3036   25.0066 C   0  0  0  0  0  0  0  0  0  0  0  0
  -31.1796  -21.3118   24.1215 C   0  0  0  0  0  0  0  0  0  0  0  0
  -28.8078  -28.8377   22.5766 C   0  0  0  0  0  0  0  0  0  0  0  0
  -30.9161  -30.9875   23.7831 C   0  0  0  0  0  0  0  0  0  0  0  0
  -33.2171  -31.7552   26.1836 C   0  0  0  0  0  0  0  0  0  0  0  0
  -30.7323  -14.7443   20.6571 C   0  0  0  0  0  0  0  0  0  0  0  0
  -24.8626  -28.8832   19.3376 C   0  0  0  0  0  0  0  0  0  0  0  0
  -28.0940  -28.9413   24.9923 C   0  0  0  0  0  0  0  0  0  0  0  0
  -31.0246  -28.6495   24.7252 C   0  0  0  0  0  0  0  0  0  0  0  0
  -26.1116  -29.7349   19.5488 C   0  0  0  0  0  0  0  0  0  0  0  0
  -29.6133  -12.3358   18.2855 C   0  0  0  0  0  0  0  0  0  0  0  0
  -27.3476  -28.8492   19.6697 C   0  0  0  0  0  0  0  0  0  0  0  0
  -28.1733  -12.0459   18.7150 C   0  0  0  0  0  0  0  0  0  0  0  0
  -30.5291  -12.5613   19.4873 C   0  0  0  0  0  0  0  0  0  0  0  0
  -28.6237  -13.2868   20.8701 C   0  0  0  0  0  0  0  0  0  0  0  0
  -27.2397  -27.9137   20.8800 C   0  0  1  0  0  0  0  0  0  0  0  0
  -28.8682  -29.6129   23.8623 C   0  0  1  0  0  0  0  0  0  0  0  0
  -27.6503  -13.1169   19.6923 C   0  0  2  0  0  0  0  0  0  0  0  0
  -34.8018  -33.5703   26.8846 C   0  0  0  0  0  0  0  0  0  0  0  0
  -29.8733  -22.8353   28.7671 C   0  0  0  0  0  0  0  0  0  0  0  0
  -32.8302  -30.1754   21.5500 C   0  0  0  0  0  0  0  0  0  0  0  0
  -34.6797  -31.2745   22.8305 C   0  0  0  0  0  0  0  0  0  0  0  0
  -32.7519  -32.6314   22.0151 C   0  0  0  0  0  0  0  0  0  0  0  0
  -33.9061  -19.6609   21.1888 C   0  0  0  0  0  0  0  0  0  0  0  0
  -31.8436  -32.1111   28.7809 C   0  0  0  0  0  0  0  0  0  0  0  0
  -30.7194  -22.1611   26.4946 C   0  0  0  0  0  0  0  0  0  0  0  0
  -32.4158  -31.0371   23.9483 C   0  0  1  0  0  0  0  0  0  0  0  0
  -33.4032  -32.9940   27.0411 C   0  0  2  0  0  0  0  0  0  0  0  0
  -29.9898  -23.2347   27.3021 C   0  0  2  0  0  0  0  0  0  1  0  0
  -33.1538  -31.2590   22.5979 C   0  0  0  0  0  0  0  0  0  0  0  0
  -25.8608  -11.5275   20.2862 N   0  0  0  0  0  0  0  0  0  0  0  0
  -26.2397  -12.8107   20.1596 N   0  0  0  0  0  0  0  0  0  0  0  0
  -30.2850  -29.8005   24.1815 N   0  0  0  0  0  0  0  0  0  0  0  0
  -29.9720  -13.5918   20.3663 N   0  0  0  0  0  0  0  0  0  0  0  0
  -25.4768  -15.0390   20.4110 N   0  0  0  0  0  0  0  0  0  0  0  0
  -21.8882  -12.5687   21.6008 N   0  0  0  0  0  0  0  0  0  0  0  0
  -32.9836  -19.5878   22.3201 N   0  0  0  0  0  0  0  0  0  0  0  0
  -30.4014  -20.2023   23.8708 N   0  0  0  0  0  0  0  0  0  0  0  0
  -30.0866  -15.6692   21.4770 N   0  0  0  0  0  0  0  0  0  0  0  0
  -27.5260  -28.6337   22.1023 N   0  0  0  0  0  0  0  0  0  0  0  0
  -32.6823  -32.0632   24.9506 N   0  0  0  0  0  0  0  0  0  0  0  0
  -33.1882  -32.6659   28.4788 N   0  3  0  0  0  0  0  0  0  0  0  0
  -22.6672  -14.7077   21.3238 O   0  0  0  0  0  0  0  0  0  0  0  0
  -29.7857  -23.1472   24.4614 O   0  0  0  0  0  0  0  0  0  0  0  0
  -32.2946  -21.6177   23.7324 O   0  0  0  0  0  0  0  0  0  0  0  0
  -29.8471  -28.4543   22.0527 O   0  0  0  0  0  0  0  0  0  0  0  0
  -30.3255  -31.9685   23.3243 O   0  0  0  0  0  0  0  0  0  0  0  0
  -33.5196  -30.6276   26.5678 O   0  0  0  0  0  0  0  0  0  0  0  0
  -31.8615  -14.9119   20.1894 O   0  0  0  0  0  0  0  0  0  0  0  0
  -21.6062   -7.0058   21.7011 O   0  0  0  0  0  0  0  0  0  0  0  0
  -30.7329  -24.4500   27.2186 O   0  0  0  0  0  0  0  0  0  1  0  0
  -18.6161   -6.8455   26.3312 F   0  0  0  0  0  0  0  0  0  0  0  0
  -22.0539   -5.0588   23.6119 F   0  0  0  0  0  0  0  0  0  0  0  0
  -29.5699  -17.8475   22.9393 S   0  0  0  0  0  0  0  0  0  0  0  0
  1  2  1  0  0  0  0
  1  5  2  0  0  0  0
  2  6  2  0  0  0  0
  3  8  2  0  0  0  0
  3 16  1  0  0  0  0
  4  9  1  0  0  0  0
  4 16  2  0  0  0  0
  5 18  1  0  0  0  0
  6 20  1  0  0  0  0
  7 10  2  0  0  0  0
  7 19  1  0  0  0  0
  8 23  1  0  0  0  0
  9 23  2  0  0  0  0
 10 24  1  0  0  0  0
 11 12  2  0  0  0  0
 11 25  1  0  0  0  0
 12 26  1  0  0  0  0
 13 21  1  0  0  0  0
 13 24  2  0  0  0  0
 14 22  1  0  0  0  0
 14 30  2  0  0  0  0
 15 26  2  0  0  0  0
 15 27  1  0  0  0  0
 16 28  1  0  0  0  0
 17 28  1  0  0  0  0
 17 29  2  0  0  0  0
 17 32  1  0  0  0  0
 18 20  2  0  0  0  0
 18 39  1  0  0  0  0
 19 21  2  0  0  0  0
 19 40  1  0  0  0  0
 20 48  1  0  0  0  0
 21 41  1  0  0  0  0
 22 31  2  0  0  0  0
 22 69  1  0  0  0  0
 23 82  1  0  0  0  0
 24 83  1  0  0  0  0
 25 27  2  0  0  0  0
 25 82  1  0  0  0  0
 26 84  1  0  0  0  0
 27 85  1  0  0  0  0
 28 63  2  0  0  0  0
 29 64  1  0  0  0  0
 29 67  1  0  0  0  0
 30 71  1  0  0  0  0
 30 86  1  0  0  0  0
 31 70  1  0  0  0  0
 31 86  1  0  0  0  0
 32 68  1  0  0  0  0
 32 75  2  0  0  0  0
 33 34  1  0  0  0  0
 33 58  1  0  0  0  0
 33 76  2  0  0  0  0
 34 70  1  0  0  0  0
 34 77  2  0  0  0  0
 35 49  1  0  0  0  0
 35 72  1  0  0  0  0
 35 78  2  0  0  0  0
 36 59  1  0  0  0  0
 36 65  1  0  0  0  0
 36 79  2  0  0  0  0
 37 60  1  0  0  0  0
 37 73  1  0  0  0  0
 37 80  2  0  0  0  0
 38 66  1  0  0  0  0
 38 71  1  0  0  0  0
 38 81  2  0  0  0  0
 39 42  1  0  0  0  0
 40 49  1  0  0  0  0
 41 65  1  0  0  0  0
 42 44  1  0  0  0  0
 43 45  1  0  0  0  0
 43 46  1  0  0  0  0
 44 48  1  0  0  0  0
 45 50  1  0  0  0  0
 46 66  1  0  0  0  0
 47 50  1  0  0  0  0
 47 66  1  0  0  0  0
 48 72  1  0  0  0  0
 49 65  1  0  0  0  0
 50 64  1  0  0  0  0
 51 60  1  0  0  0  0
 52 61  1  0  0  0  0
 53 62  1  0  0  0  0
 54 62  1  0  0  0  0
 55 62  1  0  0  0  0
 56 69  1  0  0  0  0
 57 74  1  0  0  0  0
 58 61  1  0  0  0  0
 59 62  1  0  0  0  0
 59 73  1  0  0  0  0
 60 74  1  0  0  0  0
 61 83  1  0  0  0  0
 63 64  1  0  0  0  0
M  CHG  1  74   1
M  ISO  4  38 100  61 101  71 100  83 101
M  END
> <Batch ID>
0169

> <Smiles>
CNc1cc([100NH:0][100C:0](=O)N2CCCC(n3nc(-c4ccc(Oc5ccc(F)cc5F)cc4)c(C(N)=O)c3N)C2)sc1NC(=O)C(=O)C[101CH:1](C)[101O:1]c1ccc2c(c1)CN(C(=O)C(NC(=O)C(C)NC)C(C)(C)C)C(C(=O)NC1CCCc3ccccc31)C2

> <Shape>
0.213

> <Color>
0.208

> <Negative vol penalty>
0.000

$$$$

  -OEChem-04052304173D

 88 97  0     1  0  0  0  0  0999 V2000
  -38.1462  -28.4636   13.8231 C   0  0  0  0  0  0  0  0  0  0  0  0
  -37.7174  -27.8845   15.0132 C   0  0  0  0  0  0  0  0  0  0  0  0
  -23.0617   -9.9184   19.9083 C   0  0  0  0  0  0  0  0  0  0  0  0
  -23.8477   -9.8492   22.1918 C   0  0  0  0  0  0  0  0  0  0  0  0
  -37.2139  -28.9881   12.9289 C   0  0  0  0  0  0  0  0  0  0  0  0
  -36.3560  -27.8305   15.3102 C   0  0  0  0  0  0  0  0  0  0  0  0
  -34.9356  -23.3110   17.0994 C   0  0  0  0  0  0  0  0  0  0  0  0
  -22.3135   -8.7624   20.1308 C   0  0  0  0  0  0  0  0  0  0  0  0
  -23.0994   -8.6933   22.4144 C   0  0  0  0  0  0  0  0  0  0  0  0
  -35.2303  -23.0331   18.4334 C   0  0  0  0  0  0  0  0  0  0  0  0
  -19.8734   -7.8962   23.0291 C   0  0  0  0  0  0  0  0  0  0  0  0
  -19.1296   -7.8243   24.2069 C   0  0  0  0  0  0  0  0  0  0  0  0
  -32.9596  -23.5746   19.0416 C   0  0  0  0  0  0  0  0  0  0  0  0
  -29.9717  -17.3703   23.2703 C   0  0  0  0  0  0  0  0  0  0  0  0
  -20.3671   -5.8574   24.8682 C   0  0  0  0  0  0  0  0  0  0  0  0
  -32.1088  -16.5393   22.6387 C   0  0  0  0  0  0  0  0  0  0  0  0
  -23.8288  -10.4618   20.9388 C   0  0  0  0  0  0  0  0  0  0  0  0
  -24.1852  -12.9874   20.8935 C   0  0  0  0  0  0  0  0  0  0  0  0
  -35.8398  -28.9318   13.2106 C   0  0  0  0  0  0  0  0  0  0  0  0
  -33.6515  -23.7340   16.7273 C   0  0  0  0  0  0  0  0  0  0  0  0
  -35.4046  -28.3559   14.4195 C   0  0  0  0  0  0  0  0  0  0  0  0
  -32.6505  -23.8548   17.7018 C   0  0  0  0  0  0  0  0  0  0  0  0
  -30.7326  -16.5169   22.4790 C   0  0  0  0  0  0  0  0  0  0  0  0
  -22.3323   -8.1499   21.3838 C   0  0  0  0  0  0  0  0  0  0  0  0
  -34.2431  -23.1676   19.4052 C   0  0  0  0  0  0  0  0  0  0  0  0
  -20.8640   -6.9488   22.7708 C   0  0  0  0  0  0  0  0  0  0  0  0
  -19.3764   -6.8049   25.1264 C   0  0  0  0  0  0  0  0  0  0  0  0
  -30.6013  -18.2081   24.1840 C   0  0  0  0  0  0  0  0  0  0  0  0
  -21.1108   -5.9294   23.6903 C   0  0  0  0  0  0  0  0  0  0  0  0
  -24.6024  -11.6555   20.7094 C   0  0  0  0  0  0  0  0  0  0  0  0
  -31.9833  -18.1546   24.2675 C   0  0  0  0  0  0  0  0  0  0  0  0
  -25.2778  -13.7413   20.5412 C   0  0  0  0  0  0  0  0  0  0  0  0
  -22.9228  -13.4974   21.3430 C   0  0  0  0  0  0  0  0  0  0  0  0
  -32.4526  -26.3601   15.3969 C   0  0  0  0  0  0  0  0  0  0  0  0
  -33.9905  -21.5159   22.6200 C   0  0  0  0  0  0  0  0  0  0  0  0
  -29.7080  -24.6311   15.3850 C   0  0  0  0  0  0  0  0  0  0  0  0
  -27.8862  -22.0783   16.7307 C   0  0  0  0  0  0  0  0  0  0  0  0
  -30.7521  -14.7485   20.6850 C   0  0  0  0  0  0  0  0  0  0  0  0
  -34.8727  -29.5545   12.2351 C   0  0  0  0  0  0  0  0  0  0  0  0
  -33.3424  -24.0041   15.2803 C   0  0  0  0  0  0  0  0  0  0  0  0
  -31.2506  -24.2861   17.3514 C   0  0  0  0  0  0  0  0  0  0  0  0
  -33.4251  -29.1214   12.4522 C   0  0  0  0  0  0  0  0  0  0  0  0
  -34.2329  -19.0580   27.2900 C   0  0  0  0  0  0  0  0  0  0  0  0
  -29.5956  -12.4164   18.2558 C   0  0  0  0  0  0  0  0  0  0  0  0
  -35.1362  -20.0734   26.6066 C   0  0  0  0  0  0  0  0  0  0  0  0
  -33.0604  -29.1999   13.9312 C   0  0  0  0  0  0  0  0  0  0  0  0
  -33.5025  -18.2036   26.2615 C   0  0  0  0  0  0  0  0  0  0  0  0
  -28.1592  -12.1201   18.6927 C   0  0  0  0  0  0  0  0  0  0  0  0
  -30.5258  -12.6022   19.4533 C   0  0  0  0  0  0  0  0  0  0  0  0
  -28.6393  -13.2945   20.8784 C   0  0  0  0  0  0  0  0  0  0  0  0
  -34.3558  -20.9415   25.6349 C   0  0  0  0  0  0  0  0  0  0  0  0
  -33.9348  -28.2563   14.7658 C   0  0  1  0  0  0  0  0  0  0  0  0
  -32.7075  -19.0537   25.2536 C   0  0  1  0  0  0  0  0  0  0  0  0
  -32.1402  -24.9233   15.0875 C   0  0  1  0  0  0  0  0  0  0  0  0
  -27.6520  -13.1638   19.7071 C   0  0  2  0  0  0  0  0  0  0  0  0
  -25.6633  -20.9298   16.5382 C   0  0  0  0  0  0  0  0  0  0  0  0
  -28.3801  -26.9630   16.8372 C   0  0  0  0  0  0  0  0  0  0  0  0
  -26.5031  -25.4229   17.4482 C   0  0  0  0  0  0  0  0  0  0  0  0
  -26.9805  -25.9142   15.0496 C   0  0  0  0  0  0  0  0  0  0  0  0
  -29.1507  -19.4956   16.0310 C   0  0  0  0  0  0  0  0  0  0  0  0
  -32.9784  -20.9424   23.5764 C   0  0  0  0  0  0  0  0  0  0  0  0
  -33.4596  -22.4122   21.5197 C   0  0  0  0  0  0  0  0  0  1  0  0
  -28.5644  -24.4342   16.3506 C   0  0  1  0  0  0  0  0  0  0  0  0
  -27.1148  -20.9416   16.0847 C   0  0  2  0  0  0  0  0  0  0  0  0
  -27.6338  -25.6773   16.4286 C   0  0  0  0  0  0  0  0  0  0  0  0
  -32.7561  -17.3390   23.5156 N   0  0  0  0  0  0  0  0  0  0  0  0
  -25.8618  -11.5653   20.2737 N   0  0  0  0  0  0  0  0  0  0  0  0
  -26.2453  -12.8500   20.1810 N   0  0  0  0  0  0  0  0  0  0  0  0
  -30.9995  -24.5447   15.9240 N   0  0  0  0  0  0  0  0  0  0  0  0
  -29.9834  -13.6084   20.3688 N   0  0  0  0  0  0  0  0  0  0  0  0
  -25.4958  -15.0731   20.5072 N   0  0  0  0  0  0  0  0  0  0  0  0
  -21.9091  -12.5842   21.6635 N   0  0  0  0  0  0  0  0  0  0  0  0
  -30.1200  -15.6513   21.5393 N   0  0  0  0  0  0  0  0  0  0  0  0
  -33.4744  -26.8907   14.6329 N   0  0  0  0  0  0  0  0  0  0  0  0
  -27.8898  -23.2076   15.9396 N   0  0  0  0  0  0  0  0  0  0  0  0
  -33.6584  -20.0724   24.6077 N   0  3  1  0  0  0  0  0  0  0  0  0
  -27.7290  -19.6311   16.4400 N   0  3  0  0  0  0  0  0  0  0  0  0
  -22.6950  -14.7270   21.4414 O   0  0  0  0  0  0  0  0  0  0  0  0
  -31.8129  -26.9445   16.2634 O   0  0  0  0  0  0  0  0  0  0  0  0
  -35.1865  -21.2445   22.7243 O   0  0  0  0  0  0  0  0  0  0  0  0
  -29.4645  -24.8464   14.1951 O   0  0  0  0  0  0  0  0  0  0  0  0
  -28.4279  -21.9760   17.8292 O   0  0  0  0  0  0  0  0  0  0  0  0
  -31.8769  -14.9250   20.2098 O   0  0  0  0  0  0  0  0  0  0  0  0
  -21.6021   -7.0220   21.6014 O   0  0  0  0  0  0  0  0  0  0  0  0
  -34.5282  -22.8976   20.7081 O   0  0  0  0  0  0  0  0  0  1  0  0
  -18.6631   -6.7368   26.2581 F   0  0  0  0  0  0  0  0  0  0  0  0
  -29.8853  -19.0367   24.9539 F   0  0  0  0  0  0  0  0  0  0  0  0
  -22.0620   -5.0170   23.4483 F   0  0  0  0  0  0  0  0  0  0  0  0
  1  2  1  0  0  0  0
  1  5  2  0  0  0  0
  2  6  2  0  0  0  0
  3  8  2  0  0  0  0
  3 17  1  0  0  0  0
  4  9  1  0  0  0  0
  4 17  2  0  0  0  0
  5 19  1  0  0  0  0
  6 21  1  0  0  0  0
  7 10  2  0  0  0  0
  7 20  1  0  0  0  0
  8 24  1  0  0  0  0
  9 24  2  0  0  0  0
 10 25  1  0  0  0  0
 11 12  2  0  0  0  0
 11 26  1  0  0  0  0
 12 27  1  0  0  0  0
 13 22  1  0  0  0  0
 13 25  2  0  0  0  0
 14 23  2  0  0  0  0
 14 28  1  0  0  0  0
 15 27  2  0  0  0  0
 15 29  1  0  0  0  0
 16 23  1  0  0  0  0
 16 66  2  0  0  0  0
 17 30  1  0  0  0  0
 18 30  1  0  0  0  0
 18 32  2  0  0  0  0
 18 33  1  0  0  0  0
 19 21  2  0  0  0  0
 19 39  1  0  0  0  0
 20 22  2  0  0  0  0
 20 40  1  0  0  0  0
 21 52  1  0  0  0  0
 22 41  1  0  0  0  0
 23 73  1  0  0  0  0
 24 84  1  0  0  0  0
 25 85  1  0  0  0  0
 26 29  2  0  0  0  0
 26 84  1  0  0  0  0
 27 86  1  0  0  0  0
 28 31  2  0  0  0  0
 28 87  1  0  0  0  0
 29 88  1  0  0  0  0
 30 67  2  0  0  0  0
 31 53  1  0  0  0  0
 31 66  1  0  0  0  0
 32 68  1  0  0  0  0
 32 71  1  0  0  0  0
 33 72  1  0  0  0  0
 33 78  2  0  0  0  0
 34 54  1  0  0  0  0
 34 74  1  0  0  0  0
 34 79  2  0  0  0  0
 35 61  1  0  0  0  0
 35 62  1  0  0  0  0
 35 80  2  0  0  0  0
 36 63  1  0  0  0  0
 36 69  1  0  0  0  0
 36 81  2  0  0  0  0
 37 64  1  0  0  0  0
 37 75  1  0  0  0  0
 37 82  2  0  0  0  0
 38 70  1  0  0  0  0
 38 73  1  0  0  0  0
 38 83  2  0  0  0  0
 39 42  1  0  0  0  0
 40 54  1  0  0  0  0
 41 69  1  0  0  0  0
 42 46  1  0  0  0  0
 43 45  1  0  0  0  0
 43 47  1  0  0  0  0
 44 48  1  0  0  0  0
 44 49  1  0  0  0  0
 45 51  1  0  0  0  0
 46 52  1  0  0  0  0
 47 53  1  0  0  0  0
 48 55  1  0  0  0  0
 49 70  1  0  0  0  0
 50 55  1  0  0  0  0
 50 70  1  0  0  0  0
 51 76  1  0  0  0  0
 52 74  1  0  0  0  0
 53 76  1  0  0  0  0
 54 69  1  0  0  0  0
 55 68  1  0  0  0  0
 56 64  1  0  0  0  0
 57 65  1  0  0  0  0
 58 65  1  0  0  0  0
 59 65  1  0  0  0  0
 60 77  1  0  0  0  0
 61 76  1  0  0  0  0
 62 85  1  0  0  0  0
 63 65  1  0  0  0  0
 63 75  1  0  0  0  0
 64 77  1  0  0  0  0
 67 68  1  0  0  0  0
M  CHG  2  76   1  77   1
M  ISO  4  38 100  62 101  73 100  85 101
M  END
> <Batch ID>
0169

> <Smiles>
CNC(C)C(=O)NC(C(=O)N1Cc2cc([101O:1][101CH2:1]C(=O)CN3CCCCC3c3ncc([100NH:0][100C:0](=O)N4CCCC(n5nc(-c6ccc(Oc7ccc(F)cc7F)cc6)c(C(N)=O)c5N)C4)cc3F)ccc2CC1C(=O)NC1CCCc2ccccc21)C(C)(C)C

> <Shape>
0.179

> <Color>
0.181

> <Negative vol penalty>
0.000

$$$$

  -OEChem-04052304173D

 85 93  0     1  0  0  0  0  0999 V2000
  -28.8271  -25.3824   16.4169 C   0  0  0  0  0  0  0  0  0  0  0  0
  -27.6717  -25.3642   17.1916 C   0  0  0  0  0  0  0  0  0  0  0  0
  -30.3178  -17.1832   21.8298 C   0  0  0  0  0  0  0  0  0  0  0  0
  -29.0635  -16.9164   19.7823 C   0  0  0  0  0  0  0  0  0  0  0  0
  -29.9513  -26.0778   16.8602 C   0  0  0  0  0  0  0  0  0  0  0  0
  -27.6403  -26.0404   18.4107 C   0  0  0  0  0  0  0  0  0  0  0  0
  -23.3852  -28.7128   19.0407 C   0  0  0  0  0  0  0  0  0  0  0  0
  -21.1362  -19.1949   19.3561 C   0  0  0  0  0  0  0  0  0  0  0  0
  -20.1942  -19.7232   18.4735 C   0  0  0  0  0  0  0  0  0  0  0  0
  -31.1096  -16.0871   21.4877 C   0  0  0  0  0  0  0  0  0  0  0  0
  -29.8553  -15.8203   19.4400 C   0  0  0  0  0  0  0  0  0  0  0  0
  -22.2399  -28.0087   19.4100 C   0  0  0  0  0  0  0  0  0  0  0  0
  -31.3128  -12.7314   18.1973 C   0  0  0  0  0  0  0  0  0  0  0  0
  -30.6697  -11.5948   17.7073 C   0  0  0  0  0  0  0  0  0  0  0  0
  -22.5678  -28.6888   21.7011 C   0  0  0  0  0  0  0  0  0  0  0  0
  -20.0330  -20.3036   21.1975 C   0  0  0  0  0  0  0  0  0  0  0  0
  -29.4254  -11.4096   19.7700 C   0  0  0  0  0  0  0  0  0  0  0  0
  -29.2947  -17.5978   20.9772 C   0  0  0  0  0  0  0  0  0  0  0  0
  -28.7098  -20.0807   21.0109 C   0  0  0  0  0  0  0  0  0  0  0  0
  -29.9305  -26.7709   18.0808 C   0  0  0  0  0  0  0  0  0  0  0  0
  -24.1377  -29.4023   20.0023 C   0  0  0  0  0  0  0  0  0  0  0  0
  -28.7657  -26.7445   18.8714 C   0  0  0  0  0  0  0  0  0  0  0  0
  -23.7208  -29.4030   21.3411 C   0  0  0  0  0  0  0  0  0  0  0  0
  -19.0910  -20.8321   20.3149 C   0  0  0  0  0  0  0  0  0  0  0  0
  -21.0556  -19.4850   20.7181 C   0  0  0  0  0  0  0  0  0  0  0  0
  -19.1715  -20.5418   18.9529 C   0  0  0  0  0  0  0  0  0  0  0  0
  -30.8784  -15.4056   20.2927 C   0  0  0  0  0  0  0  0  0  0  0  0
  -21.8326  -27.9943   20.7408 C   0  0  0  0  0  0  0  0  0  0  0  0
  -31.0123  -13.2071   19.4737 C   0  0  0  0  0  0  0  0  0  0  0  0
  -29.7260  -10.9339   18.4936 C   0  0  0  0  0  0  0  0  0  0  0  0
  -30.0686  -12.5462   20.2600 C   0  0  0  0  0  0  0  0  0  0  0  0
  -28.4760  -18.7297   21.3304 C   0  0  0  0  0  0  0  0  0  0  0  0
  -27.6515  -20.7539   21.5705 C   0  0  0  0  0  0  0  0  0  0  0  0
  -29.7872  -20.6739   20.2741 C   0  0  0  0  0  0  0  0  0  0  0  0
  -27.1153  -29.1910   21.0947 C   0  0  0  0  0  0  0  0  0  0  0  0
  -19.6502  -25.1365   21.1853 C   0  0  0  0  0  0  0  0  0  0  0  0
  -26.2930  -31.8722   22.7249 C   0  0  0  0  0  0  0  0  0  0  0  0
  -23.8192  -33.8040   24.0649 C   0  0  0  0  0  0  0  0  0  0  0  0
  -22.0779  -19.1372   22.9941 C   0  0  0  0  0  0  0  0  0  0  0  0
  -31.1858  -27.4690   18.5406 C   0  0  0  0  0  0  0  0  0  0  0  0
  -25.3558  -30.1791   19.5835 C   0  0  0  0  0  0  0  0  0  0  0  0
  -24.4823  -30.1440   22.4085 C   0  0  0  0  0  0  0  0  0  0  0  0
  -30.9475  -28.4711   19.6673 C   0  0  0  0  0  0  0  0  0  0  0  0
  -24.5336  -20.4797   25.1952 C   0  0  0  0  0  0  0  0  0  0  0  0
  -30.0626  -27.8586   20.7483 C   0  0  0  0  0  0  0  0  0  0  0  0
  -25.8438  -20.3118   24.4223 C   0  0  0  0  0  0  0  0  0  0  0  0
  -23.5840  -19.3057   24.9635 C   0  0  0  0  0  0  0  0  0  0  0  0
  -24.6224  -18.8279   22.7811 C   0  0  0  0  0  0  0  0  0  0  0  0
  -28.6846  -27.4864   20.1878 C   0  0  1  0  0  0  0  0  0  0  0  0
  -26.3334  -30.4210   20.7294 C   0  0  1  0  0  0  0  0  0  0  0  0
  -25.5850  -20.0172   22.9317 C   0  0  2  0  0  0  0  0  0  0  0  0
  -17.1395  -21.0131   21.9123 C   0  0  0  0  0  0  0  0  0  0  0  0
  -23.4585  -35.9169   25.3698 C   0  0  0  0  0  0  0  0  0  0  0  0
  -27.2015  -30.4533   25.2688 C   0  0  0  0  0  0  0  0  0  0  0  0
  -25.9632  -32.1812   26.5915 C   0  0  0  0  0  0  0  0  0  0  0  0
  -27.8626  -32.8609   25.1243 C   0  0  0  0  0  0  0  0  0  0  0  0
  -22.2319  -35.0184   21.8821 C   0  0  0  0  0  0  0  0  0  0  0  0
  -19.2129  -23.8674   20.5025 C   0  0  0  0  0  0  0  0  0  0  0  0
  -20.3840  -26.1526   20.3339 C   0  0  0  0  0  0  0  0  0  1  0  0
  -17.9943  -21.7168   20.8613 C   0  0  1  0  0  0  0  0  0  0  0  0
  -25.6742  -32.1567   24.0722 C   0  0  1  0  0  0  0  0  0  0  0  0
  -23.5513  -35.2961   23.9847 C   0  0  2  0  0  0  0  0  0  0  0  0
  -26.6619  -31.8974   25.2446 C   0  0  0  0  0  0  0  0  0  0  0  0
  -27.3571  -18.5534   22.0382 N   0  0  0  0  0  0  0  0  0  0  0  0
  -26.8784  -19.8024   22.1682 N   0  0  0  0  0  0  0  0  0  0  0  0
  -25.6700  -30.8835   21.9502 N   0  0  0  0  0  0  0  0  0  0  0  0
  -23.3825  -19.0884   23.5292 N   0  0  0  0  0  0  0  0  0  0  0  0
  -18.2264  -21.0676   18.0449 N   0  0  0  0  0  0  0  0  0  0  0  0
  -27.3161  -22.0611   21.6048 N   0  0  0  0  0  0  0  0  0  0  0  0
  -30.7916  -19.8371   19.7688 N   0  0  0  0  0  0  0  0  0  0  0  0
  -22.0133  -18.9485   21.6140 N   0  0  0  0  0  0  0  0  0  0  0  0
  -27.8578  -28.6667   20.0540 N   0  0  0  0  0  0  0  0  0  0  0  0
  -25.1681  -33.5236   24.0085 N   0  0  0  0  0  0  0  0  0  0  0  0
  -22.2710  -35.5546   23.2670 N   0  3  0  0  0  0  0  0  0  0  0  0
  -18.5169  -22.9780   21.4584 N   0  3  0  0  0  0  0  0  0  0  0  0
  -29.8659  -21.9113   20.0839 O   0  0  0  0  0  0  0  0  0  0  0  0
  -27.0509  -28.7512   22.2367 O   0  0  0  0  0  0  0  0  0  0  0  0
  -19.4354  -25.3184   22.3835 O   0  0  0  0  0  0  0  0  0  0  0  0
  -27.2880  -32.5090   22.3698 O   0  0  0  0  0  0  0  0  0  0  0  0
  -22.9219  -32.9709   24.1710 O   0  0  0  0  0  0  0  0  0  0  0  0
  -21.0934  -19.3592   23.7037 O   0  0  0  0  0  0  0  0  0  0  0  0
  -31.6510  -14.3361   19.9584 O   0  0  0  0  0  0  0  0  0  0  0  0
  -20.7155  -27.3073   21.1040 O   0  0  0  0  0  0  0  0  0  1  0  0
  -29.1074   -9.8433   18.0224 F   0  0  0  0  0  0  0  0  0  0  0  0
  -29.7748  -12.9992   21.4865 F   0  0  0  0  0  0  0  0  0  0  0  0
  1  2  1  0  0  0  0
  1  5  2  0  0  0  0
  2  6  2  0  0  0  0
  3 10  2  0  0  0  0
  3 18  1  0  0  0  0
  4 11  1  0  0  0  0
  4 18  2  0  0  0  0
  5 20  1  0  0  0  0
  6 22  1  0  0  0  0
  7 12  2  0  0  0  0
  7 21  1  0  0  0  0
  8  9  2  0  0  0  0
  8 25  1  0  0  0  0
  9 26  1  0  0  0  0
 10 27  1  0  0  0  0
 11 27  2  0  0  0  0
 12 28  1  0  0  0  0
 13 14  2  0  0  0  0
 13 29  1  0  0  0  0
 14 30  1  0  0  0  0
 15 23  1  0  0  0  0
 15 28  2  0  0  0  0
 16 24  1  0  0  0  0
 16 25  2  0  0  0  0
 17 30  2  0  0  0  0
 17 31  1  0  0  0  0
 18 32  1  0  0  0  0
 19 32  1  0  0  0  0
 19 33  2  0  0  0  0
 19 34  1  0  0  0  0
 20 22  2  0  0  0  0
 20 40  1  0  0  0  0
 21 23  2  0  0  0  0
 21 41  1  0  0  0  0
 22 49  1  0  0  0  0
 23 42  1  0  0  0  0
 24 26  2  0  0  0  0
 24 60  1  0  0  0  0
 25 71  1  0  0  0  0
 26 68  1  0  0  0  0
 27 82  1  0  0  0  0
 28 83  1  0  0  0  0
 29 31  2  0  0  0  0
 29 82  1  0  0  0  0
 30 84  1  0  0  0  0
 31 85  1  0  0  0  0
 32 64  2  0  0  0  0
 33 65  1  0  0  0  0
 33 69  1  0  0  0  0
 34 70  1  0  0  0  0
 34 76  2  0  0  0  0
 35 50  1  0  0  0  0
 35 72  1  0  0  0  0
 35 77  2  0  0  0  0
 36 58  1  0  0  0  0
 36 59  1  0  0  0  0
 36 78  2  0  0  0  0
 37 61  1  0  0  0  0
 37 66  1  0  0  0  0
 37 79  2  0  0  0  0
 38 62  1  0  0  0  0
 38 73  1  0  0  0  0
 38 80  2  0  0  0  0
 39 67  1  0  0  0  0
 39 71  1  0  0  0  0
 39 81  2  0  0  0  0
 40 43  1  0  0  0  0
 41 50  1  0  0  0  0
 42 66  1  0  0  0  0
 43 45  1  0  0  0  0
 44 46  1  0  0  0  0
 44 47  1  0  0  0  0
 45 49  1  0  0  0  0
 46 51  1  0  0  0  0
 47 67  1  0  0  0  0
 48 51  1  0  0  0  0
 48 67  1  0  0  0  0
 49 72  1  0  0  0  0
 50 66  1  0  0  0  0
 51 65  1  0  0  0  0
 52 60  1  0  0  0  0
 53 62  1  0  0  0  0
 54 63  1  0  0  0  0
 55 63  1  0  0  0  0
 56 63  1  0  0  0  0
 57 74  1  0  0  0  0
 58 75  1  0  0  0  0
 59 83  1  0  0  0  0
 60 75  1  0  0  0  0
 61 63  1  0  0  0  0
 61 73  1  0  0  0  0
 62 74  1  0  0  0  0
 64 65  1  0  0  0  0
M  CHG  2  74   1  75   1
M  ISO  4  39 100  59 101  71 100  83 101
M  END
> <Batch ID>
0169

> <Smiles>
CNC(C)C(=O)NC(C(=O)N1Cc2cc([101O:1][101CH2:1]C(=O)CNC(C)c3cc([100NH:0][100C:0](=O)N4CCCC(n5nc(-c6ccc(Oc7ccc(F)cc7F)cc6)c(C(N)=O)c5N)C4)ccc3N)ccc2CC1C(=O)NC1CCCc2ccccc21)C(C)(C)C

> <Shape>
0.274

> <Color>
0.068

> <Negative vol penalty>
0.000

$$$$

  -OEChem-04052304173D

 87 95  0     1  0  0  0  0  0999 V2000
  -18.2151  -29.5611   26.2175 C   0  0  0  0  0  0  0  0  0  0  0  0
  -19.5608  -29.2269   26.3311 C   0  0  0  0  0  0  0  0  0  0  0  0
  -19.8399  -16.4555   21.7105 C   0  0  0  0  0  0  0  0  0  0  0  0
  -21.2863  -18.3478   21.3053 C   0  0  0  0  0  0  0  0  0  0  0  0
  -17.5588  -29.4008   24.9979 C   0  0  0  0  0  0  0  0  0  0  0  0
  -20.2507  -28.7312   25.2253 C   0  0  0  0  0  0  0  0  0  0  0  0
  -26.7620  -28.7507   22.2390 C   0  0  0  0  0  0  0  0  0  0  0  0
  -19.0381  -17.2449   22.5349 C   0  0  0  0  0  0  0  0  0  0  0  0
  -20.4846  -19.1372   22.1297 C   0  0  0  0  0  0  0  0  0  0  0  0
  -27.7242  -27.8696   21.7475 C   0  0  0  0  0  0  0  0  0  0  0  0
  -18.6157  -21.7448   23.8401 C   0  0  0  0  0  0  0  0  0  0  0  0
  -18.2791  -23.0212   23.3892 C   0  0  0  0  0  0  0  0  0  0  0  0
  -26.5078  -27.7093   19.6705 C   0  0  0  0  0  0  0  0  0  0  0  0
  -29.3444  -17.4823   20.6079 C   0  0  0  0  0  0  0  0  0  0  0  0
  -31.4809  -17.7520   21.7032 C   0  0  0  0  0  0  0  0  0  0  0  0
  -30.3481  -15.6192   21.7733 C   0  0  0  0  0  0  0  0  0  0  0  0
  -17.1991  -22.0536   21.4567 C   0  0  0  0  0  0  0  0  0  0  0  0
  -20.9640  -17.0069   21.0957 C   0  0  0  0  0  0  0  0  0  0  0  0
  -21.6562  -15.9995   18.8566 C   0  0  0  0  0  0  0  0  0  0  0  0
  -18.2434  -28.9119   23.8741 C   0  0  0  0  0  0  0  0  0  0  0  0
  -25.6579  -29.1099   21.4526 C   0  0  0  0  0  0  0  0  0  0  0  0
  -19.6026  -28.5630   23.9899 C   0  0  0  0  0  0  0  0  0  0  0  0
  -25.5343  -28.5972   20.1534 C   0  0  0  0  0  0  0  0  0  0  0  0
  -30.4341  -18.2831   20.9496 C   0  0  0  0  0  0  0  0  0  0  0  0
  -29.3014  -16.1503   21.0198 C   0  0  0  0  0  0  0  0  0  0  0  0
  -19.3604  -18.5857   22.7445 C   0  0  0  0  0  0  0  0  0  0  0  0
  -27.5956  -27.3465   20.4641 C   0  0  0  0  0  0  0  0  0  0  0  0
  -18.2440  -20.6229   23.0993 C   0  0  0  0  0  0  0  0  0  0  0  0
  -17.5708  -23.1756   22.1975 C   0  0  0  0  0  0  0  0  0  0  0  0
  -31.4379  -16.4200   22.1150 C   0  0  0  0  0  0  0  0  0  0  0  0
  -17.5357  -20.7773   21.9076 C   0  0  0  0  0  0  0  0  0  0  0  0
  -21.7929  -16.1919   20.2444 C   0  0  0  0  0  0  0  0  0  0  0  0
  -22.6806  -15.1466   18.5256 C   0  0  0  0  0  0  0  0  0  0  0  0
  -28.3492  -25.1485   20.1963 C   0  0  0  0  0  0  0  0  0  1  0  0
  -20.6896  -16.5432   17.9479 C   0  0  0  0  0  0  0  0  0  0  0  0
  -29.2062  -24.2147   19.7673 C   0  0  0  0  0  0  0  0  0  0  0  0
  -28.9189  -22.7744   20.0501 C   0  0  0  0  0  0  0  0  0  0  0  0
  -22.5089  -28.7673   21.7174 C   0  0  0  0  0  0  0  0  0  0  0  0
  -22.4758  -30.6104   19.0483 C   0  0  0  0  0  0  0  0  0  0  0  0
  -29.5252  -20.3216   19.7913 C   0  0  0  0  0  0  0  0  0  0  0  0
  -24.1253  -31.7245   16.2762 C   0  0  0  0  0  0  0  0  0  0  0  0
  -27.9957  -13.9960   21.0017 C   0  0  0  0  0  0  0  0  0  0  0  0
  -17.4796  -28.7113   22.5892 C   0  0  0  0  0  0  0  0  0  0  0  0
  -24.6428  -30.0824   21.9875 C   0  0  0  0  0  0  0  0  0  0  0  0
  -24.3784  -28.9672   19.2615 C   0  0  0  0  0  0  0  0  0  0  0  0
  -18.3780  -28.5330   21.3680 C   0  0  0  0  0  0  0  0  0  0  0  0
  -25.3894  -11.6541   20.3694 C   0  0  0  0  0  0  0  0  0  0  0  0
  -19.4965  -27.5403   21.6685 C   0  0  0  0  0  0  0  0  0  0  0  0
  -24.1601  -12.5347   20.1333 C   0  0  0  0  0  0  0  0  0  0  0  0
  -26.3027  -12.2328   21.4487 C   0  0  0  0  0  0  0  0  0  0  0  0
  -25.4755  -14.5100   21.0023 C   0  0  0  0  0  0  0  0  0  0  0  0
  -20.3915  -28.0456   22.8067 C   0  0  1  0  0  0  0  0  0  0  0  0
  -23.2899  -29.9778   21.2903 C   0  0  1  0  0  0  0  0  0  0  0  0
  -24.5584  -14.0016   19.8779 C   0  0  2  0  0  0  0  0  0  0  0  0
  -23.8264  -33.1933   14.2635 C   0  0  0  0  0  0  0  0  0  0  0  0
  -20.7630  -28.4551   17.7327 C   0  0  0  0  0  0  0  0  0  0  0  0
  -21.2921  -29.4872   15.5139 C   0  0  0  0  0  0  0  0  0  0  0  0
  -20.0524  -30.8006   17.2347 C   0  0  0  0  0  0  0  0  0  0  0  0
  -26.3407  -33.5046   17.1022 C   0  0  0  0  0  0  0  0  0  0  0  0
  -29.9271  -21.7635   19.5386 C   0  0  0  0  0  0  0  0  0  0  0  0
  -22.5170  -30.3421   17.5633 C   0  0  1  0  0  0  0  0  0  0  0  0
  -24.3068  -33.1191   15.7046 C   0  0  2  0  0  0  0  0  0  0  0  0
  -21.1770  -29.7626   17.0284 C   0  0  0  0  0  0  0  0  0  0  0  0
  -22.8230  -15.5155   20.7597 N   0  0  0  0  0  0  0  0  0  0  0  0
  -23.3427  -14.8897   19.6900 N   0  0  0  0  0  0  0  0  0  0  0  0
  -23.4087  -29.9167   19.8321 N   0  0  0  0  0  0  0  0  0  0  0  0
  -26.6417  -13.6232   21.1377 N   0  0  0  0  0  0  0  0  0  0  0  0
  -23.0706  -14.5987   17.3551 N   0  0  0  0  0  0  0  0  0  0  0  0
  -19.7056  -17.4029   18.4548 N   0  0  0  0  0  0  0  0  0  0  0  0
  -30.4781  -19.6351   20.5322 N   0  0  0  0  0  0  0  0  0  0  0  0
  -28.1944  -15.3366   20.6731 N   0  0  0  0  0  0  0  0  0  0  0  0
  -21.3013  -29.0611   22.3214 N   0  0  0  0  0  0  0  0  0  0  0  0
  -22.9200  -31.5947   16.9332 N   0  0  0  0  0  0  0  0  0  0  0  0
  -25.7441  -33.5111   15.7416 N   0  3  0  0  0  0  0  0  0  0  0  0
  -20.6883  -16.2615   16.7255 O   0  0  0  0  0  0  0  0  0  0  0  0
  -27.9163  -22.4327   20.6748 O   0  0  0  0  0  0  0  0  0  0  0  0
  -22.9673  -27.6494   21.5127 O   0  0  0  0  0  0  0  0  0  0  0  0
  -21.6513  -31.4115   19.4955 O   0  0  0  0  0  0  0  0  0  0  0  0
  -28.4487  -19.8986   19.3783 O   0  0  0  0  0  0  0  0  0  0  0  0
  -24.9668  -30.8378   16.1491 O   0  0  0  0  0  0  0  0  0  0  0  0
  -28.9105  -13.1795   21.1378 O   0  0  0  0  0  0  0  0  0  0  0  0
  -30.3544  -24.5191   19.0687 O   0  0  0  0  0  0  0  0  0  0  0  0
  -18.5782  -19.3564   23.5487 O   0  0  0  0  0  0  0  0  0  0  0  0
  -28.5330  -26.4857   19.9822 O   0  0  0  0  0  0  0  0  0  1  0  0
  -17.2463  -24.4012   21.7654 F   0  0  0  0  0  0  0  0  0  0  0  0
  -32.4426  -15.9099   22.8393 F   0  0  0  0  0  0  0  0  0  0  0  0
  -17.1748  -19.7031   21.1922 F   0  0  0  0  0  0  0  0  0  0  0  0
  1  2  1  0  0  0  0
  1  5  2  0  0  0  0
  2  6  2  0  0  0  0
  3  8  2  0  0  0  0
  3 18  1  0  0  0  0
  4  9  1  0  0  0  0
  4 18  2  0  0  0  0
  5 20  1  0  0  0  0
  6 22  1  0  0  0  0
  7 10  2  0  0  0  0
  7 21  1  0  0  0  0
  8 26  1  0  0  0  0
  9 26  2  0  0  0  0
 10 27  1  0  0  0  0
 11 12  2  0  0  0  0
 11 28  1  0  0  0  0
 12 29  1  0  0  0  0
 13 23  1  0  0  0  0
 13 27  2  0  0  0  0
 14 24  2  0  0  0  0
 14 25  1  0  0  0  0
 15 24  1  0  0  0  0
 15 30  2  0  0  0  0
 16 25  2  0  0  0  0
 16 30  1  0  0  0  0
 17 29  2  0  0  0  0
 17 31  1  0  0  0  0
 18 32  1  0  0  0  0
 19 32  1  0  0  0  0
 19 33  2  0  0  0  0
 19 35  1  0  0  0  0
 20 22  2  0  0  0  0
 20 43  1  0  0  0  0
 21 23  2  0  0  0  0
 21 44  1  0  0  0  0
 22 52  1  0  0  0  0
 23 45  1  0  0  0  0
 24 70  1  0  0  0  0
 25 71  1  0  0  0  0
 26 83  1  0  0  0  0
 27 84  1  0  0  0  0
 28 31  2  0  0  0  0
 28 83  1  0  0  0  0
 29 85  1  0  0  0  0
 30 86  1  0  0  0  0
 31 87  1  0  0  0  0
 32 64  2  0  0  0  0
 33 65  1  0  0  0  0
 33 68  1  0  0  0  0
 34 36  2  0  0  0  0
 34 84  1  0  0  0  0
 35 69  1  0  0  0  0
 35 75  2  0  0  0  0
 36 37  1  0  0  0  0
 36 82  1  0  0  0  0
 37 60  1  0  0  0  0
 37 76  2  0  0  0  0
 38 53  1  0  0  0  0
 38 72  1  0  0  0  0
 38 77  2  0  0  0  0
 39 61  1  0  0  0  0
 39 66  1  0  0  0  0
 39 78  2  0  0  0  0
 40 60  1  0  0  0  0
 40 70  1  0  0  0  0
 40 79  2  0  0  0  0
 41 62  1  0  0  0  0
 41 73  1  0  0  0  0
 41 80  2  0  0  0  0
 42 67  1  0  0  0  0
 42 71  1  0  0  0  0
 42 81  2  0  0  0  0
 43 46  1  0  0  0  0
 44 53  1  0  0  0  0
 45 66  1  0  0  0  0
 46 48  1  0  0  0  0
 47 49  1  0  0  0  0
 47 50  1  0  0  0  0
 48 52  1  0  0  0  0
 49 54  1  0  0  0  0
 50 67  1  0  0  0  0
 51 54  1  0  0  0  0
 51 67  1  0  0  0  0
 52 72  1  0  0  0  0
 53 66  1  0  0  0  0
 54 65  1  0  0  0  0
 55 62  1  0  0  0  0
 56 63  1  0  0  0  0
 57 63  1  0  0  0  0
 58 63  1  0  0  0  0
 59 74  1  0  0  0  0
 61 63  1  0  0  0  0
 61 73  1  0  0  0  0
 62 74  1  0  0  0  0
 64 65  1  0  0  0  0
M  CHG  1  74   1
M  ISO  4  34 101  42 100  71 100  84 101
M  END
> <Batch ID>
0169

> <Smiles>
CNC(C)C(=O)NC(C(=O)N1Cc2cc([101O:1][101CH2:1]C(=O)C(=O)CC(=O)Nc3cc(F)cc([100NH:0][100C:0](=O)N4CCCC(n5nc(-c6ccc(Oc7ccc(F)cc7F)cc6)c(C(N)=O)c5N)C4)c3)ccc2CC1C(=O)NC1CCCc2ccccc21)C(C)(C)C

> <Shape>
0.236

> <Color>
0.086

> <Negative vol penalty>
0.000

$$$$

  -OEChem-04052304173D

 89 97  0     1  0  0  0  0  0999 V2000
  -23.8472  -32.0627   23.1156 C   0  0  0  0  0  0  0  0  0  0  0  0
  -24.2566  -30.7686   23.4207 C   0  0  0  0  0  0  0  0  0  0  0  0
  -23.0775   -9.8670   19.9391 C   0  0  0  0  0  0  0  0  0  0  0  0
  -23.8363   -9.8732   22.2328 C   0  0  0  0  0  0  0  0  0  0  0  0
  -24.7427  -33.1239   23.2414 C   0  0  0  0  0  0  0  0  0  0  0  0
  -25.5623  -30.5348   23.8508 C   0  0  0  0  0  0  0  0  0  0  0  0
  -27.4035  -26.3441   27.9194 C   0  0  0  0  0  0  0  0  0  0  0  0
  -22.3342   -8.7133   20.1881 C   0  0  0  0  0  0  0  0  0  0  0  0
  -23.0929   -8.7195   22.4819 C   0  0  0  0  0  0  0  0  0  0  0  0
  -27.9584  -25.0736   27.7716 C   0  0  0  0  0  0  0  0  0  0  0  0
  -19.8648   -7.9197   23.0824 C   0  0  0  0  0  0  0  0  0  0  0  0
  -19.1073   -7.8787   24.2529 C   0  0  0  0  0  0  0  0  0  0  0  0
  -31.8531  -18.3596   24.2061 C   0  0  0  0  0  0  0  0  0  0  0  0
  -30.1656  -26.0158   28.0160 C   0  0  0  0  0  0  0  0  0  0  0  0
  -32.0601  -16.6095   22.5534 C   0  0  0  0  0  0  0  0  0  0  0  0
  -20.3494   -5.9416   24.9889 C   0  0  0  0  0  0  0  0  0  0  0  0
  -23.8287  -10.4469   20.9614 C   0  0  0  0  0  0  0  0  0  0  0  0
  -30.4672  -18.3434   24.0497 C   0  0  0  0  0  0  0  0  0  0  0  0
  -24.1692  -12.9723   20.8429 C   0  0  0  0  0  0  0  0  0  0  0  0
  -26.0572  -32.9043   23.6824 C   0  0  0  0  0  0  0  0  0  0  0  0
  -28.2274  -27.4633   28.1060 C   0  0  0  0  0  0  0  0  0  0  0  0
  -26.4767  -31.5939   23.9813 C   0  0  0  0  0  0  0  0  0  0  0  0
  -29.6185  -27.2990   28.1684 C   0  0  0  0  0  0  0  0  0  0  0  0
  -30.6742  -16.5933   22.3970 C   0  0  0  0  0  0  0  0  0  0  0  0
  -22.3418   -8.1396   21.4594 C   0  0  0  0  0  0  0  0  0  0  0  0
  -29.3397  -24.9097   27.8170 C   0  0  0  0  0  0  0  0  0  0  0  0
  -20.8646   -6.9715   22.8651 C   0  0  0  0  0  0  0  0  0  0  0  0
  -19.3496   -6.8897   25.2062 C   0  0  0  0  0  0  0  0  0  0  0  0
  -32.6496  -17.4927   23.4579 C   0  0  0  0  0  0  0  0  0  0  0  0
  -21.1069   -5.9825   23.8184 C   0  0  0  0  0  0  0  0  0  0  0  0
  -29.8777  -17.4602   23.1452 C   0  0  0  0  0  0  0  0  0  0  0  0
  -24.5973  -11.6383   20.7047 C   0  0  0  0  0  0  0  0  0  0  0  0
  -25.2612  -13.7225   20.4805 C   0  0  0  0  0  0  0  0  0  0  0  0
  -29.6269  -19.2621   24.8438 C   0  0  0  0  0  0  0  0  0  0  0  0
  -22.8983  -13.4872   21.2614 C   0  0  0  0  0  0  0  0  0  0  0  0
  -28.7752  -30.1410   26.4831 C   0  0  0  0  0  0  0  0  0  0  0  0
  -29.7403  -21.2818   27.3024 C   0  0  0  0  0  0  0  0  0  0  0  0
  -30.5635  -30.8904   29.0836 C   0  0  0  0  0  0  0  0  0  0  0  0
  -32.3462  -29.8059   31.7842 C   0  0  0  0  0  0  0  0  0  0  0  0
  -30.7267  -14.7709   20.6585 C   0  0  0  0  0  0  0  0  0  0  0  0
  -27.0031  -34.0765   23.7575 C   0  0  0  0  0  0  0  0  0  0  0  0
  -27.6120  -28.8233   28.2905 C   0  0  0  0  0  0  0  0  0  0  0  0
  -30.5458  -28.4656   28.3869 C   0  0  0  0  0  0  0  0  0  0  0  0
  -28.2589  -33.7944   24.5784 C   0  0  0  0  0  0  0  0  0  0  0  0
  -29.6148  -12.3577   18.2884 C   0  0  0  0  0  0  0  0  0  0  0  0
  -28.8589  -32.4468   24.1900 C   0  0  0  0  0  0  0  0  0  0  0  0
  -28.1751  -12.0651   18.7171 C   0  0  0  0  0  0  0  0  0  0  0  0
  -30.5292  -12.5864   19.4906 C   0  0  0  0  0  0  0  0  0  0  0  0
  -28.6211  -13.3091   20.8713 C   0  0  0  0  0  0  0  0  0  0  0  0
  -27.8775  -31.3033   24.4746 C   0  0  1  0  0  0  0  0  0  0  0  0
  -28.5712  -29.9629   27.9611 C   0  0  1  0  0  0  0  0  0  0  0  0
  -27.6490  -13.1360   19.6929 C   0  0  2  0  0  0  0  0  0  0  0  0
  -33.7248  -30.6513   33.7030 C   0  0  0  0  0  0  0  0  0  0  0  0
  -27.8342  -18.0229   28.1762 C   0  0  0  0  0  0  0  0  0  0  0  0
  -32.8867  -31.4201   27.1779 C   0  0  0  0  0  0  0  0  0  0  0  0
  -34.4318  -31.3229   29.1455 C   0  0  0  0  0  0  0  0  0  0  0  0
  -32.6630  -33.0785   29.0364 C   0  0  0  0  0  0  0  0  0  0  0  0
  -30.4949  -28.6418   33.7783 C   0  0  0  0  0  0  0  0  0  0  0  0
  -28.9808  -22.5834   27.4774 C   0  0  0  0  0  0  0  0  0  1  0  0
  -28.9007  -20.0394   27.0721 C   0  0  2  0  0  0  0  0  0  0  0  0
  -32.0027  -30.6802   29.4881 C   0  0  1  0  0  0  0  0  0  0  0  0
  -32.3361  -30.2410   33.2385 C   0  0  2  0  0  0  0  0  0  0  0  0
  -28.6168  -19.3092   28.3778 C   0  0  2  0  0  0  0  0  0  0  0  0
  -32.9790  -31.6035   28.7059 C   0  0  0  0  0  0  0  0  0  0  0  0
  -25.8624  -11.5433   20.2870 N   0  0  0  0  0  0  0  0  0  0  0  0
  -26.2387  -12.8272   20.1595 N   0  0  0  0  0  0  0  0  0  0  0  0
  -29.8963  -29.7760   28.5555 N   0  0  0  0  0  0  0  0  0  0  0  0
  -29.9692  -13.6165   20.3683 N   0  0  0  0  0  0  0  0  0  0  0  0
  -25.4709  -15.0541   20.4083 N   0  0  0  0  0  0  0  0  0  0  0  0
  -21.8867  -12.5773   21.5977 N   0  0  0  0  0  0  0  0  0  0  0  0
  -30.0785  -15.6952   21.4770 N   0  0  0  0  0  0  0  0  0  0  0  0
  -29.6702  -19.1753   26.1812 N   0  0  0  0  0  0  0  0  0  0  0  0
  -27.8623  -30.9903   25.8875 N   0  0  0  0  0  0  0  0  0  0  0  0
  -32.0490  -30.8517   30.9361 N   0  0  0  0  0  0  0  0  0  0  0  0
  -28.8606  -20.1357   24.1906 N   0  3  0  0  0  0  0  0  0  0  0  0
  -31.8589  -29.1291   34.1085 N   0  3  0  0  0  0  0  0  0  0  0  0
  -22.6613  -14.7177   21.3193 O   0  0  0  0  0  0  0  0  0  0  0  0
  -29.6937  -29.5526   25.9248 O   0  0  0  0  0  0  0  0  0  0  0  0
  -30.9697  -21.2410   27.3556 O   0  0  0  0  0  0  0  0  0  0  0  0
  -30.0480  -32.0005   29.2375 O   0  0  0  0  0  0  0  0  0  0  0  0
  -32.5965  -28.6544   31.4351 O   0  0  0  0  0  0  0  0  0  0  0  0
  -31.8560  -14.9404   20.1915 O   0  0  0  0  0  0  0  0  0  0  0  0
  -21.6163   -7.0140   21.7028 O   0  0  0  0  0  0  0  0  0  0  0  0
  -29.8840  -23.6709   27.6724 O   0  0  0  0  0  0  0  0  0  1  0  0
  -18.6231   -6.8515   26.3308 F   0  0  0  0  0  0  0  0  0  0  0  0
  -33.9803  -17.5082   23.6084 F   0  0  0  0  0  0  0  0  0  0  0  0
  -22.0668   -5.0696   23.6158 F   0  0  0  0  0  0  0  0  0  0  0  0
  -28.5445  -17.4460   22.9955 F   0  0  0  0  0  0  0  0  0  0  0  0
  -29.8015  -18.9922   28.9736 F   0  0  0  0  0  0  0  0  0  0  0  0
  1  2  1  0  0  0  0
  1  5  2  0  0  0  0
  2  6  2  0  0  0  0
  3  8  2  0  0  0  0
  3 17  1  0  0  0  0
  4  9  1  0  0  0  0
  4 17  2  0  0  0  0
  5 20  1  0  0  0  0
  6 22  1  0  0  0  0
  7 10  2  0  0  0  0
  7 21  1  0  0  0  0
  8 25  1  0  0  0  0
  9 25  2  0  0  0  0
 10 26  1  0  0  0  0
 11 12  2  0  0  0  0
 11 27  1  0  0  0  0
 12 28  1  0  0  0  0
 13 18  1  0  0  0  0
 13 29  2  0  0  0  0
 14 23  1  0  0  0  0
 14 26  2  0  0  0  0
 15 24  2  0  0  0  0
 15 29  1  0  0  0  0
 16 28  2  0  0  0  0
 16 30  1  0  0  0  0
 17 32  1  0  0  0  0
 18 31  2  0  0  0  0
 18 34  1  0  0  0  0
 19 32  1  0  0  0  0
 19 33  2  0  0  0  0
 19 35  1  0  0  0  0
 20 22  2  0  0  0  0
 20 41  1  0  0  0  0
 21 23  2  0  0  0  0
 21 42  1  0  0  0  0
 22 50  1  0  0  0  0
 23 43  1  0  0  0  0
 24 31  1  0  0  0  0
 24 71  1  0  0  0  0
 25 83  1  0  0  0  0
 26 84  1  0  0  0  0
 27 30  2  0  0  0  0
 27 83  1  0  0  0  0
 28 85  1  0  0  0  0
 29 86  1  0  0  0  0
 30 87  1  0  0  0  0
 31 88  1  0  0  0  0
 32 65  2  0  0  0  0
 33 66  1  0  0  0  0
 33 69  1  0  0  0  0
 34 72  1  0  0  0  0
 34 75  2  0  0  0  0
 35 70  1  0  0  0  0
 35 77  2  0  0  0  0
 36 51  1  0  0  0  0
 36 73  1  0  0  0  0
 36 78  2  0  0  0  0
 37 59  1  0  0  0  0
 37 60  1  0  0  0  0
 37 79  2  0  0  0  0
 38 61  1  0  0  0  0
 38 67  1  0  0  0  0
 38 80  2  0  0  0  0
 39 62  1  0  0  0  0
 39 74  1  0  0  0  0
 39 81  2  0  0  0  0
 40 68  1  0  0  0  0
 40 71  1  0  0  0  0
 40 82  2  0  0  0  0
 41 44  1  0  0  0  0
 42 51  1  0  0  0  0
 43 67  1  0  0  0  0
 44 46  1  0  0  0  0
 45 47  1  0  0  0  0
 45 48  1  0  0  0  0
 46 50  1  0  0  0  0
 47 52  1  0  0  0  0
 48 68  1  0  0  0  0
 49 52  1  0  0  0  0
 49 68  1  0  0  0  0
 50 73  1  0  0  0  0
 51 67  1  0  0  0  0
 52 66  1  0  0  0  0
 53 62  1  0  0  0  0
 54 63  1  0  0  0  0
 55 64  1  0  0  0  0
 56 64  1  0  0  0  0
 57 64  1  0  0  0  0
 58 76  1  0  0  0  0
 59 84  1  0  0  0  0
 60 63  1  0  0  0  0
 60 72  1  0  0  0  0
 61 64  1  0  0  0  0
 61 74  1  0  0  0  0
 62 76  1  0  0  0  0
 63 89  1  0  0  0  0
 65 66  1  0  0  0  0
M  CHG  2  75   1  76   1
M  ISO  4  40 100  59 101  71 100  84 101
M  END
> <Batch ID>
0169

> <Smiles>
CNC(C)C(=O)NC(C(=O)N1Cc2cc([101O:1][101CH2:1]C(=O)C(NC(=N)c3cc(F)cc([100NH:0][100C:0](=O)N4CCCC(n5nc(-c6ccc(Oc7ccc(F)cc7F)cc6)c(C(N)=O)c5N)C4)c3F)C(C)F)ccc2CC1C(=O)NC1CCCc2ccccc21)C(C)(C)C

> <Shape>
0.227

> <Color>
0.184

> <Negative vol penalty>
0.000

$$$$

  -OEChem-04052304173D

 86 94  0     1  0  0  0  0  0999 V2000
  -28.3320  -32.4004   20.6075 C   0  0  0  0  0  0  0  0  0  0  0  0
  -28.0827  -31.0345   20.6961 C   0  0  0  0  0  0  0  0  0  0  0  0
  -32.5060  -18.6281   20.8932 C   0  0  0  0  0  0  0  0  0  0  0  0
  -23.0077   -9.9111   20.6934 C   0  0  0  0  0  0  0  0  0  0  0  0
  -23.7433  -10.4184   22.9381 C   0  0  0  0  0  0  0  0  0  0  0  0
  -27.5259  -33.3014   21.3019 C   0  0  0  0  0  0  0  0  0  0  0  0
  -27.0278  -30.5689   21.4802 C   0  0  0  0  0  0  0  0  0  0  0  0
  -24.3041  -26.9934   19.1474 C   0  0  0  0  0  0  0  0  0  0  0  0
  -31.7376  -19.6253   21.4939 C   0  0  0  0  0  0  0  0  0  0  0  0
  -31.9789  -17.3477   20.7249 C   0  0  0  0  0  0  0  0  0  0  0  0
  -22.2305   -8.8625   21.1850 C   0  0  0  0  0  0  0  0  0  0  0  0
  -22.9659   -9.3698   23.4298 C   0  0  0  0  0  0  0  0  0  0  0  0
  -24.8384  -25.7061   19.1146 C   0  0  0  0  0  0  0  0  0  0  0  0
  -22.7100   -5.6831   22.2271 C   0  0  0  0  0  0  0  0  0  0  0  0
  -22.7590   -4.4666   21.5464 C   0  0  0  0  0  0  0  0  0  0  0  0
  -23.4102  -25.0729   20.9527 C   0  0  0  0  0  0  0  0  0  0  0  0
  -20.3837   -4.6054   21.1273 C   0  0  0  0  0  0  0  0  0  0  0  0
  -23.7642  -10.6891   21.5699 C   0  0  0  0  0  0  0  0  0  0  0  0
  -24.1752  -13.1128   20.8884 C   0  0  0  0  0  0  0  0  0  0  0  0
  -26.4546  -32.8472   22.0872 C   0  0  0  0  0  0  0  0  0  0  0  0
  -23.3250  -27.3338   20.0919 C   0  0  0  0  0  0  0  0  0  0  0  0
  -26.2074  -31.4647   22.1869 C   0  0  0  0  0  0  0  0  0  0  0  0
  -22.8632  -26.3646   20.9938 C   0  0  0  0  0  0  0  0  0  0  0  0
  -30.4421  -19.3420   21.9264 C   0  0  0  0  0  0  0  0  0  0  0  0
  -30.6834  -17.0644   21.1575 C   0  0  0  0  0  0  0  0  0  0  0  0
  -22.2095   -8.5918   22.5532 C   0  0  0  0  0  0  0  0  0  0  0  0
  -24.3935  -24.7464   20.0192 C   0  0  0  0  0  0  0  0  0  0  0  0
  -21.4978   -6.3608   22.3580 C   0  0  0  0  0  0  0  0  0  0  0  0
  -21.5958   -3.9278   20.9965 C   0  0  0  0  0  0  0  0  0  0  0  0
  -20.3347   -5.8219   21.8081 C   0  0  0  0  0  0  0  0  0  0  0  0
  -29.9150  -18.0615   21.7582 C   0  0  0  0  0  0  0  0  0  0  0  0
  -24.5678  -11.7721   21.0625 C   0  0  0  0  0  0  0  0  0  0  0  0
  -25.2910  -13.7344   20.3832 C   0  0  0  0  0  0  0  0  0  0  0  0
  -26.0168  -23.2314   20.7542 C   0  0  0  0  0  0  0  0  0  1  0  0
  -22.9148  -13.7401   21.1591 C   0  0  0  0  0  0  0  0  0  0  0  0
  -26.6674  -22.0618   20.8556 C   0  0  0  0  0  0  0  0  0  0  0  0
  -27.8606  -21.9983   21.7591 C   0  0  0  0  0  0  0  0  0  0  0  0
  -23.1454  -29.4183   22.4849 C   0  0  0  0  0  0  0  0  0  0  0  0
  -20.0670  -28.4045   22.6211 C   0  0  0  0  0  0  0  0  0  0  0  0
  -17.7930  -25.9493   21.9522 C   0  0  0  0  0  0  0  0  0  0  0  0
  -30.7812  -14.6616   20.4069 C   0  0  0  0  0  0  0  0  0  0  0  0
  -25.6400  -33.8563   22.8573 C   0  0  0  0  0  0  0  0  0  0  0  0
  -22.7395  -28.7193   20.0968 C   0  0  0  0  0  0  0  0  0  0  0  0
  -21.7994  -26.6736   22.0141 C   0  0  0  0  0  0  0  0  0  0  0  0
  -24.3112  -33.3047   23.3673 C   0  0  0  0  0  0  0  0  0  0  0  0
  -29.6272  -11.8020   18.6269 C   0  0  0  0  0  0  0  0  0  0  0  0
  -24.5141  -31.9399   24.0178 C   0  0  0  0  0  0  0  0  0  0  0  0
  -28.1758  -11.6496   19.0875 C   0  0  0  0  0  0  0  0  0  0  0  0
  -30.5354  -12.2747   19.7607 C   0  0  0  0  0  0  0  0  0  0  0  0
  -28.6342  -13.3381   20.9112 C   0  0  0  0  0  0  0  0  0  0  0  0
  -25.0573  -30.9224   23.0074 C   0  0  1  0  0  0  0  0  0  0  0  0
  -22.1170  -29.1001   21.4365 C   0  0  1  0  0  0  0  0  0  0  0  0
  -27.6696  -12.9263   19.7871 C   0  0  2  0  0  0  0  0  0  0  0  0
  -29.2048  -20.0725   24.0067 C   0  0  0  0  0  0  0  0  0  0  0  0
  -15.3600  -25.3932   22.2142 C   0  0  0  0  0  0  0  0  0  0  0  0
  -20.5218  -27.8203   25.5811 C   0  0  0  0  0  0  0  0  0  0  0  0
  -18.4446  -26.4229   25.5529 C   0  0  0  0  0  0  0  0  0  0  0  0
  -18.3112  -28.8628   25.0512 C   0  0  0  0  0  0  0  0  0  0  0  0
  -17.4062  -25.7414   19.0254 C   0  0  0  0  0  0  0  0  0  0  0  0
  -29.6111  -20.4264   22.5776 C   0  0  2  0  0  0  0  0  0  0  0  0
  -19.3359  -27.3013   23.3472 C   0  0  1  0  0  0  0  0  0  0  0  0
  -16.4202  -25.9967   21.3061 C   0  0  2  0  0  0  0  0  0  0  0  0
  -19.1748  -27.5962   24.8653 C   0  0  0  0  0  0  0  0  0  0  0  0
  -25.8340  -11.5540   20.6975 N   0  0  0  0  0  0  0  0  0  0  0  0
  -26.2467  -12.7659   20.2888 N   0  0  0  0  0  0  0  0  0  0  0  0
  -21.2625  -28.0442   21.9833 N   0  0  0  0  0  0  0  0  0  0  0  0
  -29.9952  -13.4903   20.3733 N   0  0  0  0  0  0  0  0  0  0  0  0
  -25.5380  -15.0094   20.0149 N   0  0  0  0  0  0  0  0  0  0  0  0
  -21.8752  -12.9552   21.6763 N   0  0  0  0  0  0  0  0  0  0  0  0
  -30.1504  -15.7629   20.9845 N   0  0  0  0  0  0  0  0  0  0  0  0
  -28.4469  -20.7445   21.7816 N   0  0  0  0  0  0  0  0  0  0  0  0
  -23.9959  -30.4524   22.1431 N   0  0  0  0  0  0  0  0  0  0  0  0
  -18.0751  -27.1116   22.6382 N   0  0  0  0  0  0  0  0  0  0  0  0
  -16.4255  -25.2399   20.0223 N   0  3  0  0  0  0  0  0  0  0  0  0
  -22.7112  -14.9571   20.9332 O   0  0  0  0  0  0  0  0  0  0  0  0
  -28.2498  -22.9715   22.3987 O   0  0  0  0  0  0  0  0  0  0  0  0
  -23.1647  -28.7743   23.5273 O   0  0  0  0  0  0  0  0  0  0  0  0
  -19.5912  -29.5426   22.6139 O   0  0  0  0  0  0  0  0  0  0  0  0
  -18.5390  -24.9768   21.8608 O   0  0  0  0  0  0  0  0  0  0  0  0
  -31.9193  -14.6932   19.9318 O   0  0  0  0  0  0  0  0  0  0  0  0
  -26.3095  -20.9137   20.1838 O   0  0  0  0  0  0  0  0  0  0  0  0
  -21.4510   -7.5688   23.0334 O   0  0  0  0  0  0  0  0  0  0  0  0
  -24.9138  -23.4893   19.9897 O   0  0  0  0  0  0  0  0  0  1  0  0
  -21.6433   -2.7603   20.3416 F   0  0  0  0  0  0  0  0  0  0  0  0
  -19.1674   -6.4689   21.9295 F   0  0  0  0  0  0  0  0  0  0  0  0
  -28.6684  -17.7903   22.1733 F   0  0  0  0  0  0  0  0  0  0  0  0
  1  2  1  0  0  0  0
  1  6  2  0  0  0  0
  2  7  2  0  0  0  0
  3  9  2  0  0  0  0
  3 10  1  0  0  0  0
  4 11  2  0  0  0  0
  4 18  1  0  0  0  0
  5 12  1  0  0  0  0
  5 18  2  0  0  0  0
  6 20  1  0  0  0  0
  7 22  1  0  0  0  0
  8 13  2  0  0  0  0
  8 21  1  0  0  0  0
  9 24  1  0  0  0  0
 10 25  2  0  0  0  0
 11 26  1  0  0  0  0
 12 26  2  0  0  0  0
 13 27  1  0  0  0  0
 14 15  2  0  0  0  0
 14 28  1  0  0  0  0
 15 29  1  0  0  0  0
 16 23  1  0  0  0  0
 16 27  2  0  0  0  0
 17 29  2  0  0  0  0
 17 30  1  0  0  0  0
 18 32  1  0  0  0  0
 19 32  1  0  0  0  0
 19 33  2  0  0  0  0
 19 35  1  0  0  0  0
 20 22  2  0  0  0  0
 20 42  1  0  0  0  0
 21 23  2  0  0  0  0
 21 43  1  0  0  0  0
 22 51  1  0  0  0  0
 23 44  1  0  0  0  0
 24 31  2  0  0  0  0
 24 60  1  0  0  0  0
 25 31  1  0  0  0  0
 25 70  1  0  0  0  0
 26 82  1  0  0  0  0
 27 83  1  0  0  0  0
 28 30  2  0  0  0  0
 28 82  1  0  0  0  0
 29 84  1  0  0  0  0
 30 85  1  0  0  0  0
 31 86  1  0  0  0  0
 32 64  2  0  0  0  0
 33 65  1  0  0  0  0
 33 68  1  0  0  0  0
 34 36  2  0  0  0  0
 34 83  1  0  0  0  0
 35 69  1  0  0  0  0
 35 75  2  0  0  0  0
 36 37  1  0  0  0  0
 36 81  1  0  0  0  0
 37 71  1  0  0  0  0
 37 76  2  0  0  0  0
 38 52  1  0  0  0  0
 38 72  1  0  0  0  0
 38 77  2  0  0  0  0
 39 61  1  0  0  0  0
 39 66  1  0  0  0  0
 39 78  2  0  0  0  0
 40 62  1  0  0  0  0
 40 73  1  0  0  0  0
 40 79  2  0  0  0  0
 41 67  1  0  0  0  0
 41 70  1  0  0  0  0
 41 80  2  0  0  0  0
 42 45  1  0  0  0  0
 43 52  1  0  0  0  0
 44 66  1  0  0  0  0
 45 47  1  0  0  0  0
 46 48  1  0  0  0  0
 46 49  1  0  0  0  0
 47 51  1  0  0  0  0
 48 53  1  0  0  0  0
 49 67  1  0  0  0  0
 50 53  1  0  0  0  0
 50 67  1  0  0  0  0
 51 72  1  0  0  0  0
 52 66  1  0  0  0  0
 53 65  1  0  0  0  0
 54 60  1  0  0  0  0
 55 62  1  0  0  0  0
 56 63  1  0  0  0  0
 57 63  1  0  0  0  0
 58 63  1  0  0  0  0
 59 74  1  0  0  0  0
 60 71  1  0  0  0  0
 61 63  1  0  0  0  0
 61 73  1  0  0  0  0
 62 74  1  0  0  0  0
 64 65  1  0  0  0  0
M  CHG  1  74   1
M  ISO  4  34 101  41 100  70 100  83 101
M  END
> <Batch ID>
0169

> <Smiles>
CNC(C)C(=O)NC(C(=O)N1Cc2cc([101O:1][101CH2:1]C(=O)C(=O)NC(C)c3cccc([100NH:0][100C:0](=O)N4CCCC(n5nc(-c6ccc(Oc7ccc(F)cc7F)cc6)c(C(N)=O)c5N)C4)c3F)ccc2CC1C(=O)NC1CCCc2ccccc21)C(C)(C)C

> <Shape>
0.328

> <Color>
0.173

> <Negative vol penalty>
0.000

$$$$

  -OEChem-04052304173D

 91 99  0     1  0  0  0  0  0999 V2000
  -27.3486  -31.4373   23.2957 C   0  0  0  0  0  0  0  0  0  0  0  0
  -27.1606  -30.2056   23.9146 C   0  0  0  0  0  0  0  0  0  0  0  0
  -31.4221  -20.1406   18.7644 C   0  0  0  0  0  0  0  0  0  0  0  0
  -29.3992  -20.7996   19.9092 C   0  0  0  0  0  0  0  0  0  0  0  0
  -26.6669  -31.7349   22.1165 C   0  0  0  0  0  0  0  0  0  0  0  0
  -26.2898  -29.2712   23.3551 C   0  0  0  0  0  0  0  0  0  0  0  0
  -26.9032  -23.1779   23.4017 C   0  0  0  0  0  0  0  0  0  0  0  0
  -31.3888  -21.3228   18.0249 C   0  0  0  0  0  0  0  0  0  0  0  0
  -29.3658  -21.9818   19.1696 C   0  0  0  0  0  0  0  0  0  0  0  0
  -26.3491  -22.1856   24.2091 C   0  0  0  0  0  0  0  0  0  0  0  0
  -28.9466  -25.3393   17.8395 C   0  0  0  0  0  0  0  0  0  0  0  0
  -28.6758  -26.5250   18.5225 C   0  0  0  0  0  0  0  0  0  0  0  0
  -21.5161  -14.4587   21.3795 C   0  0  0  0  0  0  0  0  0  0  0  0
  -24.6246  -21.8174   22.5630 C   0  0  0  0  0  0  0  0  0  0  0  0
  -23.5226  -13.3954   20.5548 C   0  0  0  0  0  0  0  0  0  0  0  0
  -30.6318  -26.1794   19.8980 C   0  0  0  0  0  0  0  0  0  0  0  0
  -30.4273  -19.8789   19.7065 C   0  0  0  0  0  0  0  0  0  0  0  0
  -22.2916  -15.4231   22.0229 C   0  0  0  0  0  0  0  0  0  0  0  0
  -31.0938  -18.4476   21.7102 C   0  0  0  0  0  0  0  0  0  0  0  0
  -25.7946  -30.7999   21.5371 C   0  0  0  0  0  0  0  0  0  0  0  0
  -26.3148  -23.5055   22.1717 C   0  0  0  0  0  0  0  0  0  0  0  0
  -25.5947  -29.5571   22.1677 C   0  0  0  0  0  0  0  0  0  0  0  0
  -25.1746  -22.8125   21.7406 C   0  0  0  0  0  0  0  0  0  0  0  0
  -24.2982  -14.3598   21.1982 C   0  0  0  0  0  0  0  0  0  0  0  0
  -30.3607  -22.2434   18.2275 C   0  0  0  0  0  0  0  0  0  0  0  0
  -25.2080  -21.5071   23.7912 C   0  0  0  0  0  0  0  0  0  0  0  0
  -30.0600  -24.5736   18.1858 C   0  0  0  0  0  0  0  0  0  0  0  0
  -29.5184  -26.9450   19.5517 C   0  0  0  0  0  0  0  0  0  0  0  0
  -22.1316  -13.4448   20.6454 C   0  0  0  0  0  0  0  0  0  0  0  0
  -30.9025  -24.9937   19.2150 C   0  0  0  0  0  0  0  0  0  0  0  0
  -23.6826  -15.3737   21.9323 C   0  0  0  0  0  0  0  0  0  0  0  0
  -30.4609  -18.6577   20.4704 C   0  0  0  0  0  0  0  0  0  0  0  0
  -30.8340  -17.1326   22.0098 C   0  0  0  0  0  0  0  0  0  0  0  0
  -21.6367  -16.4954   22.7988 C   0  0  0  0  0  0  0  0  0  0  0  0
  -31.8489  -19.3595   22.5187 C   0  0  0  0  0  0  0  0  0  0  0  0
  -24.9945  -26.1230   20.9431 C   0  0  0  0  0  0  0  0  0  0  0  0
  -23.0065  -18.8449   25.0781 C   0  0  0  0  0  0  0  0  0  0  0  0
  -24.8892  -24.3304   18.2416 C   0  0  0  0  0  0  0  0  0  0  0  0
  -24.8326  -21.2261   16.8249 C   0  0  0  0  0  0  0  0  0  0  0  0
  -26.4772  -13.3664   20.4161 C   0  0  0  0  0  0  0  0  0  0  0  0
  -25.0438  -31.1851   20.2871 C   0  0  0  0  0  0  0  0  0  0  0  0
  -26.9401  -24.5600   21.3001 C   0  0  0  0  0  0  0  0  0  0  0  0
  -24.5165  -23.1124   20.4195 C   0  0  0  0  0  0  0  0  0  0  0  0
  -24.4250  -29.9956   19.5574 C   0  0  0  0  0  0  0  0  0  0  0  0
  -29.9728  -12.9137   19.9136 C   0  0  0  0  0  0  0  0  0  0  0  0
  -23.7031  -29.0817   20.5425 C   0  0  0  0  0  0  0  0  0  0  0  0
  -30.5530  -14.3150   20.1182 C   0  0  0  0  0  0  0  0  0  0  0  0
  -28.6145  -12.9585   19.2160 C   0  0  0  0  0  0  0  0  0  0  0  0
  -28.2018  -15.2393   20.0507 C   0  0  0  0  0  0  0  0  0  0  0  0
  -24.6775  -28.5077   21.5782 C   0  0  1  0  0  0  0  0  0  0  0  0
  -25.9603  -25.1676   20.3011 C   0  0  1  0  0  0  0  0  0  0  0  0
  -29.5397  -15.2493   20.8081 C   0  0  2  0  0  0  0  0  0  0  0  0
  -24.7066  -20.0800   14.5960 C   0  0  0  0  0  0  0  0  0  0  0  0
  -19.4124  -17.6864   27.8641 C   0  0  0  0  0  0  0  0  0  0  0  0
  -19.0016  -18.9866   25.7738 C   0  0  0  0  0  0  0  0  0  0  0  0
  -20.9210  -19.5896   27.2518 C   0  0  0  0  0  0  0  0  0  0  0  0
  -21.9085  -24.9640   18.0870 C   0  0  0  0  0  0  0  0  0  0  0  0
  -21.6634  -23.0793   16.4573 C   0  0  0  0  0  0  0  0  0  0  0  0
  -23.1053  -25.0349   15.8923 C   0  0  0  0  0  0  0  0  0  0  0  0
  -27.4596  -19.9207   17.2175 C   0  0  0  0  0  0  0  0  0  0  0  0
  -23.4954  -19.8838   24.0876 C   0  0  0  0  0  0  0  0  0  1  0  0
  -20.9850  -17.4584   25.8524 C   0  0  0  0  0  0  0  0  0  0  0  0
  -21.7500  -18.0857   24.6843 C   0  0  2  0  0  0  0  0  0  0  0  0
  -23.8922  -23.3759   17.6302 C   0  0  1  0  0  0  0  0  0  0  0  0
  -25.6255  -20.6283   15.6766 C   0  0  2  0  0  0  0  0  0  0  0  0
  -20.0966  -18.4147   26.6974 C   0  0  0  0  0  0  0  0  0  0  0  0
  -22.6534  -24.1090   17.0425 C   0  0  0  0  0  0  0  0  0  0  0  0
  -29.8455  -17.5637   20.0136 N   0  0  0  0  0  0  0  0  0  0  0  0
  -30.0905  -16.6535   20.9715 N   0  0  0  0  0  0  0  0  0  0  0  0
  -25.1618  -24.1560   19.6059 N   0  0  0  0  0  0  0  0  0  0  0  0
  -27.7055  -13.8597   19.9276 N   0  0  0  0  0  0  0  0  0  0  0  0
  -31.1713  -16.3508   23.0574 N   0  0  0  0  0  0  0  0  0  0  0  0
  -32.0195  -20.6736   22.0621 N   0  0  0  0  0  0  0  0  0  0  0  0
  -25.7110  -14.3066   21.1044 N   0  0  0  0  0  0  0  0  0  0  0  0
  -22.2871  -17.0083   23.8504 N   0  0  0  0  0  0  0  0  0  0  0  0
  -25.4484  -27.4268   21.0022 N   0  0  0  0  0  0  0  0  0  0  0  0
  -24.6327  -22.5801   16.6572 N   0  0  0  0  0  0  0  0  0  0  0  0
  -20.4258  -16.8992   22.4142 N   0  3  0  0  0  0  0  0  0  0  0  0
  -26.4897  -19.5176   16.1668 N   0  3  0  0  0  0  0  0  0  0  0  0
  -32.3713  -19.0147   23.6058 O   0  0  0  0  0  0  0  0  0  0  0  0
  -23.9167  -25.7083   21.3530 O   0  0  0  0  0  0  0  0  0  0  0  0
  -23.6168  -18.6067   26.1199 O   0  0  0  0  0  0  0  0  0  0  0  0
  -25.4124  -25.1941   17.5332 O   0  0  0  0  0  0  0  0  0  0  0  0
  -24.4277  -20.5581   17.7737 O   0  0  0  0  0  0  0  0  0  0  0  0
  -26.1427  -12.1892   20.2608 O   0  0  0  0  0  0  0  0  0  0  0  0
  -30.3279  -23.3972   17.5062 O   0  0  0  0  0  0  0  0  0  0  0  0
  -24.6648  -20.5385   24.5777 O   0  0  0  0  0  0  0  0  0  1  0  0
  -29.2591  -28.0844   20.2064 F   0  0  0  0  0  0  0  0  0  0  0  0
  -21.3869  -12.5189   20.0275 F   0  0  0  0  0  0  0  0  0  0  0  0
  -31.9743  -24.2629   19.5514 F   0  0  0  0  0  0  0  0  0  0  0  0
  -24.4273  -16.3018   22.5520 F   0  0  0  0  0  0  0  0  0  0  0  0
  1  2  1  0  0  0  0
  1  5  2  0  0  0  0
  2  6  2  0  0  0  0
  3  8  2  0  0  0  0
  3 17  1  0  0  0  0
  4  9  1  0  0  0  0
  4 17  2  0  0  0  0
  5 20  1  0  0  0  0
  6 22  1  0  0  0  0
  7 10  2  0  0  0  0
  7 21  1  0  0  0  0
  8 25  1  0  0  0  0
  9 25  2  0  0  0  0
 10 26  1  0  0  0  0
 11 12  2  0  0  0  0
 11 27  1  0  0  0  0
 12 28  1  0  0  0  0
 13 18  1  0  0  0  0
 13 29  2  0  0  0  0
 14 23  1  0  0  0  0
 14 26  2  0  0  0  0
 15 24  2  0  0  0  0
 15 29  1  0  0  0  0
 16 28  2  0  0  0  0
 16 30  1  0  0  0  0
 17 32  1  0  0  0  0
 18 31  2  0  0  0  0
 18 34  1  0  0  0  0
 19 32  1  0  0  0  0
 19 33  2  0  0  0  0
 19 35  1  0  0  0  0
 20 22  2  0  0  0  0
 20 41  1  0  0  0  0
 21 23  2  0  0  0  0
 21 42  1  0  0  0  0
 22 50  1  0  0  0  0
 23 43  1  0  0  0  0
 24 31  1  0  0  0  0
 24 74  1  0  0  0  0
 25 86  1  0  0  0  0
 26 87  1  0  0  0  0
 27 30  2  0  0  0  0
 27 86  1  0  0  0  0
 28 88  1  0  0  0  0
 29 89  1  0  0  0  0
 30 90  1  0  0  0  0
 31 91  1  0  0  0  0
 32 68  2  0  0  0  0
 33 69  1  0  0  0  0
 33 72  1  0  0  0  0
 34 75  1  0  0  0  0
 34 78  2  0  0  0  0
 35 73  1  0  0  0  0
 35 80  2  0  0  0  0
 36 51  1  0  0  0  0
 36 76  1  0  0  0  0
 36 81  2  0  0  0  0
 37 61  1  0  0  0  0
 37 63  1  0  0  0  0
 37 82  2  0  0  0  0
 38 64  1  0  0  0  0
 38 70  1  0  0  0  0
 38 83  2  0  0  0  0
 39 65  1  0  0  0  0
 39 77  1  0  0  0  0
 39 84  2  0  0  0  0
 40 71  1  0  0  0  0
 40 74  1  0  0  0  0
 40 85  2  0  0  0  0
 41 44  1  0  0  0  0
 42 51  1  0  0  0  0
 43 70  1  0  0  0  0
 44 46  1  0  0  0  0
 45 47  1  0  0  0  0
 45 48  1  0  0  0  0
 46 50  1  0  0  0  0
 47 52  1  0  0  0  0
 48 71  1  0  0  0  0
 49 52  1  0  0  0  0
 49 71  1  0  0  0  0
 50 76  1  0  0  0  0
 51 70  1  0  0  0  0
 52 69  1  0  0  0  0
 53 65  1  0  0  0  0
 54 66  1  0  0  0  0
 55 66  1  0  0  0  0
 56 66  1  0  0  0  0
 57 67  1  0  0  0  0
 58 67  1  0  0  0  0
 59 67  1  0  0  0  0
 60 79  1  0  0  0  0
 61 87  1  0  0  0  0
 62 63  1  0  0  0  0
 62 66  1  0  0  0  0
 63 75  1  0  0  0  0
 64 67  1  0  0  0  0
 64 77  1  0  0  0  0
 65 79  1  0  0  0  0
 68 69  1  0  0  0  0
M  CHG  2  78   1  79   1
M  ISO  4  40 100  61 101  74 100  87 101
M  END
> <Batch ID>
0169

> <Smiles>
CNC(C)C(=O)NC(C(=O)N1Cc2cc([101O:1][101CH2:1]C(=O)C(CC(C)(C)C)NC(=N)c3cc(F)cc([100NH:0][100C:0](=O)N4CCCC(n5nc(-c6ccc(Oc7ccc(F)cc7F)cc6)c(C(N)=O)c5N)C4)c3F)ccc2CC1C(=O)NC1CCCc2ccccc21)C(C)(C)C

> <Shape>
0.218

> <Color>
0.049

> <Negative vol penalty>
0.000

$$$$

  -OEChem-04052304173D

 88 96  0     1  0  0  0  0  0999 V2000
  -26.9553  -34.7225   24.8653 C   0  0  0  0  0  0  0  0  0  0  0  0
  -27.3290  -33.4666   24.3977 C   0  0  0  0  0  0  0  0  0  0  0  0
  -29.1465  -10.9785   15.6861 C   0  0  0  0  0  0  0  0  0  0  0  0
  -30.0555  -13.2108   15.8524 C   0  0  0  0  0  0  0  0  0  0  0  0
  -25.6359  -34.9577   25.2495 C   0  0  0  0  0  0  0  0  0  0  0  0
  -26.3836  -32.4450   24.3151 C   0  0  0  0  0  0  0  0  0  0  0  0
  -26.6630  -29.8878   19.9530 C   0  0  0  0  0  0  0  0  0  0  0  0
  -29.4129  -10.9720   14.3169 C   0  0  0  0  0  0  0  0  0  0  0  0
  -30.3219  -13.2043   14.4832 C   0  0  0  0  0  0  0  0  0  0  0  0
  -27.6824  -28.9444   19.8322 C   0  0  0  0  0  0  0  0  0  0  0  0
  -28.0247  -12.2301   11.5037 C   0  0  0  0  0  0  0  0  0  0  0  0
  -27.0272  -11.7549   10.6523 C   0  0  0  0  0  0  0  0  0  0  0  0
  -26.1076  -27.1872   20.3337 C   0  0  0  0  0  0  0  0  0  0  0  0
  -24.4712  -18.5498   21.3382 C   0  0  0  0  0  0  0  0  0  0  0  0
  -25.4325  -20.7390   20.9913 C   0  0  0  0  0  0  0  0  0  0  0  0
  -26.8239  -18.7701   20.8346 C   0  0  0  0  0  0  0  0  0  0  0  0
  -28.5241  -10.0319    9.8602 C   0  0  0  0  0  0  0  0  0  0  0  0
  -29.4677  -12.0980   16.4538 C   0  0  0  0  0  0  0  0  0  0  0  0
  -30.0468  -11.6807   18.9029 C   0  0  0  0  0  0  0  0  0  0  0  0
  -24.6716  -33.9412   25.1624 C   0  0  0  0  0  0  0  0  0  0  0  0
  -25.3583  -29.4883   20.2764 C   0  0  0  0  0  0  0  0  0  0  0  0
  -25.0503  -32.6665   24.6997 C   0  0  0  0  0  0  0  0  0  0  0  0
  -25.0729  -28.1272   20.4555 C   0  0  0  0  0  0  0  0  0  0  0  0
  -24.3279  -19.9358   21.2749 C   0  0  0  0  0  0  0  0  0  0  0  0
  -25.7193  -17.9669   21.1181 C   0  0  0  0  0  0  0  0  0  0  0  0
  -26.6805  -20.1561   20.7712 C   0  0  0  0  0  0  0  0  0  0  0  0
  -30.0007  -12.0848   13.7155 C   0  0  0  0  0  0  0  0  0  0  0  0
  -27.4054  -27.5942   20.0253 C   0  0  0  0  0  0  0  0  0  0  0  0
  -29.2720  -11.6062   11.5332 C   0  0  0  0  0  0  0  0  0  0  0  0
  -27.2769  -10.6558    9.8306 C   0  0  0  0  0  0  0  0  0  0  0  0
  -29.5217  -10.5071   10.7115 C   0  0  0  0  0  0  0  0  0  0  0  0
  -29.1922  -12.1056   17.8681 C   0  0  0  0  0  0  0  0  0  0  0  0
  -29.3246  -11.8900   20.0523 C   0  0  0  0  0  0  0  0  0  0  0  0
  -31.3747  -11.1448   18.8316 C   0  0  0  0  0  0  0  0  0  0  0  0
  -29.0929  -22.9298   20.0803 C   0  0  0  0  0  0  0  0  0  0  0  0
  -29.2581  -24.4301   19.9365 C   0  0  0  0  0  0  0  0  0  0  0  0
  -23.3704  -30.0606   22.6898 C   0  0  0  0  0  0  0  0  0  0  0  0
  -21.2783  -28.4004   20.8488 C   0  0  0  0  0  0  0  0  0  0  0  0
  -20.7875  -26.1010   18.3751 C   0  0  0  0  0  0  0  0  0  0  0  0
  -24.8703  -15.6188   21.4526 C   0  0  0  0  0  0  0  0  0  0  0  0
  -23.2683  -34.2294   25.6339 C   0  0  0  0  0  0  0  0  0  0  0  0
  -24.2643  -30.5157   20.3768 C   0  0  0  0  0  0  0  0  0  0  0  0
  -23.6845  -27.6447   20.7842 C   0  0  0  0  0  0  0  0  0  0  0  0
  -22.2440  -33.2006   25.1623 C   0  0  0  0  0  0  0  0  0  0  0  0
  -24.8184  -12.0649   21.6641 C   0  0  0  0  0  0  0  0  0  0  0  0
  -22.7690  -31.7853   25.3816 C   0  0  0  0  0  0  0  0  0  0  0  0
  -26.0155  -11.6336   20.8138 C   0  0  0  0  0  0  0  0  0  0  0  0
  -24.1119  -13.2832   21.0722 C   0  0  0  0  0  0  0  0  0  0  0  0
  -26.1805  -14.0003   19.9428 C   0  0  0  0  0  0  0  0  0  0  0  0
  -24.0481  -31.5398   24.5722 C   0  0  1  0  0  0  0  0  0  0  0  0
  -23.0795  -30.0468   21.2157 C   0  0  1  0  0  0  0  0  0  0  0  0
  -26.9633  -12.8164   20.5339 C   0  0  2  0  0  0  0  0  0  0  0  0
  -18.9658  -24.9221   17.1147 C   0  0  0  0  0  0  0  0  0  0  0  0
  -20.7783  -26.5995   23.2605 C   0  0  0  0  0  0  0  0  0  0  0  0
  -19.7307  -24.9343   21.7121 C   0  0  0  0  0  0  0  0  0  0  0  0
  -18.7255  -27.2031   21.9660 C   0  0  0  0  0  0  0  0  0  0  0  0
  -21.6831  -27.2333   15.7916 C   0  0  0  0  0  0  0  0  0  0  0  0
  -27.7223  -22.3933   20.4035 C   0  0  0  0  0  0  0  0  0  0  0  0
  -28.0442  -25.3053   20.1197 C   0  0  0  0  0  0  0  0  0  1  0  0
  -20.9016  -26.9456   20.7050 C   0  0  1  0  0  0  0  0  0  0  0  0
  -19.9012  -26.1208   17.1429 C   0  0  2  0  0  0  0  0  0  0  0  0
  -22.9936  -20.5591   21.5104 C   0  0  0  0  0  0  0  0  0  0  0  0
  -20.0607  -26.4296   21.9066 C   0  0  0  0  0  0  0  0  0  0  0  0
  -28.0169  -12.5510   18.3201 N   0  0  0  0  0  0  0  0  0  0  0  0
  -28.1279  -12.4071   19.6516 N   0  0  0  0  0  0  0  0  0  0  0  0
  -22.6502  -28.6882   20.8779 N   0  0  0  0  0  0  0  0  0  0  0  0
  -25.0710  -14.3648   20.8378 N   0  0  0  0  0  0  0  0  0  0  0  0
  -29.6029  -11.6804   21.3565 N   0  0  0  0  0  0  0  0  0  0  0  0
  -31.9684  -10.9961   17.5707 N   0  0  0  0  0  0  0  0  0  0  0  0
  -25.8643  -16.5589   21.1828 N   0  0  0  0  0  0  0  0  0  0  0  0
  -27.7784  -20.9548   20.4890 N   0  0  0  0  0  0  0  0  0  0  0  0
  -23.7280  -31.3017   23.1810 N   0  0  0  0  0  0  0  0  0  0  0  0
  -20.2357  -26.8222   19.4128 N   0  0  0  0  0  0  0  0  0  0  0  0
  -20.7327  -26.0973   15.9063 N   0  3  0  0  0  0  0  0  0  0  0  0
  -32.0096  -10.7924   19.8545 O   0  0  0  0  0  0  0  0  0  0  0  0
  -30.0940  -22.2420   19.9242 O   0  0  0  0  0  0  0  0  0  0  0  0
  -30.3774  -24.8517   19.6749 O   0  0  0  0  0  0  0  0  0  0  0  0
  -23.2758  -29.0225   23.3340 O   0  0  0  0  0  0  0  0  0  0  0  0
  -20.3880  -29.2509   20.9250 O   0  0  0  0  0  0  0  0  0  0  0  0
  -21.8602  -25.5024   18.4146 O   0  0  0  0  0  0  0  0  0  0  0  0
  -23.9032  -15.8337   22.1878 O   0  0  0  0  0  0  0  0  0  0  0  0
  -30.2610  -12.0787   12.3795 O   0  0  0  0  0  0  0  0  0  0  0  0
  -28.3987  -26.6714   19.9086 O   0  0  0  0  0  0  0  0  0  1  0  0
  -26.3184  -10.1987    9.0143 F   0  0  0  0  0  0  0  0  0  0  0  0
  -30.7175   -9.9029   10.7364 F   0  0  0  0  0  0  0  0  0  0  0  0
  -22.0058  -19.6539   21.7766 F   0  0  0  0  0  0  0  0  0  0  0  0
  -22.9741  -21.4274   22.5645 F   0  0  0  0  0  0  0  0  0  0  0  0
  -22.5525  -21.2770   20.4366 F   0  0  0  0  0  0  0  0  0  0  0  0
  1  2  1  0  0  0  0
  1  5  2  0  0  0  0
  2  6  2  0  0  0  0
  3  8  2  0  0  0  0
  3 18  1  0  0  0  0
  4  9  1  0  0  0  0
  4 18  2  0  0  0  0
  5 20  1  0  0  0  0
  6 22  1  0  0  0  0
  7 10  2  0  0  0  0
  7 21  1  0  0  0  0
  8 27  1  0  0  0  0
  9 27  2  0  0  0  0
 10 28  1  0  0  0  0
 11 12  2  0  0  0  0
 11 29  1  0  0  0  0
 12 30  1  0  0  0  0
 13 23  1  0  0  0  0
 13 28  2  0  0  0  0
 14 24  2  0  0  0  0
 14 25  1  0  0  0  0
 15 24  1  0  0  0  0
 15 26  2  0  0  0  0
 16 25  2  0  0  0  0
 16 26  1  0  0  0  0
 17 30  2  0  0  0  0
 17 31  1  0  0  0  0
 18 32  1  0  0  0  0
 19 32  1  0  0  0  0
 19 33  2  0  0  0  0
 19 34  1  0  0  0  0
 20 22  2  0  0  0  0
 20 41  1  0  0  0  0
 21 23  2  0  0  0  0
 21 42  1  0  0  0  0
 22 50  1  0  0  0  0
 23 43  1  0  0  0  0
 24 62  1  0  0  0  0
 25 70  1  0  0  0  0
 26 71  1  0  0  0  0
 27 82  1  0  0  0  0
 28 83  1  0  0  0  0
 29 31  2  0  0  0  0
 29 82  1  0  0  0  0
 30 84  1  0  0  0  0
 31 85  1  0  0  0  0
 32 64  2  0  0  0  0
 33 65  1  0  0  0  0
 33 68  1  0  0  0  0
 34 69  1  0  0  0  0
 34 75  2  0  0  0  0
 35 36  1  0  0  0  0
 35 58  1  0  0  0  0
 35 76  2  0  0  0  0
 36 59  1  0  0  0  0
 36 77  2  0  0  0  0
 37 51  1  0  0  0  0
 37 72  1  0  0  0  0
 37 78  2  0  0  0  0
 38 60  1  0  0  0  0
 38 66  1  0  0  0  0
 38 79  2  0  0  0  0
 39 61  1  0  0  0  0
 39 73  1  0  0  0  0
 39 80  2  0  0  0  0
 40 67  1  0  0  0  0
 40 70  1  0  0  0  0
 40 81  2  0  0  0  0
 41 44  1  0  0  0  0
 42 51  1  0  0  0  0
 43 66  1  0  0  0  0
 44 46  1  0  0  0  0
 45 47  1  0  0  0  0
 45 48  1  0  0  0  0
 46 50  1  0  0  0  0
 47 52  1  0  0  0  0
 48 67  1  0  0  0  0
 49 52  1  0  0  0  0
 49 67  1  0  0  0  0
 50 72  1  0  0  0  0
 51 66  1  0  0  0  0
 52 65  1  0  0  0  0
 53 61  1  0  0  0  0
 54 63  1  0  0  0  0
 55 63  1  0  0  0  0
 56 63  1  0  0  0  0
 57 74  1  0  0  0  0
 58 71  1  0  0  0  0
 59 83  1  0  0  0  0
 60 63  1  0  0  0  0
 60 73  1  0  0  0  0
 61 74  1  0  0  0  0
 62 86  1  0  0  0  0
 62 87  1  0  0  0  0
 62 88  1  0  0  0  0
 64 65  1  0  0  0  0
M  CHG  1  74   1
M  ISO  4  40 100  59 101  70 100  83 101
M  END
> <Batch ID>
0169

> <Smiles>
CNC(C)C(=O)NC(C(=O)N1Cc2cc([101O:1][101CH2:1]C(=O)C(=O)CNc3cc([100NH:0][100C:0](=O)N4CCCC(n5nc(-c6ccc(Oc7ccc(F)cc7F)cc6)c(C(N)=O)c5N)C4)cc(C(F)(F)F)c3)ccc2CC1C(=O)NC1CCCc2ccccc21)C(C)(C)C

> <Shape>
0.263

> <Color>
0.095

> <Negative vol penalty>
0.000

$$$$
