
  -OEChem-04052304203D

 87 95  0     1  0  0  0  0  0999 V2000
  -24.7578  -11.4285   20.0599 C   0  0  0  0  0  0  0  0  0  0  0  0
  -24.8493  -12.5470   19.2378 C   0  0  0  0  0  0  0  0  0  0  0  0
  -20.0734  -20.7664   22.3651 C   0  0  0  0  0  0  0  0  0  0  0  0
  -22.3931  -21.3160   21.9728 C   0  0  0  0  0  0  0  0  0  0  0  0
  -25.0804  -11.5307   21.4125 C   0  0  0  0  0  0  0  0  0  0  0  0
  -25.2623  -13.7687   19.7680 C   0  0  0  0  0  0  0  0  0  0  0  0
  -28.8809  -19.6895   17.9883 C   0  0  0  0  0  0  0  0  0  0  0  0
  -20.2258  -19.5944   21.6243 C   0  0  0  0  0  0  0  0  0  0  0  0
  -22.5455  -20.1439   21.2321 C   0  0  0  0  0  0  0  0  0  0  0  0
  -28.7465  -21.0771   17.9962 C   0  0  0  0  0  0  0  0  0  0  0  0
  -21.5049  -16.4998   22.0934 C   0  0  0  0  0  0  0  0  0  0  0  0
  -20.9637  -15.3262   22.6183 C   0  0  0  0  0  0  0  0  0  0  0  0
  -24.8447  -29.1606   21.2253 C   0  0  0  0  0  0  0  0  0  0  0  0
  -29.3541  -21.1167   20.3304 C   0  0  0  0  0  0  0  0  0  0  0  0
  -19.5570  -15.1022   20.6668 C   0  0  0  0  0  0  0  0  0  0  0  0
  -24.4120  -31.8131   20.7537 C   0  0  0  0  0  0  0  0  0  0  0  0
  -21.1570  -21.6273   22.5392 C   0  0  0  0  0  0  0  0  0  0  0  0
  -25.9302  -29.9981   20.9934 C   0  0  0  0  0  0  0  0  0  0  0  0
  -21.1959  -23.0011   24.6884 C   0  0  0  0  0  0  0  0  0  0  0  0
  -25.5068  -12.7521   21.9575 C   0  0  0  0  0  0  0  0  0  0  0  0
  -29.2430  -19.0028   19.1562 C   0  0  0  0  0  0  0  0  0  0  0  0
  -25.5896  -13.8877   21.1294 C   0  0  0  0  0  0  0  0  0  0  0  0
  -29.4950  -19.7206   20.3341 C   0  0  0  0  0  0  0  0  0  0  0  0
  -21.4618  -19.2831   21.0579 C   0  0  0  0  0  0  0  0  0  0  0  0
  -28.9803  -21.7907   19.1681 C   0  0  0  0  0  0  0  0  0  0  0  0
  -21.0721  -16.9746   20.8553 C   0  0  0  0  0  0  0  0  0  0  0  0
  -19.9898  -14.6274   21.9050 C   0  0  0  0  0  0  0  0  0  0  0  0
  -20.0982  -16.2758   20.1420 C   0  0  0  0  0  0  0  0  0  0  0  0
  -25.7182  -31.3509   20.7523 C   0  0  0  0  0  0  0  0  0  0  0  0
  -21.0001  -22.8384   23.3038 C   0  0  0  0  0  0  0  0  0  0  0  0
  -23.5776  -29.7208   21.2057 C   0  0  0  0  0  0  0  0  0  0  0  0
  -20.9219  -24.3268   24.9205 C   0  0  0  0  0  0  0  0  0  0  0  0
  -27.3151  -29.4442   21.0034 C   0  0  0  0  0  0  0  0  0  0  0  0
  -21.5902  -22.0398   25.6764 C   0  0  0  0  0  0  0  0  0  0  0  0
  -27.8604  -16.7989   20.9824 C   0  0  0  0  0  0  0  0  0  0  0  0
  -28.9459  -25.3133   20.2542 C   0  0  0  0  0  0  0  0  0  0  0  0
  -30.7263  -16.8199   22.5017 C   0  0  0  0  0  0  0  0  0  0  0  0
  -33.5924  -18.5114   23.2576 C   0  0  0  0  0  0  0  0  0  0  0  0
  -21.1268  -29.2022   21.4718 C   0  0  0  0  0  0  0  0  0  0  0  0
  -25.7993  -12.8249   23.4353 C   0  0  0  0  0  0  0  0  0  0  0  0
  -29.4098  -17.5083   19.1244 C   0  0  0  0  0  0  0  0  0  0  0  0
  -29.9058  -19.0326   21.6094 C   0  0  0  0  0  0  0  0  0  0  0  0
  -26.5881  -14.0677   23.8396 C   0  0  0  0  0  0  0  0  0  0  0  0
  -18.2945  -27.9587   23.2350 C   0  0  0  0  0  0  0  0  0  0  0  0
  -25.9913  -15.3130   23.1916 C   0  0  0  0  0  0  0  0  0  0  0  0
  -18.6872  -26.5212   23.5840 C   0  0  0  0  0  0  0  0  0  0  0  0
  -18.8173  -28.3714   21.8602 C   0  0  0  0  0  0  0  0  0  0  0  0
  -20.6502  -26.7318   22.0063 C   0  0  0  0  0  0  0  0  0  0  0  0
  -26.0575  -15.2247   21.6622 C   0  0  1  0  0  0  0  0  0  0  0  0
  -29.2823  -16.8634   20.5011 C   0  0  1  0  0  0  0  0  0  0  0  0
  -20.2014  -26.2925   23.4096 C   0  0  2  0  0  0  0  0  0  0  0  0
  -30.6317  -26.0302   21.9980 C   0  0  0  0  0  0  0  0  0  0  0  0
  -35.7311  -18.2842   24.5504 C   0  0  0  0  0  0  0  0  0  0  0  0
  -29.2036  -17.3047   25.1010 C   0  0  0  0  0  0  0  0  0  0  0  0
  -31.3641  -18.0053   26.1545 C   0  0  0  0  0  0  0  0  0  0  0  0
  -31.0968  -15.6813   25.2882 C   0  0  0  0  0  0  0  0  0  0  0  0
  -35.2361  -18.7976   20.8131 C   0  0  0  0  0  0  0  0  0  0  0  0
  -27.4998  -27.9679   21.2692 C   0  0  0  0  0  0  0  0  0  0  0  0
  -29.1039  -23.8127   20.4140 C   0  0  0  0  0  0  0  0  0  1  0  0
  -29.2022  -26.1540   21.4942 C   0  0  1  0  0  0  0  0  0  0  0  0
  -31.3207  -17.5958   23.6522 C   0  0  1  0  0  0  0  0  0  0  0  0
  -35.0514  -18.0958   23.2031 C   0  0  2  0  0  0  0  0  0  0  0  0
  -30.7367  -17.1598   25.0256 C   0  0  0  0  0  0  0  0  0  0  0  0
  -23.3324  -31.0302   20.9750 N   0  0  0  0  0  0  0  0  0  0  0  0
  -20.6302  -23.9704   22.6989 N   0  0  0  0  0  0  0  0  0  0  0  0
  -20.5912  -24.8569   23.7082 N   0  0  0  0  0  0  0  0  0  0  0  0
  -30.0494  -17.5696   21.5292 N   0  0  0  0  0  0  0  0  0  0  0  0
  -20.2590  -28.1303   21.7696 N   0  0  0  0  0  0  0  0  0  0  0  0
  -20.9340  -25.0791   26.0413 N   0  0  0  0  0  0  0  0  0  0  0  0
  -21.8325  -20.7215   25.2666 N   0  0  0  0  0  0  0  0  0  0  0  0
  -22.4782  -28.8594   21.4443 N   0  0  0  0  0  0  0  0  0  0  0  0
  -27.3966  -15.5149   21.1966 N   0  0  0  0  0  0  0  0  0  0  0  0
  -32.7676  -17.4439   23.5427 N   0  0  0  0  0  0  0  0  0  0  0  0
  -35.7836  -18.9070   22.1898 N   0  3  0  0  0  0  0  0  0  0  0  0
  -28.9340  -27.5853   21.1885 N   0  3  0  0  0  0  0  0  0  0  0  0
  -28.2666  -30.1943   20.7983 O   0  0  0  0  0  0  0  0  0  0  0  0
  -21.7079  -22.3371   26.8893 O   0  0  0  0  0  0  0  0  0  0  0  0
  -27.2311  -17.8372   21.1486 O   0  0  0  0  0  0  0  0  0  0  0  0
  -28.6119  -25.8160   19.1814 O   0  0  0  0  0  0  0  0  0  0  0  0
  -30.8638  -15.5947   22.4635 O   0  0  0  0  0  0  0  0  0  0  0  0
  -33.2218  -19.6681   23.0698 O   0  0  0  0  0  0  0  0  0  0  0  0
  -20.7046  -30.3460   21.2838 O   0  0  0  0  0  0  0  0  0  0  0  0
  -21.6110  -18.1394   20.3352 O   0  0  0  0  0  0  0  0  0  0  0  0
  -28.8491  -23.1452   19.1787 O   0  0  0  0  0  0  0  0  0  1  0  0
  -19.4713  -13.4996   22.4084 F   0  0  0  0  0  0  0  0  0  0  0  0
  -19.6794  -16.7263   18.9514 F   0  0  0  0  0  0  0  0  0  0  0  0
  -26.7370  -32.1891   20.5249 F   0  0  0  0  0  0  0  0  0  0  0  0
  1  2  1  0  0  0  0
  1  5  2  0  0  0  0
  2  6  2  0  0  0  0
  3  8  2  0  0  0  0
  3 17  1  0  0  0  0
  4  9  1  0  0  0  0
  4 17  2  0  0  0  0
  5 20  1  0  0  0  0
  6 22  1  0  0  0  0
  7 10  2  0  0  0  0
  7 21  1  0  0  0  0
  8 24  1  0  0  0  0
  9 24  2  0  0  0  0
 10 25  1  0  0  0  0
 11 12  2  0  0  0  0
 11 26  1  0  0  0  0
 12 27  1  0  0  0  0
 13 18  1  0  0  0  0
 13 31  2  0  0  0  0
 14 23  1  0  0  0  0
 14 25  2  0  0  0  0
 15 27  2  0  0  0  0
 15 28  1  0  0  0  0
 16 29  1  0  0  0  0
 16 64  2  0  0  0  0
 17 30  1  0  0  0  0
 18 29  2  0  0  0  0
 18 33  1  0  0  0  0
 19 30  1  0  0  0  0
 19 32  2  0  0  0  0
 19 34  1  0  0  0  0
 20 22  2  0  0  0  0
 20 40  1  0  0  0  0
 21 23  2  0  0  0  0
 21 41  1  0  0  0  0
 22 49  1  0  0  0  0
 23 42  1  0  0  0  0
 24 83  1  0  0  0  0
 25 84  1  0  0  0  0
 26 28  2  0  0  0  0
 26 83  1  0  0  0  0
 27 85  1  0  0  0  0
 28 86  1  0  0  0  0
 29 87  1  0  0  0  0
 30 65  2  0  0  0  0
 31 64  1  0  0  0  0
 31 71  1  0  0  0  0
 32 66  1  0  0  0  0
 32 69  1  0  0  0  0
 33 58  1  0  0  0  0
 33 76  2  0  0  0  0
 34 70  1  0  0  0  0
 34 77  2  0  0  0  0
 35 50  1  0  0  0  0
 35 72  1  0  0  0  0
 35 78  2  0  0  0  0
 36 59  1  0  0  0  0
 36 60  1  0  0  0  0
 36 79  2  0  0  0  0
 37 61  1  0  0  0  0
 37 67  1  0  0  0  0
 37 80  2  0  0  0  0
 38 62  1  0  0  0  0
 38 73  1  0  0  0  0
 38 81  2  0  0  0  0
 39 68  1  0  0  0  0
 39 71  1  0  0  0  0
 39 82  2  0  0  0  0
 40 43  1  0  0  0  0
 41 50  1  0  0  0  0
 42 67  1  0  0  0  0
 43 45  1  0  0  0  0
 44 46  1  0  0  0  0
 44 47  1  0  0  0  0
 45 49  1  0  0  0  0
 46 51  1  0  0  0  0
 47 68  1  0  0  0  0
 48 51  1  0  0  0  0
 48 68  1  0  0  0  0
 49 72  1  0  0  0  0
 50 67  1  0  0  0  0
 51 66  1  0  0  0  0
 52 60  1  0  0  0  0
 53 62  1  0  0  0  0
 54 63  1  0  0  0  0
 55 63  1  0  0  0  0
 56 63  1  0  0  0  0
 57 74  1  0  0  0  0
 58 75  1  0  0  0  0
 59 84  1  0  0  0  0
 60 75  1  0  0  0  0
 61 63  1  0  0  0  0
 61 73  1  0  0  0  0
 62 74  1  0  0  0  0
 65 66  1  0  0  0  0
M  CHG  2  74   1  75   1
M  ISO  4  39 100  59 101  71 100  84 101
M  END
> <Batch ID>
0170

> <Smiles>
CNC(C)C(=O)NC(C(=O)N1Cc2cc([101O:1][101CH2:1]C(=O)C(C)NCC(=O)c3cc([100NH:0][100C:0](=O)N4CCCC(n5nc(-c6ccc(Oc7ccc(F)cc7F)cc6)c(C(N)=O)c5N)C4)ncc3F)ccc2CC1C(=O)NC1CCCc2ccccc21)C(C)(C)C

> <Shape>
0.220

> <Color>
0.071

> <Negative vol penalty>
0.000

$$$$

  -OEChem-04052304203D

 85 93  0     1  0  0  0  0  0999 V2000
  -26.3225  -34.8708   21.1113 C   0  0  0  0  0  0  0  0  0  0  0  0
  -26.6939  -33.5302   21.0960 C   0  0  0  0  0  0  0  0  0  0  0  0
  -22.8788  -10.2320   19.9557 C   0  0  0  0  0  0  0  0  0  0  0  0
  -23.9471   -9.6441   22.0414 C   0  0  0  0  0  0  0  0  0  0  0  0
  -25.1304  -35.2557   21.7234 C   0  0  0  0  0  0  0  0  0  0  0  0
  -25.8739  -32.5738   21.6937 C   0  0  0  0  0  0  0  0  0  0  0  0
  -24.9722  -26.8116   19.8255 C   0  0  0  0  0  0  0  0  0  0  0  0
  -22.0682   -9.1009   20.0520 C   0  0  0  0  0  0  0  0  0  0  0  0
  -23.1365   -8.5130   22.1378 C   0  0  0  0  0  0  0  0  0  0  0  0
  -25.5195  -25.5964   20.2346 C   0  0  0  0  0  0  0  0  0  0  0  0
  -19.9612   -7.7964   23.0459 C   0  0  0  0  0  0  0  0  0  0  0  0
  -19.3741   -7.5251   24.2817 C   0  0  0  0  0  0  0  0  0  0  0  0
  -23.6202  -25.2334   21.6770 C   0  0  0  0  0  0  0  0  0  0  0  0
  -32.1386  -17.9099   20.6426 C   0  0  0  0  0  0  0  0  0  0  0  0
  -30.7682  -19.8760   20.3369 C   0  0  0  0  0  0  0  0  0  0  0  0
  -20.5113   -5.3947   24.3543 C   0  0  0  0  0  0  0  0  0  0  0  0
  -23.8183  -10.5035   20.9503 C   0  0  0  0  0  0  0  0  0  0  0  0
  -24.3844  -12.9581   21.3533 C   0  0  0  0  0  0  0  0  0  0  0  0
  -24.2906  -34.3023   22.3205 C   0  0  0  0  0  0  0  0  0  0  0  0
  -23.7479  -27.2528   20.3481 C   0  0  0  0  0  0  0  0  0  0  0  0
  -24.6701  -32.9465   22.3156 C   0  0  0  0  0  0  0  0  0  0  0  0
  -23.0583  -26.4534   21.2709 C   0  0  0  0  0  0  0  0  0  0  0  0
  -31.2150  -17.4087   21.5599 C   0  0  0  0  0  0  0  0  0  0  0  0
  -29.8445  -19.3748   21.2541 C   0  0  0  0  0  0  0  0  0  0  0  0
  -22.1970   -8.2415   21.1431 C   0  0  0  0  0  0  0  0  0  0  0  0
  -24.8450  -24.8084   21.1627 C   0  0  0  0  0  0  0  0  0  0  0  0
  -20.8233   -6.8668   22.4642 C   0  0  0  0  0  0  0  0  0  0  0  0
  -19.6491   -6.3243   24.9360 C   0  0  0  0  0  0  0  0  0  0  0  0
  -31.9152  -19.1436   20.0312 C   0  0  0  0  0  0  0  0  0  0  0  0
  -21.0984   -5.6660   23.1184 C   0  0  0  0  0  0  0  0  0  0  0  0
  -30.0680  -18.1411   21.8656 C   0  0  0  0  0  0  0  0  0  0  0  0
  -24.6564  -11.6714   20.8511 C   0  0  0  0  0  0  0  0  0  0  0  0
  -25.4832  -13.7033   21.0015 C   0  0  0  0  0  0  0  0  0  0  0  0
  -23.2407  -13.4368   22.0735 C   0  0  0  0  0  0  0  0  0  0  0  0
  -22.8144  -29.7613   22.0625 C   0  0  0  0  0  0  0  0  0  0  0  0
  -27.0785  -21.8968   21.5204 C   0  0  0  0  0  0  0  0  0  0  0  0
  -19.8594  -28.5340   21.5293 C   0  0  0  0  0  0  0  0  0  0  0  0
  -17.9441  -25.8058   20.7978 C   0  0  0  0  0  0  0  0  0  0  0  0
  -31.0128  -14.3056   20.5474 C   0  0  0  0  0  0  0  0  0  0  0  0
  -23.0350  -34.7722   23.0114 C   0  0  0  0  0  0  0  0  0  0  0  0
  -23.1580  -28.5535   19.8764 C   0  0  0  0  0  0  0  0  0  0  0  0
  -21.7311  -26.8723   21.8468 C   0  0  0  0  0  0  0  0  0  0  0  0
  -22.0391  -33.6503   23.2942 C   0  0  0  0  0  0  0  0  0  0  0  0
  -29.3278  -12.6352   17.8928 C   0  0  0  0  0  0  0  0  0  0  0  0
  -22.7509  -32.4448   23.9001 C   0  0  0  0  0  0  0  0  0  0  0  0
  -27.9428  -12.3364   18.4693 C   0  0  0  0  0  0  0  0  0  0  0  0
  -30.4200  -12.5055   18.9521 C   0  0  0  0  0  0  0  0  0  0  0  0
  -28.8097  -13.0010   20.7508 C   0  0  0  0  0  0  0  0  0  0  0  0
  -23.7951  -31.8764   22.9316 C   0  0  1  0  0  0  0  0  0  0  0  0
  -22.1545  -29.1463   20.8608 C   0  0  1  0  0  0  0  0  0  0  0  0
  -27.6690  -13.1734   19.7333 C   0  0  2  0  0  0  0  0  0  0  0  0
  -15.5571  -25.1065   20.4657 C   0  0  0  0  0  0  0  0  0  0  0  0
  -19.4188  -28.6130   24.5475 C   0  0  0  0  0  0  0  0  0  0  0  0
  -17.4764  -27.0647   24.2343 C   0  0  0  0  0  0  0  0  0  0  0  0
  -17.4466  -29.3283   23.1863 C   0  0  0  0  0  0  0  0  0  0  0  0
  -18.4566  -24.9675   18.0061 C   0  0  0  0  0  0  0  0  0  0  0  0
  -31.4589  -16.0903   22.2132 C   0  0  0  0  0  0  0  0  0  0  0  0
  -28.3943  -21.3856   20.9730 C   0  0  0  0  0  0  0  0  0  0  0  0
  -26.6303  -23.2463   20.9940 C   0  0  0  0  0  0  0  0  0  1  0  0
  -18.9684  -27.5445   22.2407 C   0  0  1  0  0  0  0  0  0  0  0  0
  -16.8272  -25.5999   19.7905 C   0  0  2  0  0  0  0  0  0  0  0  0
  -18.3535  -28.1304   23.5430 C   0  0  0  0  0  0  0  0  0  0  0  0
  -25.8354  -11.5999   20.2276 N   0  0  0  0  0  0  0  0  0  0  0  0
  -26.3140  -12.8510   20.3356 N   0  0  0  0  0  0  0  0  0  0  0  0
  -21.1986  -28.1553   21.3590 N   0  0  0  0  0  0  0  0  0  0  0  0
  -30.1007  -13.3249   20.1237 N   0  0  0  0  0  0  0  0  0  0  0  0
  -25.8100  -14.9980   21.1999 N   0  0  0  0  0  0  0  0  0  0  0  0
  -22.2019  -12.5380   22.3514 N   0  0  0  0  0  0  0  0  0  0  0  0
  -28.7043  -20.1054   21.5563 N   0  0  0  0  0  0  0  0  0  0  0  0
  -23.1527  -31.0912   21.8996 N   0  0  0  0  0  0  0  0  0  0  0  0
  -17.9823  -27.1044   21.2597 N   0  0  0  0  0  0  0  0  0  0  0  0
  -30.6297  -15.0419   21.6618 N   0  0  0  0  0  0  0  0  0  0  0  0
  -17.2334  -24.5986   18.7642 N   0  3  0  0  0  0  0  0  0  0  0  0
  -23.1357  -14.6304   22.4448 O   0  0  0  0  0  0  0  0  0  0  0  0
  -23.0013  -29.0802   23.0639 O   0  0  0  0  0  0  0  0  0  0  0  0
  -26.4090  -21.2677   22.3387 O   0  0  0  0  0  0  0  0  0  0  0  0
  -19.3830  -29.6005   21.1328 O   0  0  0  0  0  0  0  0  0  0  0  0
  -18.7041  -24.9038   21.1433 O   0  0  0  0  0  0  0  0  0  0  0  0
  -32.0863  -14.5134   19.9718 O   0  0  0  0  0  0  0  0  0  0  0  0
  -21.4060   -7.1379   21.2376 O   0  0  0  0  0  0  0  0  0  0  0  0
  -25.3773  -23.6222   21.5642 O   0  0  0  0  0  0  0  0  0  1  0  0
  -19.0865   -6.0646   26.1235 F   0  0  0  0  0  0  0  0  0  0  0  0
  -32.8014  -19.6243   19.1492 F   0  0  0  0  0  0  0  0  0  0  0  0
  -21.9267   -4.7695   22.5652 F   0  0  0  0  0  0  0  0  0  0  0  0
  -29.1806  -17.6576   22.7480 F   0  0  0  0  0  0  0  0  0  0  0  0
  1  2  1  0  0  0  0
  1  5  2  0  0  0  0
  2  6  2  0  0  0  0
  3  8  2  0  0  0  0
  3 17  1  0  0  0  0
  4  9  1  0  0  0  0
  4 17  2  0  0  0  0
  5 19  1  0  0  0  0
  6 21  1  0  0  0  0
  7 10  2  0  0  0  0
  7 20  1  0  0  0  0
  8 25  1  0  0  0  0
  9 25  2  0  0  0  0
 10 26  1  0  0  0  0
 11 12  2  0  0  0  0
 11 27  1  0  0  0  0
 12 28  1  0  0  0  0
 13 22  1  0  0  0  0
 13 26  2  0  0  0  0
 14 23  2  0  0  0  0
 14 29  1  0  0  0  0
 15 24  1  0  0  0  0
 15 29  2  0  0  0  0
 16 28  2  0  0  0  0
 16 30  1  0  0  0  0
 17 32  1  0  0  0  0
 18 32  1  0  0  0  0
 18 33  2  0  0  0  0
 18 34  1  0  0  0  0
 19 21  2  0  0  0  0
 19 40  1  0  0  0  0
 20 22  2  0  0  0  0
 20 41  1  0  0  0  0
 21 49  1  0  0  0  0
 22 42  1  0  0  0  0
 23 31  1  0  0  0  0
 23 57  1  0  0  0  0
 24 31  2  0  0  0  0
 24 69  1  0  0  0  0
 25 80  1  0  0  0  0
 26 81  1  0  0  0  0
 27 30  2  0  0  0  0
 27 80  1  0  0  0  0
 28 82  1  0  0  0  0
 29 83  1  0  0  0  0
 30 84  1  0  0  0  0
 31 85  1  0  0  0  0
 32 63  2  0  0  0  0
 33 64  1  0  0  0  0
 33 67  1  0  0  0  0
 34 68  1  0  0  0  0
 34 74  2  0  0  0  0
 35 50  1  0  0  0  0
 35 70  1  0  0  0  0
 35 75  2  0  0  0  0
 36 58  1  0  0  0  0
 36 59  1  0  0  0  0
 36 76  2  0  0  0  0
 37 60  1  0  0  0  0
 37 65  1  0  0  0  0
 37 77  2  0  0  0  0
 38 61  1  0  0  0  0
 38 71  1  0  0  0  0
 38 78  2  0  0  0  0
 39 66  1  0  0  0  0
 39 72  1  0  0  0  0
 39 79  2  0  0  0  0
 40 43  1  0  0  0  0
 41 50  1  0  0  0  0
 42 65  1  0  0  0  0
 43 45  1  0  0  0  0
 44 46  1  0  0  0  0
 44 47  1  0  0  0  0
 45 49  1  0  0  0  0
 46 51  1  0  0  0  0
 47 66  1  0  0  0  0
 48 51  1  0  0  0  0
 48 66  1  0  0  0  0
 49 70  1  0  0  0  0
 50 65  1  0  0  0  0
 51 64  1  0  0  0  0
 52 61  1  0  0  0  0
 53 62  1  0  0  0  0
 54 62  1  0  0  0  0
 55 62  1  0  0  0  0
 56 73  1  0  0  0  0
 57 72  1  0  0  0  0
 58 69  1  0  0  0  0
 59 81  1  0  0  0  0
 60 62  1  0  0  0  0
 60 71  1  0  0  0  0
 61 73  1  0  0  0  0
 63 64  1  0  0  0  0
M  CHG  1  73   1
M  ISO  4  39 100  59 101  72 100  81 101
M  END
> <Batch ID>
0170

> <Smiles>
CNC(C)C(=O)NC(C(=O)N1Cc2cc([101O:1][101CH2:1]C(=O)CNc3cc(F)cc(C[100NH:0][100C:0](=O)N4CCCC(n5nc(-c6ccc(Oc7ccc(F)cc7F)cc6)c(C(N)=O)c5N)C4)c3F)ccc2CC1C(=O)NC1CCCc2ccccc21)C(C)(C)C

> <Shape>
0.330

> <Color>
0.165

> <Negative vol penalty>
0.000

$$$$

  -OEChem-04052304203D

 88 96  0     1  0  0  0  0  0999 V2000
  -31.0245  -25.9917   17.1795 C   0  0  0  0  0  0  0  0  0  0  0  0
  -29.6638  -25.7623   17.3564 C   0  0  0  0  0  0  0  0  0  0  0  0
  -25.3488  -13.9595   20.6358 C   0  0  0  0  0  0  0  0  0  0  0  0
  -23.4319  -15.2246   21.3854 C   0  0  0  0  0  0  0  0  0  0  0  0
  -31.7597  -26.6239   18.1813 C   0  0  0  0  0  0  0  0  0  0  0  0
  -29.0377  -26.1642   18.5358 C   0  0  0  0  0  0  0  0  0  0  0  0
  -23.3120  -28.2524   19.1376 C   0  0  0  0  0  0  0  0  0  0  0  0
  -24.8403  -12.8199   21.2590 C   0  0  0  0  0  0  0  0  0  0  0  0
  -22.9234  -14.0850   22.0085 C   0  0  0  0  0  0  0  0  0  0  0  0
  -22.1250  -27.6354   19.5299 C   0  0  0  0  0  0  0  0  0  0  0  0
  -22.4839  -10.4781   20.6293 C   0  0  0  0  0  0  0  0  0  0  0  0
  -22.5129   -9.2808   19.9143 C   0  0  0  0  0  0  0  0  0  0  0  0
  -26.2313  -23.6761   24.6297 C   0  0  0  0  0  0  0  0  0  0  0  0
  -22.4598  -28.4361   21.7807 C   0  0  0  0  0  0  0  0  0  0  0  0
  -24.0978  -22.9830   23.7325 C   0  0  0  0  0  0  0  0  0  0  0  0
  -23.8968   -8.2903   21.6292 C   0  0  0  0  0  0  0  0  0  0  0  0
  -24.6446  -15.1619   20.6991 C   0  0  0  0  0  0  0  0  0  0  0  0
  -25.5769  -24.4542   25.5846 C   0  0  0  0  0  0  0  0  0  0  0  0
  -24.9327  -16.7639   18.7348 C   0  0  0  0  0  0  0  0  0  0  0  0
  -31.1404  -27.0424   19.3696 C   0  0  0  0  0  0  0  0  0  0  0  0
  -24.0888  -28.9579   20.0678 C   0  0  0  0  0  0  0  0  0  0  0  0
  -29.7656  -26.8015   19.5550 C   0  0  0  0  0  0  0  0  0  0  0  0
  -23.6550  -29.0633   21.3970 C   0  0  0  0  0  0  0  0  0  0  0  0
  -24.1830  -24.4967   25.6136 C   0  0  0  0  0  0  0  0  0  0  0  0
  -25.4918  -22.9405   23.7036 C   0  0  0  0  0  0  0  0  0  0  0  0
  -23.4434  -23.7611   24.6874 C   0  0  0  0  0  0  0  0  0  0  0  0
  -23.6276  -12.8826   21.9453 C   0  0  0  0  0  0  0  0  0  0  0  0
  -21.7001  -27.7247   20.8523 C   0  0  0  0  0  0  0  0  0  0  0  0
  -23.1614  -10.5816   21.8442 C   0  0  0  0  0  0  0  0  0  0  0  0
  -23.2193   -8.1869   20.4143 C   0  0  0  0  0  0  0  0  0  0  0  0
  -23.8678   -9.4876   22.3442 C   0  0  0  0  0  0  0  0  0  0  0  0
  -25.1696  -16.3396   20.0561 C   0  0  0  0  0  0  0  0  0  0  0  0
  -25.6523  -17.9275   18.6137 C   0  0  0  0  0  0  0  0  0  0  0  0
  -27.2306  -26.1631   26.1848 C   0  0  0  0  0  0  0  0  0  0  0  0
  -26.3804  -25.2105   26.5367 C   0  0  0  0  0  0  0  0  0  0  0  0
  -24.1336  -16.1602   17.7089 C   0  0  0  0  0  0  0  0  0  0  0  0
  -27.0356  -28.6531   21.2198 C   0  0  0  0  0  0  0  0  0  0  0  0
  -19.5399  -25.4728   22.7023 C   0  0  0  0  0  0  0  0  0  0  0  0
  -26.3409  -31.4699   22.6708 C   0  0  0  0  0  0  0  0  0  0  0  0
  -21.1601  -23.1139   23.8450 C   0  0  0  0  0  0  0  0  0  0  0  0
  -23.9600  -33.6115   23.8504 C   0  0  0  0  0  0  0  0  0  0  0  0
  -27.5315  -21.9955   22.5665 C   0  0  0  0  0  0  0  0  0  0  0  0
  -31.9861  -27.6795   20.4436 C   0  0  0  0  0  0  0  0  0  0  0  0
  -25.3531  -29.6404   19.6228 C   0  0  0  0  0  0  0  0  0  0  0  0
  -24.4422  -29.8261   22.4300 C   0  0  0  0  0  0  0  0  0  0  0  0
  -31.1708  -28.4105   21.5072 C   0  0  0  0  0  0  0  0  0  0  0  0
  -29.5560  -20.1118   20.3237 C   0  0  0  0  0  0  0  0  0  0  0  0
  -30.0015  -27.5474   21.9703 C   0  0  0  0  0  0  0  0  0  0  0  0
  -28.6373  -18.9727   19.8756 C   0  0  0  0  0  0  0  0  0  0  0  0
  -29.3364  -20.4734   21.7916 C   0  0  0  0  0  0  0  0  0  0  0  0
  -27.0255  -19.6236   21.7102 C   0  0  0  0  0  0  0  0  0  0  0  0
  -29.0456  -27.2450   20.8100 C   0  0  1  0  0  0  0  0  0  0  0  0
  -26.3275  -29.8989   20.7678 C   0  0  1  0  0  0  0  0  0  0  0  0
  -27.1644  -19.2676   20.2210 C   0  0  2  0  0  0  0  0  0  0  0  0
  -23.4727  -25.3272   26.6389 C   0  0  0  0  0  0  0  0  0  0  0  0
  -23.6991  -35.8169   25.0189 C   0  0  0  0  0  0  0  0  0  0  0  0
  -27.1365  -30.1628   25.3105 C   0  0  0  0  0  0  0  0  0  0  0  0
  -25.9780  -32.0331   26.5056 C   0  0  0  0  0  0  0  0  0  0  0  0
  -27.9311  -32.5176   25.0313 C   0  0  0  0  0  0  0  0  0  0  0  0
  -22.4706  -34.7737   21.5723 C   0  0  0  0  0  0  0  0  0  0  0  0
  -19.3661  -24.9065   24.1040 C   0  0  0  0  0  0  0  0  0  0  0  0
  -20.4649  -26.6689   22.5887 C   0  0  0  0  0  0  0  0  0  1  0  0
  -19.7111  -23.4237   24.2034 C   0  0  0  0  0  0  0  0  0  0  0  0
  -25.7212  -31.8697   23.9880 C   0  0  1  0  0  0  0  0  0  0  0  0
  -23.7757  -35.1081   23.6756 C   0  0  2  0  0  0  0  0  0  0  0  0
  -26.6776  -31.6297   25.1901 C   0  0  0  0  0  0  0  0  0  0  0  0
  -25.9767  -17.1664   20.7263 N   0  0  0  0  0  0  0  0  0  0  0  0
  -26.2533  -18.1217   19.8225 N   0  0  0  0  0  0  0  0  0  0  0  0
  -25.6747  -30.4707   21.9473 N   0  0  0  0  0  0  0  0  0  0  0  0
  -27.9192  -20.7438   22.0435 N   0  0  0  0  0  0  0  0  0  0  0  0
  -25.8232  -18.7932   17.5920 N   0  0  0  0  0  0  0  0  0  0  0  0
  -23.4609  -14.9660   18.0018 N   0  0  0  0  0  0  0  0  0  0  0  0
  -22.0286  -23.7896   24.6978 N   0  0  0  0  0  0  0  0  0  0  0  0
  -26.1556  -22.1495   22.7333 N   0  0  0  0  0  0  0  0  0  0  0  0
  -28.2066  -28.3915   20.5344 N   0  0  0  0  0  0  0  0  0  0  0  0
  -25.2920  -33.2555   23.8333 N   0  0  0  0  0  0  0  0  0  0  0  0
  -22.5211  -35.3910   22.9226 N   0  3  0  0  0  0  0  0  0  0  0  0
  -24.0326  -16.6560   16.5611 O   0  0  0  0  0  0  0  0  0  0  0  0
  -26.5559  -27.9799   22.1245 O   0  0  0  0  0  0  0  0  0  0  0  0
  -18.9745  -24.9963   21.7194 O   0  0  0  0  0  0  0  0  0  0  0  0
  -27.3741  -32.0288   22.2942 O   0  0  0  0  0  0  0  0  0  0  0  0
  -21.4580  -22.3615   22.9234 O   0  0  0  0  0  0  0  0  0  0  0  0
  -23.0168  -32.8363   23.9921 O   0  0  0  0  0  0  0  0  0  0  0  0
  -28.3568  -22.8767   22.8202 O   0  0  0  0  0  0  0  0  0  0  0  0
  -23.1310  -11.7707   22.5533 O   0  0  0  0  0  0  0  0  0  0  0  0
  -20.5422  -27.1229   21.2380 O   0  0  0  0  0  0  0  0  0  1  0  0
  -23.2457   -7.0367   19.7283 F   0  0  0  0  0  0  0  0  0  0  0  0
  -24.5196   -9.5806   23.5113 F   0  0  0  0  0  0  0  0  0  0  0  0
  1  2  1  0  0  0  0
  1  5  2  0  0  0  0
  2  6  2  0  0  0  0
  3  8  2  0  0  0  0
  3 17  1  0  0  0  0
  4  9  1  0  0  0  0
  4 17  2  0  0  0  0
  5 20  1  0  0  0  0
  6 22  1  0  0  0  0
  7 10  2  0  0  0  0
  7 21  1  0  0  0  0
  8 27  1  0  0  0  0
  9 27  2  0  0  0  0
 10 28  1  0  0  0  0
 11 12  2  0  0  0  0
 11 29  1  0  0  0  0
 12 30  1  0  0  0  0
 13 18  1  0  0  0  0
 13 25  2  0  0  0  0
 14 23  1  0  0  0  0
 14 28  2  0  0  0  0
 15 25  1  0  0  0  0
 15 26  2  0  0  0  0
 16 30  2  0  0  0  0
 16 31  1  0  0  0  0
 17 32  1  0  0  0  0
 18 24  2  0  0  0  0
 18 35  1  0  0  0  0
 19 32  1  0  0  0  0
 19 33  2  0  0  0  0
 19 36  1  0  0  0  0
 20 22  2  0  0  0  0
 20 43  1  0  0  0  0
 21 23  2  0  0  0  0
 21 44  1  0  0  0  0
 22 52  1  0  0  0  0
 23 45  1  0  0  0  0
 24 26  1  0  0  0  0
 24 55  1  0  0  0  0
 25 74  1  0  0  0  0
 26 73  1  0  0  0  0
 27 85  1  0  0  0  0
 28 86  1  0  0  0  0
 29 31  2  0  0  0  0
 29 85  1  0  0  0  0
 30 87  1  0  0  0  0
 31 88  1  0  0  0  0
 32 67  2  0  0  0  0
 33 68  1  0  0  0  0
 33 71  1  0  0  0  0
 34 35  2  0  0  0  0
 36 72  1  0  0  0  0
 36 78  2  0  0  0  0
 37 53  1  0  0  0  0
 37 75  1  0  0  0  0
 37 79  2  0  0  0  0
 38 61  1  0  0  0  0
 38 62  1  0  0  0  0
 38 80  2  0  0  0  0
 39 64  1  0  0  0  0
 39 69  1  0  0  0  0
 39 81  2  0  0  0  0
 40 63  1  0  0  0  0
 40 73  1  0  0  0  0
 40 82  2  0  0  0  0
 41 65  1  0  0  0  0
 41 76  1  0  0  0  0
 41 83  2  0  0  0  0
 42 70  1  0  0  0  0
 42 74  1  0  0  0  0
 42 84  2  0  0  0  0
 43 46  1  0  0  0  0
 44 53  1  0  0  0  0
 45 69  1  0  0  0  0
 46 48  1  0  0  0  0
 47 49  1  0  0  0  0
 47 50  1  0  0  0  0
 48 52  1  0  0  0  0
 49 54  1  0  0  0  0
 50 70  1  0  0  0  0
 51 54  1  0  0  0  0
 51 70  1  0  0  0  0
 52 75  1  0  0  0  0
 53 69  1  0  0  0  0
 54 68  1  0  0  0  0
 56 65  1  0  0  0  0
 57 66  1  0  0  0  0
 58 66  1  0  0  0  0
 59 66  1  0  0  0  0
 60 77  1  0  0  0  0
 61 63  1  0  0  0  0
 62 86  1  0  0  0  0
 64 66  1  0  0  0  0
 64 76  1  0  0  0  0
 65 77  1  0  0  0  0
 67 68  1  0  0  0  0
M  CHG  1  77   1
M  ISO  4  42 100  62 101  74 100  86 101
M  END
> <Batch ID>
0170

> <Smiles>
C=Cc1cc([100NH:0][100C:0](=O)N2CCCC(n3nc(-c4ccc(Oc5ccc(F)cc5F)cc4)c(C(N)=O)c3N)C2)cc(NC(=O)CCC(=O)[101CH2:1][101O:1]c2ccc3c(c2)CN(C(=O)C(NC(=O)C(C)NC)C(C)(C)C)C(C(=O)NC2CCCc4ccccc42)C3)c1C

> <Shape>
0.284

> <Color>
0.067

> <Negative vol penalty>
0.000

$$$$

  -OEChem-04052304203D

 86 94  0     1  0  0  0  0  0999 V2000
  -26.9960  -35.3800   24.1367 C   0  0  0  0  0  0  0  0  0  0  0  0
  -27.3948  -34.0956   23.7806 C   0  0  0  0  0  0  0  0  0  0  0  0
  -21.6079   -9.8380   22.1887 C   0  0  0  0  0  0  0  0  0  0  0  0
  -23.5597   -9.6843   20.7731 C   0  0  0  0  0  0  0  0  0  0  0  0
  -25.6920  -35.6075   24.5743 C   0  0  0  0  0  0  0  0  0  0  0  0
  -26.4900  -33.0378   23.8630 C   0  0  0  0  0  0  0  0  0  0  0  0
  -26.6269  -30.0418   19.7826 C   0  0  0  0  0  0  0  0  0  0  0  0
  -21.4360   -8.4565   22.1018 C   0  0  0  0  0  0  0  0  0  0  0  0
  -23.3879   -8.3027   20.6862 C   0  0  0  0  0  0  0  0  0  0  0  0
  -27.6765  -29.1279   19.6986 C   0  0  0  0  0  0  0  0  0  0  0  0
  -22.7834   -5.6862   23.4957 C   0  0  0  0  0  0  0  0  0  0  0  0
  -22.5034   -4.9925   24.6730 C   0  0  0  0  0  0  0  0  0  0  0  0
  -26.2082  -27.3791   20.4762 C   0  0  0  0  0  0  0  0  0  0  0  0
  -27.9235  -19.5550   19.1827 C   0  0  0  0  0  0  0  0  0  0  0  0
  -25.6316  -19.6197   17.5934 C   0  0  0  0  0  0  0  0  0  0  0  0
  -20.4148   -4.2305   23.7273 C   0  0  0  0  0  0  0  0  0  0  0  0
  -22.6697  -10.4519   21.5243 C   0  0  0  0  0  0  0  0  0  0  0  0
  -23.5989  -12.5840   22.5724 C   0  0  0  0  0  0  0  0  0  0  0  0
  -24.7679  -34.5537   24.6530 C   0  0  0  0  0  0  0  0  0  0  0  0
  -25.3607  -29.6327   20.2252 C   0  0  0  0  0  0  0  0  0  0  0  0
  -25.1728  -33.2513   24.3034 C   0  0  0  0  0  0  0  0  0  0  0  0
  -25.1435  -28.2891   20.5625 C   0  0  0  0  0  0  0  0  0  0  0  0
  -27.8856  -20.3625   18.0460 C   0  0  0  0  0  0  0  0  0  0  0  0
  -25.6695  -18.8122   18.7301 C   0  0  0  0  0  0  0  0  0  0  0  0
  -22.3260   -7.6889   21.3506 C   0  0  0  0  0  0  0  0  0  0  0  0
  -27.4680  -27.7970   20.0481 C   0  0  0  0  0  0  0  0  0  0  0  0
  -21.8790   -5.6522   22.4342 C   0  0  0  0  0  0  0  0  0  0  0  0
  -21.3192   -4.2646   24.7888 C   0  0  0  0  0  0  0  0  0  0  0  0
  -26.8154  -18.7798   19.5247 C   0  0  0  0  0  0  0  0  0  0  0  0
  -26.7396  -20.3949   17.2514 C   0  0  0  0  0  0  0  0  0  0  0  0
  -20.6948   -4.9243   22.5500 C   0  0  0  0  0  0  0  0  0  0  0  0
  -22.8475  -11.8790   21.6132 C   0  0  0  0  0  0  0  0  0  0  0  0
  -23.4503  -13.9038   22.2227 C   0  0  0  0  0  0  0  0  0  0  0  0
  -28.3409  -25.8265   19.1393 C   0  0  0  0  0  0  0  0  0  1  0  0
  -24.3631  -12.0898   23.6804 C   0  0  0  0  0  0  0  0  0  0  0  0
  -28.8868  -24.6105   19.2968 C   0  0  0  0  0  0  0  0  0  0  0  0
  -28.5912  -23.5688   18.2617 C   0  0  0  0  0  0  0  0  0  0  0  0
  -23.4917  -30.3875   22.6829 C   0  0  0  0  0  0  0  0  0  0  0  0
  -21.3694  -28.4668   21.1568 C   0  0  0  0  0  0  0  0  0  0  0  0
  -20.8352  -25.9007   18.9712 C   0  0  0  0  0  0  0  0  0  0  0  0
  -23.3285  -17.9443   18.3936 C   0  0  0  0  0  0  0  0  0  0  0  0
  -23.3830  -34.8402   25.1769 C   0  0  0  0  0  0  0  0  0  0  0  0
  -24.2320  -30.6251   20.2847 C   0  0  0  0  0  0  0  0  0  0  0  0
  -23.7977  -27.7950   21.0241 C   0  0  0  0  0  0  0  0  0  0  0  0
  -22.3775  -33.7309   24.8789 C   0  0  0  0  0  0  0  0  0  0  0  0
  -20.3257  -16.0996   18.9006 C   0  0  0  0  0  0  0  0  0  0  0  0
  -22.9732  -32.3667   25.2120 C   0  0  0  0  0  0  0  0  0  0  0  0
  -20.7759  -14.8951   19.7304 C   0  0  0  0  0  0  0  0  0  0  0  0
  -21.3762  -16.5003   17.8663 C   0  0  0  0  0  0  0  0  0  0  0  0
  -23.1743  -15.5185   19.2345 C   0  0  0  0  0  0  0  0  0  0  0  0
  -24.2132  -32.0823   24.3557 C   0  0  1  0  0  0  0  0  0  0  0  0
  -23.1179  -30.2063   21.2390 C   0  0  1  0  0  0  0  0  0  0  0  0
  -22.1766  -15.1182   20.3336 C   0  0  2  0  0  0  0  0  0  0  0  0
  -18.9956  -24.5297   17.9546 C   0  0  0  0  0  0  0  0  0  0  0  0
  -21.0843  -26.9166   23.7694 C   0  0  0  0  0  0  0  0  0  0  0  0
  -20.0208  -25.0593   22.4702 C   0  0  0  0  0  0  0  0  0  0  0  0
  -18.9373  -27.3049   22.5471 C   0  0  0  0  0  0  0  0  0  0  0  0
  -21.5333  -26.7824   16.2337 C   0  0  0  0  0  0  0  0  0  0  0  0
  -29.0797  -21.1963   17.6811 C   0  0  0  0  0  0  0  0  0  0  0  0
  -21.0467  -26.9924   21.1889 C   0  0  1  0  0  0  0  0  0  0  0  0
  -19.8799  -25.7573   17.8003 C   0  0  2  0  0  0  0  0  0  0  0  0
  -20.2982  -26.5777   22.4871 C   0  0  0  0  0  0  0  0  0  0  0  0
  -22.2646  -12.6844   20.7212 N   0  0  0  0  0  0  0  0  0  0  0  0
  -22.6498  -13.9091   21.1185 N   0  0  0  0  0  0  0  0  0  0  0  0
  -22.7275  -28.8049   21.0717 N   0  0  0  0  0  0  0  0  0  0  0  0
  -22.6762  -16.6987   18.5108 N   0  0  0  0  0  0  0  0  0  0  0  0
  -23.9276  -15.0489   22.7552 N   0  0  0  0  0  0  0  0  0  0  0  0
  -24.4094  -10.7057   23.8958 N   0  0  0  0  0  0  0  0  0  0  0  0
  -24.5423  -18.0259   19.0753 N   0  0  0  0  0  0  0  0  0  0  0  0
  -29.2077  -22.3590   18.5307 N   0  0  0  0  0  0  0  0  0  0  0  0
  -23.8243  -31.6859   23.0193 N   0  0  0  0  0  0  0  0  0  0  0  0
  -20.3138  -26.7082   19.9599 N   0  0  0  0  0  0  0  0  0  0  0  0
  -20.6396  -25.6318   16.5243 N   0  3  0  0  0  0  0  0  0  0  0  0
  -24.9730  -12.8542   24.4661 O   0  0  0  0  0  0  0  0  0  0  0  0
  -27.8762  -23.7965   17.2897 O   0  0  0  0  0  0  0  0  0  0  0  0
  -23.4779  -29.4213   23.4365 O   0  0  0  0  0  0  0  0  0  0  0  0
  -20.4501  -29.2882   21.1983 O   0  0  0  0  0  0  0  0  0  0  0  0
  -21.9326  -25.3484   19.0071 O   0  0  0  0  0  0  0  0  0  0  0  0
  -22.8330  -18.8793   17.7594 O   0  0  0  0  0  0  0  0  0  0  0  0
  -29.7034  -24.2565   20.3483 O   0  0  0  0  0  0  0  0  0  0  0  0
  -22.1587   -6.3408   21.2658 O   0  0  0  0  0  0  0  0  0  0  0  0
  -28.4909  -26.9031   19.9677 O   0  0  0  0  0  0  0  0  0  1  0  0
  -21.0512   -3.5972   25.9188 F   0  0  0  0  0  0  0  0  0  0  0  0
  -26.8629  -18.0072   20.6195 F   0  0  0  0  0  0  0  0  0  0  0  0
  -26.6940  -21.1676   16.1573 F   0  0  0  0  0  0  0  0  0  0  0  0
  -19.8226   -4.8869   21.5332 F   0  0  0  0  0  0  0  0  0  0  0  0
  1  2  1  0  0  0  0
  1  5  2  0  0  0  0
  2  6  2  0  0  0  0
  3  8  2  0  0  0  0
  3 17  1  0  0  0  0
  4  9  1  0  0  0  0
  4 17  2  0  0  0  0
  5 19  1  0  0  0  0
  6 21  1  0  0  0  0
  7 10  2  0  0  0  0
  7 20  1  0  0  0  0
  8 25  1  0  0  0  0
  9 25  2  0  0  0  0
 10 26  1  0  0  0  0
 11 12  2  0  0  0  0
 11 27  1  0  0  0  0
 12 28  1  0  0  0  0
 13 22  1  0  0  0  0
 13 26  2  0  0  0  0
 14 23  1  0  0  0  0
 14 29  2  0  0  0  0
 15 24  2  0  0  0  0
 15 30  1  0  0  0  0
 16 28  2  0  0  0  0
 16 31  1  0  0  0  0
 17 32  1  0  0  0  0
 18 32  1  0  0  0  0
 18 33  2  0  0  0  0
 18 35  1  0  0  0  0
 19 21  2  0  0  0  0
 19 42  1  0  0  0  0
 20 22  2  0  0  0  0
 20 43  1  0  0  0  0
 21 51  1  0  0  0  0
 22 44  1  0  0  0  0
 23 30  2  0  0  0  0
 23 59  1  0  0  0  0
 24 29  1  0  0  0  0
 24 69  1  0  0  0  0
 25 81  1  0  0  0  0
 26 82  1  0  0  0  0
 27 31  2  0  0  0  0
 27 81  1  0  0  0  0
 28 83  1  0  0  0  0
 29 84  1  0  0  0  0
 30 85  1  0  0  0  0
 31 86  1  0  0  0  0
 32 63  2  0  0  0  0
 33 64  1  0  0  0  0
 33 67  1  0  0  0  0
 34 36  2  0  0  0  0
 34 82  1  0  0  0  0
 35 68  1  0  0  0  0
 35 74  2  0  0  0  0
 36 37  1  0  0  0  0
 36 80  1  0  0  0  0
 37 70  1  0  0  0  0
 37 75  2  0  0  0  0
 38 52  1  0  0  0  0
 38 71  1  0  0  0  0
 38 76  2  0  0  0  0
 39 60  1  0  0  0  0
 39 65  1  0  0  0  0
 39 77  2  0  0  0  0
 40 61  1  0  0  0  0
 40 72  1  0  0  0  0
 40 78  2  0  0  0  0
 41 66  1  0  0  0  0
 41 69  1  0  0  0  0
 41 79  2  0  0  0  0
 42 45  1  0  0  0  0
 43 52  1  0  0  0  0
 44 65  1  0  0  0  0
 45 47  1  0  0  0  0
 46 48  1  0  0  0  0
 46 49  1  0  0  0  0
 47 51  1  0  0  0  0
 48 53  1  0  0  0  0
 49 66  1  0  0  0  0
 50 53  1  0  0  0  0
 50 66  1  0  0  0  0
 51 71  1  0  0  0  0
 52 65  1  0  0  0  0
 53 64  1  0  0  0  0
 54 61  1  0  0  0  0
 55 62  1  0  0  0  0
 56 62  1  0  0  0  0
 57 62  1  0  0  0  0
 58 73  1  0  0  0  0
 59 70  1  0  0  0  0
 60 62  1  0  0  0  0
 60 72  1  0  0  0  0
 61 73  1  0  0  0  0
 63 64  1  0  0  0  0
M  CHG  1  73   1
M  ISO  4  34 101  41 100  69 100  82 101
M  END
> <Batch ID>
0170

> <Smiles>
CNC(C)C(=O)NC(C(=O)N1Cc2cc([101O:1][101CH2:1]C(=O)C(=O)NCc3cc(F)c([100NH:0][100C:0](=O)N4CCCC(n5nc(-c6ccc(Oc7ccc(F)cc7F)cc6)c(C(N)=O)c5N)C4)cc3F)ccc2CC1C(=O)NC1CCCc2ccccc21)C(C)(C)C

> <Shape>
0.271

> <Color>
0.091

> <Negative vol penalty>
0.000

$$$$

  -OEChem-04052304203D

 88 96  0     1  0  0  0  0  0999 V2000
  -32.6130  -31.0931   16.5736 C   0  0  0  0  0  0  0  0  0  0  0  0
  -31.9423  -30.1302   17.3209 C   0  0  0  0  0  0  0  0  0  0  0  0
  -23.7000   -9.7857   21.9303 C   0  0  0  0  0  0  0  0  0  0  0  0
  -24.4259  -11.1241   23.8061 C   0  0  0  0  0  0  0  0  0  0  0  0
  -32.6545  -32.4142   17.0174 C   0  0  0  0  0  0  0  0  0  0  0  0
  -31.3137  -30.4877   18.5131 C   0  0  0  0  0  0  0  0  0  0  0  0
  -26.6821  -28.4855   18.9434 C   0  0  0  0  0  0  0  0  0  0  0  0
  -23.1919   -8.8293   22.8094 C   0  0  0  0  0  0  0  0  0  0  0  0
  -23.9178  -10.1678   24.6852 C   0  0  0  0  0  0  0  0  0  0  0  0
  -26.6004  -27.1432   19.3111 C   0  0  0  0  0  0  0  0  0  0  0  0
  -20.4427   -8.4283   24.7365 C   0  0  0  0  0  0  0  0  0  0  0  0
  -19.1735   -7.9139   24.4719 C   0  0  0  0  0  0  0  0  0  0  0  0
  -26.1243  -27.8008   21.5827 C   0  0  0  0  0  0  0  0  0  0  0  0
  -30.6737  -20.5766   20.3320 C   0  0  0  0  0  0  0  0  0  0  0  0
  -31.1936  -18.2761   19.8083 C   0  0  0  0  0  0  0  0  0  0  0  0
  -20.1098   -5.6936   24.2967 C   0  0  0  0  0  0  0  0  0  0  0  0
  -24.3171  -10.9331   22.4287 C   0  0  0  0  0  0  0  0  0  0  0  0
  -24.1637  -13.0341   20.9900 C   0  0  0  0  0  0  0  0  0  0  0  0
  -32.0178  -32.7899   18.2108 C   0  0  0  0  0  0  0  0  0  0  0  0
  -26.4960  -29.4972   19.8964 C   0  0  0  0  0  0  0  0  0  0  0  0
  -31.3478  -31.8147   18.9740 C   0  0  0  0  0  0  0  0  0  0  0  0
  -26.2017  -29.1552   21.2240 C   0  0  0  0  0  0  0  0  0  0  0  0
  -28.8938  -18.9614   20.0879 C   0  0  0  0  0  0  0  0  0  0  0  0
  -29.3138  -20.2666   20.3438 C   0  0  0  0  0  0  0  0  0  0  0  0
  -29.8337  -17.9661   19.8202 C   0  0  0  0  0  0  0  0  0  0  0  0
  -23.3008   -9.0203   24.1868 C   0  0  0  0  0  0  0  0  0  0  0  0
  -26.3243  -26.8006   20.6316 C   0  0  0  0  0  0  0  0  0  0  0  0
  -21.5455   -7.5753   24.7812 C   0  0  0  0  0  0  0  0  0  0  0  0
  -19.0070   -6.5466   24.2520 C   0  0  0  0  0  0  0  0  0  0  0  0
  -31.6137  -19.5813   20.0642 C   0  0  0  0  0  0  0  0  0  0  0  0
  -21.3790   -6.2080   24.5613 C   0  0  0  0  0  0  0  0  0  0  0  0
  -24.8427  -11.9212   21.5212 C   0  0  0  0  0  0  0  0  0  0  0  0
  -25.0926  -13.6532   20.1898 C   0  0  0  0  0  0  0  0  0  0  0  0
  -27.3469  -24.7046   20.8092 C   0  0  0  0  0  0  0  0  0  1  0  0
  -22.8140  -13.4695   21.2011 C   0  0  0  0  0  0  0  0  0  0  0  0
  -27.3800  -23.4053   21.1290 C   0  0  0  0  0  0  0  0  0  0  0  0
  -28.6399  -22.6288   20.8885 C   0  0  0  0  0  0  0  0  0  0  0  0
  -28.3022  -31.8368   21.0660 C   0  0  0  0  0  0  0  0  0  0  0  0
  -25.5562  -32.6742   22.5763 C   0  0  0  0  0  0  0  0  0  0  0  0
  -22.5092  -31.7250   23.7853 C   0  0  0  0  0  0  0  0  0  0  0  0
  -30.2508  -15.5415   19.2781 C   0  0  0  0  0  0  0  0  0  0  0  0
  -32.1302  -34.2208   18.6741 C   0  0  0  0  0  0  0  0  0  0  0  0
  -26.5610  -30.9406   19.4782 C   0  0  0  0  0  0  0  0  0  0  0  0
  -25.9736  -30.2035   22.2811 C   0  0  0  0  0  0  0  0  0  0  0  0
  -31.1201  -34.5914   19.7571 C   0  0  0  0  0  0  0  0  0  0  0  0
  -29.6443  -12.0962   18.6152 C   0  0  0  0  0  0  0  0  0  0  0  0
  -31.0787  -33.5166   20.8387 C   0  0  0  0  0  0  0  0  0  0  0  0
  -28.2852  -11.8351   19.2685 C   0  0  0  0  0  0  0  0  0  0  0  0
  -30.4882  -13.0727   19.4326 C   0  0  0  0  0  0  0  0  0  0  0  0
  -28.4661  -14.0797   20.4156 C   0  0  0  0  0  0  0  0  0  0  0  0
  -30.6327  -32.1684   20.2599 C   0  0  1  0  0  0  0  0  0  0  0  0
  -26.8629  -31.8855   20.6372 C   0  0  1  0  0  0  0  0  0  0  0  0
  -27.5547  -13.1523   19.5953 C   0  0  2  0  0  0  0  0  0  0  0  0
  -20.5064  -32.6219   25.0025 C   0  0  0  0  0  0  0  0  0  0  0  0
  -27.1272  -32.6261   25.1915 C   0  0  0  0  0  0  0  0  0  0  0  0
  -24.9461  -32.5814   26.4200 C   0  0  0  0  0  0  0  0  0  0  0  0
  -25.5215  -34.5310   24.9740 C   0  0  0  0  0  0  0  0  0  0  0  0
  -20.7080  -31.0977   21.5222 C   0  0  0  0  0  0  0  0  0  0  0  0
  -24.9136  -32.3258   23.8971 C   0  0  1  0  0  0  0  0  0  0  0  0
  -21.1314  -32.3462   23.6438 C   0  0  2  0  0  0  0  0  0  0  0  0
  -27.4339  -18.6287   20.1014 C   0  0  0  0  0  0  0  0  0  0  0  0
  -25.6333  -32.9961   25.1014 C   0  0  0  0  0  0  0  0  0  0  0  0
  -26.1054  -11.8355   21.0942 N   0  0  0  0  0  0  0  0  0  0  0  0
  -26.2272  -12.9025   20.2863 N   0  0  0  0  0  0  0  0  0  0  0  0
  -26.0539  -31.6007   21.8240 N   0  0  0  0  0  0  0  0  0  0  0  0
  -29.7330  -14.2987   19.7002 N   0  0  0  0  0  0  0  0  0  0  0  0
  -25.0414  -14.7611   19.4201 N   0  0  0  0  0  0  0  0  0  0  0  0
  -21.9950  -12.7171   22.0540 N   0  0  0  0  0  0  0  0  0  0  0  0
  -28.3777  -21.2926   20.6185 N   0  0  0  0  0  0  0  0  0  0  0  0
  -29.4299  -16.6333   19.5586 N   0  0  0  0  0  0  0  0  0  0  0  0
  -29.1990  -32.1523   20.0631 N   0  0  0  0  0  0  0  0  0  0  0  0
  -23.5039  -32.6798   23.7711 N   0  0  0  0  0  0  0  0  0  0  0  0
  -20.2274  -31.4346   22.8870 N   0  3  0  0  0  0  0  0  0  0  0  0
  -22.3432  -14.4861   20.6369 O   0  0  0  0  0  0  0  0  0  0  0  0
  -29.7365  -23.1754   20.9403 O   0  0  0  0  0  0  0  0  0  0  0  0
  -28.5785  -31.5368   22.2215 O   0  0  0  0  0  0  0  0  0  0  0  0
  -25.6081  -33.8545   22.2216 O   0  0  0  0  0  0  0  0  0  0  0  0
  -22.6853  -30.5141   23.9008 O   0  0  0  0  0  0  0  0  0  0  0  0
  -31.3294  -15.6276   18.6855 O   0  0  0  0  0  0  0  0  0  0  0  0
  -26.2967  -22.7475   21.6753 O   0  0  0  0  0  0  0  0  0  0  0  0
  -22.8049   -8.0874   25.0449 O   0  0  0  0  0  0  0  0  0  0  0  0
  -26.2446  -25.4912   20.9933 O   0  0  0  0  0  0  0  0  0  1  0  0
  -17.7878   -6.0526   23.9994 F   0  0  0  0  0  0  0  0  0  0  0  0
  -32.9196  -19.8795   20.0526 F   0  0  0  0  0  0  0  0  0  0  0  0
  -22.4345   -5.3834   24.6042 F   0  0  0  0  0  0  0  0  0  0  0  0
  -26.6369  -19.7000   20.3779 F   0  0  0  0  0  0  0  0  0  0  0  0
  -26.9801  -18.1379   18.9130 F   0  0  0  0  0  0  0  0  0  0  0  0
  -27.1250  -17.6854   21.0350 F   0  0  0  0  0  0  0  0  0  0  0  0
  1  2  1  0  0  0  0
  1  5  2  0  0  0  0
  2  6  2  0  0  0  0
  3  8  2  0  0  0  0
  3 17  1  0  0  0  0
  4  9  1  0  0  0  0
  4 17  2  0  0  0  0
  5 19  1  0  0  0  0
  6 21  1  0  0  0  0
  7 10  2  0  0  0  0
  7 20  1  0  0  0  0
  8 26  1  0  0  0  0
  9 26  2  0  0  0  0
 10 27  1  0  0  0  0
 11 12  2  0  0  0  0
 11 28  1  0  0  0  0
 12 29  1  0  0  0  0
 13 22  1  0  0  0  0
 13 27  2  0  0  0  0
 14 24  1  0  0  0  0
 14 30  2  0  0  0  0
 15 25  2  0  0  0  0
 15 30  1  0  0  0  0
 16 29  2  0  0  0  0
 16 31  1  0  0  0  0
 17 32  1  0  0  0  0
 18 32  1  0  0  0  0
 18 33  2  0  0  0  0
 18 35  1  0  0  0  0
 19 21  2  0  0  0  0
 19 42  1  0  0  0  0
 20 22  2  0  0  0  0
 20 43  1  0  0  0  0
 21 51  1  0  0  0  0
 22 44  1  0  0  0  0
 23 24  2  0  0  0  0
 23 25  1  0  0  0  0
 23 61  1  0  0  0  0
 24 69  1  0  0  0  0
 25 70  1  0  0  0  0
 26 81  1  0  0  0  0
 27 82  1  0  0  0  0
 28 31  2  0  0  0  0
 28 81  1  0  0  0  0
 29 83  1  0  0  0  0
 30 84  1  0  0  0  0
 31 85  1  0  0  0  0
 32 63  2  0  0  0  0
 33 64  1  0  0  0  0
 33 67  1  0  0  0  0
 34 36  2  0  0  0  0
 34 82  1  0  0  0  0
 35 68  1  0  0  0  0
 35 74  2  0  0  0  0
 36 37  1  0  0  0  0
 36 80  1  0  0  0  0
 37 69  1  0  0  0  0
 37 75  2  0  0  0  0
 38 52  1  0  0  0  0
 38 71  1  0  0  0  0
 38 76  2  0  0  0  0
 39 59  1  0  0  0  0
 39 65  1  0  0  0  0
 39 77  2  0  0  0  0
 40 60  1  0  0  0  0
 40 72  1  0  0  0  0
 40 78  2  0  0  0  0
 41 66  1  0  0  0  0
 41 70  1  0  0  0  0
 41 79  2  0  0  0  0
 42 45  1  0  0  0  0
 43 52  1  0  0  0  0
 44 65  1  0  0  0  0
 45 47  1  0  0  0  0
 46 48  1  0  0  0  0
 46 49  1  0  0  0  0
 47 51  1  0  0  0  0
 48 53  1  0  0  0  0
 49 66  1  0  0  0  0
 50 53  1  0  0  0  0
 50 66  1  0  0  0  0
 51 71  1  0  0  0  0
 52 65  1  0  0  0  0
 53 64  1  0  0  0  0
 54 60  1  0  0  0  0
 55 62  1  0  0  0  0
 56 62  1  0  0  0  0
 57 62  1  0  0  0  0
 58 73  1  0  0  0  0
 59 62  1  0  0  0  0
 59 72  1  0  0  0  0
 60 73  1  0  0  0  0
 61 86  1  0  0  0  0
 61 87  1  0  0  0  0
 61 88  1  0  0  0  0
 63 64  1  0  0  0  0
M  CHG  1  73   1
M  ISO  4  34 101  41 100  70 100  82 101
M  END
> <Batch ID>
0170

> <Smiles>
CNC(C)C(=O)NC(C(=O)N1Cc2cc([101O:1][101CH2:1]C(=O)C(=O)Nc3cc(F)cc([100NH:0][100C:0](=O)N4CCCC(n5nc(-c6ccc(Oc7ccc(F)cc7F)cc6)c(C(N)=O)c5N)C4)c3C(F)(F)F)ccc2CC1C(=O)NC1CCCc2ccccc21)C(C)(C)C

> <Shape>
0.278

> <Color>
0.124

> <Negative vol penalty>
0.000

$$$$

  -OEChem-04052304203D

 84 92  0     1  0  0  0  0  0999 V2000
  -17.7379  -31.9648   26.3782 C   0  0  0  0  0  0  0  0  0  0  0  0
  -18.7612  -31.1080   26.7710 C   0  0  0  0  0  0  0  0  0  0  0  0
  -22.9866   -9.9259   20.4101 C   0  0  0  0  0  0  0  0  0  0  0  0
  -23.7022  -10.3086   22.6858 C   0  0  0  0  0  0  0  0  0  0  0  0
  -16.9876  -31.6763   25.2390 C   0  0  0  0  0  0  0  0  0  0  0  0
  -19.0340  -29.9617   26.0255 C   0  0  0  0  0  0  0  0  0  0  0  0
  -24.5195  -27.4138   25.0649 C   0  0  0  0  0  0  0  0  0  0  0  0
  -22.1945   -8.8606   20.8384 C   0  0  0  0  0  0  0  0  0  0  0  0
  -22.9101   -9.2434   23.1140 C   0  0  0  0  0  0  0  0  0  0  0  0
  -25.1743  -26.3412   25.6688 C   0  0  0  0  0  0  0  0  0  0  0  0
  -19.1907   -8.4325   22.3306 C   0  0  0  0  0  0  0  0  0  0  0  0
  -17.8925   -8.3468   21.8277 C   0  0  0  0  0  0  0  0  0  0  0  0
  -24.3919  -24.8831   23.9135 C   0  0  0  0  0  0  0  0  0  0  0  0
  -30.0870  -19.0437   21.4247 C   0  0  0  0  0  0  0  0  0  0  0  0
  -18.4026   -6.1840   20.8795 C   0  0  0  0  0  0  0  0  0  0  0  0
  -30.3436  -19.1633   24.1386 C   0  0  0  0  0  0  0  0  0  0  0  0
  -23.7405  -10.6499   21.3338 C   0  0  0  0  0  0  0  0  0  0  0  0
  -24.1810  -13.1016   20.7838 C   0  0  0  0  0  0  0  0  0  0  0  0
  -17.2577  -30.5309   24.4736 C   0  0  0  0  0  0  0  0  0  0  0  0
  -23.7858  -27.2265   23.8847 C   0  0  0  0  0  0  0  0  0  0  0  0
  -18.2857  -29.6569   24.8757 C   0  0  0  0  0  0  0  0  0  0  0  0
  -23.7309  -25.9554   23.2952 C   0  0  0  0  0  0  0  0  0  0  0  0
  -29.5902  -20.1475   22.1088 C   0  0  0  0  0  0  0  0  0  0  0  0
  -29.7169  -20.2162   23.4918 C   0  0  0  0  0  0  0  0  0  0  0  0
  -22.1562   -8.5194   22.1903 C   0  0  0  0  0  0  0  0  0  0  0  0
  -25.1082  -25.0751   25.0946 C   0  0  0  0  0  0  0  0  0  0  0  0
  -20.0949   -7.3940   22.1080 C   0  0  0  0  0  0  0  0  0  0  0  0
  -17.4985   -7.2226   21.1022 C   0  0  0  0  0  0  0  0  0  0  0  0
  -19.7009   -6.2697   21.3824 C   0  0  0  0  0  0  0  0  0  0  0  0
  -24.5594  -11.7500   20.8920 C   0  0  0  0  0  0  0  0  0  0  0  0
  -30.6974  -18.0434   22.1640 C   0  0  0  0  0  0  0  0  0  0  0  0
  -25.3078  -13.7379   20.3234 C   0  0  0  0  0  0  0  0  0  0  0  0
  -28.0148  -21.2080   24.6369 C   0  0  0  0  0  0  0  0  0  0  0  0
  -22.9234  -13.7262   21.0738 C   0  0  0  0  0  0  0  0  0  0  0  0
  -27.4307  -22.3370   25.4221 C   0  0  0  0  0  0  0  0  0  0  0  0
  -20.7339  -27.5656   23.0631 C   0  0  0  0  0  0  0  0  0  0  0  0
  -30.8384  -14.5361   20.5785 C   0  0  0  0  0  0  0  0  0  0  0  0
  -21.8639  -26.9052   20.0951 C   0  0  0  0  0  0  0  0  0  0  0  0
  -24.2896  -25.4685   18.1719 C   0  0  0  0  0  0  0  0  0  0  0  0
  -16.3888  -30.2361   23.2767 C   0  0  0  0  0  0  0  0  0  0  0  0
  -23.1073  -28.3992   23.2312 C   0  0  0  0  0  0  0  0  0  0  0  0
  -22.9732  -25.7058   22.0176 C   0  0  0  0  0  0  0  0  0  0  0  0
  -16.9867  -29.1978   22.3308 C   0  0  0  0  0  0  0  0  0  0  0  0
  -29.6343  -11.8797   18.4968 C   0  0  0  0  0  0  0  0  0  0  0  0
  -17.5104  -27.9994   23.1159 C   0  0  0  0  0  0  0  0  0  0  0  0
  -28.1850  -11.6999   18.9465 C   0  0  0  0  0  0  0  0  0  0  0  0
  -30.5388  -12.2577   19.6656 C   0  0  0  0  0  0  0  0  0  0  0  0
  -28.6386  -13.2913   20.8666 C   0  0  0  0  0  0  0  0  0  0  0  0
  -18.6282  -28.4166   24.0792 C   0  0  1  0  0  0  0  0  0  0  0  0
  -21.9627  -27.9897   22.3095 C   0  0  1  0  0  0  0  0  0  0  0  0
  -27.6857  -12.9389   19.7107 C   0  0  2  0  0  0  0  0  0  0  0  0
  -28.9266  -21.2429   21.3415 C   0  0  0  0  0  0  0  0  0  0  0  0
  -24.9197  -25.0577   15.7778 C   0  0  0  0  0  0  0  0  0  0  0  0
  -19.7686  -24.6936   19.9257 C   0  0  0  0  0  0  0  0  0  0  0  0
  -21.0372  -23.7356   17.9915 C   0  0  0  0  0  0  0  0  0  0  0  0
  -20.0547  -26.0226   17.8265 C   0  0  0  0  0  0  0  0  0  0  0  0
  -26.8009  -27.0101   18.4471 C   0  0  0  0  0  0  0  0  0  0  0  0
  -31.2429  -16.8445   21.4627 C   0  0  0  0  0  0  0  0  0  0  0  0
  -26.2131  -22.9866   24.8239 C   0  0  0  0  0  0  0  0  0  1  0  0
  -30.2309  -15.7012   21.3184 C   0  0  0  0  0  0  0  0  0  0  0  0
  -22.0821  -25.6471   19.2897 C   0  0  1  0  0  0  0  0  0  0  0  0
  -25.0634  -25.9868   16.9731 C   0  0  2  0  0  0  0  0  0  0  0  0
  -20.7484  -25.0287   18.7835 C   0  0  0  0  0  0  0  0  0  0  0  0
  -30.8389  -18.0748   23.5082 N   0  0  0  0  0  0  0  0  0  0  0  0
  -25.8275  -11.5389   20.5293 N   0  0  0  0  0  0  0  0  0  0  0  0
  -29.2309  -21.3109   24.2261 N   0  0  0  0  0  0  0  0  0  0  0  0
  -26.2556  -12.7664   20.1886 N   0  0  0  0  0  0  0  0  0  0  0  0
  -22.3214  -26.8830   21.4202 N   0  0  0  0  0  0  0  0  0  0  0  0
  -30.0185  -13.4252   20.3792 N   0  0  0  0  0  0  0  0  0  0  0  0
  -25.5704  -15.0279   20.0246 N   0  0  0  0  0  0  0  0  0  0  0  0
  -21.8712  -12.9255   21.5385 N   0  0  0  0  0  0  0  0  0  0  0  0
  -19.8708  -28.6028   23.3612 N   0  0  0  0  0  0  0  0  0  0  0  0
  -23.0184  -25.9995   18.2277 N   0  0  0  0  0  0  0  0  0  0  0  0
  -26.5116  -26.1067   17.3037 N   0  3  0  0  0  0  0  0  0  0  0  0
  -22.7334  -14.9552   20.9095 O   0  0  0  0  0  0  0  0  0  0  0  0
  -27.9605  -22.6405   26.4793 O   0  0  0  0  0  0  0  0  0  0  0  0
  -20.5795  -26.3847   23.3515 O   0  0  0  0  0  0  0  0  0  0  0  0
  -32.0060  -14.6140   20.1876 O   0  0  0  0  0  0  0  0  0  0  0  0
  -21.3145  -27.8745   19.5657 O   0  0  0  0  0  0  0  0  0  0  0  0
  -24.7641  -24.6693   18.9761 O   0  0  0  0  0  0  0  0  0  0  0  0
  -21.3832   -7.4802   22.6086 O   0  0  0  0  0  0  0  0  0  0  0  0
  -25.7458  -24.0263   25.6824 O   0  0  0  0  0  0  0  0  0  1  0  0
  -16.2513   -7.1398   20.6206 F   0  0  0  0  0  0  0  0  0  0  0  0
  -20.5647   -5.2683   21.1663 F   0  0  0  0  0  0  0  0  0  0  0  0
  1  2  1  0  0  0  0
  1  5  2  0  0  0  0
  2  6  2  0  0  0  0
  3  8  2  0  0  0  0
  3 17  1  0  0  0  0
  4  9  1  0  0  0  0
  4 17  2  0  0  0  0
  5 19  1  0  0  0  0
  6 21  1  0  0  0  0
  7 10  2  0  0  0  0
  7 20  1  0  0  0  0
  8 25  1  0  0  0  0
  9 25  2  0  0  0  0
 10 26  1  0  0  0  0
 11 12  2  0  0  0  0
 11 27  1  0  0  0  0
 12 28  1  0  0  0  0
 13 22  1  0  0  0  0
 13 26  2  0  0  0  0
 14 23  1  0  0  0  0
 14 31  2  0  0  0  0
 15 28  2  0  0  0  0
 15 29  1  0  0  0  0
 16 24  1  0  0  0  0
 16 64  2  0  0  0  0
 17 30  1  0  0  0  0
 18 30  1  0  0  0  0
 18 32  2  0  0  0  0
 18 34  1  0  0  0  0
 19 21  2  0  0  0  0
 19 40  1  0  0  0  0
 20 22  2  0  0  0  0
 20 41  1  0  0  0  0
 21 49  1  0  0  0  0
 22 42  1  0  0  0  0
 23 24  2  0  0  0  0
 23 52  1  0  0  0  0
 24 66  1  0  0  0  0
 25 81  1  0  0  0  0
 26 82  1  0  0  0  0
 27 29  2  0  0  0  0
 27 81  1  0  0  0  0
 28 83  1  0  0  0  0
 29 84  1  0  0  0  0
 30 65  2  0  0  0  0
 31 58  1  0  0  0  0
 31 64  1  0  0  0  0
 32 67  1  0  0  0  0
 32 70  1  0  0  0  0
 33 35  1  0  0  0  0
 33 66  2  0  0  0  0
 34 71  1  0  0  0  0
 34 75  2  0  0  0  0
 35 59  1  0  0  0  0
 35 76  2  0  0  0  0
 36 50  1  0  0  0  0
 36 72  1  0  0  0  0
 36 77  2  0  0  0  0
 37 60  1  0  0  0  0
 37 69  1  0  0  0  0
 37 78  2  0  0  0  0
 38 61  1  0  0  0  0
 38 68  1  0  0  0  0
 38 79  2  0  0  0  0
 39 62  1  0  0  0  0
 39 73  1  0  0  0  0
 39 80  2  0  0  0  0
 40 43  1  0  0  0  0
 41 50  1  0  0  0  0
 42 68  1  0  0  0  0
 43 45  1  0  0  0  0
 44 46  1  0  0  0  0
 44 47  1  0  0  0  0
 45 49  1  0  0  0  0
 46 51  1  0  0  0  0
 47 69  1  0  0  0  0
 48 51  1  0  0  0  0
 48 69  1  0  0  0  0
 49 72  1  0  0  0  0
 50 68  1  0  0  0  0
 51 67  1  0  0  0  0
 53 62  1  0  0  0  0
 54 63  1  0  0  0  0
 55 63  1  0  0  0  0
 56 63  1  0  0  0  0
 57 74  1  0  0  0  0
 58 60  1  0  0  0  0
 59 82  1  0  0  0  0
 61 63  1  0  0  0  0
 61 73  1  0  0  0  0
 62 74  1  0  0  0  0
 65 67  1  0  0  0  0
M  CHG  1  74   1
M  ISO  4  37 100  59 101  60 100  82 101
M  END
> <Batch ID>
0170

> <Smiles>
CNC(C)C(=O)NC(C(=O)N1Cc2cc([101O:1][101CH2:1]C(=O)CNc3cnc(C=[100CH:0][100C:0](=O)N4CCCC(n5nc(-c6ccc(Oc7ccc(F)cc7F)cc6)c(C(N)=O)c5N)C4)cc3C)ccc2CC1C(=O)NC1CCCc2ccccc21)C(C)(C)C

> <Shape>
0.236

> <Color>
0.182

> <Negative vol penalty>
0.000

$$$$

  -OEChem-04052304203D

 85 93  0     1  0  0  0  0  0999 V2000
  -21.4307   -7.8728   24.4397 C   0  0  0  0  0  0  0  0  0  0  0  0
  -22.4780   -8.7145   24.8004 C   0  0  0  0  0  0  0  0  0  0  0  0
  -26.9847  -29.9158   19.4655 C   0  0  0  0  0  0  0  0  0  0  0  0
  -26.4596  -29.1129   21.6828 C   0  0  0  0  0  0  0  0  0  0  0  0
  -21.2417   -7.5313   23.1012 C   0  0  0  0  0  0  0  0  0  0  0  0
  -23.3376   -9.2143   23.8228 C   0  0  0  0  0  0  0  0  0  0  0  0
  -24.2791  -14.1558   24.4061 C   0  0  0  0  0  0  0  0  0  0  0  0
  -25.8597  -30.7398   19.4974 C   0  0  0  0  0  0  0  0  0  0  0  0
  -25.3346  -29.9369   21.7148 C   0  0  0  0  0  0  0  0  0  0  0  0
  -25.1990  -14.5170   25.3895 C   0  0  0  0  0  0  0  0  0  0  0  0
  -22.1901  -29.9092   20.4729 C   0  0  0  0  0  0  0  0  0  0  0  0
  -20.9970  -29.3592   20.9414 C   0  0  0  0  0  0  0  0  0  0  0  0
  -26.8994  -14.7704   23.6972 C   0  0  0  0  0  0  0  0  0  0  0  0
  -28.0913  -20.2783   24.9422 C   0  0  0  0  0  0  0  0  0  0  0  0
  -20.9292  -31.0089   22.7052 C   0  0  0  0  0  0  0  0  0  0  0  0
  -28.8062  -19.5771   22.4039 C   0  0  0  0  0  0  0  0  0  0  0  0
  -27.2846  -29.1023   20.5582 C   0  0  0  0  0  0  0  0  0  0  0  0
  -29.7489  -28.5727   20.9510 C   0  0  0  0  0  0  0  0  0  0  0  0
  -22.0936   -8.0349   22.1056 C   0  0  0  0  0  0  0  0  0  0  0  0
  -24.6658  -14.0885   23.0599 C   0  0  0  0  0  0  0  0  0  0  0  0
  -23.1607   -8.8781   22.4699 C   0  0  0  0  0  0  0  0  0  0  0  0
  -25.9818  -14.4106   22.6984 C   0  0  0  0  0  0  0  0  0  0  0  0
  -28.1828  -21.2613   23.9632 C   0  0  0  0  0  0  0  0  0  0  0  0
  -28.5465  -20.9124   22.6673 C   0  0  0  0  0  0  0  0  0  0  0  0
  -25.0347  -30.7504   20.6220 C   0  0  0  0  0  0  0  0  0  0  0  0
  -26.5101  -14.8215   25.0355 C   0  0  0  0  0  0  0  0  0  0  0  0
  -22.7528  -31.0091   21.1205 C   0  0  0  0  0  0  0  0  0  0  0  0
  -20.3665  -29.9090   22.0576 C   0  0  0  0  0  0  0  0  0  0  0  0
  -22.1223  -31.5589   22.2366 C   0  0  0  0  0  0  0  0  0  0  0  0
  -28.4463  -28.2505   20.5256 C   0  0  0  0  0  0  0  0  0  0  0  0
  -28.3712  -18.9714   24.5769 C   0  0  0  0  0  0  0  0  0  0  0  0
  -30.4795  -27.4343   20.7127 C   0  0  0  0  0  0  0  0  0  0  0  0
  -30.2535  -29.7921   21.5115 C   0  0  0  0  0  0  0  0  0  0  0  0
  -24.7983  -11.7820   20.8767 C   0  0  0  0  0  0  0  0  0  0  0  0
  -25.5755  -14.2333   18.8994 C   0  0  0  0  0  0  0  0  0  0  0  0
  -26.8575  -17.3764   18.5469 C   0  0  0  0  0  0  0  0  0  0  0  0
  -27.9311  -18.1467   26.9185 C   0  0  0  0  0  0  0  0  0  0  0  0
  -29.0159  -21.6552   20.3063 C   0  0  0  0  0  0  0  0  0  0  0  0
  -21.8782   -7.5998   20.6777 C   0  0  0  0  0  0  0  0  0  0  0  0
  -23.6546  -13.7232   22.0080 C   0  0  0  0  0  0  0  0  0  0  0  0
  -26.4421  -14.3731   21.2648 C   0  0  0  0  0  0  0  0  0  0  0  0
  -22.6070   -8.4720   19.6586 C   0  0  0  0  0  0  0  0  0  0  0  0
  -30.6348  -23.6218   17.8186 C   0  0  0  0  0  0  0  0  0  0  0  0
  -24.0479   -8.7143   20.0968 C   0  0  0  0  0  0  0  0  0  0  0  0
  -30.3810  -25.0612   18.2725 C   0  0  0  0  0  0  0  0  0  0  0  0
  -29.4352  -22.7187   18.0999 C   0  0  0  0  0  0  0  0  0  0  0  0
  -28.6985  -24.1812   19.9404 C   0  0  0  0  0  0  0  0  0  0  0  0
  -24.0993   -9.4604   21.4355 C   0  0  1  0  0  0  0  0  0  0  0  0
  -24.2902  -13.1882   20.7284 C   0  0  1  0  0  0  0  0  0  0  0  0
  -29.9033  -25.1144   19.7369 C   0  0  2  0  0  0  0  0  0  0  0  0
  -27.8870  -22.6789   24.3289 C   0  0  0  0  0  0  0  0  0  0  0  0
  -27.4001  -19.0985   16.8041 C   0  0  0  0  0  0  0  0  0  0  0  0
  -27.5650  -17.1127   29.1888 C   0  0  0  0  0  0  0  0  0  0  0  0
  -29.3451  -16.1793   27.6667 C   0  0  0  0  0  0  0  0  0  0  0  0
  -28.0444  -12.6331   18.0906 C   0  0  0  0  0  0  0  0  0  0  0  0
  -29.0034  -14.7339   17.1236 C   0  0  0  0  0  0  0  0  0  0  0  0
  -26.8864  -13.7911   16.2005 C   0  0  0  0  0  0  0  0  0  0  0  0
  -24.9870  -19.3377   19.7360 C   0  0  0  0  0  0  0  0  0  0  0  0
  -26.9019  -15.8385   27.1492 C   0  0  0  0  0  0  0  0  0  1  0  0
  -26.8631  -14.8967   18.4741 C   0  0  1  0  0  0  0  0  0  0  0  0
  -26.3552  -18.5895   17.7848 C   0  0  2  0  0  0  0  0  0  0  0  0
  -27.9479  -16.8216   27.7270 C   0  0  0  0  0  0  0  0  0  0  0  0
  -27.6915  -14.0126   17.4995 C   0  0  0  0  0  0  0  0  0  0  0  0
  -28.7277  -18.5941   23.3286 N   0  0  0  0  0  0  0  0  0  0  0  0
  -28.3516  -27.0049   20.0527 N   0  0  0  0  0  0  0  0  0  0  0  0
  -29.6041  -26.5345   20.1795 N   0  0  0  0  0  0  0  0  0  0  0  0
  -25.4179  -14.0040   20.2736 N   0  0  0  0  0  0  0  0  0  0  0  0
  -29.0415  -22.8177   19.5071 N   0  0  0  0  0  0  0  0  0  0  0  0
  -31.7788  -27.1252   20.9092 N   0  0  0  0  0  0  0  0  0  0  0  0
  -29.3671  -30.8632   21.6886 N   0  0  0  0  0  0  0  0  0  0  0  0
  -28.6579  -21.8773   21.6357 N   0  0  0  0  0  0  0  0  0  0  0  0
  -28.2780  -17.9770   25.5812 N   0  0  0  0  0  0  0  0  0  0  0  0
  -23.8275  -10.8684   21.2403 N   0  0  0  0  0  0  0  0  0  0  0  0
  -26.4915  -16.1985   17.9305 N   0  0  0  0  0  0  0  0  0  0  0  0
  -26.0205  -19.6925   18.7294 N   0  3  0  0  0  0  0  0  0  0  0  0
  -31.4585  -29.9334   21.8302 O   0  0  0  0  0  0  0  0  0  0  0  0
  -25.9832  -11.5433   20.6747 O   0  0  0  0  0  0  0  0  0  0  0  0
  -24.7373  -13.9361   18.0447 O   0  0  0  0  0  0  0  0  0  0  0  0
  -27.5123  -17.4650   19.5831 O   0  0  0  0  0  0  0  0  0  0  0  0
  -27.6425  -19.2141   27.4566 O   0  0  0  0  0  0  0  0  0  0  0  0
  -29.3175  -20.5486   19.8521 O   0  0  0  0  0  0  0  0  0  0  0  0
  -23.9370  -31.5545   20.6536 O   0  0  0  0  0  0  0  0  0  0  0  0
  -27.4102  -15.1737   25.9934 O   0  0  0  0  0  0  0  0  0  1  0  0
  -19.2200  -29.3817   22.5065 F   0  0  0  0  0  0  0  0  0  0  0  0
  -22.6575  -32.6163   22.8623 F   0  0  0  0  0  0  0  0  0  0  0  0
  1  2  1  0  0  0  0
  1  5  2  0  0  0  0
  2  6  2  0  0  0  0
  3  8  2  0  0  0  0
  3 17  1  0  0  0  0
  4  9  1  0  0  0  0
  4 17  2  0  0  0  0
  5 19  1  0  0  0  0
  6 21  1  0  0  0  0
  7 10  2  0  0  0  0
  7 20  1  0  0  0  0
  8 25  1  0  0  0  0
  9 25  2  0  0  0  0
 10 26  1  0  0  0  0
 11 12  2  0  0  0  0
 11 27  1  0  0  0  0
 12 28  1  0  0  0  0
 13 22  1  0  0  0  0
 13 26  2  0  0  0  0
 14 23  2  0  0  0  0
 14 31  1  0  0  0  0
 15 28  2  0  0  0  0
 15 29  1  0  0  0  0
 16 24  2  0  0  0  0
 16 64  1  0  0  0  0
 17 30  1  0  0  0  0
 18 30  1  0  0  0  0
 18 32  2  0  0  0  0
 18 33  1  0  0  0  0
 19 21  2  0  0  0  0
 19 39  1  0  0  0  0
 20 22  2  0  0  0  0
 20 40  1  0  0  0  0
 21 48  1  0  0  0  0
 22 41  1  0  0  0  0
 23 24  1  0  0  0  0
 23 51  1  0  0  0  0
 24 71  1  0  0  0  0
 25 82  1  0  0  0  0
 26 83  1  0  0  0  0
 27 29  2  0  0  0  0
 27 82  1  0  0  0  0
 28 84  1  0  0  0  0
 29 85  1  0  0  0  0
 30 65  2  0  0  0  0
 31 64  2  0  0  0  0
 31 72  1  0  0  0  0
 32 66  1  0  0  0  0
 32 69  1  0  0  0  0
 33 70  1  0  0  0  0
 33 76  2  0  0  0  0
 34 49  1  0  0  0  0
 34 73  1  0  0  0  0
 34 77  2  0  0  0  0
 35 60  1  0  0  0  0
 35 67  1  0  0  0  0
 35 78  2  0  0  0  0
 36 61  1  0  0  0  0
 36 74  1  0  0  0  0
 36 79  2  0  0  0  0
 37 62  1  0  0  0  0
 37 72  1  0  0  0  0
 37 80  2  0  0  0  0
 38 68  1  0  0  0  0
 38 71  1  0  0  0  0
 38 81  2  0  0  0  0
 39 42  1  0  0  0  0
 40 49  1  0  0  0  0
 41 67  1  0  0  0  0
 42 44  1  0  0  0  0
 43 45  1  0  0  0  0
 43 46  1  0  0  0  0
 44 48  1  0  0  0  0
 45 50  1  0  0  0  0
 46 68  1  0  0  0  0
 47 50  1  0  0  0  0
 47 68  1  0  0  0  0
 48 73  1  0  0  0  0
 49 67  1  0  0  0  0
 50 66  1  0  0  0  0
 52 61  1  0  0  0  0
 53 62  1  0  0  0  0
 54 62  1  0  0  0  0
 55 63  1  0  0  0  0
 56 63  1  0  0  0  0
 57 63  1  0  0  0  0
 58 75  1  0  0  0  0
 59 62  1  0  0  0  0
 59 83  1  0  0  0  0
 60 63  1  0  0  0  0
 60 74  1  0  0  0  0
 61 75  1  0  0  0  0
 65 66  1  0  0  0  0
M  CHG  1  75   1
M  ISO  4  38 100  59 101  71 100  83 101
M  END
> <Batch ID>
0170

> <Smiles>
CNC(C)C(=O)NC(C(=O)N1Cc2cc([101O:1][101CH2:1]C(C)(C)C(=O)Nc3cc(C)c([100NH:0][100C:0](=O)N4CCCC(n5nc(-c6ccc(Oc7ccc(F)cc7F)cc6)c(C(N)=O)c5N)C4)cn3)ccc2CC1C(=O)NC1CCCc2ccccc21)C(C)(C)C

> <Shape>
0.243

> <Color>
0.068

> <Negative vol penalty>
0.000

$$$$

  -OEChem-04052304203D

 86 94  0     1  0  0  0  0  0999 V2000
  -21.7974  -26.9037   15.1793 C   0  0  0  0  0  0  0  0  0  0  0  0
  -22.9154  -26.7241   15.9875 C   0  0  0  0  0  0  0  0  0  0  0  0
  -24.2859  -10.3677   22.2451 C   0  0  0  0  0  0  0  0  0  0  0  0
  -22.9316  -12.2532   21.5761 C   0  0  0  0  0  0  0  0  0  0  0  0
  -21.3219  -28.1894   14.9248 C   0  0  0  0  0  0  0  0  0  0  0  0
  -23.5593  -27.8303   16.5409 C   0  0  0  0  0  0  0  0  0  0  0  0
  -24.7102  -27.1648   21.4273 C   0  0  0  0  0  0  0  0  0  0  0  0
  -23.3217  -10.0093   23.1872 C   0  0  0  0  0  0  0  0  0  0  0  0
  -21.9673  -11.8949   22.5181 C   0  0  0  0  0  0  0  0  0  0  0  0
  -25.8251  -26.3797   21.7177 C   0  0  0  0  0  0  0  0  0  0  0  0
  -20.3262   -8.4410   23.2129 C   0  0  0  0  0  0  0  0  0  0  0  0
  -19.9680   -7.0954   23.2941 C   0  0  0  0  0  0  0  0  0  0  0  0
  -27.1338  -28.3765   22.0632 C   0  0  0  0  0  0  0  0  0  0  0  0
  -20.6903   -7.0423   25.5990 C   0  0  0  0  0  0  0  0  0  0  0  0
  -26.3970  -19.2956   19.0265 C   0  0  0  0  0  0  0  0  0  0  0  0
  -24.0909  -11.4897   21.4396 C   0  0  0  0  0  0  0  0  0  0  0  0
  -25.1633  -11.4398   19.1255 C   0  0  0  0  0  0  0  0  0  0  0  0
  -21.9545  -29.3113   15.4832 C   0  0  0  0  0  0  0  0  0  0  0  0
  -24.8016  -28.5640   21.4421 C   0  0  0  0  0  0  0  0  0  0  0  0
  -23.0926  -29.1323   16.2926 C   0  0  0  0  0  0  0  0  0  0  0  0
  -26.0179  -29.1771   21.7752 C   0  0  0  0  0  0  0  0  0  0  0  0
  -22.1624  -10.7729   23.3236 C   0  0  0  0  0  0  0  0  0  0  0  0
  -27.0379  -26.9855   22.0329 C   0  0  0  0  0  0  0  0  0  0  0  0
  -20.8667   -9.0873   24.3246 C   0  0  0  0  0  0  0  0  0  0  0  0
  -20.1500   -6.3961   24.4872 C   0  0  0  0  0  0  0  0  0  0  0  0
  -21.0487   -8.3879   25.5177 C   0  0  0  0  0  0  0  0  0  0  0  0
  -26.1526  -20.5917   18.5862 C   0  0  0  0  0  0  0  0  0  0  0  0
  -27.2052  -21.4938   18.4797 C   0  0  0  0  0  0  0  0  0  0  0  0
  -25.0869  -11.8606   20.4667 C   0  0  0  0  0  0  0  0  0  0  0  0
  -28.4735  -21.0541   18.8230 C   0  0  0  0  0  0  0  0  0  0  0  0
  -27.7015  -18.9542   19.3451 C   0  0  0  0  0  0  0  0  0  0  0  0
  -26.2804  -12.0681   18.6316 C   0  0  0  0  0  0  0  0  0  0  0  0
  -24.3015  -10.5598   18.3916 C   0  0  0  0  0  0  0  0  0  0  0  0
  -29.6549  -24.5582   21.5042 C   0  0  0  0  0  0  0  0  0  0  0  0
  -29.9227  -23.2335   20.8520 C   0  0  0  0  0  0  0  0  0  0  0  0
  -24.4187  -30.8600   19.2775 C   0  0  0  0  0  0  0  0  0  0  0  0
  -24.8128  -32.8064   21.8423 C   0  0  0  0  0  0  0  0  0  0  0  0
  -26.0591  -33.2340   24.9904 C   0  0  0  0  0  0  0  0  0  0  0  0
  -29.1626  -17.0728   20.1647 C   0  0  0  0  0  0  0  0  0  0  0  0
  -21.4323  -30.6843   15.1412 C   0  0  0  0  0  0  0  0  0  0  0  0
  -23.5829  -29.3968   21.1528 C   0  0  0  0  0  0  0  0  0  0  0  0
  -26.1633  -30.6754   21.8247 C   0  0  0  0  0  0  0  0  0  0  0  0
  -21.9476  -31.7807   16.0700 C   0  0  0  0  0  0  0  0  0  0  0  0
  -30.5295  -13.7885   20.0170 C   0  0  0  0  0  0  0  0  0  0  0  0
  -23.4535  -31.6453   16.2718 C   0  0  0  0  0  0  0  0  0  0  0  0
  -29.2958  -12.8833   19.9874 C   0  0  0  0  0  0  0  0  0  0  0  0
  -30.3186  -15.0054   20.9161 C   0  0  0  0  0  0  0  0  0  0  0  0
  -27.8790  -14.8859   20.5950 C   0  0  0  0  0  0  0  0  0  0  0  0
  -23.8035  -30.3058   16.9312 C   0  0  1  0  0  0  0  0  0  0  0  0
  -23.9214  -30.8120   20.6945 C   0  0  1  0  0  0  0  0  0  0  0  0
  -28.0201  -13.6803   19.6515 C   0  0  2  0  0  0  0  0  0  0  0  0
  -26.2579  -34.9457   26.8147 C   0  0  0  0  0  0  0  0  0  0  0  0
  -27.0190  -34.2164   20.2756 C   0  0  0  0  0  0  0  0  0  0  0  0
  -27.7970  -35.2373   22.4252 C   0  0  0  0  0  0  0  0  0  0  0  0
  -25.5126  -35.7440   21.5608 C   0  0  0  0  0  0  0  0  0  0  0  0
  -24.5260  -31.5588   26.8883 C   0  0  0  0  0  0  0  0  0  0  0  0
  -29.6355  -21.9997   18.7230 C   0  0  0  0  0  0  0  0  0  0  0  0
  -28.2099  -24.9463   21.6808 C   0  0  0  0  0  0  0  0  0  1  0  0
  -25.9953  -33.4552   22.5203 C   0  0  1  0  0  0  0  0  0  0  0  0
  -25.4335  -33.7976   26.2535 C   0  0  2  0  0  0  0  0  0  0  0  0
  -26.5790  -34.6350   21.6928 C   0  0  0  0  0  0  0  0  0  0  0  0
  -26.0767  -12.6918   20.8035 N   0  0  0  0  0  0  0  0  0  0  0  0
  -28.7498  -19.8031   19.2545 N   0  0  0  0  0  0  0  0  0  0  0  0
  -26.7857  -12.7982   19.6669 N   0  0  0  0  0  0  0  0  0  0  0  0
  -24.9447  -31.4464   21.5279 N   0  0  0  0  0  0  0  0  0  0  0  0
  -29.0941  -15.7135   20.5365 N   0  0  0  0  0  0  0  0  0  0  0  0
  -26.8699  -12.0615   17.4172 N   0  0  0  0  0  0  0  0  0  0  0  0
  -23.1986  -10.0009   19.0516 N   0  0  0  0  0  0  0  0  0  0  0  0
  -27.9402  -17.6311   19.7925 N   0  0  0  0  0  0  0  0  0  0  0  0
  -29.4580  -23.1643   19.5588 N   0  0  0  0  0  0  0  0  0  0  0  0
  -23.5271  -30.3538   18.3509 N   0  0  0  0  0  0  0  0  0  0  0  0
  -25.5454  -33.8281   23.8571 N   0  0  0  0  0  0  0  0  0  0  0  0
  -25.3303  -32.7389   27.2973 N   0  3  0  0  0  0  0  0  0  0  0  0
  -24.5127  -10.2646   17.1909 O   0  0  0  0  0  0  0  0  0  0  0  0
  -30.6202  -25.2156   21.8637 O   0  0  0  0  0  0  0  0  0  0  0  0
  -30.5281  -22.3931   21.4983 O   0  0  0  0  0  0  0  0  0  0  0  0
  -25.5284  -31.3233   19.0420 O   0  0  0  0  0  0  0  0  0  0  0  0
  -23.8063  -33.4796   21.6070 O   0  0  0  0  0  0  0  0  0  0  0  0
  -26.9203  -32.3573   25.0076 O   0  0  0  0  0  0  0  0  0  0  0  0
  -30.2317  -17.6883   20.1495 O   0  0  0  0  0  0  0  0  0  0  0  0
  -21.2211  -10.4234   24.2426 O   0  0  0  0  0  0  0  0  0  0  0  0
  -28.1278  -26.2215   22.3160 O   0  0  0  0  0  0  0  0  0  1  0  0
  -19.8044   -5.1043   24.5655 F   0  0  0  0  0  0  0  0  0  0  0  0
  -21.5662   -9.0037   26.5895 F   0  0  0  0  0  0  0  0  0  0  0  0
  -24.9084  -20.9700   18.2662 F   0  0  0  0  0  0  0  0  0  0  0  0
  -26.9889  -22.7459   18.0583 F   0  0  0  0  0  0  0  0  0  0  0  0
  1  2  1  0  0  0  0
  1  5  2  0  0  0  0
  2  6  2  0  0  0  0
  3  8  2  0  0  0  0
  3 16  1  0  0  0  0
  4  9  1  0  0  0  0
  4 16  2  0  0  0  0
  5 18  1  0  0  0  0
  6 20  1  0  0  0  0
  7 10  2  0  0  0  0
  7 19  1  0  0  0  0
  8 22  1  0  0  0  0
  9 22  2  0  0  0  0
 10 23  1  0  0  0  0
 11 12  2  0  0  0  0
 11 24  1  0  0  0  0
 12 25  1  0  0  0  0
 13 21  1  0  0  0  0
 13 23  2  0  0  0  0
 14 25  2  0  0  0  0
 14 26  1  0  0  0  0
 15 27  2  0  0  0  0
 15 31  1  0  0  0  0
 16 29  1  0  0  0  0
 17 29  1  0  0  0  0
 17 32  2  0  0  0  0
 17 33  1  0  0  0  0
 18 20  2  0  0  0  0
 18 40  1  0  0  0  0
 19 21  2  0  0  0  0
 19 41  1  0  0  0  0
 20 49  1  0  0  0  0
 21 42  1  0  0  0  0
 22 81  1  0  0  0  0
 23 82  1  0  0  0  0
 24 26  2  0  0  0  0
 24 81  1  0  0  0  0
 25 83  1  0  0  0  0
 26 84  1  0  0  0  0
 27 28  1  0  0  0  0
 27 85  1  0  0  0  0
 28 30  2  0  0  0  0
 28 86  1  0  0  0  0
 29 62  2  0  0  0  0
 30 57  1  0  0  0  0
 30 63  1  0  0  0  0
 31 63  2  0  0  0  0
 31 69  1  0  0  0  0
 32 64  1  0  0  0  0
 32 67  1  0  0  0  0
 33 68  1  0  0  0  0
 33 74  2  0  0  0  0
 34 35  1  0  0  0  0
 34 58  1  0  0  0  0
 34 75  2  0  0  0  0
 35 70  1  0  0  0  0
 35 76  2  0  0  0  0
 36 50  1  0  0  0  0
 36 71  1  0  0  0  0
 36 77  2  0  0  0  0
 37 59  1  0  0  0  0
 37 65  1  0  0  0  0
 37 78  2  0  0  0  0
 38 60  1  0  0  0  0
 38 72  1  0  0  0  0
 38 79  2  0  0  0  0
 39 66  1  0  0  0  0
 39 69  1  0  0  0  0
 39 80  2  0  0  0  0
 40 43  1  0  0  0  0
 41 50  1  0  0  0  0
 42 65  1  0  0  0  0
 43 45  1  0  0  0  0
 44 46  1  0  0  0  0
 44 47  1  0  0  0  0
 45 49  1  0  0  0  0
 46 51  1  0  0  0  0
 47 66  1  0  0  0  0
 48 51  1  0  0  0  0
 48 66  1  0  0  0  0
 49 71  1  0  0  0  0
 50 65  1  0  0  0  0
 51 64  1  0  0  0  0
 52 60  1  0  0  0  0
 53 61  1  0  0  0  0
 54 61  1  0  0  0  0
 55 61  1  0  0  0  0
 56 73  1  0  0  0  0
 57 70  1  0  0  0  0
 58 82  1  0  0  0  0
 59 61  1  0  0  0  0
 59 72  1  0  0  0  0
 60 73  1  0  0  0  0
 62 64  1  0  0  0  0
M  CHG  1  73   1
M  ISO  4  39 100  58 101  69 100  82 101
M  END
> <Batch ID>
0170

> <Smiles>
CNC(C)C(=O)NC(C(=O)N1Cc2cc([101O:1][101CH2:1]C(=O)C(=O)NCc3nc([100NH:0][100C:0](=O)N4CCCC(n5nc(-c6ccc(Oc7ccc(F)cc7F)cc6)c(C(N)=O)c5N)C4)cc(F)c3F)ccc2CC1C(=O)NC1CCCc2ccccc21)C(C)(C)C

> <Shape>
0.246

> <Color>
0.067

> <Negative vol penalty>
0.000

$$$$

  -OEChem-04052304203D

 85 93  0     1  0  0  0  0  0999 V2000
  -30.8237  -23.4084   24.8077 C   0  0  0  0  0  0  0  0  0  0  0  0
  -29.4410  -23.4643   24.9508 C   0  0  0  0  0  0  0  0  0  0  0  0
  -29.3217  -25.8873   20.1412 C   0  0  0  0  0  0  0  0  0  0  0  0
  -29.9681  -28.0999   19.4177 C   0  0  0  0  0  0  0  0  0  0  0  0
  -31.3839  -22.7585   23.7088 C   0  0  0  0  0  0  0  0  0  0  0  0
  -28.6177  -22.8711   23.9944 C   0  0  0  0  0  0  0  0  0  0  0  0
  -23.2416  -20.1050   24.9703 C   0  0  0  0  0  0  0  0  0  0  0  0
  -30.6651  -25.5194   20.2163 C   0  0  0  0  0  0  0  0  0  0  0  0
  -31.3115  -27.7320   19.4929 C   0  0  0  0  0  0  0  0  0  0  0  0
  -21.9242  -20.5401   24.8328 C   0  0  0  0  0  0  0  0  0  0  0  0
  -33.1166  -24.5929   18.0819 C   0  0  0  0  0  0  0  0  0  0  0  0
  -33.4806  -23.3579   17.5452 C   0  0  0  0  0  0  0  0  0  0  0  0
  -21.8312  -19.5453   22.6372 C   0  0  0  0  0  0  0  0  0  0  0  0
  -18.9694  -29.2169   22.9629 C   0  0  0  0  0  0  0  0  0  0  0  0
  -34.2783  -22.6509   19.7134 C   0  0  0  0  0  0  0  0  0  0  0  0
  -28.9732  -27.1775   19.7418 C   0  0  0  0  0  0  0  0  0  0  0  0
  -26.5883  -26.9744   18.8593 C   0  0  0  0  0  0  0  0  0  0  0  0
  -30.5673  -22.1486   22.7435 C   0  0  0  0  0  0  0  0  0  0  0  0
  -23.8683  -19.3949   23.9361 C   0  0  0  0  0  0  0  0  0  0  0  0
  -29.1675  -22.2135   22.8808 C   0  0  0  0  0  0  0  0  0  0  0  0
  -23.1557  -19.1000   22.7651 C   0  0  0  0  0  0  0  0  0  0  0  0
  -17.8613  -28.3567   22.7752 C   0  0  0  0  0  0  0  0  0  0  0  0
  -31.6599  -26.4417   19.8922 C   0  0  0  0  0  0  0  0  0  0  0  0
  -21.2197  -20.2628   23.6650 C   0  0  0  0  0  0  0  0  0  0  0  0
  -33.3335  -24.8569   19.4343 C   0  0  0  0  0  0  0  0  0  0  0  0
  -34.0614  -22.3869   18.3610 C   0  0  0  0  0  0  0  0  0  0  0  0
  -33.9143  -23.8859   20.2500 C   0  0  0  0  0  0  0  0  0  0  0  0
  -27.5857  -27.5580   19.6634 C   0  0  0  0  0  0  0  0  0  0  0  0
  -25.4522  -27.6902   19.1480 C   0  0  0  0  0  0  0  0  0  0  0  0
  -20.0614  -28.5485   22.4601 C   0  0  0  0  0  0  0  0  0  0  0  0
  -18.3551  -27.2240   22.1709 C   0  0  0  0  0  0  0  0  0  0  0  0
  -26.6806  -25.8829   17.9342 C   0  0  0  0  0  0  0  0  0  0  0  0
  -26.3988  -19.9013   22.0803 C   0  0  0  0  0  0  0  0  0  0  0  0
  -18.4072  -22.0486   22.2292 C   0  0  0  0  0  0  0  0  0  0  0  0
  -25.7697  -16.8855   21.0647 C   0  0  0  0  0  0  0  0  0  0  0  0
  -18.3189  -24.9283   21.1361 C   0  0  0  0  0  0  0  0  0  0  0  0
  -23.4888  -14.3778   20.6704 C   0  0  0  0  0  0  0  0  0  0  0  0
  -22.0131  -30.1044   22.8013 C   0  0  0  0  0  0  0  0  0  0  0  0
  -31.2178  -21.4986   21.5481 C   0  0  0  0  0  0  0  0  0  0  0  0
  -25.2811  -18.9094   24.1108 C   0  0  0  0  0  0  0  0  0  0  0  0
  -23.7763  -18.3236   21.6335 C   0  0  0  0  0  0  0  0  0  0  0  0
  -30.2833  -20.5714   20.7752 C   0  0  0  0  0  0  0  0  0  0  0  0
  -24.8400  -31.9928   21.7431 C   0  0  0  0  0  0  0  0  0  0  0  0
  -28.9335  -21.2441   20.5460 C   0  0  0  0  0  0  0  0  0  0  0  0
  -25.7243  -30.9593   21.0415 C   0  0  0  0  0  0  0  0  0  0  0  0
  -24.1283  -31.3992   22.9575 C   0  0  0  0  0  0  0  0  0  0  0  0
  -24.2542  -29.1364   21.9917 C   0  0  0  0  0  0  0  0  0  0  0  0
  -28.2417  -21.5606   21.8774 C   0  0  1  0  0  0  0  0  0  0  0  0
  -25.9884  -18.6400   22.7862 C   0  0  1  0  0  0  0  0  0  0  0  0
  -24.9413  -29.6702   20.7242 C   0  0  2  0  0  0  0  0  0  0  0  0
  -16.4623  -28.6289   23.1534 C   0  0  0  0  0  0  0  0  0  0  0  0
  -23.2614  -12.0446   19.7749 C   0  0  0  0  0  0  0  0  0  0  0  0
  -25.7479  -17.9829   18.2177 C   0  0  0  0  0  0  0  0  0  0  0  0
  -24.6047  -15.8779   17.4895 C   0  0  0  0  0  0  0  0  0  0  0  0
  -26.8936  -15.7750   18.4759 C   0  0  0  0  0  0  0  0  0  0  0  0
  -22.7389  -13.3075   23.3258 C   0  0  0  0  0  0  0  0  0  0  0  0
  -17.8383  -22.4386   20.8729 C   0  0  0  0  0  0  0  0  0  0  0  0
  -19.4849  -20.9823   22.2060 C   0  0  0  0  0  0  0  0  0  1  0  0
  -17.2764  -23.8565   20.8385 C   0  0  0  0  0  0  0  0  0  0  0  0
  -24.9202  -16.2803   19.9734 C   0  0  1  0  0  0  0  0  0  0  0  0
  -23.5523  -12.8974   21.0001 C   0  0  2  0  0  0  0  0  0  0  0  0
  -25.5302  -16.4954   18.5595 C   0  0  0  0  0  0  0  0  0  0  0  0
  -27.1238  -28.5668   20.4069 N   0  0  0  0  0  0  0  0  0  0  0  0
  -25.8237  -28.6228   20.0712 N   0  0  0  0  0  0  0  0  0  0  0  0
  -25.1621  -17.8759   21.8494 N   0  0  0  0  0  0  0  0  0  0  0  0
  -23.4043  -30.1833   22.5802 N   0  0  0  0  0  0  0  0  0  0  0  0
  -24.1816  -27.6065   18.6996 N   0  0  0  0  0  0  0  0  0  0  0  0
  -26.9916  -26.1649   16.5970 N   0  0  0  0  0  0  0  0  0  0  0  0
  -17.7249  -26.0310   21.7437 N   0  0  0  0  0  0  0  0  0  0  0  0
  -21.4277  -28.9136   22.3725 N   0  0  0  0  0  0  0  0  0  0  0  0
  -27.6510  -20.3638   22.4372 N   0  0  0  0  0  0  0  0  0  0  0  0
  -24.7283  -14.8800   20.3347 N   0  0  0  0  0  0  0  0  0  0  0  0
  -22.5565  -12.5586   22.0558 N   0  3  0  0  0  0  0  0  0  0  0  0
  -26.4768  -24.6944   18.2796 O   0  0  0  0  0  0  0  0  0  0  0  0
  -25.6363  -20.4160   21.2707 O   0  0  0  0  0  0  0  0  0  0  0  0
  -18.0271  -22.5616   23.2805 O   0  0  0  0  0  0  0  0  0  0  0  0
  -26.9274  -16.4889   21.2200 O   0  0  0  0  0  0  0  0  0  0  0  0
  -19.5044  -24.7806   20.8588 O   0  0  0  0  0  0  0  0  0  0  0  0
  -22.4434  -15.0233   20.7035 O   0  0  0  0  0  0  0  0  0  0  0  0
  -21.3825  -31.0364   23.3072 O   0  0  0  0  0  0  0  0  0  0  0  0
  -19.6954  -27.3330   21.9753 O   0  0  0  0  0  0  0  0  0  0  0  0
  -32.9709  -26.0832   19.9657 O   0  0  0  0  0  0  0  0  0  0  0  0
  -19.9340  -20.6870   23.5279 O   0  0  0  0  0  0  0  0  0  1  0  0
  -34.4094  -21.2005   17.8459 F   0  0  0  0  0  0  0  0  0  0  0  0
  -34.1241  -24.1333   21.5503 F   0  0  0  0  0  0  0  0  0  0  0  0
  1  2  1  0  0  0  0
  1  5  2  0  0  0  0
  2  6  2  0  0  0  0
  3  8  2  0  0  0  0
  3 16  1  0  0  0  0
  4  9  1  0  0  0  0
  4 16  2  0  0  0  0
  5 18  1  0  0  0  0
  6 20  1  0  0  0  0
  7 10  2  0  0  0  0
  7 19  1  0  0  0  0
  8 23  1  0  0  0  0
  9 23  2  0  0  0  0
 10 24  1  0  0  0  0
 11 12  2  0  0  0  0
 11 25  1  0  0  0  0
 12 26  1  0  0  0  0
 13 21  1  0  0  0  0
 13 24  2  0  0  0  0
 14 22  1  0  0  0  0
 14 30  2  0  0  0  0
 15 26  2  0  0  0  0
 15 27  1  0  0  0  0
 16 28  1  0  0  0  0
 17 28  1  0  0  0  0
 17 29  2  0  0  0  0
 17 32  1  0  0  0  0
 18 20  2  0  0  0  0
 18 39  1  0  0  0  0
 19 21  2  0  0  0  0
 19 40  1  0  0  0  0
 20 48  1  0  0  0  0
 21 41  1  0  0  0  0
 22 31  2  0  0  0  0
 22 51  1  0  0  0  0
 23 82  1  0  0  0  0
 24 83  1  0  0  0  0
 25 27  2  0  0  0  0
 25 82  1  0  0  0  0
 26 84  1  0  0  0  0
 27 85  1  0  0  0  0
 28 63  2  0  0  0  0
 29 64  1  0  0  0  0
 29 67  1  0  0  0  0
 30 70  1  0  0  0  0
 30 81  1  0  0  0  0
 31 69  1  0  0  0  0
 31 81  1  0  0  0  0
 32 68  1  0  0  0  0
 32 74  2  0  0  0  0
 33 49  1  0  0  0  0
 33 71  1  0  0  0  0
 33 75  2  0  0  0  0
 34 57  1  0  0  0  0
 34 58  1  0  0  0  0
 34 76  2  0  0  0  0
 35 60  1  0  0  0  0
 35 65  1  0  0  0  0
 35 77  2  0  0  0  0
 36 59  1  0  0  0  0
 36 69  1  0  0  0  0
 36 78  2  0  0  0  0
 37 61  1  0  0  0  0
 37 72  1  0  0  0  0
 37 79  2  0  0  0  0
 38 66  1  0  0  0  0
 38 70  1  0  0  0  0
 38 80  2  0  0  0  0
 39 42  1  0  0  0  0
 40 49  1  0  0  0  0
 41 65  1  0  0  0  0
 42 44  1  0  0  0  0
 43 45  1  0  0  0  0
 43 46  1  0  0  0  0
 44 48  1  0  0  0  0
 45 50  1  0  0  0  0
 46 66  1  0  0  0  0
 47 50  1  0  0  0  0
 47 66  1  0  0  0  0
 48 71  1  0  0  0  0
 49 65  1  0  0  0  0
 50 64  1  0  0  0  0
 52 61  1  0  0  0  0
 53 62  1  0  0  0  0
 54 62  1  0  0  0  0
 55 62  1  0  0  0  0
 56 73  1  0  0  0  0
 57 59  1  0  0  0  0
 58 83  1  0  0  0  0
 60 62  1  0  0  0  0
 60 72  1  0  0  0  0
 61 73  1  0  0  0  0
 63 64  1  0  0  0  0
M  CHG  1  73   1
M  ISO  4  38 100  58 101  70 100  83 101
M  END
> <Batch ID>
0170

> <Smiles>
CNC(C)C(=O)NC(C(=O)N1Cc2cc([101O:1][101CH2:1]C(=O)CCC(=O)Nc3oc([100NH:0][100C:0](=O)N4CCCC(n5nc(-c6ccc(Oc7ccc(F)cc7F)cc6)c(C(N)=O)c5N)C4)cc3C)ccc2CC1C(=O)NC1CCCc2ccccc21)C(C)(C)C

> <Shape>
0.209

> <Color>
0.086

> <Negative vol penalty>
0.000

$$$$

  -OEChem-04052304203D

 86 94  0     1  0  0  0  0  0999 V2000
  -31.4441  -24.9252   18.0853 C   0  0  0  0  0  0  0  0  0  0  0  0
  -30.0775  -24.7085   18.2299 C   0  0  0  0  0  0  0  0  0  0  0  0
  -27.4366  -14.7346   19.1366 C   0  0  0  0  0  0  0  0  0  0  0  0
  -25.3153  -15.3288   20.1288 C   0  0  0  0  0  0  0  0  0  0  0  0
  -32.1339  -25.6768   19.0355 C   0  0  0  0  0  0  0  0  0  0  0  0
  -29.4001  -25.2425   19.3255 C   0  0  0  0  0  0  0  0  0  0  0  0
  -23.6493  -27.3455   19.4306 C   0  0  0  0  0  0  0  0  0  0  0  0
  -27.2515  -13.4105   19.5339 C   0  0  0  0  0  0  0  0  0  0  0  0
  -25.1302  -14.0046   20.5261 C   0  0  0  0  0  0  0  0  0  0  0  0
  -22.4477  -26.7706   19.8423 C   0  0  0  0  0  0  0  0  0  0  0  0
  -24.1602  -11.0934   19.1102 C   0  0  0  0  0  0  0  0  0  0  0  0
  -22.9055  -10.5233   18.8954 C   0  0  0  0  0  0  0  0  0  0  0  0
  -22.6831  -27.8343   21.9945 C   0  0  0  0  0  0  0  0  0  0  0  0
  -22.6737  -10.1391   21.2694 C   0  0  0  0  0  0  0  0  0  0  0  0
  -26.4685  -15.6938   19.4341 C   0  0  0  0  0  0  0  0  0  0  0  0
  -26.2561  -17.6501   17.8107 C   0  0  0  0  0  0  0  0  0  0  0  0
  -31.4628  -26.2284   20.1383 C   0  0  0  0  0  0  0  0  0  0  0  0
  -24.3835  -28.1617   20.3030 C   0  0  0  0  0  0  0  0  0  0  0  0
  -30.0819  -26.0011   20.2921 C   0  0  0  0  0  0  0  0  0  0  0  0
  -23.8924  -28.4204   21.5906 C   0  0  0  0  0  0  0  0  0  0  0  0
  -26.0984  -13.0454   20.2286 C   0  0  0  0  0  0  0  0  0  0  0  0
  -21.9659  -27.0126   21.1254 C   0  0  0  0  0  0  0  0  0  0  0  0
  -24.6718  -11.1863   20.4046 C   0  0  0  0  0  0  0  0  0  0  0  0
  -22.1622  -10.0461   19.9750 C   0  0  0  0  0  0  0  0  0  0  0  0
  -23.9285  -10.7092   21.4841 C   0  0  0  0  0  0  0  0  0  0  0  0
  -26.6593  -17.0620   19.0245 C   0  0  0  0  0  0  0  0  0  0  0  0
  -24.5277  -24.8119   24.5809 C   0  0  0  0  0  0  0  0  0  0  0  0
  -23.4103  -24.0220   24.4090 C   0  0  0  0  0  0  0  0  0  0  0  0
  -26.6672  -18.9569   17.9091 C   0  0  0  0  0  0  0  0  0  0  0  0
  -25.4503  -23.1783   23.4451 C   0  0  0  0  0  0  0  0  0  0  0  0
  -25.5711  -17.0672   16.6941 C   0  0  0  0  0  0  0  0  0  0  0  0
  -27.2784  -28.0168   21.6077 C   0  0  0  0  0  0  0  0  0  0  0  0
  -19.6856  -25.4487   19.6573 C   0  0  0  0  0  0  0  0  0  0  0  0
  -26.5155  -30.9803   22.6837 C   0  0  0  0  0  0  0  0  0  0  0  0
  -20.4088  -23.7280   23.0249 C   0  0  0  0  0  0  0  0  0  0  0  0
  -24.0812  -33.2290   23.4985 C   0  0  0  0  0  0  0  0  0  0  0  0
  -27.7251  -22.5649   22.5533 C   0  0  0  0  0  0  0  0  0  0  0  0
  -32.2599  -26.9942   21.1644 C   0  0  0  0  0  0  0  0  0  0  0  0
  -25.6644  -28.7959   19.8346 C   0  0  0  0  0  0  0  0  0  0  0  0
  -24.6325  -29.3058   22.5586 C   0  0  0  0  0  0  0  0  0  0  0  0
  -31.3979  -27.8400   22.0981 C   0  0  0  0  0  0  0  0  0  0  0  0
  -30.0182  -21.6830   19.9763 C   0  0  0  0  0  0  0  0  0  0  0  0
  -30.2114  -27.0293   22.6099 C   0  0  0  0  0  0  0  0  0  0  0  0
  -29.3774  -20.4551   19.3254 C   0  0  0  0  0  0  0  0  0  0  0  0
  -29.7982  -21.7034   21.4879 C   0  0  0  0  0  0  0  0  0  0  0  0
  -27.7584  -20.3403   21.2626 C   0  0  0  0  0  0  0  0  0  0  0  0
  -29.3073  -26.5847   21.4539 C   0  0  1  0  0  0  0  0  0  0  0  0
  -26.5878  -29.1951   20.9815 C   0  0  1  0  0  0  0  0  0  0  0  0
  -27.8978  -20.3094   19.7318 C   0  0  2  0  0  0  0  0  0  0  0  0
  -24.5770  -26.1056   25.2922 C   0  0  0  0  0  0  0  0  0  0  0  0
  -19.2777  -24.2426   18.8499 C   0  0  0  0  0  0  0  0  0  0  0  0
  -23.7652  -35.5552   24.3852 C   0  0  0  0  0  0  0  0  0  0  0  0
  -27.1991  -30.0005   25.4913 C   0  0  0  0  0  0  0  0  0  0  0  0
  -25.9859  -31.9905   26.4057 C   0  0  0  0  0  0  0  0  0  0  0  0
  -27.9998  -32.3114   24.9691 C   0  0  0  0  0  0  0  0  0  0  0  0
  -22.6892  -34.1027   21.0372 C   0  0  0  0  0  0  0  0  0  0  0  0
  -21.9967  -24.2323   24.8692 C   0  0  0  0  0  0  0  0  0  0  0  0
  -19.5827  -24.4271   21.9555 C   0  0  0  0  0  0  0  0  0  0  0  0
  -20.4426  -25.1942   20.9550 C   0  0  2  0  0  0  0  0  0  1  0  0
  -25.8385  -31.5286   23.9166 C   0  0  1  0  0  0  0  0  0  0  0  0
  -23.9013  -34.6930   23.1398 C   0  0  2  0  0  0  0  0  0  0  0  0
  -26.7426  -31.4395   25.1783 C   0  0  0  0  0  0  0  0  0  0  0  0
  -27.2791  -17.9244   19.8345 N   0  0  0  0  0  0  0  0  0  0  0  0
  -25.6984  -24.3296   24.0292 N   0  0  0  0  0  0  0  0  0  0  0  0
  -27.2685  -19.0678   19.1282 N   0  0  0  0  0  0  0  0  0  0  0  0
  -25.8834  -29.8977   22.0559 N   0  0  0  0  0  0  0  0  0  0  0  0
  -28.3734  -21.5653   21.7975 N   0  0  0  0  0  0  0  0  0  0  0  0
  -26.5694  -20.0106   17.0708 N   0  0  0  0  0  0  0  0  0  0  0  0
  -25.2221  -15.7114   16.7581 N   0  0  0  0  0  0  0  0  0  0  0  0
  -26.3637  -22.3418   22.7569 N   0  0  0  0  0  0  0  0  0  0  0  0
  -28.4785  -27.6844   21.0087 N   0  0  0  0  0  0  0  0  0  0  0  0
  -21.1302  -24.6362   23.7865 N   0  0  0  0  0  0  0  0  0  0  0  0
  -25.4134  -32.8831   23.5805 N   0  0  0  0  0  0  0  0  0  0  0  0
  -22.6799  -34.8758   22.3058 N   0  3  0  0  0  0  0  0  0  0  0  0
  -25.2918  -17.7251   15.6632 O   0  0  0  0  0  0  0  0  0  0  0  0
  -26.7615  -27.4519   22.5644 O   0  0  0  0  0  0  0  0  0  0  0  0
  -19.4088  -26.5855   19.2736 O   0  0  0  0  0  0  0  0  0  0  0  0
  -27.5628  -31.4982   22.2880 O   0  0  0  0  0  0  0  0  0  0  0  0
  -20.4230  -22.5097   23.1788 O   0  0  0  0  0  0  0  0  0  0  0  0
  -23.1345  -32.4691   23.6907 O   0  0  0  0  0  0  0  0  0  0  0  0
  -28.3269  -23.5601   22.9649 O   0  0  0  0  0  0  0  0  0  0  0  0
  -25.9173  -11.7533   20.6162 O   0  0  0  0  0  0  0  0  0  0  0  0
  -20.7937  -26.4522   21.5300 O   0  0  0  0  0  0  0  0  0  1  0  0
  -20.9566   -9.5001   19.7688 F   0  0  0  0  0  0  0  0  0  0  0  0
  -24.4142  -10.7968   22.7301 F   0  0  0  0  0  0  0  0  0  0  0  0
  -23.8305  -22.6166   23.5203 S   0  0  0  0  0  0  0  0  0  0  0  0
  1  2  1  0  0  0  0
  1  5  2  0  0  0  0
  2  6  2  0  0  0  0
  3  8  2  0  0  0  0
  3 15  1  0  0  0  0
  4  9  1  0  0  0  0
  4 15  2  0  0  0  0
  5 17  1  0  0  0  0
  6 19  1  0  0  0  0
  7 10  2  0  0  0  0
  7 18  1  0  0  0  0
  8 21  1  0  0  0  0
  9 21  2  0  0  0  0
 10 22  1  0  0  0  0
 11 12  2  0  0  0  0
 11 23  1  0  0  0  0
 12 24  1  0  0  0  0
 13 20  1  0  0  0  0
 13 22  2  0  0  0  0
 14 24  2  0  0  0  0
 14 25  1  0  0  0  0
 15 26  1  0  0  0  0
 16 26  1  0  0  0  0
 16 29  2  0  0  0  0
 16 31  1  0  0  0  0
 17 19  2  0  0  0  0
 17 38  1  0  0  0  0
 18 20  2  0  0  0  0
 18 39  1  0  0  0  0
 19 47  1  0  0  0  0
 20 40  1  0  0  0  0
 21 82  1  0  0  0  0
 22 83  1  0  0  0  0
 23 25  2  0  0  0  0
 23 82  1  0  0  0  0
 24 84  1  0  0  0  0
 25 85  1  0  0  0  0
 26 63  2  0  0  0  0
 27 28  2  0  0  0  0
 27 50  1  0  0  0  0
 27 64  1  0  0  0  0
 28 57  1  0  0  0  0
 28 86  1  0  0  0  0
 29 65  1  0  0  0  0
 29 68  1  0  0  0  0
 30 64  2  0  0  0  0
 30 70  1  0  0  0  0
 30 86  1  0  0  0  0
 31 69  1  0  0  0  0
 31 75  2  0  0  0  0
 32 48  1  0  0  0  0
 32 71  1  0  0  0  0
 32 76  2  0  0  0  0
 33 51  1  0  0  0  0
 33 59  1  0  0  0  0
 33 77  2  0  0  0  0
 34 60  1  0  0  0  0
 34 66  1  0  0  0  0
 34 78  2  0  0  0  0
 35 58  1  0  0  0  0
 35 72  1  0  0  0  0
 35 79  2  0  0  0  0
 36 61  1  0  0  0  0
 36 73  1  0  0  0  0
 36 80  2  0  0  0  0
 37 67  1  0  0  0  0
 37 70  1  0  0  0  0
 37 81  2  0  0  0  0
 38 41  1  0  0  0  0
 39 48  1  0  0  0  0
 40 66  1  0  0  0  0
 41 43  1  0  0  0  0
 42 44  1  0  0  0  0
 42 45  1  0  0  0  0
 43 47  1  0  0  0  0
 44 49  1  0  0  0  0
 45 67  1  0  0  0  0
 46 49  1  0  0  0  0
 46 67  1  0  0  0  0
 47 71  1  0  0  0  0
 48 66  1  0  0  0  0
 49 65  1  0  0  0  0
 52 61  1  0  0  0  0
 53 62  1  0  0  0  0
 54 62  1  0  0  0  0
 55 62  1  0  0  0  0
 56 74  1  0  0  0  0
 57 72  1  0  0  0  0
 58 59  1  0  0  0  0
 59 83  1  0  0  0  0
 60 62  1  0  0  0  0
 60 73  1  0  0  0  0
 61 74  1  0  0  0  0
 63 65  1  0  0  0  0
M  CHG  1  74   1
M  ISO  4  37 100  59 101  70 100  83 101
M  END
> <Batch ID>
0170

> <Smiles>
CNC(C)C(=O)NC(C(=O)N1Cc2cc([101O:1][101CH:1](CC(=O)NCc3sc([100NH:0][100C:0](=O)N4CCCC(n5nc(-c6ccc(Oc7ccc(F)cc7F)cc6)c(C(N)=O)c5N)C4)nc3C)C(C)=O)ccc2CC1C(=O)NC1CCCc2ccccc21)C(C)(C)C

> <Shape>
0.276

> <Color>
0.058

> <Negative vol penalty>
0.000

$$$$

  -OEChem-04052304203D

 86 94  0     1  0  0  0  0  0999 V2000
  -29.5102  -34.2750   24.5732 C   0  0  0  0  0  0  0  0  0  0  0  0
  -29.3665  -32.9413   24.2048 C   0  0  0  0  0  0  0  0  0  0  0  0
  -24.8716   -8.6923   21.1339 C   0  0  0  0  0  0  0  0  0  0  0  0
  -23.1846   -9.8749   19.8720 C   0  0  0  0  0  0  0  0  0  0  0  0
  -28.3913  -35.0186   24.9460 C   0  0  0  0  0  0  0  0  0  0  0  0
  -28.1037  -32.3499   24.2099 C   0  0  0  0  0  0  0  0  0  0  0  0
  -27.2421  -29.5728   20.0638 C   0  0  0  0  0  0  0  0  0  0  0  0
  -24.3662  -20.0965   17.4589 C   0  0  0  0  0  0  0  0  0  0  0  0
  -23.9098   -7.7774   21.5623 C   0  0  0  0  0  0  0  0  0  0  0  0
  -22.2228   -8.9600   20.3004 C   0  0  0  0  0  0  0  0  0  0  0  0
  -27.8263  -28.3079   20.0119 C   0  0  0  0  0  0  0  0  0  0  0  0
  -21.4500   -7.6502   23.8768 C   0  0  0  0  0  0  0  0  0  0  0  0
  -23.3347  -19.3584   18.0392 C   0  0  0  0  0  0  0  0  0  0  0  0
  -21.4451   -7.3007   25.2272 C   0  0  0  0  0  0  0  0  0  0  0  0
  -25.7250  -27.3174   20.6620 C   0  0  0  0  0  0  0  0  0  0  0  0
  -21.8232   -4.9903   24.6305 C   0  0  0  0  0  0  0  0  0  0  0  0
  -24.5090   -9.7411   20.2888 C   0  0  0  0  0  0  0  0  0  0  0  0
  -26.3039  -10.6003   18.6926 C   0  0  0  0  0  0  0  0  0  0  0  0
  -27.1128  -34.4387   24.9464 C   0  0  0  0  0  0  0  0  0  0  0  0
  -25.8956  -29.7206   20.4264 C   0  0  0  0  0  0  0  0  0  0  0  0
  -26.9667  -33.0860   24.5843 C   0  0  0  0  0  0  0  0  0  0  0  0
  -25.1254  -28.5850   20.7153 C   0  0  0  0  0  0  0  0  0  0  0  0
  -25.6898  -19.8534   17.8260 C   0  0  0  0  0  0  0  0  0  0  0  0
  -24.9502  -18.1341   19.3538 C   0  0  0  0  0  0  0  0  0  0  0  0
  -22.5854   -7.9112   21.1455 C   0  0  0  0  0  0  0  0  0  0  0  0
  -27.0685  -27.1803   20.3139 C   0  0  0  0  0  0  0  0  0  0  0  0
  -21.6414   -6.6697   22.9033 C   0  0  0  0  0  0  0  0  0  0  0  0
  -21.6317   -5.9708   25.6040 C   0  0  0  0  0  0  0  0  0  0  0  0
  -23.6266  -18.3772   18.9866 C   0  0  0  0  0  0  0  0  0  0  0  0
  -21.8280   -5.3398   23.2801 C   0  0  0  0  0  0  0  0  0  0  0  0
  -25.9818  -18.8722   18.7735 C   0  0  0  0  0  0  0  0  0  0  0  0
  -25.5019  -10.6869   19.8464 C   0  0  0  0  0  0  0  0  0  0  0  0
  -27.0752  -11.7364   18.7246 C   0  0  0  0  0  0  0  0  0  0  0  0
  -27.1072  -25.0272   19.4008 C   0  0  0  0  0  0  0  0  0  1  0  0
  -26.3477   -9.5839   17.6823 C   0  0  0  0  0  0  0  0  0  0  0  0
  -27.5276  -23.7666   19.2123 C   0  0  0  0  0  0  0  0  0  0  0  0
  -26.8002  -22.9269   18.2074 C   0  0  0  0  0  0  0  0  0  0  0  0
  -24.3579  -31.1727   22.7993 C   0  0  0  0  0  0  0  0  0  0  0  0
  -21.7297  -30.3002   21.1100 C   0  0  0  0  0  0  0  0  0  0  0  0
  -20.3204  -28.1870   18.8307 C   0  0  0  0  0  0  0  0  0  0  0  0
  -26.3163  -17.1171   21.2101 C   0  0  0  0  0  0  0  0  0  0  0  0
  -25.9393  -35.2691   25.4025 C   0  0  0  0  0  0  0  0  0  0  0  0
  -25.2733  -31.0897   20.4517 C   0  0  0  0  0  0  0  0  0  0  0  0
  -23.6704  -28.6881   21.0903 C   0  0  0  0  0  0  0  0  0  0  0  0
  -24.5866  -34.6732   25.0210 C   0  0  0  0  0  0  0  0  0  0  0  0
  -29.0107  -14.8635   21.7920 C   0  0  0  0  0  0  0  0  0  0  0  0
  -24.5477  -33.1840   25.3490 C   0  0  0  0  0  0  0  0  0  0  0  0
  -28.4920  -13.5302   21.2486 C   0  0  0  0  0  0  0  0  0  0  0  0
  -27.9021  -15.6719   22.4638 C   0  0  0  0  0  0  0  0  0  0  0  0
  -26.1848  -14.5508   21.0989 C   0  0  0  0  0  0  0  0  0  0  0  0
  -25.6102  -32.4159   24.5534 C   0  0  1  0  0  0  0  0  0  0  0  0
  -24.0302  -31.1648   21.3329 C   0  0  1  0  0  0  0  0  0  0  0  0
  -27.2515  -13.7298   20.3560 C   0  0  2  0  0  0  0  0  0  0  0  0
  -18.1447  -27.6978   17.6800 C   0  0  0  0  0  0  0  0  0  0  0  0
  -20.6760  -28.9991   23.6608 C   0  0  0  0  0  0  0  0  0  0  0  0
  -19.0233  -27.7478   22.2568 C   0  0  0  0  0  0  0  0  0  0  0  0
  -18.9562  -30.2401   22.3355 C   0  0  0  0  0  0  0  0  0  0  0  0
  -21.4825  -28.7091   16.1594 C   0  0  0  0  0  0  0  0  0  0  0  0
  -26.7976  -20.6493   17.1988 C   0  0  0  0  0  0  0  0  0  0  0  0
  -20.8282  -29.0896   21.0850 C   0  0  1  0  0  0  0  0  0  0  0  0
  -19.4629  -28.4525   17.6065 C   0  0  2  0  0  0  0  0  0  0  0  0
  -19.8988  -29.0170   22.3294 C   0  0  0  0  0  0  0  0  0  0  0  0
  -25.7416  -11.7906   20.5594 N   0  0  0  0  0  0  0  0  0  0  0  0
  -26.7030  -12.4080   19.8518 N   0  0  0  0  0  0  0  0  0  0  0  0
  -23.1091  -30.0490   21.1072 N   0  0  0  0  0  0  0  0  0  0  0  0
  -26.7617  -15.8242   21.5576 N   0  0  0  0  0  0  0  0  0  0  0  0
  -28.0287  -12.2163   17.8982 N   0  0  0  0  0  0  0  0  0  0  0  0
  -25.4873   -8.4842   17.8032 N   0  0  0  0  0  0  0  0  0  0  0  0
  -25.2460  -17.1373   20.3165 N   0  0  0  0  0  0  0  0  0  0  0  0
  -27.3229  -21.6495   18.1008 N   0  0  0  0  0  0  0  0  0  0  0  0
  -25.1740  -32.2180   23.1878 N   0  0  0  0  0  0  0  0  0  0  0  0
  -20.1186  -29.1353   19.8111 N   0  0  0  0  0  0  0  0  0  0  0  0
  -20.1792  -28.0282   16.3705 N   0  3  0  0  0  0  0  0  0  0  0  0
  -27.1382   -9.6410   16.7101 O   0  0  0  0  0  0  0  0  0  0  0  0
  -25.8475  -23.3562   17.5627 O   0  0  0  0  0  0  0  0  0  0  0  0
  -23.9028  -30.2962   23.5248 O   0  0  0  0  0  0  0  0  0  0  0  0
  -21.2286  -31.4272   21.1240 O   0  0  0  0  0  0  0  0  0  0  0  0
  -21.0895  -27.2316   18.9108 O   0  0  0  0  0  0  0  0  0  0  0  0
  -26.8629  -18.1318   21.6499 O   0  0  0  0  0  0  0  0  0  0  0  0
  -28.5862  -23.1930   19.8818 O   0  0  0  0  0  0  0  0  0  0  0  0
  -21.6467   -7.0184   21.5631 O   0  0  0  0  0  0  0  0  0  0  0  0
  -27.6364  -25.9446   20.2646 O   0  0  0  0  0  0  0  0  0  1  0  0
  -21.6286   -5.6355   26.9009 F   0  0  0  0  0  0  0  0  0  0  0  0
  -22.6274  -17.6740   19.5381 F   0  0  0  0  0  0  0  0  0  0  0  0
  -22.0135   -4.3936   22.3495 F   0  0  0  0  0  0  0  0  0  0  0  0
  -27.2554  -18.6397   19.1248 F   0  0  0  0  0  0  0  0  0  0  0  0
  1  2  1  0  0  0  0
  1  5  2  0  0  0  0
  2  6  2  0  0  0  0
  3  9  2  0  0  0  0
  3 17  1  0  0  0  0
  4 10  1  0  0  0  0
  4 17  2  0  0  0  0
  5 19  1  0  0  0  0
  6 21  1  0  0  0  0
  7 11  2  0  0  0  0
  7 20  1  0  0  0  0
  8 13  2  0  0  0  0
  8 23  1  0  0  0  0
  9 25  1  0  0  0  0
 10 25  2  0  0  0  0
 11 26  1  0  0  0  0
 12 14  2  0  0  0  0
 12 27  1  0  0  0  0
 13 29  1  0  0  0  0
 14 28  1  0  0  0  0
 15 22  1  0  0  0  0
 15 26  2  0  0  0  0
 16 28  2  0  0  0  0
 16 30  1  0  0  0  0
 17 32  1  0  0  0  0
 18 32  1  0  0  0  0
 18 33  2  0  0  0  0
 18 35  1  0  0  0  0
 19 21  2  0  0  0  0
 19 42  1  0  0  0  0
 20 22  2  0  0  0  0
 20 43  1  0  0  0  0
 21 51  1  0  0  0  0
 22 44  1  0  0  0  0
 23 31  2  0  0  0  0
 23 59  1  0  0  0  0
 24 29  2  0  0  0  0
 24 31  1  0  0  0  0
 24 69  1  0  0  0  0
 25 81  1  0  0  0  0
 26 82  1  0  0  0  0
 27 30  2  0  0  0  0
 27 81  1  0  0  0  0
 28 83  1  0  0  0  0
 29 84  1  0  0  0  0
 30 85  1  0  0  0  0
 31 86  1  0  0  0  0
 32 63  2  0  0  0  0
 33 64  1  0  0  0  0
 33 67  1  0  0  0  0
 34 36  2  0  0  0  0
 34 82  1  0  0  0  0
 35 68  1  0  0  0  0
 35 74  2  0  0  0  0
 36 37  1  0  0  0  0
 36 80  1  0  0  0  0
 37 70  1  0  0  0  0
 37 75  2  0  0  0  0
 38 52  1  0  0  0  0
 38 71  1  0  0  0  0
 38 76  2  0  0  0  0
 39 60  1  0  0  0  0
 39 65  1  0  0  0  0
 39 77  2  0  0  0  0
 40 61  1  0  0  0  0
 40 72  1  0  0  0  0
 40 78  2  0  0  0  0
 41 66  1  0  0  0  0
 41 69  1  0  0  0  0
 41 79  2  0  0  0  0
 42 45  1  0  0  0  0
 43 52  1  0  0  0  0
 44 65  1  0  0  0  0
 45 47  1  0  0  0  0
 46 48  1  0  0  0  0
 46 49  1  0  0  0  0
 47 51  1  0  0  0  0
 48 53  1  0  0  0  0
 49 66  1  0  0  0  0
 50 53  1  0  0  0  0
 50 66  1  0  0  0  0
 51 71  1  0  0  0  0
 52 65  1  0  0  0  0
 53 64  1  0  0  0  0
 54 61  1  0  0  0  0
 55 62  1  0  0  0  0
 56 62  1  0  0  0  0
 57 62  1  0  0  0  0
 58 73  1  0  0  0  0
 59 70  1  0  0  0  0
 60 62  1  0  0  0  0
 60 72  1  0  0  0  0
 61 73  1  0  0  0  0
 63 64  1  0  0  0  0
M  CHG  1  73   1
M  ISO  4  34 101  41 100  69 100  82 101
M  END
> <Batch ID>
0170

> <Smiles>
CNC(C)C(=O)NC(C(=O)N1Cc2cc([101O:1][101CH2:1]C(=O)C(=O)NCc3ccc(F)c([100NH:0][100C:0](=O)N4CCCC(n5nc(-c6ccc(Oc7ccc(F)cc7F)cc6)c(C(N)=O)c5N)C4)c3F)ccc2CC1C(=O)NC1CCCc2ccccc21)C(C)(C)C

> <Shape>
0.285

> <Color>
0.092

> <Negative vol penalty>
0.000

$$$$

  -OEChem-04052304203D

 85 93  0     1  0  0  0  0  0999 V2000
  -23.9235   -8.0327   21.7496 C   0  0  0  0  0  0  0  0  0  0  0  0
  -24.5288   -9.1070   21.1054 C   0  0  0  0  0  0  0  0  0  0  0  0
  -22.3847  -29.1705   19.5469 C   0  0  0  0  0  0  0  0  0  0  0  0
  -22.6402  -27.9951   21.6422 C   0  0  0  0  0  0  0  0  0  0  0  0
  -22.5882   -8.1188   22.1415 C   0  0  0  0  0  0  0  0  0  0  0  0
  -23.7987  -10.2676   20.8518 C   0  0  0  0  0  0  0  0  0  0  0  0
  -26.3830  -14.4738   21.9808 C   0  0  0  0  0  0  0  0  0  0  0  0
  -20.9982  -29.1320   19.6943 C   0  0  0  0  0  0  0  0  0  0  0  0
  -21.2537  -27.9566   21.7896 C   0  0  0  0  0  0  0  0  0  0  0  0
  -27.3502  -14.8913   21.0676 C   0  0  0  0  0  0  0  0  0  0  0  0
  -18.7940  -30.0625   22.7569 C   0  0  0  0  0  0  0  0  0  0  0  0
  -18.2677  -30.3835   24.0081 C   0  0  0  0  0  0  0  0  0  0  0  0
  -25.8055  -16.5207   20.1856 C   0  0  0  0  0  0  0  0  0  0  0  0
  -29.2488  -21.2620   20.7610 C   0  0  0  0  0  0  0  0  0  0  0  0
  -28.4756  -22.4345   22.7267 C   0  0  0  0  0  0  0  0  0  0  0  0
  -17.2655  -28.1897   24.1495 C   0  0  0  0  0  0  0  0  0  0  0  0
  -23.2057  -28.6020   20.5208 C   0  0  0  0  0  0  0  0  0  0  0  0
  -25.5143  -29.6439   20.8248 C   0  0  0  0  0  0  0  0  0  0  0  0
  -21.8442   -9.2847   21.9011 C   0  0  0  0  0  0  0  0  0  0  0  0
  -25.1139  -15.0703   21.9960 C   0  0  0  0  0  0  0  0  0  0  0  0
  -22.4519  -10.3689   21.2396 C   0  0  0  0  0  0  0  0  0  0  0  0
  -24.8248  -16.1107   21.1017 C   0  0  0  0  0  0  0  0  0  0  0  0
  -28.9835  -20.0757   22.8489 C   0  0  0  0  0  0  0  0  0  0  0  0
  -28.8217  -22.4391   21.3755 C   0  0  0  0  0  0  0  0  0  0  0  0
  -29.3296  -20.0802   21.4977 C   0  0  0  0  0  0  0  0  0  0  0  0
  -20.4327  -28.5251   20.8157 C   0  0  0  0  0  0  0  0  0  0  0  0
  -27.0606  -15.9129   20.1679 C   0  0  0  0  0  0  0  0  0  0  0  0
  -18.5560  -28.8050   22.2020 C   0  0  0  0  0  0  0  0  0  0  0  0
  -17.5035  -29.4472   24.7045 C   0  0  0  0  0  0  0  0  0  0  0  0
  -28.5564  -21.2528   23.4634 C   0  0  0  0  0  0  0  0  0  0  0  0
  -17.7918  -27.8687   22.8983 C   0  0  0  0  0  0  0  0  0  0  0  0
  -24.6380  -28.6409   20.3688 C   0  0  0  0  0  0  0  0  0  0  0  0
  -26.7594  -29.2157   20.4337 C   0  0  0  0  0  0  0  0  0  0  0  0
  -25.2284  -30.8543   21.5381 C   0  0  0  0  0  0  0  0  0  0  0  0
  -22.1458  -14.0411   21.5115 C   0  0  0  0  0  0  0  0  0  0  0  0
  -21.3668  -17.0504   22.4389 C   0  0  0  0  0  0  0  0  0  0  0  0
  -22.3068  -20.3142   22.7715 C   0  0  0  0  0  0  0  0  0  0  0  0
  -29.0427  -23.8162   19.2776 C   0  0  0  0  0  0  0  0  0  0  0  0
  -20.3902   -9.3133   22.3009 C   0  0  0  0  0  0  0  0  0  0  0  0
  -24.0906  -14.6267   23.0052 C   0  0  0  0  0  0  0  0  0  0  0  0
  -23.4844  -16.7975   21.0907 C   0  0  0  0  0  0  0  0  0  0  0  0
  -19.7941  -10.7183   22.3300 C   0  0  0  0  0  0  0  0  0  0  0  0
  -28.9318  -26.6004   17.0610 C   0  0  0  0  0  0  0  0  0  0  0  0
  -20.1791  -11.4877   21.0704 C   0  0  0  0  0  0  0  0  0  0  0  0
  -27.9023  -27.5336   17.7024 C   0  0  0  0  0  0  0  0  0  0  0  0
  -28.5474  -25.1314   17.2282 C   0  0  0  0  0  0  0  0  0  0  0  0
  -27.2386  -25.6492   19.2502 C   0  0  0  0  0  0  0  0  0  0  0  0
  -21.7002  -11.6541   20.9689 C   0  0  1  0  0  0  0  0  0  0  0  0
  -22.6599  -14.9539   22.5886 C   0  0  1  0  0  0  0  0  0  0  0  0
  -27.6158  -27.1371   19.1640 C   0  0  2  0  0  0  0  0  0  0  0  0
  -29.0626  -18.8227   23.6594 C   0  0  0  0  0  0  0  0  0  0  0  0
  -21.4420  -22.5463   23.5248 C   0  0  0  0  0  0  0  0  0  0  0  0
  -19.7549  -17.2936   19.8596 C   0  0  0  0  0  0  0  0  0  0  0  0
  -19.7180  -19.7739   20.1986 C   0  0  0  0  0  0  0  0  0  0  0  0
  -18.6478  -18.2712   21.8778 C   0  0  0  0  0  0  0  0  0  0  0  0
  -30.1431  -17.2125   17.4981 C   0  0  0  0  0  0  0  0  0  0  0  0
  -31.6957  -17.1174   19.4549 C   0  0  0  0  0  0  0  0  0  0  0  0
  -24.3693  -20.5307   24.8830 C   0  0  0  0  0  0  0  0  0  0  0  0
  -29.7341  -18.7292   19.4393 C   0  0  0  0  0  0  0  0  0  0  0  0
  -29.3683  -16.2038   19.6719 C   0  0  0  0  0  0  0  0  0  1  0  0
  -21.1700  -18.3697   21.7320 C   0  0  1  0  0  0  0  0  0  0  0  0
  -22.1855  -21.2840   23.9331 C   0  0  2  0  0  0  0  0  0  0  0  0
  -19.8474  -18.4130   20.9156 C   0  0  0  0  0  0  0  0  0  0  0  0
  -30.2278  -17.3187   19.0350 C   0  0  0  0  0  0  0  0  0  0  0  0
  -25.2726  -27.6503   19.7363 N   0  0  0  0  0  0  0  0  0  0  0  0
  -26.5609  -28.0288   19.7920 N   0  0  0  0  0  0  0  0  0  0  0  0
  -22.5149  -16.3239   22.0924 N   0  0  0  0  0  0  0  0  0  0  0  0
  -28.2951  -24.8279   18.6386 N   0  0  0  0  0  0  0  0  0  0  0  0
  -27.9937  -29.7426   20.5796 N   0  0  0  0  0  0  0  0  0  0  0  0
  -23.8949  -31.1407   21.8605 N   0  0  0  0  0  0  0  0  0  0  0  0
  -28.7381  -23.6392   20.6269 N   0  0  0  0  0  0  0  0  0  0  0  0
  -29.7564  -18.9209   20.8715 N   0  0  0  0  0  0  0  0  0  0  0  0
  -22.1542  -12.7031   21.8566 N   0  0  0  0  0  0  0  0  0  0  0  0
  -21.2731  -19.4018   22.7578 N   0  0  0  0  0  0  0  0  0  0  0  0
  -23.5369  -21.6732   24.4263 N   0  3  0  0  0  0  0  0  0  0  0  0
  -26.1271  -31.6661   21.8651 O   0  0  0  0  0  0  0  0  0  0  0  0
  -21.7681  -14.5158   20.4468 O   0  0  0  0  0  0  0  0  0  0  0  0
  -20.5364  -16.6814   23.2730 O   0  0  0  0  0  0  0  0  0  0  0  0
  -23.2247  -20.3636   21.9557 O   0  0  0  0  0  0  0  0  0  0  0  0
  -29.9098  -23.1741   18.6795 O   0  0  0  0  0  0  0  0  0  0  0  0
  -19.0798  -28.4876   20.9600 O   0  0  0  0  0  0  0  0  0  0  0  0
  -28.0027  -16.3218   19.2750 O   0  0  0  0  0  0  0  0  0  1  0  0
  -16.9995  -29.7551   25.9067 F   0  0  0  0  0  0  0  0  0  0  0  0
  -28.2223  -21.2593   24.7616 F   0  0  0  0  0  0  0  0  0  0  0  0
  -17.5608  -26.6586   22.3708 F   0  0  0  0  0  0  0  0  0  0  0  0
  1  2  1  0  0  0  0
  1  5  2  0  0  0  0
  2  6  2  0  0  0  0
  3  8  2  0  0  0  0
  3 17  1  0  0  0  0
  4  9  1  0  0  0  0
  4 17  2  0  0  0  0
  5 19  1  0  0  0  0
  6 21  1  0  0  0  0
  7 10  2  0  0  0  0
  7 20  1  0  0  0  0
  8 26  1  0  0  0  0
  9 26  2  0  0  0  0
 10 27  1  0  0  0  0
 11 12  2  0  0  0  0
 11 28  1  0  0  0  0
 12 29  1  0  0  0  0
 13 22  1  0  0  0  0
 13 27  2  0  0  0  0
 14 24  2  0  0  0  0
 14 25  1  0  0  0  0
 15 24  1  0  0  0  0
 15 30  2  0  0  0  0
 16 29  2  0  0  0  0
 16 31  1  0  0  0  0
 17 32  1  0  0  0  0
 18 32  1  0  0  0  0
 18 33  2  0  0  0  0
 18 34  1  0  0  0  0
 19 21  2  0  0  0  0
 19 39  1  0  0  0  0
 20 22  2  0  0  0  0
 20 40  1  0  0  0  0
 21 48  1  0  0  0  0
 22 41  1  0  0  0  0
 23 25  2  0  0  0  0
 23 30  1  0  0  0  0
 23 51  1  0  0  0  0
 24 71  1  0  0  0  0
 25 72  1  0  0  0  0
 26 81  1  0  0  0  0
 27 82  1  0  0  0  0
 28 31  2  0  0  0  0
 28 81  1  0  0  0  0
 29 83  1  0  0  0  0
 30 84  1  0  0  0  0
 31 85  1  0  0  0  0
 32 65  2  0  0  0  0
 33 66  1  0  0  0  0
 33 69  1  0  0  0  0
 34 70  1  0  0  0  0
 34 76  2  0  0  0  0
 35 49  1  0  0  0  0
 35 73  1  0  0  0  0
 35 77  2  0  0  0  0
 36 61  1  0  0  0  0
 36 67  1  0  0  0  0
 36 78  2  0  0  0  0
 37 62  1  0  0  0  0
 37 74  1  0  0  0  0
 37 79  2  0  0  0  0
 38 68  1  0  0  0  0
 38 71  1  0  0  0  0
 38 80  2  0  0  0  0
 39 42  1  0  0  0  0
 40 49  1  0  0  0  0
 41 67  1  0  0  0  0
 42 44  1  0  0  0  0
 43 45  1  0  0  0  0
 43 46  1  0  0  0  0
 44 48  1  0  0  0  0
 45 50  1  0  0  0  0
 46 68  1  0  0  0  0
 47 50  1  0  0  0  0
 47 68  1  0  0  0  0
 48 73  1  0  0  0  0
 49 67  1  0  0  0  0
 50 66  1  0  0  0  0
 52 62  1  0  0  0  0
 53 63  1  0  0  0  0
 54 63  1  0  0  0  0
 55 63  1  0  0  0  0
 56 64  1  0  0  0  0
 57 64  1  0  0  0  0
 58 75  1  0  0  0  0
 59 64  1  0  0  0  0
 59 72  1  0  0  0  0
 60 64  1  0  0  0  0
 60 82  1  0  0  0  0
 61 63  1  0  0  0  0
 61 74  1  0  0  0  0
 62 75  1  0  0  0  0
 65 66  1  0  0  0  0
M  CHG  1  75   1
M  ISO  4  38 100  60 101  71 100  82 101
M  END
> <Batch ID>
0170

> <Smiles>
CNC(C)C(=O)NC(C(=O)N1Cc2cc([101O:1][101CH2:1]C(C)(C)CNc3cc([100NH:0][100C:0](=O)N4CCCC(n5nc(-c6ccc(Oc7ccc(F)cc7F)cc6)c(C(N)=O)c5N)C4)cc(F)c3C)ccc2CC1C(=O)NC1CCCc2ccccc21)C(C)(C)C

> <Shape>
0.253

> <Color>
0.090

> <Negative vol penalty>
0.000

$$$$

  -OEChem-04052304203D

 86 94  0     1  0  0  0  0  0999 V2000
  -27.2702  -34.8511   24.6828 C   0  0  0  0  0  0  0  0  0  0  0  0
  -27.6030  -33.5770   24.2340 C   0  0  0  0  0  0  0  0  0  0  0  0
  -24.2551  -11.1137   17.7616 C   0  0  0  0  0  0  0  0  0  0  0  0
  -26.6534  -11.3793   17.6403 C   0  0  0  0  0  0  0  0  0  0  0  0
  -25.9708  -35.1211   25.1099 C   0  0  0  0  0  0  0  0  0  0  0  0
  -26.6367  -32.5718   24.2132 C   0  0  0  0  0  0  0  0  0  0  0  0
  -26.7039  -29.9012   19.9111 C   0  0  0  0  0  0  0  0  0  0  0  0
  -24.2601  -10.4974   16.5103 C   0  0  0  0  0  0  0  0  0  0  0  0
  -26.6584  -10.7629   16.3890 C   0  0  0  0  0  0  0  0  0  0  0  0
  -27.7007  -28.9358   19.7765 C   0  0  0  0  0  0  0  0  0  0  0  0
  -24.4415  -11.4415   13.2699 C   0  0  0  0  0  0  0  0  0  0  0  0
  -23.4717  -11.8380   12.3492 C   0  0  0  0  0  0  0  0  0  0  0  0
  -26.1143  -27.2222   20.3817 C   0  0  0  0  0  0  0  0  0  0  0  0
  -30.3623  -18.0033   20.5609 C   0  0  0  0  0  0  0  0  0  0  0  0
  -29.0769  -20.0486   20.5999 C   0  0  0  0  0  0  0  0  0  0  0  0
  -22.6265   -9.5761   12.2654 C   0  0  0  0  0  0  0  0  0  0  0  0
  -25.4518  -11.5547   18.3266 C   0  0  0  0  0  0  0  0  0  0  0  0
  -25.5799  -11.5690   20.8743 C   0  0  0  0  0  0  0  0  0  0  0  0
  -24.9856  -34.1213   25.0853 C   0  0  0  0  0  0  0  0  0  0  0  0
  -25.4053  -29.5350   20.2933 C   0  0  0  0  0  0  0  0  0  0  0  0
  -25.3232  -32.8284   24.6417 C   0  0  0  0  0  0  0  0  0  0  0  0
  -25.1022  -28.1846   20.5180 C   0  0  0  0  0  0  0  0  0  0  0  0
  -31.4950  -18.7224   20.1798 C   0  0  0  0  0  0  0  0  0  0  0  0
  -29.1532  -18.6664   20.7710 C   0  0  0  0  0  0  0  0  0  0  0  0
  -30.2097  -20.7677   20.2188 C   0  0  0  0  0  0  0  0  0  0  0  0
  -25.4617  -10.3220   15.8240 C   0  0  0  0  0  0  0  0  0  0  0  0
  -27.4067  -27.5964   20.0146 C   0  0  0  0  0  0  0  0  0  0  0  0
  -24.5040  -10.1123   13.6883 C   0  0  0  0  0  0  0  0  0  0  0  0
  -22.5642  -10.9053   11.8469 C   0  0  0  0  0  0  0  0  0  0  0  0
  -23.5965   -9.1796   13.1861 C   0  0  0  0  0  0  0  0  0  0  0  0
  -31.4188  -20.1046   20.0087 C   0  0  0  0  0  0  0  0  0  0  0  0
  -25.4473  -12.1919   19.6189 C   0  0  0  0  0  0  0  0  0  0  0  0
  -25.5122  -12.6007   21.7784 C   0  0  0  0  0  0  0  0  0  0  0  0
  -25.7493  -10.1818   21.1946 C   0  0  0  0  0  0  0  0  0  0  0  0
  -23.5211  -30.2056   22.7639 C   0  0  0  0  0  0  0  0  0  0  0  0
  -29.1969  -24.3733   19.9807 C   0  0  0  0  0  0  0  0  0  0  0  0
  -21.3309  -28.5401   21.0460 C   0  0  0  0  0  0  0  0  0  0  0  0
  -20.7049  -26.1892   18.6525 C   0  0  0  0  0  0  0  0  0  0  0  0
  -26.7262  -18.4397   21.4074 C   0  0  0  0  0  0  0  0  0  0  0  0
  -23.6067  -34.4481   25.6014 C   0  0  0  0  0  0  0  0  0  0  0  0
  -24.3348  -30.5853   20.4081 C   0  0  0  0  0  0  0  0  0  0  0  0
  -23.7188  -27.7371   20.9108 C   0  0  0  0  0  0  0  0  0  0  0  0
  -22.5466  -33.4275   25.1952 C   0  0  0  0  0  0  0  0  0  0  0  0
  -23.6241  -16.9651   22.3453 C   0  0  0  0  0  0  0  0  0  0  0  0
  -23.0538  -32.0084   25.4310 C   0  0  0  0  0  0  0  0  0  0  0  0
  -23.7541  -15.5155   21.8723 C   0  0  0  0  0  0  0  0  0  0  0  0
  -24.2923  -17.9397   21.3771 C   0  0  0  0  0  0  0  0  0  0  0  0
  -25.8200  -16.1803   20.5772 C   0  0  0  0  0  0  0  0  0  0  0  0
  -24.2966  -31.7182   24.5808 C   0  0  1  0  0  0  0  0  0  0  0  0
  -23.1743  -30.1604   21.3026 C   0  0  1  0  0  0  0  0  0  0  0  0
  -25.2185  -15.1559   21.5533 C   0  0  2  0  0  0  0  0  0  0  0  0
  -33.2812  -17.2465   21.1919 C   0  0  0  0  0  0  0  0  0  0  0  0
  -18.8155  -25.0142   17.4920 C   0  0  0  0  0  0  0  0  0  0  0  0
  -20.8901  -26.8101   23.5204 C   0  0  0  0  0  0  0  0  0  0  0  0
  -19.7544  -25.1269   22.0557 C   0  0  0  0  0  0  0  0  0  0  0  0
  -18.8010  -27.4203   22.2885 C   0  0  0  0  0  0  0  0  0  0  0  0
  -21.5222  -27.2391   16.0089 C   0  0  0  0  0  0  0  0  0  0  0  0
  -28.9263  -22.9073   20.2451 C   0  0  0  0  0  0  0  0  0  0  0  0
  -28.0069  -25.2988   20.1439 C   0  0  0  0  0  0  0  0  0  1  0  0
  -32.7864  -18.0103   19.9565 C   0  0  1  0  0  0  0  0  0  0  0  0
  -20.9227  -27.0896   20.9539 C   0  0  1  0  0  0  0  0  0  0  0  0
  -19.7730  -26.1951   17.4542 C   0  0  2  0  0  0  0  0  0  0  0  0
  -20.1187  -26.6201   22.1991 C   0  0  0  0  0  0  0  0  0  0  0  0
  -25.3058  -13.5167   19.7130 N   0  0  0  0  0  0  0  0  0  0  0  0
  -25.3491  -13.7347   21.0384 N   0  0  0  0  0  0  0  0  0  0  0  0
  -22.7079  -28.8022   21.0163 N   0  0  0  0  0  0  0  0  0  0  0  0
  -25.6781  -17.5384   21.1252 N   0  0  0  0  0  0  0  0  0  0  0  0
  -25.5768  -12.6395   23.1263 N   0  0  0  0  0  0  0  0  0  0  0  0
  -25.7981   -9.2547   20.1446 N   0  0  0  0  0  0  0  0  0  0  0  0
  -28.0025  -17.9359   21.1587 N   0  0  0  0  0  0  0  0  0  0  0  0
  -30.1314  -22.1427   20.0496 N   0  0  0  0  0  0  0  0  0  0  0  0
  -23.9196  -31.4515   23.2093 N   0  0  0  0  0  0  0  0  0  0  0  0
  -20.2061  -26.9466   19.6912 N   0  0  0  0  0  0  0  0  0  0  0  0
  -32.7395  -17.0326   18.8157 N   0  3  0  0  0  0  0  0  0  0  0  0
  -20.5564  -26.1247   16.1884 N   0  3  0  0  0  0  0  0  0  0  0  0
  -25.8378   -9.7745   22.3778 O   0  0  0  0  0  0  0  0  0  0  0  0
  -23.4323  -29.1859   23.4378 O   0  0  0  0  0  0  0  0  0  0  0  0
  -30.3049  -24.7969   19.6541 O   0  0  0  0  0  0  0  0  0  0  0  0
  -20.4598  -29.4091   21.1336 O   0  0  0  0  0  0  0  0  0  0  0  0
  -21.7672  -25.5714   18.6672 O   0  0  0  0  0  0  0  0  0  0  0  0
  -26.5092  -19.5652   21.8638 O   0  0  0  0  0  0  0  0  0  0  0  0
  -25.4669   -9.7204   14.6031 O   0  0  0  0  0  0  0  0  0  0  0  0
  -28.3779  -26.6521   19.8846 O   0  0  0  0  0  0  0  0  0  1  0  0
  -21.6319  -11.2866   10.9639 F   0  0  0  0  0  0  0  0  0  0  0  0
  -23.6508   -7.9015   13.5852 F   0  0  0  0  0  0  0  0  0  0  0  0
  -32.5091  -20.7952   19.6425 F   0  0  0  0  0  0  0  0  0  0  0  0
  1  2  1  0  0  0  0
  1  5  2  0  0  0  0
  2  6  2  0  0  0  0
  3  8  2  0  0  0  0
  3 17  1  0  0  0  0
  4  9  1  0  0  0  0
  4 17  2  0  0  0  0
  5 19  1  0  0  0  0
  6 21  1  0  0  0  0
  7 10  2  0  0  0  0
  7 20  1  0  0  0  0
  8 26  1  0  0  0  0
  9 26  2  0  0  0  0
 10 27  1  0  0  0  0
 11 12  2  0  0  0  0
 11 28  1  0  0  0  0
 12 29  1  0  0  0  0
 13 22  1  0  0  0  0
 13 27  2  0  0  0  0
 14 23  2  0  0  0  0
 14 24  1  0  0  0  0
 15 24  2  0  0  0  0
 15 25  1  0  0  0  0
 16 29  2  0  0  0  0
 16 30  1  0  0  0  0
 17 32  1  0  0  0  0
 18 32  1  0  0  0  0
 18 33  2  0  0  0  0
 18 34  1  0  0  0  0
 19 21  2  0  0  0  0
 19 40  1  0  0  0  0
 20 22  2  0  0  0  0
 20 41  1  0  0  0  0
 21 49  1  0  0  0  0
 22 42  1  0  0  0  0
 23 31  1  0  0  0  0
 23 60  1  0  0  0  0
 24 70  1  0  0  0  0
 25 31  2  0  0  0  0
 25 71  1  0  0  0  0
 26 82  1  0  0  0  0
 27 83  1  0  0  0  0
 28 30  2  0  0  0  0
 28 82  1  0  0  0  0
 29 84  1  0  0  0  0
 30 85  1  0  0  0  0
 31 86  1  0  0  0  0
 32 64  2  0  0  0  0
 33 65  1  0  0  0  0
 33 68  1  0  0  0  0
 34 69  1  0  0  0  0
 34 76  2  0  0  0  0
 35 50  1  0  0  0  0
 35 72  1  0  0  0  0
 35 77  2  0  0  0  0
 36 58  1  0  0  0  0
 36 59  1  0  0  0  0
 36 78  2  0  0  0  0
 37 61  1  0  0  0  0
 37 66  1  0  0  0  0
 37 79  2  0  0  0  0
 38 62  1  0  0  0  0
 38 73  1  0  0  0  0
 38 80  2  0  0  0  0
 39 67  1  0  0  0  0
 39 70  1  0  0  0  0
 39 81  2  0  0  0  0
 40 43  1  0  0  0  0
 41 50  1  0  0  0  0
 42 66  1  0  0  0  0
 43 45  1  0  0  0  0
 44 46  1  0  0  0  0
 44 47  1  0  0  0  0
 45 49  1  0  0  0  0
 46 51  1  0  0  0  0
 47 67  1  0  0  0  0
 48 51  1  0  0  0  0
 48 67  1  0  0  0  0
 49 72  1  0  0  0  0
 50 66  1  0  0  0  0
 51 65  1  0  0  0  0
 52 60  1  0  0  0  0
 53 62  1  0  0  0  0
 54 63  1  0  0  0  0
 55 63  1  0  0  0  0
 56 63  1  0  0  0  0
 57 75  1  0  0  0  0
 58 71  1  0  0  0  0
 59 83  1  0  0  0  0
 60 74  1  0  0  0  0
 61 63  1  0  0  0  0
 61 73  1  0  0  0  0
 62 75  1  0  0  0  0
 64 65  1  0  0  0  0
M  CHG  2  74   1  75   1
M  ISO  4  39 100  59 101  70 100  83 101
M  END
> <Batch ID>
0170

> <Smiles>
CNC(C)C(=O)NC(C(=O)N1Cc2cc([101O:1][101CH2:1]C(=O)CNc3cc([100NH:0][100C:0](=O)N4CCCC(n5nc(-c6ccc(Oc7ccc(F)cc7F)cc6)c(C(N)=O)c5N)C4)cc(C(C)N)c3F)ccc2CC1C(=O)NC1CCCc2ccccc21)C(C)(C)C

> <Shape>
0.240

> <Color>
0.084

> <Negative vol penalty>
0.000

$$$$

  -OEChem-04052304203D

 87 95  0     1  0  0  0  0  0999 V2000
  -18.6160  -35.8935   22.1428 C   0  0  0  0  0  0  0  0  0  0  0  0
  -19.9741  -35.9387   21.8444 C   0  0  0  0  0  0  0  0  0  0  0  0
  -25.7422  -19.1345   17.3600 C   0  0  0  0  0  0  0  0  0  0  0  0
  -23.0787  -10.2146   19.8678 C   0  0  0  0  0  0  0  0  0  0  0  0
  -23.7914   -9.7224   22.1231 C   0  0  0  0  0  0  0  0  0  0  0  0
  -26.7188  -18.1505   17.5135 C   0  0  0  0  0  0  0  0  0  0  0  0
  -18.1211  -34.8981   22.9842 C   0  0  0  0  0  0  0  0  0  0  0  0
  -20.8383  -34.9891   22.3883 C   0  0  0  0  0  0  0  0  0  0  0  0
  -25.7530  -30.0746   18.8217 C   0  0  0  0  0  0  0  0  0  0  0  0
  -26.0891  -20.4822   17.4544 C   0  0  0  0  0  0  0  0  0  0  0  0
  -22.2842   -9.0681   19.8686 C   0  0  0  0  0  0  0  0  0  0  0  0
  -22.9969   -8.5759   22.1240 C   0  0  0  0  0  0  0  0  0  0  0  0
  -26.5420  -29.0504   18.2977 C   0  0  0  0  0  0  0  0  0  0  0  0
  -23.1657   -5.4270   20.9045 C   0  0  0  0  0  0  0  0  0  0  0  0
  -23.7249   -4.2515   21.4055 C   0  0  0  0  0  0  0  0  0  0  0  0
  -26.1764  -27.7336   20.2928 C   0  0  0  0  0  0  0  0  0  0  0  0
  -21.9974   -4.1483   23.0914 C   0  0  0  0  0  0  0  0  0  0  0  0
  -23.8323  -10.5417   20.9950 C   0  0  0  0  0  0  0  0  0  0  0  0
  -28.0424  -18.5143   17.7615 C   0  0  0  0  0  0  0  0  0  0  0  0
  -28.3893  -19.8621   17.8560 C   0  0  0  0  0  0  0  0  0  0  0  0
  -24.2775  -13.0213   21.3964 C   0  0  0  0  0  0  0  0  0  0  0  0
  -18.9782  -33.9300   23.5310 C   0  0  0  0  0  0  0  0  0  0  0  0
  -25.1594  -29.9257   20.0782 C   0  0  0  0  0  0  0  0  0  0  0  0
  -20.3546  -33.9805   23.2389 C   0  0  0  0  0  0  0  0  0  0  0  0
  -25.3749  -28.7510   20.8175 C   0  0  0  0  0  0  0  0  0  0  0  0
  -27.4126  -20.8460   17.7025 C   0  0  0  0  0  0  0  0  0  0  0  0
  -22.2433   -8.2487   20.9967 C   0  0  0  0  0  0  0  0  0  0  0  0
  -26.7534  -27.8829   19.0316 C   0  0  0  0  0  0  0  0  0  0  0  0
  -22.0224   -5.9633   21.4970 C   0  0  0  0  0  0  0  0  0  0  0  0
  -23.1408   -3.6121   22.4989 C   0  0  0  0  0  0  0  0  0  0  0  0
  -21.4383   -5.3239   22.5904 C   0  0  0  0  0  0  0  0  0  0  0  0
  -24.6536  -11.7256   20.9946 C   0  0  0  0  0  0  0  0  0  0  0  0
  -25.4060  -13.7808   21.2065 C   0  0  0  0  0  0  0  0  0  0  0  0
  -29.0474  -17.4478   17.9178 C   0  0  0  0  0  0  0  0  0  0  0  0
  -26.9448  -25.6593   18.3304 C   0  0  0  0  0  0  0  0  0  1  0  0
  -29.7760  -20.2415   18.1156 C   0  0  0  0  0  0  0  0  0  0  0  0
  -23.0204  -13.4958   21.8968 C   0  0  0  0  0  0  0  0  0  0  0  0
  -27.6042  -24.6083   17.8282 C   0  0  0  0  0  0  0  0  0  0  0  0
  -26.8806  -23.3049   17.6671 C   0  0  0  0  0  0  0  0  0  0  0  0
  -22.9682  -31.4182   22.7328 C   0  0  0  0  0  0  0  0  0  0  0  0
  -22.2371  -28.4451   22.5416 C   0  0  0  0  0  0  0  0  0  0  0  0
  -21.4395  -25.2299   21.7270 C   0  0  0  0  0  0  0  0  0  0  0  0
  -29.7256  -15.2510   17.9921 C   0  0  0  0  0  0  0  0  0  0  0  0
  -18.4044  -32.9015   24.4732 C   0  0  0  0  0  0  0  0  0  0  0  0
  -24.3522  -31.0281   20.7082 C   0  0  0  0  0  0  0  0  0  0  0  0
  -24.7447  -28.6489   22.1796 C   0  0  0  0  0  0  0  0  0  0  0  0
  -19.3278  -31.7090   24.7088 C   0  0  0  0  0  0  0  0  0  0  0  0
  -30.1673  -12.4309   20.1958 C   0  0  0  0  0  0  0  0  0  0  0  0
  -20.7509  -32.1825   24.9870 C   0  0  0  0  0  0  0  0  0  0  0  0
  -28.7362  -12.0821   20.6042 C   0  0  0  0  0  0  0  0  0  0  0  0
  -30.2326  -12.9309   18.7559 C   0  0  0  0  0  0  0  0  0  0  0  0
  -27.8926  -13.7410   18.8849 C   0  0  0  0  0  0  0  0  0  0  0  0
  -21.3198  -32.9533   23.7897 C   0  0  1  0  0  0  0  0  0  0  0  0
  -23.1805  -30.5072   21.5596 C   0  0  1  0  0  0  0  0  0  0  0  0
  -27.7834  -13.2622   20.3426 C   0  0  1  0  0  0  0  0  0  0  0  0
  -30.6647  -20.4508   16.9279 C   0  0  0  0  0  0  0  0  0  0  0  0
  -19.8894  -23.3627   22.3658 C   0  0  0  0  0  0  0  0  0  0  0  0
  -23.9303  -27.8915   25.0176 C   0  0  0  0  0  0  0  0  0  0  0  0
  -22.9820  -25.5748   25.0610 C   0  0  0  0  0  0  0  0  0  0  0  0
  -21.4741  -27.5431   25.3338 C   0  0  0  0  0  0  0  0  0  0  0  0
  -20.2094  -25.1750   19.0358 C   0  0  0  0  0  0  0  0  0  0  0  0
  -22.4691  -27.0494   23.0626 C   0  0  1  0  0  0  0  0  0  0  0  0
  -20.1042  -24.5612   21.4547 C   0  0  2  0  0  0  0  0  0  0  0  0
  -22.7274  -27.0244   24.5956 C   0  0  0  0  0  0  0  0  0  0  0  0
  -25.9218  -11.6620   20.5804 N   0  0  0  0  0  0  0  0  0  0  0  0
  -28.7310  -16.1972   17.8337 N   0  0  0  0  0  0  0  0  0  0  0  0
  -26.3524  -12.9272   20.7209 N   0  0  0  0  0  0  0  0  0  0  0  0
  -23.3675  -29.1648   22.1358 N   0  0  0  0  0  0  0  0  0  0  0  0
  -29.2903  -14.0292   18.5372 N   0  0  0  0  0  0  0  0  0  0  0  0
  -25.6710  -15.0890   21.4089 N   0  0  0  0  0  0  0  0  0  0  0  0
  -21.9662  -12.5819   22.0297 N   0  0  0  0  0  0  0  0  0  0  0  0
  -27.7382  -22.2208   17.7941 N   0  0  0  0  0  0  0  0  0  0  0  0
  -21.7327  -32.0368   22.7485 N   0  0  0  0  0  0  0  0  0  0  0  0
  -21.3193  -26.2585   22.6374 N   0  0  0  0  0  0  0  0  0  0  0  0
  -20.0373  -24.0946   20.0409 N   0  3  0  0  0  0  0  0  0  0  0  0
  -30.2619  -20.3952   19.2341 O   0  0  0  0  0  0  0  0  0  0  0  0
  -22.8326  -14.6982   22.2010 O   0  0  0  0  0  0  0  0  0  0  0  0
  -25.6739  -23.2768   17.4506 O   0  0  0  0  0  0  0  0  0  0  0  0
  -23.8587  -31.5499   23.5644 O   0  0  0  0  0  0  0  0  0  0  0  0
  -21.0865  -28.8898   22.4997 O   0  0  0  0  0  0  0  0  0  0  0  0
  -22.4853  -24.8729   21.1891 O   0  0  0  0  0  0  0  0  0  0  0  0
  -30.9053  -15.4354   17.6833 O   0  0  0  0  0  0  0  0  0  0  0  0
  -28.9295  -24.6757   17.4491 O   0  0  0  0  0  0  0  0  0  0  0  0
  -21.4680   -7.1300   20.9979 O   0  0  0  0  0  0  0  0  0  0  0  0
  -27.5211  -26.8851   18.5122 O   0  0  0  0  0  0  0  0  0  1  0  0
  -23.6769   -2.4824   22.9790 F   0  0  0  0  0  0  0  0  0  0  0  0
  -20.3392   -5.8337   23.1631 F   0  0  0  0  0  0  0  0  0  0  0  0
  1  2  1  0  0  0  0
  1  7  2  0  0  0  0
  2  8  2  0  0  0  0
  3  6  1  0  0  0  0
  3 10  2  0  0  0  0
  4 11  2  0  0  0  0
  4 18  1  0  0  0  0
  5 12  1  0  0  0  0
  5 18  2  0  0  0  0
  6 19  2  0  0  0  0
  7 22  1  0  0  0  0
  8 24  1  0  0  0  0
  9 13  2  0  0  0  0
  9 23  1  0  0  0  0
 10 26  1  0  0  0  0
 11 27  1  0  0  0  0
 12 27  2  0  0  0  0
 13 28  1  0  0  0  0
 14 15  2  0  0  0  0
 14 29  1  0  0  0  0
 15 30  1  0  0  0  0
 16 25  1  0  0  0  0
 16 28  2  0  0  0  0
 17 30  2  0  0  0  0
 17 31  1  0  0  0  0
 18 32  1  0  0  0  0
 19 20  1  0  0  0  0
 19 34  1  0  0  0  0
 20 26  2  0  0  0  0
 20 36  1  0  0  0  0
 21 32  1  0  0  0  0
 21 33  2  0  0  0  0
 21 37  1  0  0  0  0
 22 24  2  0  0  0  0
 22 44  1  0  0  0  0
 23 25  2  0  0  0  0
 23 45  1  0  0  0  0
 24 53  1  0  0  0  0
 25 46  1  0  0  0  0
 26 72  1  0  0  0  0
 27 84  1  0  0  0  0
 28 85  1  0  0  0  0
 29 31  2  0  0  0  0
 29 84  1  0  0  0  0
 30 86  1  0  0  0  0
 31 87  1  0  0  0  0
 32 65  2  0  0  0  0
 33 67  1  0  0  0  0
 33 70  1  0  0  0  0
 34 66  2  0  0  0  0
 35 38  2  0  0  0  0
 35 85  1  0  0  0  0
 36 56  1  0  0  0  0
 36 76  2  0  0  0  0
 37 71  1  0  0  0  0
 37 77  2  0  0  0  0
 38 39  1  0  0  0  0
 38 83  1  0  0  0  0
 39 72  1  0  0  0  0
 39 78  2  0  0  0  0
 40 54  1  0  0  0  0
 40 73  1  0  0  0  0
 40 79  2  0  0  0  0
 41 62  1  0  0  0  0
 41 68  1  0  0  0  0
 41 80  2  0  0  0  0
 42 63  1  0  0  0  0
 42 74  1  0  0  0  0
 42 81  2  0  0  0  0
 43 66  1  0  0  0  0
 43 69  1  0  0  0  0
 43 82  2  0  0  0  0
 44 47  1  0  0  0  0
 45 54  1  0  0  0  0
 46 68  1  0  0  0  0
 47 49  1  0  0  0  0
 48 50  1  0  0  0  0
 48 51  1  0  0  0  0
 49 53  1  0  0  0  0
 50 55  1  0  0  0  0
 51 69  1  0  0  0  0
 52 55  1  0  0  0  0
 52 69  1  0  0  0  0
 53 73  1  0  0  0  0
 54 68  1  0  0  0  0
 55 67  1  0  0  0  0
 57 63  1  0  0  0  0
 58 64  1  0  0  0  0
 59 64  1  0  0  0  0
 60 64  1  0  0  0  0
 61 75  1  0  0  0  0
 62 64  1  0  0  0  0
 62 74  1  0  0  0  0
 63 75  1  0  0  0  0
 65 67  1  0  0  0  0
M  CHG  1  75   1
M  ISO  4  35 101  43 100  66 100  85 101
M  END
> <Batch ID>
0170

> <Smiles>
CNC(C)C(=O)NC(C(=O)N1Cc2cc([101O:1][101CH2:1]C(=O)C(=O)Nc3cccc(C=[100N:0][100C:0](=O)N4CCCC(n5nc(-c6ccc(Oc7ccc(F)cc7F)cc6)c(C(N)=O)c5N)C4)c3C(C)=O)ccc2CC1C(=O)NC1CCCc2ccccc21)C(C)(C)C

> <Shape>
0.257

> <Color>
0.163

> <Negative vol penalty>
0.000

$$$$

  -OEChem-04052304203D

 86 94  0     1  0  0  0  0  0999 V2000
  -17.0791  -25.4727   24.4689 C   0  0  0  0  0  0  0  0  0  0  0  0
  -18.1532  -25.2329   23.6179 C   0  0  0  0  0  0  0  0  0  0  0  0
  -23.2204   -9.5524   20.6464 C   0  0  0  0  0  0  0  0  0  0  0  0
  -23.1885  -11.1466   22.4615 C   0  0  0  0  0  0  0  0  0  0  0  0
  -16.6813  -26.7821   24.7355 C   0  0  0  0  0  0  0  0  0  0  0  0
  -18.8296  -26.3024   23.0322 C   0  0  0  0  0  0  0  0  0  0  0  0
  -23.8610  -25.7676   23.2405 C   0  0  0  0  0  0  0  0  0  0  0  0
  -22.3644   -8.7175   21.3645 C   0  0  0  0  0  0  0  0  0  0  0  0
  -22.3323  -10.3118   23.1796 C   0  0  0  0  0  0  0  0  0  0  0  0
  -24.4479  -24.9012   22.3192 C   0  0  0  0  0  0  0  0  0  0  0  0
  -22.5991   -6.5035   23.9076 C   0  0  0  0  0  0  0  0  0  0  0  0
  -22.9035   -5.1429   23.9461 C   0  0  0  0  0  0  0  0  0  0  0  0
  -25.0759  -26.7882   20.9539 C   0  0  0  0  0  0  0  0  0  0  0  0
  -30.6843  -20.1315   20.5808 C   0  0  0  0  0  0  0  0  0  0  0  0
  -31.2761  -17.7894   20.6186 C   0  0  0  0  0  0  0  0  0  0  0  0
  -20.7802   -4.6384   22.9098 C   0  0  0  0  0  0  0  0  0  0  0  0
  -23.6326  -10.7669   21.1949 C   0  0  0  0  0  0  0  0  0  0  0  0
  -24.1539  -12.6482   19.5528 C   0  0  0  0  0  0  0  0  0  0  0  0
  -17.3592  -27.8686   24.1603 C   0  0  0  0  0  0  0  0  0  0  0  0
  -23.8676  -27.1523   23.0196 C   0  0  0  0  0  0  0  0  0  0  0  0
  -18.4396  -27.6276   23.2903 C   0  0  0  0  0  0  0  0  0  0  0  0
  -24.4906  -27.6702   21.8752 C   0  0  0  0  0  0  0  0  0  0  0  0
  -29.0868  -18.4701   19.8567 C   0  0  0  0  0  0  0  0  0  0  0  0
  -29.4221  -19.8046   20.0855 C   0  0  0  0  0  0  0  0  0  0  0  0
  -30.0138  -17.4625   20.1233 C   0  0  0  0  0  0  0  0  0  0  0  0
  -21.9202   -9.0972   22.6311 C   0  0  0  0  0  0  0  0  0  0  0  0
  -25.0529  -25.4113   21.1743 C   0  0  0  0  0  0  0  0  0  0  0  0
  -21.3851   -6.9317   23.3702 C   0  0  0  0  0  0  0  0  0  0  0  0
  -21.9941   -4.2103   23.4472 C   0  0  0  0  0  0  0  0  0  0  0  0
  -31.6114  -19.1239   20.8474 C   0  0  0  0  0  0  0  0  0  0  0  0
  -20.4757   -5.9991   22.8713 C   0  0  0  0  0  0  0  0  0  0  0  0
  -24.5174  -11.6294   20.4538 C   0  0  0  0  0  0  0  0  0  0  0  0
  -25.3499  -13.1665   19.1198 C   0  0  0  0  0  0  0  0  0  0  0  0
  -26.6488  -23.7684   20.7001 C   0  0  0  0  0  0  0  0  0  1  0  0
  -22.8516  -13.0870   19.1439 C   0  0  0  0  0  0  0  0  0  0  0  0
  -27.2835  -22.9029   19.9004 C   0  0  0  0  0  0  0  0  0  0  0  0
  -28.3937  -22.0691   20.4664 C   0  0  0  0  0  0  0  0  0  0  0  0
  -21.6266  -29.3691   22.6098 C   0  0  0  0  0  0  0  0  0  0  0  0
  -24.1616  -31.3911   22.6968 C   0  0  0  0  0  0  0  0  0  0  0  0
  -27.5148  -31.8539   22.2617 C   0  0  0  0  0  0  0  0  0  0  0  0
  -30.5138  -14.9934   20.1195 C   0  0  0  0  0  0  0  0  0  0  0  0
  -16.8628  -29.2648   24.4409 C   0  0  0  0  0  0  0  0  0  0  0  0
  -23.2537  -28.0753   24.0363 C   0  0  0  0  0  0  0  0  0  0  0  0
  -24.5425  -29.1504   21.6016 C   0  0  0  0  0  0  0  0  0  0  0  0
  -17.8686  -30.3536   24.0758 C   0  0  0  0  0  0  0  0  0  0  0  0
  -30.0837  -11.4806   19.7290 C   0  0  0  0  0  0  0  0  0  0  0  0
  -18.4567  -30.0949   22.6924 C   0  0  0  0  0  0  0  0  0  0  0  0
  -28.5673  -11.2900   19.8087 C   0  0  0  0  0  0  0  0  0  0  0  0
  -30.5687  -12.5732   20.6803 C   0  0  0  0  0  0  0  0  0  0  0  0
  -28.3651  -13.6732   20.6249 C   0  0  0  0  0  0  0  0  0  0  0  0
  -19.2141  -28.7621   22.6553 C   0  0  1  0  0  0  0  0  0  0  0  0
  -22.8671  -29.4319   23.4553 C   0  0  1  0  0  0  0  0  0  0  0  0
  -27.8214  -12.6278   19.6374 C   0  0  2  0  0  0  0  0  0  0  0  0
  -27.7669  -17.7768   17.8408 C   0  0  0  0  0  0  0  0  0  0  0  0
  -29.2893  -33.6249   22.3701 C   0  0  0  0  0  0  0  0  0  0  0  0
  -23.1889  -32.5250   20.0363 C   0  0  0  0  0  0  0  0  0  0  0  0
  -25.4432  -33.5727   19.7382 C   0  0  0  0  0  0  0  0  0  0  0  0
  -24.0052  -34.2387   21.6647 C   0  0  0  0  0  0  0  0  0  0  0  0
  -28.9877  -30.4119   24.3855 C   0  0  0  0  0  0  0  0  0  0  0  0
  -27.7315  -18.1193   19.3257 C   0  0  0  0  0  0  0  0  0  0  0  0
  -25.1082  -31.9637   21.6696 C   0  0  1  0  0  0  0  0  0  0  0  0
  -28.5596  -32.5293   23.1316 C   0  0  2  0  0  0  0  0  0  0  0  0
  -24.4339  -33.0469   20.7811 C   0  0  0  0  0  0  0  0  0  0  0  0
  -25.8407  -11.5061   20.5861 N   0  0  0  0  0  0  0  0  0  0  0  0
  -26.3193  -12.4541   19.7625 N   0  0  0  0  0  0  0  0  0  0  0  0
  -23.9228  -30.0115   22.6223 N   0  0  0  0  0  0  0  0  0  0  0  0
  -29.8202  -13.8121   20.4574 N   0  0  0  0  0  0  0  0  0  0  0  0
  -25.6564  -14.1574   18.2558 N   0  0  0  0  0  0  0  0  0  0  0  0
  -21.7296  -12.4457   19.6864 N   0  0  0  0  0  0  0  0  0  0  0  0
  -28.4970  -20.8436   19.8226 N   0  0  0  0  0  0  0  0  0  0  0  0
  -29.6946  -16.1002   19.8995 N   0  0  0  0  0  0  0  0  0  0  0  0
  -20.5123  -28.9010   23.2796 N   0  0  0  0  0  0  0  0  0  0  0  0
  -26.2740  -32.4372   22.4078 N   0  0  0  0  0  0  0  0  0  0  0  0
  -29.5645  -31.5340   23.6012 N   0  3  0  0  0  0  0  0  0  0  0  0
  -22.6880  -14.0091   18.3094 O   0  0  0  0  0  0  0  0  0  0  0  0
  -29.0872  -22.4852   21.3883 O   0  0  0  0  0  0  0  0  0  0  0  0
  -21.6764  -29.7207   21.4370 O   0  0  0  0  0  0  0  0  0  0  0  0
  -23.6585  -32.1391   23.5388 O   0  0  0  0  0  0  0  0  0  0  0  0
  -27.7742  -30.9061   21.5235 O   0  0  0  0  0  0  0  0  0  0  0  0
  -31.7420  -15.0146   20.0050 O   0  0  0  0  0  0  0  0  0  0  0  0
  -26.9556  -22.7446   18.5692 O   0  0  0  0  0  0  0  0  0  0  0  0
  -21.0847   -8.2829   23.3320 O   0  0  0  0  0  0  0  0  0  0  0  0
  -25.6260  -24.5679   20.2731 O   0  0  0  0  0  0  0  0  0  1  0  0
  -22.2873   -2.9038   23.4828 F   0  0  0  0  0  0  0  0  0  0  0  0
  -32.8237  -19.4383   21.3228 F   0  0  0  0  0  0  0  0  0  0  0  0
  -19.3084   -6.4045   22.3527 F   0  0  0  0  0  0  0  0  0  0  0  0
  1  2  1  0  0  0  0
  1  5  2  0  0  0  0
  2  6  2  0  0  0  0
  3  8  2  0  0  0  0
  3 17  1  0  0  0  0
  4  9  1  0  0  0  0
  4 17  2  0  0  0  0
  5 19  1  0  0  0  0
  6 21  1  0  0  0  0
  7 10  2  0  0  0  0
  7 20  1  0  0  0  0
  8 26  1  0  0  0  0
  9 26  2  0  0  0  0
 10 27  1  0  0  0  0
 11 12  2  0  0  0  0
 11 28  1  0  0  0  0
 12 29  1  0  0  0  0
 13 22  1  0  0  0  0
 13 27  2  0  0  0  0
 14 24  2  0  0  0  0
 14 30  1  0  0  0  0
 15 25  1  0  0  0  0
 15 30  2  0  0  0  0
 16 29  2  0  0  0  0
 16 31  1  0  0  0  0
 17 32  1  0  0  0  0
 18 32  1  0  0  0  0
 18 33  2  0  0  0  0
 18 35  1  0  0  0  0
 19 21  2  0  0  0  0
 19 42  1  0  0  0  0
 20 22  2  0  0  0  0
 20 43  1  0  0  0  0
 21 51  1  0  0  0  0
 22 44  1  0  0  0  0
 23 24  1  0  0  0  0
 23 25  2  0  0  0  0
 23 60  1  0  0  0  0
 24 70  1  0  0  0  0
 25 71  1  0  0  0  0
 26 82  1  0  0  0  0
 27 83  1  0  0  0  0
 28 31  2  0  0  0  0
 28 82  1  0  0  0  0
 29 84  1  0  0  0  0
 30 85  1  0  0  0  0
 31 86  1  0  0  0  0
 32 64  2  0  0  0  0
 33 65  1  0  0  0  0
 33 68  1  0  0  0  0
 34 36  2  0  0  0  0
 34 83  1  0  0  0  0
 35 69  1  0  0  0  0
 35 75  2  0  0  0  0
 36 37  1  0  0  0  0
 36 81  1  0  0  0  0
 37 70  1  0  0  0  0
 37 76  2  0  0  0  0
 38 52  1  0  0  0  0
 38 72  1  0  0  0  0
 38 77  2  0  0  0  0
 39 61  1  0  0  0  0
 39 66  1  0  0  0  0
 39 78  2  0  0  0  0
 40 62  1  0  0  0  0
 40 73  1  0  0  0  0
 40 79  2  0  0  0  0
 41 67  1  0  0  0  0
 41 71  1  0  0  0  0
 41 80  2  0  0  0  0
 42 45  1  0  0  0  0
 43 52  1  0  0  0  0
 44 66  1  0  0  0  0
 45 47  1  0  0  0  0
 46 48  1  0  0  0  0
 46 49  1  0  0  0  0
 47 51  1  0  0  0  0
 48 53  1  0  0  0  0
 49 67  1  0  0  0  0
 50 53  1  0  0  0  0
 50 67  1  0  0  0  0
 51 72  1  0  0  0  0
 52 66  1  0  0  0  0
 53 65  1  0  0  0  0
 54 60  1  0  0  0  0
 55 62  1  0  0  0  0
 56 63  1  0  0  0  0
 57 63  1  0  0  0  0
 58 63  1  0  0  0  0
 59 74  1  0  0  0  0
 61 63  1  0  0  0  0
 61 73  1  0  0  0  0
 62 74  1  0  0  0  0
 64 65  1  0  0  0  0
M  CHG  1  74   1
M  ISO  4  34 101  41 100  71 100  83 101
M  END
> <Batch ID>
0170

> <Smiles>
CCc1c(NC(=O)C(=O)[101CH2:1][101O:1]c2ccc3c(c2)CN(C(=O)C(NC(=O)C(C)NC)C(C)(C)C)C(C(=O)NC2CCCc4ccccc42)C3)cc(F)cc1[100NH:0][100C:0](=O)N1CCCC(n2nc(-c3ccc(Oc4ccc(F)cc4F)cc3)c(C(N)=O)c2N)C1

> <Shape>
0.306

> <Color>
0.117

> <Negative vol penalty>
0.000

$$$$

  -OEChem-04052304203D

 86 94  0     1  0  0  0  0  0999 V2000
  -16.5313  -29.2296   24.0232 C   0  0  0  0  0  0  0  0  0  0  0  0
  -17.2107  -28.2615   23.2907 C   0  0  0  0  0  0  0  0  0  0  0  0
  -23.3627   -9.9027   20.4490 C   0  0  0  0  0  0  0  0  0  0  0  0
  -24.7774   -8.7053   21.9988 C   0  0  0  0  0  0  0  0  0  0  0  0
  -16.9739  -30.5517   24.0080 C   0  0  0  0  0  0  0  0  0  0  0  0
  -18.3325  -28.6150   22.5418 C   0  0  0  0  0  0  0  0  0  0  0  0
  -22.1544  -25.3405   23.1035 C   0  0  0  0  0  0  0  0  0  0  0  0
  -22.4263   -8.8705   20.5061 C   0  0  0  0  0  0  0  0  0  0  0  0
  -23.8410   -7.6730   22.0560 C   0  0  0  0  0  0  0  0  0  0  0  0
  -22.0724  -24.1395   22.4003 C   0  0  0  0  0  0  0  0  0  0  0  0
  -21.6578   -4.8878   22.8893 C   0  0  0  0  0  0  0  0  0  0  0  0
  -21.3373   -4.3707   24.1444 C   0  0  0  0  0  0  0  0  0  0  0  0
  -27.6400  -19.9818   19.6477 C   0  0  0  0  0  0  0  0  0  0  0  0
  -23.5656  -25.0252   20.7254 C   0  0  0  0  0  0  0  0  0  0  0  0
  -20.5688   -6.5511   24.8464 C   0  0  0  0  0  0  0  0  0  0  0  0
  -24.5382   -9.8201   21.1953 C   0  0  0  0  0  0  0  0  0  0  0  0
  -28.8119  -19.3499   19.1403 C   0  0  0  0  0  0  0  0  0  0  0  0
  -25.5674  -12.0252   21.9609 C   0  0  0  0  0  0  0  0  0  0  0  0
  -18.1074  -30.9198   23.2662 C   0  0  0  0  0  0  0  0  0  0  0  0
  -22.9353  -26.3985   22.6165 C   0  0  0  0  0  0  0  0  0  0  0  0
  -18.7899  -29.9435   22.5156 C   0  0  0  0  0  0  0  0  0  0  0  0
  -23.6579  -26.2377   21.4257 C   0  0  0  0  0  0  0  0  0  0  0  0
  -22.6655   -7.7556   21.3096 C   0  0  0  0  0  0  0  0  0  0  0  0
  -22.7758  -23.9827   21.2095 C   0  0  0  0  0  0  0  0  0  0  0  0
  -21.4339   -6.2366   22.6126 C   0  0  0  0  0  0  0  0  0  0  0  0
  -20.7927   -5.2023   25.1230 C   0  0  0  0  0  0  0  0  0  0  0  0
  -20.8893   -7.0682   23.5912 C   0  0  0  0  0  0  0  0  0  0  0  0
  -25.5061  -10.8859   21.1363 C   0  0  0  0  0  0  0  0  0  0  0  0
  -28.5314  -18.1378   18.5489 C   0  0  0  0  0  0  0  0  0  0  0  0
  -26.6593  -12.7217   21.5036 C   0  0  0  0  0  0  0  0  0  0  0  0
  -26.5082  -19.2287   19.4244 C   0  0  0  0  0  0  0  0  0  0  0  0
  -30.1425  -19.8957   19.2211 C   0  0  0  0  0  0  0  0  0  0  0  0
  -24.7137  -12.4187   23.0435 C   0  0  0  0  0  0  0  0  0  0  0  0
  -29.4525  -17.1678   17.9028 C   0  0  0  0  0  0  0  0  0  0  0  0
  -22.3411  -29.3738   21.6687 C   0  0  0  0  0  0  0  0  0  0  0  0
  -25.5751  -29.5466   21.4857 C   0  0  0  0  0  0  0  0  0  0  0  0
  -24.6277  -20.5812   20.4136 C   0  0  0  0  0  0  0  0  0  0  0  0
  -28.5489  -27.9088   21.1377 C   0  0  0  0  0  0  0  0  0  0  0  0
  -29.7670  -14.7659   17.3972 C   0  0  0  0  0  0  0  0  0  0  0  0
  -18.5200  -32.3703   23.2428 C   0  0  0  0  0  0  0  0  0  0  0  0
  -23.0345  -27.6782   23.4008 C   0  0  0  0  0  0  0  0  0  0  0  0
  -24.5265  -27.3358   20.8707 C   0  0  0  0  0  0  0  0  0  0  0  0
  -19.9380  -32.5918   22.7228 C   0  0  0  0  0  0  0  0  0  0  0  0
  -30.3021  -11.3775   18.2514 C   0  0  0  0  0  0  0  0  0  0  0  0
  -20.1710  -31.7871   21.4481 C   0  0  0  0  0  0  0  0  0  0  0  0
  -29.1118  -11.0401   19.1533 C   0  0  0  0  0  0  0  0  0  0  0  0
  -29.9013  -12.3075   17.1071 C   0  0  0  0  0  0  0  0  0  0  0  0
  -28.0108  -13.1903   18.4127 C   0  0  0  0  0  0  0  0  0  0  0  0
  -20.0255  -30.2833   21.7107 C   0  0  1  0  0  0  0  0  0  0  0  0
  -23.4520  -28.8715   22.5468 C   0  0  1  0  0  0  0  0  0  0  0  0
  -28.3774  -12.3129   19.6205 C   0  0  1  0  0  0  0  0  0  0  0  0
  -30.2928  -21.3958   19.2208 C   0  0  0  0  0  0  0  0  0  0  0  0
  -31.0195  -28.3221   20.9865 C   0  0  0  0  0  0  0  0  0  0  0  0
  -25.2360  -30.5065   18.6093 C   0  0  0  0  0  0  0  0  0  0  0  0
  -27.6559  -29.9912   18.2257 C   0  0  0  0  0  0  0  0  0  0  0  0
  -27.0003  -31.7108   19.9098 C   0  0  0  0  0  0  0  0  0  0  0  0
  -29.0820  -26.3152   23.5739 C   0  0  0  0  0  0  0  0  0  0  0  0
  -23.1174  -20.4423   20.5681 C   0  0  0  0  0  0  0  0  0  0  0  0
  -22.4785  -21.6242   21.2814 C   0  0  0  0  0  0  0  0  0  1  0  0
  -26.6019  -29.2658   20.4152 C   0  0  1  0  0  0  0  0  0  0  0  0
  -29.8518  -28.0115   21.9099 C   0  0  2  0  0  0  0  0  0  0  0  0
  -26.6057  -30.3484   19.2992 C   0  0  0  0  0  0  0  0  0  0  0  0
  -26.4814  -10.8565   20.2241 N   0  0  0  0  0  0  0  0  0  0  0  0
  -27.1657  -11.9861   20.4728 N   0  0  0  0  0  0  0  0  0  0  0  0
  -24.5860  -28.5703   21.6707 N   0  0  0  0  0  0  0  0  0  0  0  0
  -29.2210  -13.4921   17.6334 N   0  0  0  0  0  0  0  0  0  0  0  0
  -27.2260  -13.8856   21.8866 N   0  0  0  0  0  0  0  0  0  0  0  0
  -23.6376  -11.5871   23.3820 N   0  0  0  0  0  0  0  0  0  0  0  0
  -25.1541  -19.4729   19.7555 N   0  0  0  0  0  0  0  0  0  0  0  0
  -29.0665  -15.8292   17.9775 N   0  0  0  0  0  0  0  0  0  0  0  0
  -21.2111  -29.7667   22.3602 N   0  0  0  0  0  0  0  0  0  0  0  0
  -27.8787  -29.1134   21.1042 N   0  0  0  0  0  0  0  0  0  0  0  0
  -30.1383  -26.7303   22.6152 N   0  3  0  0  0  0  0  0  0  0  0  0
  -31.1899  -19.2337   19.2870 O   0  0  0  0  0  0  0  0  0  0  0  0
  -24.8899  -13.4847   23.6808 O   0  0  0  0  0  0  0  0  0  0  0  0
  -30.4504  -17.5862   17.3223 O   0  0  0  0  0  0  0  0  0  0  0  0
  -22.4980  -29.4041   20.4537 O   0  0  0  0  0  0  0  0  0  0  0  0
  -25.6522  -30.5903   22.1387 O   0  0  0  0  0  0  0  0  0  0  0  0
  -25.2397  -21.5580   20.8325 O   0  0  0  0  0  0  0  0  0  0  0  0
  -28.1659  -26.8654   20.6132 O   0  0  0  0  0  0  0  0  0  0  0  0
  -30.8091  -14.9389   16.7574 O   0  0  0  0  0  0  0  0  0  0  0  0
  -21.7519   -6.7483   21.3658 O   0  0  0  0  0  0  0  0  0  0  0  0
  -22.6969  -22.8116   20.5208 O   0  0  0  0  0  0  0  0  0  1  0  0
  -20.4835   -4.7053   26.3278 F   0  0  0  0  0  0  0  0  0  0  0  0
  -20.6709   -8.3644   23.3309 F   0  0  0  0  0  0  0  0  0  0  0  0
  -26.8608  -17.7661   18.6066 S   0  0  0  0  0  0  0  0  0  0  0  0
  1  2  1  0  0  0  0
  1  5  2  0  0  0  0
  2  6  2  0  0  0  0
  3  8  2  0  0  0  0
  3 16  1  0  0  0  0
  4  9  1  0  0  0  0
  4 16  2  0  0  0  0
  5 19  1  0  0  0  0
  6 21  1  0  0  0  0
  7 10  2  0  0  0  0
  7 20  1  0  0  0  0
  8 23  1  0  0  0  0
  9 23  2  0  0  0  0
 10 24  1  0  0  0  0
 11 12  2  0  0  0  0
 11 25  1  0  0  0  0
 12 26  1  0  0  0  0
 13 17  1  0  0  0  0
 13 31  2  0  0  0  0
 14 22  1  0  0  0  0
 14 24  2  0  0  0  0
 15 26  2  0  0  0  0
 15 27  1  0  0  0  0
 16 28  1  0  0  0  0
 17 29  2  0  0  0  0
 17 32  1  0  0  0  0
 18 28  1  0  0  0  0
 18 30  2  0  0  0  0
 18 33  1  0  0  0  0
 19 21  2  0  0  0  0
 19 40  1  0  0  0  0
 20 22  2  0  0  0  0
 20 41  1  0  0  0  0
 21 49  1  0  0  0  0
 22 42  1  0  0  0  0
 23 82  1  0  0  0  0
 24 83  1  0  0  0  0
 25 27  2  0  0  0  0
 25 82  1  0  0  0  0
 26 84  1  0  0  0  0
 27 85  1  0  0  0  0
 28 63  2  0  0  0  0
 29 34  1  0  0  0  0
 29 86  1  0  0  0  0
 30 64  1  0  0  0  0
 30 67  1  0  0  0  0
 31 69  1  0  0  0  0
 31 86  1  0  0  0  0
 32 52  1  0  0  0  0
 32 74  2  0  0  0  0
 33 68  1  0  0  0  0
 33 75  2  0  0  0  0
 34 70  1  0  0  0  0
 34 76  2  0  0  0  0
 35 50  1  0  0  0  0
 35 71  1  0  0  0  0
 35 77  2  0  0  0  0
 36 60  1  0  0  0  0
 36 65  1  0  0  0  0
 36 78  2  0  0  0  0
 37 58  1  0  0  0  0
 37 69  1  0  0  0  0
 37 79  2  0  0  0  0
 38 61  1  0  0  0  0
 38 72  1  0  0  0  0
 38 80  2  0  0  0  0
 39 66  1  0  0  0  0
 39 70  1  0  0  0  0
 39 81  2  0  0  0  0
 40 43  1  0  0  0  0
 41 50  1  0  0  0  0
 42 65  1  0  0  0  0
 43 45  1  0  0  0  0
 44 46  1  0  0  0  0
 44 47  1  0  0  0  0
 45 49  1  0  0  0  0
 46 51  1  0  0  0  0
 47 66  1  0  0  0  0
 48 51  1  0  0  0  0
 48 66  1  0  0  0  0
 49 71  1  0  0  0  0
 50 65  1  0  0  0  0
 51 64  1  0  0  0  0
 53 61  1  0  0  0  0
 54 62  1  0  0  0  0
 55 62  1  0  0  0  0
 56 62  1  0  0  0  0
 57 73  1  0  0  0  0
 58 59  1  0  0  0  0
 59 83  1  0  0  0  0
 60 62  1  0  0  0  0
 60 72  1  0  0  0  0
 61 73  1  0  0  0  0
 63 64  1  0  0  0  0
M  CHG  1  73   1
M  ISO  4  39 100  59 101  70 100  83 101
M  END
> <Batch ID>
0170

> <Smiles>
CNC(C)C(=O)NC(C(=O)N1Cc2cc([101O:1][101CH2:1]CC(=O)Nc3cc(C(C)=O)c(C(=O)[100NH:0][100C:0](=O)N4CCCC(n5nc(-c6ccc(Oc7ccc(F)cc7F)cc6)c(C(N)=O)c5N)C4)s3)ccc2CC1C(=O)NC1CCCc2ccccc21)C(C)(C)C

> <Shape>
0.284

> <Color>
0.099

> <Negative vol penalty>
0.000

$$$$

  -OEChem-04052304203D

 84 92  0     1  0  0  0  0  0999 V2000
  -19.5706  -28.5139   23.4712 C   0  0  0  0  0  0  0  0  0  0  0  0
  -19.6064  -27.2106   23.9565 C   0  0  0  0  0  0  0  0  0  0  0  0
  -30.3053  -22.5960   21.4877 C   0  0  0  0  0  0  0  0  0  0  0  0
  -28.9464  -22.3208   19.5092 C   0  0  0  0  0  0  0  0  0  0  0  0
  -19.3848  -28.7443   22.1087 C   0  0  0  0  0  0  0  0  0  0  0  0
  -19.4552  -26.1369   23.0797 C   0  0  0  0  0  0  0  0  0  0  0  0
  -22.1718  -20.6615   23.4615 C   0  0  0  0  0  0  0  0  0  0  0  0
  -30.7361  -23.8371   21.0192 C   0  0  0  0  0  0  0  0  0  0  0  0
  -29.3772  -23.5620   19.0406 C   0  0  0  0  0  0  0  0  0  0  0  0
  -21.7369  -19.4307   23.9511 C   0  0  0  0  0  0  0  0  0  0  0  0
  -29.5338  -26.9934   20.8589 C   0  0  0  0  0  0  0  0  0  0  0  0
  -29.5535  -28.0560   21.7622 C   0  0  0  0  0  0  0  0  0  0  0  0
  -21.1201  -18.7663   21.7157 C   0  0  0  0  0  0  0  0  0  0  0  0
  -31.9320  -28.3042   21.4185 C   0  0  0  0  0  0  0  0  0  0  0  0
  -29.4104  -21.8378   20.7327 C   0  0  0  0  0  0  0  0  0  0  0  0
  -27.8422  -20.2942   22.0233 C   0  0  0  0  0  0  0  0  0  0  0  0
  -19.2409  -27.6727   21.2134 C   0  0  0  0  0  0  0  0  0  0  0  0
  -22.0739  -20.9586   22.0946 C   0  0  0  0  0  0  0  0  0  0  0  0
  -19.2659  -26.3533   21.7042 C   0  0  0  0  0  0  0  0  0  0  0  0
  -21.5569  -20.0006   21.2109 C   0  0  0  0  0  0  0  0  0  0  0  0
  -30.2721  -24.3201   19.7957 C   0  0  0  0  0  0  0  0  0  0  0  0
  -21.2082  -18.4840   23.0786 C   0  0  0  0  0  0  0  0  0  0  0  0
  -30.7133  -26.5860   20.2355 C   0  0  0  0  0  0  0  0  0  0  0  0
  -30.7525  -28.7115   22.0420 C   0  0  0  0  0  0  0  0  0  0  0  0
  -31.9124  -27.2415   20.5153 C   0  0  0  0  0  0  0  0  0  0  0  0
  -28.9654  -20.5553   21.2158 C   0  0  0  0  0  0  0  0  0  0  0  0
  -27.8568  -18.9324   22.2017 C   0  0  0  0  0  0  0  0  0  0  0  0
  -24.0959  -12.3349   20.8346 C   0  0  0  0  0  0  0  0  0  0  0  0
  -26.0548  -13.0420   20.5543 C   0  0  0  0  0  0  0  0  0  0  0  0
  -26.8724  -21.2014   22.5638 C   0  0  0  0  0  0  0  0  0  0  0  0
  -21.0588  -14.9001   23.4702 C   0  0  0  0  0  0  0  0  0  0  0  0
  -21.1711  -13.6215   22.6926 C   0  0  0  0  0  0  0  0  0  0  0  0
  -20.5297  -23.1440   20.3790 C   0  0  0  0  0  0  0  0  0  0  0  0
  -22.2206  -21.8521   17.9307 C   0  0  0  0  0  0  0  0  0  0  0  0
  -23.8966  -19.1596   16.6704 C   0  0  0  0  0  0  0  0  0  0  0  0
  -28.4435  -13.7653   20.2118 C   0  0  0  0  0  0  0  0  0  0  0  0
  -18.9950  -27.9724   19.7559 C   0  0  0  0  0  0  0  0  0  0  0  0
  -22.5723  -22.2806   21.5784 C   0  0  0  0  0  0  0  0  0  0  0  0
  -21.4489  -20.2626   19.7316 C   0  0  0  0  0  0  0  0  0  0  0  0
  -19.2177  -26.7709   18.8410 C   0  0  0  0  0  0  0  0  0  0  0  0
  -31.4177  -15.5050   21.1089 C   0  0  0  0  0  0  0  0  0  0  0  0
  -18.5404  -25.5303   19.4146 C   0  0  0  0  0  0  0  0  0  0  0  0
  -30.9524  -16.9525   21.2832 C   0  0  0  0  0  0  0  0  0  0  0  0
  -30.6855  -14.8078   19.9637 C   0  0  0  0  0  0  0  0  0  0  0  0
  -28.7548  -16.3184   20.2083 C   0  0  0  0  0  0  0  0  0  0  0  0
  -19.1305  -25.1617   20.7811 C   0  0  1  0  0  0  0  0  0  0  0  0
  -21.9500  -22.6732   20.2419 C   0  0  1  0  0  0  0  0  0  0  0  0
  -29.4176  -17.0419   21.3919 C   0  0  2  0  0  0  0  0  0  0  0  0
  -21.8235  -12.4759   19.7352 C   0  0  0  0  0  0  0  0  0  0  0  0
  -25.1376  -18.3906   14.6293 C   0  0  0  0  0  0  0  0  0  0  0  0
  -19.5712  -21.4757   16.4647 C   0  0  0  0  0  0  0  0  0  0  0  0
  -20.7335  -19.8883   14.9162 C   0  0  0  0  0  0  0  0  0  0  0  0
  -21.4552  -22.2736   15.0264 C   0  0  0  0  0  0  0  0  0  0  0  0
  -26.3977  -18.7568   18.2005 C   0  0  0  0  0  0  0  0  0  0  0  0
  -20.8762  -16.1645   22.6716 C   0  0  0  0  0  0  0  0  0  1  0  0
  -22.6015  -12.4424   21.0491 C   0  0  2  0  0  0  0  0  0  0  0  0
  -21.9933  -20.7257   16.9516 C   0  0  1  0  0  0  0  0  0  0  0  0
  -25.2529  -19.0414   15.9989 C   0  0  2  0  0  0  0  0  0  0  0  0
  -20.9384  -21.0863   15.8678 C   0  0  0  0  0  0  0  0  0  0  0  0
  -29.6442  -19.4483   20.9030 N   0  0  0  0  0  0  0  0  0  0  0  0
  -24.8508  -11.2671   20.7221 N   0  0  0  0  0  0  0  0  0  0  0  0
  -26.1395  -11.7323   20.5378 N   0  0  0  0  0  0  0  0  0  0  0  0
  -28.9456  -18.4784   21.5172 N   0  0  0  0  0  0  0  0  0  0  0  0
  -21.9437  -21.5723   19.2764 N   0  0  0  0  0  0  0  0  0  0  0  0
  -29.2363  -14.9300   20.1360 N   0  0  0  0  0  0  0  0  0  0  0  0
  -27.0444  -18.0910   22.8759 N   0  0  0  0  0  0  0  0  0  0  0  0
  -27.0063  -22.5679   22.2826 N   0  0  0  0  0  0  0  0  0  0  0  0
  -27.0840  -14.0050   20.4089 N   0  0  0  0  0  0  0  0  0  0  0  0
  -22.2701  -13.5870   21.8654 N   0  0  0  0  0  0  0  0  0  0  0  0
  -20.4069  -24.4994   20.6184 N   0  0  0  0  0  0  0  0  0  0  0  0
  -23.3054  -20.3791   16.4163 N   0  0  0  0  0  0  0  0  0  0  0  0
  -26.1743  -18.2197   16.8336 N   0  3  0  0  0  0  0  0  0  0  0  0
  -25.9248  -20.8137   23.2885 O   0  0  0  0  0  0  0  0  0  0  0  0
  -21.1014  -14.8249   24.6891 O   0  0  0  0  0  0  0  0  0  0  0  0
  -20.3260  -12.7619   22.8859 O   0  0  0  0  0  0  0  0  0  0  0  0
  -19.6131  -22.3376   20.2737 O   0  0  0  0  0  0  0  0  0  0  0  0
  -22.6356  -22.9378   17.5177 O   0  0  0  0  0  0  0  0  0  0  0  0
  -23.4086  -18.2586   17.3491 O   0  0  0  0  0  0  0  0  0  0  0  0
  -28.9381  -12.6376   20.1367 O   0  0  0  0  0  0  0  0  0  0  0  0
  -24.7876  -13.5033   20.7388 O   0  0  0  0  0  0  0  0  0  0  0  0
  -30.6921  -25.5313   19.3383 O   0  0  0  0  0  0  0  0  0  0  0  0
  -20.7823  -17.2821   23.5540 O   0  0  0  0  0  0  0  0  0  1  0  0
  -30.7709  -29.7329   22.9083 F   0  0  0  0  0  0  0  0  0  0  0  0
  -33.0485  -26.8554   19.9186 F   0  0  0  0  0  0  0  0  0  0  0  0
  1  2  1  0  0  0  0
  1  5  2  0  0  0  0
  2  6  2  0  0  0  0
  3  8  2  0  0  0  0
  3 15  1  0  0  0  0
  4  9  1  0  0  0  0
  4 15  2  0  0  0  0
  5 17  1  0  0  0  0
  6 19  1  0  0  0  0
  7 10  2  0  0  0  0
  7 18  1  0  0  0  0
  8 21  1  0  0  0  0
  9 21  2  0  0  0  0
 10 22  1  0  0  0  0
 11 12  2  0  0  0  0
 11 23  1  0  0  0  0
 12 24  1  0  0  0  0
 13 20  1  0  0  0  0
 13 22  2  0  0  0  0
 14 24  2  0  0  0  0
 14 25  1  0  0  0  0
 15 26  1  0  0  0  0
 16 26  1  0  0  0  0
 16 27  2  0  0  0  0
 16 30  1  0  0  0  0
 17 19  2  0  0  0  0
 17 37  1  0  0  0  0
 18 20  2  0  0  0  0
 18 38  1  0  0  0  0
 19 46  1  0  0  0  0
 20 39  1  0  0  0  0
 21 81  1  0  0  0  0
 22 82  1  0  0  0  0
 23 25  2  0  0  0  0
 23 81  1  0  0  0  0
 24 83  1  0  0  0  0
 25 84  1  0  0  0  0
 26 60  2  0  0  0  0
 27 63  1  0  0  0  0
 27 66  1  0  0  0  0
 28 56  1  0  0  0  0
 28 61  2  0  0  0  0
 28 80  1  0  0  0  0
 29 62  2  0  0  0  0
 29 68  1  0  0  0  0
 29 80  1  0  0  0  0
 30 67  1  0  0  0  0
 30 73  2  0  0  0  0
 31 32  1  0  0  0  0
 31 55  1  0  0  0  0
 31 74  2  0  0  0  0
 32 69  1  0  0  0  0
 32 75  2  0  0  0  0
 33 47  1  0  0  0  0
 33 70  1  0  0  0  0
 33 76  2  0  0  0  0
 34 57  1  0  0  0  0
 34 64  1  0  0  0  0
 34 77  2  0  0  0  0
 35 58  1  0  0  0  0
 35 71  1  0  0  0  0
 35 78  2  0  0  0  0
 36 65  1  0  0  0  0
 36 68  1  0  0  0  0
 36 79  2  0  0  0  0
 37 40  1  0  0  0  0
 38 47  1  0  0  0  0
 39 64  1  0  0  0  0
 40 42  1  0  0  0  0
 41 43  1  0  0  0  0
 41 44  1  0  0  0  0
 42 46  1  0  0  0  0
 43 48  1  0  0  0  0
 44 65  1  0  0  0  0
 45 48  1  0  0  0  0
 45 65  1  0  0  0  0
 46 70  1  0  0  0  0
 47 64  1  0  0  0  0
 48 63  1  0  0  0  0
 49 56  1  0  0  0  0
 50 58  1  0  0  0  0
 51 59  1  0  0  0  0
 52 59  1  0  0  0  0
 53 59  1  0  0  0  0
 54 72  1  0  0  0  0
 55 82  1  0  0  0  0
 56 69  1  0  0  0  0
 57 59  1  0  0  0  0
 57 71  1  0  0  0  0
 58 72  1  0  0  0  0
 60 63  1  0  0  0  0
 61 62  1  0  0  0  0
M  CHG  1  72   1
M  ISO  4  36 100  55 101  68 100  82 101
M  END
> <Batch ID>
0170

> <Smiles>
CNC(C)C(=O)NC(C(=O)N1Cc2cc([101O:1][101CH2:1]C(=O)C(=O)NC(C)c3nnc([100NH:0][100C:0](=O)N4CCCC(n5nc(-c6ccc(Oc7ccc(F)cc7F)cc6)c(C(N)=O)c5N)C4)o3)ccc2CC1C(=O)NC1CCCc2ccccc21)C(C)(C)C

> <Shape>
0.206

> <Color>
0.086

> <Negative vol penalty>
0.000

$$$$

  -OEChem-04052304203D

 84 92  0     1  0  0  0  0  0999 V2000
  -27.8950  -34.5404   24.0785 C   0  0  0  0  0  0  0  0  0  0  0  0
  -28.0678  -33.1958   23.7659 C   0  0  0  0  0  0  0  0  0  0  0  0
  -23.4375  -10.0006   22.3164 C   0  0  0  0  0  0  0  0  0  0  0  0
  -23.3367   -9.7636   19.9142 C   0  0  0  0  0  0  0  0  0  0  0  0
  -26.6347  -35.0144   24.4404 C   0  0  0  0  0  0  0  0  0  0  0  0
  -26.9806  -32.3242   23.8160 C   0  0  0  0  0  0  0  0  0  0  0  0
  -26.7700  -29.2480   19.7989 C   0  0  0  0  0  0  0  0  0  0  0  0
  -22.6741   -8.8424   22.4627 C   0  0  0  0  0  0  0  0  0  0  0  0
  -22.5733   -8.6054   20.0605 C   0  0  0  0  0  0  0  0  0  0  0  0
  -27.6361  -28.1555   19.7874 C   0  0  0  0  0  0  0  0  0  0  0  0
  -23.1662   -5.5001   22.3212 C   0  0  0  0  0  0  0  0  0  0  0  0
  -23.5791   -4.5675   23.2726 C   0  0  0  0  0  0  0  0  0  0  0  0
  -25.8330  -26.7262   20.5120 C   0  0  0  0  0  0  0  0  0  0  0  0
  -27.6620  -19.5098   17.9977 C   0  0  0  0  0  0  0  0  0  0  0  0
  -21.4714   -4.8130   24.4278 C   0  0  0  0  0  0  0  0  0  0  0  0
  -29.8072  -18.1914   16.7966 C   0  0  0  0  0  0  0  0  0  0  0  0
  -23.7688  -10.4612   21.0422 C   0  0  0  0  0  0  0  0  0  0  0  0
  -25.9601  -11.7487   20.8223 C   0  0  0  0  0  0  0  0  0  0  0  0
  -25.5295  -34.1500   24.4856 C   0  0  0  0  0  0  0  0  0  0  0  0
  -25.4293  -29.0895   20.1781 C   0  0  0  0  0  0  0  0  0  0  0  0
  -25.7046  -32.7868   24.1801 C   0  0  0  0  0  0  0  0  0  0  0  0
  -24.9513  -27.8178   20.5249 C   0  0  0  0  0  0  0  0  0  0  0  0
  -27.5208  -18.1874   17.5774 C   0  0  0  0  0  0  0  0  0  0  0  0
  -28.8758  -20.1732   17.8174 C   0  0  0  0  0  0  0  0  0  0  0  0
  -22.2420   -8.1448   21.3348 C   0  0  0  0  0  0  0  0  0  0  0  0
  -27.1684  -26.8949   20.1468 C   0  0  0  0  0  0  0  0  0  0  0  0
  -21.9060   -6.0893   22.4230 C   0  0  0  0  0  0  0  0  0  0  0  0
  -22.7317   -4.2239   24.3259 C   0  0  0  0  0  0  0  0  0  0  0  0
  -28.5934  -17.5281   16.9769 C   0  0  0  0  0  0  0  0  0  0  0  0
  -29.9483  -19.5139   17.2169 C   0  0  0  0  0  0  0  0  0  0  0  0
  -21.0585   -5.7457   23.4763 C   0  0  0  0  0  0  0  0  0  0  0  0
  -24.5569  -11.6579   20.8904 C   0  0  0  0  0  0  0  0  0  0  0  0
  -26.2106  -13.0915   20.6785 C   0  0  0  0  0  0  0  0  0  0  0  0
  -26.9486  -10.7120   20.8835 C   0  0  0  0  0  0  0  0  0  0  0  0
  -23.6090  -30.2380   22.5171 C   0  0  0  0  0  0  0  0  0  0  0  0
  -28.4526  -23.6376   19.1960 C   0  0  0  0  0  0  0  0  0  0  0  0
  -21.2494  -28.6993   20.9087 C   0  0  0  0  0  0  0  0  0  0  0  0
  -20.3631  -26.2182   18.7396 C   0  0  0  0  0  0  0  0  0  0  0  0
  -25.1247  -18.0258   18.3384 C   0  0  0  0  0  0  0  0  0  0  0  0
  -24.1963  -34.6990   24.9281 C   0  0  0  0  0  0  0  0  0  0  0  0
  -24.5013  -30.2731   20.1595 C   0  0  0  0  0  0  0  0  0  0  0  0
  -23.5158  -27.5908   20.9203 C   0  0  0  0  0  0  0  0  0  0  0  0
  -23.0200  -33.7853   24.5937 C   0  0  0  0  0  0  0  0  0  0  0  0
  -23.1330  -17.0841   21.1354 C   0  0  0  0  0  0  0  0  0  0  0  0
  -23.3364  -32.3442   24.9812 C   0  0  0  0  0  0  0  0  0  0  0  0
  -23.4413  -15.5959   21.3154 C   0  0  0  0  0  0  0  0  0  0  0  0
  -23.0926  -17.4806   19.6607 C   0  0  0  0  0  0  0  0  0  0  0  0
  -24.5894  -15.6170   19.0641 C   0  0  0  0  0  0  0  0  0  0  0  0
  -24.5445  -31.8151   24.1989 C   0  0  1  0  0  0  0  0  0  0  0  0
  -23.2820  -30.0906   21.0580 C   0  0  1  0  0  0  0  0  0  0  0  0
  -24.7047  -15.1837   20.5347 C   0  0  2  0  0  0  0  0  0  0  0  0
  -18.3564  -25.1812   17.6463 C   0  0  0  0  0  0  0  0  0  0  0  0
  -20.5511  -27.2964   23.5268 C   0  0  0  0  0  0  0  0  0  0  0  0
  -19.2309  -25.6321   22.2020 C   0  0  0  0  0  0  0  0  0  0  0  0
  -18.5773  -28.0394   22.1826 C   0  0  0  0  0  0  0  0  0  0  0  0
  -21.3499  -26.8851   16.0303 C   0  0  0  0  0  0  0  0  0  0  0  0
  -27.9609  -22.2444   18.8656 C   0  0  0  0  0  0  0  0  0  0  0  0
  -27.4392  -24.5496   19.8597 C   0  0  0  0  0  0  0  0  0  1  0  0
  -20.6592  -27.3103   20.9473 C   0  0  1  0  0  0  0  0  0  0  0  0
  -19.4585  -26.2216   17.5205 C   0  0  2  0  0  0  0  0  0  0  0  0
  -19.7822  -27.0739   22.2091 C   0  0  0  0  0  0  0  0  0  0  0  0
  -23.9580  -12.8482   20.7976 N   0  0  0  0  0  0  0  0  0  0  0  0
  -24.9899  -13.6996   20.6699 N   0  0  0  0  0  0  0  0  0  0  0  0
  -22.6491  -28.7805   20.8926 N   0  0  0  0  0  0  0  0  0  0  0  0
  -24.3235  -17.0620   18.9865 N   0  0  0  0  0  0  0  0  0  0  0  0
  -27.3539  -13.7995   20.5600 N   0  0  0  0  0  0  0  0  0  0  0  0
  -26.5183   -9.3865   21.0331 N   0  0  0  0  0  0  0  0  0  0  0  0
  -26.2868  -17.5155   17.7608 N   0  0  0  0  0  0  0  0  0  0  0  0
  -29.0138  -21.4885   18.2369 N   0  0  0  0  0  0  0  0  0  0  0  0
  -24.1578  -31.4618   22.8498 N   0  0  0  0  0  0  0  0  0  0  0  0
  -19.9499  -27.1331   19.6848 N   0  0  0  0  0  0  0  0  0  0  0  0
  -20.2459  -25.9257   16.2903 N   0  3  0  0  0  0  0  0  0  0  0  0
  -28.1777  -10.9555   20.8243 O   0  0  0  0  0  0  0  0  0  0  0  0
  -23.3791  -29.3107   23.2845 O   0  0  0  0  0  0  0  0  0  0  0  0
  -29.5966  -24.0159   18.9469 O   0  0  0  0  0  0  0  0  0  0  0  0
  -20.4963  -29.6760   20.8864 O   0  0  0  0  0  0  0  0  0  0  0  0
  -21.3366  -25.4753   18.8445 O   0  0  0  0  0  0  0  0  0  0  0  0
  -24.8174  -19.2205   18.3223 O   0  0  0  0  0  0  0  0  0  0  0  0
  -21.4972   -7.0145   21.4772 O   0  0  0  0  0  0  0  0  0  0  0  0
  -28.0117  -25.8269   20.1371 O   0  0  0  0  0  0  0  0  0  1  0  0
  -23.1277   -3.3271   25.2387 F   0  0  0  0  0  0  0  0  0  0  0  0
  -28.4692  -16.2565   16.5709 F   0  0  0  0  0  0  0  0  0  0  0  0
  -31.1189  -20.1424   17.0376 F   0  0  0  0  0  0  0  0  0  0  0  0
  -19.8462   -6.3074   23.5788 F   0  0  0  0  0  0  0  0  0  0  0  0
  1  2  1  0  0  0  0
  1  5  2  0  0  0  0
  2  6  2  0  0  0  0
  3  8  2  0  0  0  0
  3 17  1  0  0  0  0
  4  9  1  0  0  0  0
  4 17  2  0  0  0  0
  5 19  1  0  0  0  0
  6 21  1  0  0  0  0
  7 10  2  0  0  0  0
  7 20  1  0  0  0  0
  8 25  1  0  0  0  0
  9 25  2  0  0  0  0
 10 26  1  0  0  0  0
 11 12  2  0  0  0  0
 11 27  1  0  0  0  0
 12 28  1  0  0  0  0
 13 22  1  0  0  0  0
 13 26  2  0  0  0  0
 14 23  2  0  0  0  0
 14 24  1  0  0  0  0
 15 28  2  0  0  0  0
 15 31  1  0  0  0  0
 16 29  2  0  0  0  0
 16 30  1  0  0  0  0
 17 32  1  0  0  0  0
 18 32  1  0  0  0  0
 18 33  2  0  0  0  0
 18 34  1  0  0  0  0
 19 21  2  0  0  0  0
 19 40  1  0  0  0  0
 20 22  2  0  0  0  0
 20 41  1  0  0  0  0
 21 49  1  0  0  0  0
 22 42  1  0  0  0  0
 23 29  1  0  0  0  0
 23 68  1  0  0  0  0
 24 30  2  0  0  0  0
 24 69  1  0  0  0  0
 25 79  1  0  0  0  0
 26 80  1  0  0  0  0
 27 31  2  0  0  0  0
 27 79  1  0  0  0  0
 28 81  1  0  0  0  0
 29 82  1  0  0  0  0
 30 83  1  0  0  0  0
 31 84  1  0  0  0  0
 32 62  2  0  0  0  0
 33 63  1  0  0  0  0
 33 66  1  0  0  0  0
 34 67  1  0  0  0  0
 34 73  2  0  0  0  0
 35 50  1  0  0  0  0
 35 70  1  0  0  0  0
 35 74  2  0  0  0  0
 36 57  1  0  0  0  0
 36 58  1  0  0  0  0
 36 75  2  0  0  0  0
 37 59  1  0  0  0  0
 37 64  1  0  0  0  0
 37 76  2  0  0  0  0
 38 60  1  0  0  0  0
 38 71  1  0  0  0  0
 38 77  2  0  0  0  0
 39 65  1  0  0  0  0
 39 68  1  0  0  0  0
 39 78  2  0  0  0  0
 40 43  1  0  0  0  0
 41 50  1  0  0  0  0
 42 64  1  0  0  0  0
 43 45  1  0  0  0  0
 44 46  1  0  0  0  0
 44 47  1  0  0  0  0
 45 49  1  0  0  0  0
 46 51  1  0  0  0  0
 47 65  1  0  0  0  0
 48 51  1  0  0  0  0
 48 65  1  0  0  0  0
 49 70  1  0  0  0  0
 50 64  1  0  0  0  0
 51 63  1  0  0  0  0
 52 60  1  0  0  0  0
 53 61  1  0  0  0  0
 54 61  1  0  0  0  0
 55 61  1  0  0  0  0
 56 72  1  0  0  0  0
 57 69  1  0  0  0  0
 58 80  1  0  0  0  0
 59 61  1  0  0  0  0
 59 71  1  0  0  0  0
 60 72  1  0  0  0  0
 62 63  1  0  0  0  0
M  CHG  1  72   1
M  ISO  4  39 100  58 101  68 100  80 101
M  END
> <Batch ID>
0170

> <Smiles>
CNC(C)C(=O)NC(C(=O)N1Cc2cc([101O:1][101CH2:1]C(=O)CNc3cc([100NH:0][100C:0](=O)N4CCCC(n5nc(-c6ccc(Oc7ccc(F)cc7F)cc6)c(C(N)=O)c5N)C4)c(F)cc3F)ccc2CC1C(=O)NC1CCCc2ccccc21)C(C)(C)C

> <Shape>
0.299

> <Color>
0.119

> <Negative vol penalty>
0.000

$$$$

  -OEChem-04052304203D

 87 96  0     1  0  0  0  0  0999 V2000
  -19.1267  -31.8262   21.6070 C   0  0  0  0  0  0  0  0  0  0  0  0
  -20.2940  -31.0974   21.8115 C   0  0  0  0  0  0  0  0  0  0  0  0
  -23.0316   -9.8889   20.6606 C   0  0  0  0  0  0  0  0  0  0  0  0
  -23.6877  -10.4568   22.9154 C   0  0  0  0  0  0  0  0  0  0  0  0
  -17.9223  -31.3772   22.1471 C   0  0  0  0  0  0  0  0  0  0  0  0
  -20.2577  -29.9198   22.5573 C   0  0  0  0  0  0  0  0  0  0  0  0
  -23.6288  -24.8868   21.6571 C   0  0  0  0  0  0  0  0  0  0  0  0
  -22.2586   -8.8363   21.1506 C   0  0  0  0  0  0  0  0  0  0  0  0
  -22.9147   -9.4042   23.4054 C   0  0  0  0  0  0  0  0  0  0  0  0
  -24.7957  -24.4192   22.2600 C   0  0  0  0  0  0  0  0  0  0  0  0
  -19.6502   -8.7946   24.0313 C   0  0  0  0  0  0  0  0  0  0  0  0
  -18.8408   -9.0477   25.1388 C   0  0  0  0  0  0  0  0  0  0  0  0
  -32.0007  -17.0227   21.9566 C   0  0  0  0  0  0  0  0  0  0  0  0
  -23.4740  -23.0486   23.7412 C   0  0  0  0  0  0  0  0  0  0  0  0
  -29.8092  -17.9985   22.2138 C   0  0  0  0  0  0  0  0  0  0  0  0
  -20.0162   -7.3455   26.3869 C   0  0  0  0  0  0  0  0  0  0  0  0
  -23.7462  -10.6991   21.5430 C   0  0  0  0  0  0  0  0  0  0  0  0
  -24.1342  -13.1153   20.8225 C   0  0  0  0  0  0  0  0  0  0  0  0
  -17.8695  -30.1883   22.8918 C   0  0  0  0  0  0  0  0  0  0  0  0
  -22.3732  -24.4463   22.0998 C   0  0  0  0  0  0  0  0  0  0  0  0
  -19.0517  -29.4552   23.1091 C   0  0  0  0  0  0  0  0  0  0  0  0
  -32.5779  -18.0970   22.6505 C   0  0  0  0  0  0  0  0  0  0  0  0
  -22.2928  -23.5102   23.1406 C   0  0  0  0  0  0  0  0  0  0  0  0
  -31.7570  -19.1440   23.1090 C   0  0  0  0  0  0  0  0  0  0  0  0
  -30.6236  -16.9730   21.7424 C   0  0  0  0  0  0  0  0  0  0  0  0
  -30.3717  -19.0770   22.8958 C   0  0  0  0  0  0  0  0  0  0  0  0
  -22.2001   -8.5940   22.5230 C   0  0  0  0  0  0  0  0  0  0  0  0
  -24.7183  -23.5021   23.3041 C   0  0  0  0  0  0  0  0  0  0  0  0
  -20.6425   -7.8168   24.1016 C   0  0  0  0  0  0  0  0  0  0  0  0
  -19.0238   -8.3232   26.3166 C   0  0  0  0  0  0  0  0  0  0  0  0
  -20.8255   -7.0923   25.2794 C   0  0  0  0  0  0  0  0  0  0  0  0
  -24.5454  -11.7862   21.0373 C   0  0  0  0  0  0  0  0  0  0  0  0
  -25.2536  -13.7471   20.3385 C   0  0  0  0  0  0  0  0  0  0  0  0
  -26.4405  -21.9213   23.3810 C   0  0  0  0  0  0  0  0  0  1  0  0
  -22.8547  -13.7244   21.0409 C   0  0  0  0  0  0  0  0  0  0  0  0
  -27.5594  -21.3846   23.8823 C   0  0  0  0  0  0  0  0  0  0  0  0
  -28.1228  -20.1498   23.2450 C   0  0  0  0  0  0  0  0  0  0  0  0
  -19.8260  -25.8524   23.3798 C   0  0  0  0  0  0  0  0  0  0  0  0
  -18.5177  -22.9021   23.0530 C   0  0  0  0  0  0  0  0  0  0  0  0
  -18.9973  -19.5346   22.7769 C   0  0  0  0  0  0  0  0  0  0  0  0
  -30.7227  -14.7778   20.5106 C   0  0  0  0  0  0  0  0  0  0  0  0
  -16.5530  -29.7679   23.4957 C   0  0  0  0  0  0  0  0  0  0  0  0
  -21.1249  -24.9400   21.4212 C   0  0  0  0  0  0  0  0  0  0  0  0
  -34.0747  -18.1311   22.8331 C   0  0  0  0  0  0  0  0  0  0  0  0
  -32.3235  -20.3099   23.8802 C   0  0  0  0  0  0  0  0  0  0  0  0
  -20.9700  -22.9905   23.6394 C   0  0  0  0  0  0  0  0  0  0  0  0
  -16.5317  -28.3132   23.9577 C   0  0  0  0  0  0  0  0  0  0  0  0
  -34.5291  -19.1206   23.9044 C   0  0  0  0  0  0  0  0  0  0  0  0
  -33.8346  -20.4634   23.7179 C   0  0  0  0  0  0  0  0  0  0  0  0
  -29.6767  -11.8604   18.7579 C   0  0  0  0  0  0  0  0  0  0  0  0
  -17.7917  -27.9872   24.7532 C   0  0  0  0  0  0  0  0  0  0  0  0
  -28.2146  -11.6904   19.1770 C   0  0  0  0  0  0  0  0  0  0  0  0
  -30.5405  -12.3737   19.9086 C   0  0  0  0  0  0  0  0  0  0  0  0
  -28.5854  -13.4250   20.9772 C   0  0  0  0  0  0  0  0  0  0  0  0
  -19.0483  -28.1598   23.8915 C   0  0  1  0  0  0  0  0  0  0  0  0
  -19.8804  -24.8145   22.2946 C   0  0  1  0  0  0  0  0  0  0  0  0
  -27.6638  -12.9716   19.8332 C   0  0  2  0  0  0  0  0  0  0  0  0
  -17.7354  -17.3761   22.5624 C   0  0  0  0  0  0  0  0  0  0  0  0
  -17.8055  -23.0267   26.0174 C   0  0  0  0  0  0  0  0  0  0  0  0
  -17.4342  -20.5514   25.9607 C   0  0  0  0  0  0  0  0  0  0  0  0
  -16.0236  -22.0548   24.5563 C   0  0  0  0  0  0  0  0  0  0  0  0
  -20.2424  -18.9323   20.1604 C   0  0  0  0  0  0  0  0  0  0  0  0
  -18.4384  -21.6662   23.9163 C   0  0  1  0  0  0  0  0  0  0  0  0
  -18.4206  -18.5104   21.8163 C   0  0  2  0  0  0  0  0  0  0  0  0
  -17.4504  -21.8358   25.1048 C   0  0  0  0  0  0  0  0  0  0  0  0
  -25.8260  -11.5844   20.7161 N   0  0  0  0  0  0  0  0  0  0  0  0
  -26.2292  -12.7950   20.2943 N   0  0  0  0  0  0  0  0  0  0  0  0
  -19.7777  -23.5080   22.9478 N   0  0  0  0  0  0  0  0  0  0  0  0
  -29.9595  -13.5915   20.4781 N   0  0  0  0  0  0  0  0  0  0  0  0
  -25.4887  -15.0186   19.9506 N   0  0  0  0  0  0  0  0  0  0  0  0
  -21.8140  -12.9310   21.5427 N   0  0  0  0  0  0  0  0  0  0  0  0
  -29.5039  -20.0895   23.3713 N   0  0  0  0  0  0  0  0  0  0  0  0
  -30.0543  -15.8789   21.0448 N   0  0  0  0  0  0  0  0  0  0  0  0
  -19.2100  -27.0301   23.0016 N   0  0  0  0  0  0  0  0  0  0  0  0
  -18.1111  -20.5626   23.0200 N   0  0  0  0  0  0  0  0  0  0  0  0
  -19.4999  -17.9305   20.9680 N   0  3  0  0  0  0  0  0  0  0  0  0
  -22.6362  -14.9323   20.7827 O   0  0  0  0  0  0  0  0  0  0  0  0
  -27.3903  -19.3340   22.6957 O   0  0  0  0  0  0  0  0  0  0  0  0
  -20.3059  -25.6026   24.4793 O   0  0  0  0  0  0  0  0  0  0  0  0
  -17.5007  -23.3107   22.4870 O   0  0  0  0  0  0  0  0  0  0  0  0
  -20.1201  -19.4309   23.2659 O   0  0  0  0  0  0  0  0  0  0  0  0
  -31.8742  -14.8208   20.0701 O   0  0  0  0  0  0  0  0  0  0  0  0
  -28.2204  -21.9247   24.9668 O   0  0  0  0  0  0  0  0  0  0  0  0
  -21.4457   -7.5671   23.0015 O   0  0  0  0  0  0  0  0  0  0  0  0
  -25.8557  -23.0446   23.8948 O   0  0  0  0  0  0  0  0  0  1  0  0
  -18.2476   -8.5675   27.3805 F   0  0  0  0  0  0  0  0  0  0  0  0
  -21.7780   -6.1525   25.3533 F   0  0  0  0  0  0  0  0  0  0  0  0
  1  2  1  0  0  0  0
  1  5  2  0  0  0  0
  2  6  2  0  0  0  0
  3  8  2  0  0  0  0
  3 17  1  0  0  0  0
  4  9  1  0  0  0  0
  4 17  2  0  0  0  0
  5 19  1  0  0  0  0
  6 21  1  0  0  0  0
  7 10  2  0  0  0  0
  7 20  1  0  0  0  0
  8 27  1  0  0  0  0
  9 27  2  0  0  0  0
 10 28  1  0  0  0  0
 11 12  2  0  0  0  0
 11 29  1  0  0  0  0
 12 30  1  0  0  0  0
 13 22  2  0  0  0  0
 13 25  1  0  0  0  0
 14 23  1  0  0  0  0
 14 28  2  0  0  0  0
 15 25  2  0  0  0  0
 15 26  1  0  0  0  0
 16 30  2  0  0  0  0
 16 31  1  0  0  0  0
 17 32  1  0  0  0  0
 18 32  1  0  0  0  0
 18 33  2  0  0  0  0
 18 35  1  0  0  0  0
 19 21  2  0  0  0  0
 19 42  1  0  0  0  0
 20 23  2  0  0  0  0
 20 43  1  0  0  0  0
 21 55  1  0  0  0  0
 22 24  1  0  0  0  0
 22 44  1  0  0  0  0
 23 46  1  0  0  0  0
 24 26  2  0  0  0  0
 24 45  1  0  0  0  0
 25 73  1  0  0  0  0
 26 72  1  0  0  0  0
 27 84  1  0  0  0  0
 28 85  1  0  0  0  0
 29 31  2  0  0  0  0
 29 84  1  0  0  0  0
 30 86  1  0  0  0  0
 31 87  1  0  0  0  0
 32 66  2  0  0  0  0
 33 67  1  0  0  0  0
 33 70  1  0  0  0  0
 34 36  2  0  0  0  0
 34 85  1  0  0  0  0
 35 71  1  0  0  0  0
 35 77  2  0  0  0  0
 36 37  1  0  0  0  0
 36 83  1  0  0  0  0
 37 72  1  0  0  0  0
 37 78  2  0  0  0  0
 38 56  1  0  0  0  0
 38 74  1  0  0  0  0
 38 79  2  0  0  0  0
 39 63  1  0  0  0  0
 39 68  1  0  0  0  0
 39 80  2  0  0  0  0
 40 64  1  0  0  0  0
 40 75  1  0  0  0  0
 40 81  2  0  0  0  0
 41 69  1  0  0  0  0
 41 73  1  0  0  0  0
 41 82  2  0  0  0  0
 42 47  1  0  0  0  0
 43 56  1  0  0  0  0
 44 48  1  0  0  0  0
 45 49  1  0  0  0  0
 46 68  1  0  0  0  0
 47 51  1  0  0  0  0
 48 49  1  0  0  0  0
 50 52  1  0  0  0  0
 50 53  1  0  0  0  0
 51 55  1  0  0  0  0
 52 57  1  0  0  0  0
 53 69  1  0  0  0  0
 54 57  1  0  0  0  0
 54 69  1  0  0  0  0
 55 74  1  0  0  0  0
 56 68  1  0  0  0  0
 57 67  1  0  0  0  0
 58 64  1  0  0  0  0
 59 65  1  0  0  0  0
 60 65  1  0  0  0  0
 61 65  1  0  0  0  0
 62 76  1  0  0  0  0
 63 65  1  0  0  0  0
 63 75  1  0  0  0  0
 64 76  1  0  0  0  0
 66 67  1  0  0  0  0
M  CHG  1  76   1
M  ISO  4  34 101  41 100  73 100  85 101
M  END
> <Batch ID>
0170

> <Smiles>
CNC(C)C(=O)NC(C(=O)N1Cc2cc([101O:1][101CH2:1]C(=O)C(=O)Nc3cc([100NH:0][100C:0](=O)N4CCCC(n5nc(-c6ccc(Oc7ccc(F)cc7F)cc6)c(C(N)=O)c5N)C4)cc4c3CCCC4)ccc2CC1C(=O)NC1CCCc2ccccc21)C(C)(C)C

> <Shape>
0.204

> <Color>
0.166

> <Negative vol penalty>
0.000

$$$$

  -OEChem-04052304203D

 85 93  0     1  0  0  0  0  0999 V2000
  -25.5447  -34.5683   27.1176 C   0  0  0  0  0  0  0  0  0  0  0  0
  -26.1851  -33.4464   26.6011 C   0  0  0  0  0  0  0  0  0  0  0  0
  -24.5588   -9.0612   21.5527 C   0  0  0  0  0  0  0  0  0  0  0  0
  -24.0634  -10.6264   23.3252 C   0  0  0  0  0  0  0  0  0  0  0  0
  -24.1622  -34.6991   26.9938 C   0  0  0  0  0  0  0  0  0  0  0  0
  -25.4431  -32.4541   25.9614 C   0  0  0  0  0  0  0  0  0  0  0  0
  -27.5952  -30.8930   21.6514 C   0  0  0  0  0  0  0  0  0  0  0  0
  -26.9377  -21.7188   20.3485 C   0  0  0  0  0  0  0  0  0  0  0  0
  -24.1994   -8.0027   22.3870 C   0  0  0  0  0  0  0  0  0  0  0  0
  -23.7040   -9.5679   24.1595 C   0  0  0  0  0  0  0  0  0  0  0  0
  -28.6691  -30.0104   21.7592 C   0  0  0  0  0  0  0  0  0  0  0  0
  -21.3487   -6.5515   23.4826 C   0  0  0  0  0  0  0  0  0  0  0  0
  -25.8899  -20.8595   20.0181 C   0  0  0  0  0  0  0  0  0  0  0  0
  -20.5344   -5.5528   22.9486 C   0  0  0  0  0  0  0  0  0  0  0  0
  -27.1961  -28.1667   21.2586 C   0  0  0  0  0  0  0  0  0  0  0  0
  -28.4653  -19.8472   20.3720 C   0  0  0  0  0  0  0  0  0  0  0  0
  -22.2508   -3.9130   23.3979 C   0  0  0  0  0  0  0  0  0  0  0  0
  -24.4908  -10.3731   22.0218 C   0  0  0  0  0  0  0  0  0  0  0  0
  -24.0223  -12.1869   20.2903 C   0  0  0  0  0  0  0  0  0  0  0  0
  -23.4040  -33.7126   26.3438 C   0  0  0  0  0  0  0  0  0  0  0  0
  -26.3095  -30.4171   21.3567 C   0  0  0  0  0  0  0  0  0  0  0  0
  -24.0489  -32.5713   25.8300 C   0  0  0  0  0  0  0  0  0  0  0  0
  -26.1081  -29.0457   21.1451 C   0  0  0  0  0  0  0  0  0  0  0  0
  -28.2254  -21.2127   20.5254 C   0  0  0  0  0  0  0  0  0  0  0  0
  -27.4174  -18.9878   20.0416 C   0  0  0  0  0  0  0  0  0  0  0  0
  -23.7720   -8.2560   23.6904 C   0  0  0  0  0  0  0  0  0  0  0  0
  -28.4691  -28.6467   21.5657 C   0  0  0  0  0  0  0  0  0  0  0  0
  -22.6141   -6.2310   23.9742 C   0  0  0  0  0  0  0  0  0  0  0  0
  -20.9854   -4.2336   22.9063 C   0  0  0  0  0  0  0  0  0  0  0  0
  -26.1297  -19.4940   19.8647 C   0  0  0  0  0  0  0  0  0  0  0  0
  -23.0651   -4.9117   23.9319 C   0  0  0  0  0  0  0  0  0  0  0  0
  -24.8624  -11.4669   21.1607 C   0  0  0  0  0  0  0  0  0  0  0  0
  -24.8489  -13.1138   19.7039 C   0  0  0  0  0  0  0  0  0  0  0  0
  -22.6200  -12.0317   20.0348 C   0  0  0  0  0  0  0  0  0  0  0  0
  -30.4446  -24.1004   21.3776 C   0  0  0  0  0  0  0  0  0  0  0  0
  -30.5088  -25.5987   21.6008 C   0  0  0  0  0  0  0  0  0  0  0  0
  -23.5110  -30.4345   22.8639 C   0  0  0  0  0  0  0  0  0  0  0  0
  -22.4399  -29.1801   20.0708 C   0  0  0  0  0  0  0  0  0  0  0  0
  -23.1433  -27.4570   17.2102 C   0  0  0  0  0  0  0  0  0  0  0  0
  -28.8826  -16.9385   20.0271 C   0  0  0  0  0  0  0  0  0  0  0  0
  -21.9061  -33.8754   26.2760 C   0  0  0  0  0  0  0  0  0  0  0  0
  -25.1668  -31.3852   21.2175 C   0  0  0  0  0  0  0  0  0  0  0  0
  -24.7513  -28.4863   20.8066 C   0  0  0  0  0  0  0  0  0  0  0  0
  -21.2394  -32.9582   25.2539 C   0  0  0  0  0  0  0  0  0  0  0  0
  -29.8929  -13.5345   19.7640 C   0  0  0  0  0  0  0  0  0  0  0  0
  -21.7741  -31.5356   25.3844 C   0  0  0  0  0  0  0  0  0  0  0  0
  -28.6051  -12.7524   20.0323 C   0  0  0  0  0  0  0  0  0  0  0  0
  -29.9826  -14.7924   20.6263 C   0  0  0  0  0  0  0  0  0  0  0  0
  -27.5288  -14.8997   20.8183 C   0  0  0  0  0  0  0  0  0  0  0  0
  -23.2815  -31.4853   25.1076 C   0  0  1  0  0  0  0  0  0  0  0  0
  -23.8028  -30.7326   21.4204 C   0  0  1  0  0  0  0  0  0  0  0  0
  -27.3629  -13.6586   19.9262 C   0  0  2  0  0  0  0  0  0  0  0  0
  -22.0555  -26.5519   15.1377 C   0  0  0  0  0  0  0  0  0  0  0  0
  -21.2371  -26.8987   21.7013 C   0  0  0  0  0  0  0  0  0  0  0  0
  -21.0173  -25.5901   19.5783 C   0  0  0  0  0  0  0  0  0  0  0  0
  -19.7803  -27.7392   19.8505 C   0  0  0  0  0  0  0  0  0  0  0  0
  -24.8388  -29.1271   15.4509 C   0  0  0  0  0  0  0  0  0  0  0  0
  -29.1114  -23.4898   21.0307 C   0  0  0  0  0  0  0  0  0  0  0  0
  -29.2387  -26.3990   21.4602 C   0  0  0  0  0  0  0  0  0  1  0  0
  -22.2857  -27.7851   19.5148 C   0  0  1  0  0  0  0  0  0  0  0  0
  -22.7922  -27.7287   15.7585 C   0  0  2  0  0  0  0  0  0  0  0  0
  -21.1054  -27.0133   20.1695 C   0  0  0  0  0  0  0  0  0  0  0  0
  -26.1259  -11.8991   21.1327 N   0  0  0  0  0  0  0  0  0  0  0  0
  -26.0859  -12.9007   20.2376 N   0  0  0  0  0  0  0  0  0  0  0  0
  -23.6645  -29.4724   20.6877 N   0  0  0  0  0  0  0  0  0  0  0  0
  -28.7733  -15.6038   20.4714 N   0  0  0  0  0  0  0  0  0  0  0  0
  -24.6312  -14.0822   18.7888 N   0  0  0  0  0  0  0  0  0  0  0  0
  -21.9223  -11.0301   20.7234 N   0  0  0  0  0  0  0  0  0  0  0  0
  -27.6636  -17.6010   19.8864 N   0  0  0  0  0  0  0  0  0  0  0  0
  -29.2671  -22.0671   20.8532 N   0  0  0  0  0  0  0  0  0  0  0  0
  -23.5363  -31.5462   23.6843 N   0  0  0  0  0  0  0  0  0  0  0  0
  -22.1738  -27.9324   18.0677 N   0  0  0  0  0  0  0  0  0  0  0  0
  -24.0283  -27.9808   14.9650 N   0  3  0  0  0  0  0  0  0  0  0  0
  -22.0075  -12.7490   19.2079 O   0  0  0  0  0  0  0  0  0  0  0  0
  -31.4907  -23.4747   21.4956 O   0  0  0  0  0  0  0  0  0  0  0  0
  -31.5982  -26.0808   21.8832 O   0  0  0  0  0  0  0  0  0  0  0  0
  -23.2785  -29.2815   23.2077 O   0  0  0  0  0  0  0  0  0  0  0  0
  -21.5107  -29.9832   19.9554 O   0  0  0  0  0  0  0  0  0  0  0  0
  -24.1727  -26.8775   17.5493 O   0  0  0  0  0  0  0  0  0  0  0  0
  -29.9750  -17.4472   19.7630 O   0  0  0  0  0  0  0  0  0  0  0  0
  -23.4210   -7.2234   24.5047 O   0  0  0  0  0  0  0  0  0  0  0  0
  -29.5153  -27.7829   21.6709 O   0  0  0  0  0  0  0  0  0  1  0  0
  -20.2027   -3.2744   22.3949 F   0  0  0  0  0  0  0  0  0  0  0  0
  -25.1148  -18.6774   19.5473 F   0  0  0  0  0  0  0  0  0  0  0  0
  -24.2794   -4.5975   24.4037 F   0  0  0  0  0  0  0  0  0  0  0  0
  1  2  1  0  0  0  0
  1  5  2  0  0  0  0
  2  6  2  0  0  0  0
  3  9  2  0  0  0  0
  3 18  1  0  0  0  0
  4 10  1  0  0  0  0
  4 18  2  0  0  0  0
  5 20  1  0  0  0  0
  6 22  1  0  0  0  0
  7 11  2  0  0  0  0
  7 21  1  0  0  0  0
  8 13  2  0  0  0  0
  8 24  1  0  0  0  0
  9 26  1  0  0  0  0
 10 26  2  0  0  0  0
 11 27  1  0  0  0  0
 12 14  2  0  0  0  0
 12 28  1  0  0  0  0
 13 30  1  0  0  0  0
 14 29  1  0  0  0  0
 15 23  1  0  0  0  0
 15 27  2  0  0  0  0
 16 24  2  0  0  0  0
 16 25  1  0  0  0  0
 17 29  2  0  0  0  0
 17 31  1  0  0  0  0
 18 32  1  0  0  0  0
 19 32  1  0  0  0  0
 19 33  2  0  0  0  0
 19 34  1  0  0  0  0
 20 22  2  0  0  0  0
 20 41  1  0  0  0  0
 21 23  2  0  0  0  0
 21 42  1  0  0  0  0
 22 50  1  0  0  0  0
 23 43  1  0  0  0  0
 24 70  1  0  0  0  0
 25 30  2  0  0  0  0
 25 69  1  0  0  0  0
 26 81  1  0  0  0  0
 27 82  1  0  0  0  0
 28 31  2  0  0  0  0
 28 81  1  0  0  0  0
 29 83  1  0  0  0  0
 30 84  1  0  0  0  0
 31 85  1  0  0  0  0
 32 63  2  0  0  0  0
 33 64  1  0  0  0  0
 33 67  1  0  0  0  0
 34 68  1  0  0  0  0
 34 74  2  0  0  0  0
 35 36  1  0  0  0  0
 35 58  1  0  0  0  0
 35 75  2  0  0  0  0
 36 59  1  0  0  0  0
 36 76  2  0  0  0  0
 37 51  1  0  0  0  0
 37 71  1  0  0  0  0
 37 77  2  0  0  0  0
 38 60  1  0  0  0  0
 38 65  1  0  0  0  0
 38 78  2  0  0  0  0
 39 61  1  0  0  0  0
 39 72  1  0  0  0  0
 39 79  2  0  0  0  0
 40 66  1  0  0  0  0
 40 69  1  0  0  0  0
 40 80  2  0  0  0  0
 41 44  1  0  0  0  0
 42 51  1  0  0  0  0
 43 65  1  0  0  0  0
 44 46  1  0  0  0  0
 45 47  1  0  0  0  0
 45 48  1  0  0  0  0
 46 50  1  0  0  0  0
 47 52  1  0  0  0  0
 48 66  1  0  0  0  0
 49 52  1  0  0  0  0
 49 66  1  0  0  0  0
 50 71  1  0  0  0  0
 51 65  1  0  0  0  0
 52 64  1  0  0  0  0
 53 61  1  0  0  0  0
 54 62  1  0  0  0  0
 55 62  1  0  0  0  0
 56 62  1  0  0  0  0
 57 73  1  0  0  0  0
 58 70  1  0  0  0  0
 59 82  1  0  0  0  0
 60 62  1  0  0  0  0
 60 72  1  0  0  0  0
 61 73  1  0  0  0  0
 63 64  1  0  0  0  0
M  CHG  1  73   1
M  ISO  4  40 100  59 101  69 100  82 101
M  END
> <Batch ID>
0170

> <Smiles>
CNC(C)C(=O)NC(C(=O)N1Cc2cc([101O:1][101CH2:1]C(=O)C(=O)CNc3ccc(F)c([100NH:0][100C:0](=O)N4CCCC(n5nc(-c6ccc(Oc7ccc(F)cc7F)cc6)c(C(N)=O)c5N)C4)c3)ccc2CC1C(=O)NC1CCCc2ccccc21)C(C)(C)C

> <Shape>
0.288

> <Color>
0.099

> <Negative vol penalty>
0.000

$$$$

  -OEChem-04052304203D

 88 96  0     1  0  0  0  0  0999 V2000
  -33.1517  -30.0367   23.1343 C   0  0  0  0  0  0  0  0  0  0  0  0
  -32.2505  -29.1028   23.6354 C   0  0  0  0  0  0  0  0  0  0  0  0
  -23.0121  -10.0759   19.8096 C   0  0  0  0  0  0  0  0  0  0  0  0
  -23.9242   -9.7502   22.0230 C   0  0  0  0  0  0  0  0  0  0  0  0
  -33.0831  -30.4215   21.7960 C   0  0  0  0  0  0  0  0  0  0  0  0
  -31.2794  -28.5539   22.7987 C   0  0  0  0  0  0  0  0  0  0  0  0
  -30.8431  -23.5396   23.3566 C   0  0  0  0  0  0  0  0  0  0  0  0
  -22.2640   -8.9066   19.9457 C   0  0  0  0  0  0  0  0  0  0  0  0
  -23.1760   -8.5808   22.1591 C   0  0  0  0  0  0  0  0  0  0  0  0
  -30.1350  -23.0817   24.4668 C   0  0  0  0  0  0  0  0  0  0  0  0
  -19.9804   -7.7384   22.8654 C   0  0  0  0  0  0  0  0  0  0  0  0
  -19.3030   -7.5406   24.0686 C   0  0  0  0  0  0  0  0  0  0  0  0
  -28.1972  -22.7234   23.0754 C   0  0  0  0  0  0  0  0  0  0  0  0
  -30.1631  -17.0669   23.5644 C   0  0  0  0  0  0  0  0  0  0  0  0
  -32.2857  -16.2887   22.7124 C   0  0  0  0  0  0  0  0  0  0  0  0
  -20.5525   -5.5059   24.4374 C   0  0  0  0  0  0  0  0  0  0  0  0
  -23.8423  -10.4977   20.8482 C   0  0  0  0  0  0  0  0  0  0  0  0
  -24.2252  -13.0108   21.0612 C   0  0  0  0  0  0  0  0  0  0  0  0
  -32.1168  -29.8699   20.9400 C   0  0  0  0  0  0  0  0  0  0  0  0
  -30.2293  -23.6032   22.0974 C   0  0  0  0  0  0  0  0  0  0  0  0
  -31.1970  -28.9327   21.4479 C   0  0  0  0  0  0  0  0  0  0  0  0
  -28.9006  -23.1801   21.9503 C   0  0  0  0  0  0  0  0  0  0  0  0
  -32.2205  -17.7897   24.6045 C   0  0  0  0  0  0  0  0  0  0  0  0
  -30.8924  -16.3072   22.6497 C   0  0  0  0  0  0  0  0  0  0  0  0
  -30.8272  -17.8082   24.5418 C   0  0  0  0  0  0  0  0  0  0  0  0
  -22.3459   -8.1591   21.1205 C   0  0  0  0  0  0  0  0  0  0  0  0
  -28.8109  -22.6763   24.3269 C   0  0  0  0  0  0  0  0  0  0  0  0
  -20.9437   -6.8199   22.4481 C   0  0  0  0  0  0  0  0  0  0  0  0
  -19.5891   -6.4244   24.8546 C   0  0  0  0  0  0  0  0  0  0  0  0
  -32.9498  -17.0299   23.6898 C   0  0  0  0  0  0  0  0  0  0  0  0
  -21.2298   -5.7037   23.2342 C   0  0  0  0  0  0  0  0  0  0  0  0
  -24.6157  -11.7053   20.7079 C   0  0  0  0  0  0  0  0  0  0  0  0
  -25.3051  -13.7931   20.7323 C   0  0  0  0  0  0  0  0  0  0  0  0
  -22.9961  -13.4749   21.6354 C   0  0  0  0  0  0  0  0  0  0  0  0
  -29.5465  -25.9369   20.0501 C   0  0  0  0  0  0  0  0  0  0  0  0
  -28.6404  -23.4722   18.1457 C   0  0  0  0  0  0  0  0  0  0  0  0
  -28.6845  -18.6927   25.5262 C   0  0  0  0  0  0  0  0  0  0  0  0
  -27.5690  -20.2412   17.9022 C   0  0  0  0  0  0  0  0  0  0  0  0
  -30.7904  -14.7481   20.6736 C   0  0  0  0  0  0  0  0  0  0  0  0
  -32.0516  -30.3520   19.5124 C   0  0  0  0  0  0  0  0  0  0  0  0
  -31.0151  -24.0744   20.9046 C   0  0  0  0  0  0  0  0  0  0  0  0
  -28.2019  -23.2096   20.6163 C   0  0  0  0  0  0  0  0  0  0  0  0
  -31.2314  -29.4440   18.5997 C   0  0  0  0  0  0  0  0  0  0  0  0
  -29.4720  -12.7056   18.0722 C   0  0  0  0  0  0  0  0  0  0  0  0
  -29.9095  -29.0726   19.2642 C   0  0  0  0  0  0  0  0  0  0  0  0
  -28.0589  -12.3707   18.5551 C   0  0  0  0  0  0  0  0  0  0  0  0
  -30.4700  -12.7526   19.2278 C   0  0  0  0  0  0  0  0  0  0  0  0
  -28.6748  -13.2932   20.8259 C   0  0  0  0  0  0  0  0  0  0  0  0
  -30.1451  -28.2963   20.5655 C   0  0  1  0  0  0  0  0  0  0  0  0
  -30.1313  -24.5816   19.7692 C   0  0  1  0  0  0  0  0  0  0  0  0
  -27.6219  -13.2985   19.7056 C   0  0  2  0  0  0  0  0  0  0  0  0
  -26.8756  -18.5176   16.2152 C   0  0  0  0  0  0  0  0  0  0  0  0
  -25.9517  -24.8773   17.8188 C   0  0  0  0  0  0  0  0  0  0  0  0
  -25.0110  -22.7249   16.9526 C   0  0  0  0  0  0  0  0  0  0  0  0
  -26.8595  -23.8610   15.7218 C   0  0  0  0  0  0  0  0  0  0  0  0
  -29.7629  -18.4182   18.6911 C   0  0  0  0  0  0  0  0  0  0  0  0
  -28.2821  -19.6163   26.6676 C   0  0  0  0  0  0  0  0  0  0  0  0
  -26.9796  -20.3591   26.3908 C   0  0  0  0  0  0  0  0  0  0  0  0
  -27.0954  -21.2621   25.1714 C   0  0  0  0  0  0  0  0  0  1  0  0
  -27.3556  -22.7128   17.9189 C   0  0  1  0  0  0  0  0  0  0  0  0
  -28.0285  -19.0910   17.0244 C   0  0  2  0  0  0  0  0  0  0  0  0
  -32.9551  -18.5741   25.6431 C   0  0  0  0  0  0  0  0  0  0  0  0
  -26.3067  -23.5451   17.1287 C   0  0  0  0  0  0  0  0  0  0  0  0
  -25.8476  -11.6569   20.1938 N   0  0  0  0  0  0  0  0  0  0  0  0
  -26.2403  -12.9418   20.2215 N   0  0  0  0  0  0  0  0  0  0  0  0
  -29.0106  -23.6843   19.4813 N   0  0  0  0  0  0  0  0  0  0  0  0
  -29.9917  -13.6543   20.2780 N   0  0  0  0  0  0  0  0  0  0  0  0
  -25.5365  -15.1193   20.8329 N   0  0  0  0  0  0  0  0  0  0  0  0
  -21.9913  -12.5374   21.9107 N   0  0  0  0  0  0  0  0  0  0  0  0
  -30.0699  -18.5729   25.4607 N   0  0  0  0  0  0  0  0  0  0  0  0
  -30.2178  -15.5543   21.6568 N   0  0  0  0  0  0  0  0  0  0  0  0
  -30.4899  -26.9205   20.2779 N   0  0  0  0  0  0  0  0  0  0  0  0
  -27.7310  -21.4585   17.2752 N   0  0  0  0  0  0  0  0  0  0  0  0
  -28.6047  -17.9999   17.8600 N   0  3  0  0  0  0  0  0  0  0  0  0
  -22.7887  -14.6873   21.8815 O   0  0  0  0  0  0  0  0  0  0  0  0
  -28.3295  -26.0799   20.0580 O   0  0  0  0  0  0  0  0  0  0  0  0
  -29.2953  -23.8567   17.1736 O   0  0  0  0  0  0  0  0  0  0  0  0
  -27.8551  -18.1576   24.7982 O   0  0  0  0  0  0  0  0  0  0  0  0
  -27.1087  -20.0760   19.0297 O   0  0  0  0  0  0  0  0  0  0  0  0
  -31.8887  -14.9699   20.1574 O   0  0  0  0  0  0  0  0  0  0  0  0
  -21.6159   -7.0181   21.2537 O   0  0  0  0  0  0  0  0  0  0  0  0
  -28.1172  -22.2295   25.4091 O   0  0  0  0  0  0  0  0  0  1  0  0
  -18.9397   -6.2354   26.0108 F   0  0  0  0  0  0  0  0  0  0  0  0
  -34.2890  -17.0041   23.7425 F   0  0  0  0  0  0  0  0  0  0  0  0
  -22.1551   -4.8185   22.8392 F   0  0  0  0  0  0  0  0  0  0  0  0
  -32.1338  -19.2741   26.4786 F   0  0  0  0  0  0  0  0  0  0  0  0
  -33.7269  -17.8024   26.4623 F   0  0  0  0  0  0  0  0  0  0  0  0
  -33.8008  -19.4957   25.1000 F   0  0  0  0  0  0  0  0  0  0  0  0
  1  2  1  0  0  0  0
  1  5  2  0  0  0  0
  2  6  2  0  0  0  0
  3  8  2  0  0  0  0
  3 17  1  0  0  0  0
  4  9  1  0  0  0  0
  4 17  2  0  0  0  0
  5 19  1  0  0  0  0
  6 21  1  0  0  0  0
  7 10  2  0  0  0  0
  7 20  1  0  0  0  0
  8 26  1  0  0  0  0
  9 26  2  0  0  0  0
 10 27  1  0  0  0  0
 11 12  2  0  0  0  0
 11 28  1  0  0  0  0
 12 29  1  0  0  0  0
 13 22  1  0  0  0  0
 13 27  2  0  0  0  0
 14 24  2  0  0  0  0
 14 25  1  0  0  0  0
 15 24  1  0  0  0  0
 15 30  2  0  0  0  0
 16 29  2  0  0  0  0
 16 31  1  0  0  0  0
 17 32  1  0  0  0  0
 18 32  1  0  0  0  0
 18 33  2  0  0  0  0
 18 34  1  0  0  0  0
 19 21  2  0  0  0  0
 19 40  1  0  0  0  0
 20 22  2  0  0  0  0
 20 41  1  0  0  0  0
 21 49  1  0  0  0  0
 22 42  1  0  0  0  0
 23 25  2  0  0  0  0
 23 30  1  0  0  0  0
 23 62  1  0  0  0  0
 24 71  1  0  0  0  0
 25 70  1  0  0  0  0
 26 81  1  0  0  0  0
 27 82  1  0  0  0  0
 28 31  2  0  0  0  0
 28 81  1  0  0  0  0
 29 83  1  0  0  0  0
 30 84  1  0  0  0  0
 31 85  1  0  0  0  0
 32 64  2  0  0  0  0
 33 65  1  0  0  0  0
 33 68  1  0  0  0  0
 34 69  1  0  0  0  0
 34 75  2  0  0  0  0
 35 50  1  0  0  0  0
 35 72  1  0  0  0  0
 35 76  2  0  0  0  0
 36 60  1  0  0  0  0
 36 66  1  0  0  0  0
 36 77  2  0  0  0  0
 37 57  1  0  0  0  0
 37 70  1  0  0  0  0
 37 78  2  0  0  0  0
 38 61  1  0  0  0  0
 38 73  1  0  0  0  0
 38 79  2  0  0  0  0
 39 67  1  0  0  0  0
 39 71  1  0  0  0  0
 39 80  2  0  0  0  0
 40 43  1  0  0  0  0
 41 50  1  0  0  0  0
 42 66  1  0  0  0  0
 43 45  1  0  0  0  0
 44 46  1  0  0  0  0
 44 47  1  0  0  0  0
 45 49  1  0  0  0  0
 46 51  1  0  0  0  0
 47 67  1  0  0  0  0
 48 51  1  0  0  0  0
 48 67  1  0  0  0  0
 49 72  1  0  0  0  0
 50 66  1  0  0  0  0
 51 65  1  0  0  0  0
 52 61  1  0  0  0  0
 53 63  1  0  0  0  0
 54 63  1  0  0  0  0
 55 63  1  0  0  0  0
 56 74  1  0  0  0  0
 57 58  1  0  0  0  0
 58 59  1  0  0  0  0
 59 82  1  0  0  0  0
 60 63  1  0  0  0  0
 60 73  1  0  0  0  0
 61 74  1  0  0  0  0
 62 86  1  0  0  0  0
 62 87  1  0  0  0  0
 62 88  1  0  0  0  0
 64 65  1  0  0  0  0
M  CHG  1  74   1
M  ISO  4  39 100  59 101  71 100  82 101
M  END
> <Batch ID>
0170

> <Smiles>
CNC(C)C(=O)NC(C(=O)N1Cc2cc([101O:1][101CH2:1]CCC(=O)Nc3cc([100NH:0][100C:0](=O)N4CCCC(n5nc(-c6ccc(Oc7ccc(F)cc7F)cc6)c(C(N)=O)c5N)C4)cc(F)c3C(F)(F)F)ccc2CC1C(=O)NC1CCCc2ccccc21)C(C)(C)C

> <Shape>
0.245

> <Color>
0.191

> <Negative vol penalty>
0.000

$$$$

  -OEChem-04052304203D

 87 95  0     1  0  0  0  0  0999 V2000
  -17.5315  -30.8887   23.5200 C   0  0  0  0  0  0  0  0  0  0  0  0
  -18.8024  -30.3462   23.6808 C   0  0  0  0  0  0  0  0  0  0  0  0
  -23.1095   -9.7776   20.6894 C   0  0  0  0  0  0  0  0  0  0  0  0
  -23.7369  -10.4041   22.9368 C   0  0  0  0  0  0  0  0  0  0  0  0
  -16.4101  -30.0619   23.5719 C   0  0  0  0  0  0  0  0  0  0  0  0
  -18.9526  -28.9765   23.8948 C   0  0  0  0  0  0  0  0  0  0  0  0
  -23.5228  -25.4186   21.9047 C   0  0  0  0  0  0  0  0  0  0  0  0
  -22.3514   -8.7218   21.1953 C   0  0  0  0  0  0  0  0  0  0  0  0
  -22.9787   -9.3482   23.4428 C   0  0  0  0  0  0  0  0  0  0  0  0
  -24.6782  -24.9425   22.5229 C   0  0  0  0  0  0  0  0  0  0  0  0
  -19.7206   -8.6931   24.0557 C   0  0  0  0  0  0  0  0  0  0  0  0
  -18.8978   -8.9547   25.1512 C   0  0  0  0  0  0  0  0  0  0  0  0
  -23.5418  -22.8794   23.0441 C   0  0  0  0  0  0  0  0  0  0  0  0
  -31.6352  -19.2193   23.0207 C   0  0  0  0  0  0  0  0  0  0  0  0
  -31.9392  -17.0976   21.9059 C   0  0  0  0  0  0  0  0  0  0  0  0
  -29.7255  -18.0397   22.1271 C   0  0  0  0  0  0  0  0  0  0  0  0
  -20.0931   -7.3002   26.4440 C   0  0  0  0  0  0  0  0  0  0  0  0
  -23.8023  -10.6188   21.5601 C   0  0  0  0  0  0  0  0  0  0  0  0
  -24.1530  -13.0261   20.7922 C   0  0  0  0  0  0  0  0  0  0  0  0
  -16.5472  -28.6800   23.7770 C   0  0  0  0  0  0  0  0  0  0  0  0
  -22.3629  -24.6317   21.8611 C   0  0  0  0  0  0  0  0  0  0  0  0
  -17.8319  -28.1306   23.9509 C   0  0  0  0  0  0  0  0  0  0  0  0
  -22.3738  -23.3469   22.4226 C   0  0  0  0  0  0  0  0  0  0  0  0
  -32.4744  -18.1981   22.5754 C   0  0  0  0  0  0  0  0  0  0  0  0
  -30.2607  -19.1401   22.7965 C   0  0  0  0  0  0  0  0  0  0  0  0
  -30.5648  -17.0184   21.6817 C   0  0  0  0  0  0  0  0  0  0  0  0
  -22.2860   -8.5071   22.5720 C   0  0  0  0  0  0  0  0  0  0  0  0
  -24.6870  -23.6738   23.0952 C   0  0  0  0  0  0  0  0  0  0  0  0
  -20.7296   -7.7350   24.1543 C   0  0  0  0  0  0  0  0  0  0  0  0
  -19.0840   -8.2583   26.3454 C   0  0  0  0  0  0  0  0  0  0  0  0
  -20.9158   -7.0386   25.3484 C   0  0  0  0  0  0  0  0  0  0  0  0
  -24.5861  -11.7094   21.0381 C   0  0  0  0  0  0  0  0  0  0  0  0
  -25.2649  -13.6677   20.3038 C   0  0  0  0  0  0  0  0  0  0  0  0
  -26.3797  -22.0638   23.2097 C   0  0  0  0  0  0  0  0  0  1  0  0
  -22.8611  -13.6164   20.9877 C   0  0  0  0  0  0  0  0  0  0  0  0
  -27.4865  -21.5163   23.7264 C   0  0  0  0  0  0  0  0  0  0  0  0
  -28.0301  -20.2598   23.1149 C   0  0  0  0  0  0  0  0  0  0  0  0
  -19.4070  -24.9288   22.9915 C   0  0  0  0  0  0  0  0  0  0  0  0
  -18.9009  -22.2140   21.2896 C   0  0  0  0  0  0  0  0  0  0  0  0
  -20.2079  -19.4022   19.8641 C   0  0  0  0  0  0  0  0  0  0  0  0
  -30.7131  -14.8001   20.4971 C   0  0  0  0  0  0  0  0  0  0  0  0
  -15.3027  -27.8333   23.8727 C   0  0  0  0  0  0  0  0  0  0  0  0
  -21.1330  -25.1493   21.1671 C   0  0  0  0  0  0  0  0  0  0  0  0
  -21.1610  -22.4546   22.3847 C   0  0  0  0  0  0  0  0  0  0  0  0
  -15.5712  -26.3374   23.7295 C   0  0  0  0  0  0  0  0  0  0  0  0
  -29.7337  -11.8284   18.7979 C   0  0  0  0  0  0  0  0  0  0  0  0
  -16.7568  -25.9226   24.5950 C   0  0  0  0  0  0  0  0  0  0  0  0
  -28.2716  -11.6409   19.2090 C   0  0  0  0  0  0  0  0  0  0  0  0
  -30.5788  -12.3811   19.9443 C   0  0  0  0  0  0  0  0  0  0  0  0
  -28.5966  -13.4190   20.9752 C   0  0  0  0  0  0  0  0  0  0  0  0
  -18.0371  -26.6459   24.1602 C   0  0  1  0  0  0  0  0  0  0  0  0
  -19.8515  -24.4652   21.6331 C   0  0  1  0  0  0  0  0  0  0  0  0
  -27.6926  -12.9254   19.8338 C   0  0  2  0  0  0  0  0  0  0  0  0
  -19.5412  -17.3552   18.5745 C   0  0  0  0  0  0  0  0  0  0  0  0
  -17.7963  -20.9665   23.8457 C   0  0  0  0  0  0  0  0  0  0  0  0
  -18.0417  -18.7183   22.7716 C   0  0  0  0  0  0  0  0  0  0  0  0
  -16.5082  -20.4144   21.7743 C   0  0  0  0  0  0  0  0  0  0  0  0
  -21.8940  -20.1661   17.5549 C   0  0  0  0  0  0  0  0  0  0  0  0
  -35.9058  -17.4733   24.1198 C   0  0  0  0  0  0  0  0  0  0  0  0
  -33.6580  -17.5740   25.1865 C   0  0  0  0  0  0  0  0  0  0  0  0
  -33.9440  -18.2826   22.8165 C   0  0  0  0  0  0  0  0  0  0  0  0
  -19.0082  -20.7360   21.5776 C   0  0  1  0  0  0  0  0  0  0  0  0
  -20.0256  -18.7940   18.4852 C   0  0  2  0  0  0  0  0  0  0  0  0
  -17.8610  -20.2261   22.4949 C   0  0  0  0  0  0  0  0  0  0  0  0
  -25.8727  -11.5240   20.7312 N   0  0  0  0  0  0  0  0  0  0  0  0
  -26.2576  -12.7326   20.2873 N   0  0  0  0  0  0  0  0  0  0  0  0
  -19.9809  -23.0082   21.7003 N   0  0  0  0  0  0  0  0  0  0  0  0
  -29.9715  -13.5998   20.4836 N   0  0  0  0  0  0  0  0  0  0  0  0
  -25.4804  -14.9349   19.8912 N   0  0  0  0  0  0  0  0  0  0  0  0
  -21.8306  -12.8151   21.4979 N   0  0  0  0  0  0  0  0  0  0  0  0
  -29.4093  -20.1769   23.2489 N   0  0  0  0  0  0  0  0  0  0  0  0
  -30.0209  -15.8999   21.0029 N   0  0  0  0  0  0  0  0  0  0  0  0
  -18.5812  -26.0364   22.9656 N   0  0  0  0  0  0  0  0  0  0  0  0
  -19.0765  -20.0713   20.2807 N   0  0  0  0  0  0  0  0  0  0  0  0
  -21.3146  -18.8103   17.7374 N   0  3  0  0  0  0  0  0  0  0  0  0
  -34.4179  -17.3778   23.8999 N   0  3  0  0  0  0  0  0  0  0  0  0
  -22.6232  -14.8146   20.7026 O   0  0  0  0  0  0  0  0  0  0  0  0
  -27.2853  -19.4473   22.5773 O   0  0  0  0  0  0  0  0  0  0  0  0
  -19.7840  -24.3252   23.9891 O   0  0  0  0  0  0  0  0  0  0  0  0
  -17.8990  -22.6469   20.7148 O   0  0  0  0  0  0  0  0  0  0  0  0
  -21.2483  -19.2913   20.5088 O   0  0  0  0  0  0  0  0  0  0  0  0
  -31.8673  -14.8547   20.0648 O   0  0  0  0  0  0  0  0  0  0  0  0
  -28.1523  -22.0644   24.8038 O   0  0  0  0  0  0  0  0  0  0  0  0
  -21.5461   -7.4770   23.0660 O   0  0  0  0  0  0  0  0  0  0  0  0
  -25.8132  -23.2069   23.6998 O   0  0  0  0  0  0  0  0  0  1  0  0
  -18.2948   -8.5107   27.3978 F   0  0  0  0  0  0  0  0  0  0  0  0
  -21.8843   -6.1179   25.4495 F   0  0  0  0  0  0  0  0  0  0  0  0
  1  2  1  0  0  0  0
  1  5  2  0  0  0  0
  2  6  2  0  0  0  0
  3  8  2  0  0  0  0
  3 18  1  0  0  0  0
  4  9  1  0  0  0  0
  4 18  2  0  0  0  0
  5 20  1  0  0  0  0
  6 22  1  0  0  0  0
  7 10  2  0  0  0  0
  7 21  1  0  0  0  0
  8 27  1  0  0  0  0
  9 27  2  0  0  0  0
 10 28  1  0  0  0  0
 11 12  2  0  0  0  0
 11 29  1  0  0  0  0
 12 30  1  0  0  0  0
 13 23  1  0  0  0  0
 13 28  2  0  0  0  0
 14 24  2  0  0  0  0
 14 25  1  0  0  0  0
 15 24  1  0  0  0  0
 15 26  2  0  0  0  0
 16 25  2  0  0  0  0
 16 26  1  0  0  0  0
 17 30  2  0  0  0  0
 17 31  1  0  0  0  0
 18 32  1  0  0  0  0
 19 32  1  0  0  0  0
 19 33  2  0  0  0  0
 19 35  1  0  0  0  0
 20 22  2  0  0  0  0
 20 42  1  0  0  0  0
 21 23  2  0  0  0  0
 21 43  1  0  0  0  0
 22 51  1  0  0  0  0
 23 44  1  0  0  0  0
 24 61  1  0  0  0  0
 25 71  1  0  0  0  0
 26 72  1  0  0  0  0
 27 84  1  0  0  0  0
 28 85  1  0  0  0  0
 29 31  2  0  0  0  0
 29 84  1  0  0  0  0
 30 86  1  0  0  0  0
 31 87  1  0  0  0  0
 32 65  2  0  0  0  0
 33 66  1  0  0  0  0
 33 69  1  0  0  0  0
 34 36  2  0  0  0  0
 34 85  1  0  0  0  0
 35 70  1  0  0  0  0
 35 77  2  0  0  0  0
 36 37  1  0  0  0  0
 36 83  1  0  0  0  0
 37 71  1  0  0  0  0
 37 78  2  0  0  0  0
 38 52  1  0  0  0  0
 38 73  1  0  0  0  0
 38 79  2  0  0  0  0
 39 62  1  0  0  0  0
 39 67  1  0  0  0  0
 39 80  2  0  0  0  0
 40 63  1  0  0  0  0
 40 74  1  0  0  0  0
 40 81  2  0  0  0  0
 41 68  1  0  0  0  0
 41 72  1  0  0  0  0
 41 82  2  0  0  0  0
 42 45  1  0  0  0  0
 43 52  1  0  0  0  0
 44 67  1  0  0  0  0
 45 47  1  0  0  0  0
 46 48  1  0  0  0  0
 46 49  1  0  0  0  0
 47 51  1  0  0  0  0
 48 53  1  0  0  0  0
 49 68  1  0  0  0  0
 50 53  1  0  0  0  0
 50 68  1  0  0  0  0
 51 73  1  0  0  0  0
 52 67  1  0  0  0  0
 53 66  1  0  0  0  0
 54 63  1  0  0  0  0
 55 64  1  0  0  0  0
 56 64  1  0  0  0  0
 57 64  1  0  0  0  0
 58 75  1  0  0  0  0
 59 76  1  0  0  0  0
 60 76  1  0  0  0  0
 61 76  1  0  0  0  0
 62 64  1  0  0  0  0
 62 74  1  0  0  0  0
 63 75  1  0  0  0  0
 65 66  1  0  0  0  0
M  CHG  2  75   1  76   1
M  ISO  4  34 101  41 100  72 100  85 101
M  END
> <Batch ID>
0170

> <Smiles>
CNC(C)C(=O)NC(C(=O)N1Cc2cc([101O:1][101CH2:1]C(=O)C(=O)Nc3cc(CN(C)C)cc([100NH:0][100C:0](=O)N4CCCC(n5nc(-c6ccc(Oc7ccc(F)cc7F)cc6)c(C(N)=O)c5N)C4)c3)ccc2CC1C(=O)NC1CCCc2ccccc21)C(C)(C)C

> <Shape>
0.203

> <Color>
0.162

> <Negative vol penalty>
0.000

$$$$

  -OEChem-04052304203D

 85 93  0     1  0  0  0  0  0999 V2000
  -27.0053  -19.7029   25.0990 C   0  0  0  0  0  0  0  0  0  0  0  0
  -27.3438  -20.6606   24.1484 C   0  0  0  0  0  0  0  0  0  0  0  0
  -24.5585  -12.1371   21.6552 C   0  0  0  0  0  0  0  0  0  0  0  0
  -25.3911  -11.9599   19.3941 C   0  0  0  0  0  0  0  0  0  0  0  0
  -25.6685  -19.5046   25.4416 C   0  0  0  0  0  0  0  0  0  0  0  0
  -26.3455  -21.4198   23.5390 C   0  0  0  0  0  0  0  0  0  0  0  0
  -27.5292  -26.3368   23.2804 C   0  0  0  0  0  0  0  0  0  0  0  0
  -23.8609  -10.9403   21.4921 C   0  0  0  0  0  0  0  0  0  0  0  0
  -24.6935  -10.7631   19.2310 C   0  0  0  0  0  0  0  0  0  0  0  0
  -28.4229  -26.7250   22.2833 C   0  0  0  0  0  0  0  0  0  0  0  0
  -24.5507   -7.6303   21.5268 C   0  0  0  0  0  0  0  0  0  0  0  0
  -24.6210   -6.6934   22.5577 C   0  0  0  0  0  0  0  0  0  0  0  0
  -26.5747  -27.4781   20.9283 C   0  0  0  0  0  0  0  0  0  0  0  0
  -22.2225   -6.8070   22.8246 C   0  0  0  0  0  0  0  0  0  0  0  0
  -30.8894  -20.0618   18.2735 C   0  0  0  0  0  0  0  0  0  0  0  0
  -25.3236  -12.6469   20.6062 C   0  0  0  0  0  0  0  0  0  0  0  0
  -27.3606  -14.0430   21.2459 C   0  0  0  0  0  0  0  0  0  0  0  0
  -24.6540  -20.2685   24.8432 C   0  0  0  0  0  0  0  0  0  0  0  0
  -26.1484  -26.5067   23.1041 C   0  0  0  0  0  0  0  0  0  0  0  0
  -24.9937  -21.2306   23.8730 C   0  0  0  0  0  0  0  0  0  0  0  0
  -25.6657  -27.0937   21.9258 C   0  0  0  0  0  0  0  0  0  0  0  0
  -23.9284  -10.2533   20.2801 C   0  0  0  0  0  0  0  0  0  0  0  0
  -27.9456  -27.2931   21.1058 C   0  0  0  0  0  0  0  0  0  0  0  0
  -23.3162   -8.1557   21.1448 C   0  0  0  0  0  0  0  0  0  0  0  0
  -23.4569   -6.2817   23.2065 C   0  0  0  0  0  0  0  0  0  0  0  0
  -22.1521   -7.7440   21.7937 C   0  0  0  0  0  0  0  0  0  0  0  0
  -26.0440  -13.8835   20.7738 C   0  0  0  0  0  0  0  0  0  0  0  0
  -29.6635  -20.6873   18.3310 C   0  0  0  0  0  0  0  0  0  0  0  0
  -31.8979  -22.0749   17.8733 C   0  0  0  0  0  0  0  0  0  0  0  0
  -30.6719  -22.7004   17.9301 C   0  0  0  0  0  0  0  0  0  0  0  0
  -27.5737  -15.3995   21.2172 C   0  0  0  0  0  0  0  0  0  0  0  0
  -28.3065  -13.0533   21.6722 C   0  0  0  0  0  0  0  0  0  0  0  0
  -23.6472  -24.5500   22.9668 C   0  0  0  0  0  0  0  0  0  0  0  0
  -30.5225  -26.9257   18.5888 C   0  0  0  0  0  0  0  0  0  0  0  0
  -21.9723  -27.3270   22.8917 C   0  0  0  0  0  0  0  0  0  0  0  0
  -21.9248  -30.6632   22.1742 C   0  0  0  0  0  0  0  0  0  0  0  0
  -27.1922  -20.3372   18.6722 C   0  0  0  0  0  0  0  0  0  0  0  0
  -23.2191  -19.9854   25.2114 C   0  0  0  0  0  0  0  0  0  0  0  0
  -25.1992  -26.1073   24.2005 C   0  0  0  0  0  0  0  0  0  0  0  0
  -24.1939  -27.3164   21.6960 C   0  0  0  0  0  0  0  0  0  0  0  0
  -22.2534  -21.0911   24.7929 C   0  0  0  0  0  0  0  0  0  0  0  0
  -24.3413  -19.2270   20.4935 C   0  0  0  0  0  0  0  0  0  0  0  0
  -22.5253  -21.5214   23.3550 C   0  0  0  0  0  0  0  0  0  0  0  0
  -24.6385  -17.7510   20.7677 C   0  0  0  0  0  0  0  0  0  0  0  0
  -24.8429  -19.6604   19.1172 C   0  0  0  0  0  0  0  0  0  0  0  0
  -26.5530  -17.8870   19.1236 C   0  0  0  0  0  0  0  0  0  0  0  0
  -23.9414  -22.0912   23.2080 C   0  0  1  0  0  0  0  0  0  0  0  0
  -23.7804  -25.8549   23.6998 C   0  0  1  0  0  0  0  0  0  0  0  0
  -26.1241  -17.4206   20.5243 C   0  0  2  0  0  0  0  0  0  0  0  0
  -20.4021  -32.6579   22.1802 C   0  0  0  0  0  0  0  0  0  0  0  0
  -20.6091  -26.2910   20.3662 C   0  0  0  0  0  0  0  0  0  0  0  0
  -19.8471  -28.6302   19.9017 C   0  0  0  0  0  0  0  0  0  0  0  0
  -19.0863  -27.4598   21.9691 C   0  0  0  0  0  0  0  0  0  0  0  0
  -23.6340  -32.1075   24.1110 C   0  0  0  0  0  0  0  0  0  0  0  0
  -30.0323  -26.9342   20.0229 C   0  0  0  0  0  0  0  0  0  1  0  0
  -29.3551  -24.8151   17.7891 C   0  0  0  0  0  0  0  0  0  0  0  0
  -29.6128  -26.2951   17.5503 C   0  0  2  0  0  0  0  0  0  0  0  0
  -21.4819  -28.2506   21.8029 C   0  0  1  0  0  0  0  0  0  0  0  0
  -21.4271  -31.8573   22.9685 C   0  0  2  0  0  0  0  0  0  0  0  0
  -20.2838  -27.6521   21.0132 C   0  0  0  0  0  0  0  0  0  0  0  0
  -32.0286  -20.7443   18.0436 N   0  0  0  0  0  0  0  0  0  0  0  0
  -25.4616  -15.0459   20.4677 N   0  0  0  0  0  0  0  0  0  0  0  0
  -29.5327  -22.0179   18.1603 N   0  0  0  0  0  0  0  0  0  0  0  0
  -26.4167  -15.9487   20.7482 N   0  0  0  0  0  0  0  0  0  0  0  0
  -23.3054  -26.9035   22.7949 N   0  0  0  0  0  0  0  0  0  0  0  0
  -26.2585  -19.3193   18.9600 N   0  0  0  0  0  0  0  0  0  0  0  0
  -33.0620  -22.8388   17.6293 N   0  0  0  0  0  0  0  0  0  0  0  0
  -28.6360  -16.1642   21.5477 N   0  0  0  0  0  0  0  0  0  0  0  0
  -27.9243  -11.7053   21.6380 N   0  0  0  0  0  0  0  0  0  0  0  0
  -28.5125  -19.8985   18.5774 N   0  0  0  0  0  0  0  0  0  0  0  0
  -30.5928  -24.0713   17.7475 N   0  0  0  0  0  0  0  0  0  0  0  0
  -23.9971  -23.4444   23.7181 N   0  0  0  0  0  0  0  0  0  0  0  0
  -21.1940  -29.5266   22.4490 N   0  0  0  0  0  0  0  0  0  0  0  0
  -22.5622  -32.7587   23.3146 N   0  3  0  0  0  0  0  0  0  0  0  0
  -29.4507  -13.3567   22.0872 O   0  0  0  0  0  0  0  0  0  0  0  0
  -23.2544  -24.5465   21.8060 O   0  0  0  0  0  0  0  0  0  0  0  0
  -31.5994  -27.4269   18.2651 O   0  0  0  0  0  0  0  0  0  0  0  0
  -21.2032  -26.9994   23.7987 O   0  0  0  0  0  0  0  0  0  0  0  0
  -22.8651  -30.7326   21.3859 O   0  0  0  0  0  0  0  0  0  0  0  0
  -26.8496  -21.5158   18.5480 O   0  0  0  0  0  0  0  0  0  0  0  0
  -23.2480   -9.0853   20.1207 O   0  0  0  0  0  0  0  0  0  0  0  0
  -28.8157  -27.6722   20.1306 O   0  0  0  0  0  0  0  0  0  1  0  0
  -23.5245   -5.3807   24.1954 F   0  0  0  0  0  0  0  0  0  0  0  0
  -20.9632   -8.2443   21.4304 F   0  0  0  0  0  0  0  0  0  0  0  0
  -30.1432  -26.4408   16.3012 F   0  0  0  0  0  0  0  0  0  0  0  0
  1  2  1  0  0  0  0
  1  5  2  0  0  0  0
  2  6  2  0  0  0  0
  3  8  2  0  0  0  0
  3 16  1  0  0  0  0
  4  9  1  0  0  0  0
  4 16  2  0  0  0  0
  5 18  1  0  0  0  0
  6 20  1  0  0  0  0
  7 10  2  0  0  0  0
  7 19  1  0  0  0  0
  8 22  1  0  0  0  0
  9 22  2  0  0  0  0
 10 23  1  0  0  0  0
 11 12  2  0  0  0  0
 11 24  1  0  0  0  0
 12 25  1  0  0  0  0
 13 21  1  0  0  0  0
 13 23  2  0  0  0  0
 14 25  2  0  0  0  0
 14 26  1  0  0  0  0
 15 28  1  0  0  0  0
 15 61  2  0  0  0  0
 16 27  1  0  0  0  0
 17 27  1  0  0  0  0
 17 31  2  0  0  0  0
 17 32  1  0  0  0  0
 18 20  2  0  0  0  0
 18 38  1  0  0  0  0
 19 21  2  0  0  0  0
 19 39  1  0  0  0  0
 20 47  1  0  0  0  0
 21 40  1  0  0  0  0
 22 81  1  0  0  0  0
 23 82  1  0  0  0  0
 24 26  2  0  0  0  0
 24 81  1  0  0  0  0
 25 83  1  0  0  0  0
 26 84  1  0  0  0  0
 27 62  2  0  0  0  0
 28 63  2  0  0  0  0
 28 70  1  0  0  0  0
 29 30  2  0  0  0  0
 29 61  1  0  0  0  0
 29 67  1  0  0  0  0
 30 63  1  0  0  0  0
 30 71  1  0  0  0  0
 31 64  1  0  0  0  0
 31 68  1  0  0  0  0
 32 69  1  0  0  0  0
 32 75  2  0  0  0  0
 33 48  1  0  0  0  0
 33 72  1  0  0  0  0
 33 76  2  0  0  0  0
 34 55  1  0  0  0  0
 34 57  1  0  0  0  0
 34 77  2  0  0  0  0
 35 58  1  0  0  0  0
 35 65  1  0  0  0  0
 35 78  2  0  0  0  0
 36 59  1  0  0  0  0
 36 73  1  0  0  0  0
 36 79  2  0  0  0  0
 37 66  1  0  0  0  0
 37 70  1  0  0  0  0
 37 80  2  0  0  0  0
 38 41  1  0  0  0  0
 39 48  1  0  0  0  0
 40 65  1  0  0  0  0
 41 43  1  0  0  0  0
 42 44  1  0  0  0  0
 42 45  1  0  0  0  0
 43 47  1  0  0  0  0
 44 49  1  0  0  0  0
 45 66  1  0  0  0  0
 46 49  1  0  0  0  0
 46 66  1  0  0  0  0
 47 72  1  0  0  0  0
 48 65  1  0  0  0  0
 49 64  1  0  0  0  0
 50 59  1  0  0  0  0
 51 60  1  0  0  0  0
 52 60  1  0  0  0  0
 53 60  1  0  0  0  0
 54 74  1  0  0  0  0
 55 82  1  0  0  0  0
 56 57  1  0  0  0  0
 56 71  1  0  0  0  0
 57 85  1  0  0  0  0
 58 60  1  0  0  0  0
 58 73  1  0  0  0  0
 59 74  1  0  0  0  0
 62 64  1  0  0  0  0
M  CHG  1  74   1
M  ISO  4  37 100  55 101  70 100  82 101
M  END
> <Batch ID>
0170

> <Smiles>
CNC(C)C(=O)NC(C(=O)N1Cc2cc([101O:1][101CH2:1]C(=O)C(F)CNc3nc([100NH:0][100C:0](=O)N4CCCC(n5nc(-c6ccc(Oc7ccc(F)cc7F)cc6)c(C(N)=O)c5N)C4)cnc3N)ccc2CC1C(=O)NC1CCCc2ccccc21)C(C)(C)C

> <Shape>
0.223

> <Color>
0.045

> <Negative vol penalty>
0.000

$$$$

  -OEChem-04052304203D

 86 94  0     1  0  0  0  0  0999 V2000
  -29.0631  -21.5199   22.7417 C   0  0  0  0  0  0  0  0  0  0  0  0
  -27.8240  -21.4432   22.1137 C   0  0  0  0  0  0  0  0  0  0  0  0
  -29.4834  -27.0048   19.1588 C   0  0  0  0  0  0  0  0  0  0  0  0
  -27.7655  -25.4089   19.7410 C   0  0  0  0  0  0  0  0  0  0  0  0
  -29.8492  -20.3758   22.8719 C   0  0  0  0  0  0  0  0  0  0  0  0
  -27.3710  -20.2225   21.6145 C   0  0  0  0  0  0  0  0  0  0  0  0
  -22.5202  -19.3331   22.7653 C   0  0  0  0  0  0  0  0  0  0  0  0
  -19.5507  -28.4816   23.5092 C   0  0  0  0  0  0  0  0  0  0  0  0
  -30.3911  -25.9615   18.9770 C   0  0  0  0  0  0  0  0  0  0  0  0
  -28.6732  -24.3655   19.5591 C   0  0  0  0  0  0  0  0  0  0  0  0
  -21.5545  -19.9934   22.0069 C   0  0  0  0  0  0  0  0  0  0  0  0
  -30.4408  -21.2580   18.8979 C   0  0  0  0  0  0  0  0  0  0  0  0
  -18.2063  -28.3588   23.1587 C   0  0  0  0  0  0  0  0  0  0  0  0
  -30.0097  -20.1393   18.1851 C   0  0  0  0  0  0  0  0  0  0  0  0
  -21.2255  -17.9949   20.6967 C   0  0  0  0  0  0  0  0  0  0  0  0
  -29.5820  -21.5321   16.2579 C   0  0  0  0  0  0  0  0  0  0  0  0
  -28.1706  -26.7286   19.5409 C   0  0  0  0  0  0  0  0  0  0  0  0
  -26.8191  -28.7505   18.7711 C   0  0  0  0  0  0  0  0  0  0  0  0
  -29.4014  -19.1386   22.3827 C   0  0  0  0  0  0  0  0  0  0  0  0
  -22.8542  -17.9998   22.4876 C   0  0  0  0  0  0  0  0  0  0  0  0
  -28.1525  -19.0611   21.7372 C   0  0  0  0  0  0  0  0  0  0  0  0
  -22.1940  -17.3191   21.4547 C   0  0  0  0  0  0  0  0  0  0  0  0
  -20.4934  -27.6017   22.9774 C   0  0  0  0  0  0  0  0  0  0  0  0
  -18.7471  -26.4760   21.7444 C   0  0  0  0  0  0  0  0  0  0  0  0
  -29.9860  -24.6418   19.1771 C   0  0  0  0  0  0  0  0  0  0  0  0
  -20.9091  -19.3252   20.9706 C   0  0  0  0  0  0  0  0  0  0  0  0
  -30.4424  -22.5138   18.2908 C   0  0  0  0  0  0  0  0  0  0  0  0
  -29.5803  -20.2763   16.8651 C   0  0  0  0  0  0  0  0  0  0  0  0
  -17.8045  -27.3560   22.2763 C   0  0  0  0  0  0  0  0  0  0  0  0
  -30.0130  -22.6508   16.9707 C   0  0  0  0  0  0  0  0  0  0  0  0
  -20.0916  -26.5989   22.0950 C   0  0  0  0  0  0  0  0  0  0  0  0
  -27.2327  -27.8060   19.7295 C   0  0  0  0  0  0  0  0  0  0  0  0
  -25.9280  -29.5524   19.4415 C   0  0  0  0  0  0  0  0  0  0  0  0
  -27.2058  -28.8906   17.3975 C   0  0  0  0  0  0  0  0  0  0  0  0
  -18.2194  -23.3252   19.7991 C   0  0  0  0  0  0  0  0  0  0  0  0
  -18.6374  -21.8769   19.6364 C   0  0  0  0  0  0  0  0  0  0  0  0
  -25.5004  -16.4935   21.5751 C   0  0  0  0  0  0  0  0  0  0  0  0
  -23.6848  -13.8449   22.0346 C   0  0  0  0  0  0  0  0  0  0  0  0
  -20.5698  -12.4608   22.2012 C   0  0  0  0  0  0  0  0  0  0  0  0
  -22.4208  -28.6700   24.1982 C   0  0  0  0  0  0  0  0  0  0  0  0
  -30.3071  -17.9388   22.5048 C   0  0  0  0  0  0  0  0  0  0  0  0
  -23.8790  -17.2934   23.3321 C   0  0  0  0  0  0  0  0  0  0  0  0
  -22.5016  -15.8811   21.1292 C   0  0  0  0  0  0  0  0  0  0  0  0
  -29.5905  -16.6095   22.2818 C   0  0  0  0  0  0  0  0  0  0  0  0
  -24.9220  -31.1775   23.8326 C   0  0  0  0  0  0  0  0  0  0  0  0
  -28.7040  -16.6822   21.0426 C   0  0  0  0  0  0  0  0  0  0  0  0
  -25.7571  -30.6865   22.6478 C   0  0  0  0  0  0  0  0  0  0  0  0
  -24.4438  -30.0202   24.7076 C   0  0  0  0  0  0  0  0  0  0  0  0
  -24.5733  -28.4593   22.8061 C   0  0  0  0  0  0  0  0  0  0  0  0
  -27.6156  -17.7503   21.2047 C   0  0  1  0  0  0  0  0  0  0  0  0
  -24.5078  -16.0939   22.6299 C   0  0  1  0  0  0  0  0  0  0  0  0
  -25.0232  -29.5840   21.8594 C   0  0  2  0  0  0  0  0  0  0  0  0
  -19.4058  -10.2657   22.5535 C   0  0  0  0  0  0  0  0  0  0  0  0
  -24.4128  -13.0056   19.1928 C   0  0  0  0  0  0  0  0  0  0  0  0
  -22.5205  -11.3678   19.2664 C   0  0  0  0  0  0  0  0  0  0  0  0
  -24.4227  -11.1458   20.8648 C   0  0  0  0  0  0  0  0  0  0  0  0
  -19.1842  -13.4518   24.6214 C   0  0  0  0  0  0  0  0  0  0  0  0
  -18.8751  -24.1365   20.8866 C   0  0  0  0  0  0  0  0  0  0  0  0
  -19.6884  -21.3259   20.5663 C   0  0  0  0  0  0  0  0  0  1  0  0
  -22.7568  -13.0223   21.1736 C   0  0  1  0  0  0  0  0  0  0  0  0
  -19.9351  -11.5278   23.2167 C   0  0  2  0  0  0  0  0  0  0  0  0
  -23.5236  -12.1631   20.1290 C   0  0  0  0  0  0  0  0  0  0  0  0
  -26.6521  -27.9895   20.9183 N   0  0  0  0  0  0  0  0  0  0  0  0
  -25.8647  -29.0588   20.7113 N   0  0  0  0  0  0  0  0  0  0  0  0
  -23.5156  -15.2357   21.9794 N   0  0  0  0  0  0  0  0  0  0  0  0
  -23.7541  -29.0169   23.8937 N   0  0  0  0  0  0  0  0  0  0  0  0
  -25.2003  -30.6245   19.0628 N   0  0  0  0  0  0  0  0  0  0  0  0
  -26.4635  -28.2114   16.4219 N   0  0  0  0  0  0  0  0  0  0  0  0
  -21.8583  -27.7296   23.3358 N   0  0  0  0  0  0  0  0  0  0  0  0
  -18.3474  -25.4785   20.8681 N   0  0  0  0  0  0  0  0  0  0  0  0
  -26.5479  -17.2596   22.0496 N   0  0  0  0  0  0  0  0  0  0  0  0
  -21.9277  -12.2483   22.0911 N   0  0  0  0  0  0  0  0  0  0  0  0
  -18.8020  -12.2068   23.9067 N   0  3  0  0  0  0  0  0  0  0  0  0
  -28.1907  -29.5840   17.0474 O   0  0  0  0  0  0  0  0  0  0  0  0
  -17.3658  -23.7481   19.0296 O   0  0  0  0  0  0  0  0  0  0  0  0
  -18.0954  -21.2297   18.7496 O   0  0  0  0  0  0  0  0  0  0  0  0
  -25.3293  -16.1322   20.4166 O   0  0  0  0  0  0  0  0  0  0  0  0
  -24.5240  -13.2742   22.7357 O   0  0  0  0  0  0  0  0  0  0  0  0
  -19.9248  -13.2923   21.5663 O   0  0  0  0  0  0  0  0  0  0  0  0
  -21.8131  -29.1906   25.1372 O   0  0  0  0  0  0  0  0  0  0  0  0
  -30.8714  -23.6235   18.9995 O   0  0  0  0  0  0  0  0  0  0  0  0
  -19.9666  -19.9676   20.2284 O   0  0  0  0  0  0  0  0  0  1  0  0
  -29.1678  -19.2016   16.1802 F   0  0  0  0  0  0  0  0  0  0  0  0
  -16.5096  -27.2459   21.9472 F   0  0  0  0  0  0  0  0  0  0  0  0
  -30.0134  -23.8545   16.3817 F   0  0  0  0  0  0  0  0  0  0  0  0
  -20.9981  -25.7517   21.5844 F   0  0  0  0  0  0  0  0  0  0  0  0
  1  2  1  0  0  0  0
  1  5  2  0  0  0  0
  2  6  2  0  0  0  0
  3  9  2  0  0  0  0
  3 17  1  0  0  0  0
  4 10  1  0  0  0  0
  4 17  2  0  0  0  0
  5 19  1  0  0  0  0
  6 21  1  0  0  0  0
  7 11  2  0  0  0  0
  7 20  1  0  0  0  0
  8 13  1  0  0  0  0
  8 23  2  0  0  0  0
  9 25  1  0  0  0  0
 10 25  2  0  0  0  0
 11 26  1  0  0  0  0
 12 14  2  0  0  0  0
 12 27  1  0  0  0  0
 13 29  2  0  0  0  0
 14 28  1  0  0  0  0
 15 22  1  0  0  0  0
 15 26  2  0  0  0  0
 16 28  2  0  0  0  0
 16 30  1  0  0  0  0
 17 32  1  0  0  0  0
 18 32  1  0  0  0  0
 18 33  2  0  0  0  0
 18 34  1  0  0  0  0
 19 21  2  0  0  0  0
 19 41  1  0  0  0  0
 20 22  2  0  0  0  0
 20 42  1  0  0  0  0
 21 50  1  0  0  0  0
 22 43  1  0  0  0  0
 23 31  1  0  0  0  0
 23 69  1  0  0  0  0
 24 29  1  0  0  0  0
 24 31  2  0  0  0  0
 24 70  1  0  0  0  0
 25 81  1  0  0  0  0
 26 82  1  0  0  0  0
 27 30  2  0  0  0  0
 27 81  1  0  0  0  0
 28 83  1  0  0  0  0
 29 84  1  0  0  0  0
 30 85  1  0  0  0  0
 31 86  1  0  0  0  0
 32 63  2  0  0  0  0
 33 64  1  0  0  0  0
 33 67  1  0  0  0  0
 34 68  1  0  0  0  0
 34 74  2  0  0  0  0
 35 36  1  0  0  0  0
 35 58  1  0  0  0  0
 35 75  2  0  0  0  0
 36 59  1  0  0  0  0
 36 76  2  0  0  0  0
 37 51  1  0  0  0  0
 37 71  1  0  0  0  0
 37 77  2  0  0  0  0
 38 60  1  0  0  0  0
 38 65  1  0  0  0  0
 38 78  2  0  0  0  0
 39 61  1  0  0  0  0
 39 72  1  0  0  0  0
 39 79  2  0  0  0  0
 40 66  1  0  0  0  0
 40 69  1  0  0  0  0
 40 80  2  0  0  0  0
 41 44  1  0  0  0  0
 42 51  1  0  0  0  0
 43 65  1  0  0  0  0
 44 46  1  0  0  0  0
 45 47  1  0  0  0  0
 45 48  1  0  0  0  0
 46 50  1  0  0  0  0
 47 52  1  0  0  0  0
 48 66  1  0  0  0  0
 49 52  1  0  0  0  0
 49 66  1  0  0  0  0
 50 71  1  0  0  0  0
 51 65  1  0  0  0  0
 52 64  1  0  0  0  0
 53 61  1  0  0  0  0
 54 62  1  0  0  0  0
 55 62  1  0  0  0  0
 56 62  1  0  0  0  0
 57 73  1  0  0  0  0
 58 70  1  0  0  0  0
 59 82  1  0  0  0  0
 60 62  1  0  0  0  0
 60 72  1  0  0  0  0
 61 73  1  0  0  0  0
 63 64  1  0  0  0  0
M  CHG  1  73   1
M  ISO  4  40 100  59 101  69 100  82 101
M  END
> <Batch ID>
0170

> <Smiles>
CNC(C)C(=O)NC(C(=O)N1Cc2cc([101O:1][101CH2:1]C(=O)C(=O)CNc3c(F)ccc([100NH:0][100C:0](=O)N4CCCC(n5nc(-c6ccc(Oc7ccc(F)cc7F)cc6)c(C(N)=O)c5N)C4)c3F)ccc2CC1C(=O)NC1CCCc2ccccc21)C(C)(C)C

> <Shape>
0.230

> <Color>
0.052

> <Negative vol penalty>
0.000

$$$$

  -OEChem-04052304203D

 86 94  0     1  0  0  0  0  0999 V2000
  -28.3320  -32.4004   20.6075 C   0  0  0  0  0  0  0  0  0  0  0  0
  -28.0827  -31.0345   20.6961 C   0  0  0  0  0  0  0  0  0  0  0  0
  -32.5060  -18.6281   20.8932 C   0  0  0  0  0  0  0  0  0  0  0  0
  -23.0077   -9.9111   20.6934 C   0  0  0  0  0  0  0  0  0  0  0  0
  -23.7433  -10.4184   22.9381 C   0  0  0  0  0  0  0  0  0  0  0  0
  -27.5259  -33.3014   21.3019 C   0  0  0  0  0  0  0  0  0  0  0  0
  -27.0278  -30.5689   21.4802 C   0  0  0  0  0  0  0  0  0  0  0  0
  -24.3041  -26.9934   19.1474 C   0  0  0  0  0  0  0  0  0  0  0  0
  -31.7376  -19.6253   21.4939 C   0  0  0  0  0  0  0  0  0  0  0  0
  -31.9789  -17.3477   20.7249 C   0  0  0  0  0  0  0  0  0  0  0  0
  -22.2305   -8.8625   21.1850 C   0  0  0  0  0  0  0  0  0  0  0  0
  -22.9659   -9.3698   23.4298 C   0  0  0  0  0  0  0  0  0  0  0  0
  -24.8384  -25.7061   19.1146 C   0  0  0  0  0  0  0  0  0  0  0  0
  -22.7100   -5.6831   22.2271 C   0  0  0  0  0  0  0  0  0  0  0  0
  -22.7590   -4.4666   21.5464 C   0  0  0  0  0  0  0  0  0  0  0  0
  -23.4102  -25.0729   20.9527 C   0  0  0  0  0  0  0  0  0  0  0  0
  -20.3837   -4.6054   21.1273 C   0  0  0  0  0  0  0  0  0  0  0  0
  -23.7642  -10.6891   21.5699 C   0  0  0  0  0  0  0  0  0  0  0  0
  -24.1752  -13.1128   20.8884 C   0  0  0  0  0  0  0  0  0  0  0  0
  -26.4546  -32.8472   22.0872 C   0  0  0  0  0  0  0  0  0  0  0  0
  -23.3250  -27.3338   20.0919 C   0  0  0  0  0  0  0  0  0  0  0  0
  -26.2074  -31.4647   22.1869 C   0  0  0  0  0  0  0  0  0  0  0  0
  -22.8632  -26.3646   20.9938 C   0  0  0  0  0  0  0  0  0  0  0  0
  -30.4421  -19.3420   21.9264 C   0  0  0  0  0  0  0  0  0  0  0  0
  -30.6834  -17.0644   21.1575 C   0  0  0  0  0  0  0  0  0  0  0  0
  -22.2095   -8.5918   22.5532 C   0  0  0  0  0  0  0  0  0  0  0  0
  -24.3935  -24.7464   20.0192 C   0  0  0  0  0  0  0  0  0  0  0  0
  -21.4978   -6.3608   22.3580 C   0  0  0  0  0  0  0  0  0  0  0  0
  -21.5958   -3.9278   20.9965 C   0  0  0  0  0  0  0  0  0  0  0  0
  -20.3347   -5.8219   21.8081 C   0  0  0  0  0  0  0  0  0  0  0  0
  -29.9150  -18.0615   21.7582 C   0  0  0  0  0  0  0  0  0  0  0  0
  -24.5678  -11.7721   21.0625 C   0  0  0  0  0  0  0  0  0  0  0  0
  -25.2910  -13.7344   20.3832 C   0  0  0  0  0  0  0  0  0  0  0  0
  -26.0168  -23.2314   20.7542 C   0  0  0  0  0  0  0  0  0  1  0  0
  -22.9148  -13.7401   21.1591 C   0  0  0  0  0  0  0  0  0  0  0  0
  -26.6674  -22.0618   20.8556 C   0  0  0  0  0  0  0  0  0  0  0  0
  -27.8606  -21.9983   21.7591 C   0  0  0  0  0  0  0  0  0  0  0  0
  -23.1454  -29.4183   22.4849 C   0  0  0  0  0  0  0  0  0  0  0  0
  -20.0670  -28.4045   22.6211 C   0  0  0  0  0  0  0  0  0  0  0  0
  -17.7930  -25.9493   21.9522 C   0  0  0  0  0  0  0  0  0  0  0  0
  -30.7812  -14.6616   20.4069 C   0  0  0  0  0  0  0  0  0  0  0  0
  -25.6400  -33.8563   22.8573 C   0  0  0  0  0  0  0  0  0  0  0  0
  -22.7395  -28.7193   20.0968 C   0  0  0  0  0  0  0  0  0  0  0  0
  -21.7994  -26.6736   22.0141 C   0  0  0  0  0  0  0  0  0  0  0  0
  -24.3112  -33.3047   23.3673 C   0  0  0  0  0  0  0  0  0  0  0  0
  -29.6272  -11.8020   18.6269 C   0  0  0  0  0  0  0  0  0  0  0  0
  -24.5141  -31.9399   24.0178 C   0  0  0  0  0  0  0  0  0  0  0  0
  -28.1758  -11.6496   19.0875 C   0  0  0  0  0  0  0  0  0  0  0  0
  -30.5354  -12.2747   19.7607 C   0  0  0  0  0  0  0  0  0  0  0  0
  -28.6342  -13.3381   20.9112 C   0  0  0  0  0  0  0  0  0  0  0  0
  -25.0573  -30.9224   23.0074 C   0  0  1  0  0  0  0  0  0  0  0  0
  -22.1170  -29.1001   21.4365 C   0  0  1  0  0  0  0  0  0  0  0  0
  -27.6696  -12.9263   19.7871 C   0  0  2  0  0  0  0  0  0  0  0  0
  -29.2048  -20.0725   24.0067 C   0  0  0  0  0  0  0  0  0  0  0  0
  -15.3600  -25.3932   22.2142 C   0  0  0  0  0  0  0  0  0  0  0  0
  -20.5218  -27.8203   25.5811 C   0  0  0  0  0  0  0  0  0  0  0  0
  -18.4446  -26.4229   25.5529 C   0  0  0  0  0  0  0  0  0  0  0  0
  -18.3112  -28.8628   25.0512 C   0  0  0  0  0  0  0  0  0  0  0  0
  -17.4062  -25.7414   19.0254 C   0  0  0  0  0  0  0  0  0  0  0  0
  -29.6111  -20.4264   22.5776 C   0  0  2  0  0  0  0  0  0  0  0  0
  -19.3359  -27.3013   23.3472 C   0  0  1  0  0  0  0  0  0  0  0  0
  -16.4202  -25.9967   21.3061 C   0  0  2  0  0  0  0  0  0  0  0  0
  -19.1748  -27.5962   24.8653 C   0  0  0  0  0  0  0  0  0  0  0  0
  -25.8340  -11.5540   20.6975 N   0  0  0  0  0  0  0  0  0  0  0  0
  -26.2467  -12.7659   20.2888 N   0  0  0  0  0  0  0  0  0  0  0  0
  -21.2625  -28.0442   21.9833 N   0  0  0  0  0  0  0  0  0  0  0  0
  -29.9952  -13.4903   20.3733 N   0  0  0  0  0  0  0  0  0  0  0  0
  -25.5380  -15.0094   20.0149 N   0  0  0  0  0  0  0  0  0  0  0  0
  -21.8752  -12.9552   21.6763 N   0  0  0  0  0  0  0  0  0  0  0  0
  -30.1504  -15.7629   20.9845 N   0  0  0  0  0  0  0  0  0  0  0  0
  -28.4469  -20.7445   21.7816 N   0  0  0  0  0  0  0  0  0  0  0  0
  -23.9959  -30.4524   22.1431 N   0  0  0  0  0  0  0  0  0  0  0  0
  -18.0751  -27.1116   22.6382 N   0  0  0  0  0  0  0  0  0  0  0  0
  -16.4255  -25.2399   20.0223 N   0  3  0  0  0  0  0  0  0  0  0  0
  -22.7112  -14.9571   20.9332 O   0  0  0  0  0  0  0  0  0  0  0  0
  -28.2498  -22.9715   22.3987 O   0  0  0  0  0  0  0  0  0  0  0  0
  -23.1647  -28.7743   23.5273 O   0  0  0  0  0  0  0  0  0  0  0  0
  -19.5912  -29.5426   22.6139 O   0  0  0  0  0  0  0  0  0  0  0  0
  -18.5390  -24.9768   21.8608 O   0  0  0  0  0  0  0  0  0  0  0  0
  -31.9193  -14.6932   19.9318 O   0  0  0  0  0  0  0  0  0  0  0  0
  -26.3095  -20.9137   20.1838 O   0  0  0  0  0  0  0  0  0  0  0  0
  -21.4510   -7.5688   23.0334 O   0  0  0  0  0  0  0  0  0  0  0  0
  -24.9138  -23.4893   19.9897 O   0  0  0  0  0  0  0  0  0  1  0  0
  -21.6433   -2.7603   20.3416 F   0  0  0  0  0  0  0  0  0  0  0  0
  -19.1674   -6.4689   21.9295 F   0  0  0  0  0  0  0  0  0  0  0  0
  -28.6684  -17.7903   22.1733 F   0  0  0  0  0  0  0  0  0  0  0  0
  1  2  1  0  0  0  0
  1  6  2  0  0  0  0
  2  7  2  0  0  0  0
  3  9  2  0  0  0  0
  3 10  1  0  0  0  0
  4 11  2  0  0  0  0
  4 18  1  0  0  0  0
  5 12  1  0  0  0  0
  5 18  2  0  0  0  0
  6 20  1  0  0  0  0
  7 22  1  0  0  0  0
  8 13  2  0  0  0  0
  8 21  1  0  0  0  0
  9 24  1  0  0  0  0
 10 25  2  0  0  0  0
 11 26  1  0  0  0  0
 12 26  2  0  0  0  0
 13 27  1  0  0  0  0
 14 15  2  0  0  0  0
 14 28  1  0  0  0  0
 15 29  1  0  0  0  0
 16 23  1  0  0  0  0
 16 27  2  0  0  0  0
 17 29  2  0  0  0  0
 17 30  1  0  0  0  0
 18 32  1  0  0  0  0
 19 32  1  0  0  0  0
 19 33  2  0  0  0  0
 19 35  1  0  0  0  0
 20 22  2  0  0  0  0
 20 42  1  0  0  0  0
 21 23  2  0  0  0  0
 21 43  1  0  0  0  0
 22 51  1  0  0  0  0
 23 44  1  0  0  0  0
 24 31  2  0  0  0  0
 24 60  1  0  0  0  0
 25 31  1  0  0  0  0
 25 70  1  0  0  0  0
 26 82  1  0  0  0  0
 27 83  1  0  0  0  0
 28 30  2  0  0  0  0
 28 82  1  0  0  0  0
 29 84  1  0  0  0  0
 30 85  1  0  0  0  0
 31 86  1  0  0  0  0
 32 64  2  0  0  0  0
 33 65  1  0  0  0  0
 33 68  1  0  0  0  0
 34 36  2  0  0  0  0
 34 83  1  0  0  0  0
 35 69  1  0  0  0  0
 35 75  2  0  0  0  0
 36 37  1  0  0  0  0
 36 81  1  0  0  0  0
 37 71  1  0  0  0  0
 37 76  2  0  0  0  0
 38 52  1  0  0  0  0
 38 72  1  0  0  0  0
 38 77  2  0  0  0  0
 39 61  1  0  0  0  0
 39 66  1  0  0  0  0
 39 78  2  0  0  0  0
 40 62  1  0  0  0  0
 40 73  1  0  0  0  0
 40 79  2  0  0  0  0
 41 67  1  0  0  0  0
 41 70  1  0  0  0  0
 41 80  2  0  0  0  0
 42 45  1  0  0  0  0
 43 52  1  0  0  0  0
 44 66  1  0  0  0  0
 45 47  1  0  0  0  0
 46 48  1  0  0  0  0
 46 49  1  0  0  0  0
 47 51  1  0  0  0  0
 48 53  1  0  0  0  0
 49 67  1  0  0  0  0
 50 53  1  0  0  0  0
 50 67  1  0  0  0  0
 51 72  1  0  0  0  0
 52 66  1  0  0  0  0
 53 65  1  0  0  0  0
 54 60  1  0  0  0  0
 55 62  1  0  0  0  0
 56 63  1  0  0  0  0
 57 63  1  0  0  0  0
 58 63  1  0  0  0  0
 59 74  1  0  0  0  0
 60 71  1  0  0  0  0
 61 63  1  0  0  0  0
 61 73  1  0  0  0  0
 62 74  1  0  0  0  0
 64 65  1  0  0  0  0
M  CHG  1  74   1
M  ISO  4  34 101  41 100  70 100  83 101
M  END
> <Batch ID>
0170

> <Smiles>
CNC(C)C(=O)NC(C(=O)N1Cc2cc([101O:1][101CH2:1]C(=O)C(=O)NC(C)c3cccc([100NH:0][100C:0](=O)N4CCCC(n5nc(-c6ccc(Oc7ccc(F)cc7F)cc6)c(C(N)=O)c5N)C4)c3F)ccc2CC1C(=O)NC1CCCc2ccccc21)C(C)(C)C

> <Shape>
0.328

> <Color>
0.173

> <Negative vol penalty>
0.000

$$$$

  -OEChem-04052304203D

 85 93  0     1  0  0  0  0  0999 V2000
  -29.7378  -35.8740   20.7729 C   0  0  0  0  0  0  0  0  0  0  0  0
  -29.7679  -34.4848   20.8406 C   0  0  0  0  0  0  0  0  0  0  0  0
  -24.8104   -8.8187   21.1660 C   0  0  0  0  0  0  0  0  0  0  0  0
  -23.1094  -10.1637   20.1008 C   0  0  0  0  0  0  0  0  0  0  0  0
  -28.7495  -36.5828   21.4547 C   0  0  0  0  0  0  0  0  0  0  0  0
  -28.8103  -33.8036   21.5911 C   0  0  0  0  0  0  0  0  0  0  0  0
  -26.9234  -29.7886   19.1488 C   0  0  0  0  0  0  0  0  0  0  0  0
  -27.6623  -17.8550   16.2348 C   0  0  0  0  0  0  0  0  0  0  0  0
  -23.8328   -7.9194   21.5917 C   0  0  0  0  0  0  0  0  0  0  0  0
  -22.1318   -9.2644   20.5265 C   0  0  0  0  0  0  0  0  0  0  0  0
  -27.7077  -28.6363   19.1170 C   0  0  0  0  0  0  0  0  0  0  0  0
  -22.0279   -5.3883   20.2618 C   0  0  0  0  0  0  0  0  0  0  0  0
  -27.5748  -18.8643   15.2761 C   0  0  0  0  0  0  0  0  0  0  0  0
  -22.2874   -4.0268   20.1056 C   0  0  0  0  0  0  0  0  0  0  0  0
  -26.3929  -27.6992   20.9093 C   0  0  0  0  0  0  0  0  0  0  0  0
  -27.7048  -19.5205   17.9845 C   0  0  0  0  0  0  0  0  0  0  0  0
  -22.0862   -3.7145   22.4929 C   0  0  0  0  0  0  0  0  0  0  0  0
  -24.4487   -9.9408   20.4206 C   0  0  0  0  0  0  0  0  0  0  0  0
  -26.1822  -10.8312   18.7745 C   0  0  0  0  0  0  0  0  0  0  0  0
  -27.7736  -35.9094   22.2061 C   0  0  0  0  0  0  0  0  0  0  0  0
  -25.8731  -29.9095   20.0701 C   0  0  0  0  0  0  0  0  0  0  0  0
  -27.8088  -34.5041   22.2847 C   0  0  0  0  0  0  0  0  0  0  0  0
  -25.5952  -28.8530   20.9491 C   0  0  0  0  0  0  0  0  0  0  0  0
  -27.7272  -18.1830   17.5890 C   0  0  0  0  0  0  0  0  0  0  0  0
  -27.6175  -20.5299   17.0258 C   0  0  0  0  0  0  0  0  0  0  0  0
  -22.4935   -8.1422   21.2720 C   0  0  0  0  0  0  0  0  0  0  0  0
  -27.4443  -27.5926   19.9992 C   0  0  0  0  0  0  0  0  0  0  0  0
  -21.7976   -5.9130   21.5336 C   0  0  0  0  0  0  0  0  0  0  0  0
  -22.3166   -3.1898   21.2211 C   0  0  0  0  0  0  0  0  0  0  0  0
  -27.5525  -20.2018   15.6716 C   0  0  0  0  0  0  0  0  0  0  0  0
  -21.8268   -5.0761   22.6491 C   0  0  0  0  0  0  0  0  0  0  0  0
  -25.4580  -10.8705   19.9810 C   0  0  0  0  0  0  0  0  0  0  0  0
  -27.0092  -11.9262   18.8347 C   0  0  0  0  0  0  0  0  0  0  0  0
  -26.1136   -9.8893   17.6958 C   0  0  0  0  0  0  0  0  0  0  0  0
  -27.6078  -23.8664   18.7649 C   0  0  0  0  0  0  0  0  0  0  0  0
  -27.6582  -22.3665   18.7191 C   0  0  0  0  0  0  0  0  0  0  0  0
  -25.2176  -31.8771   22.4789 C   0  0  0  0  0  0  0  0  0  0  0  0
  -22.4056  -30.2606   22.5217 C   0  0  0  0  0  0  0  0  0  0  0  0
  -20.6921  -27.4075   21.7664 C   0  0  0  0  0  0  0  0  0  0  0  0
  -27.8885  -17.3107   19.9469 C   0  0  0  0  0  0  0  0  0  0  0  0
  -26.7533  -36.7210   22.9645 C   0  0  0  0  0  0  0  0  0  0  0  0
  -25.0196  -31.1480   20.0737 C   0  0  0  0  0  0  0  0  0  0  0  0
  -24.4664  -28.9249   21.9436 C   0  0  0  0  0  0  0  0  0  0  0  0
  -25.5515  -35.9046   23.4328 C   0  0  0  0  0  0  0  0  0  0  0  0
  -28.0801  -15.0378   22.6808 C   0  0  0  0  0  0  0  0  0  0  0  0
  -26.0104  -34.5989   24.0743 C   0  0  0  0  0  0  0  0  0  0  0  0
  -27.4746  -13.7478   22.1229 C   0  0  0  0  0  0  0  0  0  0  0  0
  -27.3657  -16.2775   22.1455 C   0  0  0  0  0  0  0  0  0  0  0  0
  -26.6555  -15.0605   20.1247 C   0  0  0  0  0  0  0  0  0  0  0  0
  -26.7726  -33.7280   23.0683 C   0  0  1  0  0  0  0  0  0  0  0  0
  -24.3006  -31.3743   21.4001 C   0  0  1  0  0  0  0  0  0  0  0  0
  -27.3837  -13.7871   20.5848 C   0  0  2  0  0  0  0  0  0  0  0  0
  -18.4163  -26.3676   21.9570 C   0  0  0  0  0  0  0  0  0  0  0  0
  -22.8972  -29.7341   25.4867 C   0  0  0  0  0  0  0  0  0  0  0  0
  -21.1469  -27.9466   25.3880 C   0  0  0  0  0  0  0  0  0  0  0  0
  -20.5349  -30.3169   24.9083 C   0  0  0  0  0  0  0  0  0  0  0  0
  -20.4264  -27.1716   18.8283 C   0  0  0  0  0  0  0  0  0  0  0  0
  -28.9338  -24.5866   18.6548 C   0  0  0  0  0  0  0  0  0  0  0  0
  -28.7752  -26.0983   18.7139 C   0  0  0  0  0  0  0  0  0  1  0  0
  -21.8954  -29.0212   23.2164 C   0  0  1  0  0  0  0  0  0  0  0  0
  -19.3541  -27.1868   21.0841 C   0  0  2  0  0  0  0  0  0  0  0  0
  -21.6412  -29.2538   24.7325 C   0  0  0  0  0  0  0  0  0  0  0  0
  -25.7954  -11.9081   20.7514 N   0  0  0  0  0  0  0  0  0  0  0  0
  -26.7407  -12.5310   20.0273 N   0  0  0  0  0  0  0  0  0  0  0  0
  -23.6643  -30.1591   21.9126 N   0  0  0  0  0  0  0  0  0  0  0  0
  -27.3215  -16.2482   20.6819 N   0  0  0  0  0  0  0  0  0  0  0  0
  -27.9326  -12.4211   17.9833 N   0  0  0  0  0  0  0  0  0  0  0  0
  -25.2090   -8.8234   17.7961 N   0  0  0  0  0  0  0  0  0  0  0  0
  -27.5946  -21.8853   17.4293 N   0  0  0  0  0  0  0  0  0  0  0  0
  -27.8161  -17.1575   18.5627 N   0  0  0  0  0  0  0  0  0  0  0  0
  -25.8494  -33.0668   22.1710 N   0  0  0  0  0  0  0  0  0  0  0  0
  -20.7165  -28.5920   22.4718 N   0  0  0  0  0  0  0  0  0  0  0  0
  -19.5435  -26.4668   19.7931 N   0  3  0  0  0  0  0  0  0  0  0  0
  -26.8447   -9.9806   16.6805 O   0  0  0  0  0  0  0  0  0  0  0  0
  -26.5078  -24.3862   18.8753 O   0  0  0  0  0  0  0  0  0  0  0  0
  -27.7713  -21.7909   19.7885 O   0  0  0  0  0  0  0  0  0  0  0  0
  -25.3416  -31.2341   23.5147 O   0  0  0  0  0  0  0  0  0  0  0  0
  -21.7097  -31.2791   22.5135 O   0  0  0  0  0  0  0  0  0  0  0  0
  -21.6214  -26.6072   21.6850 O   0  0  0  0  0  0  0  0  0  0  0  0
  -28.4249  -18.2718   20.5042 O   0  0  0  0  0  0  0  0  0  0  0  0
  -21.5394   -7.2648   21.6870 O   0  0  0  0  0  0  0  0  0  0  0  0
  -28.2087  -26.4671   19.9707 O   0  0  0  0  0  0  0  0  0  1  0  0
  -22.5642   -1.8821   21.0707 F   0  0  0  0  0  0  0  0  0  0  0  0
  -27.4686  -21.1632   14.7412 F   0  0  0  0  0  0  0  0  0  0  0  0
  -21.6051   -5.5741   23.8733 F   0  0  0  0  0  0  0  0  0  0  0  0
  1  2  1  0  0  0  0
  1  5  2  0  0  0  0
  2  6  2  0  0  0  0
  3  9  2  0  0  0  0
  3 18  1  0  0  0  0
  4 10  1  0  0  0  0
  4 18  2  0  0  0  0
  5 20  1  0  0  0  0
  6 22  1  0  0  0  0
  7 11  2  0  0  0  0
  7 21  1  0  0  0  0
  8 13  2  0  0  0  0
  8 24  1  0  0  0  0
  9 26  1  0  0  0  0
 10 26  2  0  0  0  0
 11 27  1  0  0  0  0
 12 14  2  0  0  0  0
 12 28  1  0  0  0  0
 13 30  1  0  0  0  0
 14 29  1  0  0  0  0
 15 23  1  0  0  0  0
 15 27  2  0  0  0  0
 16 24  2  0  0  0  0
 16 25  1  0  0  0  0
 17 29  2  0  0  0  0
 17 31  1  0  0  0  0
 18 32  1  0  0  0  0
 19 32  1  0  0  0  0
 19 33  2  0  0  0  0
 19 34  1  0  0  0  0
 20 22  2  0  0  0  0
 20 41  1  0  0  0  0
 21 23  2  0  0  0  0
 21 42  1  0  0  0  0
 22 50  1  0  0  0  0
 23 43  1  0  0  0  0
 24 70  1  0  0  0  0
 25 30  2  0  0  0  0
 25 69  1  0  0  0  0
 26 81  1  0  0  0  0
 27 82  1  0  0  0  0
 28 31  2  0  0  0  0
 28 81  1  0  0  0  0
 29 83  1  0  0  0  0
 30 84  1  0  0  0  0
 31 85  1  0  0  0  0
 32 63  2  0  0  0  0
 33 64  1  0  0  0  0
 33 67  1  0  0  0  0
 34 68  1  0  0  0  0
 34 74  2  0  0  0  0
 35 36  1  0  0  0  0
 35 58  1  0  0  0  0
 35 75  2  0  0  0  0
 36 69  1  0  0  0  0
 36 76  2  0  0  0  0
 37 51  1  0  0  0  0
 37 71  1  0  0  0  0
 37 77  2  0  0  0  0
 38 60  1  0  0  0  0
 38 65  1  0  0  0  0
 38 78  2  0  0  0  0
 39 61  1  0  0  0  0
 39 72  1  0  0  0  0
 39 79  2  0  0  0  0
 40 66  1  0  0  0  0
 40 70  1  0  0  0  0
 40 80  2  0  0  0  0
 41 44  1  0  0  0  0
 42 51  1  0  0  0  0
 43 65  1  0  0  0  0
 44 46  1  0  0  0  0
 45 47  1  0  0  0  0
 45 48  1  0  0  0  0
 46 50  1  0  0  0  0
 47 52  1  0  0  0  0
 48 66  1  0  0  0  0
 49 52  1  0  0  0  0
 49 66  1  0  0  0  0
 50 71  1  0  0  0  0
 51 65  1  0  0  0  0
 52 64  1  0  0  0  0
 53 61  1  0  0  0  0
 54 62  1  0  0  0  0
 55 62  1  0  0  0  0
 56 62  1  0  0  0  0
 57 73  1  0  0  0  0
 58 59  1  0  0  0  0
 59 82  1  0  0  0  0
 60 62  1  0  0  0  0
 60 72  1  0  0  0  0
 61 73  1  0  0  0  0
 63 64  1  0  0  0  0
M  CHG  1  73   1
M  ISO  4  40 100  59 101  70 100  82 101
M  END
> <Batch ID>
0170

> <Smiles>
CNC(C)C(=O)NC(C(=O)N1Cc2cc([101O:1][101CH2:1]CC(=O)C(=O)Nc3cc([100NH:0][100C:0](=O)N4CCCC(n5nc(-c6ccc(Oc7ccc(F)cc7F)cc6)c(C(N)=O)c5N)C4)ccc3F)ccc2CC1C(=O)NC1CCCc2ccccc21)C(C)(C)C

> <Shape>
0.296

> <Color>
0.105

> <Negative vol penalty>
0.000

$$$$

  -OEChem-04052304203D

 87 95  0     1  0  0  0  0  0999 V2000
  -27.8714  -35.6966   21.0633 C   0  0  0  0  0  0  0  0  0  0  0  0
  -28.1499  -34.3353   21.1335 C   0  0  0  0  0  0  0  0  0  0  0  0
  -23.4299  -10.1422   22.3834 C   0  0  0  0  0  0  0  0  0  0  0  0
  -23.4385   -9.9643   19.9740 C   0  0  0  0  0  0  0  0  0  0  0  0
  -26.7106  -36.2005   21.6487 C   0  0  0  0  0  0  0  0  0  0  0  0
  -27.2682  -33.4774   21.7900 C   0  0  0  0  0  0  0  0  0  0  0  0
  -26.3868  -29.2282   19.1799 C   0  0  0  0  0  0  0  0  0  0  0  0
  -22.6594   -8.9825   22.4663 C   0  0  0  0  0  0  0  0  0  0  0  0
  -22.6681   -8.8044   20.0569 C   0  0  0  0  0  0  0  0  0  0  0  0
  -27.3690  -28.2396   19.2223 C   0  0  0  0  0  0  0  0  0  0  0  0
  -23.1540   -5.6436   22.2655 C   0  0  0  0  0  0  0  0  0  0  0  0
  -23.5221   -4.6872   23.2117 C   0  0  0  0  0  0  0  0  0  0  0  0
  -30.0538  -18.4529   17.3643 C   0  0  0  0  0  0  0  0  0  0  0  0
  -26.0881  -27.0466   20.8821 C   0  0  0  0  0  0  0  0  0  0  0  0
  -27.8558  -19.7451   18.4963 C   0  0  0  0  0  0  0  0  0  0  0  0
  -21.3641   -4.9089   24.2752 C   0  0  0  0  0  0  0  0  0  0  0  0
  -23.8194  -10.6332   21.1372 C   0  0  0  0  0  0  0  0  0  0  0  0
  -30.1761  -19.7644   17.8232 C   0  0  0  0  0  0  0  0  0  0  0  0
  -26.0198  -11.9209   21.0491 C   0  0  0  0  0  0  0  0  0  0  0  0
  -25.8095  -35.3469   22.3044 C   0  0  0  0  0  0  0  0  0  0  0  0
  -25.2512  -29.1388   19.9977 C   0  0  0  0  0  0  0  0  0  0  0  0
  -26.0950  -33.9706   22.3858 C   0  0  0  0  0  0  0  0  0  0  0  0
  -25.0917  -28.0341   20.8464 C   0  0  0  0  0  0  0  0  0  0  0  0
  -29.0771  -20.4105   18.3892 C   0  0  0  0  0  0  0  0  0  0  0  0
  -27.7336  -18.4336   18.0374 C   0  0  0  0  0  0  0  0  0  0  0  0
  -22.2785   -8.3136   21.3031 C   0  0  0  0  0  0  0  0  0  0  0  0
  -27.2211  -27.1501   20.0756 C   0  0  0  0  0  0  0  0  0  0  0  0
  -21.8910   -6.2328   22.3242 C   0  0  0  0  0  0  0  0  0  0  0  0
  -22.6271   -4.3197   24.2165 C   0  0  0  0  0  0  0  0  0  0  0  0
  -28.8326  -17.7875   17.4714 C   0  0  0  0  0  0  0  0  0  0  0  0
  -20.9961   -5.8654   23.3290 C   0  0  0  0  0  0  0  0  0  0  0  0
  -24.6149  -11.8315   21.0509 C   0  0  0  0  0  0  0  0  0  0  0  0
  -26.2780  -13.2663   20.9498 C   0  0  0  0  0  0  0  0  0  0  0  0
  -27.8174  -24.9052   19.8004 C   0  0  0  0  0  0  0  0  0  1  0  0
  -31.4653  -20.4316   17.6930 C   0  0  0  0  0  0  0  0  0  0  0  0
  -27.0034  -10.8809   21.1299 C   0  0  0  0  0  0  0  0  0  0  0  0
  -28.6761  -23.8785   19.8102 C   0  0  0  0  0  0  0  0  0  0  0  0
  -28.1803  -22.5120   19.4429 C   0  0  0  0  0  0  0  0  0  0  0  0
  -24.0242  -30.9109   22.3339 C   0  0  0  0  0  0  0  0  0  0  0  0
  -21.5656  -28.8067   22.1104 C   0  0  0  0  0  0  0  0  0  0  0  0
  -20.4834  -25.7018   21.1962 C   0  0  0  0  0  0  0  0  0  0  0  0
  -25.3051  -18.2586   18.6842 C   0  0  0  0  0  0  0  0  0  0  0  0
  -24.5915  -35.9448   22.9629 C   0  0  0  0  0  0  0  0  0  0  0  0
  -24.1880  -30.1999   19.9207 C   0  0  0  0  0  0  0  0  0  0  0  0
  -23.8814  -27.8809   21.7297 C   0  0  0  0  0  0  0  0  0  0  0  0
  -23.5220  -34.9142   23.3154 C   0  0  0  0  0  0  0  0  0  0  0  0
  -23.1868  -17.2531   21.3635 C   0  0  0  0  0  0  0  0  0  0  0  0
  -24.1514  -33.7035   23.9973 C   0  0  0  0  0  0  0  0  0  0  0  0
  -23.4851  -15.7603   21.5209 C   0  0  0  0  0  0  0  0  0  0  0  0
  -23.2142  -17.6856   19.8986 C   0  0  0  0  0  0  0  0  0  0  0  0
  -24.7348  -15.8340   19.3255 C   0  0  0  0  0  0  0  0  0  0  0  0
  -25.1508  -33.0044   23.0678 C   0  0  1  0  0  0  0  0  0  0  0  0
  -23.3195  -30.2677   21.1731 C   0  0  1  0  0  0  0  0  0  0  0  0
  -24.7823  -15.3646   20.7888 C   0  0  2  0  0  0  0  0  0  0  0  0
  -32.6946  -19.5740   17.7434 C   0  0  0  0  0  0  0  0  0  0  0  0
  -18.4298  -24.2599   21.1706 C   0  0  0  0  0  0  0  0  0  0  0  0
  -21.8678  -28.3273   25.1085 C   0  0  0  0  0  0  0  0  0  0  0  0
  -20.4927  -26.2518   24.8447 C   0  0  0  0  0  0  0  0  0  0  0  0
  -19.5028  -28.4780   24.3094 C   0  0  0  0  0  0  0  0  0  0  0  0
  -20.5399  -25.4726   18.2461 C   0  0  0  0  0  0  0  0  0  0  0  0
  -21.2295  -27.4829   22.7536 C   0  0  1  0  0  0  0  0  0  0  0  0
  -19.2781  -25.2520   20.3904 C   0  0  2  0  0  0  0  0  0  0  0  0
  -20.7971  -27.6386   24.2390 C   0  0  0  0  0  0  0  0  0  0  0  0
  -24.0221  -13.0250   20.9601 N   0  0  0  0  0  0  0  0  0  0  0  0
  -25.0596  -13.8771   20.9004 N   0  0  0  0  0  0  0  0  0  0  0  0
  -22.8726  -28.9478   21.6230 N   0  0  0  0  0  0  0  0  0  0  0  0
  -24.4742  -17.2810   19.2713 N   0  0  0  0  0  0  0  0  0  0  0  0
  -27.4262  -13.9745   20.9009 N   0  0  0  0  0  0  0  0  0  0  0  0
  -26.5654   -9.5531   21.2272 N   0  0  0  0  0  0  0  0  0  0  0  0
  -29.1774  -21.7420   18.8599 N   0  0  0  0  0  0  0  0  0  0  0  0
  -26.4918  -17.7600   18.1478 N   0  0  0  0  0  0  0  0  0  0  0  0
  -24.4524  -32.2013   22.0872 N   0  0  0  0  0  0  0  0  0  0  0  0
  -20.2240  -26.8583   21.9009 N   0  0  0  0  0  0  0  0  0  0  0  0
  -19.7158  -24.6015   19.1230 N   0  3  0  0  0  0  0  0  0  0  0  0
  -31.6182  -21.6447   17.5499 O   0  0  0  0  0  0  0  0  0  0  0  0
  -28.2342  -11.1232   21.1328 O   0  0  0  0  0  0  0  0  0  0  0  0
  -27.0193  -22.1831   19.6615 O   0  0  0  0  0  0  0  0  0  0  0  0
  -24.1674  -30.2834   23.3767 O   0  0  0  0  0  0  0  0  0  0  0  0
  -20.6981  -29.6806   22.0365 O   0  0  0  0  0  0  0  0  0  0  0  0
  -21.5474  -25.0867   21.2030 O   0  0  0  0  0  0  0  0  0  0  0  0
  -25.0000  -19.4540   18.6833 O   0  0  0  0  0  0  0  0  0  0  0  0
  -30.0067  -24.0271   20.1450 O   0  0  0  0  0  0  0  0  0  0  0  0
  -21.5269   -7.1817   21.3837 O   0  0  0  0  0  0  0  0  0  0  0  0
  -28.1786  -26.1841   20.1194 O   0  0  0  0  0  0  0  0  0  1  0  0
  -22.9801   -3.4001   25.1241 F   0  0  0  0  0  0  0  0  0  0  0  0
  -28.7267  -16.5270   17.0269 F   0  0  0  0  0  0  0  0  0  0  0  0
  -19.7809   -6.4271   23.3898 F   0  0  0  0  0  0  0  0  0  0  0  0
  1  2  1  0  0  0  0
  1  5  2  0  0  0  0
  2  6  2  0  0  0  0
  3  8  2  0  0  0  0
  3 17  1  0  0  0  0
  4  9  1  0  0  0  0
  4 17  2  0  0  0  0
  5 20  1  0  0  0  0
  6 22  1  0  0  0  0
  7 10  2  0  0  0  0
  7 21  1  0  0  0  0
  8 26  1  0  0  0  0
  9 26  2  0  0  0  0
 10 27  1  0  0  0  0
 11 12  2  0  0  0  0
 11 28  1  0  0  0  0
 12 29  1  0  0  0  0
 13 18  1  0  0  0  0
 13 30  2  0  0  0  0
 14 23  1  0  0  0  0
 14 27  2  0  0  0  0
 15 24  1  0  0  0  0
 15 25  2  0  0  0  0
 16 29  2  0  0  0  0
 16 31  1  0  0  0  0
 17 32  1  0  0  0  0
 18 24  2  0  0  0  0
 18 35  1  0  0  0  0
 19 32  1  0  0  0  0
 19 33  2  0  0  0  0
 19 36  1  0  0  0  0
 20 22  2  0  0  0  0
 20 43  1  0  0  0  0
 21 23  2  0  0  0  0
 21 44  1  0  0  0  0
 22 52  1  0  0  0  0
 23 45  1  0  0  0  0
 24 70  1  0  0  0  0
 25 30  1  0  0  0  0
 25 71  1  0  0  0  0
 26 83  1  0  0  0  0
 27 84  1  0  0  0  0
 28 31  2  0  0  0  0
 28 83  1  0  0  0  0
 29 85  1  0  0  0  0
 30 86  1  0  0  0  0
 31 87  1  0  0  0  0
 32 64  2  0  0  0  0
 33 65  1  0  0  0  0
 33 68  1  0  0  0  0
 34 37  2  0  0  0  0
 34 84  1  0  0  0  0
 35 55  1  0  0  0  0
 35 75  2  0  0  0  0
 36 69  1  0  0  0  0
 36 76  2  0  0  0  0
 37 38  1  0  0  0  0
 37 82  1  0  0  0  0
 38 70  1  0  0  0  0
 38 77  2  0  0  0  0
 39 53  1  0  0  0  0
 39 72  1  0  0  0  0
 39 78  2  0  0  0  0
 40 61  1  0  0  0  0
 40 66  1  0  0  0  0
 40 79  2  0  0  0  0
 41 62  1  0  0  0  0
 41 73  1  0  0  0  0
 41 80  2  0  0  0  0
 42 67  1  0  0  0  0
 42 71  1  0  0  0  0
 42 81  2  0  0  0  0
 43 46  1  0  0  0  0
 44 53  1  0  0  0  0
 45 66  1  0  0  0  0
 46 48  1  0  0  0  0
 47 49  1  0  0  0  0
 47 50  1  0  0  0  0
 48 52  1  0  0  0  0
 49 54  1  0  0  0  0
 50 67  1  0  0  0  0
 51 54  1  0  0  0  0
 51 67  1  0  0  0  0
 52 72  1  0  0  0  0
 53 66  1  0  0  0  0
 54 65  1  0  0  0  0
 56 62  1  0  0  0  0
 57 63  1  0  0  0  0
 58 63  1  0  0  0  0
 59 63  1  0  0  0  0
 60 74  1  0  0  0  0
 61 63  1  0  0  0  0
 61 73  1  0  0  0  0
 62 74  1  0  0  0  0
 64 65  1  0  0  0  0
M  CHG  1  74   1
M  ISO  4  34 101  42 100  71 100  84 101
M  END
> <Batch ID>
0170

> <Smiles>
CNC(C)C(=O)NC(C(=O)N1Cc2cc([101O:1][101CH2:1]C(=O)C(=O)Nc3cc([100NH:0][100C:0](=O)N4CCCC(n5nc(-c6ccc(Oc7ccc(F)cc7F)cc6)c(C(N)=O)c5N)C4)c(F)cc3C(C)=O)ccc2CC1C(=O)NC1CCCc2ccccc21)C(C)(C)C

> <Shape>
0.302

> <Color>
0.100

> <Negative vol penalty>
0.000

$$$$

  -OEChem-04052304203D

 86 94  0     1  0  0  0  0  0999 V2000
  -16.2999  -18.7998   17.3448 C   0  0  0  0  0  0  0  0  0  0  0  0
  -17.5119  -19.2085   17.8922 C   0  0  0  0  0  0  0  0  0  0  0  0
  -23.0718   -9.8703   19.9445 C   0  0  0  0  0  0  0  0  0  0  0  0
  -23.8343   -9.8795   22.2370 C   0  0  0  0  0  0  0  0  0  0  0  0
  -16.2775  -18.1476   16.1127 C   0  0  0  0  0  0  0  0  0  0  0  0
  -18.7022  -18.9642   17.2083 C   0  0  0  0  0  0  0  0  0  0  0  0
  -21.7821  -22.9840   17.1723 C   0  0  0  0  0  0  0  0  0  0  0  0
  -30.3759  -18.0971   24.0281 C   0  0  0  0  0  0  0  0  0  0  0  0
  -22.3282   -8.7175   20.1964 C   0  0  0  0  0  0  0  0  0  0  0  0
  -23.0905   -8.7267   22.4890 C   0  0  0  0  0  0  0  0  0  0  0  0
  -22.5101  -23.2387   18.3337 C   0  0  0  0  0  0  0  0  0  0  0  0
  -20.5137   -5.5666   20.1431 C   0  0  0  0  0  0  0  0  0  0  0  0
  -29.5841  -18.9060   24.8431 C   0  0  0  0  0  0  0  0  0  0  0  0
  -20.5758   -4.5352   19.2061 C   0  0  0  0  0  0  0  0  0  0  0  0
  -24.4498  -22.2078   17.3367 C   0  0  0  0  0  0  0  0  0  0  0  0
  -22.9610   -4.3653   19.5514 C   0  0  0  0  0  0  0  0  0  0  0  0
  -23.8250  -10.4513   20.9648 C   0  0  0  0  0  0  0  0  0  0  0  0
  -24.1669  -12.9763   20.8420 C   0  0  0  0  0  0  0  0  0  0  0  0
  -17.4673  -17.9039   15.4087 C   0  0  0  0  0  0  0  0  0  0  0  0
  -22.3804  -22.3283   16.0866 C   0  0  0  0  0  0  0  0  0  0  0  0
  -18.6958  -18.3070   15.9662 C   0  0  0  0  0  0  0  0  0  0  0  0
  -23.7279  -21.9482   16.1617 C   0  0  0  0  0  0  0  0  0  0  0  0
  -29.9430  -17.7639   22.7446 C   0  0  0  0  0  0  0  0  0  0  0  0
  -28.7182  -18.2395   22.2763 C   0  0  0  0  0  0  0  0  0  0  0  0
  -27.9264  -19.0483   23.0913 C   0  0  0  0  0  0  0  0  0  0  0  0
  -22.3375   -8.1457   21.4686 C   0  0  0  0  0  0  0  0  0  0  0  0
  -23.8433  -22.8480   18.4171 C   0  0  0  0  0  0  0  0  0  0  0  0
  -21.6752   -5.9973   20.7843 C   0  0  0  0  0  0  0  0  0  0  0  0
  -21.7995   -3.9345   18.9102 C   0  0  0  0  0  0  0  0  0  0  0  0
  -28.3594  -19.3816   24.3748 C   0  0  0  0  0  0  0  0  0  0  0  0
  -22.8988   -5.3967   20.4884 C   0  0  0  0  0  0  0  0  0  0  0  0
  -24.5938  -11.6419   20.7051 C   0  0  0  0  0  0  0  0  0  0  0  0
  -25.2587  -13.7254   20.4767 C   0  0  0  0  0  0  0  0  0  0  0  0
  -22.8969  -13.4927   21.2618 C   0  0  0  0  0  0  0  0  0  0  0  0
  -21.8581  -19.5936   14.5530 C   0  0  0  0  0  0  0  0  0  0  0  0
  -25.3294  -21.3248   21.7689 C   0  0  0  0  0  0  0  0  0  0  0  0
  -24.1617  -20.7194   12.5658 C   0  0  0  0  0  0  0  0  0  0  0  0
  -26.8600  -22.7609   12.1210 C   0  0  0  0  0  0  0  0  0  0  0  0
  -30.7427  -14.7442   20.6581 C   0  0  0  0  0  0  0  0  0  0  0  0
  -17.3972  -17.1534   14.1024 C   0  0  0  0  0  0  0  0  0  0  0  0
  -21.5890  -22.0848   14.8308 C   0  0  0  0  0  0  0  0  0  0  0  0
  -24.4226  -21.2595   15.0165 C   0  0  0  0  0  0  0  0  0  0  0  0
  -18.6691  -17.2664   13.2660 C   0  0  0  0  0  0  0  0  0  0  0  0
  -29.6023  -12.3574   18.2749 C   0  0  0  0  0  0  0  0  0  0  0  0
  -19.9013  -17.0291   14.1333 C   0  0  0  0  0  0  0  0  0  0  0  0
  -28.1653  -12.0642   18.7097 C   0  0  0  0  0  0  0  0  0  0  0  0
  -30.5207  -12.5793   19.4745 C   0  0  0  0  0  0  0  0  0  0  0  0
  -28.6206  -13.3119   20.8625 C   0  0  0  0  0  0  0  0  0  0  0  0
  -20.0060  -18.0822   15.2430 C   0  0  1  0  0  0  0  0  0  0  0  0
  -22.1526  -20.9510   13.9799 C   0  0  1  0  0  0  0  0  0  0  0  0
  -27.6451  -13.1363   19.6861 C   0  0  2  0  0  0  0  0  0  0  0  0
  -28.2566  -17.8785   20.8990 C   0  0  0  0  0  0  0  0  0  0  0  0
  -28.5558  -23.4374   10.3993 C   0  0  0  0  0  0  0  0  0  0  0  0
  -25.6401  -18.0842   12.9902 C   0  0  0  0  0  0  0  0  0  0  0  0
  -27.6957  -19.1677   12.0581 C   0  0  0  0  0  0  0  0  0  0  0  0
  -25.6615  -18.9248   10.6349 C   0  0  0  0  0  0  0  0  0  0  0  0
  -25.9759  -25.5845   12.1910 C   0  0  0  0  0  0  0  0  0  0  0  0
  -30.8101  -16.8959   21.8928 C   0  0  0  0  0  0  0  0  0  0  0  0
  -24.7576  -22.7282   21.9203 C   0  0  0  0  0  0  0  0  0  0  0  0
  -26.2241  -20.8627   22.9016 C   0  0  0  0  0  0  0  0  0  0  0  0
  -23.8323  -23.1228   20.7794 C   0  0  0  0  0  0  0  0  0  1  0  0
  -25.6670  -20.6208   12.5099 C   0  0  1  0  0  0  0  0  0  0  0  0
  -27.2042  -23.7503   11.0223 C   0  0  2  0  0  0  0  0  0  0  0  0
  -26.1527  -19.2106   12.0708 C   0  0  0  0  0  0  0  0  0  0  0  0
  -25.8582  -11.5455   20.2855 N   0  0  0  0  0  0  0  0  0  0  0  0
  -26.2351  -12.8290   20.1555 N   0  0  0  0  0  0  0  0  0  0  0  0
  -23.6047  -21.0379   13.8125 N   0  0  0  0  0  0  0  0  0  0  0  0
  -29.9712  -13.6088   20.3601 N   0  0  0  0  0  0  0  0  0  0  0  0
  -25.4691  -15.0567   20.4022 N   0  0  0  0  0  0  0  0  0  0  0  0
  -21.8853  -12.5839   21.6011 N   0  0  0  0  0  0  0  0  0  0  0  0
  -26.7055  -19.5294   22.6416 N   0  0  0  0  0  0  0  0  0  0  0  0
  -20.5109  -19.3294   14.7101 N   0  0  0  0  0  0  0  0  0  0  0  0
  -26.1150  -21.7043   11.6416 N   0  0  0  0  0  0  0  0  0  0  0  0
  -30.1445  -15.6738   21.4998 N   0  0  0  0  0  0  0  0  0  0  0  0
  -27.2481  -25.1363   11.5685 N   0  3  0  0  0  0  0  0  0  0  0  0
  -22.6608  -14.7233   21.3182 O   0  0  0  0  0  0  0  0  0  0  0  0
  -22.7846  -18.8410   14.8305 O   0  0  0  0  0  0  0  0  0  0  0  0
  -25.0831  -20.6169   20.7934 O   0  0  0  0  0  0  0  0  0  0  0  0
  -23.5046  -20.5280   11.5396 O   0  0  0  0  0  0  0  0  0  0  0  0
  -27.2194  -22.9086   13.2870 O   0  0  0  0  0  0  0  0  0  0  0  0
  -31.8782  -14.9191   20.2030 O   0  0  0  0  0  0  0  0  0  0  0  0
  -21.6117   -7.0209   21.7149 O   0  0  0  0  0  0  0  0  0  0  0  0
  -24.5560  -23.0949   19.5498 O   0  0  0  0  0  0  0  0  0  1  0  0
  -21.8588   -2.9431   18.0115 F   0  0  0  0  0  0  0  0  0  0  0  0
  -27.6066  -20.1572   25.1681 F   0  0  0  0  0  0  0  0  0  0  0  0
  -24.0179   -5.8054   21.1020 F   0  0  0  0  0  0  0  0  0  0  0  0
  1  2  1  0  0  0  0
  1  5  2  0  0  0  0
  2  6  2  0  0  0  0
  3  9  2  0  0  0  0
  3 17  1  0  0  0  0
  4 10  1  0  0  0  0
  4 17  2  0  0  0  0
  5 19  1  0  0  0  0
  6 21  1  0  0  0  0
  7 11  2  0  0  0  0
  7 20  1  0  0  0  0
  8 13  1  0  0  0  0
  8 23  2  0  0  0  0
  9 26  1  0  0  0  0
 10 26  2  0  0  0  0
 11 27  1  0  0  0  0
 12 14  2  0  0  0  0
 12 28  1  0  0  0  0
 13 30  2  0  0  0  0
 14 29  1  0  0  0  0
 15 22  1  0  0  0  0
 15 27  2  0  0  0  0
 16 29  2  0  0  0  0
 16 31  1  0  0  0  0
 17 32  1  0  0  0  0
 18 32  1  0  0  0  0
 18 33  2  0  0  0  0
 18 34  1  0  0  0  0
 19 21  2  0  0  0  0
 19 40  1  0  0  0  0
 20 22  2  0  0  0  0
 20 41  1  0  0  0  0
 21 49  1  0  0  0  0
 22 42  1  0  0  0  0
 23 24  1  0  0  0  0
 23 58  1  0  0  0  0
 24 25  2  0  0  0  0
 24 52  1  0  0  0  0
 25 30  1  0  0  0  0
 25 71  1  0  0  0  0
 26 82  1  0  0  0  0
 27 83  1  0  0  0  0
 28 31  2  0  0  0  0
 28 82  1  0  0  0  0
 29 84  1  0  0  0  0
 30 85  1  0  0  0  0
 31 86  1  0  0  0  0
 32 65  2  0  0  0  0
 33 66  1  0  0  0  0
 33 69  1  0  0  0  0
 34 70  1  0  0  0  0
 34 76  2  0  0  0  0
 35 50  1  0  0  0  0
 35 72  1  0  0  0  0
 35 77  2  0  0  0  0
 36 59  1  0  0  0  0
 36 60  1  0  0  0  0
 36 78  2  0  0  0  0
 37 62  1  0  0  0  0
 37 67  1  0  0  0  0
 37 79  2  0  0  0  0
 38 63  1  0  0  0  0
 38 73  1  0  0  0  0
 38 80  2  0  0  0  0
 39 68  1  0  0  0  0
 39 74  1  0  0  0  0
 39 81  2  0  0  0  0
 40 43  1  0  0  0  0
 41 50  1  0  0  0  0
 42 67  1  0  0  0  0
 43 45  1  0  0  0  0
 44 46  1  0  0  0  0
 44 47  1  0  0  0  0
 45 49  1  0  0  0  0
 46 51  1  0  0  0  0
 47 68  1  0  0  0  0
 48 51  1  0  0  0  0
 48 68  1  0  0  0  0
 49 72  1  0  0  0  0
 50 67  1  0  0  0  0
 51 66  1  0  0  0  0
 53 63  1  0  0  0  0
 54 64  1  0  0  0  0
 55 64  1  0  0  0  0
 56 64  1  0  0  0  0
 57 75  1  0  0  0  0
 58 74  1  0  0  0  0
 59 61  1  0  0  0  0
 60 71  1  0  0  0  0
 61 83  1  0  0  0  0
 62 64  1  0  0  0  0
 62 73  1  0  0  0  0
 63 75  1  0  0  0  0
 65 66  1  0  0  0  0
M  CHG  1  75   1
M  ISO  4  39 100  61 101  74 100  83 101
M  END
> <Batch ID>
0170

> <Smiles>
CNC(C)C(=O)NC(C(=O)N1Cc2cc([101O:1][101CH2:1]CC(=O)CNc3c(F)ccc(C[100NH:0][100C:0](=O)N4CCCC(n5nc(-c6ccc(Oc7ccc(F)cc7F)cc6)c(C(N)=O)c5N)C4)c3C)ccc2CC1C(=O)NC1CCCc2ccccc21)C(C)(C)C

> <Shape>
0.155

> <Color>
0.191

> <Negative vol penalty>
0.000

$$$$

  -OEChem-04052304203D

 84 92  0     1  0  0  0  0  0999 V2000
  -29.5911  -12.4836   19.7380 C   0  0  0  0  0  0  0  0  0  0  0  0
  -29.4388  -13.8412   19.4753 C   0  0  0  0  0  0  0  0  0  0  0  0
  -29.7680  -23.9999   20.3760 C   0  0  0  0  0  0  0  0  0  0  0  0
  -27.7893  -23.6431   19.0364 C   0  0  0  0  0  0  0  0  0  0  0  0
  -28.4711  -11.6953   19.9991 C   0  0  0  0  0  0  0  0  0  0  0  0
  -28.1661  -14.4112   19.4725 C   0  0  0  0  0  0  0  0  0  0  0  0
  -24.7870  -20.5327   21.0299 C   0  0  0  0  0  0  0  0  0  0  0  0
  -30.0111  -22.6264   20.3828 C   0  0  0  0  0  0  0  0  0  0  0  0
  -28.0324  -22.2695   19.0431 C   0  0  0  0  0  0  0  0  0  0  0  0
  -23.9087  -21.4532   20.4599 C   0  0  0  0  0  0  0  0  0  0  0  0
  -30.0569  -20.0920   17.4368 C   0  0  0  0  0  0  0  0  0  0  0  0
  -29.9325  -19.4074   16.2279 C   0  0  0  0  0  0  0  0  0  0  0  0
  -22.0535  -20.0100   21.0025 C   0  0  0  0  0  0  0  0  0  0  0  0
  -19.6075  -28.7447   22.7447 C   0  0  0  0  0  0  0  0  0  0  0  0
  -18.8672  -26.4646   22.9815 C   0  0  0  0  0  0  0  0  0  0  0  0
  -28.2068  -18.0185   17.1920 C   0  0  0  0  0  0  0  0  0  0  0  0
  -28.6571  -24.5082   19.7028 C   0  0  0  0  0  0  0  0  0  0  0  0
  -28.8700  -26.8683   18.7581 C   0  0  0  0  0  0  0  0  0  0  0  0
  -27.1850  -12.2578   20.0090 C   0  0  0  0  0  0  0  0  0  0  0  0
  -24.3054  -19.3368   21.5816 C   0  0  0  0  0  0  0  0  0  0  0  0
  -27.0278  -13.6294   19.7326 C   0  0  0  0  0  0  0  0  0  0  0  0
  -22.9275  -19.0770   21.5812 C   0  0  0  0  0  0  0  0  0  0  0  0
  -18.7521  -27.8096   23.3194 C   0  0  0  0  0  0  0  0  0  0  0  0
  -29.1433  -21.7612   19.7164 C   0  0  0  0  0  0  0  0  0  0  0  0
  -22.5420  -21.1906   20.4436 C   0  0  0  0  0  0  0  0  0  0  0  0
  -29.2563  -19.7398   18.5233 C   0  0  0  0  0  0  0  0  0  0  0  0
  -29.0075  -18.3707   16.1054 C   0  0  0  0  0  0  0  0  0  0  0  0
  -28.3312  -18.7030   18.4009 C   0  0  0  0  0  0  0  0  0  0  0  0
  -28.4051  -25.9269   19.6959 C   0  0  0  0  0  0  0  0  0  0  0  0
  -20.5640  -28.3078   21.8393 C   0  0  0  0  0  0  0  0  0  0  0  0
  -28.3588  -28.0668   19.1924 C   0  0  0  0  0  0  0  0  0  0  0  0
  -19.8423  -26.0854   22.0700 C   0  0  0  0  0  0  0  0  0  0  0  0
  -29.6905  -26.6765   17.5981 C   0  0  0  0  0  0  0  0  0  0  0  0
  -24.7275  -16.2487   20.9578 C   0  0  0  0  0  0  0  0  0  0  0  0
  -22.9655  -15.8629   23.6539 C   0  0  0  0  0  0  0  0  0  0  0  0
  -20.6700  -17.1541   25.8242 C   0  0  0  0  0  0  0  0  0  0  0  0
  -20.8705  -24.1462   20.8365 C   0  0  0  0  0  0  0  0  0  0  0  0
  -23.5901  -29.5006   22.5173 C   0  0  0  0  0  0  0  0  0  0  0  0
  -26.0002  -11.3562   20.2499 C   0  0  0  0  0  0  0  0  0  0  0  0
  -25.2633  -18.3664   22.2166 C   0  0  0  0  0  0  0  0  0  0  0  0
  -22.3578  -17.8173   22.1786 C   0  0  0  0  0  0  0  0  0  0  0  0
  -24.7204  -12.1120   20.5976 C   0  0  0  0  0  0  0  0  0  0  0  0
  -26.9890  -30.3286   23.1797 C   0  0  0  0  0  0  0  0  0  0  0  0
  -24.5145  -13.2819   19.6407 C   0  0  0  0  0  0  0  0  0  0  0  0
  -27.7793  -29.3794   22.2774 C   0  0  0  0  0  0  0  0  0  0  0  0
  -25.7369  -29.6601   23.7431 C   0  0  0  0  0  0  0  0  0  0  0  0
  -25.6373  -28.1105   21.8293 C   0  0  0  0  0  0  0  0  0  0  0  0
  -25.6660  -14.2893   19.7451 C   0  0  1  0  0  0  0  0  0  0  0  0
  -24.7136  -16.9451   22.2892 C   0  0  1  0  0  0  0  0  0  0  0  0
  -26.8792  -28.7576   21.1927 C   0  0  2  0  0  0  0  0  0  0  0  0
  -19.3977  -16.5892   27.9122 C   0  0  0  0  0  0  0  0  0  0  0  0
  -19.3032  -22.2812   20.1846 C   0  0  0  0  0  0  0  0  0  0  0  0
  -21.1092  -14.0636   22.0332 C   0  0  0  0  0  0  0  0  0  0  0  0
  -19.4019  -14.3079   23.8480 C   0  0  0  0  0  0  0  0  0  0  0  0
  -21.6025  -13.2427   24.3434 C   0  0  0  0  0  0  0  0  0  0  0  0
  -21.8849  -19.4053   27.3124 C   0  0  0  0  0  0  0  0  0  0  0  0
  -21.5139  -29.2418   21.1826 C   0  0  0  0  0  0  0  0  0  0  0  0
  -21.4923  -15.7393   23.9597 C   0  0  1  0  0  0  0  0  0  0  0  0
  -20.6505  -17.2340   27.3400 C   0  0  2  0  0  0  0  0  0  0  0  0
  -20.6758  -22.6354   20.7373 C   0  0  1  0  0  0  0  0  0  1  0  0
  -20.9121  -14.3613   23.5330 C   0  0  0  0  0  0  0  0  0  0  0  0
  -27.6563  -26.4798   20.6538 N   0  0  0  0  0  0  0  0  0  0  0  0
  -27.6468  -27.7816   20.3202 N   0  0  0  0  0  0  0  0  0  0  0  0
  -20.6529  -27.0066   21.5317 N   0  3  0  0  0  0  0  0  0  0  0  0
  -23.3355  -16.8966   22.7819 N   0  0  0  0  0  0  0  0  0  0  0  0
  -24.9262  -29.0924   22.6631 N   0  0  0  0  0  0  0  0  0  0  0  0
  -17.7704  -28.2244   24.2427 N   0  0  0  0  0  0  0  0  0  0  0  0
  -28.4534  -29.3263   18.7159 N   0  0  0  0  0  0  0  0  0  0  0  0
  -30.1292  -25.3798   17.2969 N   0  0  0  0  0  0  0  0  0  0  0  0
  -19.9639  -24.7188   21.7227 N   0  0  0  0  0  0  0  0  0  0  0  0
  -25.5124  -15.1118   20.9258 N   0  0  0  0  0  0  0  0  0  0  0  0
  -21.3440  -16.0361   25.3803 N   0  0  0  0  0  0  0  0  0  0  0  0
  -22.8947  -28.9184   21.4646 N   0  0  0  0  0  0  0  0  0  0  0  0
  -20.6921  -18.6559   27.7843 N   0  3  0  0  0  0  0  0  0  0  0  0
  -30.0384  -27.6292   16.8600 O   0  0  0  0  0  0  0  0  0  0  0  0
  -24.0735  -16.7079   20.0289 O   0  0  0  0  0  0  0  0  0  0  0  0
  -23.7594  -15.0758   24.1752 O   0  0  0  0  0  0  0  0  0  0  0  0
  -20.1370  -17.9969   25.1058 O   0  0  0  0  0  0  0  0  0  0  0  0
  -21.7492  -24.7180   20.1978 O   0  0  0  0  0  0  0  0  0  0  0  0
  -23.0580  -30.3268   23.2664 O   0  0  0  0  0  0  0  0  0  0  0  0
  -29.3804  -20.4210   19.7226 O   0  0  0  0  0  0  0  0  0  0  0  0
  -21.6825  -22.0872   19.8873 O   0  0  0  0  0  0  0  0  0  1  0  0
  -28.8871  -17.7144   14.9440 F   0  0  0  0  0  0  0  0  0  0  0  0
  -27.5584  -18.3609   19.4409 F   0  0  0  0  0  0  0  0  0  0  0  0
  1  2  1  0  0  0  0
  1  5  2  0  0  0  0
  2  6  2  0  0  0  0
  3  8  2  0  0  0  0
  3 17  1  0  0  0  0
  4  9  1  0  0  0  0
  4 17  2  0  0  0  0
  5 19  1  0  0  0  0
  6 21  1  0  0  0  0
  7 10  2  0  0  0  0
  7 20  1  0  0  0  0
  8 24  1  0  0  0  0
  9 24  2  0  0  0  0
 10 25  1  0  0  0  0
 11 12  2  0  0  0  0
 11 26  1  0  0  0  0
 12 27  1  0  0  0  0
 13 22  1  0  0  0  0
 13 25  2  0  0  0  0
 14 23  1  0  0  0  0
 14 30  2  0  0  0  0
 15 23  2  0  0  0  0
 15 32  1  0  0  0  0
 16 27  2  0  0  0  0
 16 28  1  0  0  0  0
 17 29  1  0  0  0  0
 18 29  1  0  0  0  0
 18 31  2  0  0  0  0
 18 33  1  0  0  0  0
 19 21  2  0  0  0  0
 19 39  1  0  0  0  0
 20 22  2  0  0  0  0
 20 40  1  0  0  0  0
 21 48  1  0  0  0  0
 22 41  1  0  0  0  0
 23 67  1  0  0  0  0
 24 81  1  0  0  0  0
 25 82  1  0  0  0  0
 26 28  2  0  0  0  0
 26 81  1  0  0  0  0
 27 83  1  0  0  0  0
 28 84  1  0  0  0  0
 29 62  2  0  0  0  0
 30 57  1  0  0  0  0
 30 64  1  0  0  0  0
 31 63  1  0  0  0  0
 31 68  1  0  0  0  0
 32 64  2  0  0  0  0
 32 70  1  0  0  0  0
 33 69  1  0  0  0  0
 33 75  2  0  0  0  0
 34 49  1  0  0  0  0
 34 71  1  0  0  0  0
 34 76  2  0  0  0  0
 35 58  1  0  0  0  0
 35 65  1  0  0  0  0
 35 77  2  0  0  0  0
 36 59  1  0  0  0  0
 36 72  1  0  0  0  0
 36 78  2  0  0  0  0
 37 60  1  0  0  0  0
 37 70  1  0  0  0  0
 37 79  2  0  0  0  0
 38 66  1  0  0  0  0
 38 73  1  0  0  0  0
 38 80  2  0  0  0  0
 39 42  1  0  0  0  0
 40 49  1  0  0  0  0
 41 65  1  0  0  0  0
 42 44  1  0  0  0  0
 43 45  1  0  0  0  0
 43 46  1  0  0  0  0
 44 48  1  0  0  0  0
 45 50  1  0  0  0  0
 46 66  1  0  0  0  0
 47 50  1  0  0  0  0
 47 66  1  0  0  0  0
 48 71  1  0  0  0  0
 49 65  1  0  0  0  0
 50 63  1  0  0  0  0
 51 59  1  0  0  0  0
 52 60  1  0  0  0  0
 53 61  1  0  0  0  0
 54 61  1  0  0  0  0
 55 61  1  0  0  0  0
 56 74  1  0  0  0  0
 57 73  1  0  0  0  0
 58 61  1  0  0  0  0
 58 72  1  0  0  0  0
 59 74  1  0  0  0  0
 60 82  1  0  0  0  0
 62 63  1  0  0  0  0
M  CHG  2  64   1  74   1
M  ISO  4  38 100  60 101  73 100  82 101
M  END
> <Batch ID>
0170

> <Smiles>
CNC(C)C(=O)NC(C(=O)N1Cc2cc([101O:1][101CH:1](C)C(=O)Nc3cc(N)cc(C[100NH:0][100C:0](=O)N4CCCC(n5nc(-c6ccc(Oc7ccc(F)cc7F)cc6)c(C(N)=O)c5N)C4)n3)ccc2CC1C(=O)NC1CCCc2ccccc21)C(C)(C)C

> <Shape>
0.226

> <Color>
0.073

> <Negative vol penalty>
0.000

$$$$

  -OEChem-04052304203D

 84 92  0     1  0  0  0  0  0999 V2000
  -28.7615  -36.3448   18.8038 C   0  0  0  0  0  0  0  0  0  0  0  0
  -28.9833  -35.0076   19.1171 C   0  0  0  0  0  0  0  0  0  0  0  0
  -23.5564   -9.5022   22.5778 C   0  0  0  0  0  0  0  0  0  0  0  0
  -23.0152  -10.0299   20.2831 C   0  0  0  0  0  0  0  0  0  0  0  0
  -27.7786  -37.0647   19.4818 C   0  0  0  0  0  0  0  0  0  0  0  0
  -28.2230  -34.3898   20.1095 C   0  0  0  0  0  0  0  0  0  0  0  0
  -26.6010  -29.7936   18.7351 C   0  0  0  0  0  0  0  0  0  0  0  0
  -22.9384   -8.2596   22.4378 C   0  0  0  0  0  0  0  0  0  0  0  0
  -22.3973   -8.7873   20.1431 C   0  0  0  0  0  0  0  0  0  0  0  0
  -27.5212  -28.7482   18.7993 C   0  0  0  0  0  0  0  0  0  0  0  0
  -23.6809   -5.2453   21.0978 C   0  0  0  0  0  0  0  0  0  0  0  0
  -24.3484   -4.1290   21.6016 C   0  0  0  0  0  0  0  0  0  0  0  0
  -26.5705  -28.0487   20.9032 C   0  0  0  0  0  0  0  0  0  0  0  0
  -28.1108  -20.2941   20.0113 C   0  0  0  0  0  0  0  0  0  0  0  0
  -22.4898   -3.6846   23.0798 C   0  0  0  0  0  0  0  0  0  0  0  0
  -26.2382  -21.7517   20.1705 C   0  0  0  0  0  0  0  0  0  0  0  0
  -23.5947  -10.3874   21.5005 C   0  0  0  0  0  0  0  0  0  0  0  0
  -25.5830  -11.9824   21.3975 C   0  0  0  0  0  0  0  0  0  0  0  0
  -26.9993  -36.4528   20.4762 C   0  0  0  0  0  0  0  0  0  0  0  0
  -25.6642  -29.9813   19.7615 C   0  0  0  0  0  0  0  0  0  0  0  0
  -27.2297  -35.1026   20.8023 C   0  0  0  0  0  0  0  0  0  0  0  0
  -25.6378  -29.0957   20.8483 C   0  0  0  0  0  0  0  0  0  0  0  0
  -27.2870  -19.2429   20.3981 C   0  0  0  0  0  0  0  0  0  0  0  0
  -27.5842  -21.5755   19.8930 C   0  0  0  0  0  0  0  0  0  0  0  0
  -22.3589   -7.9021   21.2205 C   0  0  0  0  0  0  0  0  0  0  0  0
  -27.5079  -27.8772   19.8849 C   0  0  0  0  0  0  0  0  0  0  0  0
  -22.4178   -5.5814   21.5851 C   0  0  0  0  0  0  0  0  0  0  0  0
  -23.7529   -3.3486   22.5925 C   0  0  0  0  0  0  0  0  0  0  0  0
  -21.8223   -4.8010   22.5760 C   0  0  0  0  0  0  0  0  0  0  0  0
  -24.2324  -11.6714   21.6447 C   0  0  0  0  0  0  0  0  0  0  0  0
  -25.9543  -19.5236   20.6532 C   0  0  0  0  0  0  0  0  0  0  0  0
  -25.6842  -13.3225   21.6809 C   0  0  0  0  0  0  0  0  0  0  0  0
  -26.6505  -11.1356   20.9514 C   0  0  0  0  0  0  0  0  0  0  0  0
  -25.0524  -32.3045   21.8429 C   0  0  0  0  0  0  0  0  0  0  0  0
  -22.5055  -30.4376   22.5851 C   0  0  0  0  0  0  0  0  0  0  0  0
  -28.0173  -23.9943   19.3401 C   0  0  0  0  0  0  0  0  0  0  0  0
  -21.1058  -27.3253   22.6160 C   0  0  0  0  0  0  0  0  0  0  0  0
  -23.7454  -18.5315   21.3481 C   0  0  0  0  0  0  0  0  0  0  0  0
  -25.9807  -37.2845   21.2146 C   0  0  0  0  0  0  0  0  0  0  0  0
  -24.6610  -31.0978   19.6642 C   0  0  0  0  0  0  0  0  0  0  0  0
  -24.6391  -29.2417   21.9663 C   0  0  0  0  0  0  0  0  0  0  0  0
  -24.9637  -36.4532   21.9923 C   0  0  0  0  0  0  0  0  0  0  0  0
  -22.4191  -16.4694   23.9300 C   0  0  0  0  0  0  0  0  0  0  0  0
  -25.6662  -35.3565   22.7865 C   0  0  0  0  0  0  0  0  0  0  0  0
  -22.8838  -15.0629   23.5452 C   0  0  0  0  0  0  0  0  0  0  0  0
  -22.0612  -17.3043   22.7017 C   0  0  0  0  0  0  0  0  0  0  0  0
  -23.5702  -15.9661   21.2869 C   0  0  0  0  0  0  0  0  0  0  0  0
  -26.4086  -34.3904   21.8553 C   0  0  1  0  0  0  0  0  0  0  0  0
  -24.0854  -31.5035   21.0176 C   0  0  1  0  0  0  0  0  0  0  0  0
  -24.0037  -15.1091   22.4874 C   0  0  2  0  0  0  0  0  0  0  0  0
  -28.0939  -17.4732   21.9804 C   0  0  0  0  0  0  0  0  0  0  0  0
  -19.0281  -26.1066   23.3197 C   0  0  0  0  0  0  0  0  0  0  0  0
  -23.4202  -30.5626   25.4933 C   0  0  0  0  0  0  0  0  0  0  0  0
  -21.9232  -28.6145   25.9751 C   0  0  0  0  0  0  0  0  0  0  0  0
  -20.9489  -30.7642   25.1675 C   0  0  0  0  0  0  0  0  0  0  0  0
  -20.5175  -26.4867   19.8393 C   0  0  0  0  0  0  0  0  0  0  0  0
  -27.8552  -17.8704   20.5257 C   0  0  0  0  0  0  0  0  0  0  0  0
  -29.2081  -24.8417   18.9066 C   0  0  0  0  0  0  0  0  0  0  0  0
  -28.8582  -26.3093   18.7126 C   0  0  0  0  0  0  0  0  0  1  0  0
  -22.2525  -29.3126   23.5594 C   0  0  1  0  0  0  0  0  0  0  0  0
  -19.7358  -26.8327   22.1862 C   0  0  2  0  0  0  0  0  0  0  0  0
  -22.1564  -29.8116   25.0289 C   0  0  0  0  0  0  0  0  0  0  0  0
  -25.4067  -20.7552   20.5489 N   0  0  0  0  0  0  0  0  0  0  0  0
  -23.5264  -12.7288   22.0538 N   0  0  0  0  0  0  0  0  0  0  0  0
  -24.4368  -13.7173   22.0660 N   0  0  0  0  0  0  0  0  0  0  0  0
  -23.6829  -30.3527   21.8286 N   0  0  0  0  0  0  0  0  0  0  0  0
  -23.1705  -17.3058   21.7455 N   0  0  0  0  0  0  0  0  0  0  0  0
  -26.7176  -14.1899   21.6359 N   0  0  0  0  0  0  0  0  0  0  0  0
  -26.3733   -9.7838   20.7067 N   0  0  0  0  0  0  0  0  0  0  0  0
  -28.3982  -22.6648   19.5011 N   0  0  0  0  0  0  0  0  0  0  0  0
  -25.1053  -18.4600   21.0477 N   0  0  0  0  0  0  0  0  0  0  0  0
  -25.4788  -33.4704   21.2361 N   0  0  0  0  0  0  0  0  0  0  0  0
  -21.0589  -28.6215   23.0839 N   0  0  0  0  0  0  0  0  0  0  0  0
  -19.8601  -25.8963   21.0335 N   0  3  0  0  0  0  0  0  0  0  0  0
  -27.8195  -11.5615   20.7909 O   0  0  0  0  0  0  0  0  0  0  0  0
  -25.3857  -31.8957   22.9490 O   0  0  0  0  0  0  0  0  0  0  0  0
  -21.6851  -31.3542   22.4934 O   0  0  0  0  0  0  0  0  0  0  0  0
  -26.9010  -24.4742   19.5073 O   0  0  0  0  0  0  0  0  0  0  0  0
  -22.1160  -26.6285   22.5472 O   0  0  0  0  0  0  0  0  0  0  0  0
  -23.0867  -19.5737   21.3056 O   0  0  0  0  0  0  0  0  0  0  0  0
  -21.7561   -6.6895   21.0834 O   0  0  0  0  0  0  0  0  0  0  0  0
  -28.4053  -26.8564   19.9504 O   0  0  0  0  0  0  0  0  0  1  0  0
  -24.3934   -2.2757   23.0750 F   0  0  0  0  0  0  0  0  0  0  0  0
  -20.6085   -5.1181   23.0472 F   0  0  0  0  0  0  0  0  0  0  0  0
  1  2  1  0  0  0  0
  1  5  2  0  0  0  0
  2  6  2  0  0  0  0
  3  8  2  0  0  0  0
  3 17  1  0  0  0  0
  4  9  1  0  0  0  0
  4 17  2  0  0  0  0
  5 19  1  0  0  0  0
  6 21  1  0  0  0  0
  7 10  2  0  0  0  0
  7 20  1  0  0  0  0
  8 25  1  0  0  0  0
  9 25  2  0  0  0  0
 10 26  1  0  0  0  0
 11 12  2  0  0  0  0
 11 27  1  0  0  0  0
 12 28  1  0  0  0  0
 13 22  1  0  0  0  0
 13 26  2  0  0  0  0
 14 23  1  0  0  0  0
 14 24  2  0  0  0  0
 15 28  2  0  0  0  0
 15 29  1  0  0  0  0
 16 24  1  0  0  0  0
 16 63  2  0  0  0  0
 17 30  1  0  0  0  0
 18 30  1  0  0  0  0
 18 32  2  0  0  0  0
 18 33  1  0  0  0  0
 19 21  2  0  0  0  0
 19 39  1  0  0  0  0
 20 22  2  0  0  0  0
 20 40  1  0  0  0  0
 21 48  1  0  0  0  0
 22 41  1  0  0  0  0
 23 31  2  0  0  0  0
 23 57  1  0  0  0  0
 24 70  1  0  0  0  0
 25 81  1  0  0  0  0
 26 82  1  0  0  0  0
 27 29  2  0  0  0  0
 27 81  1  0  0  0  0
 28 83  1  0  0  0  0
 29 84  1  0  0  0  0
 30 64  2  0  0  0  0
 31 63  1  0  0  0  0
 31 71  1  0  0  0  0
 32 65  1  0  0  0  0
 32 68  1  0  0  0  0
 33 69  1  0  0  0  0
 33 75  2  0  0  0  0
 34 49  1  0  0  0  0
 34 72  1  0  0  0  0
 34 76  2  0  0  0  0
 35 60  1  0  0  0  0
 35 66  1  0  0  0  0
 35 77  2  0  0  0  0
 36 58  1  0  0  0  0
 36 70  1  0  0  0  0
 36 78  2  0  0  0  0
 37 61  1  0  0  0  0
 37 73  1  0  0  0  0
 37 79  2  0  0  0  0
 38 67  1  0  0  0  0
 38 71  1  0  0  0  0
 38 80  2  0  0  0  0
 39 42  1  0  0  0  0
 40 49  1  0  0  0  0
 41 66  1  0  0  0  0
 42 44  1  0  0  0  0
 43 45  1  0  0  0  0
 43 46  1  0  0  0  0
 44 48  1  0  0  0  0
 45 50  1  0  0  0  0
 46 67  1  0  0  0  0
 47 50  1  0  0  0  0
 47 67  1  0  0  0  0
 48 72  1  0  0  0  0
 49 66  1  0  0  0  0
 50 65  1  0  0  0  0
 51 57  1  0  0  0  0
 52 61  1  0  0  0  0
 53 62  1  0  0  0  0
 54 62  1  0  0  0  0
 55 62  1  0  0  0  0
 56 74  1  0  0  0  0
 58 59  1  0  0  0  0
 59 82  1  0  0  0  0
 60 62  1  0  0  0  0
 60 73  1  0  0  0  0
 61 74  1  0  0  0  0
 64 65  1  0  0  0  0
M  CHG  1  74   1
M  ISO  4  38 100  59 101  71 100  82 101
M  END
> <Batch ID>
0170

> <Smiles>
CCc1cc(NC(=O)C[101CH2:1][101O:1]c2ccc3c(c2)CN(C(=O)C(NC(=O)C(C)NC)C(C)(C)C)C(C(=O)NC2CCCc4ccccc42)C3)cnc1[100NH:0][100C:0](=O)N1CCCC(n2nc(-c3ccc(Oc4ccc(F)cc4F)cc3)c(C(N)=O)c2N)C1

> <Shape>
0.262

> <Color>
0.089

> <Negative vol penalty>
0.000

$$$$

  -OEChem-04052304203D

 85 93  0     1  0  0  0  0  0999 V2000
  -18.3388  -25.1668   14.8940 C   0  0  0  0  0  0  0  0  0  0  0  0
  -19.6409  -24.9232   15.3188 C   0  0  0  0  0  0  0  0  0  0  0  0
  -23.6349  -10.0148   22.2857 C   0  0  0  0  0  0  0  0  0  0  0  0
  -24.3517  -11.5458   24.0117 C   0  0  0  0  0  0  0  0  0  0  0  0
  -17.8274  -26.4635   14.9262 C   0  0  0  0  0  0  0  0  0  0  0  0
  -20.4329  -25.9763   15.7750 C   0  0  0  0  0  0  0  0  0  0  0  0
  -24.6396  -25.7617   20.2206 C   0  0  0  0  0  0  0  0  0  0  0  0
  -23.0888   -9.1756   23.2568 C   0  0  0  0  0  0  0  0  0  0  0  0
  -23.8055  -10.7066   24.9829 C   0  0  0  0  0  0  0  0  0  0  0  0
  -26.0281  -25.6392   20.1930 C   0  0  0  0  0  0  0  0  0  0  0  0
  -24.1982   -6.8705   25.4658 C   0  0  0  0  0  0  0  0  0  0  0  0
  -24.4473   -5.5026   25.3537 C   0  0  0  0  0  0  0  0  0  0  0  0
  -26.2370  -28.0366   20.3606 C   0  0  0  0  0  0  0  0  0  0  0  0
  -31.3364  -18.1061   19.3794 C   0  0  0  0  0  0  0  0  0  0  0  0
  -22.0733   -5.0832   25.1951 C   0  0  0  0  0  0  0  0  0  0  0  0
  -29.0695  -18.8120   19.5192 C   0  0  0  0  0  0  0  0  0  0  0  0
  -24.2665  -11.1999   22.6631 C   0  0  0  0  0  0  0  0  0  0  0  0
  -24.1874  -13.1242   20.9903 C   0  0  0  0  0  0  0  0  0  0  0  0
  -18.6103  -27.5316   15.3920 C   0  0  0  0  0  0  0  0  0  0  0  0
  -24.0382  -27.0255   20.3076 C   0  0  0  0  0  0  0  0  0  0  0  0
  -19.9320  -27.2887   15.8122 C   0  0  0  0  0  0  0  0  0  0  0  0
  -24.8407  -28.1723   20.3917 C   0  0  0  0  0  0  0  0  0  0  0  0
  -29.9848  -17.7797   19.3912 C   0  0  0  0  0  0  0  0  0  0  0  0
  -23.1740   -9.5215   24.6054 C   0  0  0  0  0  0  0  0  0  0  0  0
  -26.8270  -26.7769   20.2600 C   0  0  0  0  0  0  0  0  0  0  0  0
  -22.8866   -7.3447   25.4426 C   0  0  0  0  0  0  0  0  0  0  0  0
  -23.3849   -4.6090   25.2183 C   0  0  0  0  0  0  0  0  0  0  0  0
  -31.7258  -19.4359   19.4942 C   0  0  0  0  0  0  0  0  0  0  0  0
  -21.8241   -6.4511   25.3073 C   0  0  0  0  0  0  0  0  0  0  0  0
  -24.8314  -12.0669   21.6605 C   0  0  0  0  0  0  0  0  0  0  0  0
  -30.7325  -20.3941   19.6174 C   0  0  0  0  0  0  0  0  0  0  0  0
  -25.1454  -13.6294   20.1456 C   0  0  0  0  0  0  0  0  0  0  0  0
  -22.8435  -13.6067   21.1199 C   0  0  0  0  0  0  0  0  0  0  0  0
  -30.9984  -24.1091   19.9613 C   0  0  0  0  0  0  0  0  0  0  0  0
  -30.2250  -25.4056   20.1018 C   0  0  0  0  0  0  0  0  0  0  0  0
  -22.0920  -28.7163   18.4483 C   0  0  0  0  0  0  0  0  0  0  0  0
  -22.0738  -30.7471   20.9777 C   0  0  0  0  0  0  0  0  0  0  0  0
  -23.6489  -31.9046   23.7752 C   0  0  0  0  0  0  0  0  0  0  0  0
  -30.3603  -15.3014   19.1398 C   0  0  0  0  0  0  0  0  0  0  0  0
  -18.0299  -28.9234   15.3637 C   0  0  0  0  0  0  0  0  0  0  0  0
  -22.5394  -27.1389   20.3633 C   0  0  0  0  0  0  0  0  0  0  0  0
  -24.2445  -29.5507   20.5066 C   0  0  0  0  0  0  0  0  0  0  0  0
  -18.8079  -29.9251   16.2132 C   0  0  0  0  0  0  0  0  0  0  0  0
  -29.6932  -11.8150   18.8622 C   0  0  0  0  0  0  0  0  0  0  0  0
  -20.3054  -29.7960   15.9533 C   0  0  0  0  0  0  0  0  0  0  0  0
  -28.3159  -11.6567   19.5103 C   0  0  0  0  0  0  0  0  0  0  0  0
  -30.5413  -12.8627   19.5811 C   0  0  0  0  0  0  0  0  0  0  0  0
  -28.5220  -14.0144   20.3967 C   0  0  0  0  0  0  0  0  0  0  0  0
  -20.8137  -28.4010   16.3370 C   0  0  1  0  0  0  0  0  0  0  0  0
  -22.0276  -28.5109   19.9353 C   0  0  1  0  0  0  0  0  0  0  0  0
  -27.6075  -13.0165   19.6677 C   0  0  2  0  0  0  0  0  0  0  0  0
  -23.4079  -33.5941   25.6150 C   0  0  0  0  0  0  0  0  0  0  0  0
  -22.8776  -32.9652   19.0428 C   0  0  0  0  0  0  0  0  0  0  0  0
  -23.5366  -34.3545   21.0186 C   0  0  0  0  0  0  0  0  0  0  0  0
  -21.1656  -33.6310   20.7399 C   0  0  0  0  0  0  0  0  0  0  0  0
  -23.6180  -29.8029   25.8588 C   0  0  0  0  0  0  0  0  0  0  0  0
  -30.2188  -22.8231   19.8656 C   0  0  0  0  0  0  0  0  0  0  0  0
  -28.7190  -25.3415   20.1339 C   0  0  0  0  0  0  0  0  0  1  0  0
  -22.9110  -31.9278   21.4068 C   0  0  1  0  0  0  0  0  0  0  0  0
  -23.1426  -32.1602   25.1833 C   0  0  2  0  0  0  0  0  0  0  0  0
  -22.6342  -33.1939   20.5479 C   0  0  0  0  0  0  0  0  0  0  0  0
  -29.4097  -20.1154   19.6330 N   0  0  0  0  0  0  0  0  0  0  0  0
  -26.1003  -11.9086   21.2746 N   0  0  0  0  0  0  0  0  0  0  0  0
  -26.2613  -12.8732   20.3528 N   0  0  0  0  0  0  0  0  0  0  0  0
  -22.7742  -29.6099   20.5509 N   0  0  0  0  0  0  0  0  0  0  0  0
  -29.8075  -14.1255   19.6896 N   0  0  0  0  0  0  0  0  0  0  0  0
  -25.1336  -14.6422   19.2532 N   0  0  0  0  0  0  0  0  0  0  0  0
  -21.9914  -12.9731   22.0347 N   0  0  0  0  0  0  0  0  0  0  0  0
  -29.5577  -16.4337   19.2749 N   0  0  0  0  0  0  0  0  0  0  0  0
  -31.1337  -21.7165   19.7308 N   0  0  0  0  0  0  0  0  0  0  0  0
  -20.9628  -28.2946   17.7726 N   0  0  0  0  0  0  0  0  0  0  0  0
  -22.6627  -32.1073   22.8332 N   0  0  0  0  0  0  0  0  0  0  0  0
  -23.8153  -31.2464   26.1495 N   0  3  0  0  0  0  0  0  0  0  0  0
  -22.4061  -14.5606   20.4326 O   0  0  0  0  0  0  0  0  0  0  0  0
  -32.2201  -24.1896   19.9355 O   0  0  0  0  0  0  0  0  0  0  0  0
  -30.8715  -26.4424   20.1797 O   0  0  0  0  0  0  0  0  0  0  0  0
  -23.0915  -29.2215   17.9509 O   0  0  0  0  0  0  0  0  0  0  0  0
  -20.8439  -30.8283   21.0263 O   0  0  0  0  0  0  0  0  0  0  0  0
  -24.8048  -31.5630   23.5347 O   0  0  0  0  0  0  0  0  0  0  0  0
  -31.4523  -15.2983   18.5656 O   0  0  0  0  0  0  0  0  0  0  0  0
  -22.6409   -8.7030   25.5532 O   0  0  0  0  0  0  0  0  0  0  0  0
  -28.1825  -26.6602   20.2326 O   0  0  0  0  0  0  0  0  0  1  0  0
  -23.6244   -3.2957   25.1091 F   0  0  0  0  0  0  0  0  0  0  0  0
  -33.0238  -19.7651   19.4841 F   0  0  0  0  0  0  0  0  0  0  0  0
  -20.5620   -6.9008   25.2832 F   0  0  0  0  0  0  0  0  0  0  0  0
  1  2  1  0  0  0  0
  1  5  2  0  0  0  0
  2  6  2  0  0  0  0
  3  8  2  0  0  0  0
  3 17  1  0  0  0  0
  4  9  1  0  0  0  0
  4 17  2  0  0  0  0
  5 19  1  0  0  0  0
  6 21  1  0  0  0  0
  7 10  2  0  0  0  0
  7 20  1  0  0  0  0
  8 24  1  0  0  0  0
  9 24  2  0  0  0  0
 10 25  1  0  0  0  0
 11 12  2  0  0  0  0
 11 26  1  0  0  0  0
 12 27  1  0  0  0  0
 13 22  1  0  0  0  0
 13 25  2  0  0  0  0
 14 23  2  0  0  0  0
 14 28  1  0  0  0  0
 15 27  2  0  0  0  0
 15 29  1  0  0  0  0
 16 23  1  0  0  0  0
 16 62  2  0  0  0  0
 17 30  1  0  0  0  0
 18 30  1  0  0  0  0
 18 32  2  0  0  0  0
 18 33  1  0  0  0  0
 19 21  2  0  0  0  0
 19 40  1  0  0  0  0
 20 22  2  0  0  0  0
 20 41  1  0  0  0  0
 21 49  1  0  0  0  0
 22 42  1  0  0  0  0
 23 69  1  0  0  0  0
 24 81  1  0  0  0  0
 25 82  1  0  0  0  0
 26 29  2  0  0  0  0
 26 81  1  0  0  0  0
 27 83  1  0  0  0  0
 28 31  2  0  0  0  0
 28 84  1  0  0  0  0
 29 85  1  0  0  0  0
 30 63  2  0  0  0  0
 31 62  1  0  0  0  0
 31 70  1  0  0  0  0
 32 64  1  0  0  0  0
 32 67  1  0  0  0  0
 33 68  1  0  0  0  0
 33 74  2  0  0  0  0
 34 35  1  0  0  0  0
 34 57  1  0  0  0  0
 34 75  2  0  0  0  0
 35 58  1  0  0  0  0
 35 76  2  0  0  0  0
 36 50  1  0  0  0  0
 36 71  1  0  0  0  0
 36 77  2  0  0  0  0
 37 59  1  0  0  0  0
 37 65  1  0  0  0  0
 37 78  2  0  0  0  0
 38 60  1  0  0  0  0
 38 72  1  0  0  0  0
 38 79  2  0  0  0  0
 39 66  1  0  0  0  0
 39 69  1  0  0  0  0
 39 80  2  0  0  0  0
 40 43  1  0  0  0  0
 41 50  1  0  0  0  0
 42 65  1  0  0  0  0
 43 45  1  0  0  0  0
 44 46  1  0  0  0  0
 44 47  1  0  0  0  0
 45 49  1  0  0  0  0
 46 51  1  0  0  0  0
 47 66  1  0  0  0  0
 48 51  1  0  0  0  0
 48 66  1  0  0  0  0
 49 71  1  0  0  0  0
 50 65  1  0  0  0  0
 51 64  1  0  0  0  0
 52 60  1  0  0  0  0
 53 61  1  0  0  0  0
 54 61  1  0  0  0  0
 55 61  1  0  0  0  0
 56 73  1  0  0  0  0
 57 70  1  0  0  0  0
 58 82  1  0  0  0  0
 59 61  1  0  0  0  0
 59 72  1  0  0  0  0
 60 73  1  0  0  0  0
 63 64  1  0  0  0  0
M  CHG  1  73   1
M  ISO  4  39 100  58 101  69 100  82 101
M  END
> <Batch ID>
0170

> <Smiles>
CNC(C)C(=O)NC(C(=O)N1Cc2cc([101O:1][101CH2:1]C(=O)C(=O)CNc3ncc([100NH:0][100C:0](=O)N4CCCC(n5nc(-c6ccc(Oc7ccc(F)cc7F)cc6)c(C(N)=O)c5N)C4)cc3F)ccc2CC1C(=O)NC1CCCc2ccccc21)C(C)(C)C

> <Shape>
0.242

> <Color>
0.137

> <Negative vol penalty>
0.000

$$$$

  -OEChem-04052304203D

 87 95  0     1  0  0  0  0  0999 V2000
  -26.9142  -17.7207   18.1683 C   0  0  0  0  0  0  0  0  0  0  0  0
  -26.0141  -18.7563   18.3979 C   0  0  0  0  0  0  0  0  0  0  0  0
  -23.2500  -13.3053   21.0287 C   0  0  0  0  0  0  0  0  0  0  0  0
  -25.0728  -14.8153   21.5132 C   0  0  0  0  0  0  0  0  0  0  0  0
  -28.1834  -17.7613   18.7440 C   0  0  0  0  0  0  0  0  0  0  0  0
  -26.3824  -19.8327   19.2042 C   0  0  0  0  0  0  0  0  0  0  0  0
  -24.6992  -25.6824   18.5305 C   0  0  0  0  0  0  0  0  0  0  0  0
  -24.1642  -12.2819   20.7787 C   0  0  0  0  0  0  0  0  0  0  0  0
  -25.9870  -13.7919   21.2632 C   0  0  0  0  0  0  0  0  0  0  0  0
  -23.7109  -26.4508   19.1443 C   0  0  0  0  0  0  0  0  0  0  0  0
  -28.8139  -11.6756   20.4029 C   0  0  0  0  0  0  0  0  0  0  0  0
  -29.9293  -11.9791   19.6223 C   0  0  0  0  0  0  0  0  0  0  0  0
  -25.3439  -27.2904   20.7088 C   0  0  0  0  0  0  0  0  0  0  0  0
  -28.4799  -12.5869   17.7874 C   0  0  0  0  0  0  0  0  0  0  0  0
  -19.6607  -24.3810   21.6236 C   0  0  0  0  0  0  0  0  0  0  0  0
  -23.7043  -14.5720   21.3960 C   0  0  0  0  0  0  0  0  0  0  0  0
  -22.1638  -15.9547   22.8868 C   0  0  0  0  0  0  0  0  0  0  0  0
  -28.5708  -18.8434   19.5499 C   0  0  0  0  0  0  0  0  0  0  0  0
  -26.0172  -25.7040   19.0089 C   0  0  0  0  0  0  0  0  0  0  0  0
  -27.6575  -19.8872   19.7923 C   0  0  0  0  0  0  0  0  0  0  0  0
  -26.3475  -26.5234   20.0977 C   0  0  0  0  0  0  0  0  0  0  0  0
  -20.2038  -24.5497   24.2924 C   0  0  0  0  0  0  0  0  0  0  0  0
  -20.2999  -23.3128   22.2320 C   0  0  0  0  0  0  0  0  0  0  0  0
  -25.5327  -12.5252   20.8959 C   0  0  0  0  0  0  0  0  0  0  0  0
  -24.0325  -27.2527   20.2354 C   0  0  0  0  0  0  0  0  0  0  0  0
  -27.5314  -11.8277   19.8757 C   0  0  0  0  0  0  0  0  0  0  0  0
  -29.7623  -12.4348   18.3146 C   0  0  0  0  0  0  0  0  0  0  0  0
  -27.3644  -12.2834   18.5680 C   0  0  0  0  0  0  0  0  0  0  0  0
  -20.5730  -23.4067   23.5921 C   0  0  0  0  0  0  0  0  0  0  0  0
  -22.7604  -15.6297   21.6539 C   0  0  0  0  0  0  0  0  0  0  0  0
  -19.5691  -25.5627   23.5917 C   0  0  0  0  0  0  0  0  0  0  0  0
  -21.3525  -17.0262   22.6038 C   0  0  0  0  0  0  0  0  0  0  0  0
  -21.4056  -27.6769   23.8309 C   0  0  0  0  0  0  0  0  0  0  0  0
  -22.3283  -15.3428   24.1730 C   0  0  0  0  0  0  0  0  0  0  0  0
  -21.8714  -28.4615   22.8467 C   0  0  0  0  0  0  0  0  0  0  0  0
  -20.0498  -27.8642   24.4295 C   0  0  0  0  0  0  0  0  0  0  0  0
  -27.9919  -23.5395   20.2414 C   0  0  0  0  0  0  0  0  0  0  0  0
  -30.1322  -25.9718   20.0825 C   0  0  0  0  0  0  0  0  0  0  0  0
  -30.6913  -29.3368   19.9765 C   0  0  0  0  0  0  0  0  0  0  0  0
  -20.4487  -21.9321   20.1301 C   0  0  0  0  0  0  0  0  0  0  0  0
  -29.9368  -18.8202   20.1889 C   0  0  0  0  0  0  0  0  0  0  0  0
  -27.0772  -24.8899   18.3190 C   0  0  0  0  0  0  0  0  0  0  0  0
  -27.7519  -26.5977   20.6370 C   0  0  0  0  0  0  0  0  0  0  0  0
  -30.3811  -20.1782   20.7261 C   0  0  0  0  0  0  0  0  0  0  0  0
  -19.9406  -19.0070   18.1648 C   0  0  0  0  0  0  0  0  0  0  0  0
  -29.2566  -20.8307   21.5239 C   0  0  0  0  0  0  0  0  0  0  0  0
  -20.5798  -17.8943   18.9987 C   0  0  0  0  0  0  0  0  0  0  0  0
  -20.7259  -20.3135   18.2651 C   0  0  0  0  0  0  0  0  0  0  0  0
  -21.6211  -19.6677   20.4676 C   0  0  0  0  0  0  0  0  0  0  0  0
  -28.0287  -21.0839   20.6409 C   0  0  1  0  0  0  0  0  0  0  0  0
  -28.2791  -24.5948   19.2111 C   0  0  1  0  0  0  0  0  0  0  0  0
  -20.8292  -18.3501   20.4498 C   0  0  2  0  0  0  0  0  0  0  0  0
  -20.4969  -24.6501   25.7509 C   0  0  0  0  0  0  0  0  0  0  0  0
  -32.5472  -31.0235   19.8880 C   0  0  0  0  0  0  0  0  0  0  0  0
  -30.6975  -25.5017   23.0438 C   0  0  0  0  0  0  0  0  0  0  0  0
  -31.7949  -27.7507   23.1198 C   0  0  0  0  0  0  0  0  0  0  0  0
  -32.7259  -25.9595   21.6544 C   0  0  0  0  0  0  0  0  0  0  0  0
  -17.8044  -26.8039   24.8404 C   0  0  0  0  0  0  0  0  0  0  0  0
  -29.7521  -30.4060   17.3816 C   0  0  0  0  0  0  0  0  0  0  0  0
  -23.2238  -28.2607   22.2318 C   0  0  0  0  0  0  0  0  0  1  0  0
  -30.5559  -27.0853   21.0095 C   0  0  1  0  0  0  0  0  0  0  0  0
  -31.5731  -30.1835   19.0766 C   0  0  2  0  0  0  0  0  0  0  0  0
  -31.4166  -26.5717   22.1982 C   0  0  0  0  0  0  0  0  0  0  0  0
  -19.2869  -25.5075   22.2708 N   0  0  0  0  0  0  0  0  0  0  0  0
  -22.3620  -16.4299   20.6614 N   0  0  0  0  0  0  0  0  0  0  0  0
  -21.5063  -17.2683   21.2704 N   0  0  0  0  0  0  0  0  0  0  0  0
  -28.7517  -25.7783   19.9324 N   0  0  0  0  0  0  0  0  0  0  0  0
  -20.9200  -20.6849   19.6684 N   0  0  0  0  0  0  0  0  0  0  0  0
  -20.5296  -17.7755   23.3679 N   0  0  0  0  0  0  0  0  0  0  0  0
  -23.2007  -14.2518   24.2871 N   0  0  0  0  0  0  0  0  0  0  0  0
  -20.6608  -22.1614   21.4892 N   0  0  0  0  0  0  0  0  0  0  0  0
  -28.2362  -22.2500   19.8092 N   0  0  0  0  0  0  0  0  0  0  0  0
  -31.2220  -28.0798   20.1754 N   0  0  0  0  0  0  0  0  0  0  0  0
  -19.1793  -26.7615   24.3135 N   0  0  0  0  0  0  0  0  0  0  0  0
  -30.7395  -31.0997   18.2480 N   0  3  0  0  0  0  0  0  0  0  0  0
  -21.7071  -15.7410   25.1874 O   0  0  0  0  0  0  0  0  0  0  0  0
  -19.7803  -28.9423   24.9586 O   0  0  0  0  0  0  0  0  0  0  0  0
  -27.5806  -23.8708   21.3472 O   0  0  0  0  0  0  0  0  0  0  0  0
  -30.9943  -25.3031   19.5069 O   0  0  0  0  0  0  0  0  0  0  0  0
  -29.6389  -29.7504   20.4582 O   0  0  0  0  0  0  0  0  0  0  0  0
  -19.8731  -22.7259   19.3815 O   0  0  0  0  0  0  0  0  0  0  0  0
  -21.1465  -29.5328   22.3614 O   0  0  0  0  0  0  0  0  0  0  0  0
  -26.4250  -11.5267   20.6522 O   0  0  0  0  0  0  0  0  0  0  0  0
  -23.0697  -28.0031   20.8368 O   0  0  0  0  0  0  0  0  0  1  0  0
  -30.8335  -12.7277   17.5656 F   0  0  0  0  0  0  0  0  0  0  0  0
  -26.1348  -12.4326   18.0565 F   0  0  0  0  0  0  0  0  0  0  0  0
  -21.1901  -22.3985   24.2263 F   0  0  0  0  0  0  0  0  0  0  0  0
  1  2  1  0  0  0  0
  1  5  2  0  0  0  0
  2  6  2  0  0  0  0
  3  8  2  0  0  0  0
  3 16  1  0  0  0  0
  4  9  1  0  0  0  0
  4 16  2  0  0  0  0
  5 18  1  0  0  0  0
  6 20  1  0  0  0  0
  7 10  2  0  0  0  0
  7 19  1  0  0  0  0
  8 24  1  0  0  0  0
  9 24  2  0  0  0  0
 10 25  1  0  0  0  0
 11 12  2  0  0  0  0
 11 26  1  0  0  0  0
 12 27  1  0  0  0  0
 13 21  1  0  0  0  0
 13 25  2  0  0  0  0
 14 27  2  0  0  0  0
 14 28  1  0  0  0  0
 15 23  1  0  0  0  0
 15 64  2  0  0  0  0
 16 30  1  0  0  0  0
 17 30  1  0  0  0  0
 17 32  2  0  0  0  0
 17 34  1  0  0  0  0
 18 20  2  0  0  0  0
 18 41  1  0  0  0  0
 19 21  2  0  0  0  0
 19 42  1  0  0  0  0
 20 50  1  0  0  0  0
 21 43  1  0  0  0  0
 22 29  1  0  0  0  0
 22 31  2  0  0  0  0
 22 53  1  0  0  0  0
 23 29  2  0  0  0  0
 23 71  1  0  0  0  0
 24 83  1  0  0  0  0
 25 84  1  0  0  0  0
 26 28  2  0  0  0  0
 26 83  1  0  0  0  0
 27 85  1  0  0  0  0
 28 86  1  0  0  0  0
 29 87  1  0  0  0  0
 30 65  2  0  0  0  0
 31 64  1  0  0  0  0
 31 74  1  0  0  0  0
 32 66  1  0  0  0  0
 32 69  1  0  0  0  0
 33 35  2  0  0  0  0
 33 36  1  0  0  0  0
 34 70  1  0  0  0  0
 34 76  2  0  0  0  0
 35 60  1  0  0  0  0
 35 82  1  0  0  0  0
 36 74  1  0  0  0  0
 36 77  2  0  0  0  0
 37 51  1  0  0  0  0
 37 72  1  0  0  0  0
 37 78  2  0  0  0  0
 38 61  1  0  0  0  0
 38 67  1  0  0  0  0
 38 79  2  0  0  0  0
 39 62  1  0  0  0  0
 39 73  1  0  0  0  0
 39 80  2  0  0  0  0
 40 68  1  0  0  0  0
 40 71  1  0  0  0  0
 40 81  2  0  0  0  0
 41 44  1  0  0  0  0
 42 51  1  0  0  0  0
 43 67  1  0  0  0  0
 44 46  1  0  0  0  0
 45 47  1  0  0  0  0
 45 48  1  0  0  0  0
 46 50  1  0  0  0  0
 47 52  1  0  0  0  0
 48 68  1  0  0  0  0
 49 52  1  0  0  0  0
 49 68  1  0  0  0  0
 50 72  1  0  0  0  0
 51 67  1  0  0  0  0
 52 66  1  0  0  0  0
 54 62  1  0  0  0  0
 55 63  1  0  0  0  0
 56 63  1  0  0  0  0
 57 63  1  0  0  0  0
 58 74  1  0  0  0  0
 59 75  1  0  0  0  0
 60 84  1  0  0  0  0
 61 63  1  0  0  0  0
 61 73  1  0  0  0  0
 62 75  1  0  0  0  0
 65 66  1  0  0  0  0
M  CHG  1  75   1
M  ISO  4  40 100  60 101  71 100  84 101
M  END
> <Batch ID>
0170

> <Smiles>
CNC(C)C(=O)NC(C(=O)N1Cc2cc([101O:1][101CH2:1]C(=O)CC(=O)N(C)c3ncc([100NH:0][100C:0](=O)N4CCCC(n5nc(-c6ccc(Oc7ccc(F)cc7F)cc6)c(C(N)=O)c5N)C4)c(F)c3C)ccc2CC1C(=O)NC1CCCc2ccccc21)C(C)(C)C

> <Shape>
0.221

> <Color>
0.062

> <Negative vol penalty>
0.000

$$$$

  -OEChem-04052304203D

 87 95  0     1  0  0  0  0  0999 V2000
  -25.7549  -24.4831   12.8596 C   0  0  0  0  0  0  0  0  0  0  0  0
  -25.6104  -23.8940   14.1116 C   0  0  0  0  0  0  0  0  0  0  0  0
  -24.4287  -12.1226   23.2580 C   0  0  0  0  0  0  0  0  0  0  0  0
  -29.5390  -23.4269   21.0376 C   0  0  0  0  0  0  0  0  0  0  0  0
  -27.2988  -23.4433   20.1329 C   0  0  0  0  0  0  0  0  0  0  0  0
  -23.5321  -13.0843   22.7922 C   0  0  0  0  0  0  0  0  0  0  0  0
  -25.9101  -25.8646   12.7542 C   0  0  0  0  0  0  0  0  0  0  0  0
  -25.6222  -24.6862   15.2591 C   0  0  0  0  0  0  0  0  0  0  0  0
  -21.9599  -23.4314   18.5237 C   0  0  0  0  0  0  0  0  0  0  0  0
  -29.7155  -24.7474   20.6245 C   0  0  0  0  0  0  0  0  0  0  0  0
  -27.4753  -24.7639   19.7199 C   0  0  0  0  0  0  0  0  0  0  0  0
  -22.1690  -22.3001   19.3113 C   0  0  0  0  0  0  0  0  0  0  0  0
  -28.8249  -27.8306   21.6892 C   0  0  0  0  0  0  0  0  0  0  0  0
  -25.7502  -12.1267   22.8115 C   0  0  0  0  0  0  0  0  0  0  0  0
  -29.4068  -28.7201   22.5924 C   0  0  0  0  0  0  0  0  0  0  0  0
  -22.8200  -23.7120   21.1558 C   0  0  0  0  0  0  0  0  0  0  0  0
  -31.2089  -29.1231   21.0343 C   0  0  0  0  0  0  0  0  0  0  0  0
  -28.3307  -22.7748   20.7917 C   0  0  0  0  0  0  0  0  0  0  0  0
  -23.9570  -14.0501   21.8799 C   0  0  0  0  0  0  0  0  0  0  0  0
  -27.6448  -20.9665   22.4552 C   0  0  0  0  0  0  0  0  0  0  0  0
  -25.9141  -26.6752   13.9004 C   0  0  0  0  0  0  0  0  0  0  0  0
  -22.1901  -24.7132   19.0438 C   0  0  0  0  0  0  0  0  0  0  0  0
  -25.7790  -26.0798   15.1691 C   0  0  0  0  0  0  0  0  0  0  0  0
  -22.6106  -24.8580   20.3736 C   0  0  0  0  0  0  0  0  0  0  0  0
  -25.2785  -14.0543   21.4334 C   0  0  0  0  0  0  0  0  0  0  0  0
  -28.6837  -25.4159   19.9657 C   0  0  0  0  0  0  0  0  0  0  0  0
  -22.6020  -22.4402   20.6266 C   0  0  0  0  0  0  0  0  0  0  0  0
  -29.4349  -27.5873   20.4586 C   0  0  0  0  0  0  0  0  0  0  0  0
  -30.5988  -29.3663   22.2650 C   0  0  0  0  0  0  0  0  0  0  0  0
  -26.1751  -13.0926   21.8992 C   0  0  0  0  0  0  0  0  0  0  0  0
  -30.6269  -28.2336   20.1312 C   0  0  0  0  0  0  0  0  0  0  0  0
  -28.1480  -21.4105   21.2177 C   0  0  0  0  0  0  0  0  0  0  0  0
  -27.6704  -19.5962   22.3645 C   0  0  0  0  0  0  0  0  0  0  0  0
  -22.9822  -15.0545   21.4075 C   0  0  0  0  0  0  0  0  0  0  0  0
  -27.1943  -21.7248   23.5855 C   0  0  0  0  0  0  0  0  0  0  0  0
  -24.1577  -27.1046   18.3272 C   0  0  0  0  0  0  0  0  0  0  0  0
  -22.4509  -28.6729   20.5965 C   0  0  0  0  0  0  0  0  0  0  0  0
  -20.4679  -28.4964   23.3684 C   0  0  0  0  0  0  0  0  0  0  0  0
  -26.7353  -14.8824   19.5524 C   0  0  0  0  0  0  0  0  0  0  0  0
  -26.1323  -28.1588   13.7395 C   0  0  0  0  0  0  0  0  0  0  0  0
  -21.9341  -25.9245   18.1897 C   0  0  0  0  0  0  0  0  0  0  0  0
  -22.8526  -26.2127   20.9857 C   0  0  0  0  0  0  0  0  0  0  0  0
  -25.7584  -28.9674   14.9791 C   0  0  0  0  0  0  0  0  0  0  0  0
  -29.8112  -16.5622   18.9245 C   0  0  0  0  0  0  0  0  0  0  0  0
  -26.3325  -28.3171   16.2339 C   0  0  0  0  0  0  0  0  0  0  0  0
  -29.6113  -17.9368   19.5670 C   0  0  0  0  0  0  0  0  0  0  0  0
  -28.5261  -16.0447   18.2808 C   0  0  0  0  0  0  0  0  0  0  0  0
  -27.1514  -17.4080   19.8042 C   0  0  0  0  0  0  0  0  0  0  0  0
  -25.7618  -26.9081   16.4354 C   0  0  1  0  0  0  0  0  0  0  0  0
  -22.6940  -27.1602   18.6620 C   0  0  1  0  0  0  0  0  0  0  0  0
  -28.4017  -17.9419   20.5221 C   0  0  2  0  0  0  0  0  0  0  0  0
  -20.3440  -15.9538   22.7732 C   0  0  0  0  0  0  0  0  0  0  0  0
  -19.2584  -29.9469   25.0208 C   0  0  0  0  0  0  0  0  0  0  0  0
  -25.1007  -29.3209   21.9635 C   0  0  0  0  0  0  0  0  0  0  0  0
  -23.8119  -29.9095   24.0277 C   0  0  0  0  0  0  0  0  0  0  0  0
  -23.4577  -31.2060   21.9261 C   0  0  0  0  0  0  0  0  0  0  0  0
  -17.8412  -27.3539   22.6243 C   0  0  0  0  0  0  0  0  0  0  0  0
  -21.7423  -16.3058   23.2739 C   0  0  0  0  0  0  0  0  0  0  0  0
  -22.8440  -18.9511   21.7935 C   0  0  0  0  0  0  0  0  0  0  0  0
  -22.5715  -17.5614   21.1962 C   0  0  0  0  0  0  0  0  0  0  0  0
  -22.5601  -20.0682   20.7941 C   0  0  0  0  0  0  0  0  0  1  0  0
  -22.5661  -28.8460   22.0917 C   0  0  1  0  0  0  0  0  0  0  0  0
  -19.1557  -29.1773   23.7132 C   0  0  2  0  0  0  0  0  0  0  0  0
  -22.8116  -16.3826   22.1687 C   0  0  2  0  0  0  0  0  0  0  0  0
  -23.7315  -29.7948   22.4904 C   0  0  0  0  0  0  0  0  0  0  0  0
  -28.4699  -20.4040   20.4009 N   0  0  0  0  0  0  0  0  0  0  0  0
  -28.1684  -19.3138   21.1266 N   0  0  0  0  0  0  0  0  0  0  0  0
  -22.5943  -27.3664   20.1083 N   0  0  0  0  0  0  0  0  0  0  0  0
  -27.4248  -16.0746   19.2457 N   0  0  0  0  0  0  0  0  0  0  0  0
  -27.3155  -18.6174   23.2238 N   0  0  0  0  0  0  0  0  0  0  0  0
  -27.2355  -23.1237   23.5109 N   0  0  0  0  0  0  0  0  0  0  0  0
  -25.7296  -15.0273   20.5074 N   0  0  0  0  0  0  0  0  0  0  0  0
  -24.4215  -26.9783   16.9767 N   0  0  0  0  0  0  0  0  0  0  0  0
  -21.2537  -29.2844   22.5542 N   0  0  0  0  0  0  0  0  0  0  0  0
  -18.0676  -28.1678   23.8463 N   0  3  0  0  0  0  0  0  0  0  0  0
  -22.3127  -14.7621   20.4176 O   0  0  0  0  0  0  0  0  0  0  0  0
  -26.7833  -21.1779   24.6370 O   0  0  0  0  0  0  0  0  0  0  0  0
  -24.9864  -27.1728   19.2274 O   0  0  0  0  0  0  0  0  0  0  0  0
  -22.2342  -29.6595   19.8884 O   0  0  0  0  0  0  0  0  0  0  0  0
  -20.7676  -27.3789   23.7831 O   0  0  0  0  0  0  0  0  0  0  0  0
  -27.0344  -13.8065   19.0280 O   0  0  0  0  0  0  0  0  0  0  0  0
  -24.0714  -16.5875   22.8225 O   0  0  0  0  0  0  0  0  0  0  0  0
  -28.8554  -26.7046   19.5627 O   0  0  0  0  0  0  0  0  0  0  0  0
  -22.8076  -21.3376   21.3973 O   0  0  0  0  0  0  0  0  0  1  0  0
  -31.1568  -30.2216   23.1318 F   0  0  0  0  0  0  0  0  0  0  0  0
  -27.4480  -13.0869   21.4780 F   0  0  0  0  0  0  0  0  0  0  0  0
  -31.2170  -28.0048   18.9500 F   0  0  0  0  0  0  0  0  0  0  0  0
  1  2  1  0  0  0  0
  1  7  2  0  0  0  0
  2  8  2  0  0  0  0
  3  6  2  0  0  0  0
  3 14  1  0  0  0  0
  4 10  2  0  0  0  0
  4 18  1  0  0  0  0
  5 11  1  0  0  0  0
  5 18  2  0  0  0  0
  6 19  1  0  0  0  0
  7 21  1  0  0  0  0
  8 23  1  0  0  0  0
  9 12  2  0  0  0  0
  9 22  1  0  0  0  0
 10 26  1  0  0  0  0
 11 26  2  0  0  0  0
 12 27  1  0  0  0  0
 13 15  2  0  0  0  0
 13 28  1  0  0  0  0
 14 30  2  0  0  0  0
 15 29  1  0  0  0  0
 16 24  1  0  0  0  0
 16 27  2  0  0  0  0
 17 29  2  0  0  0  0
 17 31  1  0  0  0  0
 18 32  1  0  0  0  0
 19 25  2  0  0  0  0
 19 34  1  0  0  0  0
 20 32  1  0  0  0  0
 20 33  2  0  0  0  0
 20 35  1  0  0  0  0
 21 23  2  0  0  0  0
 21 40  1  0  0  0  0
 22 24  2  0  0  0  0
 22 41  1  0  0  0  0
 23 49  1  0  0  0  0
 24 42  1  0  0  0  0
 25 30  1  0  0  0  0
 25 72  1  0  0  0  0
 26 83  1  0  0  0  0
 27 84  1  0  0  0  0
 28 31  2  0  0  0  0
 28 83  1  0  0  0  0
 29 85  1  0  0  0  0
 30 86  1  0  0  0  0
 31 87  1  0  0  0  0
 32 66  2  0  0  0  0
 33 67  1  0  0  0  0
 33 70  1  0  0  0  0
 34 64  1  0  0  0  0
 34 76  2  0  0  0  0
 35 71  1  0  0  0  0
 35 77  2  0  0  0  0
 36 50  1  0  0  0  0
 36 73  1  0  0  0  0
 36 78  2  0  0  0  0
 37 62  1  0  0  0  0
 37 68  1  0  0  0  0
 37 79  2  0  0  0  0
 38 63  1  0  0  0  0
 38 74  1  0  0  0  0
 38 80  2  0  0  0  0
 39 69  1  0  0  0  0
 39 72  1  0  0  0  0
 39 81  2  0  0  0  0
 40 43  1  0  0  0  0
 41 50  1  0  0  0  0
 42 68  1  0  0  0  0
 43 45  1  0  0  0  0
 44 46  1  0  0  0  0
 44 47  1  0  0  0  0
 45 49  1  0  0  0  0
 46 51  1  0  0  0  0
 47 69  1  0  0  0  0
 48 51  1  0  0  0  0
 48 69  1  0  0  0  0
 49 73  1  0  0  0  0
 50 68  1  0  0  0  0
 51 67  1  0  0  0  0
 52 58  1  0  0  0  0
 53 63  1  0  0  0  0
 54 65  1  0  0  0  0
 55 65  1  0  0  0  0
 56 65  1  0  0  0  0
 57 75  1  0  0  0  0
 58 64  1  0  0  0  0
 59 60  1  0  0  0  0
 59 61  1  0  0  0  0
 60 64  1  0  0  0  0
 61 84  1  0  0  0  0
 62 65  1  0  0  0  0
 62 74  1  0  0  0  0
 63 75  1  0  0  0  0
 64 82  1  0  0  0  0
 66 67  1  0  0  0  0
M  CHG  1  75   1
M  ISO  4  39 100  61 101  72 100  84 101
M  END
> <Batch ID>
0170

> <Smiles>
CCC(O)(CC[101CH2:1][101O:1]c1ccc2c(c1)CN(C(=O)C(NC(=O)C(C)NC)C(C)(C)C)C(C(=O)NC1CCCc3ccccc31)C2)C(=O)c1cccc(F)c1[100NH:0][100C:0](=O)N1CCCC(n2nc(-c3ccc(Oc4ccc(F)cc4F)cc3)c(C(N)=O)c2N)C1

> <Shape>
0.201

> <Color>
0.070

> <Negative vol penalty>
0.000

$$$$

  -OEChem-04052304203D

 86 94  0     1  0  0  0  0  0999 V2000
  -30.1761  -37.1475   21.2022 C   0  0  0  0  0  0  0  0  0  0  0  0
  -30.1784  -35.8880   20.6113 C   0  0  0  0  0  0  0  0  0  0  0  0
  -24.4704   -8.8697   22.1014 C   0  0  0  0  0  0  0  0  0  0  0  0
  -23.6670   -9.1220   19.8369 C   0  0  0  0  0  0  0  0  0  0  0  0
  -29.6064  -37.3239   22.4625 C   0  0  0  0  0  0  0  0  0  0  0  0
  -29.6120  -34.8040   21.2809 C   0  0  0  0  0  0  0  0  0  0  0  0
  -26.6209  -30.0838   18.7752 C   0  0  0  0  0  0  0  0  0  0  0  0
  -23.4253   -7.9870   22.3738 C   0  0  0  0  0  0  0  0  0  0  0  0
  -22.6219   -8.2393   20.1093 C   0  0  0  0  0  0  0  0  0  0  0  0
  -27.0193  -28.7888   18.4464 C   0  0  0  0  0  0  0  0  0  0  0  0
  -22.6941   -4.7372   21.7931 C   0  0  0  0  0  0  0  0  0  0  0  0
  -22.9994   -3.5647   22.4842 C   0  0  0  0  0  0  0  0  0  0  0  0
  -29.8578  -20.3692   21.4105 C   0  0  0  0  0  0  0  0  0  0  0  0
  -26.1444  -27.9923   20.5486 C   0  0  0  0  0  0  0  0  0  0  0  0
  -31.1201  -22.2263   22.3020 C   0  0  0  0  0  0  0  0  0  0  0  0
  -21.4841   -4.2118   24.2512 C   0  0  0  0  0  0  0  0  0  0  0  0
  -24.5912   -9.4373   20.8330 C   0  0  0  0  0  0  0  0  0  0  0  0
  -30.5979  -19.4878   22.1985 C   0  0  0  0  0  0  0  0  0  0  0  0
  -26.9499  -10.0272   20.0610 C   0  0  0  0  0  0  0  0  0  0  0  0
  -29.0241  -36.2434   23.1437 C   0  0  0  0  0  0  0  0  0  0  0  0
  -25.9899  -30.3449   20.0000 C   0  0  0  0  0  0  0  0  0  0  0  0
  -29.0352  -34.9658   22.5521 C   0  0  0  0  0  0  0  0  0  0  0  0
  -25.7366  -29.2910   20.8894 C   0  0  0  0  0  0  0  0  0  0  0  0
  -31.5991  -19.9756   23.0383 C   0  0  0  0  0  0  0  0  0  0  0  0
  -30.1189  -21.7384   21.4622 C   0  0  0  0  0  0  0  0  0  0  0  0
  -22.5011   -7.6718   21.3778 C   0  0  0  0  0  0  0  0  0  0  0  0
  -26.7837  -27.7433   19.3344 C   0  0  0  0  0  0  0  0  0  0  0  0
  -21.7839   -5.6471   22.3310 C   0  0  0  0  0  0  0  0  0  0  0  0
  -22.3943   -3.3020   23.7133 C   0  0  0  0  0  0  0  0  0  0  0  0
  -31.8602  -21.3449   23.0901 C   0  0  0  0  0  0  0  0  0  0  0  0
  -21.1788   -5.3844   23.5600 C   0  0  0  0  0  0  0  0  0  0  0  0
  -25.6702  -10.3496   20.5511 C   0  0  0  0  0  0  0  0  0  0  0  0
  -27.5956  -11.2357   19.9657 C   0  0  0  0  0  0  0  0  0  0  0  0
  -30.3015  -18.0632   22.1222 C   0  0  0  0  0  0  0  0  0  0  0  0
  -29.1072  -17.4987   22.3938 C   0  0  0  0  0  0  0  0  0  0  0  0
  -28.0656  -25.8534   19.8401 C   0  0  0  0  0  0  0  0  0  1  0  0
  -27.5053   -8.7496   19.7220 C   0  0  0  0  0  0  0  0  0  0  0  0
  -28.5155  -24.6116   19.6234 C   0  0  0  0  0  0  0  0  0  0  0  0
  -28.9614  -16.0353   22.2601 C   0  0  0  0  0  0  0  0  0  0  0  0
  -29.4951  -24.0139   20.5886 C   0  0  0  0  0  0  0  0  0  0  0  0
  -26.6807  -32.1181   22.5460 C   0  0  0  0  0  0  0  0  0  0  0  0
  -23.7063  -31.2296   23.4871 C   0  0  0  0  0  0  0  0  0  0  0  0
  -21.1504  -28.9786   23.2700 C   0  0  0  0  0  0  0  0  0  0  0  0
  -28.4626  -36.4734   24.5244 C   0  0  0  0  0  0  0  0  0  0  0  0
  -25.5422  -31.7429   20.3281 C   0  0  0  0  0  0  0  0  0  0  0  0
  -25.0445  -29.5152   22.2082 C   0  0  0  0  0  0  0  0  0  0  0  0
  -27.5492  -35.3489   25.0056 C   0  0  0  0  0  0  0  0  0  0  0  0
  -25.8504  -15.9534   20.3245 C   0  0  0  0  0  0  0  0  0  0  0  0
  -28.1886  -33.9902   24.7377 C   0  0  0  0  0  0  0  0  0  0  0  0
  -25.6119  -14.4497   20.2155 C   0  0  0  0  0  0  0  0  0  0  0  0
  -26.4998  -16.3344   21.6540 C   0  0  0  0  0  0  0  0  0  0  0  0
  -27.5206  -14.0832   21.8288 C   0  0  0  0  0  0  0  0  0  0  0  0
  -28.4084  -33.7703   23.2361 C   0  0  1  0  0  0  0  0  0  0  0  0
  -25.3696  -31.9790   21.8254 C   0  0  1  0  0  0  0  0  0  0  0  0
  -26.9109  -13.6720   20.4795 C   0  0  1  0  0  0  0  0  0  0  0  0
  -32.4102  -19.0576   23.8956 C   0  0  0  0  0  0  0  0  0  0  0  0
  -18.8638  -28.5000   24.1864 C   0  0  0  0  0  0  0  0  0  0  0  0
  -24.9575  -30.2590   26.0953 C   0  0  0  0  0  0  0  0  0  0  0  0
  -22.8592  -28.9675   26.5400 C   0  0  0  0  0  0  0  0  0  0  0  0
  -22.7776  -31.4546   26.3655 C   0  0  0  0  0  0  0  0  0  0  0  0
  -19.9114  -29.1570   20.5882 C   0  0  0  0  0  0  0  0  0  0  0  0
  -23.1345  -30.0766   24.2761 C   0  0  1  0  0  0  0  0  0  0  0  0
  -19.6569  -29.1663   23.0729 C   0  0  2  0  0  0  0  0  0  0  0  0
  -23.4470  -30.1852   25.7953 C   0  0  0  0  0  0  0  0  0  0  0  0
  -25.5106  -11.6602   20.7533 N   0  0  0  0  0  0  0  0  0  0  0  0
  -26.6985  -12.1720   20.3885 N   0  0  0  0  0  0  0  0  0  0  0  0
  -27.7078  -15.5360   21.9113 N   0  0  0  0  0  0  0  0  0  0  0  0
  -24.6315  -30.9008   22.4863 N   0  0  0  0  0  0  0  0  0  0  0  0
  -28.8376  -11.5782   19.5625 N   0  0  0  0  0  0  0  0  0  0  0  0
  -26.7049   -7.6100   19.8798 N   0  0  0  0  0  0  0  0  0  0  0  0
  -29.3681  -22.6336   20.6627 N   0  0  0  0  0  0  0  0  0  0  0  0
  -27.1639  -33.4120   22.5903 N   0  0  0  0  0  0  0  0  0  0  0  0
  -21.7108  -30.0323   23.9606 N   0  0  0  0  0  0  0  0  0  0  0  0
  -19.2279  -28.5772   21.7730 N   0  3  0  0  0  0  0  0  0  0  0  0
  -28.6822   -8.6206   19.3076 O   0  0  0  0  0  0  0  0  0  0  0  0
  -29.9589  -15.3429   22.4706 O   0  0  0  0  0  0  0  0  0  0  0  0
  -30.2849  -24.7219   21.2041 O   0  0  0  0  0  0  0  0  0  0  0  0
  -27.2138  -31.1253   23.0275 O   0  0  0  0  0  0  0  0  0  0  0  0
  -23.3401  -32.3791   23.7445 O   0  0  0  0  0  0  0  0  0  0  0  0
  -21.7584  -27.9939   22.8561 O   0  0  0  0  0  0  0  0  0  0  0  0
  -28.1116  -23.8538   18.5429 O   0  0  0  0  0  0  0  0  0  0  0  0
  -21.4813   -6.8103   21.6432 O   0  0  0  0  0  0  0  0  0  0  0  0
  -27.1722  -26.4785   19.0162 O   0  0  0  0  0  0  0  0  0  1  0  0
  -22.6864   -2.1753   24.3761 F   0  0  0  0  0  0  0  0  0  0  0  0
  -32.8201  -21.8244   23.8937 F   0  0  0  0  0  0  0  0  0  0  0  0
  -20.3027   -6.2541   24.0813 F   0  0  0  0  0  0  0  0  0  0  0  0
  1  2  1  0  0  0  0
  1  5  2  0  0  0  0
  2  6  2  0  0  0  0
  3  8  2  0  0  0  0
  3 17  1  0  0  0  0
  4  9  1  0  0  0  0
  4 17  2  0  0  0  0
  5 20  1  0  0  0  0
  6 22  1  0  0  0  0
  7 10  2  0  0  0  0
  7 21  1  0  0  0  0
  8 26  1  0  0  0  0
  9 26  2  0  0  0  0
 10 27  1  0  0  0  0
 11 12  2  0  0  0  0
 11 28  1  0  0  0  0
 12 29  1  0  0  0  0
 13 18  1  0  0  0  0
 13 25  2  0  0  0  0
 14 23  1  0  0  0  0
 14 27  2  0  0  0  0
 15 25  1  0  0  0  0
 15 30  2  0  0  0  0
 16 29  2  0  0  0  0
 16 31  1  0  0  0  0
 17 32  1  0  0  0  0
 18 24  2  0  0  0  0
 18 34  1  0  0  0  0
 19 32  1  0  0  0  0
 19 33  2  0  0  0  0
 19 37  1  0  0  0  0
 20 22  2  0  0  0  0
 20 44  1  0  0  0  0
 21 23  2  0  0  0  0
 21 45  1  0  0  0  0
 22 53  1  0  0  0  0
 23 46  1  0  0  0  0
 24 30  1  0  0  0  0
 24 56  1  0  0  0  0
 25 71  1  0  0  0  0
 26 82  1  0  0  0  0
 27 83  1  0  0  0  0
 28 31  2  0  0  0  0
 28 82  1  0  0  0  0
 29 84  1  0  0  0  0
 30 85  1  0  0  0  0
 31 86  1  0  0  0  0
 32 65  2  0  0  0  0
 33 66  1  0  0  0  0
 33 69  1  0  0  0  0
 34 35  2  0  0  0  0
 35 39  1  0  0  0  0
 36 38  2  0  0  0  0
 36 83  1  0  0  0  0
 37 70  1  0  0  0  0
 37 75  2  0  0  0  0
 38 40  1  0  0  0  0
 38 81  1  0  0  0  0
 39 67  1  0  0  0  0
 39 76  2  0  0  0  0
 40 71  1  0  0  0  0
 40 77  2  0  0  0  0
 41 54  1  0  0  0  0
 41 72  1  0  0  0  0
 41 78  2  0  0  0  0
 42 62  1  0  0  0  0
 42 68  1  0  0  0  0
 42 79  2  0  0  0  0
 43 63  1  0  0  0  0
 43 73  1  0  0  0  0
 43 80  2  0  0  0  0
 44 47  1  0  0  0  0
 45 54  1  0  0  0  0
 46 68  1  0  0  0  0
 47 49  1  0  0  0  0
 48 50  1  0  0  0  0
 48 51  1  0  0  0  0
 49 53  1  0  0  0  0
 50 55  1  0  0  0  0
 51 67  1  0  0  0  0
 52 55  1  0  0  0  0
 52 67  1  0  0  0  0
 53 72  1  0  0  0  0
 54 68  1  0  0  0  0
 55 66  1  0  0  0  0
 57 63  1  0  0  0  0
 58 64  1  0  0  0  0
 59 64  1  0  0  0  0
 60 64  1  0  0  0  0
 61 74  1  0  0  0  0
 62 64  1  0  0  0  0
 62 73  1  0  0  0  0
 63 74  1  0  0  0  0
 65 66  1  0  0  0  0
M  CHG  1  74   1
M  ISO  4  35 100  36 101  39 100  83 101
M  END
> <Batch ID>
0170

> <Smiles>
CNC(C)C(=O)NC(C(=O)N1Cc2cc([101O:1][101CH2:1]C(=O)C(=O)Nc3cc(F)c(C)c(C=[100CH:0][100C:0](=O)N4CCCC(n5nc(-c6ccc(Oc7ccc(F)cc7F)cc6)c(C(N)=O)c5N)C4)c3)ccc2CC1C(=O)NC1CCCc2ccccc21)C(C)(C)C

> <Shape>
0.290

> <Color>
0.089

> <Negative vol penalty>
0.000

$$$$

  -OEChem-04052304203D

 88 97  0     1  0  0  0  0  0999 V2000
  -17.2275  -30.4598   23.5850 C   0  0  0  0  0  0  0  0  0  0  0  0
  -18.5200  -30.3389   24.0853 C   0  0  0  0  0  0  0  0  0  0  0  0
  -26.5444  -12.5799   21.6484 C   0  0  0  0  0  0  0  0  0  0  0  0
  -25.6446  -14.0910   19.9919 C   0  0  0  0  0  0  0  0  0  0  0  0
  -16.6239  -29.3766   22.9475 C   0  0  0  0  0  0  0  0  0  0  0  0
  -19.2092  -29.1343   23.9495 C   0  0  0  0  0  0  0  0  0  0  0  0
  -25.5158  -28.8412   20.4807 C   0  0  0  0  0  0  0  0  0  0  0  0
  -25.3046  -11.9482   21.7456 C   0  0  0  0  0  0  0  0  0  0  0  0
  -24.4048  -13.4593   20.0891 C   0  0  0  0  0  0  0  0  0  0  0  0
  -26.8271  -28.7408   20.0154 C   0  0  0  0  0  0  0  0  0  0  0  0
  -23.5222   -9.6757   19.9873 C   0  0  0  0  0  0  0  0  0  0  0  0
  -23.5042   -8.2810   19.9963 C   0  0  0  0  0  0  0  0  0  0  0  0
  -26.7862  -26.3511   20.3837 C   0  0  0  0  0  0  0  0  0  0  0  0
  -22.4560   -8.3086   22.1729 C   0  0  0  0  0  0  0  0  0  0  0  0
  -29.2593  -22.6379   15.1771 C   0  0  0  0  0  0  0  0  0  0  0  0
  -28.7212  -20.5684   16.2781 C   0  0  0  0  0  0  0  0  0  0  0  0
  -26.7144  -13.6514   20.7715 C   0  0  0  0  0  0  0  0  0  0  0  0
  -29.2190  -13.7221   20.2925 C   0  0  0  0  0  0  0  0  0  0  0  0
  -17.3097  -28.1612   22.7952 C   0  0  0  0  0  0  0  0  0  0  0  0
  -24.8286  -27.6933   20.8853 C   0  0  0  0  0  0  0  0  0  0  0  0
  -18.6137  -28.0335   23.3106 C   0  0  0  0  0  0  0  0  0  0  0  0
  -25.4683  -26.4438   20.8389 C   0  0  0  0  0  0  0  0  0  0  0  0
  -24.2348  -12.3878   20.9659 C   0  0  0  0  0  0  0  0  0  0  0  0
  -27.4608  -27.4988   19.9672 C   0  0  0  0  0  0  0  0  0  0  0  0
  -23.0071  -10.3869   21.0711 C   0  0  0  0  0  0  0  0  0  0  0  0
  -22.9711   -7.5974   21.0890 C   0  0  0  0  0  0  0  0  0  0  0  0
  -22.4740   -9.7033   22.1639 C   0  0  0  0  0  0  0  0  0  0  0  0
  -28.7547  -21.3433   15.1241 C   0  0  0  0  0  0  0  0  0  0  0  0
  -27.9947  -14.3047   20.6711 C   0  0  0  0  0  0  0  0  0  0  0  0
  -29.7146  -23.1070   16.3987 C   0  0  0  0  0  0  0  0  0  0  0  0
  -29.2007  -21.1301   17.4504 C   0  0  0  0  0  0  0  0  0  0  0  0
  -30.1239  -14.7535   20.3546 C   0  0  0  0  0  0  0  0  0  0  0  0
  -29.5122  -12.3694   19.9180 C   0  0  0  0  0  0  0  0  0  0  0  0
  -21.6426  -26.2236   22.2138 C   0  0  0  0  0  0  0  0  0  0  0  0
  -22.6963  -24.2864   20.0813 C   0  0  0  0  0  0  0  0  0  0  0  0
  -23.0490  -21.9648   17.6068 C   0  0  0  0  0  0  0  0  0  0  0  0
  -29.5876  -20.6873   19.9000 C   0  0  0  0  0  0  0  0  0  0  0  0
  -16.5984  -27.0034   22.1408 C   0  0  0  0  0  0  0  0  0  0  0  0
  -23.4362  -27.7624   21.4513 C   0  0  0  0  0  0  0  0  0  0  0  0
  -24.7020  -25.2407   21.3169 C   0  0  0  0  0  0  0  0  0  0  0  0
  -17.5358  -25.8798   21.7060 C   0  0  0  0  0  0  0  0  0  0  0  0
  -32.0706  -25.9299   17.7254 C   0  0  0  0  0  0  0  0  0  0  0  0
  -30.9508  -18.8766   22.6460 C   0  0  0  0  0  0  0  0  0  0  0  0
  -18.5200  -25.5439   22.8219 C   0  0  0  0  0  0  0  0  0  0  0  0
  -31.4166  -24.5612   17.5259 C   0  0  0  0  0  0  0  0  0  0  0  0
  -29.1471  -25.5432   16.7448 C   0  0  0  0  0  0  0  0  0  0  0  0
  -30.4639  -17.4445   22.4134 C   0  0  0  0  0  0  0  0  0  0  0  0
  -31.1769  -26.8989   18.5006 C   0  0  0  0  0  0  0  0  0  0  0  0
  -29.5816  -26.9798   16.4529 C   0  0  0  0  0  0  0  0  0  0  0  0
  -29.8987  -19.9066   22.2385 C   0  0  0  0  0  0  0  0  0  0  0  0
  -28.8922  -18.3244   20.6407 C   0  0  0  0  0  0  0  0  0  0  0  0
  -19.4029  -26.7510   23.1607 C   0  0  1  0  0  0  0  0  0  0  0  0
  -30.2752  -24.5212   16.4949 C   0  0  2  0  0  0  0  0  0  0  0  0
  -22.5730  -26.5430   21.0808 C   0  0  1  0  0  0  0  0  0  0  0  0
  -29.9427  -17.2530   20.9756 C   0  0  2  0  0  0  0  0  0  0  0  0
  -30.2213  -27.7325   17.6318 C   0  0  1  0  0  0  0  0  0  0  0  0
  -22.4424  -19.6009   17.0227 C   0  0  0  0  0  0  0  0  0  0  0  0
  -24.8497  -23.2672   21.9860 C   0  0  0  0  0  0  0  0  0  0  0  0
  -24.8651  -21.1164   20.7045 C   0  0  0  0  0  0  0  0  0  0  0  0
  -22.7921  -21.8495   21.8825 C   0  0  0  0  0  0  0  0  0  0  0  0
  -21.5124  -22.8242   15.2279 C   0  0  0  0  0  0  0  0  0  0  0  0
  -30.1813  -29.6382   16.2569 C   0  0  0  0  0  0  0  0  0  0  0  0
  -29.1468  -28.3628   18.5291 C   0  0  0  0  0  0  0  0  0  1  0  0
  -23.5183  -23.0579   19.7838 C   0  0  1  0  0  0  0  0  0  0  0  0
  -22.0391  -21.0636   16.9195 C   0  0  2  0  0  0  0  0  0  0  0  0
  -24.0112  -22.3475   21.0760 C   0  0  0  0  0  0  0  0  0  0  0  0
  -28.1080  -15.6053   20.9530 N   0  0  0  0  0  0  0  0  0  0  0  0
  -29.6982  -22.3839   17.5409 N   0  0  0  0  0  0  0  0  0  0  0  0
  -29.4143  -15.8485   20.7516 N   0  0  0  0  0  0  0  0  0  0  0  0
  -23.3172  -25.2985   20.8234 N   0  0  0  0  0  0  0  0  0  0  0  0
  -29.4549  -19.6655   20.8638 N   0  0  0  0  0  0  0  0  0  0  0  0
  -31.4494  -14.8215   20.1080 N   0  0  0  0  0  0  0  0  0  0  0  0
  -29.4156  -12.0147   18.5656 N   0  0  0  0  0  0  0  0  0  0  0  0
  -29.1622  -20.3318   18.6205 N   0  0  0  0  0  0  0  0  0  0  0  0
  -20.4442  -26.9100   22.1682 N   0  0  0  0  0  0  0  0  0  0  0  0
  -22.6989  -22.2188   18.9161 N   0  0  0  0  0  0  0  0  0  0  0  0
  -21.9253  -21.4190   15.4767 N   0  3  0  0  0  0  0  0  0  0  0  0
  -29.8337  -11.4971   20.7601 O   0  0  0  0  0  0  0  0  0  0  0  0
  -21.9849  -25.4128   23.0665 O   0  0  0  0  0  0  0  0  0  0  0  0
  -21.5332  -24.3473   19.6730 O   0  0  0  0  0  0  0  0  0  0  0  0
  -24.0503  -22.3970   17.0401 O   0  0  0  0  0  0  0  0  0  0  0  0
  -30.0701  -21.7871   20.1825 O   0  0  0  0  0  0  0  0  0  0  0  0
  -23.0250  -11.7715   21.0603 O   0  0  0  0  0  0  0  0  0  0  0  0
  -28.7395  -27.4074   19.5077 O   0  0  0  0  0  0  0  0  0  1  0  0
  -30.9879  -28.8129   17.0772 O   0  0  0  0  0  0  0  0  0  0  0  0
  -22.9525   -6.2581   21.0969 F   0  0  0  0  0  0  0  0  0  0  0  0
  -21.9766  -10.3810   23.2075 F   0  0  0  0  0  0  0  0  0  0  0  0
  -28.3023  -20.8456   13.9660 F   0  0  0  0  0  0  0  0  0  0  0  0
  1  2  1  0  0  0  0
  1  5  2  0  0  0  0
  2  6  2  0  0  0  0
  3  8  2  0  0  0  0
  3 17  1  0  0  0  0
  4  9  1  0  0  0  0
  4 17  2  0  0  0  0
  5 19  1  0  0  0  0
  6 21  1  0  0  0  0
  7 10  2  0  0  0  0
  7 20  1  0  0  0  0
  8 23  1  0  0  0  0
  9 23  2  0  0  0  0
 10 24  1  0  0  0  0
 11 12  2  0  0  0  0
 11 25  1  0  0  0  0
 12 26  1  0  0  0  0
 13 22  1  0  0  0  0
 13 24  2  0  0  0  0
 14 26  2  0  0  0  0
 14 27  1  0  0  0  0
 15 28  2  0  0  0  0
 15 30  1  0  0  0  0
 16 28  1  0  0  0  0
 16 31  2  0  0  0  0
 17 29  1  0  0  0  0
 18 29  1  0  0  0  0
 18 32  2  0  0  0  0
 18 33  1  0  0  0  0
 19 21  2  0  0  0  0
 19 38  1  0  0  0  0
 20 22  2  0  0  0  0
 20 39  1  0  0  0  0
 21 52  1  0  0  0  0
 22 40  1  0  0  0  0
 23 83  1  0  0  0  0
 24 84  1  0  0  0  0
 25 27  2  0  0  0  0
 25 83  1  0  0  0  0
 26 86  1  0  0  0  0
 27 87  1  0  0  0  0
 28 88  1  0  0  0  0
 29 67  2  0  0  0  0
 30 53  1  0  0  0  0
 30 68  2  0  0  0  0
 31 68  1  0  0  0  0
 31 74  1  0  0  0  0
 32 69  1  0  0  0  0
 32 72  1  0  0  0  0
 33 73  1  0  0  0  0
 33 78  2  0  0  0  0
 34 54  1  0  0  0  0
 34 75  1  0  0  0  0
 34 79  2  0  0  0  0
 35 64  1  0  0  0  0
 35 70  1  0  0  0  0
 35 80  2  0  0  0  0
 36 65  1  0  0  0  0
 36 76  1  0  0  0  0
 36 81  2  0  0  0  0
 37 71  1  0  0  0  0
 37 74  1  0  0  0  0
 37 82  2  0  0  0  0
 38 41  1  0  0  0  0
 39 54  1  0  0  0  0
 40 70  1  0  0  0  0
 41 44  1  0  0  0  0
 42 45  1  0  0  0  0
 42 48  1  0  0  0  0
 43 47  1  0  0  0  0
 43 50  1  0  0  0  0
 44 52  1  0  0  0  0
 45 53  1  0  0  0  0
 46 49  1  0  0  0  0
 46 53  1  0  0  0  0
 47 55  1  0  0  0  0
 48 56  1  0  0  0  0
 49 56  1  0  0  0  0
 50 71  1  0  0  0  0
 51 55  1  0  0  0  0
 51 71  1  0  0  0  0
 52 75  1  0  0  0  0
 54 70  1  0  0  0  0
 55 69  1  0  0  0  0
 56 63  1  0  0  0  0
 56 85  1  0  0  0  0
 57 65  1  0  0  0  0
 58 66  1  0  0  0  0
 59 66  1  0  0  0  0
 60 66  1  0  0  0  0
 61 77  1  0  0  0  0
 62 85  1  0  0  0  0
 63 84  1  0  0  0  0
 64 66  1  0  0  0  0
 64 76  1  0  0  0  0
 65 77  1  0  0  0  0
 67 69  1  0  0  0  0
M  CHG  1  77   1
M  ISO  4  37 100  63 101  74 100  84 101
M  END
> <Batch ID>
0170

> <Smiles>
CNC(C)C(=O)NC(C(=O)N1Cc2cc([101O:1][101CH2:1]C3(OC)CCCC(c4cc(F)cc([100NH:0][100C:0](=O)N5CCCC(n6nc(-c7ccc(Oc8ccc(F)cc8F)cc7)c(C(N)=O)c6N)C5)n4)CC3)ccc2CC1C(=O)NC1CCCc2ccccc21)C(C)(C)C

> <Shape>
0.281

> <Color>
0.093

> <Negative vol penalty>
0.000

$$$$

  -OEChem-04052304203D

 86 94  0     1  0  0  0  0  0999 V2000
  -28.1175  -37.6558   24.4424 C   0  0  0  0  0  0  0  0  0  0  0  0
  -28.5608  -36.6605   23.5773 C   0  0  0  0  0  0  0  0  0  0  0  0
  -23.9220   -9.7099   22.3936 C   0  0  0  0  0  0  0  0  0  0  0  0
  -24.3957   -9.1155   20.1003 C   0  0  0  0  0  0  0  0  0  0  0  0
  -28.0932  -21.4960   20.5968 C   0  0  0  0  0  0  0  0  0  0  0  0
  -27.2254  -37.3410   25.4666 C   0  0  0  0  0  0  0  0  0  0  0  0
  -28.1130  -35.3496   23.7366 C   0  0  0  0  0  0  0  0  0  0  0  0
  -27.0282  -31.2654   19.3040 C   0  0  0  0  0  0  0  0  0  0  0  0
  -28.2617  -22.8483   20.2995 C   0  0  0  0  0  0  0  0  0  0  0  0
  -22.9072   -8.7537   22.4319 C   0  0  0  0  0  0  0  0  0  0  0  0
  -23.3810   -8.1592   20.1386 C   0  0  0  0  0  0  0  0  0  0  0  0
  -27.7863  -30.2135   18.7918 C   0  0  0  0  0  0  0  0  0  0  0  0
  -20.4319   -6.2195   23.2477 C   0  0  0  0  0  0  0  0  0  0  0  0
  -20.3621   -5.3924   24.3687 C   0  0  0  0  0  0  0  0  0  0  0  0
  -26.6229  -28.6767   20.2422 C   0  0  0  0  0  0  0  0  0  0  0  0
  -22.5861   -4.5720   23.9019 C   0  0  0  0  0  0  0  0  0  0  0  0
  -24.6662   -9.8909   21.2278 C   0  0  0  0  0  0  0  0  0  0  0  0
  -28.8695  -20.8982   21.5897 C   0  0  0  0  0  0  0  0  0  0  0  0
  -27.0705  -10.6934   21.5156 C   0  0  0  0  0  0  0  0  0  0  0  0
  -26.7590  -36.0274   25.6326 C   0  0  0  0  0  0  0  0  0  0  0  0
  -26.0676  -31.0321   20.2987 C   0  0  0  0  0  0  0  0  0  0  0  0
  -27.2149  -35.0167   24.7649 C   0  0  0  0  0  0  0  0  0  0  0  0
  -25.8521  -29.7270   20.7636 C   0  0  0  0  0  0  0  0  0  0  0  0
  -29.9829  -23.0050   21.9878 C   0  0  0  0  0  0  0  0  0  0  0  0
  -29.2066  -23.6028   20.9949 C   0  0  0  0  0  0  0  0  0  0  0  0
  -22.6367   -7.9783   21.3044 C   0  0  0  0  0  0  0  0  0  0  0  0
  -27.5857  -28.9193   19.2629 C   0  0  0  0  0  0  0  0  0  0  0  0
  -21.5787   -6.2227   22.4536 C   0  0  0  0  0  0  0  0  0  0  0  0
  -21.4392   -4.5687   24.6958 C   0  0  0  0  0  0  0  0  0  0  0  0
  -22.6558   -5.3990   22.7808 C   0  0  0  0  0  0  0  0  0  0  0  0
  -29.8143  -21.6527   22.2851 C   0  0  0  0  0  0  0  0  0  0  0  0
  -25.7142  -10.8789   21.1875 C   0  0  0  0  0  0  0  0  0  0  0  0
  -27.6441  -11.9250   21.3139 C   0  0  0  0  0  0  0  0  0  0  0  0
  -28.6889  -19.4877   21.8955 C   0  0  0  0  0  0  0  0  0  0  0  0
  -27.5390  -18.7955   21.7492 C   0  0  0  0  0  0  0  0  0  0  0  0
  -27.7511   -9.5133   21.9625 C   0  0  0  0  0  0  0  0  0  0  0  0
  -27.5175  -17.3600   22.0949 C   0  0  0  0  0  0  0  0  0  0  0  0
  -25.6665  -31.9984   23.3002 C   0  0  0  0  0  0  0  0  0  0  0  0
  -22.8424  -30.4279   23.0172 C   0  0  0  0  0  0  0  0  0  0  0  0
  -21.0186  -28.0056   21.4510 C   0  0  0  0  0  0  0  0  0  0  0  0
  -28.6635  -25.7088   19.7265 C   0  0  0  0  0  0  0  0  0  0  0  0
  -25.8320  -35.7262   26.7835 C   0  0  0  0  0  0  0  0  0  0  0  0
  -25.2394  -32.1736   20.8217 C   0  0  0  0  0  0  0  0  0  0  0  0
  -24.8191  -29.4205   21.8160 C   0  0  0  0  0  0  0  0  0  0  0  0
  -25.1148  -34.3850   26.6530 C   0  0  0  0  0  0  0  0  0  0  0  0
  -25.8532  -16.0817   19.0903 C   0  0  0  0  0  0  0  0  0  0  0  0
  -26.0989  -33.2899   26.2544 C   0  0  0  0  0  0  0  0  0  0  0  0
  -25.7405  -14.5970   19.4262 C   0  0  0  0  0  0  0  0  0  0  0  0
  -25.7148  -16.9609   20.3322 C   0  0  0  0  0  0  0  0  0  0  0  0
  -26.5520  -15.1175   21.7609 C   0  0  0  0  0  0  0  0  0  0  0  0
  -26.7328  -33.5877   24.8902 C   0  0  1  0  0  0  0  0  0  0  0  0
  -24.6472  -31.8994   22.2007 C   0  0  1  0  0  0  0  0  0  0  0  0
  -26.7353  -14.2123   20.5327 C   0  0  1  0  0  0  0  0  0  0  0  0
  -32.2700  -24.0310   21.9331 C   0  0  0  0  0  0  0  0  0  0  0  0
  -18.7517  -26.9294   21.4628 C   0  0  0  0  0  0  0  0  0  0  0  0
  -30.5914  -27.2726   19.2825 C   0  0  0  0  0  0  0  0  0  0  0  0
  -23.5907  -28.8849   25.5409 C   0  0  0  0  0  0  0  0  0  0  0  0
  -21.8080  -27.2225   24.9691 C   0  0  0  0  0  0  0  0  0  0  0  0
  -21.1962  -29.5975   25.4253 C   0  0  0  0  0  0  0  0  0  0  0  0
  -20.4845  -28.8307   18.6594 C   0  0  0  0  0  0  0  0  0  0  0  0
  -31.0017  -23.7925   22.7463 C   0  0  0  0  0  0  0  0  0  0  0  0
  -22.3757  -29.0141   23.2664 C   0  0  1  0  0  0  0  0  0  0  0  0
  -19.6209  -28.0215   20.8590 C   0  0  2  0  0  0  0  0  0  0  0  0
  -29.1299  -27.1619   19.6908 C   0  0  1  0  0  0  0  0  0  1  0  0
  -22.2635  -28.6855   24.7820 C   0  0  0  0  0  0  0  0  0  0  0  0
  -25.4423  -12.1299   20.8066 N   0  0  0  0  0  0  0  0  0  0  0  0
  -26.6357  -12.7416   20.8941 N   0  0  0  0  0  0  0  0  0  0  0  0
  -26.6355  -16.5365   21.3975 N   0  0  0  0  0  0  0  0  0  0  0  0
  -24.0390  -30.5712   22.3007 N   0  0  0  0  0  0  0  0  0  0  0  0
  -28.9077  -12.3782   21.4567 N   0  0  0  0  0  0  0  0  0  0  0  0
  -27.0111   -8.3330   22.1163 N   0  0  0  0  0  0  0  0  0  0  0  0
  -29.3626  -24.9733   20.6779 N   0  0  0  0  0  0  0  0  0  0  0  0
  -25.8083  -33.2696   23.8231 N   0  0  0  0  0  0  0  0  0  0  0  0
  -21.1271  -28.8601   22.5277 N   0  0  0  0  0  0  0  0  0  0  0  0
  -19.6804  -27.8135   19.3845 N   0  3  0  0  0  0  0  0  0  0  0  0
  -28.9759   -9.5097   22.2336 O   0  0  0  0  0  0  0  0  0  0  0  0
  -28.2797  -16.9780   22.9848 O   0  0  0  0  0  0  0  0  0  0  0  0
  -26.2779  -30.9954   23.6494 O   0  0  0  0  0  0  0  0  0  0  0  0
  -22.1663  -31.3707   23.4364 O   0  0  0  0  0  0  0  0  0  0  0  0
  -21.9228  -27.3024   21.0053 O   0  0  0  0  0  0  0  0  0  0  0  0
  -27.7656  -25.3104   18.9901 O   0  0  0  0  0  0  0  0  0  0  0  0
  -21.6468   -7.0449   21.3414 O   0  0  0  0  0  0  0  0  0  0  0  0
  -28.3248  -27.8908   18.7651 O   0  0  0  0  0  0  0  0  0  1  0  0
  -21.3726   -3.7757   25.7733 F   0  0  0  0  0  0  0  0  0  0  0  0
  -23.7607   -5.3986   22.0225 F   0  0  0  0  0  0  0  0  0  0  0  0
  -30.5626  -21.0822   23.2422 F   0  0  0  0  0  0  0  0  0  0  0  0
  1  2  1  0  0  0  0
  1  6  2  0  0  0  0
  2  7  2  0  0  0  0
  3 10  2  0  0  0  0
  3 17  1  0  0  0  0
  4 11  1  0  0  0  0
  4 17  2  0  0  0  0
  5  9  1  0  0  0  0
  5 18  2  0  0  0  0
  6 20  1  0  0  0  0
  7 22  1  0  0  0  0
  8 12  2  0  0  0  0
  8 21  1  0  0  0  0
  9 25  2  0  0  0  0
 10 26  1  0  0  0  0
 11 26  2  0  0  0  0
 12 27  1  0  0  0  0
 13 14  2  0  0  0  0
 13 28  1  0  0  0  0
 14 29  1  0  0  0  0
 15 23  1  0  0  0  0
 15 27  2  0  0  0  0
 16 29  2  0  0  0  0
 16 30  1  0  0  0  0
 17 32  1  0  0  0  0
 18 31  1  0  0  0  0
 18 34  1  0  0  0  0
 19 32  1  0  0  0  0
 19 33  2  0  0  0  0
 19 36  1  0  0  0  0
 20 22  2  0  0  0  0
 20 42  1  0  0  0  0
 21 23  2  0  0  0  0
 21 43  1  0  0  0  0
 22 51  1  0  0  0  0
 23 44  1  0  0  0  0
 24 25  1  0  0  0  0
 24 31  2  0  0  0  0
 24 61  1  0  0  0  0
 25 72  1  0  0  0  0
 26 82  1  0  0  0  0
 27 83  1  0  0  0  0
 28 30  2  0  0  0  0
 28 82  1  0  0  0  0
 29 84  1  0  0  0  0
 30 85  1  0  0  0  0
 31 86  1  0  0  0  0
 32 66  2  0  0  0  0
 33 67  1  0  0  0  0
 33 70  1  0  0  0  0
 34 35  2  0  0  0  0
 35 37  1  0  0  0  0
 36 71  1  0  0  0  0
 36 76  2  0  0  0  0
 37 68  1  0  0  0  0
 37 77  2  0  0  0  0
 38 52  1  0  0  0  0
 38 73  1  0  0  0  0
 38 78  2  0  0  0  0
 39 62  1  0  0  0  0
 39 69  1  0  0  0  0
 39 79  2  0  0  0  0
 40 63  1  0  0  0  0
 40 74  1  0  0  0  0
 40 80  2  0  0  0  0
 41 64  1  0  0  0  0
 41 72  1  0  0  0  0
 41 81  2  0  0  0  0
 42 45  1  0  0  0  0
 43 52  1  0  0  0  0
 44 69  1  0  0  0  0
 45 47  1  0  0  0  0
 46 48  1  0  0  0  0
 46 49  1  0  0  0  0
 47 51  1  0  0  0  0
 48 53  1  0  0  0  0
 49 68  1  0  0  0  0
 50 53  1  0  0  0  0
 50 68  1  0  0  0  0
 51 73  1  0  0  0  0
 52 69  1  0  0  0  0
 53 67  1  0  0  0  0
 54 61  1  0  0  0  0
 55 63  1  0  0  0  0
 56 64  1  0  0  0  0
 57 65  1  0  0  0  0
 58 65  1  0  0  0  0
 59 65  1  0  0  0  0
 60 75  1  0  0  0  0
 62 65  1  0  0  0  0
 62 74  1  0  0  0  0
 63 75  1  0  0  0  0
 64 83  1  0  0  0  0
 66 67  1  0  0  0  0
M  CHG  1  75   1
M  ISO  4  35 100  37 100  64 101  83 101
M  END
> <Batch ID>
0170

> <Smiles>
CCc1c(NC(=O)[101CH:1](C)[101O:1]c2ccc3c(c2)CN(C(=O)C(NC(=O)C(C)NC)C(C)(C)C)C(C(=O)NC2CCCc4ccccc42)C3)ccc(C=[100CH:0][100C:0](=O)N2CCCC(n3nc(-c4ccc(Oc5ccc(F)cc5F)cc4)c(C(N)=O)c3N)C2)c1F

> <Shape>
0.317

> <Color>
0.104

> <Negative vol penalty>
0.000

$$$$

  -OEChem-04052304203D

 84 92  0     1  0  0  0  0  0999 V2000
  -28.2431  -36.2265   19.8873 C   0  0  0  0  0  0  0  0  0  0  0  0
  -28.5542  -34.8892   20.1115 C   0  0  0  0  0  0  0  0  0  0  0  0
  -23.4163   -9.6503   20.4518 C   0  0  0  0  0  0  0  0  0  0  0  0
  -24.0085  -10.1942   22.7301 C   0  0  0  0  0  0  0  0  0  0  0  0
  -27.1485  -36.8035   20.5299 C   0  0  0  0  0  0  0  0  0  0  0  0
  -27.7715  -34.1284   20.9792 C   0  0  0  0  0  0  0  0  0  0  0  0
  -26.6759  -29.5542   19.1025 C   0  0  0  0  0  0  0  0  0  0  0  0
  -22.7869   -8.4865   20.8933 C   0  0  0  0  0  0  0  0  0  0  0  0
  -23.3790   -9.0304   23.1716 C   0  0  0  0  0  0  0  0  0  0  0  0
  -27.6754  -28.5842   19.1652 C   0  0  0  0  0  0  0  0  0  0  0  0
  -20.2228   -7.9811   23.7699 C   0  0  0  0  0  0  0  0  0  0  0  0
  -19.3947   -8.0783   24.8880 C   0  0  0  0  0  0  0  0  0  0  0  0
  -26.6191  -27.6303   21.1128 C   0  0  0  0  0  0  0  0  0  0  0  0
  -30.5250  -18.3722   19.8990 C   0  0  0  0  0  0  0  0  0  0  0  0
  -28.7817  -20.0778   21.2536 C   0  0  0  0  0  0  0  0  0  0  0  0
  -20.7852   -6.4851   26.0564 C   0  0  0  0  0  0  0  0  0  0  0  0
  -24.0272  -10.5042   21.3702 C   0  0  0  0  0  0  0  0  0  0  0  0
  -24.0994  -12.9804   20.7612 C   0  0  0  0  0  0  0  0  0  0  0  0
  -26.3463  -36.0469   21.3985 C   0  0  0  0  0  0  0  0  0  0  0  0
  -25.6448  -29.5762   20.0526 C   0  0  0  0  0  0  0  0  0  0  0  0
  -26.6659  -34.6962   21.6350 C   0  0  0  0  0  0  0  0  0  0  0  0
  -25.6063  -28.6000   21.0585 C   0  0  0  0  0  0  0  0  0  0  0  0
  -29.6354  -17.8556   20.8409 C   0  0  0  0  0  0  0  0  0  0  0  0
  -29.6713  -20.5944   20.3117 C   0  0  0  0  0  0  0  0  0  0  0  0
  -22.7682   -8.1765   22.2531 C   0  0  0  0  0  0  0  0  0  0  0  0
  -27.6487  -27.6238   20.1721 C   0  0  0  0  0  0  0  0  0  0  0  0
  -21.3322   -7.1358   23.7949 C   0  0  0  0  0  0  0  0  0  0  0  0
  -19.6758   -7.3303   26.0313 C   0  0  0  0  0  0  0  0  0  0  0  0
  -28.7637  -18.7083   21.5182 C   0  0  0  0  0  0  0  0  0  0  0  0
  -30.5430  -19.7417   19.6344 C   0  0  0  0  0  0  0  0  0  0  0  0
  -21.6134   -6.3879   24.9382 C   0  0  0  0  0  0  0  0  0  0  0  0
  -24.6780  -11.7063   20.9148 C   0  0  0  0  0  0  0  0  0  0  0  0
  -25.1261  -13.7712   20.3064 C   0  0  0  0  0  0  0  0  0  0  0  0
  -22.7540  -13.4105   21.0077 C   0  0  0  0  0  0  0  0  0  0  0  0
  -24.6629  -31.6528   22.2497 C   0  0  0  0  0  0  0  0  0  0  0  0
  -29.1086  -24.3025   20.1848 C   0  0  0  0  0  0  0  0  0  0  0  0
  -22.2362  -29.5304   22.6095 C   0  0  0  0  0  0  0  0  0  0  0  0
  -21.1159  -26.3251   22.2663 C   0  0  0  0  0  0  0  0  0  0  0  0
  -30.4200  -15.4828   20.5239 C   0  0  0  0  0  0  0  0  0  0  0  0
  -25.2015  -36.7269   22.1068 C   0  0  0  0  0  0  0  0  0  0  0  0
  -24.5594  -30.6129   19.9554 C   0  0  0  0  0  0  0  0  0  0  0  0
  -24.5099  -28.5677   22.0906 C   0  0  0  0  0  0  0  0  0  0  0  0
  -24.2003  -35.7522   22.7214 C   0  0  0  0  0  0  0  0  0  0  0  0
  -29.7438  -12.5385   18.6395 C   0  0  0  0  0  0  0  0  0  0  0  0
  -24.9280  -34.6503   23.4852 C   0  0  0  0  0  0  0  0  0  0  0  0
  -28.3180  -12.1643   19.0509 C   0  0  0  0  0  0  0  0  0  0  0  0
  -30.5422  -13.1050   19.8123 C   0  0  0  0  0  0  0  0  0  0  0  0
  -28.4757  -13.8484   20.9286 C   0  0  0  0  0  0  0  0  0  0  0  0
  -25.8261  -33.8316   22.5501 C   0  0  1  0  0  0  0  0  0  0  0  0
  -23.8409  -30.8519   21.2798 C   0  0  1  0  0  0  0  0  0  0  0  0
  -27.6124  -13.3336   19.7653 C   0  0  2  0  0  0  0  0  0  0  0  0
  -19.1015  -24.8874   22.6816 C   0  0  0  0  0  0  0  0  0  0  0  0
  -22.8935  -29.4744   25.5886 C   0  0  0  0  0  0  0  0  0  0  0  0
  -21.5376  -27.3782   25.7772 C   0  0  0  0  0  0  0  0  0  0  0  0
  -20.4493  -29.5050   25.0599 C   0  0  0  0  0  0  0  0  0  0  0  0
  -20.8341  -25.6872   19.3901 C   0  0  0  0  0  0  0  0  0  0  0  0
  -28.8239  -22.9085   20.7024 C   0  0  0  0  0  0  0  0  0  0  0  0
  -28.2623  -25.4090   20.7837 C   0  0  0  0  0  0  0  0  0  1  0  0
  -22.0028  -28.3082   23.4643 C   0  0  1  0  0  0  0  0  0  0  0  0
  -19.8342  -25.7637   21.6776 C   0  0  2  0  0  0  0  0  0  0  0  0
  -21.7427  -28.6679   24.9544 C   0  0  0  0  0  0  0  0  0  0  0  0
  -25.9720  -11.6844   20.5842 N   0  0  0  0  0  0  0  0  0  0  0  0
  -26.2148  -12.9545   20.2183 N   0  0  0  0  0  0  0  0  0  0  0  0
  -23.4749  -29.6062   21.9571 N   0  0  0  0  0  0  0  0  0  0  0  0
  -29.8142  -14.2115   20.4373 N   0  0  0  0  0  0  0  0  0  0  0  0
  -25.1947  -15.0786   19.9771 N   0  0  0  0  0  0  0  0  0  0  0  0
  -21.8261  -12.4688   21.4730 N   0  0  0  0  0  0  0  0  0  0  0  0
  -29.6200  -16.4642   21.1083 N   0  0  0  0  0  0  0  0  0  0  0  0
  -29.6871  -21.9571   20.0506 N   0  0  0  0  0  0  0  0  0  0  0  0
  -25.0344  -32.8975   21.7786 N   0  0  0  0  0  0  0  0  0  0  0  0
  -20.9175  -27.5677   22.8301 N   0  0  0  0  0  0  0  0  0  0  0  0
  -20.1344  -24.9442   20.4696 N   0  3  0  0  0  0  0  0  0  0  0  0
  -22.3817  -14.5912   20.8053 O   0  0  0  0  0  0  0  0  0  0  0  0
  -24.9382  -31.1772   23.3451 O   0  0  0  0  0  0  0  0  0  0  0  0
  -29.9672  -24.5340   19.3345 O   0  0  0  0  0  0  0  0  0  0  0  0
  -21.3493  -30.3828   22.5182 O   0  0  0  0  0  0  0  0  0  0  0  0
  -22.1852  -25.7202   22.2328 O   0  0  0  0  0  0  0  0  0  0  0  0
  -31.5540  -15.6925   20.0854 O   0  0  0  0  0  0  0  0  0  0  0  0
  -22.1539   -7.0411   22.6843 O   0  0  0  0  0  0  0  0  0  0  0  0
  -28.6233  -26.6763   20.2360 O   0  0  0  0  0  0  0  0  0  1  0  0
  -18.8813   -7.4249   27.1055 F   0  0  0  0  0  0  0  0  0  0  0  0
  -27.9061  -18.2229   22.4272 F   0  0  0  0  0  0  0  0  0  0  0  0
  -31.4024  -20.2283   18.7276 F   0  0  0  0  0  0  0  0  0  0  0  0
  -22.6783   -5.5750   24.9687 F   0  0  0  0  0  0  0  0  0  0  0  0
  1  2  1  0  0  0  0
  1  5  2  0  0  0  0
  2  6  2  0  0  0  0
  3  8  2  0  0  0  0
  3 17  1  0  0  0  0
  4  9  1  0  0  0  0
  4 17  2  0  0  0  0
  5 19  1  0  0  0  0
  6 21  1  0  0  0  0
  7 10  2  0  0  0  0
  7 20  1  0  0  0  0
  8 25  1  0  0  0  0
  9 25  2  0  0  0  0
 10 26  1  0  0  0  0
 11 12  2  0  0  0  0
 11 27  1  0  0  0  0
 12 28  1  0  0  0  0
 13 22  1  0  0  0  0
 13 26  2  0  0  0  0
 14 23  2  0  0  0  0
 14 30  1  0  0  0  0
 15 24  1  0  0  0  0
 15 29  2  0  0  0  0
 16 28  2  0  0  0  0
 16 31  1  0  0  0  0
 17 32  1  0  0  0  0
 18 32  1  0  0  0  0
 18 33  2  0  0  0  0
 18 34  1  0  0  0  0
 19 21  2  0  0  0  0
 19 40  1  0  0  0  0
 20 22  2  0  0  0  0
 20 41  1  0  0  0  0
 21 49  1  0  0  0  0
 22 42  1  0  0  0  0
 23 29  1  0  0  0  0
 23 68  1  0  0  0  0
 24 30  2  0  0  0  0
 24 69  1  0  0  0  0
 25 79  1  0  0  0  0
 26 80  1  0  0  0  0
 27 31  2  0  0  0  0
 27 79  1  0  0  0  0
 28 81  1  0  0  0  0
 29 82  1  0  0  0  0
 30 83  1  0  0  0  0
 31 84  1  0  0  0  0
 32 62  2  0  0  0  0
 33 63  1  0  0  0  0
 33 66  1  0  0  0  0
 34 67  1  0  0  0  0
 34 73  2  0  0  0  0
 35 50  1  0  0  0  0
 35 70  1  0  0  0  0
 35 74  2  0  0  0  0
 36 57  1  0  0  0  0
 36 58  1  0  0  0  0
 36 75  2  0  0  0  0
 37 59  1  0  0  0  0
 37 64  1  0  0  0  0
 37 76  2  0  0  0  0
 38 60  1  0  0  0  0
 38 71  1  0  0  0  0
 38 77  2  0  0  0  0
 39 65  1  0  0  0  0
 39 68  1  0  0  0  0
 39 78  2  0  0  0  0
 40 43  1  0  0  0  0
 41 50  1  0  0  0  0
 42 64  1  0  0  0  0
 43 45  1  0  0  0  0
 44 46  1  0  0  0  0
 44 47  1  0  0  0  0
 45 49  1  0  0  0  0
 46 51  1  0  0  0  0
 47 65  1  0  0  0  0
 48 51  1  0  0  0  0
 48 65  1  0  0  0  0
 49 70  1  0  0  0  0
 50 64  1  0  0  0  0
 51 63  1  0  0  0  0
 52 60  1  0  0  0  0
 53 61  1  0  0  0  0
 54 61  1  0  0  0  0
 55 61  1  0  0  0  0
 56 72  1  0  0  0  0
 57 69  1  0  0  0  0
 58 80  1  0  0  0  0
 59 61  1  0  0  0  0
 59 71  1  0  0  0  0
 60 72  1  0  0  0  0
 62 63  1  0  0  0  0
M  CHG  1  72   1
M  ISO  4  39 100  58 101  68 100  80 101
M  END
> <Batch ID>
0170

> <Smiles>
CNC(C)C(=O)NC(C(=O)N1Cc2cc([101O:1][101CH2:1]C(=O)CNc3cc(F)c([100NH:0][100C:0](=O)N4CCCC(n5nc(-c6ccc(Oc7ccc(F)cc7F)cc6)c(C(N)=O)c5N)C4)cc3F)ccc2CC1C(=O)NC1CCCc2ccccc21)C(C)(C)C

> <Shape>
0.376

> <Color>
0.212

> <Negative vol penalty>
0.000

$$$$

  -OEChem-04052304203D

 88 96  0     1  0  0  0  0  0999 V2000
  -29.5898  -31.9174   25.5801 C   0  0  0  0  0  0  0  0  0  0  0  0
  -29.1476  -30.6827   25.1161 C   0  0  0  0  0  0  0  0  0  0  0  0
  -22.9780   -9.9858   19.9190 C   0  0  0  0  0  0  0  0  0  0  0  0
  -23.8370   -9.8044   22.1698 C   0  0  0  0  0  0  0  0  0  0  0  0
  -28.7701  -33.0392   25.4630 C   0  0  0  0  0  0  0  0  0  0  0  0
  -27.8848  -30.5687   24.5357 C   0  0  0  0  0  0  0  0  0  0  0  0
  -27.9395  -27.8064   20.2917 C   0  0  0  0  0  0  0  0  0  0  0  0
  -22.2181   -8.8328   20.1160 C   0  0  0  0  0  0  0  0  0  0  0  0
  -23.0771   -8.6514   22.3669 C   0  0  0  0  0  0  0  0  0  0  0  0
  -27.9909  -26.4206   20.4347 C   0  0  0  0  0  0  0  0  0  0  0  0
  -23.2632   -5.3755   21.5518 C   0  0  0  0  0  0  0  0  0  0  0  0
  -23.8845   -4.2865   22.1631 C   0  0  0  0  0  0  0  0  0  0  0  0
  -25.6136  -26.2981   20.0441 C   0  0  0  0  0  0  0  0  0  0  0  0
  -28.6342  -19.0544   24.7490 C   0  0  0  0  0  0  0  0  0  0  0  0
  -22.2638   -4.3665   23.9531 C   0  0  0  0  0  0  0  0  0  0  0  0
  -23.7875  -10.4716   20.9458 C   0  0  0  0  0  0  0  0  0  0  0  0
  -24.1846  -12.9909   20.9983 C   0  0  0  0  0  0  0  0  0  0  0  0
  -27.5005  -32.9408   24.8721 C   0  0  0  0  0  0  0  0  0  0  0  0
  -26.7209  -28.4507   20.0343 C   0  0  0  0  0  0  0  0  0  0  0  0
  -27.0468  -31.6899   24.4118 C   0  0  0  0  0  0  0  0  0  0  0  0
  -25.5498  -27.6920   19.8958 C   0  0  0  0  0  0  0  0  0  0  0  0
  -29.9711  -17.0883   24.3200 C   0  0  0  0  0  0  0  0  0  0  0  0
  -30.1500  -17.4983   22.9987 C   0  0  0  0  0  0  0  0  0  0  0  0
  -28.8131  -19.4644   23.4278 C   0  0  0  0  0  0  0  0  0  0  0  0
  -22.2676   -8.1657   21.3400 C   0  0  0  0  0  0  0  0  0  0  0  0
  -26.8274  -25.6664   20.3137 C   0  0  0  0  0  0  0  0  0  0  0  0
  -22.1422   -5.9601   22.1412 C   0  0  0  0  0  0  0  0  0  0  0  0
  -23.3848   -3.7820   23.3637 C   0  0  0  0  0  0  0  0  0  0  0  0
  -29.2132  -17.8664   25.1951 C   0  0  0  0  0  0  0  0  0  0  0  0
  -21.6425   -5.4556   23.3418 C   0  0  0  0  0  0  0  0  0  0  0  0
  -29.5710  -18.6864   22.5527 C   0  0  0  0  0  0  0  0  0  0  0  0
  -24.5732  -11.6622   20.7427 C   0  0  0  0  0  0  0  0  0  0  0  0
  -25.2777  -13.7427   20.6426 C   0  0  0  0  0  0  0  0  0  0  0  0
  -22.9464  -13.5001   21.5114 C   0  0  0  0  0  0  0  0  0  0  0  0
  -27.0031  -22.7220   22.9087 C   0  0  0  0  0  0  0  0  0  0  0  0
  -27.4603  -21.5445   23.7204 C   0  0  0  0  0  0  0  0  0  0  0  0
  -24.9553  -30.6054   21.5653 C   0  0  0  0  0  0  0  0  0  0  0  0
  -23.1817  -30.5079   18.8511 C   0  0  0  0  0  0  0  0  0  0  0  0
  -22.2243  -28.7663   16.0767 C   0  0  0  0  0  0  0  0  0  0  0  0
  -30.7874  -14.6304   20.6577 C   0  0  0  0  0  0  0  0  0  0  0  0
  -26.6312  -34.1717   24.8103 C   0  0  0  0  0  0  0  0  0  0  0  0
  -26.6866  -29.9439   19.8562 C   0  0  0  0  0  0  0  0  0  0  0  0
  -24.2197  -28.3336   19.5996 C   0  0  0  0  0  0  0  0  0  0  0  0
  -25.4572  -34.0405   23.8434 C   0  0  0  0  0  0  0  0  0  0  0  0
  -29.4897  -12.4564   18.1544 C   0  0  0  0  0  0  0  0  0  0  0  0
  -24.7489  -32.7042   24.0421 C   0  0  0  0  0  0  0  0  0  0  0  0
  -28.0658  -12.1609   18.6289 C   0  0  0  0  0  0  0  0  0  0  0  0
  -30.4633  -12.5671   19.3256 C   0  0  0  0  0  0  0  0  0  0  0  0
  -28.6420  -13.2312   20.8473 C   0  0  0  0  0  0  0  0  0  0  0  0
  -25.6933  -31.5310   23.7538 C   0  0  1  0  0  0  0  0  0  0  0  0
  -25.3064  -30.5439   20.1056 C   0  0  1  0  0  0  0  0  0  0  0  0
  -27.6135  -13.1660   19.7053 C   0  0  2  0  0  0  0  0  0  0  0  0
  -30.5804  -15.8184   24.8166 C   0  0  0  0  0  0  0  0  0  0  0  0
  -20.7342  -28.9311   14.0643 C   0  0  0  0  0  0  0  0  0  0  0  0
  -20.7505  -29.9512   20.6088 C   0  0  0  0  0  0  0  0  0  0  0  0
  -19.5280  -29.1964   18.5584 C   0  0  0  0  0  0  0  0  0  0  0  0
  -20.3360  -31.5501   18.7310 C   0  0  0  0  0  0  0  0  0  0  0  0
  -24.5163  -28.5463   14.2173 C   0  0  0  0  0  0  0  0  0  0  0  0
  -30.9590  -16.6799   22.0466 C   0  0  0  0  0  0  0  0  0  0  0  0
  -26.1134  -22.4162   21.7239 C   0  0  0  0  0  0  0  0  0  0  0  0
  -25.7082  -23.6727   20.9681 C   0  0  0  0  0  0  0  0  0  1  0  0
  -22.0085  -29.6889   18.3694 C   0  0  1  0  0  0  0  0  0  0  0  0
  -22.1309  -29.1702   14.6164 C   0  0  2  0  0  0  0  0  0  0  0  0
  -20.6804  -30.0845   19.0744 C   0  0  0  0  0  0  0  0  0  0  0  0
  -25.8159  -11.5718   20.2616 N   0  0  0  0  0  0  0  0  0  0  0  0
  -26.2177  -12.8533   20.2120 N   0  0  0  0  0  0  0  0  0  0  0  0
  -24.2368  -29.7971   19.4403 N   0  0  0  0  0  0  0  0  0  0  0  0
  -29.9769  -13.5373   20.3095 N   0  0  0  0  0  0  0  0  0  0  0  0
  -25.5168  -15.0712   20.6592 N   0  0  0  0  0  0  0  0  0  0  0  0
  -21.9285  -12.5894   21.8257 N   0  0  0  0  0  0  0  0  0  0  0  0
  -28.2246  -20.6696   22.9789 N   0  0  0  0  0  0  0  0  0  0  0  0
  -25.8429  -31.3414   22.3269 N   0  0  0  0  0  0  0  0  0  0  0  0
  -21.9799  -29.8313   16.9178 N   0  0  0  0  0  0  0  0  0  0  0  0
  -30.2481  -15.5055   21.5926 N   0  0  0  0  0  0  0  0  0  0  0  0
  -23.0998  -28.3864   13.7992 N   0  3  0  0  0  0  0  0  0  0  0  0
  -22.7427  -14.7275   21.6706 O   0  0  0  0  0  0  0  0  0  0  0  0
  -27.3724  -23.8287   23.2713 O   0  0  0  0  0  0  0  0  0  0  0  0
  -27.1300  -21.5291   24.8945 O   0  0  0  0  0  0  0  0  0  0  0  0
  -23.9526  -30.0290   21.9704 O   0  0  0  0  0  0  0  0  0  0  0  0
  -23.1657  -31.7325   18.7033 O   0  0  0  0  0  0  0  0  0  0  0  0
  -22.4842  -27.6199   16.4354 O   0  0  0  0  0  0  0  0  0  0  0  0
  -31.9064  -14.8158   20.1674 O   0  0  0  0  0  0  0  0  0  0  0  0
  -21.5261   -7.0407   21.5327 O   0  0  0  0  0  0  0  0  0  0  0  0
  -26.8746  -24.3136   20.4535 O   0  0  0  0  0  0  0  0  0  1  0  0
  -23.9806   -2.7352   23.9498 F   0  0  0  0  0  0  0  0  0  0  0  0
  -29.0358  -17.4818   26.4669 F   0  0  0  0  0  0  0  0  0  0  0  0
  -20.5652   -6.0123   23.9121 F   0  0  0  0  0  0  0  0  0  0  0  0
  -29.7448  -19.0807   21.2819 F   0  0  0  0  0  0  0  0  0  0  0  0
  1  2  1  0  0  0  0
  1  5  2  0  0  0  0
  2  6  2  0  0  0  0
  3  8  2  0  0  0  0
  3 16  1  0  0  0  0
  4  9  1  0  0  0  0
  4 16  2  0  0  0  0
  5 18  1  0  0  0  0
  6 20  1  0  0  0  0
  7 10  2  0  0  0  0
  7 19  1  0  0  0  0
  8 25  1  0  0  0  0
  9 25  2  0  0  0  0
 10 26  1  0  0  0  0
 11 12  2  0  0  0  0
 11 27  1  0  0  0  0
 12 28  1  0  0  0  0
 13 21  1  0  0  0  0
 13 26  2  0  0  0  0
 14 24  1  0  0  0  0
 14 29  2  0  0  0  0
 15 28  2  0  0  0  0
 15 30  1  0  0  0  0
 16 32  1  0  0  0  0
 17 32  1  0  0  0  0
 17 33  2  0  0  0  0
 17 34  1  0  0  0  0
 18 20  2  0  0  0  0
 18 41  1  0  0  0  0
 19 21  2  0  0  0  0
 19 42  1  0  0  0  0
 20 50  1  0  0  0  0
 21 43  1  0  0  0  0
 22 23  2  0  0  0  0
 22 29  1  0  0  0  0
 22 53  1  0  0  0  0
 23 31  1  0  0  0  0
 23 59  1  0  0  0  0
 24 31  2  0  0  0  0
 24 71  1  0  0  0  0
 25 83  1  0  0  0  0
 26 84  1  0  0  0  0
 27 30  2  0  0  0  0
 27 83  1  0  0  0  0
 28 85  1  0  0  0  0
 29 86  1  0  0  0  0
 30 87  1  0  0  0  0
 31 88  1  0  0  0  0
 32 65  2  0  0  0  0
 33 66  1  0  0  0  0
 33 69  1  0  0  0  0
 34 70  1  0  0  0  0
 34 76  2  0  0  0  0
 35 36  1  0  0  0  0
 35 60  1  0  0  0  0
 35 77  2  0  0  0  0
 36 71  1  0  0  0  0
 36 78  2  0  0  0  0
 37 51  1  0  0  0  0
 37 72  1  0  0  0  0
 37 79  2  0  0  0  0
 38 62  1  0  0  0  0
 38 67  1  0  0  0  0
 38 80  2  0  0  0  0
 39 63  1  0  0  0  0
 39 73  1  0  0  0  0
 39 81  2  0  0  0  0
 40 68  1  0  0  0  0
 40 74  1  0  0  0  0
 40 82  2  0  0  0  0
 41 44  1  0  0  0  0
 42 51  1  0  0  0  0
 43 67  1  0  0  0  0
 44 46  1  0  0  0  0
 45 47  1  0  0  0  0
 45 48  1  0  0  0  0
 46 50  1  0  0  0  0
 47 52  1  0  0  0  0
 48 68  1  0  0  0  0
 49 52  1  0  0  0  0
 49 68  1  0  0  0  0
 50 72  1  0  0  0  0
 51 67  1  0  0  0  0
 52 66  1  0  0  0  0
 54 63  1  0  0  0  0
 55 64  1  0  0  0  0
 56 64  1  0  0  0  0
 57 64  1  0  0  0  0
 58 75  1  0  0  0  0
 59 74  1  0  0  0  0
 60 61  1  0  0  0  0
 61 84  1  0  0  0  0
 62 64  1  0  0  0  0
 62 73  1  0  0  0  0
 63 75  1  0  0  0  0
 65 66  1  0  0  0  0
M  CHG  1  75   1
M  ISO  4  40 100  61 101  74 100  84 101
M  END
> <Batch ID>
0170

> <Smiles>
CNC(C)C(=O)NC(C(=O)N1Cc2cc([101O:1][101CH2:1]CC(=O)C(=O)Nc3cc(F)c(C)c(C[100NH:0][100C:0](=O)N4CCCC(n5nc(-c6ccc(Oc7ccc(F)cc7F)cc6)c(C(N)=O)c5N)C4)c3F)ccc2CC1C(=O)NC1CCCc2ccccc21)C(C)(C)C

> <Shape>
0.332

> <Color>
0.198

> <Negative vol penalty>
0.000

$$$$

  -OEChem-04052304203D

 86 94  0     1  0  0  0  0  0999 V2000
  -24.6772  -32.2172   14.2803 C   0  0  0  0  0  0  0  0  0  0  0  0
  -25.1756  -31.1292   14.9897 C   0  0  0  0  0  0  0  0  0  0  0  0
  -22.7076  -10.2811   20.1994 C   0  0  0  0  0  0  0  0  0  0  0  0
  -23.5632  -10.1153   22.4528 C   0  0  0  0  0  0  0  0  0  0  0  0
  -24.5382  -33.4537   14.9094 C   0  0  0  0  0  0  0  0  0  0  0  0
  -25.5364  -31.2773   16.3284 C   0  0  0  0  0  0  0  0  0  0  0  0
  -23.8612  -27.4755   19.2240 C   0  0  0  0  0  0  0  0  0  0  0  0
  -21.7751   -9.2824   20.4800 C   0  0  0  0  0  0  0  0  0  0  0  0
  -22.6307   -9.1167   22.7334 C   0  0  0  0  0  0  0  0  0  0  0  0
  -24.5702  -26.2761   19.1731 C   0  0  0  0  0  0  0  0  0  0  0  0
  -20.7144   -6.2718   23.9354 C   0  0  0  0  0  0  0  0  0  0  0  0
  -21.1609   -5.1419   24.6205 C   0  0  0  0  0  0  0  0  0  0  0  0
  -27.4857  -17.2313   15.6424 C   0  0  0  0  0  0  0  0  0  0  0  0
  -25.6899  -26.8578   21.2291 C   0  0  0  0  0  0  0  0  0  0  0  0
  -26.6153  -19.4037   16.2422 C   0  0  0  0  0  0  0  0  0  0  0  0
  -22.7196   -4.6749   22.8346 C   0  0  0  0  0  0  0  0  0  0  0  0
  -23.6017  -10.6975   21.1858 C   0  0  0  0  0  0  0  0  0  0  0  0
  -28.3033  -17.2468   16.7724 C   0  0  0  0  0  0  0  0  0  0  0  0
  -24.4006  -13.1170   21.0614 C   0  0  0  0  0  0  0  0  0  0  0  0
  -24.8885  -33.6146   16.2593 C   0  0  0  0  0  0  0  0  0  0  0  0
  -24.0695  -28.3815   20.2738 C   0  0  0  0  0  0  0  0  0  0  0  0
  -25.4033  -32.5174   16.9759 C   0  0  0  0  0  0  0  0  0  0  0  0
  -24.9804  -28.0668   21.2923 C   0  0  0  0  0  0  0  0  0  0  0  0
  -28.2768  -18.3408   17.6373 C   0  0  0  0  0  0  0  0  0  0  0  0
  -27.4328  -19.4193   17.3723 C   0  0  0  0  0  0  0  0  0  0  0  0
  -21.7366   -8.7002   21.7470 C   0  0  0  0  0  0  0  0  0  0  0  0
  -25.4869  -25.9685   20.1741 C   0  0  0  0  0  0  0  0  0  0  0  0
  -21.2705   -6.6033   22.6998 C   0  0  0  0  0  0  0  0  0  0  0  0
  -22.1635   -4.3434   24.0702 C   0  0  0  0  0  0  0  0  0  0  0  0
  -26.6417  -18.3098   15.3772 C   0  0  0  0  0  0  0  0  0  0  0  0
  -22.2731   -5.8049   22.1494 C   0  0  0  0  0  0  0  0  0  0  0  0
  -24.5655  -11.7287   20.8964 C   0  0  0  0  0  0  0  0  0  0  0  0
  -25.5946  -13.6560   20.6486 C   0  0  0  0  0  0  0  0  0  0  0  0
  -29.1842  -16.0927   17.0248 C   0  0  0  0  0  0  0  0  0  0  0  0
  -23.2694  -13.8535   21.5446 C   0  0  0  0  0  0  0  0  0  0  0  0
  -25.1175  -31.3754   20.4783 C   0  0  0  0  0  0  0  0  0  0  0  0
  -26.7485  -22.6674   19.1226 C   0  0  0  0  0  0  0  0  0  0  0  0
  -24.2891  -31.0402   23.5966 C   0  0  0  0  0  0  0  0  0  0  0  0
  -23.7207  -28.9513   26.2349 C   0  0  0  0  0  0  0  0  0  0  0  0
  -29.7405  -13.8633   16.9174 C   0  0  0  0  0  0  0  0  0  0  0  0
  -24.7650  -34.9822   16.8832 C   0  0  0  0  0  0  0  0  0  0  0  0
  -23.2771  -29.6588   20.3284 C   0  0  0  0  0  0  0  0  0  0  0  0
  -25.2258  -28.9963   22.4518 C   0  0  0  0  0  0  0  0  0  0  0  0
  -24.8182  -34.9627   18.4087 C   0  0  0  0  0  0  0  0  0  0  0  0
  -30.0221  -11.4646   19.5955 C   0  0  0  0  0  0  0  0  0  0  0  0
  -25.9683  -34.0848   18.8916 C   0  0  0  0  0  0  0  0  0  0  0  0
  -28.6036  -11.4092   20.1623 C   0  0  0  0  0  0  0  0  0  0  0  0
  -30.0135  -11.6754   18.0845 C   0  0  0  0  0  0  0  0  0  0  0  0
  -27.8213  -12.8270   18.2136 C   0  0  0  0  0  0  0  0  0  0  0  0
  -25.7823  -32.6323   18.4365 C   0  0  1  0  0  0  0  0  0  0  0  0
  -23.9451  -30.7407   21.1714 C   0  0  1  0  0  0  0  0  0  0  0  0
  -27.7911  -12.6466   19.7409 C   0  0  1  0  0  0  0  0  0  0  0  0
  -30.3754  -19.2498   18.6651 C   0  0  0  0  0  0  0  0  0  0  0  0
  -23.0953  -28.9725   28.6651 C   0  0  0  0  0  0  0  0  0  0  0  0
  -27.1172  -31.9331   24.3142 C   0  0  0  0  0  0  0  0  0  0  0  0
  -26.7399  -31.0367   26.6212 C   0  0  0  0  0  0  0  0  0  0  0  0
  -25.3198  -32.8983   25.7607 C   0  0  0  0  0  0  0  0  0  0  0  0
  -21.2592  -27.3864   25.7344 C   0  0  0  0  0  0  0  0  0  0  0  0
  -29.1542  -18.3564   18.8502 C   0  0  0  0  0  0  0  0  0  0  0  0
  -26.5451  -21.6627   18.0085 C   0  0  0  0  0  0  0  0  0  0  0  0
  -25.9200  -23.9334   19.0223 C   0  0  0  0  0  0  0  0  0  1  0  0
  -24.9930  -30.5647   24.8446 C   0  0  1  0  0  0  0  0  0  0  0  0
  -22.5822  -28.8804   27.2364 C   0  0  2  0  0  0  0  0  0  0  0  0
  -26.0395  -31.5914   25.3624 C   0  0  0  0  0  0  0  0  0  0  0  0
  -25.7693  -11.4059   20.4161 N   0  0  0  0  0  0  0  0  0  0  0  0
  -28.8663  -14.8983   16.6457 N   0  0  0  0  0  0  0  0  0  0  0  0
  -26.3716  -12.5990   20.2756 N   0  0  0  0  0  0  0  0  0  0  0  0
  -24.4313  -30.2358   22.4571 N   0  0  0  0  0  0  0  0  0  0  0  0
  -29.2048  -12.8396   17.7203 N   0  0  0  0  0  0  0  0  0  0  0  0
  -26.0450  -14.9263   20.5717 N   0  0  0  0  0  0  0  0  0  0  0  0
  -22.1233  -13.1430   21.9267 N   0  0  0  0  0  0  0  0  0  0  0  0
  -27.3916  -20.5165   18.2205 N   0  0  0  0  0  0  0  0  0  0  0  0
  -24.8044  -31.9634   19.2677 N   0  0  0  0  0  0  0  0  0  0  0  0
  -23.9448  -30.2428   25.8069 N   0  0  0  0  0  0  0  0  0  0  0  0
  -21.8389  -27.5975   27.0858 N   0  3  0  0  0  0  0  0  0  0  0  0
  -23.2689  -15.1056   21.6194 O   0  0  0  0  0  0  0  0  0  0  0  0
  -26.2238  -31.3359   21.0037 O   0  0  0  0  0  0  0  0  0  0  0  0
  -27.5318  -22.4799   20.0527 O   0  0  0  0  0  0  0  0  0  0  0  0
  -23.6313  -32.0830   23.6335 O   0  0  0  0  0  0  0  0  0  0  0  0
  -24.3509  -27.9607   25.8716 O   0  0  0  0  0  0  0  0  0  0  0  0
  -30.8991  -13.8139   16.4977 O   0  0  0  0  0  0  0  0  0  0  0  0
  -20.8266   -7.7259   22.0212 O   0  0  0  0  0  0  0  0  0  0  0  0
  -26.1808  -24.7988   20.1265 O   0  0  0  0  0  0  0  0  0  1  0  0
  -22.5933   -3.2592   24.7290 F   0  0  0  0  0  0  0  0  0  0  0  0
  -25.8560  -18.2945   14.2925 F   0  0  0  0  0  0  0  0  0  0  0  0
  -22.8119   -6.1189   20.9633 F   0  0  0  0  0  0  0  0  0  0  0  0
  1  2  1  0  0  0  0
  1  5  2  0  0  0  0
  2  6  2  0  0  0  0
  3  8  2  0  0  0  0
  3 17  1  0  0  0  0
  4  9  1  0  0  0  0
  4 17  2  0  0  0  0
  5 20  1  0  0  0  0
  6 22  1  0  0  0  0
  7 10  2  0  0  0  0
  7 21  1  0  0  0  0
  8 26  1  0  0  0  0
  9 26  2  0  0  0  0
 10 27  1  0  0  0  0
 11 12  2  0  0  0  0
 11 28  1  0  0  0  0
 12 29  1  0  0  0  0
 13 18  2  0  0  0  0
 13 30  1  0  0  0  0
 14 23  1  0  0  0  0
 14 27  2  0  0  0  0
 15 25  1  0  0  0  0
 15 30  2  0  0  0  0
 16 29  2  0  0  0  0
 16 31  1  0  0  0  0
 17 32  1  0  0  0  0
 18 24  1  0  0  0  0
 18 34  1  0  0  0  0
 19 32  1  0  0  0  0
 19 33  2  0  0  0  0
 19 35  1  0  0  0  0
 20 22  2  0  0  0  0
 20 41  1  0  0  0  0
 21 23  2  0  0  0  0
 21 42  1  0  0  0  0
 22 50  1  0  0  0  0
 23 43  1  0  0  0  0
 24 25  2  0  0  0  0
 24 59  1  0  0  0  0
 25 72  1  0  0  0  0
 26 82  1  0  0  0  0
 27 83  1  0  0  0  0
 28 31  2  0  0  0  0
 28 82  1  0  0  0  0
 29 84  1  0  0  0  0
 30 85  1  0  0  0  0
 31 86  1  0  0  0  0
 32 65  2  0  0  0  0
 33 67  1  0  0  0  0
 33 70  1  0  0  0  0
 34 66  2  0  0  0  0
 35 71  1  0  0  0  0
 35 76  2  0  0  0  0
 36 51  1  0  0  0  0
 36 73  1  0  0  0  0
 36 77  2  0  0  0  0
 37 60  1  0  0  0  0
 37 61  1  0  0  0  0
 37 78  2  0  0  0  0
 38 62  1  0  0  0  0
 38 68  1  0  0  0  0
 38 79  2  0  0  0  0
 39 63  1  0  0  0  0
 39 74  1  0  0  0  0
 39 80  2  0  0  0  0
 40 66  1  0  0  0  0
 40 69  1  0  0  0  0
 40 81  2  0  0  0  0
 41 44  1  0  0  0  0
 42 51  1  0  0  0  0
 43 68  1  0  0  0  0
 44 46  1  0  0  0  0
 45 47  1  0  0  0  0
 45 48  1  0  0  0  0
 46 50  1  0  0  0  0
 47 52  1  0  0  0  0
 48 69  1  0  0  0  0
 49 52  1  0  0  0  0
 49 69  1  0  0  0  0
 50 73  1  0  0  0  0
 51 68  1  0  0  0  0
 52 67  1  0  0  0  0
 53 59  1  0  0  0  0
 54 63  1  0  0  0  0
 55 64  1  0  0  0  0
 56 64  1  0  0  0  0
 57 64  1  0  0  0  0
 58 75  1  0  0  0  0
 60 72  1  0  0  0  0
 61 83  1  0  0  0  0
 62 64  1  0  0  0  0
 62 74  1  0  0  0  0
 63 75  1  0  0  0  0
 65 67  1  0  0  0  0
M  CHG  1  75   1
M  ISO  4  40 100  61 101  66 100  83 101
M  END
> <Batch ID>
0170

> <Smiles>
CCc1c(C=[100N:0][100C:0](=O)N2CCCC(n3nc(-c4ccc(Oc5ccc(F)cc5F)cc4)c(C(N)=O)c3N)C2)cc(F)cc1NCC(=O)[101CH2:1][101O:1]c1ccc2c(c1)CN(C(=O)C(NC(=O)C(C)NC)C(C)(C)C)C(C(=O)NC1CCCc3ccccc31)C2

> <Shape>
0.277

> <Color>
0.168

> <Negative vol penalty>
0.000

$$$$

  -OEChem-04052304203D

 86 94  0     1  0  0  0  0  0999 V2000
  -22.6899   -7.8765   21.2563 C   0  0  0  0  0  0  0  0  0  0  0  0
  -23.7722   -8.7324   21.0785 C   0  0  0  0  0  0  0  0  0  0  0  0
  -25.1085  -31.0230   21.0718 C   0  0  0  0  0  0  0  0  0  0  0  0
  -24.4517  -29.4900   22.8198 C   0  0  0  0  0  0  0  0  0  0  0  0
  -29.3703  -19.5741   17.9744 C   0  0  0  0  0  0  0  0  0  0  0  0
  -21.3916   -8.3846   21.2446 C   0  0  0  0  0  0  0  0  0  0  0  0
  -23.5566  -10.0968   20.8879 C   0  0  0  0  0  0  0  0  0  0  0  0
  -26.6916  -12.9627   23.6453 C   0  0  0  0  0  0  0  0  0  0  0  0
  -24.5039  -32.0719   21.7645 C   0  0  0  0  0  0  0  0  0  0  0  0
  -23.8470  -30.5389   23.5125 C   0  0  0  0  0  0  0  0  0  0  0  0
  -27.9965  -13.1108   23.1772 C   0  0  0  0  0  0  0  0  0  0  0  0
  -25.2286  -34.0613   24.4008 C   0  0  0  0  0  0  0  0  0  0  0  0
  -28.8030  -20.3117   16.9353 C   0  0  0  0  0  0  0  0  0  0  0  0
  -25.9363  -35.2582   24.5114 C   0  0  0  0  0  0  0  0  0  0  0  0
  -27.4188  -15.2691   22.2675 C   0  0  0  0  0  0  0  0  0  0  0  0
  -24.1565  -36.4170   23.3596 C   0  0  0  0  0  0  0  0  0  0  0  0
  -25.0824  -29.7320   21.5995 C   0  0  0  0  0  0  0  0  0  0  0  0
  -28.8621  -19.6873   19.2685 C   0  0  0  0  0  0  0  0  0  0  0  0
  -27.0387  -28.2086   20.9998 C   0  0  0  0  0  0  0  0  0  0  0  0
  -21.1605   -9.7573   21.0634 C   0  0  0  0  0  0  0  0  0  0  0  0
  -25.7360  -13.9636   23.4182 C   0  0  0  0  0  0  0  0  0  0  0  0
  -22.2539  -10.6235   20.8725 C   0  0  0  0  0  0  0  0  0  0  0  0
  -26.1031  -15.1324   22.7360 C   0  0  0  0  0  0  0  0  0  0  0  0
  -27.2195  -21.2760   18.4844 C   0  0  0  0  0  0  0  0  0  0  0  0
  -23.8731  -31.8299   22.9848 C   0  0  0  0  0  0  0  0  0  0  0  0
  -28.3595  -14.2628   22.4857 C   0  0  0  0  0  0  0  0  0  0  0  0
  -23.9849  -34.0422   23.7695 C   0  0  0  0  0  0  0  0  0  0  0  0
  -25.4002  -36.4360   23.9908 C   0  0  0  0  0  0  0  0  0  0  0  0
  -27.7276  -21.1627   17.1903 C   0  0  0  0  0  0  0  0  0  0  0  0
  -23.4488  -35.2200   23.2489 C   0  0  0  0  0  0  0  0  0  0  0  0
  -27.7868  -20.5383   19.5235 C   0  0  0  0  0  0  0  0  0  0  0  0
  -25.7063  -28.6480   20.8842 C   0  0  0  0  0  0  0  0  0  0  0  0
  -27.1326  -27.1606   20.1171 C   0  0  0  0  0  0  0  0  0  0  0  0
  -29.4656  -18.9049   20.3667 C   0  0  0  0  0  0  0  0  0  0  0  0
  -28.0970  -28.7036   21.8310 C   0  0  0  0  0  0  0  0  0  0  0  0
  -22.9698  -14.1116   21.8594 C   0  0  0  0  0  0  0  0  0  0  0  0
  -22.8382  -17.0776   23.1662 C   0  0  0  0  0  0  0  0  0  0  0  0
  -24.5178  -19.7390   24.4863 C   0  0  0  0  0  0  0  0  0  0  0  0
  -29.9975  -16.6368   21.2321 C   0  0  0  0  0  0  0  0  0  0  0  0
  -25.1003  -22.4903   17.8673 C   0  0  0  0  0  0  0  0  0  0  0  0
  -19.7371  -10.2531   21.0111 C   0  0  0  0  0  0  0  0  0  0  0  0
  -24.3397  -13.8004   23.9529 C   0  0  0  0  0  0  0  0  0  0  0  0
  -25.1201  -16.2453   22.4838 C   0  0  0  0  0  0  0  0  0  0  0  0
  -19.6124  -11.7654   21.1775 C   0  0  0  0  0  0  0  0  0  0  0  0
  -23.9291  -25.5764   16.5324 C   0  0  0  0  0  0  0  0  0  0  0  0
  -20.6271  -12.4850   20.2947 C   0  0  0  0  0  0  0  0  0  0  0  0
  -24.3967  -26.6145   17.5551 C   0  0  0  0  0  0  0  0  0  0  0  0
  -23.5008  -24.2724   17.2031 C   0  0  0  0  0  0  0  0  0  0  0  0
  -24.9619  -24.7243   19.1346 C   0  0  0  0  0  0  0  0  0  0  0  0
  -22.0619  -12.1132   20.6876 C   0  0  1  0  0  0  0  0  0  0  0  0
  -23.3140  -14.6567   23.2166 C   0  0  1  0  0  0  0  0  0  0  0  0
  -25.4647  -26.0319   18.5014 C   0  0  2  0  0  0  0  0  0  0  0  0
  -24.1424  -22.0332   25.4314 C   0  0  0  0  0  0  0  0  0  0  0  0
  -31.0310  -14.6635   20.1073 C   0  0  0  0  0  0  0  0  0  0  0  0
  -22.3926  -18.1625   20.3494 C   0  0  0  0  0  0  0  0  0  0  0  0
  -22.9718  -20.4409   21.2105 C   0  0  0  0  0  0  0  0  0  0  0  0
  -20.9842  -19.2356   22.1155 C   0  0  0  0  0  0  0  0  0  0  0  0
  -25.6645  -18.9742   27.1053 C   0  0  0  0  0  0  0  0  0  0  0  0
  -23.3031  -18.4517   22.7480 C   0  0  1  0  0  0  0  0  0  0  0  0
  -24.2851  -20.5523   25.7468 C   0  0  2  0  0  0  0  0  0  0  0  0
  -29.8107  -15.1867   20.8435 C   0  0  1  0  0  0  0  0  0  1  0  0
  -22.4312  -19.0510   21.6088 C   0  0  0  0  0  0  0  0  0  0  0  0
  -25.0041  -27.9373   19.9977 N   0  0  0  0  0  0  0  0  0  0  0  0
  -25.8988  -27.0408   19.5483 N   0  0  0  0  0  0  0  0  0  0  0  0
  -23.7654  -16.0359   23.0208 N   0  0  0  0  0  0  0  0  0  0  0  0
  -24.5637  -23.7777   18.0809 N   0  0  0  0  0  0  0  0  0  0  0  0
  -28.1493  -26.3391   19.7797 N   0  0  0  0  0  0  0  0  0  0  0  0
  -27.8294  -29.7867   22.6793 N   0  0  0  0  0  0  0  0  0  0  0  0
  -26.1277  -22.1413   18.7432 N   0  0  0  0  0  0  0  0  0  0  0  0
  -29.4591  -17.5685   20.2674 N   0  0  0  0  0  0  0  0  0  0  0  0
  -22.4602  -12.8273   21.8817 N   0  0  0  0  0  0  0  0  0  0  0  0
  -23.3360  -19.2587   23.9629 N   0  0  0  0  0  0  0  0  0  0  0  0
  -29.9817  -19.5762   21.3957 N   0  3  0  0  0  0  0  0  0  0  0  0
  -25.4247  -20.3807   26.6917 N   0  3  0  0  0  0  0  0  0  0  0  0
  -29.2504  -28.2109   21.8097 O   0  0  0  0  0  0  0  0  0  0  0  0
  -23.1516  -14.8053   20.8658 O   0  0  0  0  0  0  0  0  0  0  0  0
  -21.6970  -16.9350   23.6123 O   0  0  0  0  0  0  0  0  0  0  0  0
  -25.6358  -19.5519   24.0112 O   0  0  0  0  0  0  0  0  0  0  0  0
  -30.5272  -17.0206   22.2658 O   0  0  0  0  0  0  0  0  0  0  0  0
  -24.6980  -21.7626   16.9559 O   0  0  0  0  0  0  0  0  0  0  0  0
  -23.2832  -32.8532   23.6611 O   0  0  0  0  0  0  0  0  0  0  0  0
  -29.6323  -14.4097   22.0271 O   0  0  0  0  0  0  0  0  0  1  0  0
  -26.0792  -37.5856   24.0985 F   0  0  0  0  0  0  0  0  0  0  0  0
  -27.1903  -21.8667   16.1837 F   0  0  0  0  0  0  0  0  0  0  0  0
  -22.2539  -35.2081   22.6424 F   0  0  0  0  0  0  0  0  0  0  0  0
  -27.2999  -20.6467   20.7692 F   0  0  0  0  0  0  0  0  0  0  0  0
  1  2  1  0  0  0  0
  1  6  2  0  0  0  0
  2  7  2  0  0  0  0
  3  9  2  0  0  0  0
  3 17  1  0  0  0  0
  4 10  1  0  0  0  0
  4 17  2  0  0  0  0
  5 13  2  0  0  0  0
  5 18  1  0  0  0  0
  6 20  1  0  0  0  0
  7 22  1  0  0  0  0
  8 11  2  0  0  0  0
  8 21  1  0  0  0  0
  9 25  1  0  0  0  0
 10 25  2  0  0  0  0
 11 26  1  0  0  0  0
 12 14  2  0  0  0  0
 12 27  1  0  0  0  0
 13 29  1  0  0  0  0
 14 28  1  0  0  0  0
 15 23  1  0  0  0  0
 15 26  2  0  0  0  0
 16 28  2  0  0  0  0
 16 30  1  0  0  0  0
 17 32  1  0  0  0  0
 18 31  2  0  0  0  0
 18 34  1  0  0  0  0
 19 32  1  0  0  0  0
 19 33  2  0  0  0  0
 19 35  1  0  0  0  0
 20 22  2  0  0  0  0
 20 41  1  0  0  0  0
 21 23  2  0  0  0  0
 21 42  1  0  0  0  0
 22 50  1  0  0  0  0
 23 43  1  0  0  0  0
 24 29  2  0  0  0  0
 24 31  1  0  0  0  0
 24 69  1  0  0  0  0
 25 81  1  0  0  0  0
 26 82  1  0  0  0  0
 27 30  2  0  0  0  0
 27 81  1  0  0  0  0
 28 83  1  0  0  0  0
 29 84  1  0  0  0  0
 30 85  1  0  0  0  0
 31 86  1  0  0  0  0
 32 63  2  0  0  0  0
 33 64  1  0  0  0  0
 33 67  1  0  0  0  0
 34 70  1  0  0  0  0
 34 73  2  0  0  0  0
 35 68  1  0  0  0  0
 35 75  2  0  0  0  0
 36 51  1  0  0  0  0
 36 71  1  0  0  0  0
 36 76  2  0  0  0  0
 37 59  1  0  0  0  0
 37 65  1  0  0  0  0
 37 77  2  0  0  0  0
 38 60  1  0  0  0  0
 38 72  1  0  0  0  0
 38 78  2  0  0  0  0
 39 61  1  0  0  0  0
 39 70  1  0  0  0  0
 39 79  2  0  0  0  0
 40 66  1  0  0  0  0
 40 69  1  0  0  0  0
 40 80  2  0  0  0  0
 41 44  1  0  0  0  0
 42 51  1  0  0  0  0
 43 65  1  0  0  0  0
 44 46  1  0  0  0  0
 45 47  1  0  0  0  0
 45 48  1  0  0  0  0
 46 50  1  0  0  0  0
 47 52  1  0  0  0  0
 48 66  1  0  0  0  0
 49 52  1  0  0  0  0
 49 66  1  0  0  0  0
 50 71  1  0  0  0  0
 51 65  1  0  0  0  0
 52 64  1  0  0  0  0
 53 60  1  0  0  0  0
 54 61  1  0  0  0  0
 55 62  1  0  0  0  0
 56 62  1  0  0  0  0
 57 62  1  0  0  0  0
 58 74  1  0  0  0  0
 59 62  1  0  0  0  0
 59 72  1  0  0  0  0
 60 74  1  0  0  0  0
 61 82  1  0  0  0  0
 63 64  1  0  0  0  0
M  CHG  2  73   1  74   1
M  ISO  4  40 100  61 101  69 100  82 101
M  END
> <Batch ID>
0170

> <Smiles>
CNC(C)C(=O)NC(C(=O)N1Cc2cc([101O:1][101CH:1](C)C(=O)NC(=N)c3ccc(F)c([100NH:0][100C:0](=O)N4CCCC(n5nc(-c6ccc(Oc7ccc(F)cc7F)cc6)c(C(N)=O)c5N)C4)c3F)ccc2CC1C(=O)NC1CCCc2ccccc21)C(C)(C)C

> <Shape>
0.234

> <Color>
0.079

> <Negative vol penalty>
0.000

$$$$

  -OEChem-04052304203D

 84 92  0     1  0  0  0  0  0999 V2000
  -37.6022  -27.6811   33.3648 C   0  0  0  0  0  0  0  0  0  0  0  0
  -36.5143  -27.1164   32.7069 C   0  0  0  0  0  0  0  0  0  0  0  0
  -23.0749   -9.8660   19.9417 C   0  0  0  0  0  0  0  0  0  0  0  0
  -23.8343   -9.8757   22.2353 C   0  0  0  0  0  0  0  0  0  0  0  0
  -38.7446  -28.0318   32.6465 C   0  0  0  0  0  0  0  0  0  0  0  0
  -36.5677  -26.9029   31.3299 C   0  0  0  0  0  0  0  0  0  0  0  0
  -34.0307  -22.2769   28.2205 C   0  0  0  0  0  0  0  0  0  0  0  0
  -22.3314   -8.7129   20.1928 C   0  0  0  0  0  0  0  0  0  0  0  0
  -23.0907   -8.7226   22.4863 C   0  0  0  0  0  0  0  0  0  0  0  0
  -32.8447  -22.1733   27.4948 C   0  0  0  0  0  0  0  0  0  0  0  0
  -19.8626   -7.9244   23.0890 C   0  0  0  0  0  0  0  0  0  0  0  0
  -19.1054   -7.8855   24.2597 C   0  0  0  0  0  0  0  0  0  0  0  0
  -34.0558  -22.6366   25.4607 C   0  0  0  0  0  0  0  0  0  0  0  0
  -20.3473   -5.9493   24.9986 C   0  0  0  0  0  0  0  0  0  0  0  0
  -23.8264  -10.4474   20.9630 C   0  0  0  0  0  0  0  0  0  0  0  0
  -24.1675  -12.9725   20.8403 C   0  0  0  0  0  0  0  0  0  0  0  0
  -38.8157  -27.8137   31.2615 C   0  0  0  0  0  0  0  0  0  0  0  0
  -35.2384  -22.5724   27.5719 C   0  0  0  0  0  0  0  0  0  0  0  0
  -37.7115  -27.2523   30.5922 C   0  0  0  0  0  0  0  0  0  0  0  0
  -35.2562  -22.7408   26.1800 C   0  0  0  0  0  0  0  0  0  0  0  0
  -22.3392   -8.1412   21.4651 C   0  0  0  0  0  0  0  0  0  0  0  0
  -32.8567  -22.3560   26.1151 C   0  0  0  0  0  0  0  0  0  0  0  0
  -20.8621   -6.9757   22.8729 C   0  0  0  0  0  0  0  0  0  0  0  0
  -19.3477   -6.8980   25.2146 C   0  0  0  0  0  0  0  0  0  0  0  0
  -21.1045   -5.9881   23.8278 C   0  0  0  0  0  0  0  0  0  0  0  0
  -24.5952  -11.6382   20.7041 C   0  0  0  0  0  0  0  0  0  0  0  0
  -31.8077  -18.7292   22.2439 C   0  0  0  0  0  0  0  0  0  0  0  0
  -25.2595  -13.7219   20.4764 C   0  0  0  0  0  0  0  0  0  0  0  0
  -30.7059  -19.0968   22.9874 C   0  0  0  0  0  0  0  0  0  0  0  0
  -30.5699  -16.9516   21.9002 C   0  0  0  0  0  0  0  0  0  0  0  0
  -22.8968  -13.4884   21.2584 C   0  0  0  0  0  0  0  0  0  0  0  0
  -37.3455  -24.9471   27.7277 C   0  0  0  0  0  0  0  0  0  0  0  0
  -39.0380  -23.0583   25.7053 C   0  0  0  0  0  0  0  0  0  0  0  0
  -29.2519  -20.5179   24.4754 C   0  0  0  0  0  0  0  0  0  0  0  0
  -39.0234  -20.5671   23.3728 C   0  0  0  0  0  0  0  0  0  0  0  0
  -30.7254  -14.7693   20.6513 C   0  0  0  0  0  0  0  0  0  0  0  0
  -40.0535  -28.2527   30.5201 C   0  0  0  0  0  0  0  0  0  0  0  0
  -36.5135  -22.6544   28.3655 C   0  0  0  0  0  0  0  0  0  0  0  0
  -36.5298  -23.0397   25.4336 C   0  0  0  0  0  0  0  0  0  0  0  0
  -40.1733  -27.6485   29.1234 C   0  0  0  0  0  0  0  0  0  0  0  0
  -29.6122  -12.3527   18.2853 C   0  0  0  0  0  0  0  0  0  0  0  0
  -38.8468  -27.7587   28.3785 C   0  0  0  0  0  0  0  0  0  0  0  0
  -28.1725  -12.0612   18.7148 C   0  0  0  0  0  0  0  0  0  0  0  0
  -30.5270  -12.5830   19.4869 C   0  0  0  0  0  0  0  0  0  0  0  0
  -28.6195  -13.3084   20.8670 C   0  0  0  0  0  0  0  0  0  0  0  0
  -37.7408  -26.9823   29.1034 C   0  0  1  0  0  0  0  0  0  0  0  0
  -37.5999  -23.4675   27.6684 C   0  0  1  0  0  0  0  0  0  0  0  0
  -27.6470  -13.1336   19.6892 C   0  0  2  0  0  0  0  0  0  0  0  0
  -34.2058  -19.0196   22.9157 C   0  0  0  0  0  0  0  0  0  0  0  0
  -28.0194  -22.1495   25.9132 C   0  0  0  0  0  0  0  0  0  0  0  0
  -40.5558  -19.2659   21.8708 C   0  0  0  0  0  0  0  0  0  0  0  0
  -39.2230  -25.4531   23.8235 C   0  0  0  0  0  0  0  0  0  0  0  0
  -39.8960  -23.8778   21.9976 C   0  0  0  0  0  0  0  0  0  0  0  0
  -41.3291  -24.1195   24.0250 C   0  0  0  0  0  0  0  0  0  0  0  0
  -38.3167  -18.0062   24.6772 C   0  0  0  0  0  0  0  0  0  0  0  0
  -33.0388  -19.5255   22.0621 C   0  0  0  0  0  0  0  0  0  0  0  0
  -30.5115  -21.9617   26.1368 C   0  0  0  0  0  0  0  0  0  1  0  0
  -39.1208  -22.9017   24.2061 C   0  0  1  0  0  0  0  0  0  0  0  0
  -29.3279  -21.8851   25.1693 C   0  0  1  0  0  0  0  0  0  0  0  0
  -39.8729  -19.3172   23.2286 C   0  0  2  0  0  0  0  0  0  0  0  0
  -39.8677  -24.0843   23.5271 C   0  0  0  0  0  0  0  0  0  0  0  0
  -25.8602  -11.5423   20.2862 N   0  0  0  0  0  0  0  0  0  0  0  0
  -31.7317  -17.4992   21.6200 N   0  0  0  0  0  0  0  0  0  0  0  0
  -26.2367  -12.8259   20.1566 N   0  0  0  0  0  0  0  0  0  0  0  0
  -37.7494  -23.1162   26.2547 N   0  0  0  0  0  0  0  0  0  0  0  0
  -29.9675  -13.6146   20.3631 N   0  0  0  0  0  0  0  0  0  0  0  0
  -25.4695  -15.0534   20.4020 N   0  0  0  0  0  0  0  0  0  0  0  0
  -21.8851  -12.5793   21.5964 N   0  0  0  0  0  0  0  0  0  0  0  0
  -30.4115  -20.2507   23.7524 N   0  0  0  0  0  0  0  0  0  0  0  0
  -30.0776  -15.6950   21.4687 N   0  0  0  0  0  0  0  0  0  0  0  0
  -37.8688  -25.5635   28.8483 N   0  0  0  0  0  0  0  0  0  0  0  0
  -39.7250  -21.5960   23.9648 N   0  0  0  0  0  0  0  0  0  0  0  0
  -39.0293  -18.0977   23.3769 N   0  3  0  0  0  0  0  0  0  0  0  0
  -22.6601  -14.7190   21.3143 O   0  0  0  0  0  0  0  0  0  0  0  0
  -36.7220  -25.4897   26.8229 O   0  0  0  0  0  0  0  0  0  0  0  0
  -40.0783  -23.1196   26.3653 O   0  0  0  0  0  0  0  0  0  0  0  0
  -28.2621  -19.7986   24.5749 O   0  0  0  0  0  0  0  0  0  0  0  0
  -37.8556  -20.6260   22.9945 O   0  0  0  0  0  0  0  0  0  0  0  0
  -31.8545  -14.9379   20.1838 O   0  0  0  0  0  0  0  0  0  0  0  0
  -21.6135   -7.0161   21.7104 O   0  0  0  0  0  0  0  0  0  0  0  0
  -31.7004  -22.2560   25.4046 O   0  0  0  0  0  0  0  0  0  1  0  0
  -18.6216   -6.8617   26.3395 F   0  0  0  0  0  0  0  0  0  0  0  0
  -22.0641   -5.0747   23.6263 F   0  0  0  0  0  0  0  0  0  0  0  0
  -29.5197  -17.8608   22.9078 S   0  0  0  0  0  0  0  0  0  0  0  0
  1  2  1  0  0  0  0
  1  5  2  0  0  0  0
  2  6  2  0  0  0  0
  3  8  2  0  0  0  0
  3 15  1  0  0  0  0
  4  9  1  0  0  0  0
  4 15  2  0  0  0  0
  5 17  1  0  0  0  0
  6 19  1  0  0  0  0
  7 10  2  0  0  0  0
  7 18  1  0  0  0  0
  8 21  1  0  0  0  0
  9 21  2  0  0  0  0
 10 22  1  0  0  0  0
 11 12  2  0  0  0  0
 11 23  1  0  0  0  0
 12 24  1  0  0  0  0
 13 20  1  0  0  0  0
 13 22  2  0  0  0  0
 14 24  2  0  0  0  0
 14 25  1  0  0  0  0
 15 26  1  0  0  0  0
 16 26  1  0  0  0  0
 16 28  2  0  0  0  0
 16 31  1  0  0  0  0
 17 19  2  0  0  0  0
 17 37  1  0  0  0  0
 18 20  2  0  0  0  0
 18 38  1  0  0  0  0
 19 46  1  0  0  0  0
 20 39  1  0  0  0  0
 21 80  1  0  0  0  0
 22 81  1  0  0  0  0
 23 25  2  0  0  0  0
 23 80  1  0  0  0  0
 24 82  1  0  0  0  0
 25 83  1  0  0  0  0
 26 62  2  0  0  0  0
 27 29  2  0  0  0  0
 27 56  1  0  0  0  0
 27 63  1  0  0  0  0
 28 64  1  0  0  0  0
 28 67  1  0  0  0  0
 29 69  1  0  0  0  0
 29 84  1  0  0  0  0
 30 63  2  0  0  0  0
 30 70  1  0  0  0  0
 30 84  1  0  0  0  0
 31 68  1  0  0  0  0
 31 74  2  0  0  0  0
 32 47  1  0  0  0  0
 32 71  1  0  0  0  0
 32 75  2  0  0  0  0
 33 58  1  0  0  0  0
 33 65  1  0  0  0  0
 33 76  2  0  0  0  0
 34 59  1  0  0  0  0
 34 69  1  0  0  0  0
 34 77  2  0  0  0  0
 35 60  1  0  0  0  0
 35 72  1  0  0  0  0
 35 78  2  0  0  0  0
 36 66  1  0  0  0  0
 36 70  1  0  0  0  0
 36 79  2  0  0  0  0
 37 40  1  0  0  0  0
 38 47  1  0  0  0  0
 39 65  1  0  0  0  0
 40 42  1  0  0  0  0
 41 43  1  0  0  0  0
 41 44  1  0  0  0  0
 42 46  1  0  0  0  0
 43 48  1  0  0  0  0
 44 66  1  0  0  0  0
 45 48  1  0  0  0  0
 45 66  1  0  0  0  0
 46 71  1  0  0  0  0
 47 65  1  0  0  0  0
 48 64  1  0  0  0  0
 49 56  1  0  0  0  0
 50 59  1  0  0  0  0
 51 60  1  0  0  0  0
 52 61  1  0  0  0  0
 53 61  1  0  0  0  0
 54 61  1  0  0  0  0
 55 73  1  0  0  0  0
 57 59  1  0  0  0  0
 57 81  1  0  0  0  0
 58 61  1  0  0  0  0
 58 72  1  0  0  0  0
 60 73  1  0  0  0  0
 62 64  1  0  0  0  0
M  CHG  1  73   1
M  ISO  4  36 100  57 101  70 100  81 101
M  END
> <Batch ID>
0170

> <Smiles>
CCc1nc([100NH:0][100C:0](=O)N2CCCC(n3nc(-c4ccc(Oc5ccc(F)cc5F)cc4)c(C(N)=O)c3N)C2)sc1NC(=O)C(C)[101CH2:1][101O:1]c1ccc2c(c1)CN(C(=O)C(NC(=O)C(C)NC)C(C)(C)C)C(C(=O)NC1CCCc3ccccc31)C2

> <Shape>
0.168

> <Color>
0.180

> <Negative vol penalty>
0.000

$$$$

  -OEChem-04052304203D

 87 96  0     1  0  0  0  0  0999 V2000
  -26.6911  -35.0979   23.1097 C   0  0  0  0  0  0  0  0  0  0  0  0
  -27.1275  -33.8071   22.8288 C   0  0  0  0  0  0  0  0  0  0  0  0
  -25.1472  -10.9150   21.1975 C   0  0  0  0  0  0  0  0  0  0  0  0
  -25.6798  -12.3617   23.0578 C   0  0  0  0  0  0  0  0  0  0  0  0
  -25.4429  -35.2980   23.6978 C   0  0  0  0  0  0  0  0  0  0  0  0
  -26.3164  -32.7156   23.1369 C   0  0  0  0  0  0  0  0  0  0  0  0
  -26.1251  -29.3176   19.3870 C   0  0  0  0  0  0  0  0  0  0  0  0
  -30.5836  -20.3965   22.5871 C   0  0  0  0  0  0  0  0  0  0  0  0
  -25.2308   -9.8044   22.0373 C   0  0  0  0  0  0  0  0  0  0  0  0
  -25.7633  -11.2511   23.8976 C   0  0  0  0  0  0  0  0  0  0  0  0
  -27.2152  -28.4595   19.2491 C   0  0  0  0  0  0  0  0  0  0  0  0
  -23.2959   -8.2836   24.3560 C   0  0  0  0  0  0  0  0  0  0  0  0
  -22.2908   -7.3212   24.2599 C   0  0  0  0  0  0  0  0  0  0  0  0
  -30.0134  -19.2971   21.9551 C   0  0  0  0  0  0  0  0  0  0  0  0
  -25.9852  -26.7240   20.3869 C   0  0  0  0  0  0  0  0  0  0  0  0
  -23.9408   -5.6566   23.6732 C   0  0  0  0  0  0  0  0  0  0  0  0
  -31.7134  -20.9111   20.5585 C   0  0  0  0  0  0  0  0  0  0  0  0
  -25.3718  -12.1936   21.7078 C   0  0  0  0  0  0  0  0  0  0  0  0
  -24.1432  -14.1157   20.5659 C   0  0  0  0  0  0  0  0  0  0  0  0
  -31.4509  -21.2239   21.8825 C   0  0  0  0  0  0  0  0  0  0  0  0
  -24.6119  -34.2088   24.0044 C   0  0  0  0  0  0  0  0  0  0  0  0
  -24.9589  -28.8882   20.0366 C   0  0  0  0  0  0  0  0  0  0  0  0
  -25.0564  -32.9012   23.7309 C   0  0  0  0  0  0  0  0  0  0  0  0
  -24.8808  -27.5778   20.5294 C   0  0  0  0  0  0  0  0  0  0  0  0
  -25.5388   -9.9724   23.3873 C   0  0  0  0  0  0  0  0  0  0  0  0
  -27.1464  -27.1634   19.7516 C   0  0  0  0  0  0  0  0  0  0  0  0
  -24.6234   -7.9325   24.1106 C   0  0  0  0  0  0  0  0  0  0  0  0
  -22.6132   -6.0077   23.9186 C   0  0  0  0  0  0  0  0  0  0  0  0
  -24.9458   -6.6191   23.7693 C   0  0  0  0  0  0  0  0  0  0  0  0
  -25.2862  -13.3412   20.8407 C   0  0  0  0  0  0  0  0  0  0  0  0
  -30.3401  -19.0706   20.6278 C   0  0  0  0  0  0  0  0  0  0  0  0
  -24.5833  -15.0792   19.6916 C   0  0  0  0  0  0  0  0  0  0  0  0
  -22.8034  -13.9766   21.0570 C   0  0  0  0  0  0  0  0  0  0  0  0
  -23.3795  -29.7938   22.6422 C   0  0  0  0  0  0  0  0  0  0  0  0
  -29.8562  -25.0120   20.8105 C   0  0  0  0  0  0  0  0  0  0  0  0
  -21.2136  -27.6083   21.6153 C   0  0  0  0  0  0  0  0  0  0  0  0
  -20.5765  -24.8002   19.7835 C   0  0  0  0  0  0  0  0  0  0  0  0
  -29.9372  -17.5304   18.6754 C   0  0  0  0  0  0  0  0  0  0  0  0
  -23.2909  -34.4720   24.6828 C   0  0  0  0  0  0  0  0  0  0  0  0
  -23.7819  -29.8174   20.1535 C   0  0  0  0  0  0  0  0  0  0  0  0
  -23.6442  -27.0616   21.2170 C   0  0  0  0  0  0  0  0  0  0  0  0
  -22.3340  -33.2836   24.6347 C   0  0  0  0  0  0  0  0  0  0  0  0
  -34.3137  -23.4800   23.1966 C   0  0  0  0  0  0  0  0  0  0  0  0
  -27.8860  -15.8381   16.3077 C   0  0  0  0  0  0  0  0  0  0  0  0
  -33.8743  -24.7945   22.5696 C   0  0  0  0  0  0  0  0  0  0  0  0
  -23.0608  -31.9973   25.0140 C   0  0  0  0  0  0  0  0  0  0  0  0
  -33.6225  -22.3008   22.5236 C   0  0  0  0  0  0  0  0  0  0  0  0
  -26.8788  -15.0811   17.1763 C   0  0  0  0  0  0  0  0  0  0  0  0
  -29.2730  -15.8730   16.9472 C   0  0  0  0  0  0  0  0  0  0  0  0
  -28.3005  -15.6159   19.1961 C   0  0  0  0  0  0  0  0  0  0  0  0
  -32.3643  -24.9513   22.6158 C   0  0  0  0  0  0  0  0  0  0  0  0
  -24.1948  -31.6930   24.0276 C   0  0  1  0  0  0  0  0  0  0  0  0
  -32.0886  -22.4324   22.5445 C   0  0  1  0  0  0  0  0  0  0  0  0
  -22.8336  -29.4407   21.2876 C   0  0  1  0  0  0  0  0  0  0  0  0
  -26.8735  -15.6099   18.6240 C   0  0  2  0  0  0  0  0  0  0  0  0
  -18.7187  -23.2300   19.1667 C   0  0  0  0  0  0  0  0  0  0  0  0
  -21.3800  -26.3292   24.3805 C   0  0  0  0  0  0  0  0  0  0  0  0
  -20.2864  -24.2892   23.4261 C   0  0  0  0  0  0  0  0  0  0  0  0
  -19.0700  -26.4671   23.4321 C   0  0  0  0  0  0  0  0  0  0  0  0
  -20.8483  -25.4252   16.9035 C   0  0  0  0  0  0  0  0  0  0  0  0
  -30.2052  -23.9965   21.8665 C   0  0  0  0  0  0  0  0  0  0  0  0
  -28.3867  -25.3355   20.6328 C   0  0  0  0  0  0  0  0  0  1  0  0
  -21.0002  -26.1300   21.8345 C   0  0  1  0  0  0  0  0  0  0  0  0
  -19.4885  -24.4814   18.7740 C   0  0  2  0  0  0  0  0  0  0  0  0
  -20.4583  -25.8139   23.2571 C   0  0  0  0  0  0  0  0  0  0  0  0
  -31.1784  -19.8520   19.9106 N   0  0  0  0  0  0  0  0  0  0  0  0
  -26.3709  -13.7751   20.1933 N   0  0  0  0  0  0  0  0  0  0  0  0
  -25.9114  -14.8327   19.5029 N   0  0  0  0  0  0  0  0  0  0  0  0
  -22.5222  -28.0101   21.3124 N   0  0  0  0  0  0  0  0  0  0  0  0
  -29.1905  -16.3887   18.3155 N   0  0  0  0  0  0  0  0  0  0  0  0
  -23.9600  -16.1047   19.0734 N   0  0  0  0  0  0  0  0  0  0  0  0
  -22.5237  -12.9320   21.9486 N   0  0  0  0  0  0  0  0  0  0  0  0
  -29.7536  -17.9476   19.9933 N   0  0  0  0  0  0  0  0  0  0  0  0
  -23.6629  -31.1368   22.8019 N   0  0  0  0  0  0  0  0  0  0  0  0
  -20.1343  -25.6775   20.7510 N   0  0  0  0  0  0  0  0  0  0  0  0
  -31.6997  -23.7805   21.9197 N   0  3  1  0  0  0  0  0  0  0  0  0
  -20.0817  -24.2641   17.4243 N   0  3  0  0  0  0  0  0  0  0  0  0
  -21.8779  -14.7457   20.7027 O   0  0  0  0  0  0  0  0  0  0  0  0
  -23.5310  -28.9133   23.4809 O   0  0  0  0  0  0  0  0  0  0  0  0
  -30.7302  -25.5310   20.1164 O   0  0  0  0  0  0  0  0  0  0  0  0
  -20.2531  -28.3774   21.7024 O   0  0  0  0  0  0  0  0  0  0  0  0
  -21.7046  -24.3164   19.7221 O   0  0  0  0  0  0  0  0  0  0  0  0
  -30.6636  -18.1126   17.8657 O   0  0  0  0  0  0  0  0  0  0  0  0
  -25.6202   -8.8890   24.2071 O   0  0  0  0  0  0  0  0  0  0  0  0
  -28.2093  -26.3239   19.6190 O   0  0  0  0  0  0  0  0  0  1  0  0
  -21.6482   -5.0833   23.8279 F   0  0  0  0  0  0  0  0  0  0  0  0
  -26.2195   -6.2756   23.5335 F   0  0  0  0  0  0  0  0  0  0  0  0
  1  2  1  0  0  0  0
  1  5  2  0  0  0  0
  2  6  2  0  0  0  0
  3  9  2  0  0  0  0
  3 18  1  0  0  0  0
  4 10  1  0  0  0  0
  4 18  2  0  0  0  0
  5 21  1  0  0  0  0
  6 23  1  0  0  0  0
  7 11  2  0  0  0  0
  7 22  1  0  0  0  0
  8 14  2  0  0  0  0
  8 20  1  0  0  0  0
  9 25  1  0  0  0  0
 10 25  2  0  0  0  0
 11 26  1  0  0  0  0
 12 13  2  0  0  0  0
 12 27  1  0  0  0  0
 13 28  1  0  0  0  0
 14 31  1  0  0  0  0
 15 24  1  0  0  0  0
 15 26  2  0  0  0  0
 16 28  2  0  0  0  0
 16 29  1  0  0  0  0
 17 20  2  0  0  0  0
 17 66  1  0  0  0  0
 18 30  1  0  0  0  0
 19 30  1  0  0  0  0
 19 32  2  0  0  0  0
 19 33  1  0  0  0  0
 20 53  1  0  0  0  0
 21 23  2  0  0  0  0
 21 39  1  0  0  0  0
 22 24  2  0  0  0  0
 22 40  1  0  0  0  0
 23 52  1  0  0  0  0
 24 41  1  0  0  0  0
 25 84  1  0  0  0  0
 26 85  1  0  0  0  0
 27 29  2  0  0  0  0
 27 84  1  0  0  0  0
 28 86  1  0  0  0  0
 29 87  1  0  0  0  0
 30 67  2  0  0  0  0
 31 66  2  0  0  0  0
 31 73  1  0  0  0  0
 32 68  1  0  0  0  0
 32 71  1  0  0  0  0
 33 72  1  0  0  0  0
 33 78  2  0  0  0  0
 34 54  1  0  0  0  0
 34 74  1  0  0  0  0
 34 79  2  0  0  0  0
 35 61  1  0  0  0  0
 35 62  1  0  0  0  0
 35 80  2  0  0  0  0
 36 63  1  0  0  0  0
 36 69  1  0  0  0  0
 36 81  2  0  0  0  0
 37 64  1  0  0  0  0
 37 75  1  0  0  0  0
 37 82  2  0  0  0  0
 38 70  1  0  0  0  0
 38 73  1  0  0  0  0
 38 83  2  0  0  0  0
 39 42  1  0  0  0  0
 40 54  1  0  0  0  0
 41 69  1  0  0  0  0
 42 46  1  0  0  0  0
 43 45  1  0  0  0  0
 43 47  1  0  0  0  0
 44 48  1  0  0  0  0
 44 49  1  0  0  0  0
 45 51  1  0  0  0  0
 46 52  1  0  0  0  0
 47 53  1  0  0  0  0
 48 55  1  0  0  0  0
 49 70  1  0  0  0  0
 50 55  1  0  0  0  0
 50 70  1  0  0  0  0
 51 76  1  0  0  0  0
 52 74  1  0  0  0  0
 53 76  1  0  0  0  0
 54 69  1  0  0  0  0
 55 68  1  0  0  0  0
 56 64  1  0  0  0  0
 57 65  1  0  0  0  0
 58 65  1  0  0  0  0
 59 65  1  0  0  0  0
 60 77  1  0  0  0  0
 61 76  1  0  0  0  0
 62 85  1  0  0  0  0
 63 65  1  0  0  0  0
 63 75  1  0  0  0  0
 64 77  1  0  0  0  0
 67 68  1  0  0  0  0
M  CHG  2  76   1  77   1
M  ISO  4  38 100  62 101  73 100  85 101
M  END
> <Batch ID>
0170

> <Smiles>
CNC(C)C(=O)NC(C(=O)N1Cc2cc([101O:1][101CH2:1]C(=O)CN3CCCCC3c3ccc([100NH:0][100C:0](=O)N4CCCC(n5nc(-c6ccc(Oc7ccc(F)cc7F)cc6)c(C(N)=O)c5N)C4)nc3)ccc2CC1C(=O)NC1CCCc2ccccc21)C(C)(C)C

> <Shape>
0.251

> <Color>
0.091

> <Negative vol penalty>
0.000

$$$$

  -OEChem-04052304203D

 87 95  0     1  0  0  0  0  0999 V2000
  -24.9293  -35.8792   24.4979 C   0  0  0  0  0  0  0  0  0  0  0  0
  -25.7384  -34.8408   24.0479 C   0  0  0  0  0  0  0  0  0  0  0  0
  -23.4019  -10.0080   22.3285 C   0  0  0  0  0  0  0  0  0  0  0  0
  -23.3725   -9.7617   19.9253 C   0  0  0  0  0  0  0  0  0  0  0  0
  -23.6193  -35.6178   24.8972 C   0  0  0  0  0  0  0  0  0  0  0  0
  -25.2382  -33.5401   23.9981 C   0  0  0  0  0  0  0  0  0  0  0  0
  -26.5784  -29.2368   19.8518 C   0  0  0  0  0  0  0  0  0  0  0  0
  -22.6417   -8.8456   22.4570 C   0  0  0  0  0  0  0  0  0  0  0  0
  -22.6124   -8.5992   20.0538 C   0  0  0  0  0  0  0  0  0  0  0  0
  -27.4630  -28.1594   19.8705 C   0  0  0  0  0  0  0  0  0  0  0  0
  -23.1586   -5.5061   22.3426 C   0  0  0  0  0  0  0  0  0  0  0  0
  -23.5494   -4.5795   23.3092 C   0  0  0  0  0  0  0  0  0  0  0  0
  -25.6614  -26.6996   20.5358 C   0  0  0  0  0  0  0  0  0  0  0  0
  -29.8787  -18.2195   16.9659 C   0  0  0  0  0  0  0  0  0  0  0  0
  -27.6907  -19.5281   18.0984 C   0  0  0  0  0  0  0  0  0  0  0  0
  -21.4074   -4.8158   24.4016 C   0  0  0  0  0  0  0  0  0  0  0  0
  -23.7673  -10.4662   21.0627 C   0  0  0  0  0  0  0  0  0  0  0  0
  -25.9560  -11.7667   20.9018 C   0  0  0  0  0  0  0  0  0  0  0  0
  -23.0997  -34.3149   24.8430 C   0  0  0  0  0  0  0  0  0  0  0  0
  -25.2286  -29.0554   20.1861 C   0  0  0  0  0  0  0  0  0  0  0  0
  -23.9204  -33.2608   24.3983 C   0  0  0  0  0  0  0  0  0  0  0  0
  -24.7612  -27.7758   20.5180 C   0  0  0  0  0  0  0  0  0  0  0  0
  -29.9990  -19.5443   17.3852 C   0  0  0  0  0  0  0  0  0  0  0  0
  -28.9050  -20.1987   17.9515 C   0  0  0  0  0  0  0  0  0  0  0  0
  -27.5705  -18.2032   17.6791 C   0  0  0  0  0  0  0  0  0  0  0  0
  -22.2470   -8.1412   21.3196 C   0  0  0  0  0  0  0  0  0  0  0  0
  -27.0052  -26.8911   20.2153 C   0  0  0  0  0  0  0  0  0  0  0  0
  -21.8923   -6.0876   22.4055 C   0  0  0  0  0  0  0  0  0  0  0  0
  -22.6738   -4.2344   24.3387 C   0  0  0  0  0  0  0  0  0  0  0  0
  -28.6644  -17.5489   17.1128 C   0  0  0  0  0  0  0  0  0  0  0  0
  -21.0167   -5.7424   23.4350 C   0  0  0  0  0  0  0  0  0  0  0  0
  -24.5520  -11.6672   20.9293 C   0  0  0  0  0  0  0  0  0  0  0  0
  -26.2023  -13.1104   20.7602 C   0  0  0  0  0  0  0  0  0  0  0  0
  -26.9487  -10.7365   20.9957 C   0  0  0  0  0  0  0  0  0  0  0  0
  -23.3115  -30.1736   22.4616 C   0  0  0  0  0  0  0  0  0  0  0  0
  -28.3764  -23.6560   19.3115 C   0  0  0  0  0  0  0  0  0  0  0  0
  -21.0339  -28.5936   20.7767 C   0  0  0  0  0  0  0  0  0  0  0  0
  -20.2636  -26.0966   18.5817 C   0  0  0  0  0  0  0  0  0  0  0  0
  -25.1543  -18.0293   18.3707 C   0  0  0  0  0  0  0  0  0  0  0  0
  -21.6928  -34.0736   25.3299 C   0  0  0  0  0  0  0  0  0  0  0  0
  -24.2816  -30.2229   20.1351 C   0  0  0  0  0  0  0  0  0  0  0  0
  -23.3174  -27.5244   20.8653 C   0  0  0  0  0  0  0  0  0  0  0  0
  -21.1192  -32.7282   24.8925 C   0  0  0  0  0  0  0  0  0  0  0  0
  -23.0878  -17.0851   21.1121 C   0  0  0  0  0  0  0  0  0  0  0  0
  -22.1327  -31.6132   25.1299 C   0  0  0  0  0  0  0  0  0  0  0  0
  -23.4000  -15.5996   21.3067 C   0  0  0  0  0  0  0  0  0  0  0  0
  -23.0880  -17.4760   19.6353 C   0  0  0  0  0  0  0  0  0  0  0  0
  -24.6131  -15.6198   19.0897 C   0  0  0  0  0  0  0  0  0  0  0  0
  -23.4061  -31.8406   24.3063 C   0  0  1  0  0  0  0  0  0  0  0  0
  -23.0361  -30.0198   20.9925 C   0  0  1  0  0  0  0  0  0  0  0  0
  -24.6881  -15.1926   20.5646 C   0  0  2  0  0  0  0  0  0  0  0  0
  -18.3127  -25.0248   17.4229 C   0  0  0  0  0  0  0  0  0  0  0  0
  -20.2724  -27.1802   23.3714 C   0  0  0  0  0  0  0  0  0  0  0  0
  -19.0262  -25.4927   22.0048 C   0  0  0  0  0  0  0  0  0  0  0  0
  -18.3324  -27.8884   21.9611 C   0  0  0  0  0  0  0  0  0  0  0  0
  -21.3290  -26.7791   15.9062 C   0  0  0  0  0  0  0  0  0  0  0  0
  -27.9200  -22.2543   18.9662 C   0  0  0  0  0  0  0  0  0  0  0  0
  -27.3257  -24.5507   19.9399 C   0  0  0  0  0  0  0  0  0  1  0  0
  -20.4667  -27.1947   20.7969 C   0  0  1  0  0  0  0  0  0  0  0  0
  -19.4003  -26.0839   17.3330 C   0  0  2  0  0  0  0  0  0  0  0  0
  -31.3114  -20.2382   17.2150 C   0  0  0  0  0  0  0  0  0  0  0  0
  -19.5521  -26.9438   22.0289 C   0  0  0  0  0  0  0  0  0  0  0  0
  -23.9487  -12.8533   20.8146 N   0  0  0  0  0  0  0  0  0  0  0  0
  -24.9785  -13.7108   20.7137 N   0  0  0  0  0  0  0  0  0  0  0  0
  -22.4317  -28.6990   20.8073 N   0  0  0  0  0  0  0  0  0  0  0  0
  -24.3406  -17.0628   18.9988 N   0  0  0  0  0  0  0  0  0  0  0  0
  -27.3441  -13.8253   20.6723 N   0  0  0  0  0  0  0  0  0  0  0  0
  -26.5225   -9.4089   21.1377 N   0  0  0  0  0  0  0  0  0  0  0  0
  -26.3359  -17.5242   17.8290 N   0  0  0  0  0  0  0  0  0  0  0  0
  -29.0062  -21.5164   18.3739 N   0  0  0  0  0  0  0  0  0  0  0  0
  -23.1873  -31.4696   22.9247 N   0  0  0  0  0  0  0  0  0  0  0  0
  -19.8032  -27.0047   19.5116 N   0  0  0  0  0  0  0  0  0  0  0  0
  -20.2335  -25.8010   16.1302 N   0  3  0  0  0  0  0  0  0  0  0  0
  -28.1775  -10.9875   20.9714 O   0  0  0  0  0  0  0  0  0  0  0  0
  -23.6127  -29.1890   23.1261 O   0  0  0  0  0  0  0  0  0  0  0  0
  -29.5214  -24.0538   19.1004 O   0  0  0  0  0  0  0  0  0  0  0  0
  -20.2652  -29.5572   20.7281 O   0  0  0  0  0  0  0  0  0  0  0  0
  -21.2457  -25.3707   18.7199 O   0  0  0  0  0  0  0  0  0  0  0  0
  -24.8401  -19.2219   18.3410 O   0  0  0  0  0  0  0  0  0  0  0  0
  -21.5055   -7.0067   21.4446 O   0  0  0  0  0  0  0  0  0  0  0  0
  -27.8667  -25.8378   20.2350 O   0  0  0  0  0  0  0  0  0  1  0  0
  -23.0486   -3.3434   25.2660 F   0  0  0  0  0  0  0  0  0  0  0  0
  -28.5602  -16.2756   16.7059 F   0  0  0  0  0  0  0  0  0  0  0  0
  -19.7984   -6.2969   23.5000 F   0  0  0  0  0  0  0  0  0  0  0  0
  -32.2721  -19.4541   16.6449 F   0  0  0  0  0  0  0  0  0  0  0  0
  -31.2408  -21.3494   16.4258 F   0  0  0  0  0  0  0  0  0  0  0  0
  -31.8363  -20.6608   18.4006 F   0  0  0  0  0  0  0  0  0  0  0  0
  1  2  1  0  0  0  0
  1  5  2  0  0  0  0
  2  6  2  0  0  0  0
  3  8  2  0  0  0  0
  3 17  1  0  0  0  0
  4  9  1  0  0  0  0
  4 17  2  0  0  0  0
  5 19  1  0  0  0  0
  6 21  1  0  0  0  0
  7 10  2  0  0  0  0
  7 20  1  0  0  0  0
  8 26  1  0  0  0  0
  9 26  2  0  0  0  0
 10 27  1  0  0  0  0
 11 12  2  0  0  0  0
 11 28  1  0  0  0  0
 12 29  1  0  0  0  0
 13 22  1  0  0  0  0
 13 27  2  0  0  0  0
 14 23  1  0  0  0  0
 14 30  2  0  0  0  0
 15 24  1  0  0  0  0
 15 25  2  0  0  0  0
 16 29  2  0  0  0  0
 16 31  1  0  0  0  0
 17 32  1  0  0  0  0
 18 32  1  0  0  0  0
 18 33  2  0  0  0  0
 18 34  1  0  0  0  0
 19 21  2  0  0  0  0
 19 40  1  0  0  0  0
 20 22  2  0  0  0  0
 20 41  1  0  0  0  0
 21 49  1  0  0  0  0
 22 42  1  0  0  0  0
 23 24  2  0  0  0  0
 23 61  1  0  0  0  0
 24 70  1  0  0  0  0
 25 30  1  0  0  0  0
 25 69  1  0  0  0  0
 26 80  1  0  0  0  0
 27 81  1  0  0  0  0
 28 31  2  0  0  0  0
 28 80  1  0  0  0  0
 29 82  1  0  0  0  0
 30 83  1  0  0  0  0
 31 84  1  0  0  0  0
 32 63  2  0  0  0  0
 33 64  1  0  0  0  0
 33 67  1  0  0  0  0
 34 68  1  0  0  0  0
 34 74  2  0  0  0  0
 35 50  1  0  0  0  0
 35 71  1  0  0  0  0
 35 75  2  0  0  0  0
 36 57  1  0  0  0  0
 36 58  1  0  0  0  0
 36 76  2  0  0  0  0
 37 59  1  0  0  0  0
 37 65  1  0  0  0  0
 37 77  2  0  0  0  0
 38 60  1  0  0  0  0
 38 72  1  0  0  0  0
 38 78  2  0  0  0  0
 39 66  1  0  0  0  0
 39 69  1  0  0  0  0
 39 79  2  0  0  0  0
 40 43  1  0  0  0  0
 41 50  1  0  0  0  0
 42 65  1  0  0  0  0
 43 45  1  0  0  0  0
 44 46  1  0  0  0  0
 44 47  1  0  0  0  0
 45 49  1  0  0  0  0
 46 51  1  0  0  0  0
 47 66  1  0  0  0  0
 48 51  1  0  0  0  0
 48 66  1  0  0  0  0
 49 71  1  0  0  0  0
 50 65  1  0  0  0  0
 51 64  1  0  0  0  0
 52 60  1  0  0  0  0
 53 62  1  0  0  0  0
 54 62  1  0  0  0  0
 55 62  1  0  0  0  0
 56 73  1  0  0  0  0
 57 70  1  0  0  0  0
 58 81  1  0  0  0  0
 59 62  1  0  0  0  0
 59 72  1  0  0  0  0
 60 73  1  0  0  0  0
 61 85  1  0  0  0  0
 61 86  1  0  0  0  0
 61 87  1  0  0  0  0
 63 64  1  0  0  0  0
M  CHG  1  73   1
M  ISO  4  39 100  58 101  69 100  81 101
M  END
> <Batch ID>
0170

> <Smiles>
CNC(C)C(=O)NC(C(=O)N1Cc2cc([101O:1][101CH2:1]C(=O)CNc3cc([100NH:0][100C:0](=O)N4CCCC(n5nc(-c6ccc(Oc7ccc(F)cc7F)cc6)c(C(N)=O)c5N)C4)c(F)cc3C(F)(F)F)ccc2CC1C(=O)NC1CCCc2ccccc21)C(C)(C)C

> <Shape>
0.279

> <Color>
0.119

> <Negative vol penalty>
0.000

$$$$

  -OEChem-04052304203D

 86 95  0     1  0  0  0  0  0999 V2000
  -27.4029  -33.9820   29.0592 C   0  0  0  0  0  0  0  0  0  0  0  0
  -27.4986  -32.8806   28.2147 C   0  0  0  0  0  0  0  0  0  0  0  0
  -23.9381   -9.4962   19.8816 C   0  0  0  0  0  0  0  0  0  0  0  0
  -24.3927   -9.7370   22.2422 C   0  0  0  0  0  0  0  0  0  0  0  0
  -26.4785  -34.9896   28.7868 C   0  0  0  0  0  0  0  0  0  0  0  0
  -26.6691  -32.7857   27.0978 C   0  0  0  0  0  0  0  0  0  0  0  0
  -29.1671  -31.3273   22.9411 C   0  0  0  0  0  0  0  0  0  0  0  0
  -23.4757   -8.1990   20.1030 C   0  0  0  0  0  0  0  0  0  0  0  0
  -23.9303   -8.4398   22.4636 C   0  0  0  0  0  0  0  0  0  0  0  0
  -29.4695  -29.9715   22.8228 C   0  0  0  0  0  0  0  0  0  0  0  0
  -20.9486   -6.8736   22.7414 C   0  0  0  0  0  0  0  0  0  0  0  0
  -20.0900   -6.6688   23.8214 C   0  0  0  0  0  0  0  0  0  0  0  0
  -27.8787  -18.9148   22.6187 C   0  0  0  0  0  0  0  0  0  0  0  0
  -27.5865  -29.6868   21.3422 C   0  0  0  0  0  0  0  0  0  0  0  0
  -29.7000  -19.1034   21.0507 C   0  0  0  0  0  0  0  0  0  0  0  0
  -21.6716   -5.1170   24.7845 C   0  0  0  0  0  0  0  0  0  0  0  0
  -24.3967  -10.2652   20.9512 C   0  0  0  0  0  0  0  0  0  0  0  0
  -24.1200  -12.7929   20.7476 C   0  0  0  0  0  0  0  0  0  0  0  0
  -25.6440  -34.9117   27.6607 C   0  0  0  0  0  0  0  0  0  0  0  0
  -28.0638  -31.8718   22.2684 C   0  0  0  0  0  0  0  0  0  0  0  0
  -25.7318  -33.7925   26.8109 C   0  0  0  0  0  0  0  0  0  0  0  0
  -27.6879  -20.3033   22.5763 C   0  0  0  0  0  0  0  0  0  0  0  0
  -27.2737  -31.0504   21.4516 C   0  0  0  0  0  0  0  0  0  0  0  0
  -28.5329  -21.1090   21.7873 C   0  0  0  0  0  0  0  0  0  0  0  0
  -28.8807  -18.3181   21.8563 C   0  0  0  0  0  0  0  0  0  0  0  0
  -23.4718   -7.6708   21.3940 C   0  0  0  0  0  0  0  0  0  0  0  0
  -28.6775  -29.1504   22.0256 C   0  0  0  0  0  0  0  0  0  0  0  0
  -22.1687   -6.2000   22.6829 C   0  0  0  0  0  0  0  0  0  0  0  0
  -20.4515   -5.7905   24.8430 C   0  0  0  0  0  0  0  0  0  0  0  0
  -29.5246  -20.4877   21.0140 C   0  0  0  0  0  0  0  0  0  0  0  0
  -22.5302   -5.3218   23.7044 C   0  0  0  0  0  0  0  0  0  0  0  0
  -24.8750  -11.6051   20.7231 C   0  0  0  0  0  0  0  0  0  0  0  0
  -25.0301  -13.7840   20.4720 C   0  0  0  0  0  0  0  0  0  0  0  0
  -22.7210  -12.9835   20.9971 C   0  0  0  0  0  0  0  0  0  0  0  0
  -25.3703  -33.3007   23.1666 C   0  0  0  0  0  0  0  0  0  0  0  0
  -28.1700  -25.5658   22.2542 C   0  0  0  0  0  0  0  0  0  0  0  0
  -25.0030  -33.7509   19.9753 C   0  0  0  0  0  0  0  0  0  0  0  0
  -25.7531  -32.7437   16.8020 C   0  0  0  0  0  0  0  0  0  0  0  0
  -30.0107  -16.1636   21.2025 C   0  0  0  0  0  0  0  0  0  0  0  0
  -24.6275  -36.0024   27.4335 C   0  0  0  0  0  0  0  0  0  0  0  0
  -27.7668  -33.3417   22.3851 C   0  0  0  0  0  0  0  0  0  0  0  0
  -26.6044  -20.9342   23.4148 C   0  0  0  0  0  0  0  0  0  0  0  0
  -26.0902  -31.5901   20.6924 C   0  0  0  0  0  0  0  0  0  0  0  0
  -24.0450  -36.0079   26.0225 C   0  0  0  0  0  0  0  0  0  0  0  0
  -26.2103  -22.3058   22.8671 C   0  0  0  0  0  0  0  0  0  0  0  0
  -29.8150  -13.5026   18.8450 C   0  0  0  0  0  0  0  0  0  0  0  0
  -23.6479  -34.5960   25.6034 C   0  0  0  0  0  0  0  0  0  0  0  0
  -28.4502  -12.8694   19.1255 C   0  0  0  0  0  0  0  0  0  0  0  0
  -30.4952  -13.9757   20.1284 C   0  0  0  0  0  0  0  0  0  0  0  0
  -28.3175  -14.2281   21.2523 C   0  0  0  0  0  0  0  0  0  0  0  0
  -24.8666  -33.6655   25.5758 C   0  0  1  0  0  0  0  0  0  0  0  0
  -26.3156  -33.6854   22.0639 C   0  0  1  0  0  0  0  0  0  0  0  0
  -27.5653  -13.7948   19.9834 C   0  0  2  0  0  0  0  0  0  0  0  0
  -27.4582  -23.1642   22.6364 C   0  0  2  0  0  0  0  0  0  0  0  0
  -25.2733  -33.2835   14.3987 C   0  0  0  0  0  0  0  0  0  0  0  0
  -22.2539  -32.4530   20.2352 C   0  0  0  0  0  0  0  0  0  0  0  0
  -22.2357  -32.1568   17.7492 C   0  0  0  0  0  0  0  0  0  0  0  0
  -22.3271  -34.4487   18.7298 C   0  0  0  0  0  0  0  0  0  0  0  0
  -28.6026  -33.3125   16.2401 C   0  0  0  0  0  0  0  0  0  0  0  0
  -27.0816  -24.5246   22.0589 C   0  0  0  0  0  0  0  0  0  0  0  0
  -27.8775  -26.9377   21.6790 C   0  0  0  0  0  0  0  0  0  1  0  0
  -24.3717  -32.9664   18.8506 C   0  0  1  0  0  0  0  0  0  0  0  0
  -26.2032  -33.5212   15.5783 C   0  0  2  0  0  0  0  0  0  0  0  0
  -22.8182  -32.9954   18.9069 C   0  0  0  0  0  0  0  0  0  0  0  0
  -26.1654  -11.8197   20.4532 N   0  0  0  0  0  0  0  0  0  0  0  0
  -26.2282  -13.1540   20.3055 N   0  0  0  0  0  0  0  0  0  0  0  0
  -28.3653  -22.4880   21.7199 N   0  0  0  0  0  0  0  0  0  0  0  0
  -25.8368  -33.0324   20.8438 N   0  0  0  0  0  0  0  0  0  0  0  0
  -29.5993  -14.8513   20.8871 N   0  0  0  0  0  0  0  0  0  0  0  0
  -24.9143  -15.1242   20.3583 N   0  0  0  0  0  0  0  0  0  0  0  0
  -21.9304  -11.8573   21.2635 N   0  0  0  0  0  0  0  0  0  0  0  0
  -29.0629  -16.9135   21.8980 N   0  0  0  0  0  0  0  0  0  0  0  0
  -25.6512  -33.8957   24.3817 N   0  0  0  0  0  0  0  0  0  0  0  0
  -24.9349  -33.4995   17.6148 N   0  0  0  0  0  0  0  0  0  0  0  0
  -27.5799  -33.1111   15.1816 N   0  3  0  0  0  0  0  0  0  0  0  0
  -22.1847  -14.1171   20.9680 O   0  0  0  0  0  0  0  0  0  0  0  0
  -24.4529  -32.5227   22.9321 O   0  0  0  0  0  0  0  0  0  0  0  0
  -29.2231  -25.3196   22.8403 O   0  0  0  0  0  0  0  0  0  0  0  0
  -24.7707  -34.9583   20.0752 O   0  0  0  0  0  0  0  0  0  0  0  0
  -26.0904  -31.5810   17.0137 O   0  0  0  0  0  0  0  0  0  0  0  0
  -31.1115  -16.5996   20.8557 O   0  0  0  0  0  0  0  0  0  0  0  0
  -23.0204   -6.4051   21.6104 O   0  0  0  0  0  0  0  0  0  0  0  0
  -28.9700  -27.8265   21.9089 O   0  0  0  0  0  0  0  0  0  1  0  0
  -19.6276   -5.5951   25.8808 F   0  0  0  0  0  0  0  0  0  0  0  0
  -30.3252  -21.2266   20.2317 F   0  0  0  0  0  0  0  0  0  0  0  0
  -23.7016   -4.6728   23.6543 F   0  0  0  0  0  0  0  0  0  0  0  0
  1  2  1  0  0  0  0
  1  5  2  0  0  0  0
  2  6  2  0  0  0  0
  3  8  2  0  0  0  0
  3 17  1  0  0  0  0
  4  9  1  0  0  0  0
  4 17  2  0  0  0  0
  5 19  1  0  0  0  0
  6 21  1  0  0  0  0
  7 10  2  0  0  0  0
  7 20  1  0  0  0  0
  8 26  1  0  0  0  0
  9 26  2  0  0  0  0
 10 27  1  0  0  0  0
 11 12  2  0  0  0  0
 11 28  1  0  0  0  0
 12 29  1  0  0  0  0
 13 22  1  0  0  0  0
 13 25  2  0  0  0  0
 14 23  1  0  0  0  0
 14 27  2  0  0  0  0
 15 25  1  0  0  0  0
 15 30  2  0  0  0  0
 16 29  2  0  0  0  0
 16 31  1  0  0  0  0
 17 32  1  0  0  0  0
 18 32  1  0  0  0  0
 18 33  2  0  0  0  0
 18 34  1  0  0  0  0
 19 21  2  0  0  0  0
 19 40  1  0  0  0  0
 20 23  2  0  0  0  0
 20 41  1  0  0  0  0
 21 51  1  0  0  0  0
 22 24  2  0  0  0  0
 22 42  1  0  0  0  0
 23 43  1  0  0  0  0
 24 30  1  0  0  0  0
 24 67  1  0  0  0  0
 25 72  1  0  0  0  0
 26 82  1  0  0  0  0
 27 83  1  0  0  0  0
 28 31  2  0  0  0  0
 28 82  1  0  0  0  0
 29 84  1  0  0  0  0
 30 85  1  0  0  0  0
 31 86  1  0  0  0  0
 32 65  2  0  0  0  0
 33 66  1  0  0  0  0
 33 70  1  0  0  0  0
 34 71  1  0  0  0  0
 34 76  2  0  0  0  0
 35 52  1  0  0  0  0
 35 73  1  0  0  0  0
 35 77  2  0  0  0  0
 36 60  1  0  0  0  0
 36 61  1  0  0  0  0
 36 78  2  0  0  0  0
 37 62  1  0  0  0  0
 37 68  1  0  0  0  0
 37 79  2  0  0  0  0
 38 63  1  0  0  0  0
 38 74  1  0  0  0  0
 38 80  2  0  0  0  0
 39 69  1  0  0  0  0
 39 72  1  0  0  0  0
 39 81  2  0  0  0  0
 40 44  1  0  0  0  0
 41 52  1  0  0  0  0
 42 45  1  0  0  0  0
 43 68  1  0  0  0  0
 44 47  1  0  0  0  0
 45 54  1  0  0  0  0
 46 48  1  0  0  0  0
 46 49  1  0  0  0  0
 47 51  1  0  0  0  0
 48 53  1  0  0  0  0
 49 69  1  0  0  0  0
 50 53  1  0  0  0  0
 50 69  1  0  0  0  0
 51 73  1  0  0  0  0
 52 68  1  0  0  0  0
 53 66  1  0  0  0  0
 54 60  1  0  0  0  0
 54 67  1  0  0  0  0
 55 63  1  0  0  0  0
 56 64  1  0  0  0  0
 57 64  1  0  0  0  0
 58 64  1  0  0  0  0
 59 75  1  0  0  0  0
 61 83  1  0  0  0  0
 62 64  1  0  0  0  0
 62 74  1  0  0  0  0
 63 75  1  0  0  0  0
 65 66  1  0  0  0  0
M  CHG  1  75   1
M  ISO  4  39 100  61 101  72 100  83 101
M  END
> <Batch ID>
0170

> <Smiles>
CNC(C)C(=O)NC(C(=O)N1Cc2cc([101O:1][101CH2:1]C(=O)CC3CCc4cc([100NH:0][100C:0](=O)N5CCCC(n6nc(-c7ccc(Oc8ccc(F)cc8F)cc7)c(C(N)=O)c6N)C5)cc(F)c4N3)ccc2CC1C(=O)NC1CCCc2ccccc21)C(C)(C)C

> <Shape>
0.253

> <Color>
0.140

> <Negative vol penalty>
0.000

$$$$

  -OEChem-04052304203D

 86 94  0     1  0  0  0  0  0999 V2000
  -32.0444  -14.2751   21.6352 C   0  0  0  0  0  0  0  0  0  0  0  0
  -31.1395  -15.2384   22.0696 C   0  0  0  0  0  0  0  0  0  0  0  0
  -29.8734  -26.3405   19.7471 C   0  0  0  0  0  0  0  0  0  0  0  0
  -28.2878  -24.6062   20.3085 C   0  0  0  0  0  0  0  0  0  0  0  0
  -31.6515  -13.3261   20.6924 C   0  0  0  0  0  0  0  0  0  0  0  0
  -29.8414  -15.2538   21.5606 C   0  0  0  0  0  0  0  0  0  0  0  0
  -24.7300  -16.8021   24.5576 C   0  0  0  0  0  0  0  0  0  0  0  0
  -19.7704  -28.7967   22.5012 C   0  0  0  0  0  0  0  0  0  0  0  0
  -30.9183  -25.5272   20.1859 C   0  0  0  0  0  0  0  0  0  0  0  0
  -29.3327  -23.7929   20.7472 C   0  0  0  0  0  0  0  0  0  0  0  0
  -23.9891  -17.9824   24.6009 C   0  0  0  0  0  0  0  0  0  0  0  0
  -31.6153  -21.1212   21.6800 C   0  0  0  0  0  0  0  0  0  0  0  0
  -18.4515  -28.3503   22.4188 C   0  0  0  0  0  0  0  0  0  0  0  0
  -31.6069  -19.7836   21.2846 C   0  0  0  0  0  0  0  0  0  0  0  0
  -22.5129  -17.1109   22.9036 C   0  0  0  0  0  0  0  0  0  0  0  0
  -19.2237  -26.0614   22.4599 C   0  0  0  0  0  0  0  0  0  0  0  0
  -31.6848  -20.4677   18.9687 C   0  0  0  0  0  0  0  0  0  0  0  0
  -28.5581  -25.8800   19.8085 C   0  0  0  0  0  0  0  0  0  0  0  0
  -26.9424  -26.7887   18.0560 C   0  0  0  0  0  0  0  0  0  0  0  0
  -30.3450  -13.3240   20.1788 C   0  0  0  0  0  0  0  0  0  0  0  0
  -24.3738  -15.7700   23.6776 C   0  0  0  0  0  0  0  0  0  0  0  0
  -29.4310  -14.3047   20.6090 C   0  0  0  0  0  0  0  0  0  0  0  0
  -23.2494  -15.9176   22.8529 C   0  0  0  0  0  0  0  0  0  0  0  0
  -20.8160  -27.8755   22.5629 C   0  0  0  0  0  0  0  0  0  0  0  0
  -20.5426  -26.5078   22.5423 C   0  0  0  0  0  0  0  0  0  0  0  0
  -30.6479  -24.2535   20.6859 C   0  0  0  0  0  0  0  0  0  0  0  0
  -22.8821  -18.1381   23.7718 C   0  0  0  0  0  0  0  0  0  0  0  0
  -31.6583  -22.1321   20.7197 C   0  0  0  0  0  0  0  0  0  0  0  0
  -18.1781  -26.9826   22.3982 C   0  0  0  0  0  0  0  0  0  0  0  0
  -31.6417  -19.4568   19.9290 C   0  0  0  0  0  0  0  0  0  0  0  0
  -31.6931  -21.8053   19.3642 C   0  0  0  0  0  0  0  0  0  0  0  0
  -27.4783  -26.7198   19.3560 C   0  0  0  0  0  0  0  0  0  0  0  0
  -25.9448  -27.7285   18.1453 C   0  0  0  0  0  0  0  0  0  0  0  0
  -27.3132  -26.0676   16.8735 C   0  0  0  0  0  0  0  0  0  0  0  0
  -22.6865  -21.9257   22.6600 C   0  0  0  0  0  0  0  0  0  0  0  0
  -22.6818  -23.4419   22.6599 C   0  0  0  0  0  0  0  0  0  0  0  0
  -25.7877  -14.3262   21.2241 C   0  0  0  0  0  0  0  0  0  0  0  0
  -23.1847  -12.3955   21.3633 C   0  0  0  0  0  0  0  0  0  0  0  0
  -19.9291  -11.9846   22.3008 C   0  0  0  0  0  0  0  0  0  0  0  0
  -22.5693  -29.6811   22.6728 C   0  0  0  0  0  0  0  0  0  0  0  0
  -29.9805  -12.3072   19.1261 C   0  0  0  0  0  0  0  0  0  0  0  0
  -25.1675  -14.4925   23.6621 C   0  0  0  0  0  0  0  0  0  0  0  0
  -22.8132  -14.8314   21.9050 C   0  0  0  0  0  0  0  0  0  0  0  0
  -28.4757  -12.1616   18.9152 C   0  0  0  0  0  0  0  0  0  0  0  0
  -24.6990  -31.6453   20.6032 C   0  0  0  0  0  0  0  0  0  0  0  0
  -27.8165  -13.5330   18.8081 C   0  0  0  0  0  0  0  0  0  0  0  0
  -25.6006  -30.6109   19.9255 C   0  0  0  0  0  0  0  0  0  0  0  0
  -24.3818  -31.2618   22.0475 C   0  0  0  0  0  0  0  0  0  0  0  0
  -24.7375  -28.8758   21.5478 C   0  0  0  0  0  0  0  0  0  0  0  0
  -28.0068  -14.3389   20.0988 C   0  0  1  0  0  0  0  0  0  0  0  0
  -25.0185  -13.7123   22.3596 C   0  0  1  0  0  0  0  0  0  0  0  0
  -25.0315  -29.1859   20.0709 C   0  0  2  0  0  0  0  0  0  0  0  0
  -18.0600  -10.3110   22.2473 C   0  0  0  0  0  0  0  0  0  0  0  0
  -22.7427  -12.9874   18.4028 C   0  0  0  0  0  0  0  0  0  0  0  0
  -20.4137  -12.1011   18.6449 C   0  0  0  0  0  0  0  0  0  0  0  0
  -22.3654  -10.6034   19.0577 C   0  0  0  0  0  0  0  0  0  0  0  0
  -19.7616  -11.9039   25.2545 C   0  0  0  0  0  0  0  0  0  0  0  0
  -21.3554  -21.2069   22.5951 C   0  0  0  0  0  0  0  0  0  0  0  0
  -21.3531  -24.1484   22.5821 C   0  0  0  0  0  0  0  0  0  0  0  0
  -21.5117  -19.6924   22.6046 C   0  0  0  0  0  0  0  0  0  1  0  0
  -21.8101  -12.4076   20.7395 C   0  0  1  0  0  0  0  0  0  0  0  0
  -19.2297  -10.8629   23.0472 C   0  0  2  0  0  0  0  0  0  0  0  0
  -21.8421  -12.0463   19.2276 C   0  0  0  0  0  0  0  0  0  0  0  0
  -26.8715  -27.5498   20.2085 N   0  0  0  0  0  0  0  0  0  0  0  0
  -25.9441  -28.1492   19.4427 N   0  0  0  0  0  0  0  0  0  0  0  0
  -23.6253  -13.6035   21.9220 N   0  0  0  0  0  0  0  0  0  0  0  0
  -23.8429  -29.9013   22.1070 N   0  0  0  0  0  0  0  0  0  0  0  0
  -25.0769  -28.2279   17.2398 N   0  0  0  0  0  0  0  0  0  0  0  0
  -28.3597  -25.1391   16.9577 N   0  0  0  0  0  0  0  0  0  0  0  0
  -22.1479  -28.3521   22.6447 N   0  0  0  0  0  0  0  0  0  0  0  0
  -21.5665  -25.5745   22.6010 N   0  0  0  0  0  0  0  0  0  0  0  0
  -27.0913  -13.8794   21.1211 N   0  0  0  0  0  0  0  0  0  0  0  0
  -20.9864  -11.5166   21.5495 N   0  0  0  0  0  0  0  0  0  0  0  0
  -18.7137  -11.3545   24.3560 N   0  3  0  0  0  0  0  0  0  0  0  0
  -26.7445  -26.2534   15.7710 O   0  0  0  0  0  0  0  0  0  0  0  0
  -23.7768  -21.3718   22.7186 O   0  0  0  0  0  0  0  0  0  0  0  0
  -23.7694  -24.0017   22.7185 O   0  0  0  0  0  0  0  0  0  0  0  0
  -25.2386  -15.1434   20.4945 O   0  0  0  0  0  0  0  0  0  0  0  0
  -23.8405  -11.3506   21.3614 O   0  0  0  0  0  0  0  0  0  0  0  0
  -19.5709  -13.1580   22.3737 O   0  0  0  0  0  0  0  0  0  0  0  0
  -21.8900  -30.6075   23.1227 O   0  0  0  0  0  0  0  0  0  0  0  0
  -31.6673  -23.4595   21.1139 O   0  0  0  0  0  0  0  0  0  0  0  0
  -22.1575  -19.2893   23.8116 O   0  0  0  0  0  0  0  0  0  1  0  0
  -16.9116  -26.5539   22.3190 F   0  0  0  0  0  0  0  0  0  0  0  0
  -31.6353  -18.1723   19.5495 F   0  0  0  0  0  0  0  0  0  0  0  0
  -31.7357  -22.7720   18.4371 F   0  0  0  0  0  0  0  0  0  0  0  0
  1  2  1  0  0  0  0
  1  5  2  0  0  0  0
  2  6  2  0  0  0  0
  3  9  2  0  0  0  0
  3 18  1  0  0  0  0
  4 10  1  0  0  0  0
  4 18  2  0  0  0  0
  5 20  1  0  0  0  0
  6 22  1  0  0  0  0
  7 11  2  0  0  0  0
  7 21  1  0  0  0  0
  8 13  2  0  0  0  0
  8 24  1  0  0  0  0
  9 26  1  0  0  0  0
 10 26  2  0  0  0  0
 11 27  1  0  0  0  0
 12 14  2  0  0  0  0
 12 28  1  0  0  0  0
 13 29  1  0  0  0  0
 14 30  1  0  0  0  0
 15 23  1  0  0  0  0
 15 27  2  0  0  0  0
 16 25  1  0  0  0  0
 16 29  2  0  0  0  0
 17 30  2  0  0  0  0
 17 31  1  0  0  0  0
 18 32  1  0  0  0  0
 19 32  1  0  0  0  0
 19 33  2  0  0  0  0
 19 34  1  0  0  0  0
 20 22  2  0  0  0  0
 20 41  1  0  0  0  0
 21 23  2  0  0  0  0
 21 42  1  0  0  0  0
 22 50  1  0  0  0  0
 23 43  1  0  0  0  0
 24 25  2  0  0  0  0
 24 70  1  0  0  0  0
 25 71  1  0  0  0  0
 26 82  1  0  0  0  0
 27 83  1  0  0  0  0
 28 31  2  0  0  0  0
 28 82  1  0  0  0  0
 29 84  1  0  0  0  0
 30 85  1  0  0  0  0
 31 86  1  0  0  0  0
 32 64  2  0  0  0  0
 33 65  1  0  0  0  0
 33 68  1  0  0  0  0
 34 69  1  0  0  0  0
 34 75  2  0  0  0  0
 35 36  1  0  0  0  0
 35 58  1  0  0  0  0
 35 76  2  0  0  0  0
 36 59  1  0  0  0  0
 36 77  2  0  0  0  0
 37 51  1  0  0  0  0
 37 72  1  0  0  0  0
 37 78  2  0  0  0  0
 38 61  1  0  0  0  0
 38 66  1  0  0  0  0
 38 79  2  0  0  0  0
 39 62  1  0  0  0  0
 39 73  1  0  0  0  0
 39 80  2  0  0  0  0
 40 67  1  0  0  0  0
 40 70  1  0  0  0  0
 40 81  2  0  0  0  0
 41 44  1  0  0  0  0
 42 51  1  0  0  0  0
 43 66  1  0  0  0  0
 44 46  1  0  0  0  0
 45 47  1  0  0  0  0
 45 48  1  0  0  0  0
 46 50  1  0  0  0  0
 47 52  1  0  0  0  0
 48 67  1  0  0  0  0
 49 52  1  0  0  0  0
 49 67  1  0  0  0  0
 50 72  1  0  0  0  0
 51 66  1  0  0  0  0
 52 65  1  0  0  0  0
 53 62  1  0  0  0  0
 54 63  1  0  0  0  0
 55 63  1  0  0  0  0
 56 63  1  0  0  0  0
 57 74  1  0  0  0  0
 58 60  1  0  0  0  0
 59 71  1  0  0  0  0
 60 83  1  0  0  0  0
 61 63  1  0  0  0  0
 61 73  1  0  0  0  0
 62 74  1  0  0  0  0
 64 65  1  0  0  0  0
M  CHG  1  74   1
M  ISO  4  40 100  60 101  70 100  83 101
M  END
> <Batch ID>
0170

> <Smiles>
CNC(C)C(=O)NC(C(=O)N1Cc2cc([101O:1][101CH2:1]CC(=O)C(=O)CNc3cc(F)ccc3[100NH:0][100C:0](=O)N3CCCC(n4nc(-c5ccc(Oc6ccc(F)cc6F)cc5)c(C(N)=O)c4N)C3)ccc2CC1C(=O)NC1CCCc2ccccc21)C(C)(C)C

> <Shape>
0.249

> <Color>
0.076

> <Negative vol penalty>
0.000

$$$$

  -OEChem-04052304203D

 87 95  0     1  0  0  0  0  0999 V2000
  -18.3000  -25.6033   19.7150 C   0  0  0  0  0  0  0  0  0  0  0  0
  -19.2331  -24.7214   20.2508 C   0  0  0  0  0  0  0  0  0  0  0  0
  -23.1123   -9.8291   19.8897 C   0  0  0  0  0  0  0  0  0  0  0  0
  -23.9460   -9.7265   22.1550 C   0  0  0  0  0  0  0  0  0  0  0  0
  -18.2036  -26.9019   20.2133 C   0  0  0  0  0  0  0  0  0  0  0  0
  -20.0710  -25.1380   21.2846 C   0  0  0  0  0  0  0  0  0  0  0  0
  -22.1369  -21.7427   25.9440 C   0  0  0  0  0  0  0  0  0  0  0  0
  -22.4218   -8.6338   20.0896 C   0  0  0  0  0  0  0  0  0  0  0  0
  -23.2555   -8.5311   22.3549 C   0  0  0  0  0  0  0  0  0  0  0  0
  -23.3448  -21.0803   26.1586 C   0  0  0  0  0  0  0  0  0  0  0  0
  -20.1491   -5.7967   20.1189 C   0  0  0  0  0  0  0  0  0  0  0  0
  -18.8310   -5.7260   19.6684 C   0  0  0  0  0  0  0  0  0  0  0  0
  -24.1521  -22.9728   27.4178 C   0  0  0  0  0  0  0  0  0  0  0  0
  -29.7199  -17.4774   23.3472 C   0  0  0  0  0  0  0  0  0  0  0  0
  -31.9146  -16.7566   22.6397 C   0  0  0  0  0  0  0  0  0  0  0  0
  -18.2351   -7.5601   21.1238 C   0  0  0  0  0  0  0  0  0  0  0  0
  -23.8745  -10.3755   20.9224 C   0  0  0  0  0  0  0  0  0  0  0  0
  -24.1150  -12.9150   20.9499 C   0  0  0  0  0  0  0  0  0  0  0  0
  -19.0342  -27.3316   21.2602 C   0  0  0  0  0  0  0  0  0  0  0  0
  -21.9314  -23.0318   26.4564 C   0  0  0  0  0  0  0  0  0  0  0  0
  -19.9865  -26.4440   21.7965 C   0  0  0  0  0  0  0  0  0  0  0  0
  -22.9399  -23.6485   27.2105 C   0  0  0  0  0  0  0  0  0  0  0  0
  -31.6908  -18.3940   24.4020 C   0  0  0  0  0  0  0  0  0  0  0  0
  -30.5260  -16.6914   22.5239 C   0  0  0  0  0  0  0  0  0  0  0  0
  -30.3023  -18.3288   24.2863 C   0  0  0  0  0  0  0  0  0  0  0  0
  -22.4934   -7.9848   21.3222 C   0  0  0  0  0  0  0  0  0  0  0  0
  -24.3537  -21.6964   26.8932 C   0  0  0  0  0  0  0  0  0  0  0  0
  -20.5103   -6.7490   21.0720 C   0  0  0  0  0  0  0  0  0  0  0  0
  -17.8740   -6.6077   20.1708 C   0  0  0  0  0  0  0  0  0  0  0  0
  -32.4970  -17.6079   23.5787 C   0  0  0  0  0  0  0  0  0  0  0  0
  -19.5533   -7.6308   21.5744 C   0  0  0  0  0  0  0  0  0  0  0  0
  -24.5884  -11.6099   20.7163 C   0  0  0  0  0  0  0  0  0  0  0  0
  -25.1651  -13.7287   20.6012 C   0  0  0  0  0  0  0  0  0  0  0  0
  -22.8400  -13.3525   21.4385 C   0  0  0  0  0  0  0  0  0  0  0  0
  -21.3573  -25.8868   25.1822 C   0  0  0  0  0  0  0  0  0  0  0  0
  -27.4743  -20.0449   26.0581 C   0  0  0  0  0  0  0  0  0  0  0  0
  -21.0046  -26.7679   28.2841 C   0  0  0  0  0  0  0  0  0  0  0  0
  -21.7209  -26.1664   31.5662 C   0  0  0  0  0  0  0  0  0  0  0  0
  -30.5899  -14.9813   20.6752 C   0  0  0  0  0  0  0  0  0  0  0  0
  -18.9255  -28.7594   21.7338 C   0  0  0  0  0  0  0  0  0  0  0  0
  -20.6129  -23.7222   26.2388 C   0  0  0  0  0  0  0  0  0  0  0  0
  -22.7615  -25.0232   27.7993 C   0  0  0  0  0  0  0  0  0  0  0  0
  -19.5941  -29.0059   23.0838 C   0  0  0  0  0  0  0  0  0  0  0  0
  -29.4920  -12.6739   18.1957 C   0  0  0  0  0  0  0  0  0  0  0  0
  -20.9808  -28.3713   23.1165 C   0  0  0  0  0  0  0  0  0  0  0  0
  -28.0795  -12.2988   18.6496 C   0  0  0  0  0  0  0  0  0  0  0  0
  -30.4365  -12.8655   19.3810 C   0  0  0  0  0  0  0  0  0  0  0  0
  -28.5494  -13.4266   20.8619 C   0  0  0  0  0  0  0  0  0  0  0  0
  -20.8962  -26.8509   22.9353 C   0  0  1  0  0  0  0  0  0  0  0  0
  -20.7039  -25.2393   26.3703 C   0  0  1  0  0  0  0  0  0  0  0  0
  -27.5459  -13.2866   19.7056 C   0  0  2  0  0  0  0  0  0  0  0  0
  -21.3226  -27.0807   33.8690 C   0  0  0  0  0  0  0  0  0  0  0  0
  -23.0495  -28.9711   27.7604 C   0  0  0  0  0  0  0  0  0  0  0  0
  -23.3155  -29.2170   30.2377 C   0  0  0  0  0  0  0  0  0  0  0  0
  -21.1054  -29.6662   29.1717 C   0  0  0  0  0  0  0  0  0  0  0  0
  -20.3416  -23.6960   32.4344 C   0  0  0  0  0  0  0  0  0  0  0  0
  -28.0460  -19.0870   25.0346 C   0  0  0  0  0  0  0  0  0  0  0  0
  -25.9611  -20.1345   26.0979 C   0  0  0  0  0  0  0  0  0  1  0  0
  -21.9288  -27.2833   29.3608 C   0  0  1  0  0  0  0  0  0  0  0  0
  -20.8349  -26.1174   32.7979 C   0  0  2  0  0  0  0  0  0  0  0  0
  -32.3382  -19.2974   25.4009 C   0  0  0  0  0  0  0  0  0  0  0  0
  -22.3542  -28.7593   29.1200 C   0  0  0  0  0  0  0  0  0  0  0  0
  -25.8416  -11.5910   20.2547 N   0  0  0  0  0  0  0  0  0  0  0  0
  -26.1646  -12.8941   20.1954 N   0  0  0  0  0  0  0  0  0  0  0  0
  -21.4570  -25.6599   27.5536 N   0  0  0  0  0  0  0  0  0  0  0  0
  -29.8674  -13.8173   20.3375 N   0  0  0  0  0  0  0  0  0  0  0  0
  -25.3217  -15.0695   20.6051 N   0  0  0  0  0  0  0  0  0  0  0  0
  -21.8753  -12.3843   21.7489 N   0  0  0  0  0  0  0  0  0  0  0  0
  -29.9346  -15.8277   21.5689 N   0  0  0  0  0  0  0  0  0  0  0  0
  -29.4851  -19.1030   25.0975 N   0  0  0  0  0  0  0  0  0  0  0  0
  -20.4791  -26.2176   24.1679 N   0  0  0  0  0  0  0  0  0  0  0  0
  -21.2437  -27.0581   30.6290 N   0  0  0  0  0  0  0  0  0  0  0  0
  -20.8226  -24.7425   33.3727 N   0  3  0  0  0  0  0  0  0  0  0  0
  -22.5587  -14.5668   21.5797 O   0  0  0  0  0  0  0  0  0  0  0  0
  -22.5684  -26.0738   25.1861 O   0  0  0  0  0  0  0  0  0  0  0  0
  -28.1810  -20.7119   26.8128 O   0  0  0  0  0  0  0  0  0  0  0  0
  -19.9183  -27.3233   28.1028 O   0  0  0  0  0  0  0  0  0  0  0  0
  -22.7368  -25.4847   31.4488 O   0  0  0  0  0  0  0  0  0  0  0  0
  -31.6957  -15.2237   20.1850 O   0  0  0  0  0  0  0  0  0  0  0  0
  -21.8196   -6.8185   21.5177 O   0  0  0  0  0  0  0  0  0  0  0  0
  -25.5338  -21.0523   27.1035 O   0  0  0  0  0  0  0  0  0  1  0  0
  -16.6085   -6.5408   19.7368 F   0  0  0  0  0  0  0  0  0  0  0  0
  -33.8323  -17.6625   23.6825 F   0  0  0  0  0  0  0  0  0  0  0  0
  -19.8946   -8.5486   22.4892 F   0  0  0  0  0  0  0  0  0  0  0  0
  -31.4466  -20.0130   26.1463 F   0  0  0  0  0  0  0  0  0  0  0  0
  -33.1155  -18.6372   26.3078 F   0  0  0  0  0  0  0  0  0  0  0  0
  -33.1554  -20.2204   24.8176 F   0  0  0  0  0  0  0  0  0  0  0  0
  1  2  1  0  0  0  0
  1  5  2  0  0  0  0
  2  6  2  0  0  0  0
  3  8  2  0  0  0  0
  3 17  1  0  0  0  0
  4  9  1  0  0  0  0
  4 17  2  0  0  0  0
  5 19  1  0  0  0  0
  6 21  1  0  0  0  0
  7 10  2  0  0  0  0
  7 20  1  0  0  0  0
  8 26  1  0  0  0  0
  9 26  2  0  0  0  0
 10 27  1  0  0  0  0
 11 12  2  0  0  0  0
 11 28  1  0  0  0  0
 12 29  1  0  0  0  0
 13 22  1  0  0  0  0
 13 27  2  0  0  0  0
 14 24  2  0  0  0  0
 14 25  1  0  0  0  0
 15 24  1  0  0  0  0
 15 30  2  0  0  0  0
 16 29  2  0  0  0  0
 16 31  1  0  0  0  0
 17 32  1  0  0  0  0
 18 32  1  0  0  0  0
 18 33  2  0  0  0  0
 18 34  1  0  0  0  0
 19 21  2  0  0  0  0
 19 40  1  0  0  0  0
 20 22  2  0  0  0  0
 20 41  1  0  0  0  0
 21 49  1  0  0  0  0
 22 42  1  0  0  0  0
 23 25  2  0  0  0  0
 23 30  1  0  0  0  0
 23 61  1  0  0  0  0
 24 69  1  0  0  0  0
 25 70  1  0  0  0  0
 26 80  1  0  0  0  0
 27 81  1  0  0  0  0
 28 31  2  0  0  0  0
 28 80  1  0  0  0  0
 29 82  1  0  0  0  0
 30 83  1  0  0  0  0
 31 84  1  0  0  0  0
 32 63  2  0  0  0  0
 33 64  1  0  0  0  0
 33 67  1  0  0  0  0
 34 68  1  0  0  0  0
 34 74  2  0  0  0  0
 35 50  1  0  0  0  0
 35 71  1  0  0  0  0
 35 75  2  0  0  0  0
 36 57  1  0  0  0  0
 36 58  1  0  0  0  0
 36 76  2  0  0  0  0
 37 59  1  0  0  0  0
 37 65  1  0  0  0  0
 37 77  2  0  0  0  0
 38 60  1  0  0  0  0
 38 72  1  0  0  0  0
 38 78  2  0  0  0  0
 39 66  1  0  0  0  0
 39 69  1  0  0  0  0
 39 79  2  0  0  0  0
 40 43  1  0  0  0  0
 41 50  1  0  0  0  0
 42 65  1  0  0  0  0
 43 45  1  0  0  0  0
 44 46  1  0  0  0  0
 44 47  1  0  0  0  0
 45 49  1  0  0  0  0
 46 51  1  0  0  0  0
 47 66  1  0  0  0  0
 48 51  1  0  0  0  0
 48 66  1  0  0  0  0
 49 71  1  0  0  0  0
 50 65  1  0  0  0  0
 51 64  1  0  0  0  0
 52 60  1  0  0  0  0
 53 62  1  0  0  0  0
 54 62  1  0  0  0  0
 55 62  1  0  0  0  0
 56 73  1  0  0  0  0
 57 70  1  0  0  0  0
 58 81  1  0  0  0  0
 59 62  1  0  0  0  0
 59 72  1  0  0  0  0
 60 73  1  0  0  0  0
 61 85  1  0  0  0  0
 61 86  1  0  0  0  0
 61 87  1  0  0  0  0
 63 64  1  0  0  0  0
M  CHG  1  73   1
M  ISO  4  39 100  58 101  69 100  81 101
M  END
> <Batch ID>
0170

> <Smiles>
CNC(C)C(=O)NC(C(=O)N1Cc2cc([101O:1][101CH2:1]C(=O)CNc3cc([100NH:0][100C:0](=O)N4CCCC(n5nc(-c6ccc(Oc7ccc(F)cc7F)cc6)c(C(N)=O)c5N)C4)cc(F)c3C(F)(F)F)ccc2CC1C(=O)NC1CCCc2ccccc21)C(C)(C)C

> <Shape>
0.195

> <Color>
0.196

> <Negative vol penalty>
0.000

$$$$

  -OEChem-04052304203D

 89 97  0     1  0  0  0  0  0999 V2000
  -23.0505  -19.8617   25.2411 C   0  0  0  0  0  0  0  0  0  0  0  0
  -23.9929  -20.5504   24.4842 C   0  0  0  0  0  0  0  0  0  0  0  0
  -27.2648  -19.7591   19.1205 C   0  0  0  0  0  0  0  0  0  0  0  0
  -24.2175  -15.5473   22.4325 C   0  0  0  0  0  0  0  0  0  0  0  0
  -23.2239  -15.5618   20.2303 C   0  0  0  0  0  0  0  0  0  0  0  0
  -28.1781  -20.6692   19.6526 C   0  0  0  0  0  0  0  0  0  0  0  0
  -21.7355  -20.3214   25.3013 C   0  0  0  0  0  0  0  0  0  0  0  0
  -23.6206  -21.6986   23.7860 C   0  0  0  0  0  0  0  0  0  0  0  0
  -26.9716  -25.4598   24.3047 C   0  0  0  0  0  0  0  0  0  0  0  0
  -27.6400  -18.4306   18.9205 C   0  0  0  0  0  0  0  0  0  0  0  0
  -23.5315  -16.7196   22.7498 C   0  0  0  0  0  0  0  0  0  0  0  0
  -22.5378  -16.7341   20.5476 C   0  0  0  0  0  0  0  0  0  0  0  0
  -28.1372  -25.3836   23.5436 C   0  0  0  0  0  0  0  0  0  0  0  0
  -20.8035  -19.9264   20.6516 C   0  0  0  0  0  0  0  0  0  0  0  0
  -20.7939  -20.9491   19.7031 C   0  0  0  0  0  0  0  0  0  0  0  0
  -27.1955  -26.9375   21.9569 C   0  0  0  0  0  0  0  0  0  0  0  0
  -23.2051  -21.0638   19.8025 C   0  0  0  0  0  0  0  0  0  0  0  0
  -24.0638  -14.9685   21.1727 C   0  0  0  0  0  0  0  0  0  0  0  0
  -29.4666  -20.2508   19.9846 C   0  0  0  0  0  0  0  0  0  0  0  0
  -24.3302  -12.4351   21.0349 C   0  0  0  0  0  0  0  0  0  0  0  0
  -21.3492  -21.4812   24.6112 C   0  0  0  0  0  0  0  0  0  0  0  0
  -25.9031  -26.2684   23.8913 C   0  0  0  0  0  0  0  0  0  0  0  0
  -22.2990  -22.1734   23.8358 C   0  0  0  0  0  0  0  0  0  0  0  0
  -26.0184  -27.0242   22.7159 C   0  0  0  0  0  0  0  0  0  0  0  0
  -28.9285  -18.0122   19.2524 C   0  0  0  0  0  0  0  0  0  0  0  0
  -22.6916  -17.3129   21.8074 C   0  0  0  0  0  0  0  0  0  0  0  0
  -28.2482  -26.1203   22.3680 C   0  0  0  0  0  0  0  0  0  0  0  0
  -22.0139  -19.4726   21.1757 C   0  0  0  0  0  0  0  0  0  0  0  0
  -21.9947  -21.5177   19.2785 C   0  0  0  0  0  0  0  0  0  0  0  0
  -23.2147  -20.0412   20.7511 C   0  0  0  0  0  0  0  0  0  0  0  0
  -29.8419  -18.9223   19.7845 C   0  0  0  0  0  0  0  0  0  0  0  0
  -24.7727  -13.7578   20.8441 C   0  0  0  0  0  0  0  0  0  0  0  0
  -25.3598  -11.6573   20.5643 C   0  0  0  0  0  0  0  0  0  0  0  0
  -30.4309  -21.2168   20.5484 C   0  0  0  0  0  0  0  0  0  0  0  0
  -23.0985  -11.9527   21.5879 C   0  0  0  0  0  0  0  0  0  0  0  0
  -22.8787  -25.7408   23.0675 C   0  0  0  0  0  0  0  0  0  0  0  0
  -33.9063  -22.3727   19.4905 C   0  0  0  0  0  0  0  0  0  0  0  0
  -30.8514  -24.5898   20.3602 C   0  0  0  0  0  0  0  0  0  0  0  0
  -22.7433  -28.9808   22.9878 C   0  0  0  0  0  0  0  0  0  0  0  0
  -24.4050  -31.9426   22.6505 C   0  0  0  0  0  0  0  0  0  0  0  0
  -28.5188  -15.6340   18.5315 C   0  0  0  0  0  0  0  0  0  0  0  0
  -19.9052  -21.9128   24.6683 C   0  0  0  0  0  0  0  0  0  0  0  0
  -24.6630  -26.3603   24.7375 C   0  0  0  0  0  0  0  0  0  0  0  0
  -24.9080  -27.9230   22.2389 C   0  0  0  0  0  0  0  0  0  0  0  0
  -19.6797  -23.3485   24.2011 C   0  0  0  0  0  0  0  0  0  0  0  0
  -29.4120  -13.1825   21.1174 C   0  0  0  0  0  0  0  0  0  0  0  0
  -20.4273  -23.6093   22.8972 C   0  0  0  0  0  0  0  0  0  0  0  0
  -28.7368  -11.9127   20.6019 C   0  0  0  0  0  0  0  0  0  0  0  0
  -29.9239  -14.0372   19.9655 C   0  0  0  0  0  0  0  0  0  0  0  0
  -28.1636  -13.1783   18.4559 C   0  0  0  0  0  0  0  0  0  0  0  0
  -21.9395  -23.4368   23.0844 C   0  0  1  0  0  0  0  0  0  0  0  0
  -23.4372  -26.8185   23.9533 C   0  0  1  0  0  0  0  0  0  0  0  0
  -27.6700  -12.1817   19.5247 C   0  0  2  0  0  0  0  0  0  0  0  0
  -35.1108  -22.4603   18.5893 C   0  0  0  0  0  0  0  0  0  0  0  0
  -24.0201  -34.4217   22.5915 C   0  0  0  0  0  0  0  0  0  0  0  0
  -21.6455  -28.7404   20.1511 C   0  0  0  0  0  0  0  0  0  0  0  0
  -22.1764  -31.1639   19.8149 C   0  0  0  0  0  0  0  0  0  0  0  0
  -20.5283  -30.4801   21.5581 C   0  0  0  0  0  0  0  0  0  0  0  0
  -26.1180  -32.3821   25.0236 C   0  0  0  0  0  0  0  0  0  0  0  0
  -32.8418  -23.4391   19.2880 C   0  0  0  0  0  0  0  0  0  0  0  0
  -30.1110  -24.8197   21.6649 C   0  0  0  0  0  0  0  0  0  1  0  0
  -31.6867  -23.3252   20.2759 C   0  0  2  0  0  0  0  0  0  0  0  0
  -22.9883  -30.0356   21.9359 C   0  0  1  0  0  0  0  0  0  0  0  0
  -24.3569  -33.2230   23.4647 C   0  0  2  0  0  0  0  0  0  0  0  0
  -21.8550  -30.0867   20.8727 C   0  0  0  0  0  0  0  0  0  0  0  0
  -25.9888  -13.8206   20.2953 N   0  0  0  0  0  0  0  0  0  0  0  0
  -26.3192  -12.5276   20.1372 N   0  0  0  0  0  0  0  0  0  0  0  0
  -23.7131  -27.9742   23.0975 N   0  0  0  0  0  0  0  0  0  0  0  0
  -28.8412  -14.3483   19.0226 N   0  0  0  0  0  0  0  0  0  0  0  0
  -25.5290  -10.3208   20.4784 N   0  0  0  0  0  0  0  0  0  0  0  0
  -22.1497  -12.8880   22.0230 N   0  0  0  0  0  0  0  0  0  0  0  0
  -29.3062  -16.6619   19.0489 N   0  0  0  0  0  0  0  0  0  0  0  0
  -30.7610  -22.2934   19.8195 N   0  0  0  0  0  0  0  0  0  0  0  0
  -22.5026  -24.5958   23.7434 N   0  0  0  0  0  0  0  0  0  0  0  0
  -23.1908  -31.2892   22.6542 N   0  0  0  0  0  0  0  0  0  0  0  0
  -30.9316  -20.9707   21.7592 N   0  3  0  0  0  0  0  0  0  0  0  0
  -25.6736  -33.4718   24.1169 N   0  3  0  0  0  0  0  0  0  0  0  0
  -22.8535  -10.7283   21.7083 O   0  0  0  0  0  0  0  0  0  0  0  0
  -22.7939  -25.9345   21.8605 O   0  0  0  0  0  0  0  0  0  0  0  0
  -33.8104  -21.4822   20.3336 O   0  0  0  0  0  0  0  0  0  0  0  0
  -30.7682  -25.3833   19.4230 O   0  0  0  0  0  0  0  0  0  0  0  0
  -21.7325  -29.0516   23.6912 O   0  0  0  0  0  0  0  0  0  0  0  0
  -25.4173  -31.5622   22.0665 O   0  0  0  0  0  0  0  0  0  0  0  0
  -27.5905  -15.8125   17.7387 O   0  0  0  0  0  0  0  0  0  0  0  0
  -22.0217  -18.4567   22.1168 O   0  0  0  0  0  0  0  0  0  0  0  0
  -29.3845  -26.0472   21.6228 O   0  0  0  0  0  0  0  0  0  1  0  0
  -21.9855  -22.4987   18.3665 F   0  0  0  0  0  0  0  0  0  0  0  0
  -24.3807  -19.6086   21.2501 F   0  0  0  0  0  0  0  0  0  0  0  0
  -31.0816  -18.5215   20.1047 F   0  0  0  0  0  0  0  0  0  0  0  0
  1  2  1  0  0  0  0
  1  7  2  0  0  0  0
  2  8  2  0  0  0  0
  3  6  2  0  0  0  0
  3 10  1  0  0  0  0
  4 11  2  0  0  0  0
  4 18  1  0  0  0  0
  5 12  1  0  0  0  0
  5 18  2  0  0  0  0
  6 19  1  0  0  0  0
  7 21  1  0  0  0  0
  8 23  1  0  0  0  0
  9 13  2  0  0  0  0
  9 22  1  0  0  0  0
 10 25  2  0  0  0  0
 11 26  1  0  0  0  0
 12 26  2  0  0  0  0
 13 27  1  0  0  0  0
 14 15  2  0  0  0  0
 14 28  1  0  0  0  0
 15 29  1  0  0  0  0
 16 24  1  0  0  0  0
 16 27  2  0  0  0  0
 17 29  2  0  0  0  0
 17 30  1  0  0  0  0
 18 32  1  0  0  0  0
 19 31  2  0  0  0  0
 19 34  1  0  0  0  0
 20 32  1  0  0  0  0
 20 33  2  0  0  0  0
 20 35  1  0  0  0  0
 21 23  2  0  0  0  0
 21 42  1  0  0  0  0
 22 24  2  0  0  0  0
 22 43  1  0  0  0  0
 23 51  1  0  0  0  0
 24 44  1  0  0  0  0
 25 31  1  0  0  0  0
 25 72  1  0  0  0  0
 26 85  1  0  0  0  0
 27 86  1  0  0  0  0
 28 30  2  0  0  0  0
 28 85  1  0  0  0  0
 29 87  1  0  0  0  0
 30 88  1  0  0  0  0
 31 89  1  0  0  0  0
 32 66  2  0  0  0  0
 33 67  1  0  0  0  0
 33 70  1  0  0  0  0
 34 73  1  0  0  0  0
 34 76  2  0  0  0  0
 35 71  1  0  0  0  0
 35 78  2  0  0  0  0
 36 52  1  0  0  0  0
 36 74  1  0  0  0  0
 36 79  2  0  0  0  0
 37 54  1  0  0  0  0
 37 60  1  0  0  0  0
 37 80  2  0  0  0  0
 38 61  1  0  0  0  0
 38 62  1  0  0  0  0
 38 81  2  0  0  0  0
 39 63  1  0  0  0  0
 39 68  1  0  0  0  0
 39 82  2  0  0  0  0
 40 64  1  0  0  0  0
 40 75  1  0  0  0  0
 40 83  2  0  0  0  0
 41 69  1  0  0  0  0
 41 72  1  0  0  0  0
 41 84  2  0  0  0  0
 42 45  1  0  0  0  0
 43 52  1  0  0  0  0
 44 68  1  0  0  0  0
 45 47  1  0  0  0  0
 46 48  1  0  0  0  0
 46 49  1  0  0  0  0
 47 51  1  0  0  0  0
 48 53  1  0  0  0  0
 49 69  1  0  0  0  0
 50 53  1  0  0  0  0
 50 69  1  0  0  0  0
 51 74  1  0  0  0  0
 52 68  1  0  0  0  0
 53 67  1  0  0  0  0
 55 64  1  0  0  0  0
 56 65  1  0  0  0  0
 57 65  1  0  0  0  0
 58 65  1  0  0  0  0
 59 77  1  0  0  0  0
 60 62  1  0  0  0  0
 61 86  1  0  0  0  0
 62 73  1  0  0  0  0
 63 65  1  0  0  0  0
 63 75  1  0  0  0  0
 64 77  1  0  0  0  0
 66 67  1  0  0  0  0
M  CHG  2  76   1  77   1
M  ISO  4  41 100  61 101  72 100  86 101
M  END
> <Batch ID>
0170

> <Smiles>
CNC(C)C(=O)NC(C(=O)N1Cc2cc([101O:1][101CH2:1]C(=O)C(CC(C)=O)NC(=N)c3cccc([100NH:0][100C:0](=O)N4CCCC(n5nc(-c6ccc(Oc7ccc(F)cc7F)cc6)c(C(N)=O)c5N)C4)c3F)ccc2CC1C(=O)NC1CCCc2ccccc21)C(C)(C)C

> <Shape>
0.222

> <Color>
0.090

> <Negative vol penalty>
0.000

$$$$

  -OEChem-04052304203D

 83 91  0     1  0  0  0  0  0999 V2000
  -31.9027  -13.2096   21.3900 C   0  0  0  0  0  0  0  0  0  0  0  0
  -31.3113  -14.3824   21.8486 C   0  0  0  0  0  0  0  0  0  0  0  0
  -29.0986  -26.3236   19.4982 C   0  0  0  0  0  0  0  0  0  0  0  0
  -27.1433  -24.9046   19.5100 C   0  0  0  0  0  0  0  0  0  0  0  0
  -31.2233  -12.3955   20.4848 C   0  0  0  0  0  0  0  0  0  0  0  0
  -30.0405  -14.7423   21.4013 C   0  0  0  0  0  0  0  0  0  0  0  0
  -24.0803  -18.0554   23.5956 C   0  0  0  0  0  0  0  0  0  0  0  0
  -29.9155  -25.1972   19.4003 C   0  0  0  0  0  0  0  0  0  0  0  0
  -27.9602  -23.7781   19.4121 C   0  0  0  0  0  0  0  0  0  0  0  0
  -23.2108  -19.0749   23.2106 C   0  0  0  0  0  0  0  0  0  0  0  0
  -29.8823  -21.9080   21.4709 C   0  0  0  0  0  0  0  0  0  0  0  0
  -29.5955  -20.8253   22.3021 C   0  0  0  0  0  0  0  0  0  0  0  0
  -19.0572  -28.2569   23.0686 C   0  0  0  0  0  0  0  0  0  0  0  0
  -22.0988  -17.5507   21.7074 C   0  0  0  0  0  0  0  0  0  0  0  0
  -20.2460  -26.1801   23.3095 C   0  0  0  0  0  0  0  0  0  0  0  0
  -29.2589  -19.4252   20.3622 C   0  0  0  0  0  0  0  0  0  0  0  0
  -18.2518  -27.6253   22.1347 C   0  0  0  0  0  0  0  0  0  0  0  0
  -27.7125  -26.1773   19.5531 C   0  0  0  0  0  0  0  0  0  0  0  0
  -26.3193  -28.0876   18.5955 C   0  0  0  0  0  0  0  0  0  0  0  0
  -29.9396  -12.7406   20.0336 C   0  0  0  0  0  0  0  0  0  0  0  0
  -23.9724  -16.7766   23.0304 C   0  0  0  0  0  0  0  0  0  0  0  0
  -29.3439  -13.9327   20.4881 C   0  0  0  0  0  0  0  0  0  0  0  0
  -22.9666  -16.5160   22.0888 C   0  0  0  0  0  0  0  0  0  0  0  0
  -20.0710  -27.5135   23.6626 C   0  0  0  0  0  0  0  0  0  0  0  0
  -29.3463  -23.9245   19.3572 C   0  0  0  0  0  0  0  0  0  0  0  0
  -22.2217  -18.8235   22.2643 C   0  0  0  0  0  0  0  0  0  0  0  0
  -29.8573  -21.7494   20.0853 C   0  0  0  0  0  0  0  0  0  0  0  0
  -29.2838  -19.5838   21.7478 C   0  0  0  0  0  0  0  0  0  0  0  0
  -29.5457  -20.5080   19.5309 C   0  0  0  0  0  0  0  0  0  0  0  0
  -26.8682  -27.3404   19.6548 C   0  0  0  0  0  0  0  0  0  0  0  0
  -19.3872  -25.6414   22.3649 C   0  0  0  0  0  0  0  0  0  0  0  0
  -25.6004  -29.0818   19.2130 C   0  0  0  0  0  0  0  0  0  0  0  0
  -26.4476  -27.8998   17.1799 C   0  0  0  0  0  0  0  0  0  0  0  0
  -25.8747  -14.9325   21.2742 C   0  0  0  0  0  0  0  0  0  0  0  0
  -20.5190  -22.0828   21.9948 C   0  0  0  0  0  0  0  0  0  0  0  0
  -23.5160  -12.7496   21.7141 C   0  0  0  0  0  0  0  0  0  0  0  0
  -20.2290  -12.1331   22.3939 C   0  0  0  0  0  0  0  0  0  0  0  0
  -23.0360  -29.5106   24.6066 C   0  0  0  0  0  0  0  0  0  0  0  0
  -29.2638  -11.8530   19.0186 C   0  0  0  0  0  0  0  0  0  0  0  0
  -24.9010  -15.6805   23.4761 C   0  0  0  0  0  0  0  0  0  0  0  0
  -22.7958  -15.1549   21.4670 C   0  0  0  0  0  0  0  0  0  0  0  0
  -27.7662  -12.1147   18.8817 C   0  0  0  0  0  0  0  0  0  0  0  0
  -25.4938  -31.6852   23.2257 C   0  0  0  0  0  0  0  0  0  0  0  0
  -27.4929  -13.6120   18.7803 C   0  0  0  0  0  0  0  0  0  0  0  0
  -26.0752  -30.8857   22.0584 C   0  0  0  0  0  0  0  0  0  0  0  0
  -25.1510  -30.7853   24.4109 C   0  0  0  0  0  0  0  0  0  0  0  0
  -24.8559  -28.8443   22.9212 C   0  0  0  0  0  0  0  0  0  0  0  0
  -27.9566  -14.3444   20.0452 C   0  0  1  0  0  0  0  0  0  0  0  0
  -25.0279  -14.5533   22.4560 C   0  0  1  0  0  0  0  0  0  0  0  0
  -25.1652  -29.7011   21.6817 C   0  0  2  0  0  0  0  0  0  0  0  0
  -18.5897  -10.2502   22.6494 C   0  0  0  0  0  0  0  0  0  0  0  0
  -23.4325  -12.4141   18.6825 C   0  0  0  0  0  0  0  0  0  0  0  0
  -21.2093  -11.2914   18.9379 C   0  0  0  0  0  0  0  0  0  0  0  0
  -23.2412  -10.2809   19.9738 C   0  0  0  0  0  0  0  0  0  0  0  0
  -19.6556  -12.8596   25.2050 C   0  0  0  0  0  0  0  0  0  0  0  0
  -20.9656  -28.1439   24.6750 C   0  0  0  0  0  0  0  0  0  0  0  0
  -20.6015  -23.4732   22.5881 C   0  0  0  0  0  0  0  0  0  0  0  0
  -21.5509  -21.0929   22.4997 C   0  0  0  0  0  0  0  0  0  1  0  0
  -22.2511  -12.3794   20.9780 C   0  0  1  0  0  0  0  0  0  0  0  0
  -19.5638  -11.1737   23.3643 C   0  0  2  0  0  0  0  0  0  0  0  0
  -22.5377  -11.6177   19.6531 C   0  0  0  0  0  0  0  0  0  0  0  0
  -18.3912  -26.3321   21.7662 N   0  0  0  0  0  0  0  0  0  0  0  0
  -26.5275  -27.8191   20.8543 N   0  0  0  0  0  0  0  0  0  0  0  0
  -25.7567  -28.8778   20.5525 N   0  0  0  0  0  0  0  0  0  0  0  0
  -23.7322  -14.1178   21.9308 N   0  0  0  0  0  0  0  0  0  0  0  0
  -24.2845  -29.6830   23.9866 N   0  0  0  0  0  0  0  0  0  0  0  0
  -24.8563  -30.1020   18.7355 N   0  0  0  0  0  0  0  0  0  0  0  0
  -27.2230  -26.8286   16.7156 N   0  0  0  0  0  0  0  0  0  0  0  0
  -19.5752  -24.3103   22.0215 N   0  0  0  0  0  0  0  0  0  0  0  0
  -27.0045  -14.1524   21.1181 N   0  0  0  0  0  0  0  0  0  0  0  0
  -21.4284  -11.6378   21.9275 N   0  0  0  0  0  0  0  0  0  0  0  0
  -22.2748  -28.4457   24.1405 N   0  0  0  0  0  0  0  0  0  0  0  0
  -18.8151  -11.9292   24.4083 N   0  3  0  0  0  0  0  0  0  0  0  0
  -25.9044  -28.6690   16.3512 O   0  0  0  0  0  0  0  0  0  0  0  0
  -25.5279  -15.8631   20.5562 O   0  0  0  0  0  0  0  0  0  0  0  0
  -19.6751  -21.7657   21.1575 O   0  0  0  0  0  0  0  0  0  0  0  0
  -24.2804  -11.8572   22.0895 O   0  0  0  0  0  0  0  0  0  0  0  0
  -19.7324  -13.2120   22.0781 O   0  0  0  0  0  0  0  0  0  0  0  0
  -22.6275  -30.2541   25.5051 O   0  0  0  0  0  0  0  0  0  0  0  0
  -30.1431  -22.8252   19.2614 O   0  0  0  0  0  0  0  0  0  0  0  0
  -21.3721  -19.8170   21.8862 O   0  0  0  0  0  0  0  0  0  1  0  0
  -29.0100  -18.5437   22.5462 F   0  0  0  0  0  0  0  0  0  0  0  0
  -29.5212  -20.3492   18.2005 F   0  0  0  0  0  0  0  0  0  0  0  0
  1  2  1  0  0  0  0
  1  5  2  0  0  0  0
  2  6  2  0  0  0  0
  3  8  2  0  0  0  0
  3 18  1  0  0  0  0
  4  9  1  0  0  0  0
  4 18  2  0  0  0  0
  5 20  1  0  0  0  0
  6 22  1  0  0  0  0
  7 10  2  0  0  0  0
  7 21  1  0  0  0  0
  8 25  1  0  0  0  0
  9 25  2  0  0  0  0
 10 26  1  0  0  0  0
 11 12  2  0  0  0  0
 11 27  1  0  0  0  0
 12 28  1  0  0  0  0
 13 17  2  0  0  0  0
 13 24  1  0  0  0  0
 14 23  1  0  0  0  0
 14 26  2  0  0  0  0
 15 24  2  0  0  0  0
 15 31  1  0  0  0  0
 16 28  2  0  0  0  0
 16 29  1  0  0  0  0
 17 62  1  0  0  0  0
 18 30  1  0  0  0  0
 19 30  1  0  0  0  0
 19 32  2  0  0  0  0
 19 33  1  0  0  0  0
 20 22  2  0  0  0  0
 20 39  1  0  0  0  0
 21 23  2  0  0  0  0
 21 40  1  0  0  0  0
 22 48  1  0  0  0  0
 23 41  1  0  0  0  0
 24 56  1  0  0  0  0
 25 80  1  0  0  0  0
 26 81  1  0  0  0  0
 27 29  2  0  0  0  0
 27 80  1  0  0  0  0
 28 82  1  0  0  0  0
 29 83  1  0  0  0  0
 30 63  2  0  0  0  0
 31 62  2  0  0  0  0
 31 69  1  0  0  0  0
 32 64  1  0  0  0  0
 32 67  1  0  0  0  0
 33 68  1  0  0  0  0
 33 74  2  0  0  0  0
 34 49  1  0  0  0  0
 34 70  1  0  0  0  0
 34 75  2  0  0  0  0
 35 57  1  0  0  0  0
 35 58  1  0  0  0  0
 35 76  2  0  0  0  0
 36 59  1  0  0  0  0
 36 65  1  0  0  0  0
 36 77  2  0  0  0  0
 37 60  1  0  0  0  0
 37 71  1  0  0  0  0
 37 78  2  0  0  0  0
 38 66  1  0  0  0  0
 38 72  1  0  0  0  0
 38 79  2  0  0  0  0
 39 42  1  0  0  0  0
 40 49  1  0  0  0  0
 41 65  1  0  0  0  0
 42 44  1  0  0  0  0
 43 45  1  0  0  0  0
 43 46  1  0  0  0  0
 44 48  1  0  0  0  0
 45 50  1  0  0  0  0
 46 66  1  0  0  0  0
 47 50  1  0  0  0  0
 47 66  1  0  0  0  0
 48 70  1  0  0  0  0
 49 65  1  0  0  0  0
 50 64  1  0  0  0  0
 51 60  1  0  0  0  0
 52 61  1  0  0  0  0
 53 61  1  0  0  0  0
 54 61  1  0  0  0  0
 55 73  1  0  0  0  0
 56 72  1  0  0  0  0
 57 69  1  0  0  0  0
 58 81  1  0  0  0  0
 59 61  1  0  0  0  0
 59 71  1  0  0  0  0
 60 73  1  0  0  0  0
 63 64  1  0  0  0  0
M  CHG  1  73   1
M  ISO  4  38 100  58 101  72 100  81 101
M  END
> <Batch ID>
0170

> <Smiles>
CNC(C)C(=O)NC(C(=O)N1Cc2cc([101O:1][101CH2:1]C(=O)CNc3cc(C[100NH:0][100C:0](=O)N4CCCC(n5nc(-c6ccc(Oc7ccc(F)cc7F)cc6)c(C(N)=O)c5N)C4)ccn3)ccc2CC1C(=O)NC1CCCc2ccccc21)C(C)(C)C

> <Shape>
0.270

> <Color>
0.060

> <Negative vol penalty>
0.000

$$$$

  -OEChem-04052304203D

 85 94  0     1  0  0  0  0  0999 V2000
  -30.0044  -23.0601   25.5319 C   0  0  0  0  0  0  0  0  0  0  0  0
  -29.0016  -22.1339   25.8001 C   0  0  0  0  0  0  0  0  0  0  0  0
  -25.1982  -30.3601   19.7351 C   0  0  0  0  0  0  0  0  0  0  0  0
  -24.1106  -29.2001   21.5540 C   0  0  0  0  0  0  0  0  0  0  0  0
  -30.3173  -23.3846   24.2125 C   0  0  0  0  0  0  0  0  0  0  0  0
  -28.3102  -21.5325   24.7490 C   0  0  0  0  0  0  0  0  0  0  0  0
  -18.7749  -19.5963   17.4908 C   0  0  0  0  0  0  0  0  0  0  0  0
  -25.1346  -15.3656   22.9599 C   0  0  0  0  0  0  0  0  0  0  0  0
  -19.1317  -20.8993   17.1438 C   0  0  0  0  0  0  0  0  0  0  0  0
  -25.3935  -31.4687   20.5588 C   0  0  0  0  0  0  0  0  0  0  0  0
  -24.3060  -30.3086   22.3778 C   0  0  0  0  0  0  0  0  0  0  0  0
  -23.9226  -14.8806   22.4704 C   0  0  0  0  0  0  0  0  0  0  0  0
  -26.8324  -31.6685   24.1635 C   0  0  0  0  0  0  0  0  0  0  0  0
  -27.3011  -31.4383   25.4569 C   0  0  0  0  0  0  0  0  0  0  0  0
  -24.6028  -15.4594   20.2296 C   0  0  0  0  0  0  0  0  0  0  0  0
  -21.3351  -20.5421   18.0683 C   0  0  0  0  0  0  0  0  0  0  0  0
  -25.3102  -32.4655   26.3613 C   0  0  0  0  0  0  0  0  0  0  0  0
  -24.5567  -29.2258   20.2327 C   0  0  0  0  0  0  0  0  0  0  0  0
  -25.2242  -26.9881   19.2058 C   0  0  0  0  0  0  0  0  0  0  0  0
  -29.6360  -22.7797   23.1445 C   0  0  0  0  0  0  0  0  0  0  0  0
  -26.0869  -15.9121   22.0876 C   0  0  0  0  0  0  0  0  0  0  0  0
  -28.6134  -21.8502   23.4141 C   0  0  0  0  0  0  0  0  0  0  0  0
  -19.6982  -18.7662   18.1266 C   0  0  0  0  0  0  0  0  0  0  0  0
  -25.8272  -15.9483   20.7102 C   0  0  0  0  0  0  0  0  0  0  0  0
  -20.4118  -21.3722   17.4326 C   0  0  0  0  0  0  0  0  0  0  0  0
  -24.9474  -31.4429   21.8802 C   0  0  0  0  0  0  0  0  0  0  0  0
  -23.6553  -14.9301   21.1054 C   0  0  0  0  0  0  0  0  0  0  0  0
  -25.6025  -32.2973   23.9690 C   0  0  0  0  0  0  0  0  0  0  0  0
  -26.5400  -31.8368   26.5558 C   0  0  0  0  0  0  0  0  0  0  0  0
  -20.9783  -19.2391   18.4153 C   0  0  0  0  0  0  0  0  0  0  0  0
  -24.8414  -32.6957   25.0679 C   0  0  0  0  0  0  0  0  0  0  0  0
  -24.3541  -28.0806   19.3821 C   0  0  0  0  0  0  0  0  0  0  0  0
  -24.5790  -26.1773   18.3041 C   0  0  0  0  0  0  0  0  0  0  0  0
  -19.8651  -16.0649   20.3626 C   0  0  0  0  0  0  0  0  0  0  0  0
  -26.5013  -26.7292   19.8037 C   0  0  0  0  0  0  0  0  0  0  0  0
  -27.4394  -18.7685   21.7476 C   0  0  0  0  0  0  0  0  0  0  0  0
  -29.2362  -17.2221   19.5335 C   0  0  0  0  0  0  0  0  0  0  0  0
  -29.5367  -14.6115   17.3560 C   0  0  0  0  0  0  0  0  0  0  0  0
  -19.9772  -23.6504   16.4491 C   0  0  0  0  0  0  0  0  0  0  0  0
  -29.9771  -23.1976   21.7361 C   0  0  0  0  0  0  0  0  0  0  0  0
  -27.4005  -16.4065   22.6284 C   0  0  0  0  0  0  0  0  0  0  0  0
  -26.8248  -16.5066   19.7295 C   0  0  0  0  0  0  0  0  0  0  0  0
  -29.4533  -22.2367   20.6719 C   0  0  0  0  0  0  0  0  0  0  0  0
  -20.4876  -27.0290   15.4481 C   0  0  0  0  0  0  0  0  0  0  0  0
  -27.9986  -21.8724   20.9509 C   0  0  0  0  0  0  0  0  0  0  0  0
  -21.6106  -27.5139   16.3679 C   0  0  0  0  0  0  0  0  0  0  0  0
  -19.5333  -26.0795   16.1702 C   0  0  0  0  0  0  0  0  0  0  0  0
  -21.3003  -25.4260   17.7576 C   0  0  0  0  0  0  0  0  0  0  0  0
  -27.8579  -21.1580   22.3005 C   0  0  1  0  0  0  0  0  0  0  0  0
  -19.3072  -17.3511   18.4999 C   0  0  2  0  0  0  0  0  0  0  0  0
  -20.4362  -14.9915   19.4650 C   0  0  2  0  0  0  0  0  0  0  0  0
  -28.0850  -17.4123   21.7079 C   0  0  1  0  0  0  0  0  0  0  0  0
  -22.3240  -26.3340   17.0566 C   0  0  2  0  0  0  0  0  0  0  0  0
  -31.1031  -13.6342   15.6564 C   0  0  0  0  0  0  0  0  0  0  0  0
  -28.4298  -19.3922   17.5460 C   0  0  0  0  0  0  0  0  0  0  0  0
  -29.2069  -17.8915   15.6987 C   0  0  0  0  0  0  0  0  0  0  0  0
  -30.8284  -18.6967   17.4148 C   0  0  0  0  0  0  0  0  0  0  0  0
  -29.8013  -12.0884   18.8800 C   0  0  0  0  0  0  0  0  0  0  0  0
  -21.9585  -15.0744   19.4453 C   0  0  0  0  0  0  0  0  0  1  0  0
  -29.1114  -16.9541   18.0531 C   0  0  1  0  0  0  0  0  0  0  0  0
  -30.6666  -13.6273   17.1132 C   0  0  2  0  0  0  0  0  0  0  0  0
  -29.3743  -18.2248   17.1966 C   0  0  0  0  0  0  0  0  0  0  0  0
  -23.2411  -27.9766   18.6510 N   0  0  0  0  0  0  0  0  0  0  0  0
  -19.3433  -17.1778   19.9655 N   0  0  0  0  0  0  0  0  0  0  0  0
  -23.4075  -26.8091   18.0065 N   0  0  0  0  0  0  0  0  0  0  0  0
  -19.8194  -15.1212   18.1469 N   0  0  0  0  0  0  0  0  0  0  0  0
  -28.0919  -16.9835   20.3078 N   0  0  0  0  0  0  0  0  0  0  0  0
  -20.2792  -24.9847   16.7946 N   0  0  0  0  0  0  0  0  0  0  0  0
  -24.9053  -24.9928   17.7447 N   0  0  0  0  0  0  0  0  0  0  0  0
  -27.0176  -27.6663   20.7090 N   0  0  0  0  0  0  0  0  0  0  0  0
  -20.7736  -22.6966   17.0819 N   0  0  0  0  0  0  0  0  0  0  0  0
  -28.2754  -19.7770   22.1872 N   0  0  0  0  0  0  0  0  0  0  0  0
  -30.0092  -15.8414   17.7626 N   0  0  0  0  0  0  0  0  0  0  0  0
  -30.2352  -12.2456   17.4679 N   0  3  0  0  0  0  0  0  0  0  0  0
  -27.1726  -25.7053   19.5303 O   0  0  0  0  0  0  0  0  0  0  0  0
  -26.2697  -18.8910   21.4034 O   0  0  0  0  0  0  0  0  0  0  0  0
  -30.3116  -17.6213   19.9873 O   0  0  0  0  0  0  0  0  0  0  0  0
  -28.3534  -14.3197   17.1970 O   0  0  0  0  0  0  0  0  0  0  0  0
  -19.0965  -23.3756   15.6300 O   0  0  0  0  0  0  0  0  0  0  0  0
  -20.1239  -16.4743   17.7082 O   0  0  0  0  0  0  0  0  0  0  0  0
  -25.1381  -32.5244   22.6843 O   0  0  0  0  0  0  0  0  0  0  0  0
  -22.4729  -14.4580   20.6251 O   0  0  0  0  0  0  0  0  0  1  0  0
  -26.9896  -31.6143   27.7978 F   0  0  0  0  0  0  0  0  0  0  0  0
  -21.8723  -18.4489   19.0259 F   0  0  0  0  0  0  0  0  0  0  0  0
  -23.6586  -33.2992   24.8874 F   0  0  0  0  0  0  0  0  0  0  0  0
  1  2  1  0  0  0  0
  1  5  2  0  0  0  0
  2  6  2  0  0  0  0
  3 10  2  0  0  0  0
  3 18  1  0  0  0  0
  4 11  1  0  0  0  0
  4 18  2  0  0  0  0
  5 20  1  0  0  0  0
  6 22  1  0  0  0  0
  7  9  2  0  0  0  0
  7 23  1  0  0  0  0
  8 12  2  0  0  0  0
  8 21  1  0  0  0  0
  9 25  1  0  0  0  0
 10 26  1  0  0  0  0
 11 26  2  0  0  0  0
 12 27  1  0  0  0  0
 13 14  2  0  0  0  0
 13 28  1  0  0  0  0
 14 29  1  0  0  0  0
 15 24  1  0  0  0  0
 15 27  2  0  0  0  0
 16 25  2  0  0  0  0
 16 30  1  0  0  0  0
 17 29  2  0  0  0  0
 17 31  1  0  0  0  0
 18 32  1  0  0  0  0
 19 32  1  0  0  0  0
 19 33  2  0  0  0  0
 19 35  1  0  0  0  0
 20 22  2  0  0  0  0
 20 40  1  0  0  0  0
 21 24  2  0  0  0  0
 21 41  1  0  0  0  0
 22 49  1  0  0  0  0
 23 30  2  0  0  0  0
 23 50  1  0  0  0  0
 24 42  1  0  0  0  0
 25 71  1  0  0  0  0
 26 81  1  0  0  0  0
 27 82  1  0  0  0  0
 28 31  2  0  0  0  0
 28 81  1  0  0  0  0
 29 83  1  0  0  0  0
 30 84  1  0  0  0  0
 31 85  1  0  0  0  0
 32 63  2  0  0  0  0
 33 65  1  0  0  0  0
 33 69  1  0  0  0  0
 34 51  1  0  0  0  0
 34 64  2  0  0  0  0
 35 70  1  0  0  0  0
 35 75  2  0  0  0  0
 36 52  1  0  0  0  0
 36 72  1  0  0  0  0
 36 76  2  0  0  0  0
 37 60  1  0  0  0  0
 37 67  1  0  0  0  0
 37 77  2  0  0  0  0
 38 61  1  0  0  0  0
 38 73  1  0  0  0  0
 38 78  2  0  0  0  0
 39 68  1  0  0  0  0
 39 71  1  0  0  0  0
 39 79  2  0  0  0  0
 40 43  1  0  0  0  0
 41 52  1  0  0  0  0
 42 67  1  0  0  0  0
 43 45  1  0  0  0  0
 44 46  1  0  0  0  0
 44 47  1  0  0  0  0
 45 49  1  0  0  0  0
 46 53  1  0  0  0  0
 47 68  1  0  0  0  0
 48 53  1  0  0  0  0
 48 68  1  0  0  0  0
 49 72  1  0  0  0  0
 50 64  1  0  0  0  0
 50 80  1  0  0  0  0
 51 59  1  0  0  0  0
 51 66  1  0  0  0  0
 52 67  1  0  0  0  0
 53 65  1  0  0  0  0
 54 61  1  0  0  0  0
 55 62  1  0  0  0  0
 56 62  1  0  0  0  0
 57 62  1  0  0  0  0
 58 74  1  0  0  0  0
 59 82  1  0  0  0  0
 60 62  1  0  0  0  0
 60 73  1  0  0  0  0
 61 74  1  0  0  0  0
 63 65  1  0  0  0  0
 66 80  1  0  0  0  0
M  CHG  1  74   1
M  ISO  4  39 100  59 101  71 100  82 101
M  END
> <Batch ID>
0170

> <Smiles>
CNC(C)C(=O)NC(C(=O)N1Cc2cc([101O:1][101CH2:1]C3=NOC(c4ccc([100NH:0][100C:0](=O)N5CCCC(n6nc(-c7ccc(Oc8ccc(F)cc8F)cc7)c(C(N)=O)c6N)C5)cc4F)NC3)ccc2CC1C(=O)NC1CCCc2ccccc21)C(C)(C)C

> <Shape>
0.192

> <Color>
0.057

> <Negative vol penalty>
0.000

$$$$

  -OEChem-04052304203D

 86 94  0     1  0  0  0  0  0999 V2000
  -16.5778  -30.1599   23.2665 C   0  0  0  0  0  0  0  0  0  0  0  0
  -17.7338  -30.7119   22.7240 C   0  0  0  0  0  0  0  0  0  0  0  0
  -29.3171  -19.8525   16.8969 C   0  0  0  0  0  0  0  0  0  0  0  0
  -24.1085  -10.0702   22.1979 C   0  0  0  0  0  0  0  0  0  0  0  0
  -23.2920  -11.0304   20.1367 C   0  0  0  0  0  0  0  0  0  0  0  0
  -16.6462  -28.9640   23.9799 C   0  0  0  0  0  0  0  0  0  0  0  0
  -18.9591  -30.0688   22.8955 C   0  0  0  0  0  0  0  0  0  0  0  0
  -25.2001  -28.9647   19.5568 C   0  0  0  0  0  0  0  0  0  0  0  0
  -23.0531   -9.1584   22.1912 C   0  0  0  0  0  0  0  0  0  0  0  0
  -22.2366  -10.1184   20.1300 C   0  0  0  0  0  0  0  0  0  0  0  0
  -26.5726  -29.0808   19.7730 C   0  0  0  0  0  0  0  0  0  0  0  0
  -20.7778   -6.3431   22.5269 C   0  0  0  0  0  0  0  0  0  0  0  0
  -21.0707   -5.0101   22.8148 C   0  0  0  0  0  0  0  0  0  0  0  0
  -30.0702  -20.8512   17.5041 C   0  0  0  0  0  0  0  0  0  0  0  0
  -28.4878  -19.0476   17.6700 C   0  0  0  0  0  0  0  0  0  0  0  0
  -26.5579  -26.9787   20.9563 C   0  0  0  0  0  0  0  0  0  0  0  0
  -22.5647   -4.9286   20.9178 C   0  0  0  0  0  0  0  0  0  0  0  0
  -24.2280  -11.0063   21.1706 C   0  0  0  0  0  0  0  0  0  0  0  0
  -26.5891  -11.7827   20.5960 C   0  0  0  0  0  0  0  0  0  0  0  0
  -17.8715  -28.3009   24.1520 C   0  0  0  0  0  0  0  0  0  0  0  0
  -24.4932  -27.8582   20.0491 C   0  0  0  0  0  0  0  0  0  0  0  0
  -19.0441  -28.8636   23.6130 C   0  0  0  0  0  0  0  0  0  0  0  0
  -25.1770  -26.8496   20.7429 C   0  0  0  0  0  0  0  0  0  0  0  0
  -22.1171   -9.1824   21.1573 C   0  0  0  0  0  0  0  0  0  0  0  0
  -27.2512  -28.0891   20.4753 C   0  0  0  0  0  0  0  0  0  0  0  0
  -21.3784   -6.9689   21.4344 C   0  0  0  0  0  0  0  0  0  0  0  0
  -21.9641   -4.3028   22.0103 C   0  0  0  0  0  0  0  0  0  0  0  0
  -22.2718   -6.2617   20.6299 C   0  0  0  0  0  0  0  0  0  0  0  0
  -25.3177  -11.9489   21.1772 C   0  0  0  0  0  0  0  0  0  0  0  0
  -29.9592  -21.0032   18.8768 C   0  0  0  0  0  0  0  0  0  0  0  0
  -28.4479  -19.2801   19.0354 C   0  0  0  0  0  0  0  0  0  0  0  0
  -27.2511  -12.9526   20.8777 C   0  0  0  0  0  0  0  0  0  0  0  0
  -27.1237  -10.6702   19.8665 C   0  0  0  0  0  0  0  0  0  0  0  0
  -22.1182  -27.4554   22.1229 C   0  0  0  0  0  0  0  0  0  0  0  0
  -22.2858  -24.3746   21.1215 C   0  0  0  0  0  0  0  0  0  0  0  0
  -30.7292  -24.5709   19.5375 C   0  0  0  0  0  0  0  0  0  0  0  0
  -24.1502  -21.8782   19.7291 C   0  0  0  0  0  0  0  0  0  0  0  0
  -27.4015  -18.5097   21.1936 C   0  0  0  0  0  0  0  0  0  0  0  0
  -17.9030  -27.0350   24.9713 C   0  0  0  0  0  0  0  0  0  0  0  0
  -23.0177  -27.7346   19.7844 C   0  0  0  0  0  0  0  0  0  0  0  0
  -24.4679  -25.6319   21.2744 C   0  0  0  0  0  0  0  0  0  0  0  0
  -19.1823  -26.2225   24.7879 C   0  0  0  0  0  0  0  0  0  0  0  0
  -26.0306  -16.7637   23.9774 C   0  0  0  0  0  0  0  0  0  0  0  0
  -20.4066  -27.1287   24.8699 C   0  0  0  0  0  0  0  0  0  0  0  0
  -25.8275  -15.3418   23.4492 C   0  0  0  0  0  0  0  0  0  0  0  0
  -25.7408  -17.8134   22.9060 C   0  0  0  0  0  0  0  0  0  0  0  0
  -26.2620  -16.2051   21.1141 C   0  0  0  0  0  0  0  0  0  0  0  0
  -20.3881  -28.1830   23.7565 C   0  0  1  0  0  0  0  0  0  0  0  0
  -22.3075  -26.8178   20.7756 C   0  0  1  0  0  0  0  0  0  0  0  0
  -26.6048  -15.1111   22.1384 C   0  0  2  0  0  0  0  0  0  0  0  0
  -31.1385  -21.6985   21.0024 C   0  0  0  0  0  0  0  0  0  0  0  0
  -24.0265  -19.4594   19.0719 C   0  0  0  0  0  0  0  0  0  0  0  0
  -30.1447  -29.6159   19.5363 C   0  0  0  0  0  0  0  0  0  0  0  0
  -22.5467  -23.5674   24.0525 C   0  0  0  0  0  0  0  0  0  0  0  0
  -23.3593  -21.3252   23.2904 C   0  0  0  0  0  0  0  0  0  0  0  0
  -21.0607  -22.0867   22.6909 C   0  0  0  0  0  0  0  0  0  0  0  0
  -24.6598  -22.5057   16.8821 C   0  0  0  0  0  0  0  0  0  0  0  0
  -29.7492  -25.7326   19.5454 C   0  0  0  0  0  0  0  0  0  0  0  0
  -30.4252  -27.1058   19.5339 C   0  0  0  0  0  0  0  0  0  0  0  0
  -30.7640  -22.0803   19.5717 C   0  0  2  0  0  0  0  0  0  0  0  0
  -23.0540  -23.1497   21.5556 C   0  0  1  0  0  0  0  0  0  0  0  0
  -23.8458  -20.8974   18.6111 C   0  0  2  0  0  0  0  0  0  0  0  0
  -29.4279  -28.2719   19.5349 C   0  0  1  0  0  0  0  0  0  1  0  0
  -22.5185  -22.5560   22.8891 C   0  0  0  0  0  0  0  0  0  0  0  0
  -25.1782  -13.1313   21.7827 N   0  0  0  0  0  0  0  0  0  0  0  0
  -29.1647  -20.2406   19.6609 N   0  0  0  0  0  0  0  0  0  0  0  0
  -26.3705  -13.7186   21.5834 N   0  0  0  0  0  0  0  0  0  0  0  0
  -23.0241  -25.5599   20.9954 N   0  0  0  0  0  0  0  0  0  0  0  0
  -26.5152  -17.5330   21.6950 N   0  0  0  0  0  0  0  0  0  0  0  0
  -28.4948  -13.3906   20.5882 N   0  0  0  0  0  0  0  0  0  0  0  0
  -26.3084   -9.5477   19.6675 N   0  0  0  0  0  0  0  0  0  0  0  0
  -27.5983  -18.4558   19.8141 N   0  0  0  0  0  0  0  0  0  0  0  0
  -20.7957  -27.5961   22.4979 N   0  0  0  0  0  0  0  0  0  0  0  0
  -30.0725  -23.3490   19.5484 N   0  0  0  0  0  0  0  0  0  0  0  0
  -23.0137  -22.2224   20.4300 N   0  0  0  0  0  0  0  0  0  0  0  0
  -24.7508  -21.1366   17.4515 N   0  3  0  0  0  0  0  0  0  0  0  0
  -28.2956  -10.6648   19.4189 O   0  0  0  0  0  0  0  0  0  0  0  0
  -23.0993  -27.7933   22.7747 O   0  0  0  0  0  0  0  0  0  0  0  0
  -21.0767  -24.2816   20.8956 O   0  0  0  0  0  0  0  0  0  0  0  0
  -31.9481  -24.7195   19.5462 O   0  0  0  0  0  0  0  0  0  0  0  0
  -25.2833  -22.2941   19.9601 O   0  0  0  0  0  0  0  0  0  0  0  0
  -27.9668  -19.3158   21.9369 O   0  0  0  0  0  0  0  0  0  0  0  0
  -21.0872   -8.2926   21.1503 O   0  0  0  0  0  0  0  0  0  0  0  0
  -28.5906  -28.2003   20.6882 O   0  0  0  0  0  0  0  0  0  1  0  0
  -22.2464   -3.0232   22.2878 F   0  0  0  0  0  0  0  0  0  0  0  0
  -22.8528   -6.8578   19.5797 F   0  0  0  0  0  0  0  0  0  0  0  0
  1  2  1  0  0  0  0
  1  6  2  0  0  0  0
  2  7  2  0  0  0  0
  3 14  2  0  0  0  0
  3 15  1  0  0  0  0
  4  9  2  0  0  0  0
  4 18  1  0  0  0  0
  5 10  1  0  0  0  0
  5 18  2  0  0  0  0
  6 20  1  0  0  0  0
  7 22  1  0  0  0  0
  8 11  2  0  0  0  0
  8 21  1  0  0  0  0
  9 24  1  0  0  0  0
 10 24  2  0  0  0  0
 11 25  1  0  0  0  0
 12 13  2  0  0  0  0
 12 26  1  0  0  0  0
 13 27  1  0  0  0  0
 14 30  1  0  0  0  0
 15 31  2  0  0  0  0
 16 23  1  0  0  0  0
 16 25  2  0  0  0  0
 17 27  2  0  0  0  0
 17 28  1  0  0  0  0
 18 29  1  0  0  0  0
 19 29  1  0  0  0  0
 19 32  2  0  0  0  0
 19 33  1  0  0  0  0
 20 22  2  0  0  0  0
 20 39  1  0  0  0  0
 21 23  2  0  0  0  0
 21 40  1  0  0  0  0
 22 48  1  0  0  0  0
 23 41  1  0  0  0  0
 24 83  1  0  0  0  0
 25 84  1  0  0  0  0
 26 28  2  0  0  0  0
 26 83  1  0  0  0  0
 27 85  1  0  0  0  0
 28 86  1  0  0  0  0
 29 65  2  0  0  0  0
 30 60  1  0  0  0  0
 30 66  2  0  0  0  0
 31 66  1  0  0  0  0
 31 72  1  0  0  0  0
 32 67  1  0  0  0  0
 32 70  1  0  0  0  0
 33 71  1  0  0  0  0
 33 77  2  0  0  0  0
 34 49  1  0  0  0  0
 34 73  1  0  0  0  0
 34 78  2  0  0  0  0
 35 61  1  0  0  0  0
 35 68  1  0  0  0  0
 35 79  2  0  0  0  0
 36 58  1  0  0  0  0
 36 74  1  0  0  0  0
 36 80  2  0  0  0  0
 37 62  1  0  0  0  0
 37 75  1  0  0  0  0
 37 81  2  0  0  0  0
 38 69  1  0  0  0  0
 38 72  1  0  0  0  0
 38 82  2  0  0  0  0
 39 42  1  0  0  0  0
 40 49  1  0  0  0  0
 41 68  1  0  0  0  0
 42 44  1  0  0  0  0
 43 45  1  0  0  0  0
 43 46  1  0  0  0  0
 44 48  1  0  0  0  0
 45 50  1  0  0  0  0
 46 69  1  0  0  0  0
 47 50  1  0  0  0  0
 47 69  1  0  0  0  0
 48 73  1  0  0  0  0
 49 68  1  0  0  0  0
 50 67  1  0  0  0  0
 51 60  1  0  0  0  0
 52 62  1  0  0  0  0
 53 63  1  0  0  0  0
 54 64  1  0  0  0  0
 55 64  1  0  0  0  0
 56 64  1  0  0  0  0
 57 76  1  0  0  0  0
 58 59  1  0  0  0  0
 59 63  1  0  0  0  0
 60 74  1  0  0  0  0
 61 64  1  0  0  0  0
 61 75  1  0  0  0  0
 62 76  1  0  0  0  0
 63 84  1  0  0  0  0
 65 67  1  0  0  0  0
M  CHG  1  76   1
M  ISO  4  38 100  63 101  72 100  84 101
M  END
> <Batch ID>
0170

> <Smiles>
CNC(C)C(=O)NC(C(=O)N1Cc2cc([101O:1][101CH:1](C)CCC(=O)NC(C)c3cccc([100NH:0][100C:0](=O)N4CCCC(n5nc(-c6ccc(Oc7ccc(F)cc7F)cc6)c(C(N)=O)c5N)C4)n3)ccc2CC1C(=O)NC1CCCc2ccccc21)C(C)(C)C

> <Shape>
0.259

> <Color>
0.080

> <Negative vol penalty>
0.000

$$$$

  -OEChem-04052304203D

 83 91  0     1  0  0  0  0  0999 V2000
  -26.3858  -30.9533   27.7280 C   0  0  0  0  0  0  0  0  0  0  0  0
  -26.8195  -30.1469   26.6806 C   0  0  0  0  0  0  0  0  0  0  0  0
  -23.1167  -10.5994   19.8151 C   0  0  0  0  0  0  0  0  0  0  0  0
  -24.5192  -11.0413   21.7321 C   0  0  0  0  0  0  0  0  0  0  0  0
  -25.0497  -30.9200   28.1248 C   0  0  0  0  0  0  0  0  0  0  0  0
  -25.9175  -29.3058   26.0301 C   0  0  0  0  0  0  0  0  0  0  0  0
  -26.3975  -29.4671   20.9914 C   0  0  0  0  0  0  0  0  0  0  0  0
  -23.2226   -9.2292   20.0534 C   0  0  0  0  0  0  0  0  0  0  0  0
  -24.6251   -9.6710   21.9705 C   0  0  0  0  0  0  0  0  0  0  0  0
  -27.4560  -28.7546   20.4295 C   0  0  0  0  0  0  0  0  0  0  0  0
  -21.8542   -6.9514   22.1443 C   0  0  0  0  0  0  0  0  0  0  0  0
  -20.6881   -6.1892   22.0744 C   0  0  0  0  0  0  0  0  0  0  0  0
  -25.9409  -26.9667   19.8576 C   0  0  0  0  0  0  0  0  0  0  0  0
  -21.6594   -4.8658   20.3017 C   0  0  0  0  0  0  0  0  0  0  0  0
  -28.4911  -19.3515   22.0877 C   0  0  0  0  0  0  0  0  0  0  0  0
  -23.7650  -11.5055   20.6544 C   0  0  0  0  0  0  0  0  0  0  0  0
  -22.6825  -13.8003   20.9185 C   0  0  0  0  0  0  0  0  0  0  0  0
  -24.1287  -30.0851   27.4725 C   0  0  0  0  0  0  0  0  0  0  0  0
  -25.1026  -28.9291   21.0004 C   0  0  0  0  0  0  0  0  0  0  0  0
  -24.5680  -29.2602   26.4194 C   0  0  0  0  0  0  0  0  0  0  0  0
  -24.8673  -27.6755   20.4180 C   0  0  0  0  0  0  0  0  0  0  0  0
  -23.9768   -8.7650   21.1311 C   0  0  0  0  0  0  0  0  0  0  0  0
  -27.2283  -27.5029   19.8651 C   0  0  0  0  0  0  0  0  0  0  0  0
  -22.9229   -6.6709   21.2929 C   0  0  0  0  0  0  0  0  0  0  0  0
  -20.5907   -5.1464   21.1531 C   0  0  0  0  0  0  0  0  0  0  0  0
  -22.8255   -5.6281   20.3716 C   0  0  0  0  0  0  0  0  0  0  0  0
  -23.6564  -12.9211   20.4084 C   0  0  0  0  0  0  0  0  0  0  0  0
  -29.1874  -19.1942   20.9076 C   0  0  0  0  0  0  0  0  0  0  0  0
  -23.0163  -15.0246   20.3931 C   0  0  0  0  0  0  0  0  0  0  0  0
  -28.9898  -21.3783   20.8854 C   0  0  0  0  0  0  0  0  0  0  0  0
  -21.5751  -13.5341   21.7895 C   0  0  0  0  0  0  0  0  0  0  0  0
  -29.5600  -24.7901   19.4046 C   0  0  0  0  0  0  0  0  0  0  0  0
  -29.6501  -23.2916   19.4204 C   0  0  0  0  0  0  0  0  0  0  0  0
  -23.0389  -28.0874   23.2668 C   0  0  0  0  0  0  0  0  0  0  0  0
  -21.0568  -27.6165   20.7425 C   0  0  0  0  0  0  0  0  0  0  0  0
  -20.7141  -26.9752   17.4081 C   0  0  0  0  0  0  0  0  0  0  0  0
  -28.1703  -17.3464   18.4190 C   0  0  0  0  0  0  0  0  0  0  0  0
  -22.7047  -30.0484   27.9679 C   0  0  0  0  0  0  0  0  0  0  0  0
  -23.9667  -29.7220   21.5865 C   0  0  0  0  0  0  0  0  0  0  0  0
  -23.4919  -27.0625   20.3839 C   0  0  0  0  0  0  0  0  0  0  0  0
  -21.7329  -29.4063   26.9811 C   0  0  0  0  0  0  0  0  0  0  0  0
  -25.1318  -17.0175   16.5926 C   0  0  0  0  0  0  0  0  0  0  0  0
  -22.3084  -28.1028   26.4367 C   0  0  0  0  0  0  0  0  0  0  0  0
  -24.3212  -16.0097   17.4094 C   0  0  0  0  0  0  0  0  0  0  0  0
  -26.6219  -16.6837   16.6025 C   0  0  0  0  0  0  0  0  0  0  0  0
  -26.4013  -15.5161   18.7616 C   0  0  0  0  0  0  0  0  0  0  0  0
  -23.6144  -28.3529   25.6728 C   0  0  1  0  0  0  0  0  0  0  0  0
  -22.7826  -28.8535   21.9999 C   0  0  1  0  0  0  0  0  0  0  0  0
  -24.8996  -15.8429   18.8275 C   0  0  2  0  0  0  0  0  0  0  0  0
  -18.9698  -26.6086   15.6417 C   0  0  0  0  0  0  0  0  0  0  0  0
  -20.5735  -24.7984   21.8079 C   0  0  0  0  0  0  0  0  0  0  0  0
  -19.6283  -24.1899   19.5708 C   0  0  0  0  0  0  0  0  0  0  0  0
  -18.5286  -25.9541   20.9495 C   0  0  0  0  0  0  0  0  0  0  0  0
  -21.6230  -29.3270   15.8584 C   0  0  0  0  0  0  0  0  0  0  0  0
  -29.6397  -17.9094   20.3381 C   0  0  0  0  0  0  0  0  0  0  0  0
  -28.1751  -25.3811   19.3576 C   0  0  0  0  0  0  0  0  0  1  0  0
  -20.7414  -26.4534   19.8333 C   0  0  1  0  0  0  0  0  0  0  0  0
  -19.8561  -27.6284   16.3397 C   0  0  2  0  0  0  0  0  0  0  0  0
  -19.8943  -25.3594   20.5426 C   0  0  0  0  0  0  0  0  0  0  0  0
  -24.5424  -13.5347   19.6194 N   0  0  0  0  0  0  0  0  0  0  0  0
  -29.4739  -20.3553   20.2166 N   0  0  0  0  0  0  0  0  0  0  0  0
  -24.1265  -14.8125   19.6297 N   0  0  0  0  0  0  0  0  0  0  0  0
  -22.4152  -27.8739   20.9754 N   0  0  0  0  0  0  0  0  0  0  0  0
  -27.1082  -16.5404   17.9768 N   0  0  0  0  0  0  0  0  0  0  0  0
  -22.4656  -16.2512   20.5142 N   0  0  0  0  0  0  0  0  0  0  0  0
  -21.3772  -12.2205   22.2362 N   0  0  0  0  0  0  0  0  0  0  0  0
  -29.0572  -22.7482   20.5396 N   0  0  0  0  0  0  0  0  0  0  0  0
  -23.3358  -28.8844   24.3559 N   0  0  0  0  0  0  0  0  0  0  0  0
  -20.1106  -27.0219   18.6470 N   0  0  0  0  0  0  0  0  0  0  0  0
  -28.5653  -17.1512   19.7368 N   0  0  0  0  0  0  0  0  0  0  0  0
  -20.7159  -28.2840   15.3141 N   0  3  0  0  0  0  0  0  0  0  0  0
  -20.7750  -14.4314   22.1474 O   0  0  0  0  0  0  0  0  0  0  0  0
  -30.6071  -25.4196   19.4105 O   0  0  0  0  0  0  0  0  0  0  0  0
  -30.2381  -22.7697   18.4877 O   0  0  0  0  0  0  0  0  0  0  0  0
  -22.9709  -26.8639   23.2572 O   0  0  0  0  0  0  0  0  0  0  0  0
  -20.1321  -28.2769   21.2226 O   0  0  0  0  0  0  0  0  0  0  0  0
  -21.8085  -26.4703   17.1671 O   0  0  0  0  0  0  0  0  0  0  0  0
  -28.7219  -18.1820   17.6947 O   0  0  0  0  0  0  0  0  0  0  0  0
  -24.0802   -7.4280   21.3641 O   0  0  0  0  0  0  0  0  0  0  0  0
  -28.2598  -26.8050   19.3165 O   0  0  0  0  0  0  0  0  0  1  0  0
  -19.4715   -4.4136   21.0872 F   0  0  0  0  0  0  0  0  0  0  0  0
  -23.8493   -5.3530   19.5519 F   0  0  0  0  0  0  0  0  0  0  0  0
  -28.1787  -21.0167   22.3538 S   0  0  0  0  0  0  0  0  0  0  0  0
  1  2  1  0  0  0  0
  1  5  2  0  0  0  0
  2  6  2  0  0  0  0
  3  8  2  0  0  0  0
  3 16  1  0  0  0  0
  4  9  1  0  0  0  0
  4 16  2  0  0  0  0
  5 18  1  0  0  0  0
  6 20  1  0  0  0  0
  7 10  2  0  0  0  0
  7 19  1  0  0  0  0
  8 22  1  0  0  0  0
  9 22  2  0  0  0  0
 10 23  1  0  0  0  0
 11 12  2  0  0  0  0
 11 24  1  0  0  0  0
 12 25  1  0  0  0  0
 13 21  1  0  0  0  0
 13 23  2  0  0  0  0
 14 25  2  0  0  0  0
 14 26  1  0  0  0  0
 15 28  2  0  0  0  0
 15 83  1  0  0  0  0
 16 27  1  0  0  0  0
 17 27  1  0  0  0  0
 17 29  2  0  0  0  0
 17 31  1  0  0  0  0
 18 20  2  0  0  0  0
 18 38  1  0  0  0  0
 19 21  2  0  0  0  0
 19 39  1  0  0  0  0
 20 47  1  0  0  0  0
 21 40  1  0  0  0  0
 22 79  1  0  0  0  0
 23 80  1  0  0  0  0
 24 26  2  0  0  0  0
 24 79  1  0  0  0  0
 25 81  1  0  0  0  0
 26 82  1  0  0  0  0
 27 60  2  0  0  0  0
 28 55  1  0  0  0  0
 28 61  1  0  0  0  0
 29 62  1  0  0  0  0
 29 65  1  0  0  0  0
 30 61  2  0  0  0  0
 30 67  1  0  0  0  0
 30 83  1  0  0  0  0
 31 66  1  0  0  0  0
 31 72  2  0  0  0  0
 32 33  1  0  0  0  0
 32 56  1  0  0  0  0
 32 73  2  0  0  0  0
 33 67  1  0  0  0  0
 33 74  2  0  0  0  0
 34 48  1  0  0  0  0
 34 68  1  0  0  0  0
 34 75  2  0  0  0  0
 35 57  1  0  0  0  0
 35 63  1  0  0  0  0
 35 76  2  0  0  0  0
 36 58  1  0  0  0  0
 36 69  1  0  0  0  0
 36 77  2  0  0  0  0
 37 64  1  0  0  0  0
 37 70  1  0  0  0  0
 37 78  2  0  0  0  0
 38 41  1  0  0  0  0
 39 48  1  0  0  0  0
 40 63  1  0  0  0  0
 41 43  1  0  0  0  0
 42 44  1  0  0  0  0
 42 45  1  0  0  0  0
 43 47  1  0  0  0  0
 44 49  1  0  0  0  0
 45 64  1  0  0  0  0
 46 49  1  0  0  0  0
 46 64  1  0  0  0  0
 47 68  1  0  0  0  0
 48 63  1  0  0  0  0
 49 62  1  0  0  0  0
 50 58  1  0  0  0  0
 51 59  1  0  0  0  0
 52 59  1  0  0  0  0
 53 59  1  0  0  0  0
 54 71  1  0  0  0  0
 55 70  1  0  0  0  0
 56 80  1  0  0  0  0
 57 59  1  0  0  0  0
 57 69  1  0  0  0  0
 58 71  1  0  0  0  0
 60 62  1  0  0  0  0
M  CHG  1  71   1
M  ISO  4  37 100  56 101  70 100  80 101
M  END
> <Batch ID>
0170

> <Smiles>
CNC(C)C(=O)NC(C(=O)N1Cc2cc([101O:1][101CH2:1]C(=O)C(=O)Nc3nc(C[100NH:0][100C:0](=O)N4CCCC(n5nc(-c6ccc(Oc7ccc(F)cc7F)cc6)c(C(N)=O)c5N)C4)cs3)ccc2CC1C(=O)NC1CCCc2ccccc21)C(C)(C)C

> <Shape>
0.256

> <Color>
0.081

> <Negative vol penalty>
0.000

$$$$

  -OEChem-04052304203D

 84 92  0     1  0  0  0  0  0999 V2000
  -39.1505  -34.8870   22.3467 C   0  0  0  0  0  0  0  0  0  0  0  0
  -38.6697  -33.7279   22.9474 C   0  0  0  0  0  0  0  0  0  0  0  0
  -23.0753   -9.8659   19.9422 C   0  0  0  0  0  0  0  0  0  0  0  0
  -23.8350   -9.8757   22.2357 C   0  0  0  0  0  0  0  0  0  0  0  0
  -38.6974  -35.2539   21.0802 C   0  0  0  0  0  0  0  0  0  0  0  0
  -37.7346  -32.9357   22.2823 C   0  0  0  0  0  0  0  0  0  0  0  0
  -37.2716  -26.8324   22.4851 C   0  0  0  0  0  0  0  0  0  0  0  0
  -22.3320   -8.7127   20.1934 C   0  0  0  0  0  0  0  0  0  0  0  0
  -23.0916   -8.7225   22.4868 C   0  0  0  0  0  0  0  0  0  0  0  0
  -36.4495  -25.9779   23.2185 C   0  0  0  0  0  0  0  0  0  0  0  0
  -19.8638   -7.9239   23.0900 C   0  0  0  0  0  0  0  0  0  0  0  0
  -19.1068   -7.8849   24.2609 C   0  0  0  0  0  0  0  0  0  0  0  0
  -34.9275  -25.8495   21.3513 C   0  0  0  0  0  0  0  0  0  0  0  0
  -29.7493  -17.7159   22.7147 C   0  0  0  0  0  0  0  0  0  0  0  0
  -20.3490   -5.9488   24.9995 C   0  0  0  0  0  0  0  0  0  0  0  0
  -32.2316  -18.5385   21.9354 C   0  0  0  0  0  0  0  0  0  0  0  0
  -23.8269  -10.4474   20.9634 C   0  0  0  0  0  0  0  0  0  0  0  0
  -24.1676  -12.9726   20.8406 C   0  0  0  0  0  0  0  0  0  0  0  0
  -37.7635  -34.4606   20.3952 C   0  0  0  0  0  0  0  0  0  0  0  0
  -36.9217  -27.2111   21.1811 C   0  0  0  0  0  0  0  0  0  0  0  0
  -37.2676  -33.2930   21.0060 C   0  0  0  0  0  0  0  0  0  0  0  0
  -35.7482  -26.7069   20.6026 C   0  0  0  0  0  0  0  0  0  0  0  0
  -30.2254  -18.9494   23.1448 C   0  0  0  0  0  0  0  0  0  0  0  0
  -31.4892  -19.3760   22.7522 C   0  0  0  0  0  0  0  0  0  0  0  0
  -22.3401   -8.1410   21.4657 C   0  0  0  0  0  0  0  0  0  0  0  0
  -35.2758  -25.4886   22.6526 C   0  0  0  0  0  0  0  0  0  0  0  0
  -20.8634   -6.9753   22.8738 C   0  0  0  0  0  0  0  0  0  0  0  0
  -19.3494   -6.8974   25.2156 C   0  0  0  0  0  0  0  0  0  0  0  0
  -21.1060   -5.9878   23.8286 C   0  0  0  0  0  0  0  0  0  0  0  0
  -24.5955  -11.6384   20.7044 C   0  0  0  0  0  0  0  0  0  0  0  0
  -30.5696  -16.9528   21.8993 C   0  0  0  0  0  0  0  0  0  0  0  0
  -25.2595  -13.7222   20.4766 C   0  0  0  0  0  0  0  0  0  0  0  0
  -34.2325  -23.4061   22.8655 C   0  0  0  0  0  0  0  0  0  1  0  0
  -22.8969  -13.4883   21.2589 C   0  0  0  0  0  0  0  0  0  0  0  0
  -33.4580  -22.5059   23.4831 C   0  0  0  0  0  0  0  0  0  0  0  0
  -33.2596  -21.1610   22.8506 C   0  0  0  0  0  0  0  0  0  0  0  0
  -36.2542  -29.9694   19.7493 C   0  0  0  0  0  0  0  0  0  0  0  0
  -36.2085  -28.1257   17.0807 C   0  0  0  0  0  0  0  0  0  0  0  0
  -35.8087  -25.0277   15.7062 C   0  0  0  0  0  0  0  0  0  0  0  0
  -30.7252  -14.7704   20.6506 C   0  0  0  0  0  0  0  0  0  0  0  0
  -37.2678  -34.9230   19.0479 C   0  0  0  0  0  0  0  0  0  0  0  0
  -37.8328  -28.1123   20.3936 C   0  0  0  0  0  0  0  0  0  0  0  0
  -35.3379  -27.0670   19.1989 C   0  0  0  0  0  0  0  0  0  0  0  0
  -36.5575  -33.8307   18.2526 C   0  0  0  0  0  0  0  0  0  0  0  0
  -29.6121  -12.3535   18.2849 C   0  0  0  0  0  0  0  0  0  0  0  0
  -35.5611  -33.0883   19.1373 C   0  0  0  0  0  0  0  0  0  0  0  0
  -28.1725  -12.0617   18.7147 C   0  0  0  0  0  0  0  0  0  0  0  0
  -30.5270  -12.5840   19.4864 C   0  0  0  0  0  0  0  0  0  0  0  0
  -28.6196  -13.3091   20.8667 C   0  0  0  0  0  0  0  0  0  0  0  0
  -36.2713  -32.3944   20.3060 C   0  0  1  0  0  0  0  0  0  0  0  0
  -37.1182  -28.8416   19.2601 C   0  0  1  0  0  0  0  0  0  0  0  0
  -27.6469  -13.1342   19.6890 C   0  0  2  0  0  0  0  0  0  0  0  0
  -29.3625  -19.7930   24.0250 C   0  0  0  0  0  0  0  0  0  0  0  0
  -35.7905  -23.8411   13.4951 C   0  0  0  0  0  0  0  0  0  0  0  0
  -33.4317  -29.2505   16.5026 C   0  0  0  0  0  0  0  0  0  0  0  0
  -33.0880  -27.3780   14.8766 C   0  0  0  0  0  0  0  0  0  0  0  0
  -34.9100  -29.0389   14.4965 C   0  0  0  0  0  0  0  0  0  0  0  0
  -38.0917  -23.3099   16.4781 C   0  0  0  0  0  0  0  0  0  0  0  0
  -35.1539  -27.3332   16.3467 C   0  0  1  0  0  0  0  0  0  0  0  0
  -36.6348  -24.2635   14.6874 C   0  0  2  0  0  0  0  0  0  0  0  0
  -34.1524  -28.2447   15.5828 C   0  0  0  0  0  0  0  0  0  0  0  0
  -31.8029  -17.3336   21.4973 N   0  0  0  0  0  0  0  0  0  0  0  0
  -25.8604  -11.5426   20.2863 N   0  0  0  0  0  0  0  0  0  0  0  0
  -26.2368  -12.8262   20.1566 N   0  0  0  0  0  0  0  0  0  0  0  0
  -36.2587  -27.9563   18.4716 N   0  0  0  0  0  0  0  0  0  0  0  0
  -29.9675  -13.6156   20.3626 N   0  0  0  0  0  0  0  0  0  0  0  0
  -25.4693  -15.0536   20.4022 N   0  0  0  0  0  0  0  0  0  0  0  0
  -21.8854  -12.5790   21.5970 N   0  0  0  0  0  0  0  0  0  0  0  0
  -32.0205  -20.6210   23.1668 N   0  0  0  0  0  0  0  0  0  0  0  0
  -30.0773  -15.6960   21.4680 N   0  0  0  0  0  0  0  0  0  0  0  0
  -36.9146  -31.1785   19.8563 N   0  0  0  0  0  0  0  0  0  0  0  0
  -35.8709  -26.3891   15.4964 N   0  0  0  0  0  0  0  0  0  0  0  0
  -37.2188  -23.0403   15.3067 N   0  3  0  0  0  0  0  0  0  0  0  0
  -22.6601  -14.7189   21.3148 O   0  0  0  0  0  0  0  0  0  0  0  0
  -34.1319  -20.6597   22.1494 O   0  0  0  0  0  0  0  0  0  0  0  0
  -35.0752  -29.7586   20.0089 O   0  0  0  0  0  0  0  0  0  0  0  0
  -36.9648  -28.8623   16.4427 O   0  0  0  0  0  0  0  0  0  0  0  0
  -35.1689  -24.4723   16.5966 O   0  0  0  0  0  0  0  0  0  0  0  0
  -31.8543  -14.9391   20.1829 O   0  0  0  0  0  0  0  0  0  0  0  0
  -32.8323  -22.7657   24.6854 O   0  0  0  0  0  0  0  0  0  0  0  0
  -21.6146   -7.0159   21.7112 O   0  0  0  0  0  0  0  0  0  0  0  0
  -34.4712  -24.6550   23.3665 O   0  0  0  0  0  0  0  0  0  1  0  0
  -18.6233   -6.8610   26.3407 F   0  0  0  0  0  0  0  0  0  0  0  0
  -22.0657   -5.0746   23.6270 F   0  0  0  0  0  0  0  0  0  0  0  0
  1  2  1  0  0  0  0
  1  5  2  0  0  0  0
  2  6  2  0  0  0  0
  3  8  2  0  0  0  0
  3 17  1  0  0  0  0
  4  9  1  0  0  0  0
  4 17  2  0  0  0  0
  5 19  1  0  0  0  0
  6 21  1  0  0  0  0
  7 10  2  0  0  0  0
  7 20  1  0  0  0  0
  8 25  1  0  0  0  0
  9 25  2  0  0  0  0
 10 26  1  0  0  0  0
 11 12  2  0  0  0  0
 11 27  1  0  0  0  0
 12 28  1  0  0  0  0
 13 22  1  0  0  0  0
 13 26  2  0  0  0  0
 14 23  1  0  0  0  0
 14 31  2  0  0  0  0
 15 28  2  0  0  0  0
 15 29  1  0  0  0  0
 16 24  1  0  0  0  0
 16 62  2  0  0  0  0
 17 30  1  0  0  0  0
 18 30  1  0  0  0  0
 18 32  2  0  0  0  0
 18 34  1  0  0  0  0
 19 21  2  0  0  0  0
 19 41  1  0  0  0  0
 20 22  2  0  0  0  0
 20 42  1  0  0  0  0
 21 50  1  0  0  0  0
 22 43  1  0  0  0  0
 23 24  2  0  0  0  0
 23 53  1  0  0  0  0
 24 69  1  0  0  0  0
 25 81  1  0  0  0  0
 26 82  1  0  0  0  0
 27 29  2  0  0  0  0
 27 81  1  0  0  0  0
 28 83  1  0  0  0  0
 29 84  1  0  0  0  0
 30 63  2  0  0  0  0
 31 62  1  0  0  0  0
 31 70  1  0  0  0  0
 32 64  1  0  0  0  0
 32 67  1  0  0  0  0
 33 35  2  0  0  0  0
 33 82  1  0  0  0  0
 34 68  1  0  0  0  0
 34 74  2  0  0  0  0
 35 36  1  0  0  0  0
 35 80  1  0  0  0  0
 36 69  1  0  0  0  0
 36 75  2  0  0  0  0
 37 51  1  0  0  0  0
 37 71  1  0  0  0  0
 37 76  2  0  0  0  0
 38 59  1  0  0  0  0
 38 65  1  0  0  0  0
 38 77  2  0  0  0  0
 39 60  1  0  0  0  0
 39 72  1  0  0  0  0
 39 78  2  0  0  0  0
 40 66  1  0  0  0  0
 40 70  1  0  0  0  0
 40 79  2  0  0  0  0
 41 44  1  0  0  0  0
 42 51  1  0  0  0  0
 43 65  1  0  0  0  0
 44 46  1  0  0  0  0
 45 47  1  0  0  0  0
 45 48  1  0  0  0  0
 46 50  1  0  0  0  0
 47 52  1  0  0  0  0
 48 66  1  0  0  0  0
 49 52  1  0  0  0  0
 49 66  1  0  0  0  0
 50 71  1  0  0  0  0
 51 65  1  0  0  0  0
 52 64  1  0  0  0  0
 54 60  1  0  0  0  0
 55 61  1  0  0  0  0
 56 61  1  0  0  0  0
 57 61  1  0  0  0  0
 58 73  1  0  0  0  0
 59 61  1  0  0  0  0
 59 72  1  0  0  0  0
 60 73  1  0  0  0  0
 63 64  1  0  0  0  0
M  CHG  1  73   1
M  ISO  4  33 101  40 100  70 100  82 101
M  END
> <Batch ID>
0170

> <Smiles>
CNC(C)C(=O)NC(C(=O)N1Cc2cc([101O:1][101CH2:1]C(=O)C(=O)Nc3cnc([100NH:0][100C:0](=O)N4CCCC(n5nc(-c6ccc(Oc7ccc(F)cc7F)cc6)c(C(N)=O)c5N)C4)cc3C)ccc2CC1C(=O)NC1CCCc2ccccc21)C(C)(C)C

> <Shape>
0.169

> <Color>
0.184

> <Negative vol penalty>
0.000

$$$$

  -OEChem-04052304203D

 84 92  0     1  0  0  0  0  0999 V2000
  -28.5145  -36.6019   24.1175 C   0  0  0  0  0  0  0  0  0  0  0  0
  -28.8856  -35.4227   23.4795 C   0  0  0  0  0  0  0  0  0  0  0  0
  -32.5649  -18.6316   20.3656 C   0  0  0  0  0  0  0  0  0  0  0  0
  -23.1754  -10.2081   22.1120 C   0  0  0  0  0  0  0  0  0  0  0  0
  -23.9139  -11.5924   23.9493 C   0  0  0  0  0  0  0  0  0  0  0  0
  -27.4301  -36.6077   24.9938 C   0  0  0  0  0  0  0  0  0  0  0  0
  -28.1730  -34.2481   23.7183 C   0  0  0  0  0  0  0  0  0  0  0  0
  -27.0203  -29.7624   19.7113 C   0  0  0  0  0  0  0  0  0  0  0  0
  -31.7432  -19.7551   20.4551 C   0  0  0  0  0  0  0  0  0  0  0  0
  -32.0030  -17.3706   20.1657 C   0  0  0  0  0  0  0  0  0  0  0  0
  -22.4522   -9.4134   23.0014 C   0  0  0  0  0  0  0  0  0  0  0  0
  -23.1907  -10.7977   24.8387 C   0  0  0  0  0  0  0  0  0  0  0  0
  -27.6304  -28.5300   19.4818 C   0  0  0  0  0  0  0  0  0  0  0  0
  -23.0875   -6.9300   25.2044 C   0  0  0  0  0  0  0  0  0  0  0  0
  -23.1833   -5.5459   25.0608 C   0  0  0  0  0  0  0  0  0  0  0  0
  -25.9799  -27.4597   20.8780 C   0  0  0  0  0  0  0  0  0  0  0  0
  -29.7975  -18.3568   20.1450 C   0  0  0  0  0  0  0  0  0  0  0  0
  -20.7993   -5.4193   24.6899 C   0  0  0  0  0  0  0  0  0  0  0  0
  -23.9063  -11.2976   22.5860 C   0  0  0  0  0  0  0  0  0  0  0  0
  -24.1991  -13.2642   20.9877 C   0  0  0  0  0  0  0  0  0  0  0  0
  -26.6979  -35.4347   25.2360 C   0  0  0  0  0  0  0  0  0  0  0  0
  -25.8899  -29.8544   20.5361 C   0  0  0  0  0  0  0  0  0  0  0  0
  -27.0786  -34.2378   24.5996 C   0  0  0  0  0  0  0  0  0  0  0  0
  -25.3558  -28.6940   21.1143 C   0  0  0  0  0  0  0  0  0  0  0  0
  -30.3595  -19.6178   20.3448 C   0  0  0  0  0  0  0  0  0  0  0  0
  -30.6193  -17.2333   20.0555 C   0  0  0  0  0  0  0  0  0  0  0  0
  -22.4599   -9.7082   24.3648 C   0  0  0  0  0  0  0  0  0  0  0  0
  -27.1120  -27.3788   20.0675 C   0  0  0  0  0  0  0  0  0  0  0  0
  -21.8475   -7.5588   25.0909 C   0  0  0  0  0  0  0  0  0  0  0  0
  -22.0393   -4.7905   24.8035 C   0  0  0  0  0  0  0  0  0  0  0  0
  -20.7035   -6.8034   24.8335 C   0  0  0  0  0  0  0  0  0  0  0  0
  -24.6540  -12.1186   21.6678 C   0  0  0  0  0  0  0  0  0  0  0  0
  -25.2795  -13.6745   20.2455 C   0  0  0  0  0  0  0  0  0  0  0  0
  -28.7317  -22.9888   20.6680 C   0  0  0  0  0  0  0  0  0  0  0  0
  -22.9149  -13.9007   21.0238 C   0  0  0  0  0  0  0  0  0  0  0  0
  -28.8211  -24.3172   20.8443 C   0  0  0  0  0  0  0  0  0  0  0  0
  -29.9191  -22.0780   20.6307 C   0  0  0  0  0  0  0  0  0  0  0  0
  -25.2216  -31.3337   23.2690 C   0  0  0  0  0  0  0  0  0  0  0  0
  -22.2257  -30.2399   22.6768 C   0  0  0  0  0  0  0  0  0  0  0  0
  -20.2334  -27.9463   21.1222 C   0  0  0  0  0  0  0  0  0  0  0  0
  -30.7221  -14.7359   19.7408 C   0  0  0  0  0  0  0  0  0  0  0  0
  -25.5624  -35.4795   26.2277 C   0  0  0  0  0  0  0  0  0  0  0  0
  -25.2275  -31.1875   20.7521 C   0  0  0  0  0  0  0  0  0  0  0  0
  -24.1321  -28.7361   21.9914 C   0  0  0  0  0  0  0  0  0  0  0  0
  -24.6281  -34.2756   26.1386 C   0  0  0  0  0  0  0  0  0  0  0  0
  -29.6775  -11.3642   19.2748 C   0  0  0  0  0  0  0  0  0  0  0  0
  -25.4311  -32.9807   26.0664 C   0  0  0  0  0  0  0  0  0  0  0  0
  -28.2400  -11.3541   19.7999 C   0  0  0  0  0  0  0  0  0  0  0  0
  -30.5768  -12.2816   20.1014 C   0  0  0  0  0  0  0  0  0  0  0  0
  -28.6433  -13.6439   20.7904 C   0  0  0  0  0  0  0  0  0  0  0  0
  -26.3151  -32.9489   24.8137 C   0  0  1  0  0  0  0  0  0  0  0  0
  -24.3862  -31.2375   22.0238 C   0  0  1  0  0  0  0  0  0  0  0  0
  -27.6849  -12.7841   19.9502 C   0  0  2  0  0  0  0  0  0  0  0  0
  -17.8272  -27.2853   20.8568 C   0  0  0  0  0  0  0  0  0  0  0  0
  -22.2587  -29.0079   25.4681 C   0  0  0  0  0  0  0  0  0  0  0  0
  -20.2988  -27.6029   24.7953 C   0  0  0  0  0  0  0  0  0  0  0  0
  -20.0956  -30.0889   24.8304 C   0  0  0  0  0  0  0  0  0  0  0  0
  -20.3103  -28.4014   18.1989 C   0  0  0  0  0  0  0  0  0  0  0  0
  -27.6104  -25.2020   20.8854 C   0  0  0  0  0  0  0  0  0  1  0  0
  -21.4608  -28.9825   23.0127 C   0  0  1  0  0  0  0  0  0  0  0  0
  -18.9747  -28.1058   20.2887 C   0  0  2  0  0  0  0  0  0  0  0  0
  -21.0527  -28.9197   24.5117 C   0  0  0  0  0  0  0  0  0  0  0  0
  -25.9243  -11.8201   21.3827 N   0  0  0  0  0  0  0  0  0  0  0  0
  -26.2768  -12.7841   20.5153 N   0  0  0  0  0  0  0  0  0  0  0  0
  -23.5240  -30.0640   22.1776 N   0  0  0  0  0  0  0  0  0  0  0  0
  -29.9895  -13.6197   20.1972 N   0  0  0  0  0  0  0  0  0  0  0  0
  -25.4642  -14.7063   19.3948 N   0  0  0  0  0  0  0  0  0  0  0  0
  -21.9181  -13.3483   21.8397 N   0  0  0  0  0  0  0  0  0  0  0  0
  -29.5256  -20.7595   20.4354 N   0  0  0  0  0  0  0  0  0  0  0  0
  -30.0490  -15.9521   19.8524 N   0  0  0  0  0  0  0  0  0  0  0  0
  -25.5240  -32.6285   23.6449 N   0  0  0  0  0  0  0  0  0  0  0  0
  -20.3366  -28.9284   22.0846 N   0  0  0  0  0  0  0  0  0  0  0  0
  -19.2215  -27.6618   18.8877 N   0  3  0  0  0  0  0  0  0  0  0  0
  -22.6538  -14.9193   20.3399 O   0  0  0  0  0  0  0  0  0  0  0  0
  -31.0603  -22.5033   20.7614 O   0  0  0  0  0  0  0  0  0  0  0  0
  -25.5650  -30.3090   23.8468 O   0  0  0  0  0  0  0  0  0  0  0  0
  -21.6883  -31.3376   22.8442 O   0  0  0  0  0  0  0  0  0  0  0  0
  -21.0422  -27.0389   20.9403 O   0  0  0  0  0  0  0  0  0  0  0  0
  -31.8519  -14.6179   19.2595 O   0  0  0  0  0  0  0  0  0  0  0  0
  -30.0314  -24.9584   21.0192 O   0  0  0  0  0  0  0  0  0  0  0  0
  -21.7541   -8.9331   25.2329 O   0  0  0  0  0  0  0  0  0  0  0  0
  -27.7060  -26.1747   19.8457 O   0  0  0  0  0  0  0  0  0  1  0  0
  -22.1317   -3.4615   24.6641 F   0  0  0  0  0  0  0  0  0  0  0  0
  -19.5097   -7.4020   24.7222 F   0  0  0  0  0  0  0  0  0  0  0  0
  1  2  1  0  0  0  0
  1  6  2  0  0  0  0
  2  7  2  0  0  0  0
  3  9  2  0  0  0  0
  3 10  1  0  0  0  0
  4 11  2  0  0  0  0
  4 19  1  0  0  0  0
  5 12  1  0  0  0  0
  5 19  2  0  0  0  0
  6 21  1  0  0  0  0
  7 23  1  0  0  0  0
  8 13  2  0  0  0  0
  8 22  1  0  0  0  0
  9 25  1  0  0  0  0
 10 26  2  0  0  0  0
 11 27  1  0  0  0  0
 12 27  2  0  0  0  0
 13 28  1  0  0  0  0
 14 15  2  0  0  0  0
 14 29  1  0  0  0  0
 15 30  1  0  0  0  0
 16 24  1  0  0  0  0
 16 28  2  0  0  0  0
 17 25  2  0  0  0  0
 17 26  1  0  0  0  0
 18 30  2  0  0  0  0
 18 31  1  0  0  0  0
 19 32  1  0  0  0  0
 20 32  1  0  0  0  0
 20 33  2  0  0  0  0
 20 35  1  0  0  0  0
 21 23  2  0  0  0  0
 21 42  1  0  0  0  0
 22 24  2  0  0  0  0
 22 43  1  0  0  0  0
 23 51  1  0  0  0  0
 24 44  1  0  0  0  0
 25 69  1  0  0  0  0
 26 70  1  0  0  0  0
 27 81  1  0  0  0  0
 28 82  1  0  0  0  0
 29 31  2  0  0  0  0
 29 81  1  0  0  0  0
 30 83  1  0  0  0  0
 31 84  1  0  0  0  0
 32 63  2  0  0  0  0
 33 64  1  0  0  0  0
 33 67  1  0  0  0  0
 34 36  2  0  0  0  0
 34 37  1  0  0  0  0
 35 68  1  0  0  0  0
 35 74  2  0  0  0  0
 36 59  1  0  0  0  0
 36 80  1  0  0  0  0
 37 69  1  0  0  0  0
 37 75  2  0  0  0  0
 38 52  1  0  0  0  0
 38 71  1  0  0  0  0
 38 76  2  0  0  0  0
 39 60  1  0  0  0  0
 39 65  1  0  0  0  0
 39 77  2  0  0  0  0
 40 61  1  0  0  0  0
 40 72  1  0  0  0  0
 40 78  2  0  0  0  0
 41 66  1  0  0  0  0
 41 70  1  0  0  0  0
 41 79  2  0  0  0  0
 42 45  1  0  0  0  0
 43 52  1  0  0  0  0
 44 65  1  0  0  0  0
 45 47  1  0  0  0  0
 46 48  1  0  0  0  0
 46 49  1  0  0  0  0
 47 51  1  0  0  0  0
 48 53  1  0  0  0  0
 49 66  1  0  0  0  0
 50 53  1  0  0  0  0
 50 66  1  0  0  0  0
 51 71  1  0  0  0  0
 52 65  1  0  0  0  0
 53 64  1  0  0  0  0
 54 61  1  0  0  0  0
 55 62  1  0  0  0  0
 56 62  1  0  0  0  0
 57 62  1  0  0  0  0
 58 73  1  0  0  0  0
 59 82  1  0  0  0  0
 60 62  1  0  0  0  0
 60 72  1  0  0  0  0
 61 73  1  0  0  0  0
 63 64  1  0  0  0  0
M  CHG  1  73   1
M  ISO  4  41 100  59 101  70 100  82 101
M  END
> <Batch ID>
0170

> <Smiles>
CNC(C)C(=O)NC(C(=O)N1Cc2cc([101O:1][101CH2:1]C(=O)CC(=O)Nc3cccc([100NH:0][100C:0](=O)N4CCCC(n5nc(-c6ccc(Oc7ccc(F)cc7F)cc6)c(C(N)=O)c5N)C4)c3)ccc2CC1C(=O)NC1CCCc2ccccc21)C(C)(C)C

> <Shape>
0.345

> <Color>
0.143

> <Negative vol penalty>
0.000

$$$$

  -OEChem-04052304203D

 86 94  0     1  0  0  0  0  0999 V2000
  -33.6197  -25.8787   19.3131 C   0  0  0  0  0  0  0  0  0  0  0  0
  -32.3273  -25.5702   19.7254 C   0  0  0  0  0  0  0  0  0  0  0  0
  -25.0574   -9.9587   20.6024 C   0  0  0  0  0  0  0  0  0  0  0  0
  -25.3671  -10.6808   22.8870 C   0  0  0  0  0  0  0  0  0  0  0  0
  -34.3043  -26.9395   19.9046 C   0  0  0  0  0  0  0  0  0  0  0  0
  -31.7191  -26.3217   20.7302 C   0  0  0  0  0  0  0  0  0  0  0  0
  -26.9305  -27.5375   19.6187 C   0  0  0  0  0  0  0  0  0  0  0  0
  -24.9147   -8.6413   21.0380 C   0  0  0  0  0  0  0  0  0  0  0  0
  -25.2244   -9.3634   23.3228 C   0  0  0  0  0  0  0  0  0  0  0  0
  -25.9660  -26.5449   19.7873 C   0  0  0  0  0  0  0  0  0  0  0  0
  -22.5055   -6.7294   22.4427 C   0  0  0  0  0  0  0  0  0  0  0  0
  -21.4644   -5.9763   21.9000 C   0  0  0  0  0  0  0  0  0  0  0  0
  -25.3351  -27.5252   21.8992 C   0  0  0  0  0  0  0  0  0  0  0  0
  -28.8408  -21.0747   21.2376 C   0  0  0  0  0  0  0  0  0  0  0  0
  -23.0649   -4.3843   21.0391 C   0  0  0  0  0  0  0  0  0  0  0  0
  -26.8347  -20.5541   22.1176 C   0  0  0  0  0  0  0  0  0  0  0  0
  -25.2837  -10.9784   21.5269 C   0  0  0  0  0  0  0  0  0  0  0  0
  -24.4122  -13.2961   20.9134 C   0  0  0  0  0  0  0  0  0  0  0  0
  -33.7006  -27.7105   20.9105 C   0  0  0  0  0  0  0  0  0  0  0  0
  -27.1122  -28.5267   20.5958 C   0  0  0  0  0  0  0  0  0  0  0  0
  -32.3968  -27.3930   21.3367 C   0  0  0  0  0  0  0  0  0  0  0  0
  -26.3007  -28.5307   21.7394 C   0  0  0  0  0  0  0  0  0  0  0  0
  -27.9630  -20.0068   21.5478 C   0  0  0  0  0  0  0  0  0  0  0  0
  -24.9982   -8.3437   22.3982 C   0  0  0  0  0  0  0  0  0  0  0  0
  -25.1701  -26.5370   20.9290 C   0  0  0  0  0  0  0  0  0  0  0  0
  -23.8263   -6.3100   22.2836 C   0  0  0  0  0  0  0  0  0  0  0  0
  -21.7441   -4.8037   21.1982 C   0  0  0  0  0  0  0  0  0  0  0  0
  -24.1060   -5.1374   21.5818 C   0  0  0  0  0  0  0  0  0  0  0  0
  -25.4317  -12.3393   21.0774 C   0  0  0  0  0  0  0  0  0  0  0  0
  -28.2222  -22.2421   21.6275 C   0  0  0  0  0  0  0  0  0  0  0  0
  -25.0646  -14.4206   20.4704 C   0  0  0  0  0  0  0  0  0  0  0  0
  -23.0015  -13.1789   21.1412 C   0  0  0  0  0  0  0  0  0  0  0  0
  -29.5130  -29.3950   22.4894 C   0  0  0  0  0  0  0  0  0  0  0  0
  -27.5073  -31.8227   23.2675 C   0  0  0  0  0  0  0  0  0  0  0  0
  -24.3046  -32.9853   23.4627 C   0  0  0  0  0  0  0  0  0  0  0  0
  -29.2996  -18.0245   20.7538 C   0  0  0  0  0  0  0  0  0  0  0  0
  -34.4978  -28.8178   21.5533 C   0  0  0  0  0  0  0  0  0  0  0  0
  -28.1387  -29.6060   20.3864 C   0  0  0  0  0  0  0  0  0  0  0  0
  -26.4423  -29.5821   22.8085 C   0  0  0  0  0  0  0  0  0  0  0  0
  -33.6431  -29.8003   22.3498 C   0  0  0  0  0  0  0  0  0  0  0  0
  -29.8244  -15.0508   18.8674 C   0  0  0  0  0  0  0  0  0  0  0  0
  -32.6590  -29.0504   23.2419 C   0  0  0  0  0  0  0  0  0  0  0  0
  -28.6445  -14.1590   19.2607 C   0  0  0  0  0  0  0  0  0  0  0  0
  -30.3303  -15.8760   20.0493 C   0  0  0  0  0  0  0  0  0  0  0  0
  -28.1221  -15.7700   21.1365 C   0  0  0  0  0  0  0  0  0  0  0  0
  -31.6941  -28.2005   22.4064 C   0  0  1  0  0  0  0  0  0  0  0  0
  -28.5869  -30.2648   21.6874 C   0  0  1  0  0  0  0  0  0  0  0  0
  -27.5363  -14.9678   19.9631 C   0  0  2  0  0  0  0  0  0  0  0  0
  -22.9776  -34.9927   24.1745 C   0  0  0  0  0  0  0  0  0  0  0  0
  -27.8941  -31.0389   26.1908 C   0  0  0  0  0  0  0  0  0  0  0  0
  -25.8718  -32.4040   26.7520 C   0  0  0  0  0  0  0  0  0  0  0  0
  -27.8816  -33.5031   25.7644 C   0  0  0  0  0  0  0  0  0  0  0  0
  -22.2735  -23.4700   21.6207 C   0  0  0  0  0  0  0  0  0  0  0  0
  -23.1394  -23.3577   23.9607 C   0  0  0  0  0  0  0  0  0  0  0  0
  -23.2419  -33.3958   20.7312 C   0  0  0  0  0  0  0  0  0  0  0  0
  -24.6418  -22.7586   21.9927 C   0  0  0  0  0  0  0  0  0  0  0  0
  -25.9892  -22.8839   22.7163 C   0  0  0  0  0  0  0  0  0  0  0  0
  -23.9202  -25.1874   22.4365 C   0  0  0  0  0  0  0  0  0  1  0  0
  -26.4327  -32.0302   24.3073 C   0  0  1  0  0  0  0  0  0  0  0  0
  -23.6801  -34.2960   23.0195 C   0  0  2  0  0  0  0  0  0  0  0  0
  -28.6914  -23.6397   21.5349 C   0  0  0  0  0  0  0  0  0  0  0  0
  -27.0185  -32.2230   25.7346 C   0  0  0  0  0  0  0  0  0  0  0  0
  -23.5161  -23.6992   22.5081 C   0  0  0  0  0  0  0  0  0  0  0  0
  -26.6400  -12.8145   20.7639 N   0  0  0  0  0  0  0  0  0  0  0  0
  -27.0035  -21.9135   22.1613 N   0  0  0  0  0  0  0  0  0  0  0  0
  -26.3839  -14.0821   20.3985 N   0  0  0  0  0  0  0  0  0  0  0  0
  -27.4643  -30.6125   22.5609 N   0  0  0  0  0  0  0  0  0  0  0  0
  -29.2266  -16.6184   20.6621 N   0  0  0  0  0  0  0  0  0  0  0  0
  -24.6328  -15.6561   20.1392 N   0  0  0  0  0  0  0  0  0  0  0  0
  -22.4978  -11.9527   21.5962 N   0  0  0  0  0  0  0  0  0  0  0  0
  -28.1777  -18.6240   21.3254 N   0  0  0  0  0  0  0  0  0  0  0  0
  -30.6660  -29.0329   21.8194 N   0  0  0  0  0  0  0  0  0  0  0  0
  -25.6213  -33.1482   23.8384 N   0  0  0  0  0  0  0  0  0  0  0  0
  -22.6822  -34.0551   21.9391 N   0  3  0  0  0  0  0  0  0  0  0  0
  -22.2089  -14.1283   20.9313 O   0  0  0  0  0  0  0  0  0  0  0  0
  -29.2051  -29.0771   23.6322 O   0  0  0  0  0  0  0  0  0  0  0  0
  -28.3495  -32.7051   23.0839 O   0  0  0  0  0  0  0  0  0  0  0  0
  -23.6853  -31.9238   23.4779 O   0  0  0  0  0  0  0  0  0  0  0  0
  -30.2729  -18.6529   20.3299 O   0  0  0  0  0  0  0  0  0  0  0  0
  -24.8587   -7.0584   22.8237 O   0  0  0  0  0  0  0  0  0  0  0  0
  -24.2284  -25.5689   21.0964 O   0  0  0  0  0  0  0  0  0  1  0  0
  -20.7442   -4.0798   20.6783 F   0  0  0  0  0  0  0  0  0  0  0  0
  -25.3728   -4.7288   21.4268 F   0  0  0  0  0  0  0  0  0  0  0  0
  -29.9347  -23.7788   20.9723 F   0  0  0  0  0  0  0  0  0  0  0  0
  -27.8824  -24.4544   20.7844 F   0  0  0  0  0  0  0  0  0  0  0  0
  -28.7839  -24.2594   22.7537 F   0  0  0  0  0  0  0  0  0  0  0  0
  1  2  1  0  0  0  0
  1  5  2  0  0  0  0
  2  6  2  0  0  0  0
  3  8  2  0  0  0  0
  3 17  1  0  0  0  0
  4  9  1  0  0  0  0
  4 17  2  0  0  0  0
  5 19  1  0  0  0  0
  6 21  1  0  0  0  0
  7 10  2  0  0  0  0
  7 20  1  0  0  0  0
  8 24  1  0  0  0  0
  9 24  2  0  0  0  0
 10 25  1  0  0  0  0
 11 12  2  0  0  0  0
 11 26  1  0  0  0  0
 12 27  1  0  0  0  0
 13 22  1  0  0  0  0
 13 25  2  0  0  0  0
 14 23  1  0  0  0  0
 14 30  2  0  0  0  0
 15 27  2  0  0  0  0
 15 28  1  0  0  0  0
 16 23  2  0  0  0  0
 16 65  1  0  0  0  0
 17 29  1  0  0  0  0
 18 29  1  0  0  0  0
 18 31  2  0  0  0  0
 18 32  1  0  0  0  0
 19 21  2  0  0  0  0
 19 37  1  0  0  0  0
 20 22  2  0  0  0  0
 20 38  1  0  0  0  0
 21 46  1  0  0  0  0
 22 39  1  0  0  0  0
 23 71  1  0  0  0  0
 24 80  1  0  0  0  0
 25 81  1  0  0  0  0
 26 28  2  0  0  0  0
 26 80  1  0  0  0  0
 27 82  1  0  0  0  0
 28 83  1  0  0  0  0
 29 64  2  0  0  0  0
 30 61  1  0  0  0  0
 30 65  1  0  0  0  0
 31 66  1  0  0  0  0
 31 69  1  0  0  0  0
 32 70  1  0  0  0  0
 32 75  2  0  0  0  0
 33 47  1  0  0  0  0
 33 72  1  0  0  0  0
 33 76  2  0  0  0  0
 34 59  1  0  0  0  0
 34 67  1  0  0  0  0
 34 77  2  0  0  0  0
 35 60  1  0  0  0  0
 35 73  1  0  0  0  0
 35 78  2  0  0  0  0
 36 68  1  0  0  0  0
 36 71  1  0  0  0  0
 36 79  2  0  0  0  0
 37 40  1  0  0  0  0
 38 47  1  0  0  0  0
 39 67  1  0  0  0  0
 40 42  1  0  0  0  0
 41 43  1  0  0  0  0
 41 44  1  0  0  0  0
 42 46  1  0  0  0  0
 43 48  1  0  0  0  0
 44 68  1  0  0  0  0
 45 48  1  0  0  0  0
 45 68  1  0  0  0  0
 46 72  1  0  0  0  0
 47 67  1  0  0  0  0
 48 66  1  0  0  0  0
 49 60  1  0  0  0  0
 50 62  1  0  0  0  0
 51 62  1  0  0  0  0
 52 62  1  0  0  0  0
 53 63  1  0  0  0  0
 54 63  1  0  0  0  0
 55 74  1  0  0  0  0
 56 57  1  0  0  0  0
 56 63  1  0  0  0  0
 57 65  1  0  0  0  0
 58 63  1  0  0  0  0
 58 81  1  0  0  0  0
 59 62  1  0  0  0  0
 59 73  1  0  0  0  0
 60 74  1  0  0  0  0
 61 84  1  0  0  0  0
 61 85  1  0  0  0  0
 61 86  1  0  0  0  0
 64 66  1  0  0  0  0
M  CHG  1  74   1
M  ISO  4  36 100  58 101  71 100  81 101
M  END
> <Batch ID>
0170

> <Smiles>
CNC(C)C(=O)NC(C(=O)N1Cc2cc([101O:1][101CH2:1]C(C)(C)CCn3cc([100NH:0][100C:0](=O)N4CCCC(n5nc(-c6ccc(Oc7ccc(F)cc7F)cc6)c(C(N)=O)c5N)C4)cc3C(F)(F)F)ccc2CC1C(=O)NC1CCCc2ccccc21)C(C)(C)C

> <Shape>
0.256

> <Color>
0.098

> <Negative vol penalty>
0.000

$$$$

  -OEChem-04052304203D

 85 93  0     1  0  0  0  0  0999 V2000
  -26.8665  -34.9300   27.4096 C   0  0  0  0  0  0  0  0  0  0  0  0
  -27.5208  -34.1130   26.4932 C   0  0  0  0  0  0  0  0  0  0  0  0
  -24.9696  -11.0616   21.2736 C   0  0  0  0  0  0  0  0  0  0  0  0
  -25.0621  -12.3125   23.3385 C   0  0  0  0  0  0  0  0  0  0  0  0
  -25.5738  -34.6135   27.8253 C   0  0  0  0  0  0  0  0  0  0  0  0
  -26.8831  -32.9783   25.9928 C   0  0  0  0  0  0  0  0  0  0  0  0
  -27.4109  -30.6438   20.3557 C   0  0  0  0  0  0  0  0  0  0  0  0
  -25.1206   -9.8727   21.9871 C   0  0  0  0  0  0  0  0  0  0  0  0
  -25.2131  -11.1235   24.0520 C   0  0  0  0  0  0  0  0  0  0  0  0
  -28.1748  -29.5968   19.8417 C   0  0  0  0  0  0  0  0  0  0  0  0
  -23.1800   -7.8178   23.8430 C   0  0  0  0  0  0  0  0  0  0  0  0
  -22.3477   -6.7501   23.5070 C   0  0  0  0  0  0  0  0  0  0  0  0
  -26.2902  -28.1107   20.0840 C   0  0  0  0  0  0  0  0  0  0  0  0
  -28.6473  -21.1791   21.4517 C   0  0  0  0  0  0  0  0  0  0  0  0
  -28.0102  -20.0266   23.4772 C   0  0  0  0  0  0  0  0  0  0  0  0
  -24.2842   -5.4123   22.9615 C   0  0  0  0  0  0  0  0  0  0  0  0
  -24.9405  -12.2816   21.9493 C   0  0  0  0  0  0  0  0  0  0  0  0
  -23.5787  -14.1536   20.8773 C   0  0  0  0  0  0  0  0  0  0  0  0
  -24.9163  -33.4798   27.3223 C   0  0  0  0  0  0  0  0  0  0  0  0
  -26.0820  -30.4291   20.7484 C   0  0  0  0  0  0  0  0  0  0  0  0
  -25.5809  -32.6457   26.4031 C   0  0  0  0  0  0  0  0  0  0  0  0
  -25.5107  -29.1572   20.6002 C   0  0  0  0  0  0  0  0  0  0  0  0
  -28.4121  -19.9901   22.1420 C   0  0  0  0  0  0  0  0  0  0  0  0
  -28.4806  -22.4047   22.0966 C   0  0  0  0  0  0  0  0  0  0  0  0
  -28.0787  -22.4412   23.4318 C   0  0  0  0  0  0  0  0  0  0  0  0
  -25.2423   -9.9036   23.3763 C   0  0  0  0  0  0  0  0  0  0  0  0
  -27.6154  -28.3294   19.7085 C   0  0  0  0  0  0  0  0  0  0  0  0
  -24.5644   -7.6828   23.7381 C   0  0  0  0  0  0  0  0  0  0  0  0
  -22.8998   -5.5473   23.0663 C   0  0  0  0  0  0  0  0  0  0  0  0
  -27.8435  -21.2522   24.1222 C   0  0  0  0  0  0  0  0  0  0  0  0
  -25.1165   -6.4800   23.2975 C   0  0  0  0  0  0  0  0  0  0  0  0
  -24.7851  -13.5102   21.2128 C   0  0  0  0  0  0  0  0  0  0  0  0
  -23.9680  -15.2728   20.1829 C   0  0  0  0  0  0  0  0  0  0  0  0
  -22.2271  -13.7735   21.1676 C   0  0  0  0  0  0  0  0  0  0  0  0
  -29.2867  -25.1342   19.6350 C   0  0  0  0  0  0  0  0  0  0  0  0
  -29.1249  -23.7040   20.0621 C   0  0  0  0  0  0  0  0  0  0  0  0
  -24.4896  -30.6511   23.4905 C   0  0  0  0  0  0  0  0  0  0  0  0
  -21.9255  -30.0363   21.6011 C   0  0  0  0  0  0  0  0  0  0  0  0
  -20.7154  -28.6950   18.7057 C   0  0  0  0  0  0  0  0  0  0  0  0
  -28.9770  -18.5308   20.1678 C   0  0  0  0  0  0  0  0  0  0  0  0
  -23.5370  -33.1525   27.8371 C   0  0  0  0  0  0  0  0  0  0  0  0
  -25.2631  -31.5752   21.2760 C   0  0  0  0  0  0  0  0  0  0  0  0
  -24.0822  -28.8794   20.9882 C   0  0  0  0  0  0  0  0  0  0  0  0
  -22.7898  -32.1385   26.9747 C   0  0  0  0  0  0  0  0  0  0  0  0
  -27.4885  -16.9010   17.3740 C   0  0  0  0  0  0  0  0  0  0  0  0
  -23.6956  -30.9606   26.6299 C   0  0  0  0  0  0  0  0  0  0  0  0
  -26.5121  -15.9093   18.0107 C   0  0  0  0  0  0  0  0  0  0  0  0
  -28.7715  -17.0380   18.1918 C   0  0  0  0  0  0  0  0  0  0  0  0
  -27.5954  -16.3628   20.2485 C   0  0  0  0  0  0  0  0  0  0  0  0
  -24.9131  -31.4199   25.8186 C   0  0  1  0  0  0  0  0  0  0  0  0
  -24.0786  -31.1225   22.1243 C   0  0  1  0  0  0  0  0  0  0  0  0
  -26.2609  -16.2399   19.4951 C   0  0  2  0  0  0  0  0  0  0  0  0
  -18.5725  -28.3100   17.4578 C   0  0  0  0  0  0  0  0  0  0  0  0
  -21.2364  -27.7459   23.4957 C   0  0  0  0  0  0  0  0  0  0  0  0
  -19.7092  -26.8385   21.7314 C   0  0  0  0  0  0  0  0  0  0  0  0
  -19.2721  -29.0861   22.7213 C   0  0  0  0  0  0  0  0  0  0  0  0
  -21.6215  -30.3318   16.4125 C   0  0  0  0  0  0  0  0  0  0  0  0
  -28.0482  -25.9913   19.6685 C   0  0  0  0  0  0  0  0  0  1  0  0
  -21.2169  -28.7880   21.1335 C   0  0  1  0  0  0  0  0  0  0  0  0
  -19.7551  -29.2434   17.6658 C   0  0  2  0  0  0  0  0  0  0  0  0
  -20.3862  -28.1191   22.2649 C   0  0  0  0  0  0  0  0  0  0  0  0
  -25.8603  -14.1661   20.7679 N   0  0  0  0  0  0  0  0  0  0  0  0
  -25.3308  -15.2332   20.1457 N   0  0  0  0  0  0  0  0  0  0  0  0
  -23.3243  -30.0309   21.5049 N   0  0  0  0  0  0  0  0  0  0  0  0
  -28.4557  -17.3558   19.5862 N   0  0  0  0  0  0  0  0  0  0  0  0
  -27.9052  -23.6727   24.1031 N   0  0  0  0  0  0  0  0  0  0  0  0
  -23.2741  -16.2771   19.6064 N   0  0  0  0  0  0  0  0  0  0  0  0
  -22.0055  -12.5938   21.8912 N   0  0  0  0  0  0  0  0  0  0  0  0
  -28.7254  -23.5974   21.3768 N   0  0  0  0  0  0  0  0  0  0  0  0
  -28.5824  -18.7447   21.4881 N   0  0  0  0  0  0  0  0  0  0  0  0
  -24.5423  -31.6542   24.4395 N   0  0  0  0  0  0  0  0  0  0  0  0
  -20.4326  -29.1767   19.9664 N   0  0  0  0  0  0  0  0  0  0  0  0
  -20.4509  -29.4187   16.3596 N   0  3  0  0  0  0  0  0  0  0  0  0
  -21.2443  -14.4510   20.7821 O   0  0  0  0  0  0  0  0  0  0  0  0
  -30.3970  -25.4944   19.2742 O   0  0  0  0  0  0  0  0  0  0  0  0
  -29.3840  -22.8521   19.2283 O   0  0  0  0  0  0  0  0  0  0  0  0
  -24.7389  -29.4649   23.6707 O   0  0  0  0  0  0  0  0  0  0  0  0
  -21.2619  -30.9840   22.0291 O   0  0  0  0  0  0  0  0  0  0  0  0
  -21.6231  -27.9142   18.4281 O   0  0  0  0  0  0  0  0  0  0  0  0
  -29.6968  -19.3053   19.5322 O   0  0  0  0  0  0  0  0  0  0  0  0
  -25.3894   -8.7435   24.0728 O   0  0  0  0  0  0  0  0  0  0  0  0
  -28.3590  -27.3056   19.2078 O   0  0  0  0  0  0  0  0  0  1  0  0
  -22.1005   -4.5215   22.7452 F   0  0  0  0  0  0  0  0  0  0  0  0
  -27.4579  -21.2747   25.4060 F   0  0  0  0  0  0  0  0  0  0  0  0
  -26.4458   -6.3440   23.1959 F   0  0  0  0  0  0  0  0  0  0  0  0
  1  2  1  0  0  0  0
  1  5  2  0  0  0  0
  2  6  2  0  0  0  0
  3  8  2  0  0  0  0
  3 17  1  0  0  0  0
  4  9  1  0  0  0  0
  4 17  2  0  0  0  0
  5 19  1  0  0  0  0
  6 21  1  0  0  0  0
  7 10  2  0  0  0  0
  7 20  1  0  0  0  0
  8 26  1  0  0  0  0
  9 26  2  0  0  0  0
 10 27  1  0  0  0  0
 11 12  2  0  0  0  0
 11 28  1  0  0  0  0
 12 29  1  0  0  0  0
 13 22  1  0  0  0  0
 13 27  2  0  0  0  0
 14 23  2  0  0  0  0
 14 24  1  0  0  0  0
 15 23  1  0  0  0  0
 15 30  2  0  0  0  0
 16 29  2  0  0  0  0
 16 31  1  0  0  0  0
 17 32  1  0  0  0  0
 18 32  1  0  0  0  0
 18 33  2  0  0  0  0
 18 34  1  0  0  0  0
 19 21  2  0  0  0  0
 19 41  1  0  0  0  0
 20 22  2  0  0  0  0
 20 42  1  0  0  0  0
 21 50  1  0  0  0  0
 22 43  1  0  0  0  0
 23 70  1  0  0  0  0
 24 25  2  0  0  0  0
 24 69  1  0  0  0  0
 25 30  1  0  0  0  0
 25 66  1  0  0  0  0
 26 81  1  0  0  0  0
 27 82  1  0  0  0  0
 28 31  2  0  0  0  0
 28 81  1  0  0  0  0
 29 83  1  0  0  0  0
 30 84  1  0  0  0  0
 31 85  1  0  0  0  0
 32 62  2  0  0  0  0
 33 63  1  0  0  0  0
 33 67  1  0  0  0  0
 34 68  1  0  0  0  0
 34 74  2  0  0  0  0
 35 36  1  0  0  0  0
 35 58  1  0  0  0  0
 35 75  2  0  0  0  0
 36 69  1  0  0  0  0
 36 76  2  0  0  0  0
 37 51  1  0  0  0  0
 37 71  1  0  0  0  0
 37 77  2  0  0  0  0
 38 59  1  0  0  0  0
 38 64  1  0  0  0  0
 38 78  2  0  0  0  0
 39 60  1  0  0  0  0
 39 72  1  0  0  0  0
 39 79  2  0  0  0  0
 40 65  1  0  0  0  0
 40 70  1  0  0  0  0
 40 80  2  0  0  0  0
 41 44  1  0  0  0  0
 42 51  1  0  0  0  0
 43 64  1  0  0  0  0
 44 46  1  0  0  0  0
 45 47  1  0  0  0  0
 45 48  1  0  0  0  0
 46 50  1  0  0  0  0
 47 52  1  0  0  0  0
 48 65  1  0  0  0  0
 49 52  1  0  0  0  0
 49 65  1  0  0  0  0
 50 71  1  0  0  0  0
 51 64  1  0  0  0  0
 52 63  1  0  0  0  0
 53 60  1  0  0  0  0
 54 61  1  0  0  0  0
 55 61  1  0  0  0  0
 56 61  1  0  0  0  0
 57 73  1  0  0  0  0
 58 82  1  0  0  0  0
 59 61  1  0  0  0  0
 59 72  1  0  0  0  0
 60 73  1  0  0  0  0
 62 63  1  0  0  0  0
M  CHG  1  73   1
M  ISO  4  40 100  58 101  70 100  82 101
M  END
> <Batch ID>
0170

> <Smiles>
CNC(C)C(=O)NC(C(=O)N1Cc2cc([101O:1][101CH2:1]C(=O)C(=O)Nc3cc([100NH:0][100C:0](=O)N4CCCC(n5nc(-c6ccc(Oc7ccc(F)cc7F)cc6)c(C(N)=O)c5N)C4)cc(F)c3N)ccc2CC1C(=O)NC1CCCc2ccccc21)C(C)(C)C

> <Shape>
0.290

> <Color>
0.090

> <Negative vol penalty>
0.000

$$$$

  -OEChem-04052304203D

 87 95  0     1  0  0  0  0  0999 V2000
  -30.1218  -24.8569   17.8245 C   0  0  0  0  0  0  0  0  0  0  0  0
  -28.7350  -24.9616   17.8595 C   0  0  0  0  0  0  0  0  0  0  0  0
  -28.0813  -18.0228   22.5138 C   0  0  0  0  0  0  0  0  0  0  0  0
  -26.3530  -17.0878   21.1081 C   0  0  0  0  0  0  0  0  0  0  0  0
  -30.8822  -25.3234   18.8959 C   0  0  0  0  0  0  0  0  0  0  0  0
  -28.1077  -25.5319   18.9666 C   0  0  0  0  0  0  0  0  0  0  0  0
  -23.0151  -28.9336   18.9658 C   0  0  0  0  0  0  0  0  0  0  0  0
  -29.0420  -17.2818   21.8254 C   0  0  0  0  0  0  0  0  0  0  0  0
  -27.3136  -16.3469   20.4198 C   0  0  0  0  0  0  0  0  0  0  0  0
  -21.6819  -28.6264   19.2339 C   0  0  0  0  0  0  0  0  0  0  0  0
  -29.0846  -13.5071   20.8996 C   0  0  0  0  0  0  0  0  0  0  0  0
  -28.8037  -12.1662   20.6378 C   0  0  0  0  0  0  0  0  0  0  0  0
  -21.9703  -29.3848   21.5056 C   0  0  0  0  0  0  0  0  0  0  0  0
  -18.0861  -21.1670   24.5272 C   0  0  0  0  0  0  0  0  0  0  0  0
  -28.9854  -12.5911   18.2664 C   0  0  0  0  0  0  0  0  0  0  0  0
  -16.3829  -21.0230   26.6543 C   0  0  0  0  0  0  0  0  0  0  0  0
  -26.7368  -17.9257   22.1552 C   0  0  0  0  0  0  0  0  0  0  0  0
  -25.2905  -19.9876   22.5606 C   0  0  0  0  0  0  0  0  0  0  0  0
  -30.2645  -25.9085   20.0125 C   0  0  0  0  0  0  0  0  0  0  0  0
  -23.8403  -29.4594   19.9702 C   0  0  0  0  0  0  0  0  0  0  0  0
  -28.8605  -26.0054   20.0546 C   0  0  0  0  0  0  0  0  0  0  0  0
  -23.3130  -29.7002   21.2470 C   0  0  0  0  0  0  0  0  0  0  0  0
  -16.9127  -21.9129   24.5132 C   0  0  0  0  0  0  0  0  0  0  0  0
  -28.6581  -16.4439   20.7784 C   0  0  0  0  0  0  0  0  0  0  0  0
  -21.1601  -28.8493   20.5048 C   0  0  0  0  0  0  0  0  0  0  0  0
  -29.3158  -14.3901   19.8448 C   0  0  0  0  0  0  0  0  0  0  0  0
  -28.7542  -11.7082   19.3212 C   0  0  0  0  0  0  0  0  0  0  0  0
  -29.2663  -13.9321   18.5282 C   0  0  0  0  0  0  0  0  0  0  0  0
  -16.0395  -21.8451   25.5931 C   0  0  0  0  0  0  0  0  0  0  0  0
  -25.7440  -18.6904   22.8662 C   0  0  0  0  0  0  0  0  0  0  0  0
  -18.3380  -20.3754   25.6362 C   0  0  0  0  0  0  0  0  0  0  0  0
  -24.3547  -20.2611   23.5280 C   0  0  0  0  0  0  0  0  0  0  0  0
  -18.3881  -26.0130   22.5956 C   0  0  0  0  0  0  0  0  0  0  0  0
  -25.6804  -20.8668   21.4972 C   0  0  0  0  0  0  0  0  0  0  0  0
  -18.3372  -27.2673   22.1128 C   0  0  0  0  0  0  0  0  0  0  0  0
  -17.2223  -25.0834   22.6343 C   0  0  0  0  0  0  0  0  0  0  0  0
  -26.4982  -28.4955   21.4228 C   0  0  0  0  0  0  0  0  0  0  0  0
  -26.3537  -31.4346   22.7879 C   0  0  0  0  0  0  0  0  0  0  0  0
  -24.4465  -34.1104   23.7094 C   0  0  0  0  0  0  0  0  0  0  0  0
  -19.9905  -18.7636   26.6448 C   0  0  0  0  0  0  0  0  0  0  0  0
  -31.1255  -26.3553   21.1673 C   0  0  0  0  0  0  0  0  0  0  0  0
  -25.2691  -29.8105   19.6576 C   0  0  0  0  0  0  0  0  0  0  0  0
  -24.1516  -30.2820   22.3545 C   0  0  0  0  0  0  0  0  0  0  0  0
  -30.4057  -27.2871   22.1389 C   0  0  0  0  0  0  0  0  0  0  0  0
  -23.2165  -17.7962   27.8001 C   0  0  0  0  0  0  0  0  0  0  0  0
  -29.0238  -26.7386   22.4798 C   0  0  0  0  0  0  0  0  0  0  0  0
  -24.1243  -18.0493   26.5943 C   0  0  0  0  0  0  0  0  0  0  0  0
  -21.8431  -17.2780   27.3771 C   0  0  0  0  0  0  0  0  0  0  0  0
  -22.0582  -18.3533   25.1710 C   0  0  0  0  0  0  0  0  0  0  0  0
  -28.1448  -26.6405   21.2271 C   0  0  1  0  0  0  0  0  0  0  0  0
  -26.1569  -29.8611   20.8971 C   0  0  1  0  0  0  0  0  0  0  0  0
  -23.4306  -18.9379   25.5432 C   0  0  2  0  0  0  0  0  0  0  0  0
  -16.4661  -22.0003   22.0262 C   0  0  0  0  0  0  0  0  0  0  0  0
  -24.6034  -36.3453   24.8398 C   0  0  0  0  0  0  0  0  0  0  0  0
  -26.5451  -30.0473   25.4988 C   0  0  0  0  0  0  0  0  0  0  0  0
  -25.7524  -32.1702   26.5631 C   0  0  0  0  0  0  0  0  0  0  0  0
  -27.9026  -32.1381   25.2988 C   0  0  0  0  0  0  0  0  0  0  0  0
  -23.5140  -35.5312   21.2864 C   0  0  0  0  0  0  0  0  0  0  0  0
  -19.5406  -28.1633   22.1056 C   0  0  0  0  0  0  0  0  0  1  0  0
  -16.5895  -22.7936   23.3255 C   0  0  2  0  0  0  0  0  0  0  0  0
  -25.7182  -32.0051   24.0328 C   0  0  1  0  0  0  0  0  0  0  0  0
  -24.6431  -35.6028   23.5132 C   0  0  2  0  0  0  0  0  0  0  0  0
  -26.4640  -31.5774   25.3282 C   0  0  0  0  0  0  0  0  0  0  0  0
  -17.5137  -20.2838   26.7038 N   0  0  0  0  0  0  0  0  0  0  0  0
  -25.1456  -18.1755   23.9436 N   0  0  0  0  0  0  0  0  0  0  0  0
  -24.3066  -19.1542   24.3235 N   0  0  0  0  0  0  0  0  0  0  0  0
  -25.5443  -30.6028   22.0012 N   0  0  0  0  0  0  0  0  0  0  0  0
  -21.2447  -18.1723   26.3836 N   0  0  0  0  0  0  0  0  0  0  0  0
  -23.5765  -21.3379   23.7673 N   0  0  0  0  0  0  0  0  0  0  0  0
  -26.6555  -20.4282   20.5912 N   0  0  0  0  0  0  0  0  0  0  0  0
  -19.5371  -19.6205   25.6425 N   0  0  0  0  0  0  0  0  0  0  0  0
  -17.5571  -23.8562   23.1823 N   0  0  0  0  0  0  0  0  0  0  0  0
  -27.6357  -27.9454   20.8633 N   0  0  0  0  0  0  0  0  0  0  0  0
  -25.6498  -33.4484   23.8314 N   0  0  0  0  0  0  0  0  0  0  0  0
  -23.5745  -36.1549   22.6334 N   0  3  0  0  0  0  0  0  0  0  0  0
  -25.1906  -22.0140   21.3644 O   0  0  0  0  0  0  0  0  0  0  0  0
  -16.1093  -25.3949   22.2245 O   0  0  0  0  0  0  0  0  0  0  0  0
  -25.7834  -27.9798   22.2741 O   0  0  0  0  0  0  0  0  0  0  0  0
  -27.5228  -31.7222   22.5196 O   0  0  0  0  0  0  0  0  0  0  0  0
  -23.3363  -33.5850   23.7539 O   0  0  0  0  0  0  0  0  0  0  0  0
  -19.3774  -18.5484   27.6936 O   0  0  0  0  0  0  0  0  0  0  0  0
  -17.2039  -27.8652   21.6028 O   0  0  0  0  0  0  0  0  0  0  0  0
  -29.5953  -15.7210   20.1064 O   0  0  0  0  0  0  0  0  0  0  0  0
  -19.8592  -28.5497   20.7694 O   0  0  0  0  0  0  0  0  0  1  0  0
  -28.4860  -10.4201   19.0700 F   0  0  0  0  0  0  0  0  0  0  0  0
  -29.4887  -14.7754   17.5108 F   0  0  0  0  0  0  0  0  0  0  0  0
  -14.9006  -22.5483   25.6150 F   0  0  0  0  0  0  0  0  0  0  0  0
  1  2  1  0  0  0  0
  1  5  2  0  0  0  0
  2  6  2  0  0  0  0
  3  8  2  0  0  0  0
  3 17  1  0  0  0  0
  4  9  1  0  0  0  0
  4 17  2  0  0  0  0
  5 19  1  0  0  0  0
  6 21  1  0  0  0  0
  7 10  2  0  0  0  0
  7 20  1  0  0  0  0
  8 24  1  0  0  0  0
  9 24  2  0  0  0  0
 10 25  1  0  0  0  0
 11 12  2  0  0  0  0
 11 26  1  0  0  0  0
 12 27  1  0  0  0  0
 13 22  1  0  0  0  0
 13 25  2  0  0  0  0
 14 23  1  0  0  0  0
 14 31  2  0  0  0  0
 15 27  2  0  0  0  0
 15 28  1  0  0  0  0
 16 29  1  0  0  0  0
 16 64  2  0  0  0  0
 17 30  1  0  0  0  0
 18 30  1  0  0  0  0
 18 32  2  0  0  0  0
 18 34  1  0  0  0  0
 19 21  2  0  0  0  0
 19 41  1  0  0  0  0
 20 22  2  0  0  0  0
 20 42  1  0  0  0  0
 21 50  1  0  0  0  0
 22 43  1  0  0  0  0
 23 29  2  0  0  0  0
 23 60  1  0  0  0  0
 24 83  1  0  0  0  0
 25 84  1  0  0  0  0
 26 28  2  0  0  0  0
 26 83  1  0  0  0  0
 27 85  1  0  0  0  0
 28 86  1  0  0  0  0
 29 87  1  0  0  0  0
 30 65  2  0  0  0  0
 31 64  1  0  0  0  0
 31 71  1  0  0  0  0
 32 66  1  0  0  0  0
 32 69  1  0  0  0  0
 33 35  2  0  0  0  0
 33 36  1  0  0  0  0
 34 70  1  0  0  0  0
 34 76  2  0  0  0  0
 35 59  1  0  0  0  0
 35 82  1  0  0  0  0
 36 72  1  0  0  0  0
 36 77  2  0  0  0  0
 37 51  1  0  0  0  0
 37 73  1  0  0  0  0
 37 78  2  0  0  0  0
 38 61  1  0  0  0  0
 38 67  1  0  0  0  0
 38 79  2  0  0  0  0
 39 62  1  0  0  0  0
 39 74  1  0  0  0  0
 39 80  2  0  0  0  0
 40 68  1  0  0  0  0
 40 71  1  0  0  0  0
 40 81  2  0  0  0  0
 41 44  1  0  0  0  0
 42 51  1  0  0  0  0
 43 67  1  0  0  0  0
 44 46  1  0  0  0  0
 45 47  1  0  0  0  0
 45 48  1  0  0  0  0
 46 50  1  0  0  0  0
 47 52  1  0  0  0  0
 48 68  1  0  0  0  0
 49 52  1  0  0  0  0
 49 68  1  0  0  0  0
 50 73  1  0  0  0  0
 51 67  1  0  0  0  0
 52 66  1  0  0  0  0
 53 60  1  0  0  0  0
 54 62  1  0  0  0  0
 55 63  1  0  0  0  0
 56 63  1  0  0  0  0
 57 63  1  0  0  0  0
 58 75  1  0  0  0  0
 59 84  1  0  0  0  0
 60 72  1  0  0  0  0
 61 63  1  0  0  0  0
 61 74  1  0  0  0  0
 62 75  1  0  0  0  0
 65 66  1  0  0  0  0
M  CHG  1  75   1
M  ISO  4  40 100  59 101  71 100  84 101
M  END
> <Batch ID>
0170

> <Smiles>
CNC(C)C(=O)NC(C(=O)N1Cc2cc([101O:1][101CH2:1]C(=O)CC(=O)NC(C)c3cc([100NH:0][100C:0](=O)N4CCCC(n5nc(-c6ccc(Oc7ccc(F)cc7F)cc6)c(C(N)=O)c5N)C4)ncc3F)ccc2CC1C(=O)NC1CCCc2ccccc21)C(C)(C)C

> <Shape>
0.262

> <Color>
0.067

> <Negative vol penalty>
0.000

$$$$

  -OEChem-04052304203D

 81 89  0     1  0  0  0  0  0999 V2000
  -29.6870  -36.1320   21.3868 C   0  0  0  0  0  0  0  0  0  0  0  0
  -29.7423  -34.7429   21.3353 C   0  0  0  0  0  0  0  0  0  0  0  0
  -23.8564   -9.4846   22.4251 C   0  0  0  0  0  0  0  0  0  0  0  0
  -23.2504   -9.9894   20.1415 C   0  0  0  0  0  0  0  0  0  0  0  0
  -28.6862  -36.7618   22.1256 C   0  0  0  0  0  0  0  0  0  0  0  0
  -28.7974  -33.9826   22.0235 C   0  0  0  0  0  0  0  0  0  0  0  0
  -26.9831  -30.1582   19.2439 C   0  0  0  0  0  0  0  0  0  0  0  0
  -23.0321   -8.3598   22.3953 C   0  0  0  0  0  0  0  0  0  0  0  0
  -22.4260   -8.8646   20.1116 C   0  0  0  0  0  0  0  0  0  0  0  0
  -27.7881  -29.0273   19.1144 C   0  0  0  0  0  0  0  0  0  0  0  0
  -23.1666   -5.2043   21.1880 C   0  0  0  0  0  0  0  0  0  0  0  0
  -23.6729   -4.0154   21.7132 C   0  0  0  0  0  0  0  0  0  0  0  0
  -26.4911  -27.9164   20.8182 C   0  0  0  0  0  0  0  0  0  0  0  0
  -21.8750   -3.9622   23.3262 C   0  0  0  0  0  0  0  0  0  0  0  0
  -28.2672  -18.3784   18.1483 C   0  0  0  0  0  0  0  0  0  0  0  0
  -23.9655  -10.2995   21.2982 C   0  0  0  0  0  0  0  0  0  0  0  0
  -26.1791  -11.5271   20.9812 C   0  0  0  0  0  0  0  0  0  0  0  0
  -27.7228  -36.0089   22.8153 C   0  0  0  0  0  0  0  0  0  0  0  0
  -25.9311  -30.1806   20.1707 C   0  0  0  0  0  0  0  0  0  0  0  0
  -27.7836  -34.6029   22.7733 C   0  0  0  0  0  0  0  0  0  0  0  0
  -25.6726  -29.0479   20.9557 C   0  0  0  0  0  0  0  0  0  0  0  0
  -22.3169   -8.0498   21.2385 C   0  0  0  0  0  0  0  0  0  0  0  0
  -27.5440  -27.9072   19.9037 C   0  0  0  0  0  0  0  0  0  0  0  0
  -22.0145   -5.7722   21.7320 C   0  0  0  0  0  0  0  0  0  0  0  0
  -23.0271   -3.3944   22.7822 C   0  0  0  0  0  0  0  0  0  0  0  0
  -21.3687   -5.1512   22.8010 C   0  0  0  0  0  0  0  0  0  0  0  0
  -24.8165  -11.4618   21.3286 C   0  0  0  0  0  0  0  0  0  0  0  0
  -27.3369  -18.8048   19.0729 C   0  0  0  0  0  0  0  0  0  0  0  0
  -26.5215  -12.8423   21.1802 C   0  0  0  0  0  0  0  0  0  0  0  0
  -28.2621  -20.7408   18.6191 C   0  0  0  0  0  0  0  0  0  0  0  0
  -27.0569  -10.4916   20.5198 C   0  0  0  0  0  0  0  0  0  0  0  0
  -25.2406  -31.9225   22.7384 C   0  0  0  0  0  0  0  0  0  0  0  0
  -28.3812  -24.4384   19.2484 C   0  0  0  0  0  0  0  0  0  0  0  0
  -22.4584  -30.2576   22.6390 C   0  0  0  0  0  0  0  0  0  0  0  0
  -20.7968  -27.4491   21.6399 C   0  0  0  0  0  0  0  0  0  0  0  0
  -25.4579  -18.2837   20.6679 C   0  0  0  0  0  0  0  0  0  0  0  0
  -26.6883  -36.7340   23.6391 C   0  0  0  0  0  0  0  0  0  0  0  0
  -25.0552  -31.3986   20.2793 C   0  0  0  0  0  0  0  0  0  0  0  0
  -24.5430  -29.0138   21.9513 C   0  0  0  0  0  0  0  0  0  0  0  0
  -25.5016  -35.8588   24.0343 C   0  0  0  0  0  0  0  0  0  0  0  0
  -23.9919  -16.5989   23.4409 C   0  0  0  0  0  0  0  0  0  0  0  0
  -25.9843  -34.5115   24.5622 C   0  0  0  0  0  0  0  0  0  0  0  0
  -24.1878  -15.1176   23.1100 C   0  0  0  0  0  0  0  0  0  0  0  0
  -23.6923  -17.4245   22.1909 C   0  0  0  0  0  0  0  0  0  0  0  0
  -24.8544  -15.7853   20.7654 C   0  0  0  0  0  0  0  0  0  0  0  0
  -26.7619  -33.7439   23.4862 C   0  0  1  0  0  0  0  0  0  0  0  0
  -24.3326  -31.4974   21.6193 C   0  0  1  0  0  0  0  0  0  0  0  0
  -25.2227  -14.9237   21.9843 C   0  0  2  0  0  0  0  0  0  0  0  0
  -18.5402  -26.3556   21.7378 C   0  0  0  0  0  0  0  0  0  0  0  0
  -22.9603  -29.4879   25.5486 C   0  0  0  0  0  0  0  0  0  0  0  0
  -21.2427  -27.6841   25.2950 C   0  0  0  0  0  0  0  0  0  0  0  0
  -20.5877  -30.0753   25.0193 C   0  0  0  0  0  0  0  0  0  0  0  0
  -20.5345  -27.4610   18.6920 C   0  0  0  0  0  0  0  0  0  0  0  0
  -27.8276  -23.0465   19.4680 C   0  0  0  0  0  0  0  0  0  0  0  0
  -27.7215  -25.5404   20.0544 C   0  0  0  0  0  0  0  0  0  1  0  0
  -21.9710  -28.9542   23.2243 C   0  0  1  0  0  0  0  0  0  0  0  0
  -19.4628  -27.2635   20.9395 C   0  0  2  0  0  0  0  0  0  0  0  0
  -21.7130  -29.0514   24.7545 C   0  0  0  0  0  0  0  0  0  0  0  0
  -24.3267  -12.6416   21.7189 N   0  0  0  0  0  0  0  0  0  0  0  0
  -27.3328  -20.1591   19.3444 N   0  0  0  0  0  0  0  0  0  0  0  0
  -25.3874  -13.4606   21.6180 N   0  0  0  0  0  0  0  0  0  0  0  0
  -23.7186  -30.2314   22.0250 N   0  0  0  0  0  0  0  0  0  0  0  0
  -24.7164  -17.1932   21.1698 N   0  0  0  0  0  0  0  0  0  0  0  0
  -27.6791  -13.5186   21.0217 N   0  0  0  0  0  0  0  0  0  0  0  0
  -26.5421   -9.1965   20.3710 N   0  0  0  0  0  0  0  0  0  0  0  0
  -26.4257  -17.9378   19.7253 N   0  0  0  0  0  0  0  0  0  0  0  0
  -28.5343  -22.1012   18.6421 N   0  0  0  0  0  0  0  0  0  0  0  0
  -25.8506  -33.1454   22.5343 N   0  0  0  0  0  0  0  0  0  0  0  0
  -20.7999  -28.5691   22.4442 N   0  0  0  0  0  0  0  0  0  0  0  0
  -19.6649  -26.6603   19.5918 N   0  3  0  0  0  0  0  0  0  0  0  0
  -28.2661  -10.7048   20.2633 O   0  0  0  0  0  0  0  0  0  0  0  0
  -25.3765  -31.1954   23.7155 O   0  0  0  0  0  0  0  0  0  0  0  0
  -29.3047  -24.6718   18.4696 O   0  0  0  0  0  0  0  0  0  0  0  0
  -21.7441  -31.2603   22.7172 O   0  0  0  0  0  0  0  0  0  0  0  0
  -21.7404  -26.6757   21.4914 O   0  0  0  0  0  0  0  0  0  0  0  0
  -25.2681  -19.4358   21.0663 O   0  0  0  0  0  0  0  0  0  0  0  0
  -21.5126   -6.9521   21.2090 O   0  0  0  0  0  0  0  0  0  0  0  0
  -28.3287  -26.8023   19.7798 O   0  0  0  0  0  0  0  0  0  1  0  0
  -23.5126   -2.2519   23.2854 F   0  0  0  0  0  0  0  0  0  0  0  0
  -20.2609   -5.6913   23.3270 F   0  0  0  0  0  0  0  0  0  0  0  0
  -29.1780  -19.7194   17.5882 S   0  0  0  0  0  0  0  0  0  0  0  0
  1  2  1  0  0  0  0
  1  5  2  0  0  0  0
  2  6  2  0  0  0  0
  3  8  2  0  0  0  0
  3 16  1  0  0  0  0
  4  9  1  0  0  0  0
  4 16  2  0  0  0  0
  5 18  1  0  0  0  0
  6 20  1  0  0  0  0
  7 10  2  0  0  0  0
  7 19  1  0  0  0  0
  8 22  1  0  0  0  0
  9 22  2  0  0  0  0
 10 23  1  0  0  0  0
 11 12  2  0  0  0  0
 11 24  1  0  0  0  0
 12 25  1  0  0  0  0
 13 21  1  0  0  0  0
 13 23  2  0  0  0  0
 14 25  2  0  0  0  0
 14 26  1  0  0  0  0
 15 28  2  0  0  0  0
 15 81  1  0  0  0  0
 16 27  1  0  0  0  0
 17 27  1  0  0  0  0
 17 29  2  0  0  0  0
 17 31  1  0  0  0  0
 18 20  2  0  0  0  0
 18 37  1  0  0  0  0
 19 21  2  0  0  0  0
 19 38  1  0  0  0  0
 20 46  1  0  0  0  0
 21 39  1  0  0  0  0
 22 77  1  0  0  0  0
 23 78  1  0  0  0  0
 24 26  2  0  0  0  0
 24 77  1  0  0  0  0
 25 79  1  0  0  0  0
 26 80  1  0  0  0  0
 27 59  2  0  0  0  0
 28 60  1  0  0  0  0
 28 66  1  0  0  0  0
 29 61  1  0  0  0  0
 29 64  1  0  0  0  0
 30 60  2  0  0  0  0
 30 67  1  0  0  0  0
 30 81  1  0  0  0  0
 31 65  1  0  0  0  0
 31 71  2  0  0  0  0
 32 47  1  0  0  0  0
 32 68  1  0  0  0  0
 32 72  2  0  0  0  0
 33 54  1  0  0  0  0
 33 55  1  0  0  0  0
 33 73  2  0  0  0  0
 34 56  1  0  0  0  0
 34 62  1  0  0  0  0
 34 74  2  0  0  0  0
 35 57  1  0  0  0  0
 35 69  1  0  0  0  0
 35 75  2  0  0  0  0
 36 63  1  0  0  0  0
 36 66  1  0  0  0  0
 36 76  2  0  0  0  0
 37 40  1  0  0  0  0
 38 47  1  0  0  0  0
 39 62  1  0  0  0  0
 40 42  1  0  0  0  0
 41 43  1  0  0  0  0
 41 44  1  0  0  0  0
 42 46  1  0  0  0  0
 43 48  1  0  0  0  0
 44 63  1  0  0  0  0
 45 48  1  0  0  0  0
 45 63  1  0  0  0  0
 46 68  1  0  0  0  0
 47 62  1  0  0  0  0
 48 61  1  0  0  0  0
 49 57  1  0  0  0  0
 50 58  1  0  0  0  0
 51 58  1  0  0  0  0
 52 58  1  0  0  0  0
 53 70  1  0  0  0  0
 54 67  1  0  0  0  0
 55 78  1  0  0  0  0
 56 58  1  0  0  0  0
 56 69  1  0  0  0  0
 57 70  1  0  0  0  0
 59 61  1  0  0  0  0
M  CHG  1  70   1
M  ISO  4  36 100  55 101  66 100  78 101
M  END
> <Batch ID>
0170

> <Smiles>
CNC(C)C(=O)NC(C(=O)N1Cc2cc([101O:1][101CH2:1]C(=O)CNc3nc([100NH:0][100C:0](=O)N4CCCC(n5nc(-c6ccc(Oc7ccc(F)cc7F)cc6)c(C(N)=O)c5N)C4)cs3)ccc2CC1C(=O)NC1CCCc2ccccc21)C(C)(C)C

> <Shape>
0.305

> <Color>
0.102

> <Negative vol penalty>
0.000

$$$$

  -OEChem-04052304203D

 86 94  0     1  0  0  0  0  0999 V2000
  -30.2920  -23.8670   23.1710 C   0  0  0  0  0  0  0  0  0  0  0  0
  -28.9330  -23.8208   22.8773 C   0  0  0  0  0  0  0  0  0  0  0  0
  -29.3648  -27.9824   19.1800 C   0  0  0  0  0  0  0  0  0  0  0  0
  -27.7680  -26.1804   18.9797 C   0  0  0  0  0  0  0  0  0  0  0  0
  -31.1679  -22.9740   22.5552 C   0  0  0  0  0  0  0  0  0  0  0  0
  -28.4492  -22.8820   21.9667 C   0  0  0  0  0  0  0  0  0  0  0  0
  -24.2353  -20.5914   23.5919 C   0  0  0  0  0  0  0  0  0  0  0  0
  -30.3948  -27.0534   19.3275 C   0  0  0  0  0  0  0  0  0  0  0  0
  -28.7980  -25.2514   19.1272 C   0  0  0  0  0  0  0  0  0  0  0  0
  -23.0412  -21.3026   23.4821 C   0  0  0  0  0  0  0  0  0  0  0  0
  -33.4932  -25.1533   19.3957 C   0  0  0  0  0  0  0  0  0  0  0  0
  -34.6668  -25.3659   18.6725 C   0  0  0  0  0  0  0  0  0  0  0  0
  -17.8219  -26.8971   22.8832 C   0  0  0  0  0  0  0  0  0  0  0  0
  -22.4974  -20.0691   21.4816 C   0  0  0  0  0  0  0  0  0  0  0  0
  -19.2985  -28.7627   23.3031 C   0  0  0  0  0  0  0  0  0  0  0  0
  -33.4154  -25.2547   16.6088 C   0  0  0  0  0  0  0  0  0  0  0  0
  -28.0514  -27.5459   19.0061 C   0  0  0  0  0  0  0  0  0  0  0  0
  -18.7875  -26.3183   22.0597 C   0  0  0  0  0  0  0  0  0  0  0  0
  -26.5093  -29.0617   17.6527 C   0  0  0  0  0  0  0  0  0  0  0  0
  -30.6933  -22.0175   21.6439 C   0  0  0  0  0  0  0  0  0  0  0  0
  -24.5751  -19.6197   22.6397 C   0  0  0  0  0  0  0  0  0  0  0  0
  -29.3198  -21.9762   21.3371 C   0  0  0  0  0  0  0  0  0  0  0  0
  -23.6952  -19.3451   21.5830 C   0  0  0  0  0  0  0  0  0  0  0  0
  -20.2641  -28.1839   22.4796 C   0  0  0  0  0  0  0  0  0  0  0  0
  -30.1114  -25.6879   19.3011 C   0  0  0  0  0  0  0  0  0  0  0  0
  -22.1734  -21.0436   22.4253 C   0  0  0  0  0  0  0  0  0  0  0  0
  -32.2806  -24.9913   18.7254 C   0  0  0  0  0  0  0  0  0  0  0  0
  -34.6279  -25.4167   17.2791 C   0  0  0  0  0  0  0  0  0  0  0  0
  -18.0774  -28.1194   23.5049 C   0  0  0  0  0  0  0  0  0  0  0  0
  -32.2418  -25.0421   17.3320 C   0  0  0  0  0  0  0  0  0  0  0  0
  -20.0086  -26.9616   21.8579 C   0  0  0  0  0  0  0  0  0  0  0  0
  -26.9870  -28.5051   18.8542 C   0  0  0  0  0  0  0  0  0  0  0  0
  -25.5020  -29.9097   18.0437 C   0  0  0  0  0  0  0  0  0  0  0  0
  -18.5139  -25.0240   21.4035 C   0  0  0  0  0  0  0  0  0  0  0  0
  -26.9377  -28.8326   16.3037 C   0  0  0  0  0  0  0  0  0  0  0  0
  -26.9444  -19.2570   20.5520 C   0  0  0  0  0  0  0  0  0  0  0  0
  -25.5551  -16.3659   20.0687 C   0  0  0  0  0  0  0  0  0  0  0  0
  -22.7438  -14.4383   20.2355 C   0  0  0  0  0  0  0  0  0  0  0  0
  -21.9137  -30.0573   22.8193 C   0  0  0  0  0  0  0  0  0  0  0  0
  -31.6850  -21.1042   20.9678 C   0  0  0  0  0  0  0  0  0  0  0  0
  -25.8544  -18.8425   22.7872 C   0  0  0  0  0  0  0  0  0  0  0  0
  -24.0040  -18.2977   20.5457 C   0  0  0  0  0  0  0  0  0  0  0  0
  -31.0397  -19.8940   20.2975 C   0  0  0  0  0  0  0  0  0  0  0  0
  -24.1198  -32.6322   21.7330 C   0  0  0  0  0  0  0  0  0  0  0  0
  -29.8252  -20.3212   19.4794 C   0  0  0  0  0  0  0  0  0  0  0  0
  -25.0581  -31.9180   20.7575 C   0  0  0  0  0  0  0  0  0  0  0  0
  -23.7411  -31.7386   22.9128 C   0  0  0  0  0  0  0  0  0  0  0  0
  -24.1357  -29.7103   21.5713 C   0  0  0  0  0  0  0  0  0  0  0  0
  -28.7533  -20.9561   20.3735 C   0  0  1  0  0  0  0  0  0  0  0  0
  -26.3400  -18.2362   21.4741 C   0  0  1  0  0  0  0  0  0  0  0  0
  -24.4933  -30.5483   20.3329 C   0  0  2  0  0  0  0  0  0  0  0  0
  -21.0528  -22.8766   18.7065 C   0  0  0  0  0  0  0  0  0  0  0  0
  -21.3273  -12.3708   20.1086 C   0  0  0  0  0  0  0  0  0  0  0  0
  -25.4782  -17.0400   17.0939 C   0  0  0  0  0  0  0  0  0  0  0  0
  -23.8241  -15.1857   16.7876 C   0  0  0  0  0  0  0  0  0  0  0  0
  -26.1234  -14.6800   17.6124 C   0  0  0  0  0  0  0  0  0  0  0  0
  -23.3312  -13.7229   23.0466 C   0  0  0  0  0  0  0  0  0  0  0  0
  -21.5246  -22.6993   20.1441 C   0  0  0  0  0  0  0  0  0  0  0  0
  -19.1521  -22.6601   21.0853 C   0  0  0  0  0  0  0  0  0  0  0  0
  -24.4817  -15.8359   19.1489 C   0  0  1  0  0  0  0  0  0  0  0  0
  -22.5100  -13.0437   20.7876 C   0  0  2  0  0  0  0  0  0  0  0  0
  -20.4986  -21.9473   20.9989 C   0  0  2  0  0  0  0  0  0  1  0  0
  -24.9716  -15.7066   17.6790 C   0  0  0  0  0  0  0  0  0  0  0  0
  -26.3368  -28.9612   19.9281 N   0  0  0  0  0  0  0  0  0  0  0  0
  -25.4403  -29.8134   19.4027 N   0  0  0  0  0  0  0  0  0  0  0  0
  -25.2699  -17.5690   20.7298 N   0  0  0  0  0  0  0  0  0  0  0  0
  -23.2098  -30.4605   22.4341 N   0  0  0  0  0  0  0  0  0  0  0  0
  -24.6720  -30.7208   17.3541 N   0  0  0  0  0  0  0  0  0  0  0  0
  -17.4747  -24.9485   20.5720 N   0  0  0  0  0  0  0  0  0  0  0  0
  -27.9859  -27.9296   16.0798 N   0  0  0  0  0  0  0  0  0  0  0  0
  -21.5034  -28.8401   22.2765 N   0  0  0  0  0  0  0  0  0  0  0  0
  -28.0225  -19.9332   21.0905 N   0  0  0  0  0  0  0  0  0  0  0  0
  -24.0215  -14.5830   19.7379 N   0  0  0  0  0  0  0  0  0  0  0  0
  -19.3192  -23.9906   21.6762 N   0  3  0  0  0  0  0  0  0  0  0  0
  -22.2389  -13.1049   22.2518 N   0  3  0  0  0  0  0  0  0  0  0  0
  -26.4176  -29.4239   15.3273 O   0  0  0  0  0  0  0  0  0  0  0  0
  -26.4689  -19.4181   19.4341 O   0  0  0  0  0  0  0  0  0  0  0  0
  -26.6049  -15.7319   20.2013 O   0  0  0  0  0  0  0  0  0  0  0  0
  -21.8782  -15.3108   20.2415 O   0  0  0  0  0  0  0  0  0  0  0  0
  -21.2084  -30.7544   23.5533 O   0  0  0  0  0  0  0  0  0  0  0  0
  -31.1162  -24.7811   19.4448 O   0  0  0  0  0  0  0  0  0  0  0  0
  -21.0075  -21.7367   22.3154 O   0  0  0  0  0  0  0  0  0  1  0  0
  -35.7548  -25.6224   16.5849 F   0  0  0  0  0  0  0  0  0  0  0  0
  -17.1503  -28.6750   24.2957 F   0  0  0  0  0  0  0  0  0  0  0  0
  -31.0797  -24.8883   16.6826 F   0  0  0  0  0  0  0  0  0  0  0  0
  -20.9362  -26.4038   21.0653 F   0  0  0  0  0  0  0  0  0  0  0  0
  1  2  1  0  0  0  0
  1  5  2  0  0  0  0
  2  6  2  0  0  0  0
  3  8  2  0  0  0  0
  3 17  1  0  0  0  0
  4  9  1  0  0  0  0
  4 17  2  0  0  0  0
  5 20  1  0  0  0  0
  6 22  1  0  0  0  0
  7 10  2  0  0  0  0
  7 21  1  0  0  0  0
  8 25  1  0  0  0  0
  9 25  2  0  0  0  0
 10 26  1  0  0  0  0
 11 12  2  0  0  0  0
 11 27  1  0  0  0  0
 12 28  1  0  0  0  0
 13 18  1  0  0  0  0
 13 29  2  0  0  0  0
 14 23  1  0  0  0  0
 14 26  2  0  0  0  0
 15 24  2  0  0  0  0
 15 29  1  0  0  0  0
 16 28  2  0  0  0  0
 16 30  1  0  0  0  0
 17 32  1  0  0  0  0
 18 31  2  0  0  0  0
 18 34  1  0  0  0  0
 19 32  1  0  0  0  0
 19 33  2  0  0  0  0
 19 35  1  0  0  0  0
 20 22  2  0  0  0  0
 20 40  1  0  0  0  0
 21 23  2  0  0  0  0
 21 41  1  0  0  0  0
 22 49  1  0  0  0  0
 23 42  1  0  0  0  0
 24 31  1  0  0  0  0
 24 71  1  0  0  0  0
 25 81  1  0  0  0  0
 26 82  1  0  0  0  0
 27 30  2  0  0  0  0
 27 81  1  0  0  0  0
 28 83  1  0  0  0  0
 29 84  1  0  0  0  0
 30 85  1  0  0  0  0
 31 86  1  0  0  0  0
 32 64  2  0  0  0  0
 33 65  1  0  0  0  0
 33 68  1  0  0  0  0
 34 69  1  0  0  0  0
 34 74  2  0  0  0  0
 35 70  1  0  0  0  0
 35 76  2  0  0  0  0
 36 50  1  0  0  0  0
 36 72  1  0  0  0  0
 36 77  2  0  0  0  0
 37 60  1  0  0  0  0
 37 66  1  0  0  0  0
 37 78  2  0  0  0  0
 38 61  1  0  0  0  0
 38 73  1  0  0  0  0
 38 79  2  0  0  0  0
 39 67  1  0  0  0  0
 39 71  1  0  0  0  0
 39 80  2  0  0  0  0
 40 43  1  0  0  0  0
 41 50  1  0  0  0  0
 42 66  1  0  0  0  0
 43 45  1  0  0  0  0
 44 46  1  0  0  0  0
 44 47  1  0  0  0  0
 45 49  1  0  0  0  0
 46 51  1  0  0  0  0
 47 67  1  0  0  0  0
 48 51  1  0  0  0  0
 48 67  1  0  0  0  0
 49 72  1  0  0  0  0
 50 66  1  0  0  0  0
 51 65  1  0  0  0  0
 52 58  1  0  0  0  0
 53 61  1  0  0  0  0
 54 63  1  0  0  0  0
 55 63  1  0  0  0  0
 56 63  1  0  0  0  0
 57 75  1  0  0  0  0
 58 62  1  0  0  0  0
 59 62  1  0  0  0  0
 59 74  1  0  0  0  0
 60 63  1  0  0  0  0
 60 73  1  0  0  0  0
 61 75  1  0  0  0  0
 62 82  1  0  0  0  0
 64 65  1  0  0  0  0
M  CHG  2  74   1  75   1
M  ISO  4  39 100  62 101  71 100  82 101
M  END
> <Batch ID>
0170

> <Smiles>
CC[101CH:1](CNC(=N)c1cc(F)cc([100NH:0][100C:0](=O)N2CCCC(n3nc(-c4ccc(Oc5ccc(F)cc5F)cc4)c(C(N)=O)c3N)C2)c1F)[101O:1]c1ccc2c(c1)CN(C(=O)C(NC(=O)C(C)NC)C(C)(C)C)C(C(=O)NC1CCCc3ccccc31)C2

> <Shape>
0.204

> <Color>
0.074

> <Negative vol penalty>
0.000

$$$$

  -OEChem-04052304203D

 86 94  0     1  0  0  0  0  0999 V2000
  -28.3320  -32.4004   20.6075 C   0  0  0  0  0  0  0  0  0  0  0  0
  -28.0827  -31.0345   20.6961 C   0  0  0  0  0  0  0  0  0  0  0  0
  -32.5060  -18.6281   20.8932 C   0  0  0  0  0  0  0  0  0  0  0  0
  -23.0077   -9.9111   20.6934 C   0  0  0  0  0  0  0  0  0  0  0  0
  -23.7433  -10.4184   22.9381 C   0  0  0  0  0  0  0  0  0  0  0  0
  -27.5259  -33.3014   21.3019 C   0  0  0  0  0  0  0  0  0  0  0  0
  -27.0278  -30.5689   21.4802 C   0  0  0  0  0  0  0  0  0  0  0  0
  -24.3041  -26.9934   19.1474 C   0  0  0  0  0  0  0  0  0  0  0  0
  -31.7376  -19.6253   21.4939 C   0  0  0  0  0  0  0  0  0  0  0  0
  -31.9789  -17.3477   20.7249 C   0  0  0  0  0  0  0  0  0  0  0  0
  -22.2305   -8.8625   21.1850 C   0  0  0  0  0  0  0  0  0  0  0  0
  -22.9659   -9.3698   23.4298 C   0  0  0  0  0  0  0  0  0  0  0  0
  -24.8384  -25.7061   19.1146 C   0  0  0  0  0  0  0  0  0  0  0  0
  -22.7100   -5.6831   22.2271 C   0  0  0  0  0  0  0  0  0  0  0  0
  -22.7590   -4.4666   21.5464 C   0  0  0  0  0  0  0  0  0  0  0  0
  -23.4102  -25.0729   20.9527 C   0  0  0  0  0  0  0  0  0  0  0  0
  -20.3837   -4.6054   21.1273 C   0  0  0  0  0  0  0  0  0  0  0  0
  -23.7642  -10.6891   21.5699 C   0  0  0  0  0  0  0  0  0  0  0  0
  -24.1752  -13.1128   20.8884 C   0  0  0  0  0  0  0  0  0  0  0  0
  -26.4546  -32.8472   22.0872 C   0  0  0  0  0  0  0  0  0  0  0  0
  -23.3250  -27.3338   20.0919 C   0  0  0  0  0  0  0  0  0  0  0  0
  -26.2074  -31.4647   22.1869 C   0  0  0  0  0  0  0  0  0  0  0  0
  -22.8632  -26.3646   20.9938 C   0  0  0  0  0  0  0  0  0  0  0  0
  -30.4421  -19.3420   21.9264 C   0  0  0  0  0  0  0  0  0  0  0  0
  -30.6834  -17.0644   21.1575 C   0  0  0  0  0  0  0  0  0  0  0  0
  -22.2095   -8.5918   22.5532 C   0  0  0  0  0  0  0  0  0  0  0  0
  -24.3935  -24.7464   20.0192 C   0  0  0  0  0  0  0  0  0  0  0  0
  -21.4978   -6.3608   22.3580 C   0  0  0  0  0  0  0  0  0  0  0  0
  -21.5958   -3.9278   20.9965 C   0  0  0  0  0  0  0  0  0  0  0  0
  -20.3347   -5.8219   21.8081 C   0  0  0  0  0  0  0  0  0  0  0  0
  -29.9150  -18.0615   21.7582 C   0  0  0  0  0  0  0  0  0  0  0  0
  -24.5678  -11.7721   21.0625 C   0  0  0  0  0  0  0  0  0  0  0  0
  -25.2910  -13.7344   20.3832 C   0  0  0  0  0  0  0  0  0  0  0  0
  -26.0168  -23.2314   20.7542 C   0  0  0  0  0  0  0  0  0  1  0  0
  -22.9148  -13.7401   21.1591 C   0  0  0  0  0  0  0  0  0  0  0  0
  -26.6674  -22.0618   20.8556 C   0  0  0  0  0  0  0  0  0  0  0  0
  -27.8606  -21.9983   21.7591 C   0  0  0  0  0  0  0  0  0  0  0  0
  -23.1454  -29.4183   22.4849 C   0  0  0  0  0  0  0  0  0  0  0  0
  -20.0670  -28.4045   22.6211 C   0  0  0  0  0  0  0  0  0  0  0  0
  -17.7930  -25.9493   21.9522 C   0  0  0  0  0  0  0  0  0  0  0  0
  -30.7812  -14.6616   20.4069 C   0  0  0  0  0  0  0  0  0  0  0  0
  -25.6400  -33.8563   22.8573 C   0  0  0  0  0  0  0  0  0  0  0  0
  -22.7395  -28.7193   20.0968 C   0  0  0  0  0  0  0  0  0  0  0  0
  -21.7994  -26.6736   22.0141 C   0  0  0  0  0  0  0  0  0  0  0  0
  -24.3112  -33.3047   23.3673 C   0  0  0  0  0  0  0  0  0  0  0  0
  -29.6272  -11.8020   18.6269 C   0  0  0  0  0  0  0  0  0  0  0  0
  -24.5141  -31.9399   24.0178 C   0  0  0  0  0  0  0  0  0  0  0  0
  -28.1758  -11.6496   19.0875 C   0  0  0  0  0  0  0  0  0  0  0  0
  -30.5354  -12.2747   19.7607 C   0  0  0  0  0  0  0  0  0  0  0  0
  -28.6342  -13.3381   20.9112 C   0  0  0  0  0  0  0  0  0  0  0  0
  -25.0573  -30.9224   23.0074 C   0  0  1  0  0  0  0  0  0  0  0  0
  -22.1170  -29.1001   21.4365 C   0  0  1  0  0  0  0  0  0  0  0  0
  -27.6696  -12.9263   19.7871 C   0  0  2  0  0  0  0  0  0  0  0  0
  -29.2048  -20.0725   24.0067 C   0  0  0  0  0  0  0  0  0  0  0  0
  -15.3600  -25.3932   22.2142 C   0  0  0  0  0  0  0  0  0  0  0  0
  -20.5218  -27.8203   25.5811 C   0  0  0  0  0  0  0  0  0  0  0  0
  -18.4446  -26.4229   25.5529 C   0  0  0  0  0  0  0  0  0  0  0  0
  -18.3112  -28.8628   25.0512 C   0  0  0  0  0  0  0  0  0  0  0  0
  -17.4062  -25.7414   19.0254 C   0  0  0  0  0  0  0  0  0  0  0  0
  -29.6111  -20.4264   22.5776 C   0  0  2  0  0  0  0  0  0  0  0  0
  -19.3359  -27.3013   23.3472 C   0  0  1  0  0  0  0  0  0  0  0  0
  -16.4202  -25.9967   21.3061 C   0  0  2  0  0  0  0  0  0  0  0  0
  -19.1748  -27.5962   24.8653 C   0  0  0  0  0  0  0  0  0  0  0  0
  -25.8340  -11.5540   20.6975 N   0  0  0  0  0  0  0  0  0  0  0  0
  -26.2467  -12.7659   20.2888 N   0  0  0  0  0  0  0  0  0  0  0  0
  -21.2625  -28.0442   21.9833 N   0  0  0  0  0  0  0  0  0  0  0  0
  -29.9952  -13.4903   20.3733 N   0  0  0  0  0  0  0  0  0  0  0  0
  -25.5380  -15.0094   20.0149 N   0  0  0  0  0  0  0  0  0  0  0  0
  -21.8752  -12.9552   21.6763 N   0  0  0  0  0  0  0  0  0  0  0  0
  -30.1504  -15.7629   20.9845 N   0  0  0  0  0  0  0  0  0  0  0  0
  -28.4469  -20.7445   21.7816 N   0  0  0  0  0  0  0  0  0  0  0  0
  -23.9959  -30.4524   22.1431 N   0  0  0  0  0  0  0  0  0  0  0  0
  -18.0751  -27.1116   22.6382 N   0  0  0  0  0  0  0  0  0  0  0  0
  -16.4255  -25.2399   20.0223 N   0  3  0  0  0  0  0  0  0  0  0  0
  -22.7112  -14.9571   20.9332 O   0  0  0  0  0  0  0  0  0  0  0  0
  -28.2498  -22.9715   22.3987 O   0  0  0  0  0  0  0  0  0  0  0  0
  -23.1647  -28.7743   23.5273 O   0  0  0  0  0  0  0  0  0  0  0  0
  -19.5912  -29.5426   22.6139 O   0  0  0  0  0  0  0  0  0  0  0  0
  -18.5390  -24.9768   21.8608 O   0  0  0  0  0  0  0  0  0  0  0  0
  -31.9193  -14.6932   19.9318 O   0  0  0  0  0  0  0  0  0  0  0  0
  -26.3095  -20.9137   20.1838 O   0  0  0  0  0  0  0  0  0  0  0  0
  -21.4510   -7.5688   23.0334 O   0  0  0  0  0  0  0  0  0  0  0  0
  -24.9138  -23.4893   19.9897 O   0  0  0  0  0  0  0  0  0  1  0  0
  -21.6433   -2.7603   20.3416 F   0  0  0  0  0  0  0  0  0  0  0  0
  -19.1674   -6.4689   21.9295 F   0  0  0  0  0  0  0  0  0  0  0  0
  -28.6684  -17.7903   22.1733 F   0  0  0  0  0  0  0  0  0  0  0  0
  1  2  1  0  0  0  0
  1  6  2  0  0  0  0
  2  7  2  0  0  0  0
  3  9  2  0  0  0  0
  3 10  1  0  0  0  0
  4 11  2  0  0  0  0
  4 18  1  0  0  0  0
  5 12  1  0  0  0  0
  5 18  2  0  0  0  0
  6 20  1  0  0  0  0
  7 22  1  0  0  0  0
  8 13  2  0  0  0  0
  8 21  1  0  0  0  0
  9 24  1  0  0  0  0
 10 25  2  0  0  0  0
 11 26  1  0  0  0  0
 12 26  2  0  0  0  0
 13 27  1  0  0  0  0
 14 15  2  0  0  0  0
 14 28  1  0  0  0  0
 15 29  1  0  0  0  0
 16 23  1  0  0  0  0
 16 27  2  0  0  0  0
 17 29  2  0  0  0  0
 17 30  1  0  0  0  0
 18 32  1  0  0  0  0
 19 32  1  0  0  0  0
 19 33  2  0  0  0  0
 19 35  1  0  0  0  0
 20 22  2  0  0  0  0
 20 42  1  0  0  0  0
 21 23  2  0  0  0  0
 21 43  1  0  0  0  0
 22 51  1  0  0  0  0
 23 44  1  0  0  0  0
 24 31  2  0  0  0  0
 24 60  1  0  0  0  0
 25 31  1  0  0  0  0
 25 70  1  0  0  0  0
 26 82  1  0  0  0  0
 27 83  1  0  0  0  0
 28 30  2  0  0  0  0
 28 82  1  0  0  0  0
 29 84  1  0  0  0  0
 30 85  1  0  0  0  0
 31 86  1  0  0  0  0
 32 64  2  0  0  0  0
 33 65  1  0  0  0  0
 33 68  1  0  0  0  0
 34 36  2  0  0  0  0
 34 83  1  0  0  0  0
 35 69  1  0  0  0  0
 35 75  2  0  0  0  0
 36 37  1  0  0  0  0
 36 81  1  0  0  0  0
 37 71  1  0  0  0  0
 37 76  2  0  0  0  0
 38 52  1  0  0  0  0
 38 72  1  0  0  0  0
 38 77  2  0  0  0  0
 39 61  1  0  0  0  0
 39 66  1  0  0  0  0
 39 78  2  0  0  0  0
 40 62  1  0  0  0  0
 40 73  1  0  0  0  0
 40 79  2  0  0  0  0
 41 67  1  0  0  0  0
 41 70  1  0  0  0  0
 41 80  2  0  0  0  0
 42 45  1  0  0  0  0
 43 52  1  0  0  0  0
 44 66  1  0  0  0  0
 45 47  1  0  0  0  0
 46 48  1  0  0  0  0
 46 49  1  0  0  0  0
 47 51  1  0  0  0  0
 48 53  1  0  0  0  0
 49 67  1  0  0  0  0
 50 53  1  0  0  0  0
 50 67  1  0  0  0  0
 51 72  1  0  0  0  0
 52 66  1  0  0  0  0
 53 65  1  0  0  0  0
 54 60  1  0  0  0  0
 55 62  1  0  0  0  0
 56 63  1  0  0  0  0
 57 63  1  0  0  0  0
 58 63  1  0  0  0  0
 59 74  1  0  0  0  0
 60 71  1  0  0  0  0
 61 63  1  0  0  0  0
 61 73  1  0  0  0  0
 62 74  1  0  0  0  0
 64 65  1  0  0  0  0
M  CHG  1  74   1
M  ISO  4  34 101  41 100  70 100  83 101
M  END
> <Batch ID>
0170

> <Smiles>
CNC(C)C(=O)NC(C(=O)N1Cc2cc([101O:1][101CH2:1]C(=O)C(=O)NC(C)c3cccc([100NH:0][100C:0](=O)N4CCCC(n5nc(-c6ccc(Oc7ccc(F)cc7F)cc6)c(C(N)=O)c5N)C4)c3F)ccc2CC1C(=O)NC1CCCc2ccccc21)C(C)(C)C

> <Shape>
0.328

> <Color>
0.173

> <Negative vol penalty>
0.000

$$$$

  -OEChem-04052304203D

 86 94  0     1  0  0  0  0  0999 V2000
  -31.6030  -13.9756   17.3155 C   0  0  0  0  0  0  0  0  0  0  0  0
  -30.7551  -15.0758   17.2382 C   0  0  0  0  0  0  0  0  0  0  0  0
  -30.0883  -26.1544   19.9693 C   0  0  0  0  0  0  0  0  0  0  0  0
  -28.5393  -24.5558   20.9085 C   0  0  0  0  0  0  0  0  0  0  0  0
  -31.2365  -12.8665   18.0766 C   0  0  0  0  0  0  0  0  0  0  0  0
  -29.5394  -15.0670   17.9213 C   0  0  0  0  0  0  0  0  0  0  0  0
  -26.7567  -19.8495   20.5462 C   0  0  0  0  0  0  0  0  0  0  0  0
  -31.1581  -25.4090   20.4648 C   0  0  0  0  0  0  0  0  0  0  0  0
  -29.6091  -23.8104   21.4040 C   0  0  0  0  0  0  0  0  0  0  0  0
  -25.7234  -20.6831   20.1204 C   0  0  0  0  0  0  0  0  0  0  0  0
  -31.8651  -21.5960   20.2093 C   0  0  0  0  0  0  0  0  0  0  0  0
  -31.8249  -20.2126   20.0350 C   0  0  0  0  0  0  0  0  0  0  0  0
  -24.1385  -19.3275   21.3327 C   0  0  0  0  0  0  0  0  0  0  0  0
  -19.7540  -28.7812   23.1146 C   0  0  0  0  0  0  0  0  0  0  0  0
  -31.9006  -19.9086   22.4307 C   0  0  0  0  0  0  0  0  0  0  0  0
  -18.0637  -27.0556   23.1640 C   0  0  0  0  0  0  0  0  0  0  0  0
  -28.7789  -25.7279   20.1911 C   0  0  0  0  0  0  0  0  0  0  0  0
  -19.9320  -26.8734   21.6430 C   0  0  0  0  0  0  0  0  0  0  0  0
  -27.0517  -26.3622   18.4243 C   0  0  0  0  0  0  0  0  0  0  0  0
  -30.0201  -12.8480   18.7772 C   0  0  0  0  0  0  0  0  0  0  0  0
  -26.4868  -18.7405   21.3608 C   0  0  0  0  0  0  0  0  0  0  0  0
  -29.1556  -13.9560   18.6915 C   0  0  0  0  0  0  0  0  0  0  0  0
  -25.1705  -18.4829   21.7695 C   0  0  0  0  0  0  0  0  0  0  0  0
  -20.4360  -28.0845   22.1171 C   0  0  0  0  0  0  0  0  0  0  0  0
  -30.9185  -24.2370   21.1822 C   0  0  0  0  0  0  0  0  0  0  0  0
  -24.4137  -20.4205   20.5113 C   0  0  0  0  0  0  0  0  0  0  0  0
  -31.9231  -22.1357   21.4943 C   0  0  0  0  0  0  0  0  0  0  0  0
  -31.8427  -19.3690   21.1457 C   0  0  0  0  0  0  0  0  0  0  0  0
  -18.5678  -28.2667   23.6381 C   0  0  0  0  0  0  0  0  0  0  0  0
  -18.7458  -26.3589   22.1665 C   0  0  0  0  0  0  0  0  0  0  0  0
  -31.9408  -21.2920   22.6049 C   0  0  0  0  0  0  0  0  0  0  0  0
  -27.6734  -26.4977   19.6800 C   0  0  0  0  0  0  0  0  0  0  0  0
  -26.0648  -27.3175   18.4249 C   0  0  0  0  0  0  0  0  0  0  0  0
  -20.6371  -26.1086   20.5823 C   0  0  0  0  0  0  0  0  0  0  0  0
  -27.3402  -25.4538   17.3531 C   0  0  0  0  0  0  0  0  0  0  0  0
  -26.8406  -15.5961   21.0587 C   0  0  0  0  0  0  0  0  0  0  0  0
  -22.5299  -23.4913   20.1420 C   0  0  0  0  0  0  0  0  0  0  0  0
  -25.8860  -15.5833   24.1588 C   0  0  0  0  0  0  0  0  0  0  0  0
  -24.2136  -17.1594   26.6818 C   0  0  0  0  0  0  0  0  0  0  0  0
  -22.2586  -29.8180   21.9773 C   0  0  0  0  0  0  0  0  0  0  0  0
  -29.6455  -11.6074   19.5487 C   0  0  0  0  0  0  0  0  0  0  0  0
  -27.6160  -17.8665   21.8334 C   0  0  0  0  0  0  0  0  0  0  0  0
  -24.8305  -17.3169   22.6601 C   0  0  0  0  0  0  0  0  0  0  0  0
  -28.5102  -11.8291   20.5447 C   0  0  0  0  0  0  0  0  0  0  0  0
  -25.2440  -31.4784   20.9737 C   0  0  0  0  0  0  0  0  0  0  0  0
  -27.3715  -12.6063   19.8919 C   0  0  0  0  0  0  0  0  0  0  0  0
  -26.1153  -30.3513   20.4146 C   0  0  0  0  0  0  0  0  0  0  0  0
  -24.4253  -31.0180   22.1784 C   0  0  0  0  0  0  0  0  0  0  0  0
  -24.4924  -28.6822   21.3981 C   0  0  0  0  0  0  0  0  0  0  0  0
  -27.8399  -13.9942   19.4381 C   0  0  1  0  0  0  0  0  0  0  0  0
  -27.1598  -16.4685   22.2397 C   0  0  1  0  0  0  0  0  0  0  0  0
  -25.2868  -29.0802   20.1435 C   0  0  2  0  0  0  0  0  0  0  0  0
  -23.5732  -16.8860   29.0927 C   0  0  0  0  0  0  0  0  0  0  0  0
  -23.7304  -13.5785   23.3563 C   0  0  0  0  0  0  0  0  0  0  0  0
  -22.5675  -14.0690   25.5185 C   0  0  0  0  0  0  0  0  0  0  0  0
  -24.8585  -13.0822   25.5325 C   0  0  0  0  0  0  0  0  0  0  0  0
  -25.6994  -19.5937   27.4729 C   0  0  0  0  0  0  0  0  0  0  0  0
  -22.7514  -24.9761   19.9475 C   0  0  0  0  0  0  0  0  0  0  0  0
  -23.7253  -22.6025   19.8626 C   0  0  0  0  0  0  0  0  0  1  0  0
  -24.5554  -15.5025   24.8674 C   0  0  1  0  0  0  0  0  0  0  0  0
  -24.6004  -17.4465   28.1214 C   0  0  2  0  0  0  0  0  0  0  0  0
  -23.9338  -14.0790   24.8003 C   0  0  0  0  0  0  0  0  0  0  0  0
  -27.1275  -27.4632   20.4241 N   0  0  0  0  0  0  0  0  0  0  0  0
  -26.1523  -27.9431   19.6336 N   0  0  0  0  0  0  0  0  0  0  0  0
  -25.9684  -16.4878   23.0907 N   0  0  0  0  0  0  0  0  0  0  0  0
  -23.6634  -29.8122   21.8461 N   0  0  0  0  0  0  0  0  0  0  0  0
  -25.1395  -27.6751   17.5093 N   0  0  0  0  0  0  0  0  0  0  0  0
  -28.3875  -24.5372   17.5183 N   0  0  0  0  0  0  0  0  0  0  0  0
  -21.6394  -28.6264   21.6014 N   0  0  0  0  0  0  0  0  0  0  0  0
  -21.9355  -25.7000   20.8763 N   0  0  0  0  0  0  0  0  0  0  0  0
  -27.9250  -14.8936   20.5688 N   0  0  0  0  0  0  0  0  0  0  0  0
  -24.7844  -15.9913   26.2228 N   0  0  0  0  0  0  0  0  0  0  0  0
  -24.7068  -18.9159   28.3460 N   0  3  0  0  0  0  0  0  0  0  0  0
  -20.0659  -25.8952   19.5161 O   0  0  0  0  0  0  0  0  0  0  0  0
  -26.6993  -25.4660   16.2749 O   0  0  0  0  0  0  0  0  0  0  0  0
  -25.6950  -15.5618   20.6250 O   0  0  0  0  0  0  0  0  0  0  0  0
  -21.4348  -23.0253   20.4558 O   0  0  0  0  0  0  0  0  0  0  0  0
  -26.8200  -14.8753   24.5436 O   0  0  0  0  0  0  0  0  0  0  0  0
  -23.4756  -17.8958   26.0309 O   0  0  0  0  0  0  0  0  0  0  0  0
  -21.6473  -30.8164   22.3667 O   0  0  0  0  0  0  0  0  0  0  0  0
  -31.9621  -23.5092   21.6657 O   0  0  0  0  0  0  0  0  0  0  0  0
  -23.4032  -21.2322   20.0967 O   0  0  0  0  0  0  0  0  0  1  0  0
  -31.8025  -18.0406   20.9782 F   0  0  0  0  0  0  0  0  0  0  0  0
  -17.9112  -28.9368   24.5943 F   0  0  0  0  0  0  0  0  0  0  0  0
  -18.2507  -25.1959   21.7194 F   0  0  0  0  0  0  0  0  0  0  0  0
  -31.9953  -21.8046   23.8419 F   0  0  0  0  0  0  0  0  0  0  0  0
  1  2  1  0  0  0  0
  1  5  2  0  0  0  0
  2  6  2  0  0  0  0
  3  8  2  0  0  0  0
  3 17  1  0  0  0  0
  4  9  1  0  0  0  0
  4 17  2  0  0  0  0
  5 20  1  0  0  0  0
  6 22  1  0  0  0  0
  7 10  2  0  0  0  0
  7 21  1  0  0  0  0
  8 25  1  0  0  0  0
  9 25  2  0  0  0  0
 10 26  1  0  0  0  0
 11 12  2  0  0  0  0
 11 27  1  0  0  0  0
 12 28  1  0  0  0  0
 13 23  1  0  0  0  0
 13 26  2  0  0  0  0
 14 24  1  0  0  0  0
 14 29  2  0  0  0  0
 15 28  2  0  0  0  0
 15 31  1  0  0  0  0
 16 29  1  0  0  0  0
 16 30  2  0  0  0  0
 17 32  1  0  0  0  0
 18 24  2  0  0  0  0
 18 30  1  0  0  0  0
 18 34  1  0  0  0  0
 19 32  1  0  0  0  0
 19 33  2  0  0  0  0
 19 35  1  0  0  0  0
 20 22  2  0  0  0  0
 20 41  1  0  0  0  0
 21 23  2  0  0  0  0
 21 42  1  0  0  0  0
 22 50  1  0  0  0  0
 23 43  1  0  0  0  0
 24 69  1  0  0  0  0
 25 81  1  0  0  0  0
 26 82  1  0  0  0  0
 27 31  2  0  0  0  0
 27 81  1  0  0  0  0
 28 83  1  0  0  0  0
 29 84  1  0  0  0  0
 30 85  1  0  0  0  0
 31 86  1  0  0  0  0
 32 63  2  0  0  0  0
 33 64  1  0  0  0  0
 33 67  1  0  0  0  0
 34 70  1  0  0  0  0
 34 74  2  0  0  0  0
 35 68  1  0  0  0  0
 35 75  2  0  0  0  0
 36 51  1  0  0  0  0
 36 71  1  0  0  0  0
 36 76  2  0  0  0  0
 37 58  1  0  0  0  0
 37 59  1  0  0  0  0
 37 77  2  0  0  0  0
 38 60  1  0  0  0  0
 38 65  1  0  0  0  0
 38 78  2  0  0  0  0
 39 61  1  0  0  0  0
 39 72  1  0  0  0  0
 39 79  2  0  0  0  0
 40 66  1  0  0  0  0
 40 69  1  0  0  0  0
 40 80  2  0  0  0  0
 41 44  1  0  0  0  0
 42 51  1  0  0  0  0
 43 65  1  0  0  0  0
 44 46  1  0  0  0  0
 45 47  1  0  0  0  0
 45 48  1  0  0  0  0
 46 50  1  0  0  0  0
 47 52  1  0  0  0  0
 48 66  1  0  0  0  0
 49 52  1  0  0  0  0
 49 66  1  0  0  0  0
 50 71  1  0  0  0  0
 51 65  1  0  0  0  0
 52 64  1  0  0  0  0
 53 61  1  0  0  0  0
 54 62  1  0  0  0  0
 55 62  1  0  0  0  0
 56 62  1  0  0  0  0
 57 73  1  0  0  0  0
 58 70  1  0  0  0  0
 59 82  1  0  0  0  0
 60 62  1  0  0  0  0
 60 72  1  0  0  0  0
 61 73  1  0  0  0  0
 63 64  1  0  0  0  0
M  CHG  1  73   1
M  ISO  4  40 100  59 101  69 100  82 101
M  END
> <Batch ID>
0170

> <Smiles>
CNC(C)C(=O)NC(C(=O)N1Cc2cc([101O:1][101CH2:1]C(=O)CNC(=O)c3c(F)cc(F)cc3[100NH:0][100C:0](=O)N3CCCC(n4nc(-c5ccc(Oc6ccc(F)cc6F)cc5)c(C(N)=O)c4N)C3)ccc2CC1C(=O)NC1CCCc2ccccc21)C(C)(C)C

> <Shape>
0.206

> <Color>
0.078

> <Negative vol penalty>
0.000

$$$$

  -OEChem-04052304203D

 86 94  0     1  0  0  0  0  0999 V2000
  -38.3775  -21.5929   14.7910 C   0  0  0  0  0  0  0  0  0  0  0  0
  -37.3247  -21.7759   15.6818 C   0  0  0  0  0  0  0  0  0  0  0  0
  -23.1044   -9.7993   19.9702 C   0  0  0  0  0  0  0  0  0  0  0  0
  -23.8456   -9.8734   22.2685 C   0  0  0  0  0  0  0  0  0  0  0  0
  -39.0429  -22.6986   14.2634 C   0  0  0  0  0  0  0  0  0  0  0  0
  -36.9374  -23.0649   16.0464 C   0  0  0  0  0  0  0  0  0  0  0  0
  -31.9101  -23.6714   15.9923 C   0  0  0  0  0  0  0  0  0  0  0  0
  -31.9438  -16.7534   22.4766 C   0  0  0  0  0  0  0  0  0  0  0  0
  -22.3804   -8.6382   20.2411 C   0  0  0  0  0  0  0  0  0  0  0  0
  -23.1216   -8.7123   22.5394 C   0  0  0  0  0  0  0  0  0  0  0  0
  -31.1952  -23.1585   17.0738 C   0  0  0  0  0  0  0  0  0  0  0  0
  -19.9043   -7.8673   23.1357 C   0  0  0  0  0  0  0  0  0  0  0  0
  -32.5261  -17.6617   23.3606 C   0  0  0  0  0  0  0  0  0  0  0  0
  -19.1389   -7.8399   24.3014 C   0  0  0  0  0  0  0  0  0  0  0  0
  -31.0801  -25.3670   18.0373 C   0  0  0  0  0  0  0  0  0  0  0  0
  -30.3364  -18.5048   23.9364 C   0  0  0  0  0  0  0  0  0  0  0  0
  -20.4106   -5.9438   25.0919 C   0  0  0  0  0  0  0  0  0  0  0  0
  -23.8371  -10.4168   20.9839 C   0  0  0  0  0  0  0  0  0  0  0  0
  -24.1322  -12.9446   20.8081 C   0  0  0  0  0  0  0  0  0  0  0  0
  -38.6574  -24.0021   14.6142 C   0  0  0  0  0  0  0  0  0  0  0  0
  -32.2253  -25.0364   15.9305 C   0  0  0  0  0  0  0  0  0  0  0  0
  -37.5992  -24.1891   15.5240 C   0  0  0  0  0  0  0  0  0  0  0  0
  -31.7969  -25.8952   16.9527 C   0  0  0  0  0  0  0  0  0  0  0  0
  -29.7541  -17.5964   23.0524 C   0  0  0  0  0  0  0  0  0  0  0  0
  -30.5579  -16.7207   22.3224 C   0  0  0  0  0  0  0  0  0  0  0  0
  -22.3890   -8.0948   21.5257 C   0  0  0  0  0  0  0  0  0  0  0  0
  -30.7826  -24.0058   18.0980 C   0  0  0  0  0  0  0  0  0  0  0  0
  -20.9229   -6.9329   22.9480 C   0  0  0  0  0  0  0  0  0  0  0  0
  -31.7223  -18.5374   24.0905 C   0  0  0  0  0  0  0  0  0  0  0  0
  -19.3921   -6.8782   25.2795 C   0  0  0  0  0  0  0  0  0  0  0  0
  -21.1760   -5.9712   23.9261 C   0  0  0  0  0  0  0  0  0  0  0  0
  -24.5856  -11.6159   20.7045 C   0  0  0  0  0  0  0  0  0  0  0  0
  -25.2129  -13.7062   20.4359 C   0  0  0  0  0  0  0  0  0  0  0  0
  -28.7139  -20.2620   20.5118 C   0  0  0  0  0  0  0  0  0  0  0  0
  -22.8489  -13.4457   21.2054 C   0  0  0  0  0  0  0  0  0  0  0  0
  -28.0469  -19.7267   21.5463 C   0  0  0  0  0  0  0  0  0  0  0  0
  -29.0529  -21.7121   20.4009 C   0  0  0  0  0  0  0  0  0  0  0  0
  -34.9241  -26.7147   15.8676 C   0  0  0  0  0  0  0  0  0  0  0  0
  -32.9045  -29.2092   15.3975 C   0  0  0  0  0  0  0  0  0  0  0  0
  -29.7684  -30.5058   15.7589 C   0  0  0  0  0  0  0  0  0  0  0  0
  -30.6569  -14.8593   20.6278 C   0  0  0  0  0  0  0  0  0  0  0  0
  -39.4374  -25.1653   14.0546 C   0  0  0  0  0  0  0  0  0  0  0  0
  -32.9740  -25.5786   14.7439 C   0  0  0  0  0  0  0  0  0  0  0  0
  -32.0923  -27.3718   16.9238 C   0  0  0  0  0  0  0  0  0  0  0  0
  -38.7219  -26.5057   14.2019 C   0  0  0  0  0  0  0  0  0  0  0  0
  -29.6072  -12.3710   18.3076 C   0  0  0  0  0  0  0  0  0  0  0  0
  -38.1668  -26.6621   15.6141 C   0  0  0  0  0  0  0  0  0  0  0  0
  -28.1699  -12.0620   18.7329 C   0  0  0  0  0  0  0  0  0  0  0  0
  -30.5081  -12.6447   19.5105 C   0  0  0  0  0  0  0  0  0  0  0  0
  -28.5769  -13.3643   20.8602 C   0  0  0  0  0  0  0  0  0  0  0  0
  -37.1337  -25.5722   15.9246 C   0  0  1  0  0  0  0  0  0  0  0  0
  -33.6850  -26.8961   15.0372 C   0  0  1  0  0  0  0  0  0  0  0  0
  -27.6170  -13.1455   19.6794 C   0  0  2  0  0  0  0  0  0  0  0  0
  -28.4316  -32.5820   15.3119 C   0  0  0  0  0  0  0  0  0  0  0  0
  -34.2490  -30.5823   17.7675 C   0  0  0  0  0  0  0  0  0  0  0  0
  -32.3056  -32.1575   17.8680 C   0  0  0  0  0  0  0  0  0  0  0  0
  -33.7495  -32.0890   15.8350 C   0  0  0  0  0  0  0  0  0  0  0  0
  -27.8974  -29.0580   13.9807 C   0  0  0  0  0  0  0  0  0  0  0  0
  -28.2531  -17.5837   22.9065 C   0  0  0  0  0  0  0  0  0  0  0  0
  -27.7421  -18.2498   21.6217 C   0  0  0  0  0  0  0  0  0  0  0  0
  -29.8110  -22.1073   19.1503 C   0  0  0  0  0  0  0  0  0  1  0  0
  -32.1671  -30.1719   16.2966 C   0  0  1  0  0  0  0  0  0  0  0  0
  -28.8555  -31.2218   14.7800 C   0  0  2  0  0  0  0  0  0  0  0  0
  -33.1138  -31.2220   16.9436 C   0  0  0  0  0  0  0  0  0  0  0  0
  -25.8554  -11.5346   20.2982 N   0  0  0  0  0  0  0  0  0  0  0  0
  -26.2091  -12.8218   20.1431 N   0  0  0  0  0  0  0  0  0  0  0  0
  -32.8325  -27.8530   15.7456 N   0  0  0  0  0  0  0  0  0  0  0  0
  -29.9228  -13.6846   20.3596 N   0  0  0  0  0  0  0  0  0  0  0  0
  -25.3988  -15.0394   20.3338 N   0  0  0  0  0  0  0  0  0  0  0  0
  -21.8517  -12.5254   21.5559 N   0  0  0  0  0  0  0  0  0  0  0  0
  -29.9857  -15.7904   21.4197 N   0  0  0  0  0  0  0  0  0  0  0  0
  -35.8675  -25.8823   15.2961 N   0  0  0  0  0  0  0  0  0  0  0  0
  -31.0984  -30.7486   15.4881 N   0  0  0  0  0  0  0  0  0  0  0  0
  -27.6295  -30.4127   14.5284 N   0  3  0  0  0  0  0  0  0  0  0  0
  -22.5891  -14.6725   21.2325 O   0  0  0  0  0  0  0  0  0  0  0  0
  -28.7392  -22.5295   21.2613 O   0  0  0  0  0  0  0  0  0  0  0  0
  -35.0179  -27.2886   16.9462 O   0  0  0  0  0  0  0  0  0  0  0  0
  -33.5157  -29.6438   14.4181 O   0  0  0  0  0  0  0  0  0  0  0  0
  -29.3441  -29.8045   16.6747 O   0  0  0  0  0  0  0  0  0  0  0  0
  -31.7863  -15.0387   20.1650 O   0  0  0  0  0  0  0  0  0  0  0  0
  -27.6341  -20.4868   22.6229 O   0  0  0  0  0  0  0  0  0  0  0  0
  -21.6824   -6.9620   21.7904 O   0  0  0  0  0  0  0  0  0  0  0  0
  -30.0853  -23.5077   19.1551 O   0  0  0  0  0  0  0  0  0  1  0  0
  -32.2815  -19.4093   24.9399 F   0  0  0  0  0  0  0  0  0  0  0  0
  -18.6580   -6.8529   26.3996 F   0  0  0  0  0  0  0  0  0  0  0  0
  -22.1540   -5.0717   23.7519 F   0  0  0  0  0  0  0  0  0  0  0  0
  1  2  1  0  0  0  0
  1  5  2  0  0  0  0
  2  6  2  0  0  0  0
  3  9  2  0  0  0  0
  3 18  1  0  0  0  0
  4 10  1  0  0  0  0
  4 18  2  0  0  0  0
  5 20  1  0  0  0  0
  6 22  1  0  0  0  0
  7 11  2  0  0  0  0
  7 21  1  0  0  0  0
  8 13  2  0  0  0  0
  8 25  1  0  0  0  0
  9 26  1  0  0  0  0
 10 26  2  0  0  0  0
 11 27  1  0  0  0  0
 12 14  2  0  0  0  0
 12 28  1  0  0  0  0
 13 29  1  0  0  0  0
 14 30  1  0  0  0  0
 15 23  1  0  0  0  0
 15 27  2  0  0  0  0
 16 24  1  0  0  0  0
 16 29  2  0  0  0  0
 17 30  2  0  0  0  0
 17 31  1  0  0  0  0
 18 32  1  0  0  0  0
 19 32  1  0  0  0  0
 19 33  2  0  0  0  0
 19 35  1  0  0  0  0
 20 22  2  0  0  0  0
 20 42  1  0  0  0  0
 21 23  2  0  0  0  0
 21 43  1  0  0  0  0
 22 51  1  0  0  0  0
 23 44  1  0  0  0  0
 24 25  2  0  0  0  0
 24 59  1  0  0  0  0
 25 71  1  0  0  0  0
 26 82  1  0  0  0  0
 27 83  1  0  0  0  0
 28 31  2  0  0  0  0
 28 82  1  0  0  0  0
 29 84  1  0  0  0  0
 30 85  1  0  0  0  0
 31 86  1  0  0  0  0
 32 65  2  0  0  0  0
 33 66  1  0  0  0  0
 33 69  1  0  0  0  0
 34 36  2  0  0  0  0
 34 37  1  0  0  0  0
 35 70  1  0  0  0  0
 35 75  2  0  0  0  0
 36 60  1  0  0  0  0
 36 81  1  0  0  0  0
 37 61  1  0  0  0  0
 37 76  2  0  0  0  0
 38 52  1  0  0  0  0
 38 72  1  0  0  0  0
 38 77  2  0  0  0  0
 39 62  1  0  0  0  0
 39 67  1  0  0  0  0
 39 78  2  0  0  0  0
 40 63  1  0  0  0  0
 40 73  1  0  0  0  0
 40 79  2  0  0  0  0
 41 68  1  0  0  0  0
 41 71  1  0  0  0  0
 41 80  2  0  0  0  0
 42 45  1  0  0  0  0
 43 52  1  0  0  0  0
 44 67  1  0  0  0  0
 45 47  1  0  0  0  0
 46 48  1  0  0  0  0
 46 49  1  0  0  0  0
 47 51  1  0  0  0  0
 48 53  1  0  0  0  0
 49 68  1  0  0  0  0
 50 53  1  0  0  0  0
 50 68  1  0  0  0  0
 51 72  1  0  0  0  0
 52 67  1  0  0  0  0
 53 66  1  0  0  0  0
 54 63  1  0  0  0  0
 55 64  1  0  0  0  0
 56 64  1  0  0  0  0
 57 64  1  0  0  0  0
 58 74  1  0  0  0  0
 59 60  1  0  0  0  0
 61 83  1  0  0  0  0
 62 64  1  0  0  0  0
 62 73  1  0  0  0  0
 63 74  1  0  0  0  0
 65 66  1  0  0  0  0
M  CHG  1  74   1
M  ISO  4  41 100  61 101  71 100  83 101
M  END
> <Batch ID>
0170

> <Smiles>
CNC(C)C(=O)NC(C(=O)N1Cc2cc([101O:1][101CH2:1]C(=O)CC(=O)CCc3cc(F)ccc3[100NH:0][100C:0](=O)N3CCCC(n4nc(-c5ccc(Oc6ccc(F)cc6F)cc5)c(C(N)=O)c4N)C3)ccc2CC1C(=O)NC1CCCc2ccccc21)C(C)(C)C

> <Shape>
0.229

> <Color>
0.196

> <Negative vol penalty>
0.000

$$$$

  -OEChem-04052304203D

 83 91  0     1  0  0  0  0  0999 V2000
  -19.3604  -29.4675   23.1124 C   0  0  0  0  0  0  0  0  0  0  0  0
  -20.4488  -28.6154   23.2694 C   0  0  0  0  0  0  0  0  0  0  0  0
  -23.0844   -9.8930   19.9115 C   0  0  0  0  0  0  0  0  0  0  0  0
  -23.8638   -9.8505   22.1980 C   0  0  0  0  0  0  0  0  0  0  0  0
  -19.4554  -30.5685   22.2622 C   0  0  0  0  0  0  0  0  0  0  0  0
  -21.6327  -28.8632   22.5754 C   0  0  0  0  0  0  0  0  0  0  0  0
  -27.3382  -27.8058   24.5336 C   0  0  0  0  0  0  0  0  0  0  0  0
  -22.3514   -8.7284   20.1397 C   0  0  0  0  0  0  0  0  0  0  0  0
  -23.1307   -8.6859   22.4262 C   0  0  0  0  0  0  0  0  0  0  0  0
  -28.2306  -26.7599   24.3021 C   0  0  0  0  0  0  0  0  0  0  0  0
  -19.4218   -7.8742   21.5958 C   0  0  0  0  0  0  0  0  0  0  0  0
  -18.1112   -7.8295   21.1206 C   0  0  0  0  0  0  0  0  0  0  0  0
  -29.2671  -28.0422   22.5412 C   0  0  0  0  0  0  0  0  0  0  0  0
  -31.0963  -17.7873   20.7029 C   0  0  0  0  0  0  0  0  0  0  0  0
  -18.6742   -5.9234   19.7470 C   0  0  0  0  0  0  0  0  0  0  0  0
  -29.5033  -17.9168   22.4641 C   0  0  0  0  0  0  0  0  0  0  0  0
  -23.8406  -10.4540   20.9407 C   0  0  0  0  0  0  0  0  0  0  0  0
  -24.1623  -12.9839   20.8790 C   0  0  0  0  0  0  0  0  0  0  0  0
  -20.6442  -30.8354   21.5650 C   0  0  0  0  0  0  0  0  0  0  0  0
  -27.3966  -28.9752   23.7620 C   0  0  0  0  0  0  0  0  0  0  0  0
  -21.7433  -29.9680   21.7142 C   0  0  0  0  0  0  0  0  0  0  0  0
  -28.3759  -29.1024   22.7666 C   0  0  0  0  0  0  0  0  0  0  0  0
  -30.2177  -17.1411   21.5653 C   0  0  0  0  0  0  0  0  0  0  0  0
  -22.3746   -8.1249   21.3970 C   0  0  0  0  0  0  0  0  0  0  0  0
  -29.1934  -26.8769   23.3039 C   0  0  0  0  0  0  0  0  0  0  0  0
  -20.3587   -6.9435   21.1467 C   0  0  0  0  0  0  0  0  0  0  0  0
  -17.7374   -6.8541   20.1962 C   0  0  0  0  0  0  0  0  0  0  0  0
  -31.2317  -19.1697   20.7646 C   0  0  0  0  0  0  0  0  0  0  0  0
  -19.9849   -5.9680   20.2223 C   0  0  0  0  0  0  0  0  0  0  0  0
  -24.5985  -11.6567   20.7054 C   0  0  0  0  0  0  0  0  0  0  0  0
  -30.4718  -19.8545   21.6991 C   0  0  0  0  0  0  0  0  0  0  0  0
  -25.2456  -13.7504   20.5249 C   0  0  0  0  0  0  0  0  0  0  0  0
  -22.8916  -13.4796   21.3209 C   0  0  0  0  0  0  0  0  0  0  0  0
  -25.4062  -30.4504   21.7706 C   0  0  0  0  0  0  0  0  0  0  0  0
  -30.2950  -23.5262   22.4538 C   0  0  0  0  0  0  0  0  0  0  0  0
  -27.7058  -32.7382   21.7866 C   0  0  0  0  0  0  0  0  0  0  0  0
  -30.9850  -33.5465   22.2763 C   0  0  0  0  0  0  0  0  0  0  0  0
  -30.7051  -14.8339   20.6791 C   0  0  0  0  0  0  0  0  0  0  0  0
  -20.6838  -32.0109   20.6210 C   0  0  0  0  0  0  0  0  0  0  0  0
  -26.4439  -30.1050   24.0421 C   0  0  0  0  0  0  0  0  0  0  0  0
  -28.4935  -30.3453   21.9241 C   0  0  0  0  0  0  0  0  0  0  0  0
  -22.0975  -32.4151   20.2104 C   0  0  0  0  0  0  0  0  0  0  0  0
  -29.5887  -12.4694   18.2625 C   0  0  0  0  0  0  0  0  0  0  0  0
  -22.9111  -31.1861   19.8173 C   0  0  0  0  0  0  0  0  0  0  0  0
  -28.1551  -12.1564   18.6969 C   0  0  0  0  0  0  0  0  0  0  0  0
  -30.5123  -12.6762   19.4616 C   0  0  0  0  0  0  0  0  0  0  0  0
  -28.6118  -13.3523   20.8759 C   0  0  0  0  0  0  0  0  0  0  0  0
  -23.0526  -30.2175   20.9976 C   0  0  1  0  0  0  0  0  0  0  0  0
  -26.2636  -31.0433   22.8528 C   0  0  1  0  0  0  0  0  0  0  0  0
  -27.6303  -13.2000   19.7024 C   0  0  2  0  0  0  0  0  0  0  0  0
  -32.5712  -35.4886   22.1774 C   0  0  0  0  0  0  0  0  0  0  0  0
  -27.7212  -32.5672   18.7402 C   0  0  0  0  0  0  0  0  0  0  0  0
  -29.9139  -33.7756   18.7530 C   0  0  0  0  0  0  0  0  0  0  0  0
  -27.8726  -34.8897   19.6555 C   0  0  0  0  0  0  0  0  0  0  0  0
  -31.6336  -33.3128   25.1545 C   0  0  0  0  0  0  0  0  0  0  0  0
  -29.8955  -22.0814   22.6659 C   0  0  0  0  0  0  0  0  0  0  0  0
  -29.6051  -24.5350   23.3514 C   0  0  0  0  0  0  0  0  0  1  0  0
  -28.9446  -33.0145   20.9694 C   0  0  1  0  0  0  0  0  0  0  0  0
  -31.6393  -34.6711   23.0584 C   0  0  2  0  0  0  0  0  0  0  0  0
  -28.6099  -33.5374   19.5439 C   0  0  0  0  0  0  0  0  0  0  0  0
  -29.6080  -19.2616   22.5535 N   0  0  0  0  0  0  0  0  0  0  0  0
  -25.8604  -11.5808   20.2744 N   0  0  0  0  0  0  0  0  0  0  0  0
  -26.2265  -12.8700   20.1740 N   0  0  0  0  0  0  0  0  0  0  0  0
  -27.5352  -31.4197   22.2319 N   0  0  0  0  0  0  0  0  0  0  0  0
  -29.9531  -13.6812   20.3684 N   0  0  0  0  0  0  0  0  0  0  0  0
  -25.4454  -15.0849   20.4824 N   0  0  0  0  0  0  0  0  0  0  0  0
  -21.8895  -12.5547   21.6445 N   0  0  0  0  0  0  0  0  0  0  0  0
  -30.0577  -15.7338   21.5251 N   0  0  0  0  0  0  0  0  0  0  0  0
  -30.6156  -21.2336   21.7505 N   0  0  0  0  0  0  0  0  0  0  0  0
  -24.0551  -30.6950   21.9259 N   0  0  0  0  0  0  0  0  0  0  0  0
  -29.7626  -33.9252   21.7631 N   0  0  0  0  0  0  0  0  0  0  0  0
  -32.4303  -34.1199   24.1948 N   0  3  0  0  0  0  0  0  0  0  0  0
  -22.6466  -14.7066   21.4100 O   0  0  0  0  0  0  0  0  0  0  0  0
  -25.9317  -29.8191   20.8612 O   0  0  0  0  0  0  0  0  0  0  0  0
  -31.1232  -23.8708   21.6117 O   0  0  0  0  0  0  0  0  0  0  0  0
  -26.9220  -33.6599   22.0272 O   0  0  0  0  0  0  0  0  0  0  0  0
  -31.5079  -32.4436   22.1318 O   0  0  0  0  0  0  0  0  0  0  0  0
  -31.8288  -15.0226   20.2063 O   0  0  0  0  0  0  0  0  0  0  0  0
  -21.6592   -6.9886   21.6201 O   0  0  0  0  0  0  0  0  0  0  0  0
  -30.0653  -25.8573   23.0754 O   0  0  0  0  0  0  0  0  0  1  0  0
  -16.4784   -6.8104   19.7410 F   0  0  0  0  0  0  0  0  0  0  0  0
  -32.0738  -19.8055   19.9401 F   0  0  0  0  0  0  0  0  0  0  0  0
  -20.8802   -5.0705   19.7880 F   0  0  0  0  0  0  0  0  0  0  0  0
  1  2  1  0  0  0  0
  1  5  2  0  0  0  0
  2  6  2  0  0  0  0
  3  8  2  0  0  0  0
  3 17  1  0  0  0  0
  4  9  1  0  0  0  0
  4 17  2  0  0  0  0
  5 19  1  0  0  0  0
  6 21  1  0  0  0  0
  7 10  2  0  0  0  0
  7 20  1  0  0  0  0
  8 24  1  0  0  0  0
  9 24  2  0  0  0  0
 10 25  1  0  0  0  0
 11 12  2  0  0  0  0
 11 26  1  0  0  0  0
 12 27  1  0  0  0  0
 13 22  1  0  0  0  0
 13 25  2  0  0  0  0
 14 23  2  0  0  0  0
 14 28  1  0  0  0  0
 15 27  2  0  0  0  0
 15 29  1  0  0  0  0
 16 23  1  0  0  0  0
 16 61  2  0  0  0  0
 17 30  1  0  0  0  0
 18 30  1  0  0  0  0
 18 32  2  0  0  0  0
 18 33  1  0  0  0  0
 19 21  2  0  0  0  0
 19 39  1  0  0  0  0
 20 22  2  0  0  0  0
 20 40  1  0  0  0  0
 21 48  1  0  0  0  0
 22 41  1  0  0  0  0
 23 68  1  0  0  0  0
 24 79  1  0  0  0  0
 25 80  1  0  0  0  0
 26 29  2  0  0  0  0
 26 79  1  0  0  0  0
 27 81  1  0  0  0  0
 28 31  2  0  0  0  0
 28 82  1  0  0  0  0
 29 83  1  0  0  0  0
 30 62  2  0  0  0  0
 31 61  1  0  0  0  0
 31 69  1  0  0  0  0
 32 63  1  0  0  0  0
 32 66  1  0  0  0  0
 33 67  1  0  0  0  0
 33 73  2  0  0  0  0
 34 49  1  0  0  0  0
 34 70  1  0  0  0  0
 34 74  2  0  0  0  0
 35 56  1  0  0  0  0
 35 57  1  0  0  0  0
 35 75  2  0  0  0  0
 36 58  1  0  0  0  0
 36 64  1  0  0  0  0
 36 76  2  0  0  0  0
 37 59  1  0  0  0  0
 37 71  1  0  0  0  0
 37 77  2  0  0  0  0
 38 65  1  0  0  0  0
 38 68  1  0  0  0  0
 38 78  2  0  0  0  0
 39 42  1  0  0  0  0
 40 49  1  0  0  0  0
 41 64  1  0  0  0  0
 42 44  1  0  0  0  0
 43 45  1  0  0  0  0
 43 46  1  0  0  0  0
 44 48  1  0  0  0  0
 45 50  1  0  0  0  0
 46 65  1  0  0  0  0
 47 50  1  0  0  0  0
 47 65  1  0  0  0  0
 48 70  1  0  0  0  0
 49 64  1  0  0  0  0
 50 63  1  0  0  0  0
 51 59  1  0  0  0  0
 52 60  1  0  0  0  0
 53 60  1  0  0  0  0
 54 60  1  0  0  0  0
 55 72  1  0  0  0  0
 56 69  1  0  0  0  0
 57 80  1  0  0  0  0
 58 60  1  0  0  0  0
 58 71  1  0  0  0  0
 59 72  1  0  0  0  0
 62 63  1  0  0  0  0
M  CHG  1  72   1
M  ISO  4  38 100  57 101  68 100  80 101
M  END
> <Batch ID>
0170

> <Smiles>
CNC(C)C(=O)NC(C(=O)N1Cc2cc([101O:1][101CH2:1]C(=O)CNc3ncc([100NH:0][100C:0](=O)N4CCCC(n5nc(-c6ccc(Oc7ccc(F)cc7F)cc6)c(C(N)=O)c5N)C4)cc3F)ccc2CC1C(=O)NC1CCCc2ccccc21)C(C)(C)C

> <Shape>
0.270

> <Color>
0.190

> <Negative vol penalty>
0.000

$$$$

  -OEChem-04052304203D

 89 97  0     1  0  0  0  0  0999 V2000
  -19.7467  -10.0562   19.9731 C   0  0  0  0  0  0  0  0  0  0  0  0
  -20.1813  -11.3367   20.2999 C   0  0  0  0  0  0  0  0  0  0  0  0
  -21.5773  -29.0975   19.9539 C   0  0  0  0  0  0  0  0  0  0  0  0
  -22.4341  -27.5082   21.5592 C   0  0  0  0  0  0  0  0  0  0  0  0
  -20.6062   -8.9692   20.1268 C   0  0  0  0  0  0  0  0  0  0  0  0
  -21.4754  -11.5309   20.7815 C   0  0  0  0  0  0  0  0  0  0  0  0
  -23.7827  -15.4833   18.6136 C   0  0  0  0  0  0  0  0  0  0  0  0
  -28.1121  -25.5304   20.2858 C   0  0  0  0  0  0  0  0  0  0  0  0
  -27.3084  -24.3909   20.2507 C   0  0  0  0  0  0  0  0  0  0  0  0
  -20.4257  -28.3250   19.8036 C   0  0  0  0  0  0  0  0  0  0  0  0
  -21.2824  -26.7356   21.4089 C   0  0  0  0  0  0  0  0  0  0  0  0
  -23.4308  -16.7536   19.0677 C   0  0  0  0  0  0  0  0  0  0  0  0
  -18.0854  -26.7943   22.5027 C   0  0  0  0  0  0  0  0  0  0  0  0
  -17.4775  -26.3081   23.6601 C   0  0  0  0  0  0  0  0  0  0  0  0
  -25.4208  -16.8112   20.4300 C   0  0  0  0  0  0  0  0  0  0  0  0
  -26.2401  -25.0811   22.3048 C   0  0  0  0  0  0  0  0  0  0  0  0
  -17.7998  -24.0448   22.8785 C   0  0  0  0  0  0  0  0  0  0  0  0
  -22.5815  -28.6891   20.8316 C   0  0  0  0  0  0  0  0  0  0  0  0
  -23.9816  -30.5299   21.9082 C   0  0  0  0  0  0  0  0  0  0  0  0
  -21.9147   -9.1514   20.6015 C   0  0  0  0  0  0  0  0  0  0  0  0
  -24.9526  -14.8618   19.0734 C   0  0  0  0  0  0  0  0  0  0  0  0
  -22.3528  -10.4452   20.9430 C   0  0  0  0  0  0  0  0  0  0  0  0
  -25.7866  -15.5340   19.9782 C   0  0  0  0  0  0  0  0  0  0  0  0
  -27.9799  -26.4452   21.3305 C   0  0  0  0  0  0  0  0  0  0  0  0
  -27.0438  -26.2206   22.3399 C   0  0  0  0  0  0  0  0  0  0  0  0
  -26.3724  -24.1663   21.2601 C   0  0  0  0  0  0  0  0  0  0  0  0
  -20.2782  -27.1441   20.5311 C   0  0  0  0  0  0  0  0  0  0  0  0
  -24.2484  -17.4166   19.9783 C   0  0  0  0  0  0  0  0  0  0  0  0
  -18.5505  -25.9058   21.5331 C   0  0  0  0  0  0  0  0  0  0  0  0
  -17.3347  -24.9334   23.8480 C   0  0  0  0  0  0  0  0  0  0  0  0
  -18.4077  -24.5311   21.7211 C   0  0  0  0  0  0  0  0  0  0  0  0
  -23.7716  -29.4864   20.9869 C   0  0  0  0  0  0  0  0  0  0  0  0
  -25.2606  -30.9607   21.6534 C   0  0  0  0  0  0  0  0  0  0  0  0
  -24.7730  -19.6865   20.1860 C   0  0  0  0  0  0  0  0  0  1  0  0
  -23.0994  -31.0620   22.9053 C   0  0  0  0  0  0  0  0  0  0  0  0
  -24.5387  -20.9444   20.5787 C   0  0  0  0  0  0  0  0  0  0  0  0
  -25.5527  -22.0043   20.2679 C   0  0  0  0  0  0  0  0  0  0  0  0
  -25.5915  -12.2072   20.7007 C   0  0  0  0  0  0  0  0  0  0  0  0
  -28.6659  -13.0178   20.0577 C   0  0  0  0  0  0  0  0  0  0  0  0
  -30.9167  -15.4651   19.2889 C   0  0  0  0  0  0  0  0  0  0  0  0
  -30.0640  -28.4496   19.3517 C   0  0  0  0  0  0  0  0  0  0  0  0
  -22.7917   -7.9399   20.7956 C   0  0  0  0  0  0  0  0  0  0  0  0
  -25.3319  -13.5023   18.5534 C   0  0  0  0  0  0  0  0  0  0  0  0
  -27.0637  -14.9189   20.4870 C   0  0  0  0  0  0  0  0  0  0  0  0
  -24.2713   -8.2787   20.9576 C   0  0  0  0  0  0  0  0  0  0  0  0
  -28.4821  -31.2890   18.1430 C   0  0  0  0  0  0  0  0  0  0  0  0
  -24.4510   -9.4267   21.9459 C   0  0  0  0  0  0  0  0  0  0  0  0
  -27.1104  -31.2600   18.8158 C   0  0  0  0  0  0  0  0  0  0  0  0
  -28.9043  -29.8910   17.7073 C   0  0  0  0  0  0  0  0  0  0  0  0
  -27.5624  -28.8532   19.5083 C   0  0  0  0  0  0  0  0  0  0  0  0
  -23.7576  -10.6994   21.4450 C   0  0  1  0  0  0  0  0  0  0  0  0
  -26.2812  -12.7511   19.4816 C   0  0  1  0  0  0  0  0  0  0  0  0
  -27.0849  -30.2448   19.9718 C   0  0  2  0  0  0  0  0  0  0  0  0
  -26.8832  -27.1872   23.4671 C   0  0  0  0  0  0  0  0  0  0  0  0
  -33.3629  -15.8285   18.8628 C   0  0  0  0  0  0  0  0  0  0  0  0
  -29.2162  -12.8067   23.0514 C   0  0  0  0  0  0  0  0  0  0  0  0
  -31.3439  -14.0725   22.6788 C   0  0  0  0  0  0  0  0  0  0  0  0
  -31.0086  -11.8526   21.5915 C   0  0  0  0  0  0  0  0  0  0  0  0
  -30.4124  -16.4326   16.5377 C   0  0  0  0  0  0  0  0  0  0  0  0
  -28.8521  -27.6575   21.3471 C   0  0  0  0  0  0  0  0  0  0  0  0
  -31.0572  -26.6686   20.8506 C   0  0  0  0  0  0  0  0  0  0  0  0
  -29.7171  -13.8548   20.7456 C   0  0  1  0  0  0  0  0  0  0  0  0
  -32.0085  -15.5351   18.2365 C   0  0  2  0  0  0  0  0  0  0  0  0
  -31.9321  -27.3220   21.8971 C   0  0  0  0  0  0  0  0  0  0  0  0
  -30.2965  -13.1577   22.0089 C   0  0  0  0  0  0  0  0  0  0  0  0
  -24.8322  -29.2677   20.2050 N   0  0  0  0  0  0  0  0  0  0  0  0
  -25.7209  -30.1798   20.6343 N   0  0  0  0  0  0  0  0  0  0  0  0
  -27.3881  -13.5854   19.9539 N   0  0  0  0  0  0  0  0  0  0  0  0
  -28.8633  -28.9519   18.8286 N   0  0  0  0  0  0  0  0  0  0  0  0
  -26.0251  -31.9277   22.2038 N   0  0  0  0  0  0  0  0  0  0  0  0
  -21.8206  -30.5028   23.0331 N   0  0  0  0  0  0  0  0  0  0  0  0
  -25.5550  -23.0109   21.2238 N   0  0  0  0  0  0  0  0  0  0  0  0
  -24.5540  -11.3388   20.4197 N   0  0  0  0  0  0  0  0  0  0  0  0
  -30.7139  -14.1744   19.7294 N   0  0  0  0  0  0  0  0  0  0  0  0
  -29.9698  -27.5457   20.4207 N   0  0  0  0  0  0  0  0  0  0  0  0
  -31.7061  -16.6075   17.2468 N   0  3  0  0  0  0  0  0  0  0  0  0
  -23.4292  -32.0164   23.6496 O   0  0  0  0  0  0  0  0  0  0  0  0
  -26.2612  -21.9252   19.2701 O   0  0  0  0  0  0  0  0  0  0  0  0
  -25.9734  -12.5488   21.8139 O   0  0  0  0  0  0  0  0  0  0  0  0
  -28.9692  -11.9043   19.6219 O   0  0  0  0  0  0  0  0  0  0  0  0
  -30.3074  -16.4569   19.6835 O   0  0  0  0  0  0  0  0  0  0  0  0
  -31.1608  -28.7836   18.8851 O   0  0  0  0  0  0  0  0  0  0  0  0
  -23.3952  -21.3084   21.2604 O   0  0  0  0  0  0  0  0  0  0  0  0
  -19.1545  -26.3901   20.3850 O   0  0  0  0  0  0  0  0  0  0  0  0
  -23.9069  -18.6563   20.4236 O   0  0  0  0  0  0  0  0  0  1  0  0
  -16.7523  -24.4666   24.9602 F   0  0  0  0  0  0  0  0  0  0  0  0
  -18.8536  -23.6726   20.7938 F   0  0  0  0  0  0  0  0  0  0  0  0
  -32.4660  -28.4683   21.4092 F   0  0  0  0  0  0  0  0  0  0  0  0
  -31.1907  -27.6576   22.9811 F   0  0  0  0  0  0  0  0  0  0  0  0
  1  2  1  0  0  0  0
  1  5  2  0  0  0  0
  2  6  2  0  0  0  0
  3 10  2  0  0  0  0
  3 18  1  0  0  0  0
  4 11  1  0  0  0  0
  4 18  2  0  0  0  0
  5 20  1  0  0  0  0
  6 22  1  0  0  0  0
  7 12  2  0  0  0  0
  7 21  1  0  0  0  0
  8  9  2  0  0  0  0
  8 24  1  0  0  0  0
  9 26  1  0  0  0  0
 10 27  1  0  0  0  0
 11 27  2  0  0  0  0
 12 28  1  0  0  0  0
 13 14  2  0  0  0  0
 13 29  1  0  0  0  0
 14 30  1  0  0  0  0
 15 23  1  0  0  0  0
 15 28  2  0  0  0  0
 16 25  1  0  0  0  0
 16 26  2  0  0  0  0
 17 30  2  0  0  0  0
 17 31  1  0  0  0  0
 18 32  1  0  0  0  0
 19 32  1  0  0  0  0
 19 33  2  0  0  0  0
 19 35  1  0  0  0  0
 20 22  2  0  0  0  0
 20 42  1  0  0  0  0
 21 23  2  0  0  0  0
 21 43  1  0  0  0  0
 22 51  1  0  0  0  0
 23 44  1  0  0  0  0
 24 25  2  0  0  0  0
 24 60  1  0  0  0  0
 25 54  1  0  0  0  0
 26 72  1  0  0  0  0
 27 84  1  0  0  0  0
 28 85  1  0  0  0  0
 29 31  2  0  0  0  0
 29 84  1  0  0  0  0
 30 86  1  0  0  0  0
 31 87  1  0  0  0  0
 32 66  2  0  0  0  0
 33 67  1  0  0  0  0
 33 70  1  0  0  0  0
 34 36  2  0  0  0  0
 34 85  1  0  0  0  0
 35 71  1  0  0  0  0
 35 77  2  0  0  0  0
 36 37  1  0  0  0  0
 36 83  1  0  0  0  0
 37 72  1  0  0  0  0
 37 78  2  0  0  0  0
 38 52  1  0  0  0  0
 38 73  1  0  0  0  0
 38 79  2  0  0  0  0
 39 62  1  0  0  0  0
 39 68  1  0  0  0  0
 39 80  2  0  0  0  0
 40 63  1  0  0  0  0
 40 74  1  0  0  0  0
 40 81  2  0  0  0  0
 41 69  1  0  0  0  0
 41 75  1  0  0  0  0
 41 82  2  0  0  0  0
 42 45  1  0  0  0  0
 43 52  1  0  0  0  0
 44 68  1  0  0  0  0
 45 47  1  0  0  0  0
 46 48  1  0  0  0  0
 46 49  1  0  0  0  0
 47 51  1  0  0  0  0
 48 53  1  0  0  0  0
 49 69  1  0  0  0  0
 50 53  1  0  0  0  0
 50 69  1  0  0  0  0
 51 73  1  0  0  0  0
 52 68  1  0  0  0  0
 53 67  1  0  0  0  0
 55 63  1  0  0  0  0
 56 65  1  0  0  0  0
 57 65  1  0  0  0  0
 58 65  1  0  0  0  0
 59 76  1  0  0  0  0
 60 75  1  0  0  0  0
 61 64  1  0  0  0  0
 61 75  1  0  0  0  0
 62 65  1  0  0  0  0
 62 74  1  0  0  0  0
 63 76  1  0  0  0  0
 64 88  1  0  0  0  0
 64 89  1  0  0  0  0
 66 67  1  0  0  0  0
M  CHG  1  76   1
M  ISO  4  34 101  41 100  75 100  85 101
M  END
> <Batch ID>
0170

> <Smiles>
CNC(C)C(=O)NC(C(=O)N1Cc2cc([101O:1][101CH2:1]C(=O)C(=O)Nc3ccc(C[100N:0](CC(F)F)[100C:0](=O)N4CCCC(n5nc(-c6ccc(Oc7ccc(F)cc7F)cc6)c(C(N)=O)c5N)C4)c(C)c3)ccc2CC1C(=O)NC1CCCc2ccccc21)C(C)(C)C

> <Shape>
0.249

> <Color>
0.065

> <Negative vol penalty>
0.000

$$$$

  -OEChem-04052304203D

 90 98  0     1  0  0  0  0  0999 V2000
  -26.0027  -29.4607   28.1930 C   0  0  0  0  0  0  0  0  0  0  0  0
  -26.8519  -28.8417   27.2814 C   0  0  0  0  0  0  0  0  0  0  0  0
  -24.2144   -9.5162   20.3647 C   0  0  0  0  0  0  0  0  0  0  0  0
  -24.7562  -10.0586   22.6558 C   0  0  0  0  0  0  0  0  0  0  0  0
  -24.6435  -29.5820   27.9066 C   0  0  0  0  0  0  0  0  0  0  0  0
  -26.3422  -28.3426   26.0832 C   0  0  0  0  0  0  0  0  0  0  0  0
  -29.1600  -28.2301   20.6469 C   0  0  0  0  0  0  0  0  0  0  0  0
  -27.6086  -20.8190   22.5033 C   0  0  0  0  0  0  0  0  0  0  0  0
  -23.8895   -8.2154   20.7494 C   0  0  0  0  0  0  0  0  0  0  0  0
  -24.4313   -8.7578   23.0406 C   0  0  0  0  0  0  0  0  0  0  0  0
  -29.8531  -27.2274   19.9702 C   0  0  0  0  0  0  0  0  0  0  0  0
  -21.2880   -6.6271   22.2131 C   0  0  0  0  0  0  0  0  0  0  0  0
  -20.1136   -6.0743   21.7023 C   0  0  0  0  0  0  0  0  0  0  0  0
  -27.6121  -19.4559   22.2294 C   0  0  0  0  0  0  0  0  0  0  0  0
  -27.8511  -26.6823   18.7398 C   0  0  0  0  0  0  0  0  0  0  0  0
  -21.3947   -4.3020   20.6752 C   0  0  0  0  0  0  0  0  0  0  0  0
  -24.6479  -10.4378   21.3178 C   0  0  0  0  0  0  0  0  0  0  0  0
  -24.1209  -12.8918   20.8624 C   0  0  0  0  0  0  0  0  0  0  0  0
  -24.1186  -29.0928   26.7001 C   0  0  0  0  0  0  0  0  0  0  0  0
  -27.8021  -28.4597   20.3825 C   0  0  0  0  0  0  0  0  0  0  0  0
  -24.9745  -28.4563   25.7810 C   0  0  0  0  0  0  0  0  0  0  0  0
  -27.1437  -27.6903   19.4126 C   0  0  0  0  0  0  0  0  0  0  0  0
  -28.6783  -21.6074   22.0939 C   0  0  0  0  0  0  0  0  0  0  0  0
  -23.9979   -7.8362   22.0874 C   0  0  0  0  0  0  0  0  0  0  0  0
  -29.1979  -26.4514   19.0186 C   0  0  0  0  0  0  0  0  0  0  0  0
  -22.5157   -6.0175   21.9548 C   0  0  0  0  0  0  0  0  0  0  0  0
  -20.1670   -4.9117   20.9334 C   0  0  0  0  0  0  0  0  0  0  0  0
  -22.5691   -4.8549   21.1859 C   0  0  0  0  0  0  0  0  0  0  0  0
  -24.9842  -11.7814   20.9209 C   0  0  0  0  0  0  0  0  0  0  0  0
  -28.7002  -18.9339   21.5487 C   0  0  0  0  0  0  0  0  0  0  0  0
  -29.7188  -20.9891   21.4194 C   0  0  0  0  0  0  0  0  0  0  0  0
  -24.9177  -13.9239   20.4305 C   0  0  0  0  0  0  0  0  0  0  0  0
  -22.7236  -12.9823   21.1709 C   0  0  0  0  0  0  0  0  0  0  0  0
  -28.0246  -25.1649   23.1444 C   0  0  0  0  0  0  0  0  0  0  0  0
  -27.6949  -23.7034   23.0346 C   0  0  0  0  0  0  0  0  0  0  0  0
  -25.1268  -28.3070   22.0922 C   0  0  0  0  0  0  0  0  0  0  0  0
  -31.1192  -23.4073   18.5791 C   0  0  0  0  0  0  0  0  0  0  0  0
  -23.7997  -29.5466   19.4044 C   0  0  0  0  0  0  0  0  0  0  0  0
  -23.9732  -29.9850   16.0244 C   0  0  0  0  0  0  0  0  0  0  0  0
  -29.6768  -16.8084   20.6132 C   0  0  0  0  0  0  0  0  0  0  0  0
  -22.6346  -29.2048   26.4557 C   0  0  0  0  0  0  0  0  0  0  0  0
  -27.0756  -29.5629   21.1018 C   0  0  0  0  0  0  0  0  0  0  0  0
  -25.6919  -27.9102   19.0773 C   0  0  0  0  0  0  0  0  0  0  0  0
  -22.2389  -28.9836   24.9980 C   0  0  0  0  0  0  0  0  0  0  0  0
  -29.6243  -13.8944   18.5680 C   0  0  0  0  0  0  0  0  0  0  0  0
  -22.9402  -27.7512   24.4357 C   0  0  0  0  0  0  0  0  0  0  0  0
  -28.3414  -13.1763   18.9930 C   0  0  0  0  0  0  0  0  0  0  0  0
  -30.3166  -14.5670   19.7521 C   0  0  0  0  0  0  0  0  0  0  0  0
  -28.1810  -14.7462   20.9670 C   0  0  0  0  0  0  0  0  0  0  0  0
  -24.4637  -27.9244   24.4596 C   0  0  1  0  0  0  0  0  0  0  0  0
  -25.5627  -29.3682   21.1218 C   0  0  1  0  0  0  0  0  0  0  0  0
  -27.4139  -14.1082   19.7973 C   0  0  2  0  0  0  0  0  0  0  0  0
  -29.2967  -25.5281   23.8495 C   0  0  0  0  0  0  0  0  0  0  0  0
  -33.2541  -22.2090   18.1649 C   0  0  0  0  0  0  0  0  0  0  0  0
  -22.7230  -31.0079   14.1039 C   0  0  0  0  0  0  0  0  0  0  0  0
  -21.8114  -27.2331   19.4695 C   0  0  0  0  0  0  0  0  0  0  0  0
  -21.2351  -27.7528   17.0892 C   0  0  0  0  0  0  0  0  0  0  0  0
  -20.8157  -29.4477   18.8708 C   0  0  0  0  0  0  0  0  0  0  0  0
  -26.2147  -31.8088   15.3856 C   0  0  0  0  0  0  0  0  0  0  0  0
  -30.9447  -24.8379   19.0527 C   0  0  0  0  0  0  0  0  0  1  0  0
  -31.7118  -21.3728   19.9683 C   0  0  0  0  0  0  0  0  0  0  0  0
  -32.2452  -22.6092   19.2373 C   0  0  2  0  0  0  0  0  0  0  0  0
  -23.1912  -28.9703   18.1488 C   0  0  1  0  0  0  0  0  0  0  0  0
  -23.7982  -31.2195   15.1585 C   0  0  2  0  0  0  0  0  0  0  0  0
  -21.7902  -28.3453   18.4021 C   0  0  0  0  0  0  0  0  0  0  0  0
  -26.2337  -12.0799   20.5553 N   0  0  0  0  0  0  0  0  0  0  0  0
  -29.7574  -19.6680   21.1352 N   0  0  0  0  0  0  0  0  0  0  0  0
  -26.1613  -13.3896   20.2628 N   0  0  0  0  0  0  0  0  0  0  0  0
  -25.0232  -28.9967   19.8121 N   0  0  0  0  0  0  0  0  0  0  0  0
  -29.3783  -15.4375   20.4638 N   0  0  0  0  0  0  0  0  0  0  0  0
  -24.6688  -15.2271   20.1816 N   0  0  0  0  0  0  0  0  0  0  0  0
  -22.0581  -11.8263   21.6011 N   0  0  0  0  0  0  0  0  0  0  0  0
  -28.6727  -22.9769   22.3660 N   0  0  0  0  0  0  0  0  0  0  0  0
  -28.6958  -17.5429   21.2786 N   0  0  0  0  0  0  0  0  0  0  0  0
  -30.7888  -21.7663   21.0084 N   0  0  0  0  0  0  0  0  0  0  0  0
  -24.8927  -28.7758   23.3708 N   0  0  0  0  0  0  0  0  0  0  0  0
  -23.1965  -30.0449   17.1621 N   0  0  0  0  0  0  0  0  0  0  0  0
  -25.0756  -31.5526   14.4670 N   0  3  0  0  0  0  0  0  0  0  0  0
  -22.0805  -14.0528   21.0523 O   0  0  0  0  0  0  0  0  0  0  0  0
  -27.2374  -25.9659   22.6631 O   0  0  0  0  0  0  0  0  0  0  0  0
  -26.6531  -23.3389   23.5546 O   0  0  0  0  0  0  0  0  0  0  0  0
  -25.0101  -27.1489   21.7089 O   0  0  0  0  0  0  0  0  0  0  0  0
  -30.4083  -22.9276   17.6961 O   0  0  0  0  0  0  0  0  0  0  0  0
  -23.2146  -30.4563   19.9974 O   0  0  0  0  0  0  0  0  0  0  0  0
  -24.7210  -29.0584   15.7199 O   0  0  0  0  0  0  0  0  0  0  0  0
  -30.7128  -17.3003   20.1587 O   0  0  0  0  0  0  0  0  0  0  0  0
  -23.6807   -6.5671   22.4632 O   0  0  0  0  0  0  0  0  0  0  0  0
  -29.8719  -25.4715   18.3571 O   0  0  0  0  0  0  0  0  0  1  0  0
  -19.0390   -4.3801   20.4443 F   0  0  0  0  0  0  0  0  0  0  0  0
  -23.7455   -4.2640   20.9354 F   0  0  0  0  0  0  0  0  0  0  0  0
  1  2  1  0  0  0  0
  1  5  2  0  0  0  0
  2  6  2  0  0  0  0
  3  9  2  0  0  0  0
  3 17  1  0  0  0  0
  4 10  1  0  0  0  0
  4 17  2  0  0  0  0
  5 19  1  0  0  0  0
  6 21  1  0  0  0  0
  7 11  2  0  0  0  0
  7 20  1  0  0  0  0
  8 14  2  0  0  0  0
  8 23  1  0  0  0  0
  9 24  1  0  0  0  0
 10 24  2  0  0  0  0
 11 25  1  0  0  0  0
 12 13  2  0  0  0  0
 12 26  1  0  0  0  0
 13 27  1  0  0  0  0
 14 30  1  0  0  0  0
 15 22  1  0  0  0  0
 15 25  2  0  0  0  0
 16 27  2  0  0  0  0
 16 28  1  0  0  0  0
 17 29  1  0  0  0  0
 18 29  1  0  0  0  0
 18 32  2  0  0  0  0
 18 33  1  0  0  0  0
 19 21  2  0  0  0  0
 19 41  1  0  0  0  0
 20 22  2  0  0  0  0
 20 42  1  0  0  0  0
 21 50  1  0  0  0  0
 22 43  1  0  0  0  0
 23 31  2  0  0  0  0
 23 73  1  0  0  0  0
 24 87  1  0  0  0  0
 25 88  1  0  0  0  0
 26 28  2  0  0  0  0
 26 87  1  0  0  0  0
 27 89  1  0  0  0  0
 28 90  1  0  0  0  0
 29 66  2  0  0  0  0
 30 67  2  0  0  0  0
 30 74  1  0  0  0  0
 31 67  1  0  0  0  0
 31 75  1  0  0  0  0
 32 68  1  0  0  0  0
 32 71  1  0  0  0  0
 33 72  1  0  0  0  0
 33 79  2  0  0  0  0
 34 35  1  0  0  0  0
 34 53  1  0  0  0  0
 34 80  2  0  0  0  0
 35 73  1  0  0  0  0
 35 81  2  0  0  0  0
 36 51  1  0  0  0  0
 36 76  1  0  0  0  0
 36 82  2  0  0  0  0
 37 60  1  0  0  0  0
 37 62  1  0  0  0  0
 37 83  2  0  0  0  0
 38 63  1  0  0  0  0
 38 69  1  0  0  0  0
 38 84  2  0  0  0  0
 39 64  1  0  0  0  0
 39 77  1  0  0  0  0
 39 85  2  0  0  0  0
 40 70  1  0  0  0  0
 40 74  1  0  0  0  0
 40 86  2  0  0  0  0
 41 44  1  0  0  0  0
 42 51  1  0  0  0  0
 43 69  1  0  0  0  0
 44 46  1  0  0  0  0
 45 47  1  0  0  0  0
 45 48  1  0  0  0  0
 46 50  1  0  0  0  0
 47 52  1  0  0  0  0
 48 70  1  0  0  0  0
 49 52  1  0  0  0  0
 49 70  1  0  0  0  0
 50 76  1  0  0  0  0
 51 69  1  0  0  0  0
 52 68  1  0  0  0  0
 54 62  1  0  0  0  0
 55 64  1  0  0  0  0
 56 65  1  0  0  0  0
 57 65  1  0  0  0  0
 58 65  1  0  0  0  0
 59 78  1  0  0  0  0
 60 88  1  0  0  0  0
 61 62  1  0  0  0  0
 61 75  1  0  0  0  0
 63 65  1  0  0  0  0
 63 77  1  0  0  0  0
 64 78  1  0  0  0  0
 66 68  1  0  0  0  0
M  CHG  1  78   1
M  ISO  4  40 100  60 101  74 100  88 101
M  END
> <Batch ID>
0170

> <Smiles>
CNC(C)C(=O)NC(C(=O)N1Cc2cc([101O:1][101CH2:1]C(=O)C(C)CNc3nc([100NH:0][100C:0](=O)N4CCCC(n5nc(-c6ccc(Oc7ccc(F)cc7F)cc6)c(C(N)=O)c5N)C4)ccc3NC(=O)C(C)=O)ccc2CC1C(=O)NC1CCCc2ccccc21)C(C)(C)C

> <Shape>
0.266

> <Color>
0.106

> <Negative vol penalty>
0.000

$$$$

  -OEChem-04052304203D

 83 91  0     1  0  0  0  0  0999 V2000
  -19.7719  -29.0330   27.1016 C   0  0  0  0  0  0  0  0  0  0  0  0
  -20.9437  -28.4705   26.6059 C   0  0  0  0  0  0  0  0  0  0  0  0
  -24.2064   -9.3029   22.1589 C   0  0  0  0  0  0  0  0  0  0  0  0
  -23.1753  -10.0442   20.1035 C   0  0  0  0  0  0  0  0  0  0  0  0
  -18.7915  -29.4882   26.2209 C   0  0  0  0  0  0  0  0  0  0  0  0
  -21.1353  -28.3617   25.2290 C   0  0  0  0  0  0  0  0  0  0  0  0
  -26.4313  -28.8779   22.1971 C   0  0  0  0  0  0  0  0  0  0  0  0
  -23.3278   -8.2208   22.2094 C   0  0  0  0  0  0  0  0  0  0  0  0
  -22.2967   -8.9620   20.1540 C   0  0  0  0  0  0  0  0  0  0  0  0
  -27.3242  -27.9293   21.7006 C   0  0  0  0  0  0  0  0  0  0  0  0
  -23.0224   -5.1895   20.7427 C   0  0  0  0  0  0  0  0  0  0  0  0
  -23.5539   -3.9368   21.0491 C   0  0  0  0  0  0  0  0  0  0  0  0
  -26.2773  -28.0872   19.5330 C   0  0  0  0  0  0  0  0  0  0  0  0
  -22.1259   -3.8066   22.9936 C   0  0  0  0  0  0  0  0  0  0  0  0
  -28.1991  -18.5590   17.7826 C   0  0  0  0  0  0  0  0  0  0  0  0
  -24.1301  -10.2147   21.1059 C   0  0  0  0  0  0  0  0  0  0  0  0
  -26.3007  -11.3745   20.4343 C   0  0  0  0  0  0  0  0  0  0  0  0
  -18.9754  -29.3937   24.8324 C   0  0  0  0  0  0  0  0  0  0  0  0
  -25.4460  -29.4313   21.3667 C   0  0  0  0  0  0  0  0  0  0  0  0
  -20.1559  -28.8148   24.3288 C   0  0  0  0  0  0  0  0  0  0  0  0
  -25.3748  -29.0446   20.0207 C   0  0  0  0  0  0  0  0  0  0  0  0
  -22.3730   -8.0503   21.2070 C   0  0  0  0  0  0  0  0  0  0  0  0
  -27.2455  -27.5316   20.3691 C   0  0  0  0  0  0  0  0  0  0  0  0
  -22.0428   -5.7509   21.5618 C   0  0  0  0  0  0  0  0  0  0  0  0
  -23.1056   -3.2454   22.1745 C   0  0  0  0  0  0  0  0  0  0  0  0
  -21.5945   -5.0594   22.6872 C   0  0  0  0  0  0  0  0  0  0  0  0
  -28.7627  -19.8177   17.4646 C   0  0  0  0  0  0  0  0  0  0  0  0
  -25.0371  -11.3331   21.0535 C   0  0  0  0  0  0  0  0  0  0  0  0
  -26.7547  -12.6500   20.6655 C   0  0  0  0  0  0  0  0  0  0  0  0
  -27.4500  -18.7522   18.9199 C   0  0  0  0  0  0  0  0  0  0  0  0
  -28.3175  -20.6905   18.4301 C   0  0  0  0  0  0  0  0  0  0  0  0
  -27.7621  -25.2874   19.9598 C   0  0  0  0  0  0  0  0  0  1  0  0
  -27.0014  -10.3516   19.7144 C   0  0  0  0  0  0  0  0  0  0  0  0
  -28.5398  -24.2941   19.5127 C   0  0  0  0  0  0  0  0  0  0  0  0
  -28.0601  -22.8795   19.6436 C   0  0  0  0  0  0  0  0  0  0  0  0
  -22.2675  -29.4533   21.3646 C   0  0  0  0  0  0  0  0  0  0  0  0
  -22.6715  -31.4974   18.8785 C   0  0  0  0  0  0  0  0  0  0  0  0
  -24.6662  -32.6244   16.3491 C   0  0  0  0  0  0  0  0  0  0  0  0
  -25.9354  -18.1546   20.8422 C   0  0  0  0  0  0  0  0  0  0  0  0
  -17.8670  -29.8562   23.9202 C   0  0  0  0  0  0  0  0  0  0  0  0
  -24.5075  -30.4732   21.9106 C   0  0  0  0  0  0  0  0  0  0  0  0
  -24.3484  -29.6234   19.0827 C   0  0  0  0  0  0  0  0  0  0  0  0
  -18.3097  -30.0465   22.4717 C   0  0  0  0  0  0  0  0  0  0  0  0
  -24.9731  -16.2790   23.7115 C   0  0  0  0  0  0  0  0  0  0  0  0
  -19.1352  -28.8519   22.0045 C   0  0  0  0  0  0  0  0  0  0  0  0
  -25.0079  -14.8284   23.2249 C   0  0  0  0  0  0  0  0  0  0  0  0
  -24.4727  -17.2297   22.6255 C   0  0  0  0  0  0  0  0  0  0  0  0
  -25.2168  -15.6850   20.8564 C   0  0  0  0  0  0  0  0  0  0  0  0
  -20.4114  -28.7020   22.8415 C   0  0  1  0  0  0  0  0  0  0  0  0
  -23.2153  -30.5907   21.1083 C   0  0  1  0  0  0  0  0  0  0  0  0
  -25.7757  -14.6986   21.8947 C   0  0  2  0  0  0  0  0  0  0  0  0
  -24.7088  -34.2772   14.4613 C   0  0  0  0  0  0  0  0  0  0  0  0
  -20.8403  -29.6802   17.2494 C   0  0  0  0  0  0  0  0  0  0  0  0
  -21.6698  -30.8172   15.1788 C   0  0  0  0  0  0  0  0  0  0  0  0
  -20.4479  -32.1273   16.9146 C   0  0  0  0  0  0  0  0  0  0  0  0
  -26.9932  -34.0492   17.4954 C   0  0  0  0  0  0  0  0  0  0  0  0
  -22.8070  -31.3477   17.3825 C   0  0  1  0  0  0  0  0  0  0  0  0
  -25.0539  -34.0283   15.9213 C   0  0  2  0  0  0  0  0  0  0  0  0
  -21.4595  -30.9805   16.6992 C   0  0  0  0  0  0  0  0  0  0  0  0
  -24.7094  -12.4902   21.6346 N   0  0  0  0  0  0  0  0  0  0  0  0
  -25.7738  -13.2707   21.3816 N   0  0  0  0  0  0  0  0  0  0  0  0
  -23.4491  -30.6342   19.6634 N   0  0  0  0  0  0  0  0  0  0  0  0
  -25.2493  -17.0533   21.3964 N   0  0  0  0  0  0  0  0  0  0  0  0
  -27.8933  -13.2899   20.3243 N   0  0  0  0  0  0  0  0  0  0  0  0
  -26.3905   -9.0984   19.5698 N   0  0  0  0  0  0  0  0  0  0  0  0
  -28.5553  -22.0719   18.6289 N   0  0  0  0  0  0  0  0  0  0  0  0
  -26.6663  -17.8592   19.6919 N   0  0  0  0  0  0  0  0  0  0  0  0
  -21.4060  -29.6667   22.4238 N   0  0  0  0  0  0  0  0  0  0  0  0
  -23.4028  -32.5890   16.9003 N   0  0  0  0  0  0  0  0  0  0  0  0
  -26.5184  -34.2385   16.1005 N   0  3  0  0  0  0  0  0  0  0  0  0
  -28.1426  -10.5380   19.2282 O   0  0  0  0  0  0  0  0  0  0  0  0
  -27.3201  -22.5477   20.5634 O   0  0  0  0  0  0  0  0  0  0  0  0
  -22.3133  -28.4566   20.6532 O   0  0  0  0  0  0  0  0  0  0  0  0
  -21.9094  -32.3538   19.3340 O   0  0  0  0  0  0  0  0  0  0  0  0
  -25.4082  -31.6553   16.2050 O   0  0  0  0  0  0  0  0  0  0  0  0
  -25.9009  -19.2711   21.3660 O   0  0  0  0  0  0  0  0  0  0  0  0
  -27.5168  -20.0488   19.3209 O   0  0  0  0  0  0  0  0  0  0  0  0
  -29.7712  -24.5196   18.9318 O   0  0  0  0  0  0  0  0  0  0  0  0
  -21.5156   -6.9943   21.2558 O   0  0  0  0  0  0  0  0  0  0  0  0
  -28.1153  -26.6054   19.8821 O   0  0  0  0  0  0  0  0  0  1  0  0
  -23.6149   -2.0417   22.4678 F   0  0  0  0  0  0  0  0  0  0  0  0
  -20.6527   -5.5930   23.4772 F   0  0  0  0  0  0  0  0  0  0  0  0
  -29.5618  -20.0972   16.4391 F   0  0  0  0  0  0  0  0  0  0  0  0
  1  2  1  0  0  0  0
  1  5  2  0  0  0  0
  2  6  2  0  0  0  0
  3  8  2  0  0  0  0
  3 16  1  0  0  0  0
  4  9  1  0  0  0  0
  4 16  2  0  0  0  0
  5 18  1  0  0  0  0
  6 20  1  0  0  0  0
  7 10  2  0  0  0  0
  7 19  1  0  0  0  0
  8 22  1  0  0  0  0
  9 22  2  0  0  0  0
 10 23  1  0  0  0  0
 11 12  2  0  0  0  0
 11 24  1  0  0  0  0
 12 25  1  0  0  0  0
 13 21  1  0  0  0  0
 13 23  2  0  0  0  0
 14 25  2  0  0  0  0
 14 26  1  0  0  0  0
 15 27  1  0  0  0  0
 15 30  2  0  0  0  0
 16 28  1  0  0  0  0
 17 28  1  0  0  0  0
 17 29  2  0  0  0  0
 17 33  1  0  0  0  0
 18 20  2  0  0  0  0
 18 40  1  0  0  0  0
 19 21  2  0  0  0  0
 19 41  1  0  0  0  0
 20 49  1  0  0  0  0
 21 42  1  0  0  0  0
 22 79  1  0  0  0  0
 23 80  1  0  0  0  0
 24 26  2  0  0  0  0
 24 79  1  0  0  0  0
 25 81  1  0  0  0  0
 26 82  1  0  0  0  0
 27 31  2  0  0  0  0
 27 83  1  0  0  0  0
 28 60  2  0  0  0  0
 29 61  1  0  0  0  0
 29 64  1  0  0  0  0
 30 67  1  0  0  0  0
 30 77  1  0  0  0  0
 31 66  1  0  0  0  0
 31 77  1  0  0  0  0
 32 34  2  0  0  0  0
 32 80  1  0  0  0  0
 33 65  1  0  0  0  0
 33 71  2  0  0  0  0
 34 35  1  0  0  0  0
 34 78  1  0  0  0  0
 35 66  1  0  0  0  0
 35 72  2  0  0  0  0
 36 50  1  0  0  0  0
 36 68  1  0  0  0  0
 36 73  2  0  0  0  0
 37 57  1  0  0  0  0
 37 62  1  0  0  0  0
 37 74  2  0  0  0  0
 38 58  1  0  0  0  0
 38 69  1  0  0  0  0
 38 75  2  0  0  0  0
 39 63  1  0  0  0  0
 39 67  1  0  0  0  0
 39 76  2  0  0  0  0
 40 43  1  0  0  0  0
 41 50  1  0  0  0  0
 42 62  1  0  0  0  0
 43 45  1  0  0  0  0
 44 46  1  0  0  0  0
 44 47  1  0  0  0  0
 45 49  1  0  0  0  0
 46 51  1  0  0  0  0
 47 63  1  0  0  0  0
 48 51  1  0  0  0  0
 48 63  1  0  0  0  0
 49 68  1  0  0  0  0
 50 62  1  0  0  0  0
 51 61  1  0  0  0  0
 52 58  1  0  0  0  0
 53 59  1  0  0  0  0
 54 59  1  0  0  0  0
 55 59  1  0  0  0  0
 56 70  1  0  0  0  0
 57 59  1  0  0  0  0
 57 69  1  0  0  0  0
 58 70  1  0  0  0  0
 60 61  1  0  0  0  0
M  CHG  1  70   1
M  ISO  4  32 101  39 100  67 100  80 101
M  END
> <Batch ID>
0170

> <Smiles>
CNC(C)C(=O)NC(C(=O)N1Cc2cc([101O:1][101CH2:1]C(=O)C(=O)Nc3oc([100NH:0][100C:0](=O)N4CCCC(n5nc(-c6ccc(Oc7ccc(F)cc7F)cc6)c(C(N)=O)c5N)C4)cc3F)ccc2CC1C(=O)NC1CCCc2ccccc21)C(C)(C)C

> <Shape>
0.256

> <Color>
0.111

> <Negative vol penalty>
0.000

$$$$

  -OEChem-04052304203D

 87 95  0     1  0  0  0  0  0999 V2000
  -17.3586  -29.5320   25.0322 C   0  0  0  0  0  0  0  0  0  0  0  0
  -18.6415  -29.0596   25.2898 C   0  0  0  0  0  0  0  0  0  0  0  0
  -24.1196   -9.6774   22.2223 C   0  0  0  0  0  0  0  0  0  0  0  0
  -23.2133  -10.3233   20.0779 C   0  0  0  0  0  0  0  0  0  0  0  0
  -16.9052  -29.6334   23.7176 C   0  0  0  0  0  0  0  0  0  0  0  0
  -19.4714  -28.6872   24.2329 C   0  0  0  0  0  0  0  0  0  0  0  0
  -26.3757  -28.5812   22.3259 C   0  0  0  0  0  0  0  0  0  0  0  0
  -29.4552  -18.9241   16.7567 C   0  0  0  0  0  0  0  0  0  0  0  0
  -23.1948   -8.6362   22.2996 C   0  0  0  0  0  0  0  0  0  0  0  0
  -22.2884   -9.2821   20.1552 C   0  0  0  0  0  0  0  0  0  0  0  0
  -27.3457  -27.7052   21.8407 C   0  0  0  0  0  0  0  0  0  0  0  0
  -22.8273   -5.5303   21.0146 C   0  0  0  0  0  0  0  0  0  0  0  0
  -23.2912   -4.2803   21.4242 C   0  0  0  0  0  0  0  0  0  0  0  0
  -28.5908  -18.1452   17.5179 C   0  0  0  0  0  0  0  0  0  0  0  0
  -26.4839  -27.9979   19.6067 C   0  0  0  0  0  0  0  0  0  0  0  0
  -21.7738   -4.3330   23.3035 C   0  0  0  0  0  0  0  0  0  0  0  0
  -24.1289  -10.5211   21.1114 C   0  0  0  0  0  0  0  0  0  0  0  0
  -26.3742  -11.5486   20.4709 C   0  0  0  0  0  0  0  0  0  0  0  0
  -17.7334  -29.2712   22.6436 C   0  0  0  0  0  0  0  0  0  0  0  0
  -25.4440  -29.1646   21.4552 C   0  0  0  0  0  0  0  0  0  0  0  0
  -19.0282  -28.7825   22.9028 C   0  0  0  0  0  0  0  0  0  0  0  0
  -25.5047  -28.8829   20.0830 C   0  0  0  0  0  0  0  0  0  0  0  0
  -29.6234  -20.2695   17.0645 C   0  0  0  0  0  0  0  0  0  0  0  0
  -22.2791   -8.4385   21.2661 C   0  0  0  0  0  0  0  0  0  0  0  0
  -27.3982  -27.4112   20.4813 C   0  0  0  0  0  0  0  0  0  0  0  0
  -21.8367   -6.1817   21.7495 C   0  0  0  0  0  0  0  0  0  0  0  0
  -22.7645   -3.6816   22.5686 C   0  0  0  0  0  0  0  0  0  0  0  0
  -21.3100   -5.5831   22.8939 C   0  0  0  0  0  0  0  0  0  0  0  0
  -25.0837  -11.5972   21.0313 C   0  0  0  0  0  0  0  0  0  0  0  0
  -27.9234  -18.7547   18.5681 C   0  0  0  0  0  0  0  0  0  0  0  0
  -28.9096  -20.7839   18.1349 C   0  0  0  0  0  0  0  0  0  0  0  0
  -26.8709  -12.8177   20.6423 C   0  0  0  0  0  0  0  0  0  0  0  0
  -28.0386  -25.2249   19.9515 C   0  0  0  0  0  0  0  0  0  1  0  0
  -27.0624  -10.4543   19.8509 C   0  0  0  0  0  0  0  0  0  0  0  0
  -28.8915  -24.2966   19.5017 C   0  0  0  0  0  0  0  0  0  0  0  0
  -28.4601  -22.8607   19.4823 C   0  0  0  0  0  0  0  0  0  0  0  0
  -22.2792  -29.0795   21.1720 C   0  0  0  0  0  0  0  0  0  0  0  0
  -22.8127  -31.3254   18.8930 C   0  0  0  0  0  0  0  0  0  0  0  0
  -24.9705  -32.7146   16.6434 C   0  0  0  0  0  0  0  0  0  0  0  0
  -26.2778  -18.3500   20.4322 C   0  0  0  0  0  0  0  0  0  0  0  0
  -17.1824  -29.3535   21.2421 C   0  0  0  0  0  0  0  0  0  0  0  0
  -24.4207  -30.1283   21.9905 C   0  0  0  0  0  0  0  0  0  0  0  0
  -24.5403  -29.4988   19.1036 C   0  0  0  0  0  0  0  0  0  0  0  0
  -18.2576  -29.2921   20.1603 C   0  0  0  0  0  0  0  0  0  0  0  0
  -25.1101  -16.7042   23.3656 C   0  0  0  0  0  0  0  0  0  0  0  0
  -19.2424  -28.1638   20.4498 C   0  0  0  0  0  0  0  0  0  0  0  0
  -25.1053  -15.2248   22.9737 C   0  0  0  0  0  0  0  0  0  0  0  0
  -24.6993  -17.6012   22.1992 C   0  0  0  0  0  0  0  0  0  0  0  0
  -25.4555  -15.9167   20.5684 C   0  0  0  0  0  0  0  0  0  0  0  0
  -19.9670  -28.3922   21.7819 C   0  0  1  0  0  0  0  0  0  0  0  0
  -23.1987  -30.2648   21.0875 C   0  0  1  0  0  0  0  0  0  0  0  0
  -25.9254  -14.9787   21.6921 C   0  0  2  0  0  0  0  0  0  0  0  0
  -25.1086  -34.5113   14.8970 C   0  0  0  0  0  0  0  0  0  0  0  0
  -21.2038  -29.5813   16.9749 C   0  0  0  0  0  0  0  0  0  0  0  0
  -22.1618  -30.9050   15.0780 C   0  0  0  0  0  0  0  0  0  0  0  0
  -20.7428  -32.0325   16.7921 C   0  0  0  0  0  0  0  0  0  0  0  0
  -27.1305  -34.1224   18.0964 C   0  0  0  0  0  0  0  0  0  0  0  0
  -23.0825  -31.2985   17.4079 C   0  0  1  0  0  0  0  0  0  0  0  0
  -25.3365  -34.1601   16.3590 C   0  0  2  0  0  0  0  0  0  0  0  0
  -30.5513  -21.1014   16.2462 C   0  0  0  0  0  0  0  0  0  0  0  0
  -21.8148  -30.9411   16.5817 C   0  0  0  0  0  0  0  0  0  0  0  0
  -24.7796  -12.8016   21.5220 N   0  0  0  0  0  0  0  0  0  0  0  0
  -28.0610  -20.0586   18.8974 N   0  0  0  0  0  0  0  0  0  0  0  0
  -25.8862  -13.5216   21.2707 N   0  0  0  0  0  0  0  0  0  0  0  0
  -23.5542  -30.4298   19.6766 N   0  0  0  0  0  0  0  0  0  0  0  0
  -25.5217  -17.3149   21.0218 N   0  0  0  0  0  0  0  0  0  0  0  0
  -28.0496  -13.3888   20.3153 N   0  0  0  0  0  0  0  0  0  0  0  0
  -26.4063   -9.2194   19.7571 N   0  0  0  0  0  0  0  0  0  0  0  0
  -29.0731  -22.1527   18.4577 N   0  0  0  0  0  0  0  0  0  0  0  0
  -27.0461  -17.9519   19.3386 N   0  0  0  0  0  0  0  0  0  0  0  0
  -21.0101  -29.3832   21.6264 N   0  0  0  0  0  0  0  0  0  0  0  0
  -23.6668  -32.5934   17.0757 N   0  0  0  0  0  0  0  0  0  0  0  0
  -26.7703  -34.4049   16.6831 N   0  3  0  0  0  0  0  0  0  0  0  0
  -28.2310  -10.5637   19.4083 O   0  0  0  0  0  0  0  0  0  0  0  0
  -27.6576  -22.4328   20.3050 O   0  0  0  0  0  0  0  0  0  0  0  0
  -22.6903  -27.9716   20.8474 O   0  0  0  0  0  0  0  0  0  0  0  0
  -21.9801  -32.1171   19.3422 O   0  0  0  0  0  0  0  0  0  0  0  0
  -25.7609  -31.7854   16.4932 O   0  0  0  0  0  0  0  0  0  0  0  0
  -26.2671  -19.4987   20.8821 O   0  0  0  0  0  0  0  0  0  0  0  0
  -30.1582  -24.6085   19.0513 O   0  0  0  0  0  0  0  0  0  0  0  0
  -21.3766   -7.4224   21.3411 O   0  0  0  0  0  0  0  0  0  0  0  0
  -28.3436  -26.5560   20.0052 O   0  0  0  0  0  0  0  0  0  1  0  0
  -23.2090   -2.4805   22.9610 F   0  0  0  0  0  0  0  0  0  0  0  0
  -20.3573   -6.2035   23.6034 F   0  0  0  0  0  0  0  0  0  0  0  0
  -31.1605  -20.4111   15.2368 F   0  0  0  0  0  0  0  0  0  0  0  0
  -29.9422  -22.1607   15.6353 F   0  0  0  0  0  0  0  0  0  0  0  0
  -31.5654  -21.6392   16.9851 F   0  0  0  0  0  0  0  0  0  0  0  0
  1  2  1  0  0  0  0
  1  5  2  0  0  0  0
  2  6  2  0  0  0  0
  3  9  2  0  0  0  0
  3 17  1  0  0  0  0
  4 10  1  0  0  0  0
  4 17  2  0  0  0  0
  5 19  1  0  0  0  0
  6 21  1  0  0  0  0
  7 11  2  0  0  0  0
  7 20  1  0  0  0  0
  8 14  2  0  0  0  0
  8 23  1  0  0  0  0
  9 24  1  0  0  0  0
 10 24  2  0  0  0  0
 11 25  1  0  0  0  0
 12 13  2  0  0  0  0
 12 26  1  0  0  0  0
 13 27  1  0  0  0  0
 14 30  1  0  0  0  0
 15 22  1  0  0  0  0
 15 25  2  0  0  0  0
 16 27  2  0  0  0  0
 16 28  1  0  0  0  0
 17 29  1  0  0  0  0
 18 29  1  0  0  0  0
 18 32  2  0  0  0  0
 18 34  1  0  0  0  0
 19 21  2  0  0  0  0
 19 41  1  0  0  0  0
 20 22  2  0  0  0  0
 20 42  1  0  0  0  0
 21 50  1  0  0  0  0
 22 43  1  0  0  0  0
 23 31  2  0  0  0  0
 23 60  1  0  0  0  0
 24 81  1  0  0  0  0
 25 82  1  0  0  0  0
 26 28  2  0  0  0  0
 26 81  1  0  0  0  0
 27 83  1  0  0  0  0
 28 84  1  0  0  0  0
 29 62  2  0  0  0  0
 30 63  2  0  0  0  0
 30 70  1  0  0  0  0
 31 63  1  0  0  0  0
 31 69  1  0  0  0  0
 32 64  1  0  0  0  0
 32 67  1  0  0  0  0
 33 35  2  0  0  0  0
 33 82  1  0  0  0  0
 34 68  1  0  0  0  0
 34 74  2  0  0  0  0
 35 36  1  0  0  0  0
 35 80  1  0  0  0  0
 36 69  1  0  0  0  0
 36 75  2  0  0  0  0
 37 51  1  0  0  0  0
 37 71  1  0  0  0  0
 37 76  2  0  0  0  0
 38 58  1  0  0  0  0
 38 65  1  0  0  0  0
 38 77  2  0  0  0  0
 39 59  1  0  0  0  0
 39 72  1  0  0  0  0
 39 78  2  0  0  0  0
 40 66  1  0  0  0  0
 40 70  1  0  0  0  0
 40 79  2  0  0  0  0
 41 44  1  0  0  0  0
 42 51  1  0  0  0  0
 43 65  1  0  0  0  0
 44 46  1  0  0  0  0
 45 47  1  0  0  0  0
 45 48  1  0  0  0  0
 46 50  1  0  0  0  0
 47 52  1  0  0  0  0
 48 66  1  0  0  0  0
 49 52  1  0  0  0  0
 49 66  1  0  0  0  0
 50 71  1  0  0  0  0
 51 65  1  0  0  0  0
 52 64  1  0  0  0  0
 53 59  1  0  0  0  0
 54 61  1  0  0  0  0
 55 61  1  0  0  0  0
 56 61  1  0  0  0  0
 57 73  1  0  0  0  0
 58 61  1  0  0  0  0
 58 72  1  0  0  0  0
 59 73  1  0  0  0  0
 60 85  1  0  0  0  0
 60 86  1  0  0  0  0
 60 87  1  0  0  0  0
 62 64  1  0  0  0  0
M  CHG  1  73   1
M  ISO  4  33 101  40 100  70 100  82 101
M  END
> <Batch ID>
0170

> <Smiles>
CNC(C)C(=O)NC(C(=O)N1Cc2cc([101O:1][101CH2:1]C(=O)C(=O)Nc3nc([100NH:0][100C:0](=O)N4CCCC(n5nc(-c6ccc(Oc7ccc(F)cc7F)cc6)c(C(N)=O)c5N)C4)ccc3C(F)(F)F)ccc2CC1C(=O)NC1CCCc2ccccc21)C(C)(C)C

> <Shape>
0.269

> <Color>
0.109

> <Negative vol penalty>
0.000

$$$$

  -OEChem-04052304203D

 86 94  0     1  0  0  0  0  0999 V2000
  -27.1366  -37.7221   19.4116 C   0  0  0  0  0  0  0  0  0  0  0  0
  -27.7154  -36.4593   19.3348 C   0  0  0  0  0  0  0  0  0  0  0  0
  -23.5162   -6.6563   23.3492 C   0  0  0  0  0  0  0  0  0  0  0  0
  -21.1980   -7.2224   22.9721 C   0  0  0  0  0  0  0  0  0  0  0  0
  -26.8072  -18.6542   20.7401 C   0  0  0  0  0  0  0  0  0  0  0  0
  -26.1393  -37.9745   20.3527 C   0  0  0  0  0  0  0  0  0  0  0  0
  -27.2981  -35.4485   20.2000 C   0  0  0  0  0  0  0  0  0  0  0  0
  -26.8988  -29.4663   18.9516 C   0  0  0  0  0  0  0  0  0  0  0  0
  -27.1117  -20.0130   20.8199 C   0  0  0  0  0  0  0  0  0  0  0  0
  -23.1252   -5.6167   24.1929 C   0  0  0  0  0  0  0  0  0  0  0  0
  -20.8069   -6.1827   23.8157 C   0  0  0  0  0  0  0  0  0  0  0  0
  -27.7495  -28.3940   19.2164 C   0  0  0  0  0  0  0  0  0  0  0  0
  -21.9399   -2.4656   23.8788 C   0  0  0  0  0  0  0  0  0  0  0  0
  -22.5725   -1.2321   23.7238 C   0  0  0  0  0  0  0  0  0  0  0  0
  -26.4747  -27.8799   21.1988 C   0  0  0  0  0  0  0  0  0  0  0  0
  -23.3607   -1.3498   26.0046 C   0  0  0  0  0  0  0  0  0  0  0  0
  -22.5526   -7.4592   22.7388 C   0  0  0  0  0  0  0  0  0  0  0  0
  -27.7787  -17.7452   20.3211 C   0  0  0  0  0  0  0  0  0  0  0  0
  -23.1658   -8.4675   20.4771 C   0  0  0  0  0  0  0  0  0  0  0  0
  -25.7028  -36.9635   21.2234 C   0  0  0  0  0  0  0  0  0  0  0  0
  -25.8343  -29.7606   19.8157 C   0  0  0  0  0  0  0  0  0  0  0  0
  -26.2950  -35.6880   21.1545 C   0  0  0  0  0  0  0  0  0  0  0  0
  -25.6104  -28.9549   20.9413 C   0  0  0  0  0  0  0  0  0  0  0  0
  -28.3877  -20.4629   20.4806 C   0  0  0  0  0  0  0  0  0  0  0  0
  -29.0547  -18.1951   19.9817 C   0  0  0  0  0  0  0  0  0  0  0  0
  -21.7705   -5.3799   24.4261 C   0  0  0  0  0  0  0  0  0  0  0  0
  -27.5393  -27.6024   20.3417 C   0  0  0  0  0  0  0  0  0  0  0  0
  -22.0178   -3.1412   25.0966 C   0  0  0  0  0  0  0  0  0  0  0  0
  -23.2829   -0.6742   24.7867 C   0  0  0  0  0  0  0  0  0  0  0  0
  -22.7281   -2.5833   26.1595 C   0  0  0  0  0  0  0  0  0  0  0  0
  -29.3592  -19.5540   20.0615 C   0  0  0  0  0  0  0  0  0  0  0  0
  -22.9560   -8.5337   21.8676 C   0  0  0  0  0  0  0  0  0  0  0  0
  -23.5337   -9.7429   20.1243 C   0  0  0  0  0  0  0  0  0  0  0  0
  -27.4232  -16.3330   20.2503 C   0  0  0  0  0  0  0  0  0  0  0  0
  -26.9856  -15.5863   21.2838 C   0  0  0  0  0  0  0  0  0  0  0  0
  -27.8245  -25.3034   20.6643 C   0  0  0  0  0  0  0  0  0  1  0  0
  -23.0393   -7.3528   19.5843 C   0  0  0  0  0  0  0  0  0  0  0  0
  -28.5457  -24.2038   20.9141 C   0  0  0  0  0  0  0  0  0  0  0  0
  -26.6553  -14.1662   21.0493 C   0  0  0  0  0  0  0  0  0  0  0  0
  -27.8535  -22.8745   20.9595 C   0  0  0  0  0  0  0  0  0  0  0  0
  -25.0411  -32.2453   21.6325 C   0  0  0  0  0  0  0  0  0  0  0  0
  -22.3285  -30.5323   22.1117 C   0  0  0  0  0  0  0  0  0  0  0  0
  -20.7928  -27.4847   22.1361 C   0  0  0  0  0  0  0  0  0  0  0  0
  -24.6551  -37.2970   22.2557 C   0  0  0  0  0  0  0  0  0  0  0  0
  -24.9096  -30.9045   19.5015 C   0  0  0  0  0  0  0  0  0  0  0  0
  -24.4697  -29.2165   21.8894 C   0  0  0  0  0  0  0  0  0  0  0  0
  -24.0064  -36.0667   22.8847 C   0  0  0  0  0  0  0  0  0  0  0  0
  -23.3973  -14.0615   22.7246 C   0  0  0  0  0  0  0  0  0  0  0  0
  -25.0692  -35.0479   23.2837 C   0  0  0  0  0  0  0  0  0  0  0  0
  -23.0363  -12.5862   22.5728 C   0  0  0  0  0  0  0  0  0  0  0  0
  -24.9010  -14.2670   22.9010 C   0  0  0  0  0  0  0  0  0  0  0  0
  -25.3576  -12.1653   21.6702 C   0  0  0  0  0  0  0  0  0  0  0  0
  -25.8518  -34.5587   22.0591 C   0  0  1  0  0  0  0  0  0  0  0  0
  -24.1657  -31.4255   20.7274 C   0  0  1  0  0  0  0  0  0  0  0  0
  -23.8546  -11.9390   21.4443 C   0  0  1  0  0  0  0  0  0  0  0  0
  -18.5801  -26.3975   22.6046 C   0  0  0  0  0  0  0  0  0  0  0  0
  -22.8214  -30.8262   25.1085 C   0  0  0  0  0  0  0  0  0  0  0  0
  -21.1800  -28.9744   25.4894 C   0  0  0  0  0  0  0  0  0  0  0  0
  -20.4347  -31.0974   24.4123 C   0  0  0  0  0  0  0  0  0  0  0  0
  -20.5698  -26.4764   19.3626 C   0  0  0  0  0  0  0  0  0  0  0  0
  -21.8852  -29.4887   23.1083 C   0  0  1  0  0  0  0  0  0  0  0  0
  -19.4768  -27.0152   21.5429 C   0  0  2  0  0  0  0  0  0  0  0  0
  -21.6031  -30.0927   24.5130 C   0  0  0  0  0  0  0  0  0  0  0  0
  -23.1728   -9.7545   22.3643 N   0  0  0  0  0  0  0  0  0  0  0  0
  -23.5227  -10.4671   21.2799 N   0  0  0  0  0  0  0  0  0  0  0  0
  -25.6647  -13.5896   21.8424 N   0  0  0  0  0  0  0  0  0  0  0  0
  -23.5969  -30.3503   21.5426 N   0  0  0  0  0  0  0  0  0  0  0  0
  -30.0560  -17.2935   19.5541 N   0  0  0  0  0  0  0  0  0  0  0  0
  -23.8624  -10.3042   18.9414 N   0  0  0  0  0  0  0  0  0  0  0  0
  -22.6516   -6.1140   20.1128 N   0  0  0  0  0  0  0  0  0  0  0  0
  -28.6933  -21.8429   20.5630 N   0  0  0  0  0  0  0  0  0  0  0  0
  -25.0743  -33.5901   21.3163 N   0  0  0  0  0  0  0  0  0  0  0  0
  -20.7408  -28.8114   22.5083 N   0  0  0  0  0  0  0  0  0  0  0  0
  -19.7206  -25.9963   20.4830 N   0  3  0  0  0  0  0  0  0  0  0  0
  -23.2794   -7.4485   18.3568 O   0  0  0  0  0  0  0  0  0  0  0  0
  -27.2810  -13.5749   20.1675 O   0  0  0  0  0  0  0  0  0  0  0  0
  -26.6832  -22.7854   21.3149 O   0  0  0  0  0  0  0  0  0  0  0  0
  -25.6409  -31.6985   22.5506 O   0  0  0  0  0  0  0  0  0  0  0  0
  -21.5742  -31.4705   21.8425 O   0  0  0  0  0  0  0  0  0  0  0  0
  -21.7681  -26.7473   22.2606 O   0  0  0  0  0  0  0  0  0  0  0  0
  -29.9080  -24.2433   21.1316 O   0  0  0  0  0  0  0  0  0  0  0  0
  -21.3885   -4.3653   25.2492 O   0  0  0  0  0  0  0  0  0  0  0  0
  -28.3687  -26.5555   20.6029 O   0  0  0  0  0  0  0  0  0  1  0  0
  -23.8890    0.5110   24.6382 F   0  0  0  0  0  0  0  0  0  0  0  0
  -22.8054   -3.2271   27.3323 F   0  0  0  0  0  0  0  0  0  0  0  0
  -30.5865  -19.9878   19.7353 F   0  0  0  0  0  0  0  0  0  0  0  0
  1  2  1  0  0  0  0
  1  6  2  0  0  0  0
  2  7  2  0  0  0  0
  3 10  2  0  0  0  0
  3 17  1  0  0  0  0
  4 11  1  0  0  0  0
  4 17  2  0  0  0  0
  5  9  2  0  0  0  0
  5 18  1  0  0  0  0
  6 20  1  0  0  0  0
  7 22  1  0  0  0  0
  8 12  2  0  0  0  0
  8 21  1  0  0  0  0
  9 24  1  0  0  0  0
 10 26  1  0  0  0  0
 11 26  2  0  0  0  0
 12 27  1  0  0  0  0
 13 14  2  0  0  0  0
 13 28  1  0  0  0  0
 14 29  1  0  0  0  0
 15 23  1  0  0  0  0
 15 27  2  0  0  0  0
 16 29  2  0  0  0  0
 16 30  1  0  0  0  0
 17 32  1  0  0  0  0
 18 25  2  0  0  0  0
 18 34  1  0  0  0  0
 19 32  1  0  0  0  0
 19 33  2  0  0  0  0
 19 37  1  0  0  0  0
 20 22  2  0  0  0  0
 20 44  1  0  0  0  0
 21 23  2  0  0  0  0
 21 45  1  0  0  0  0
 22 53  1  0  0  0  0
 23 46  1  0  0  0  0
 24 31  2  0  0  0  0
 24 71  1  0  0  0  0
 25 31  1  0  0  0  0
 25 68  1  0  0  0  0
 26 82  1  0  0  0  0
 27 83  1  0  0  0  0
 28 30  2  0  0  0  0
 28 82  1  0  0  0  0
 29 84  1  0  0  0  0
 30 85  1  0  0  0  0
 31 86  1  0  0  0  0
 32 64  2  0  0  0  0
 33 65  1  0  0  0  0
 33 69  1  0  0  0  0
 34 35  2  0  0  0  0
 35 39  1  0  0  0  0
 36 38  2  0  0  0  0
 36 83  1  0  0  0  0
 37 70  1  0  0  0  0
 37 75  2  0  0  0  0
 38 40  1  0  0  0  0
 38 81  1  0  0  0  0
 39 66  1  0  0  0  0
 39 76  2  0  0  0  0
 40 71  1  0  0  0  0
 40 77  2  0  0  0  0
 41 54  1  0  0  0  0
 41 72  1  0  0  0  0
 41 78  2  0  0  0  0
 42 61  1  0  0  0  0
 42 67  1  0  0  0  0
 42 79  2  0  0  0  0
 43 62  1  0  0  0  0
 43 73  1  0  0  0  0
 43 80  2  0  0  0  0
 44 47  1  0  0  0  0
 45 54  1  0  0  0  0
 46 67  1  0  0  0  0
 47 49  1  0  0  0  0
 48 50  1  0  0  0  0
 48 51  1  0  0  0  0
 49 53  1  0  0  0  0
 50 55  1  0  0  0  0
 51 66  1  0  0  0  0
 52 55  1  0  0  0  0
 52 66  1  0  0  0  0
 53 72  1  0  0  0  0
 54 67  1  0  0  0  0
 55 65  1  0  0  0  0
 56 62  1  0  0  0  0
 57 63  1  0  0  0  0
 58 63  1  0  0  0  0
 59 63  1  0  0  0  0
 60 74  1  0  0  0  0
 61 63  1  0  0  0  0
 61 73  1  0  0  0  0
 62 74  1  0  0  0  0
 64 65  1  0  0  0  0
M  CHG  1  74   1
M  ISO  4  35 100  36 101  39 100  83 101
M  END
> <Batch ID>
0170

> <Smiles>
CNC(C)C(=O)NC(C(=O)N1Cc2cc([101O:1][101CH2:1]C(=O)C(=O)Nc3ccc(C=[100CH:0][100C:0](=O)N4CCCC(n5nc(-c6ccc(Oc7ccc(F)cc7F)cc6)c(C(N)=O)c5N)C4)c(N)c3F)ccc2CC1C(=O)NC1CCCc2ccccc21)C(C)(C)C

> <Shape>
0.309

> <Color>
0.084

> <Negative vol penalty>
0.000

$$$$

  -OEChem-04052304203D

 86 94  0     1  0  0  0  0  0999 V2000
  -19.1343  -26.5508   26.3010 C   0  0  0  0  0  0  0  0  0  0  0  0
  -20.3090  -26.0230   25.7747 C   0  0  0  0  0  0  0  0  0  0  0  0
  -22.9938   -9.8782   20.0372 C   0  0  0  0  0  0  0  0  0  0  0  0
  -23.6007  -10.1214   22.3630 C   0  0  0  0  0  0  0  0  0  0  0  0
  -18.3386  -27.3904   25.5227 C   0  0  0  0  0  0  0  0  0  0  0  0
  -20.6881  -26.3337   24.4693 C   0  0  0  0  0  0  0  0  0  0  0  0
  -25.6031  -27.4958   24.0981 C   0  0  0  0  0  0  0  0  0  0  0  0
  -22.2004   -8.7772   20.3593 C   0  0  0  0  0  0  0  0  0  0  0  0
  -22.8072   -9.0203   22.6852 C   0  0  0  0  0  0  0  0  0  0  0  0
  -26.5098  -26.4367   24.1017 C   0  0  0  0  0  0  0  0  0  0  0  0
  -23.0332   -5.6513   22.5139 C   0  0  0  0  0  0  0  0  0  0  0  0
  -23.5686   -4.6978   23.3798 C   0  0  0  0  0  0  0  0  0  0  0  0
  -26.6746  -26.5777   21.6991 C   0  0  0  0  0  0  0  0  0  0  0  0
  -21.7644   -5.0981   24.9361 C   0  0  0  0  0  0  0  0  0  0  0  0
  -31.8536  -17.3473   21.4694 C   0  0  0  0  0  0  0  0  0  0  0  0
  -23.6940  -10.5503   21.0391 C   0  0  0  0  0  0  0  0  0  0  0  0
  -24.1195  -13.0382   20.6689 C   0  0  0  0  0  0  0  0  0  0  0  0
  -18.7131  -27.7193   24.2103 C   0  0  0  0  0  0  0  0  0  0  0  0
  -25.2163  -28.0976   22.8920 C   0  0  0  0  0  0  0  0  0  0  0  0
  -19.8960  -27.1775   23.6722 C   0  0  0  0  0  0  0  0  0  0  0  0
  -25.7648  -27.6459   21.6832 C   0  0  0  0  0  0  0  0  0  0  0  0
  -30.5668  -16.9488   21.7572 C   0  0  0  0  0  0  0  0  0  0  0  0
  -22.1070   -8.3483   21.6833 C   0  0  0  0  0  0  0  0  0  0  0  0
  -27.0435  -25.9756   22.9018 C   0  0  0  0  0  0  0  0  0  0  0  0
  -21.8634   -6.3283   22.8591 C   0  0  0  0  0  0  0  0  0  0  0  0
  -22.9342   -4.4212   24.5909 C   0  0  0  0  0  0  0  0  0  0  0  0
  -21.2290   -6.0516   24.0701 C   0  0  0  0  0  0  0  0  0  0  0  0
  -29.8330  -17.9613   22.4403 C   0  0  0  0  0  0  0  0  0  0  0  0
  -24.5142  -11.6874   20.7069 C   0  0  0  0  0  0  0  0  0  0  0  0
  -30.5872  -19.0952   22.6487 C   0  0  0  0  0  0  0  0  0  0  0  0
  -25.2555  -13.7176   20.3023 C   0  0  0  0  0  0  0  0  0  0  0  0
  -22.8405  -13.6262   20.9407 C   0  0  0  0  0  0  0  0  0  0  0  0
  -30.0929  -20.3079   23.3310 C   0  0  0  0  0  0  0  0  0  0  0  0
  -22.4660  -28.4364   21.3349 C   0  0  0  0  0  0  0  0  0  0  0  0
  -28.2917  -22.6166   23.4732 C   0  0  0  0  0  0  0  0  0  0  0  0
  -24.2580  -30.2889   19.3653 C   0  0  0  0  0  0  0  0  0  0  0  0
  -27.3445  -31.0691   18.1358 C   0  0  0  0  0  0  0  0  0  0  0  0
  -30.7275  -14.6506   20.7381 C   0  0  0  0  0  0  0  0  0  0  0  0
  -17.7965  -28.5931   23.3913 C   0  0  0  0  0  0  0  0  0  0  0  0
  -24.2577  -29.2566   22.9076 C   0  0  0  0  0  0  0  0  0  0  0  0
  -25.3977  -28.2712   20.3631 C   0  0  0  0  0  0  0  0  0  0  0  0
  -18.4608  -29.1734   22.1454 C   0  0  0  0  0  0  0  0  0  0  0  0
  -29.6989  -12.0156   18.5756 C   0  0  0  0  0  0  0  0  0  0  0  0
  -19.2321  -28.0902   21.3980 C   0  0  0  0  0  0  0  0  0  0  0  0
  -28.2259  -11.8065   18.9342 C   0  0  0  0  0  0  0  0  0  0  0  0
  -30.5393  -12.3550   19.8054 C   0  0  0  0  0  0  0  0  0  0  0  0
  -28.5683  -13.2714   20.9649 C   0  0  0  0  0  0  0  0  0  0  0  0
  -20.3536  -27.5110   22.2688 C   0  0  1  0  0  0  0  0  0  0  0  0
  -23.5416  -29.4576   21.5756 C   0  0  1  0  0  0  0  0  0  0  0  0
  -27.6705  -12.9912   19.7488 C   0  0  2  0  0  0  0  0  0  0  0  0
  -28.4878  -32.6021   16.5110 C   0  0  0  0  0  0  0  0  0  0  0  0
  -29.0514  -21.7221   25.7238 C   0  0  0  0  0  0  0  0  0  0  0  0
  -26.7842  -21.1003   24.7981 C   0  0  0  0  0  0  0  0  0  0  0  0
  -23.2562  -28.5757   17.0477 C   0  0  0  0  0  0  0  0  0  0  0  0
  -25.1112  -29.5076   15.6483 C   0  0  0  0  0  0  0  0  0  0  0  0
  -23.3582  -31.0273   16.5647 C   0  0  0  0  0  0  0  0  0  0  0  0
  -28.9659  -32.3162   20.2747 C   0  0  0  0  0  0  0  0  0  0  0  0
  -27.7959  -23.9742   23.9431 C   0  0  0  0  0  0  0  0  0  1  0  0
  -25.0856  -30.0435   18.1268 C   0  0  1  0  0  0  0  0  0  0  0  0
  -28.0487  -32.4015   17.9530 C   0  0  2  0  0  0  0  0  0  0  0  0
  -28.2283  -21.4585   24.4695 C   0  0  0  0  0  0  0  0  0  0  0  0
  -24.2085  -29.7753   16.8714 C   0  0  0  0  0  0  0  0  0  0  0  0
  -25.8004  -11.5169   20.3896 N   0  0  0  0  0  0  0  0  0  0  0  0
  -26.2238  -12.7694   20.1487 N   0  0  0  0  0  0  0  0  0  0  0  0
  -24.4516  -29.3973   20.4299 N   0  0  0  0  0  0  0  0  0  0  0  0
  -29.9553  -13.4891   20.5247 N   0  0  0  0  0  0  0  0  0  0  0  0
  -25.5106  -15.0277   20.0995 N   0  0  0  0  0  0  0  0  0  0  0  0
  -21.7814  -12.7834   21.3044 N   0  0  0  0  0  0  0  0  0  0  0  0
  -30.9290  -21.3372   23.4668 N   0  0  0  0  0  0  0  0  0  0  0  0
  -30.0559  -15.6751   21.4044 N   0  0  0  0  0  0  0  0  0  0  0  0
  -21.4829  -28.4153   22.3058 N   0  0  0  0  0  0  0  0  0  0  0  0
  -25.9779  -31.1906   17.9983 N   0  0  0  0  0  0  0  0  0  0  0  0
  -28.8350  -20.3105   23.7789 N   0  3  0  0  0  0  0  0  0  0  0  0
  -29.2543  -32.4742   18.8260 N   0  3  0  0  0  0  0  0  0  0  0  0
  -22.6384  -14.8607   20.8474 O   0  0  0  0  0  0  0  0  0  0  0  0
  -22.5230  -27.7216   20.3412 O   0  0  0  0  0  0  0  0  0  0  0  0
  -28.7041  -22.4599   22.3219 O   0  0  0  0  0  0  0  0  0  0  0  0
  -23.4740  -31.2409   19.3899 O   0  0  0  0  0  0  0  0  0  0  0  0
  -27.9469  -30.0244   18.3729 O   0  0  0  0  0  0  0  0  0  0  0  0
  -31.8896  -14.7406   20.3338 O   0  0  0  0  0  0  0  0  0  0  0  0
  -21.3327   -7.2740   21.9980 O   0  0  0  0  0  0  0  0  0  0  0  0
  -27.9282  -24.9416   22.9024 O   0  0  0  0  0  0  0  0  0  1  0  0
  -23.4476   -3.5044   25.4216 F   0  0  0  0  0  0  0  0  0  0  0  0
  -20.1044   -6.6979   24.4067 F   0  0  0  0  0  0  0  0  0  0  0  0
  -28.5638  -17.8258   22.8319 F   0  0  0  0  0  0  0  0  0  0  0  0
  -32.1728  -18.9364   22.0219 S   0  0  0  0  0  0  0  0  0  0  0  0
  1  2  1  0  0  0  0
  1  5  2  0  0  0  0
  2  6  2  0  0  0  0
  3  8  2  0  0  0  0
  3 16  1  0  0  0  0
  4  9  1  0  0  0  0
  4 16  2  0  0  0  0
  5 18  1  0  0  0  0
  6 20  1  0  0  0  0
  7 10  2  0  0  0  0
  7 19  1  0  0  0  0
  8 23  1  0  0  0  0
  9 23  2  0  0  0  0
 10 24  1  0  0  0  0
 11 12  2  0  0  0  0
 11 25  1  0  0  0  0
 12 26  1  0  0  0  0
 13 21  1  0  0  0  0
 13 24  2  0  0  0  0
 14 26  2  0  0  0  0
 14 27  1  0  0  0  0
 15 22  2  0  0  0  0
 15 86  1  0  0  0  0
 16 29  1  0  0  0  0
 17 29  1  0  0  0  0
 17 31  2  0  0  0  0
 17 32  1  0  0  0  0
 18 20  2  0  0  0  0
 18 39  1  0  0  0  0
 19 21  2  0  0  0  0
 19 40  1  0  0  0  0
 20 48  1  0  0  0  0
 21 41  1  0  0  0  0
 22 28  1  0  0  0  0
 22 70  1  0  0  0  0
 23 81  1  0  0  0  0
 24 82  1  0  0  0  0
 25 27  2  0  0  0  0
 25 81  1  0  0  0  0
 26 83  1  0  0  0  0
 27 84  1  0  0  0  0
 28 30  2  0  0  0  0
 28 85  1  0  0  0  0
 29 63  2  0  0  0  0
 30 33  1  0  0  0  0
 30 86  1  0  0  0  0
 31 64  1  0  0  0  0
 31 67  1  0  0  0  0
 32 68  1  0  0  0  0
 32 75  2  0  0  0  0
 33 69  1  0  0  0  0
 33 73  2  0  0  0  0
 34 49  1  0  0  0  0
 34 71  1  0  0  0  0
 34 76  2  0  0  0  0
 35 58  1  0  0  0  0
 35 61  1  0  0  0  0
 35 77  2  0  0  0  0
 36 59  1  0  0  0  0
 36 65  1  0  0  0  0
 36 78  2  0  0  0  0
 37 60  1  0  0  0  0
 37 72  1  0  0  0  0
 37 79  2  0  0  0  0
 38 66  1  0  0  0  0
 38 70  1  0  0  0  0
 38 80  2  0  0  0  0
 39 42  1  0  0  0  0
 40 49  1  0  0  0  0
 41 65  1  0  0  0  0
 42 44  1  0  0  0  0
 43 45  1  0  0  0  0
 43 46  1  0  0  0  0
 44 48  1  0  0  0  0
 45 50  1  0  0  0  0
 46 66  1  0  0  0  0
 47 50  1  0  0  0  0
 47 66  1  0  0  0  0
 48 71  1  0  0  0  0
 49 65  1  0  0  0  0
 50 64  1  0  0  0  0
 51 60  1  0  0  0  0
 52 61  1  0  0  0  0
 53 61  1  0  0  0  0
 54 62  1  0  0  0  0
 55 62  1  0  0  0  0
 56 62  1  0  0  0  0
 57 74  1  0  0  0  0
 58 82  1  0  0  0  0
 59 62  1  0  0  0  0
 59 72  1  0  0  0  0
 60 74  1  0  0  0  0
 61 73  1  0  0  0  0
 63 64  1  0  0  0  0
M  CHG  2  73   1  74   1
M  ISO  4  38 100  58 101  70 100  82 101
M  END
> <Batch ID>
0170

> <Smiles>
CNC(C)C(=O)NC(C(=O)N1Cc2cc([101O:1][101CH2:1]C(=O)C(C)(C)NC(=N)c3scc([100NH:0][100C:0](=O)N4CCCC(n5nc(-c6ccc(Oc7ccc(F)cc7F)cc6)c(C(N)=O)c5N)C4)c3F)ccc2CC1C(=O)NC1CCCc2ccccc21)C(C)(C)C

> <Shape>
0.274

> <Color>
0.207

> <Negative vol penalty>
0.000

$$$$

  -OEChem-04052304203D

 85 93  0     1  0  0  0  0  0999 V2000
  -27.3224  -25.3798   12.4487 C   0  0  0  0  0  0  0  0  0  0  0  0
  -27.2150  -24.8637   13.7361 C   0  0  0  0  0  0  0  0  0  0  0  0
  -32.4238  -18.4819   21.7039 C   0  0  0  0  0  0  0  0  0  0  0  0
  -23.1138   -9.7961   21.4909 C   0  0  0  0  0  0  0  0  0  0  0  0
  -23.7853  -10.7960   23.5853 C   0  0  0  0  0  0  0  0  0  0  0  0
  -27.6017  -26.7330   12.2623 C   0  0  0  0  0  0  0  0  0  0  0  0
  -27.3879  -25.7005   14.8381 C   0  0  0  0  0  0  0  0  0  0  0  0
  -23.8736  -24.9620   18.4087 C   0  0  0  0  0  0  0  0  0  0  0  0
  -31.5859  -19.5593   21.9908 C   0  0  0  0  0  0  0  0  0  0  0  0
  -31.8832  -17.2810   21.2439 C   0  0  0  0  0  0  0  0  0  0  0  0
  -22.3800   -8.8344   22.1852 C   0  0  0  0  0  0  0  0  0  0  0  0
  -23.0513   -9.8343   24.2796 C   0  0  0  0  0  0  0  0  0  0  0  0
  -24.0306  -23.8513   19.2366 C   0  0  0  0  0  0  0  0  0  0  0  0
  -22.9951   -5.9699   23.8706 C   0  0  0  0  0  0  0  0  0  0  0  0
  -23.1147   -4.6426   23.4590 C   0  0  0  0  0  0  0  0  0  0  0  0
  -24.9493  -25.2710   20.9570 C   0  0  0  0  0  0  0  0  0  0  0  0
  -20.7429   -4.5699   23.0042 C   0  0  0  0  0  0  0  0  0  0  0  0
  -23.8165  -10.7769   22.1909 C   0  0  0  0  0  0  0  0  0  0  0  0
  -24.1213  -13.0236   21.0217 C   0  0  0  0  0  0  0  0  0  0  0  0
  -27.7686  -27.5887   13.3626 C   0  0  0  0  0  0  0  0  0  0  0  0
  -24.2640  -26.2361   18.8454 C   0  0  0  0  0  0  0  0  0  0  0  0
  -27.6711  -27.0662   14.6663 C   0  0  0  0  0  0  0  0  0  0  0  0
  -24.7938  -26.3966   20.1337 C   0  0  0  0  0  0  0  0  0  0  0  0
  -30.2072  -19.4361   21.8180 C   0  0  0  0  0  0  0  0  0  0  0  0
  -30.5046  -17.1577   21.0711 C   0  0  0  0  0  0  0  0  0  0  0  0
  -22.3487   -8.8535   23.5796 C   0  0  0  0  0  0  0  0  0  0  0  0
  -24.5712  -24.0052   20.5098 C   0  0  0  0  0  0  0  0  0  0  0  0
  -21.7494   -6.5973   23.8492 C   0  0  0  0  0  0  0  0  0  0  0  0
  -21.9886   -3.9426   23.0258 C   0  0  0  0  0  0  0  0  0  0  0  0
  -20.6234   -5.8973   23.4159 C   0  0  0  0  0  0  0  0  0  0  0  0
  -29.6666  -18.2352   21.3581 C   0  0  0  0  0  0  0  0  0  0  0  0
  -24.5753  -11.7703   21.4742 C   0  0  0  0  0  0  0  0  0  0  0  0
  -25.2141  -13.5826   20.4054 C   0  0  0  0  0  0  0  0  0  0  0  0
  -22.8274  -13.6285   21.1472 C   0  0  0  0  0  0  0  0  0  0  0  0
  -26.3942  -28.3855   17.8729 C   0  0  0  0  0  0  0  0  0  0  0  0
  -26.2987  -21.5575   22.5569 C   0  0  0  0  0  0  0  0  0  0  0  0
  -25.0191  -30.2145   20.1720 C   0  0  0  0  0  0  0  0  0  0  0  0
  -23.2390  -30.3588   23.0802 C   0  0  0  0  0  0  0  0  0  0  0  0
  -30.6517  -14.7732   20.2720 C   0  0  0  0  0  0  0  0  0  0  0  0
  -28.1161  -29.0347   13.1114 C   0  0  0  0  0  0  0  0  0  0  0  0
  -24.0633  -27.4281   17.9503 C   0  0  0  0  0  0  0  0  0  0  0  0
  -25.2098  -27.7460   20.6576 C   0  0  0  0  0  0  0  0  0  0  0  0
  -27.9145  -29.9303   14.3311 C   0  0  0  0  0  0  0  0  0  0  0  0
  -29.6684  -11.5509   19.1198 C   0  0  0  0  0  0  0  0  0  0  0  0
  -28.5147  -29.2818   15.5745 C   0  0  0  0  0  0  0  0  0  0  0  0
  -28.2184  -11.4238   19.5924 C   0  0  0  0  0  0  0  0  0  0  0  0
  -30.5330  -12.2948   20.1362 C   0  0  0  0  0  0  0  0  0  0  0  0
  -28.5630  -13.4758   21.0268 C   0  0  0  0  0  0  0  0  0  0  0  0
  -27.8275  -27.9470   15.8869 C   0  0  1  0  0  0  0  0  0  0  0  0
  -24.9715  -28.6014   18.3051 C   0  0  1  0  0  0  0  0  0  0  0  0
  -27.6389  -12.7906   20.0070 C   0  0  2  0  0  0  0  0  0  0  0  0
  -26.9551  -21.2454   24.9794 C   0  0  0  0  0  0  0  0  0  0  0  0
  -22.3005  -31.9940   24.7363 C   0  0  0  0  0  0  0  0  0  0  0  0
  -27.8128  -30.6546   21.3171 C   0  0  0  0  0  0  0  0  0  0  0  0
  -26.7431  -31.4591   23.4329 C   0  0  0  0  0  0  0  0  0  0  0  0
  -26.3607  -32.6907   21.2975 C   0  0  0  0  0  0  0  0  0  0  0  0
  -20.4666  -29.4522   22.5794 C   0  0  0  0  0  0  0  0  0  0  0  0
  -29.3089  -20.5972   22.1274 C   0  0  0  0  0  0  0  0  0  0  0  0
  -25.8039  -22.9596   22.2543 C   0  0  0  0  0  0  0  0  0  1  0  0
  -27.4416  -21.4461   23.5526 C   0  0  1  0  0  0  0  0  0  0  0  0
  -25.2608  -30.4409   21.6449 C   0  0  1  0  0  0  0  0  0  0  0  0
  -22.0276  -31.1816   23.4799 C   0  0  2  0  0  0  0  0  0  0  0  0
  -26.5384  -31.2855   21.9128 C   0  0  0  0  0  0  0  0  0  0  0  0
  -25.8566  -11.5458   21.1712 N   0  0  0  0  0  0  0  0  0  0  0  0
  -26.2171  -12.6657   20.5215 N   0  0  0  0  0  0  0  0  0  0  0  0
  -24.9995  -28.8800   19.7424 N   0  0  0  0  0  0  0  0  0  0  0  0
  -29.9241  -13.5820   20.4782 N   0  0  0  0  0  0  0  0  0  0  0  0
  -25.4053  -14.7641   19.7810 N   0  0  0  0  0  0  0  0  0  0  0  0
  -21.8184  -12.9163   21.8097 N   0  0  0  0  0  0  0  0  0  0  0  0
  -29.9584  -15.9370   20.6030 N   0  0  0  0  0  0  0  0  0  0  0  0
  -26.5440  -28.1743   16.5155 N   0  0  0  0  0  0  0  0  0  0  0  0
  -24.0346  -31.0279   22.1743 N   0  0  0  0  0  0  0  0  0  0  0  0
  -20.8602  -30.2924   23.7396 N   0  3  0  0  0  0  0  0  0  0  0  0
  -28.3099  -20.2948   23.1859 N   0  3  0  0  0  0  0  0  0  0  0  0
  -22.5690  -14.7598   20.6711 O   0  0  0  0  0  0  0  0  0  0  0  0
  -27.2900  -28.4103   18.7087 O   0  0  0  0  0  0  0  0  0  0  0  0
  -25.8091  -20.5690   22.0107 O   0  0  0  0  0  0  0  0  0  0  0  0
  -24.8466  -31.1856   19.4312 O   0  0  0  0  0  0  0  0  0  0  0  0
  -23.4596  -29.2363   23.5296 O   0  0  0  0  0  0  0  0  0  0  0  0
  -31.7949  -14.7633   19.8084 O   0  0  0  0  0  0  0  0  0  0  0  0
  -21.6325   -7.9153   24.2574 O   0  0  0  0  0  0  0  0  0  0  0  0
  -24.7262  -22.9226   21.3197 O   0  0  0  0  0  0  0  0  0  1  0  0
  -22.1039   -2.6684   22.6290 F   0  0  0  0  0  0  0  0  0  0  0  0
  -19.4242   -6.4950   23.3920 F   0  0  0  0  0  0  0  0  0  0  0  0
  -28.3406  -18.1180   21.1908 F   0  0  0  0  0  0  0  0  0  0  0  0
  1  2  1  0  0  0  0
  1  6  2  0  0  0  0
  2  7  2  0  0  0  0
  3  9  2  0  0  0  0
  3 10  1  0  0  0  0
  4 11  2  0  0  0  0
  4 18  1  0  0  0  0
  5 12  1  0  0  0  0
  5 18  2  0  0  0  0
  6 20  1  0  0  0  0
  7 22  1  0  0  0  0
  8 13  2  0  0  0  0
  8 21  1  0  0  0  0
  9 24  1  0  0  0  0
 10 25  2  0  0  0  0
 11 26  1  0  0  0  0
 12 26  2  0  0  0  0
 13 27  1  0  0  0  0
 14 15  2  0  0  0  0
 14 28  1  0  0  0  0
 15 29  1  0  0  0  0
 16 23  1  0  0  0  0
 16 27  2  0  0  0  0
 17 29  2  0  0  0  0
 17 30  1  0  0  0  0
 18 32  1  0  0  0  0
 19 32  1  0  0  0  0
 19 33  2  0  0  0  0
 19 34  1  0  0  0  0
 20 22  2  0  0  0  0
 20 40  1  0  0  0  0
 21 23  2  0  0  0  0
 21 41  1  0  0  0  0
 22 49  1  0  0  0  0
 23 42  1  0  0  0  0
 24 31  2  0  0  0  0
 24 58  1  0  0  0  0
 25 31  1  0  0  0  0
 25 70  1  0  0  0  0
 26 81  1  0  0  0  0
 27 82  1  0  0  0  0
 28 30  2  0  0  0  0
 28 81  1  0  0  0  0
 29 83  1  0  0  0  0
 30 84  1  0  0  0  0
 31 85  1  0  0  0  0
 32 64  2  0  0  0  0
 33 65  1  0  0  0  0
 33 68  1  0  0  0  0
 34 69  1  0  0  0  0
 34 75  2  0  0  0  0
 35 50  1  0  0  0  0
 35 71  1  0  0  0  0
 35 76  2  0  0  0  0
 36 59  1  0  0  0  0
 36 60  1  0  0  0  0
 36 77  2  0  0  0  0
 37 61  1  0  0  0  0
 37 66  1  0  0  0  0
 37 78  2  0  0  0  0
 38 62  1  0  0  0  0
 38 72  1  0  0  0  0
 38 79  2  0  0  0  0
 39 67  1  0  0  0  0
 39 70  1  0  0  0  0
 39 80  2  0  0  0  0
 40 43  1  0  0  0  0
 41 50  1  0  0  0  0
 42 66  1  0  0  0  0
 43 45  1  0  0  0  0
 44 46  1  0  0  0  0
 44 47  1  0  0  0  0
 45 49  1  0  0  0  0
 46 51  1  0  0  0  0
 47 67  1  0  0  0  0
 48 51  1  0  0  0  0
 48 67  1  0  0  0  0
 49 71  1  0  0  0  0
 50 66  1  0  0  0  0
 51 65  1  0  0  0  0
 52 60  1  0  0  0  0
 53 62  1  0  0  0  0
 54 63  1  0  0  0  0
 55 63  1  0  0  0  0
 56 63  1  0  0  0  0
 57 73  1  0  0  0  0
 58 74  1  0  0  0  0
 59 82  1  0  0  0  0
 60 74  1  0  0  0  0
 61 63  1  0  0  0  0
 61 72  1  0  0  0  0
 62 73  1  0  0  0  0
 64 65  1  0  0  0  0
M  CHG  2  73   1  74   1
M  ISO  4  39 100  59 101  70 100  82 101
M  END
> <Batch ID>
0170

> <Smiles>
CNC(C)C(=O)NC(C(=O)N1Cc2cc([101O:1][101CH2:1]C(=O)C(C)NCc3cccc([100NH:0][100C:0](=O)N4CCCC(n5nc(-c6ccc(Oc7ccc(F)cc7F)cc6)c(C(N)=O)c5N)C4)c3F)ccc2CC1C(=O)NC1CCCc2ccccc21)C(C)(C)C

> <Shape>
0.262

> <Color>
0.166

> <Negative vol penalty>
0.000

$$$$

  -OEChem-04052304203D

 87 95  0     1  0  0  0  0  0999 V2000
  -16.9360  -29.4814   24.5236 C   0  0  0  0  0  0  0  0  0  0  0  0
  -18.0106  -28.6055   24.6393 C   0  0  0  0  0  0  0  0  0  0  0  0
  -23.1629   -9.6718   19.9414 C   0  0  0  0  0  0  0  0  0  0  0  0
  -23.7432   -9.8809   22.2773 C   0  0  0  0  0  0  0  0  0  0  0  0
  -16.9011  -30.4062   23.4808 C   0  0  0  0  0  0  0  0  0  0  0  0
  -19.0505  -28.6531   23.7115 C   0  0  0  0  0  0  0  0  0  0  0  0
  -24.9898  -27.6115   24.7818 C   0  0  0  0  0  0  0  0  0  0  0  0
  -22.4389   -8.5138   20.2249 C   0  0  0  0  0  0  0  0  0  0  0  0
  -23.0191   -8.7229   22.5608 C   0  0  0  0  0  0  0  0  0  0  0  0
  -25.7940  -26.4885   24.5931 C   0  0  0  0  0  0  0  0  0  0  0  0
  -23.4571   -5.3815   22.2887 C   0  0  0  0  0  0  0  0  0  0  0  0
  -24.0475   -4.4374   23.1285 C   0  0  0  0  0  0  0  0  0  0  0  0
  -31.3176  -18.7834   24.1631 C   0  0  0  0  0  0  0  0  0  0  0  0
  -26.5186  -27.3719   22.4685 C   0  0  0  0  0  0  0  0  0  0  0  0
  -31.7050  -16.9213   22.6733 C   0  0  0  0  0  0  0  0  0  0  0  0
  -22.2150   -4.6758   24.6849 C   0  0  0  0  0  0  0  0  0  0  0  0
  -23.8151  -10.3554   20.9676 C   0  0  0  0  0  0  0  0  0  0  0  0
  -29.9489  -18.7041   23.9064 C   0  0  0  0  0  0  0  0  0  0  0  0
  -24.0851  -12.8752   20.6759 C   0  0  0  0  0  0  0  0  0  0  0  0
  -17.9457  -30.4717   22.5454 C   0  0  0  0  0  0  0  0  0  0  0  0
  -24.9354  -28.6198   23.8088 C   0  0  0  0  0  0  0  0  0  0  0  0
  -19.0289  -29.5788   22.6544 C   0  0  0  0  0  0  0  0  0  0  0  0
  -25.7148  -28.5080   22.6485 C   0  0  0  0  0  0  0  0  0  0  0  0
  -30.3362  -16.8420   22.4166 C   0  0  0  0  0  0  0  0  0  0  0  0
  -22.3669   -8.0394   21.5346 C   0  0  0  0  0  0  0  0  0  0  0  0
  -26.5563  -26.3671   23.4350 C   0  0  0  0  0  0  0  0  0  0  0  0
  -22.2456   -5.9729   22.6469 C   0  0  0  0  0  0  0  0  0  0  0  0
  -23.4265   -4.0844   24.3266 C   0  0  0  0  0  0  0  0  0  0  0  0
  -32.1957  -17.8920   23.5465 C   0  0  0  0  0  0  0  0  0  0  0  0
  -21.6246   -5.6200   23.8450 C   0  0  0  0  0  0  0  0  0  0  0  0
  -29.4582  -17.7334   23.0331 C   0  0  0  0  0  0  0  0  0  0  0  0
  -24.5637  -11.5513   20.6753 C   0  0  0  0  0  0  0  0  0  0  0  0
  -25.1778  -13.6355   20.3373 C   0  0  0  0  0  0  0  0  0  0  0  0
  -29.0222  -19.6491   24.5613 C   0  0  0  0  0  0  0  0  0  0  0  0
  -22.7705  -13.3733   20.9574 C   0  0  0  0  0  0  0  0  0  0  0  0
  -22.6499  -29.8377   21.9658 C   0  0  0  0  0  0  0  0  0  0  0  0
  -28.2472  -23.1270   23.9157 C   0  0  0  0  0  0  0  0  0  0  0  0
  -24.9744  -31.9465   21.1462 C   0  0  0  0  0  0  0  0  0  0  0  0
  -28.3086  -32.6260   20.8842 C   0  0  0  0  0  0  0  0  0  0  0  0
  -30.5784  -14.8955   20.8358 C   0  0  0  0  0  0  0  0  0  0  0  0
  -17.8409  -31.4565   21.4079 C   0  0  0  0  0  0  0  0  0  0  0  0
  -24.0834  -29.8377   24.0396 C   0  0  0  0  0  0  0  0  0  0  0  0
  -25.7075  -29.5722   21.5827 C   0  0  0  0  0  0  0  0  0  0  0  0
  -19.1637  -31.6939   20.6839 C   0  0  0  0  0  0  0  0  0  0  0  0
  -29.7268  -12.2692   18.5876 C   0  0  0  0  0  0  0  0  0  0  0  0
  -19.8553  -30.3671   20.3870 C   0  0  0  0  0  0  0  0  0  0  0  0
  -28.2683  -11.9572   18.9303 C   0  0  0  0  0  0  0  0  0  0  0  0
  -30.5389  -12.6225   19.8323 C   0  0  0  0  0  0  0  0  0  0  0  0
  -28.5092  -13.3774   21.0069 C   0  0  0  0  0  0  0  0  0  0  0  0
  -20.1879  -29.6164   21.6821 C   0  0  1  0  0  0  0  0  0  0  0  0
  -23.7102  -30.5593   22.7484 C   0  0  1  0  0  0  0  0  0  0  0  0
  -27.6360  -13.0791   19.7771 C   0  0  2  0  0  0  0  0  0  0  0  0
  -28.9162  -22.4362   26.2359 C   0  0  0  0  0  0  0  0  0  0  0  0
  -29.9015  -34.4186   20.1450 C   0  0  0  0  0  0  0  0  0  0  0  0
  -24.4162  -31.2373   18.2315 C   0  0  0  0  0  0  0  0  0  0  0  0
  -26.6053  -32.2919   17.6283 C   0  0  0  0  0  0  0  0  0  0  0  0
  -24.7999  -33.6715   18.6578 C   0  0  0  0  0  0  0  0  0  0  0  0
  -29.4763  -32.8671   23.5929 C   0  0  0  0  0  0  0  0  0  0  0  0
  -27.3367  -24.2851   24.2790 C   0  0  0  0  0  0  0  0  0  1  0  0
  -28.3207  -21.9899   24.9152 C   0  0  2  0  0  0  0  0  0  0  0  0
  -26.0461  -31.9969   20.0842 C   0  0  1  0  0  0  0  0  0  0  0  0
  -29.1282  -33.8291   21.3143 C   0  0  2  0  0  0  0  0  0  0  0  0
  -25.4658  -32.2782   18.6694 C   0  0  0  0  0  0  0  0  0  0  0  0
  -25.8595  -11.4716   20.3611 N   0  0  0  0  0  0  0  0  0  0  0  0
  -26.2043  -12.7550   20.1610 N   0  0  0  0  0  0  0  0  0  0  0  0
  -24.8536  -30.7409   21.8517 N   0  0  0  0  0  0  0  0  0  0  0  0
  -29.8816  -13.6951   20.5822 N   0  0  0  0  0  0  0  0  0  0  0  0
  -25.3510  -14.9645   20.1760 N   0  0  0  0  0  0  0  0  0  0  0  0
  -21.7648  -12.4549   21.2886 N   0  0  0  0  0  0  0  0  0  0  0  0
  -29.8410  -15.8549   21.5287 N   0  0  0  0  0  0  0  0  0  0  0  0
  -29.1829  -20.9622   24.3400 N   0  0  0  0  0  0  0  0  0  0  0  0
  -21.3588  -30.1885   22.3115 N   0  0  0  0  0  0  0  0  0  0  0  0
  -27.0227  -32.9819   20.5361 N   0  0  0  0  0  0  0  0  0  0  0  0
  -28.0674  -19.1502   25.3466 N   0  3  0  0  0  0  0  0  0  0  0  0
  -30.1018  -33.4407   22.3736 N   0  3  0  0  0  0  0  0  0  0  0  0
  -22.4917  -14.5950   20.9004 O   0  0  0  0  0  0  0  0  0  0  0  0
  -22.9787  -29.0241   21.1105 O   0  0  0  0  0  0  0  0  0  0  0  0
  -28.8881  -23.1186   22.8645 O   0  0  0  0  0  0  0  0  0  0  0  0
  -24.2752  -32.9426   21.3474 O   0  0  0  0  0  0  0  0  0  0  0  0
  -28.7646  -31.4850   20.8560 O   0  0  0  0  0  0  0  0  0  0  0  0
  -31.7343  -15.0705   20.4417 O   0  0  0  0  0  0  0  0  0  0  0  0
  -21.6602   -6.9096   21.8116 O   0  0  0  0  0  0  0  0  0  0  0  0
  -27.3417  -25.2717   23.2479 O   0  0  0  0  0  0  0  0  0  1  0  0
  -23.9929   -3.1766   25.1323 F   0  0  0  0  0  0  0  0  0  0  0  0
  -33.5099  -17.9680   23.7932 F   0  0  0  0  0  0  0  0  0  0  0  0
  -20.4600   -6.1839   24.1939 F   0  0  0  0  0  0  0  0  0  0  0  0
  -28.1415  -17.6586   22.7869 F   0  0  0  0  0  0  0  0  0  0  0  0
  1  2  1  0  0  0  0
  1  5  2  0  0  0  0
  2  6  2  0  0  0  0
  3  8  2  0  0  0  0
  3 17  1  0  0  0  0
  4  9  1  0  0  0  0
  4 17  2  0  0  0  0
  5 20  1  0  0  0  0
  6 22  1  0  0  0  0
  7 10  2  0  0  0  0
  7 21  1  0  0  0  0
  8 25  1  0  0  0  0
  9 25  2  0  0  0  0
 10 26  1  0  0  0  0
 11 12  2  0  0  0  0
 11 27  1  0  0  0  0
 12 28  1  0  0  0  0
 13 18  1  0  0  0  0
 13 29  2  0  0  0  0
 14 23  1  0  0  0  0
 14 26  2  0  0  0  0
 15 24  2  0  0  0  0
 15 29  1  0  0  0  0
 16 28  2  0  0  0  0
 16 30  1  0  0  0  0
 17 32  1  0  0  0  0
 18 31  2  0  0  0  0
 18 34  1  0  0  0  0
 19 32  1  0  0  0  0
 19 33  2  0  0  0  0
 19 35  1  0  0  0  0
 20 22  2  0  0  0  0
 20 41  1  0  0  0  0
 21 23  2  0  0  0  0
 21 42  1  0  0  0  0
 22 50  1  0  0  0  0
 23 43  1  0  0  0  0
 24 31  1  0  0  0  0
 24 70  1  0  0  0  0
 25 82  1  0  0  0  0
 26 83  1  0  0  0  0
 27 30  2  0  0  0  0
 27 82  1  0  0  0  0
 28 84  1  0  0  0  0
 29 85  1  0  0  0  0
 30 86  1  0  0  0  0
 31 87  1  0  0  0  0
 32 64  2  0  0  0  0
 33 65  1  0  0  0  0
 33 68  1  0  0  0  0
 34 71  1  0  0  0  0
 34 74  2  0  0  0  0
 35 69  1  0  0  0  0
 35 76  2  0  0  0  0
 36 51  1  0  0  0  0
 36 72  1  0  0  0  0
 36 77  2  0  0  0  0
 37 59  1  0  0  0  0
 37 60  1  0  0  0  0
 37 78  2  0  0  0  0
 38 61  1  0  0  0  0
 38 66  1  0  0  0  0
 38 79  2  0  0  0  0
 39 62  1  0  0  0  0
 39 73  1  0  0  0  0
 39 80  2  0  0  0  0
 40 67  1  0  0  0  0
 40 70  1  0  0  0  0
 40 81  2  0  0  0  0
 41 44  1  0  0  0  0
 42 51  1  0  0  0  0
 43 66  1  0  0  0  0
 44 46  1  0  0  0  0
 45 47  1  0  0  0  0
 45 48  1  0  0  0  0
 46 50  1  0  0  0  0
 47 52  1  0  0  0  0
 48 67  1  0  0  0  0
 49 52  1  0  0  0  0
 49 67  1  0  0  0  0
 50 72  1  0  0  0  0
 51 66  1  0  0  0  0
 52 65  1  0  0  0  0
 53 60  1  0  0  0  0
 54 62  1  0  0  0  0
 55 63  1  0  0  0  0
 56 63  1  0  0  0  0
 57 63  1  0  0  0  0
 58 75  1  0  0  0  0
 59 83  1  0  0  0  0
 60 71  1  0  0  0  0
 61 63  1  0  0  0  0
 61 73  1  0  0  0  0
 62 75  1  0  0  0  0
 64 65  1  0  0  0  0
M  CHG  2  74   1  75   1
M  ISO  4  40 100  59 101  70 100  83 101
M  END
> <Batch ID>
0170

> <Smiles>
CNC(C)C(=O)NC(C(=O)N1Cc2cc([101O:1][101CH2:1]C(=O)C(C)NC(=N)c3cc(F)cc([100NH:0][100C:0](=O)N4CCCC(n5nc(-c6ccc(Oc7ccc(F)cc7F)cc6)c(C(N)=O)c5N)C4)c3F)ccc2CC1C(=O)NC1CCCc2ccccc21)C(C)(C)C

> <Shape>
0.268

> <Color>
0.216

> <Negative vol penalty>
0.000

$$$$

  -OEChem-04052304203D

 86 94  0     1  0  0  0  0  0999 V2000
  -27.7924  -34.9018   24.2635 C   0  0  0  0  0  0  0  0  0  0  0  0
  -28.0133  -33.5690   23.9314 C   0  0  0  0  0  0  0  0  0  0  0  0
  -23.5160   -8.9627   20.2781 C   0  0  0  0  0  0  0  0  0  0  0  0
  -23.0815  -10.7846   21.8042 C   0  0  0  0  0  0  0  0  0  0  0  0
  -26.5124  -35.3286   24.6146 C   0  0  0  0  0  0  0  0  0  0  0  0
  -26.9544  -32.6619   23.9514 C   0  0  0  0  0  0  0  0  0  0  0  0
  -26.9005  -29.6487   19.8817 C   0  0  0  0  0  0  0  0  0  0  0  0
  -22.6544   -8.1449   21.0092 C   0  0  0  0  0  0  0  0  0  0  0  0
  -22.2199   -9.9668   22.5352 C   0  0  0  0  0  0  0  0  0  0  0  0
  -27.8018  -28.5851   19.8650 C   0  0  0  0  0  0  0  0  0  0  0  0
  -22.7517   -6.3583   23.8767 C   0  0  0  0  0  0  0  0  0  0  0  0
  -23.1782   -5.0617   24.1641 C   0  0  0  0  0  0  0  0  0  0  0  0
  -26.0361  -27.0862   20.5397 C   0  0  0  0  0  0  0  0  0  0  0  0
  -21.2757   -4.1713   22.9704 C   0  0  0  0  0  0  0  0  0  0  0  0
  -23.7296  -10.2826   20.6756 C   0  0  0  0  0  0  0  0  0  0  0  0
  -24.2864  -11.9585   18.8348 C   0  0  0  0  0  0  0  0  0  0  0  0
  -25.4354  -34.4284   24.6295 C   0  0  0  0  0  0  0  0  0  0  0  0
  -25.5605  -29.4406   20.2387 C   0  0  0  0  0  0  0  0  0  0  0  0
  -25.6590  -33.0768   24.3043 C   0  0  0  0  0  0  0  0  0  0  0  0
  -25.1193  -28.1484   20.5577 C   0  0  0  0  0  0  0  0  0  0  0  0
  -22.0064   -8.6469   22.1377 C   0  0  0  0  0  0  0  0  0  0  0  0
  -27.3703  -27.3041   20.1968 C   0  0  0  0  0  0  0  0  0  0  0  0
  -21.5871   -6.5614   23.1363 C   0  0  0  0  0  0  0  0  0  0  0  0
  -22.4403   -3.9682   23.7109 C   0  0  0  0  0  0  0  0  0  0  0  0
  -20.8492   -5.4679   22.6831 C   0  0  0  0  0  0  0  0  0  0  0  0
  -30.7624  -19.2718   18.1093 C   0  0  0  0  0  0  0  0  0  0  0  0
  -30.9021  -17.9668   18.6640 C   0  0  0  0  0  0  0  0  0  0  0  0
  -24.6199  -11.1277   19.9212 C   0  0  0  0  0  0  0  0  0  0  0  0
  -29.4467  -19.5842   17.8466 C   0  0  0  0  0  0  0  0  0  0  0  0
  -25.4747  -12.5453   18.4738 C   0  0  0  0  0  0  0  0  0  0  0  0
  -29.6877  -17.3316   18.8043 C   0  0  0  0  0  0  0  0  0  0  0  0
  -27.9904  -25.2167   19.3429 C   0  0  0  0  0  0  0  0  0  1  0  0
  -23.0161  -12.1801   18.2079 C   0  0  0  0  0  0  0  0  0  0  0  0
  -28.7338  -24.1099   19.1893 C   0  0  0  0  0  0  0  0  0  0  0  0
  -28.2656  -23.0804   18.2070 C   0  0  0  0  0  0  0  0  0  0  0  0
  -23.6711  -30.4901   22.5695 C   0  0  0  0  0  0  0  0  0  0  0  0
  -21.3857  -28.9032   20.9019 C   0  0  0  0  0  0  0  0  0  0  0  0
  -20.6111  -26.4316   18.6796 C   0  0  0  0  0  0  0  0  0  0  0  0
  -30.2517  -15.0839   19.7923 C   0  0  0  0  0  0  0  0  0  0  0  0
  -24.0789  -34.9264   25.0615 C   0  0  0  0  0  0  0  0  0  0  0  0
  -24.5948  -30.5937   20.2260 C   0  0  0  0  0  0  0  0  0  0  0  0
  -23.6866  -27.8685   20.9283 C   0  0  0  0  0  0  0  0  0  0  0  0
  -22.9378  -33.9809   24.6950 C   0  0  0  0  0  0  0  0  0  0  0  0
  -30.2211  -11.5254   19.9067 C   0  0  0  0  0  0  0  0  0  0  0  0
  -23.2955  -32.5446   25.0635 C   0  0  0  0  0  0  0  0  0  0  0  0
  -28.7337  -11.1730   19.8313 C   0  0  0  0  0  0  0  0  0  0  0  0
  -30.4632  -12.7912   20.7270 C   0  0  0  0  0  0  0  0  0  0  0  0
  -28.1919  -13.6084   20.2344 C   0  0  0  0  0  0  0  0  0  0  0  0
  -24.5311  -32.0680   24.2903 C   0  0  1  0  0  0  0  0  0  0  0  0
  -23.3696  -30.3567   21.1035 C   0  0  1  0  0  0  0  0  0  0  0  0
  -27.8923  -12.3769   19.3641 C   0  0  2  0  0  0  0  0  0  0  0  0
  -29.4156  -21.1477   15.8599 C   0  0  0  0  0  0  0  0  0  0  0  0
  -18.6548  -25.3490   17.5404 C   0  0  0  0  0  0  0  0  0  0  0  0
  -20.6966  -27.4346   23.4861 C   0  0  0  0  0  0  0  0  0  0  0  0
  -19.4501  -25.7510   22.1151 C   0  0  0  0  0  0  0  0  0  0  0  0
  -18.7188  -28.1359   22.1257 C   0  0  0  0  0  0  0  0  0  0  0  0
  -21.6136  -27.1757   15.9963 C   0  0  0  0  0  0  0  0  0  0  0  0
  -28.8800  -20.8596   17.2609 C   0  0  2  0  0  0  0  0  0  0  0  0
  -20.8405  -27.4954   20.9090 C   0  0  1  0  0  0  0  0  0  0  0  0
  -19.7241  -26.4264   17.4478 C   0  0  2  0  0  0  0  0  0  0  0  0
  -19.9540  -27.2095   22.1539 C   0  0  0  0  0  0  0  0  0  0  0  0
  -25.9183  -11.1792   20.2302 N   0  0  0  0  0  0  0  0  0  0  0  0
  -26.4112  -12.0493   19.3324 N   0  0  0  0  0  0  0  0  0  0  0  0
  -22.7820  -29.0299   20.9074 N   0  0  0  0  0  0  0  0  0  0  0  0
  -29.6359  -13.8903   20.2244 N   0  0  0  0  0  0  0  0  0  0  0  0
  -25.7993  -13.4318   17.5090 N   0  0  0  0  0  0  0  0  0  0  0  0
  -21.8978  -11.4965   18.7044 N   0  0  0  0  0  0  0  0  0  0  0  0
  -29.3671  -16.0453   19.3046 N   0  0  0  0  0  0  0  0  0  0  0  0
  -29.1114  -21.9869   18.1358 N   0  0  0  0  0  0  0  0  0  0  0  0
  -24.1750  -31.7252   22.9301 N   0  0  0  0  0  0  0  0  0  0  0  0
  -20.1551  -27.3166   19.6336 N   0  0  0  0  0  0  0  0  0  0  0  0
  -20.5379  -26.1768   16.2245 N   0  3  0  0  0  0  0  0  0  0  0  0
  -22.8799  -12.9485   17.2258 O   0  0  0  0  0  0  0  0  0  0  0  0
  -27.2382  -23.2226   17.5498 O   0  0  0  0  0  0  0  0  0  0  0  0
  -23.4607  -29.5430   23.3182 O   0  0  0  0  0  0  0  0  0  0  0  0
  -20.6015  -29.8553   20.8845 O   0  0  0  0  0  0  0  0  0  0  0  0
  -21.6068  -25.7190   18.7866 O   0  0  0  0  0  0  0  0  0  0  0  0
  -31.4761  -15.2313   19.8252 O   0  0  0  0  0  0  0  0  0  0  0  0
  -29.9016  -23.8578   19.8754 O   0  0  0  0  0  0  0  0  0  0  0  0
  -21.1654   -7.8492   22.8512 O   0  0  0  0  0  0  0  0  0  0  0  0
  -28.2481  -26.2643   20.1819 O   0  0  0  0  0  0  0  0  0  1  0  0
  -22.8508   -2.7232   23.9856 F   0  0  0  0  0  0  0  0  0  0  0  0
  -19.7302   -5.6567   21.9703 F   0  0  0  0  0  0  0  0  0  0  0  0
  -31.7889  -20.0912   17.8740 F   0  0  0  0  0  0  0  0  0  0  0  0
  -32.0742  -17.4280   19.0057 F   0  0  0  0  0  0  0  0  0  0  0  0
  -28.3866  -18.3073   18.2682 S   0  0  0  0  0  0  0  0  0  0  0  0
  1  2  1  0  0  0  0
  1  5  2  0  0  0  0
  2  6  2  0  0  0  0
  3  8  2  0  0  0  0
  3 15  1  0  0  0  0
  4  9  1  0  0  0  0
  4 15  2  0  0  0  0
  5 17  1  0  0  0  0
  6 19  1  0  0  0  0
  7 10  2  0  0  0  0
  7 18  1  0  0  0  0
  8 21  1  0  0  0  0
  9 21  2  0  0  0  0
 10 22  1  0  0  0  0
 11 12  2  0  0  0  0
 11 23  1  0  0  0  0
 12 24  1  0  0  0  0
 13 20  1  0  0  0  0
 13 22  2  0  0  0  0
 14 24  2  0  0  0  0
 14 25  1  0  0  0  0
 15 28  1  0  0  0  0
 16 28  1  0  0  0  0
 16 30  2  0  0  0  0
 16 33  1  0  0  0  0
 17 19  2  0  0  0  0
 17 40  1  0  0  0  0
 18 20  2  0  0  0  0
 18 41  1  0  0  0  0
 19 49  1  0  0  0  0
 20 42  1  0  0  0  0
 21 80  1  0  0  0  0
 22 81  1  0  0  0  0
 23 25  2  0  0  0  0
 23 80  1  0  0  0  0
 24 82  1  0  0  0  0
 25 83  1  0  0  0  0
 26 27  1  0  0  0  0
 26 29  2  0  0  0  0
 26 84  1  0  0  0  0
 27 31  2  0  0  0  0
 27 85  1  0  0  0  0
 28 62  2  0  0  0  0
 29 58  1  0  0  0  0
 29 86  1  0  0  0  0
 30 63  1  0  0  0  0
 30 66  1  0  0  0  0
 31 68  1  0  0  0  0
 31 86  1  0  0  0  0
 32 34  2  0  0  0  0
 32 81  1  0  0  0  0
 33 67  1  0  0  0  0
 33 73  2  0  0  0  0
 34 35  1  0  0  0  0
 34 79  1  0  0  0  0
 35 69  1  0  0  0  0
 35 74  2  0  0  0  0
 36 50  1  0  0  0  0
 36 70  1  0  0  0  0
 36 75  2  0  0  0  0
 37 59  1  0  0  0  0
 37 64  1  0  0  0  0
 37 76  2  0  0  0  0
 38 60  1  0  0  0  0
 38 71  1  0  0  0  0
 38 77  2  0  0  0  0
 39 65  1  0  0  0  0
 39 68  1  0  0  0  0
 39 78  2  0  0  0  0
 40 43  1  0  0  0  0
 41 50  1  0  0  0  0
 42 64  1  0  0  0  0
 43 45  1  0  0  0  0
 44 46  1  0  0  0  0
 44 47  1  0  0  0  0
 45 49  1  0  0  0  0
 46 51  1  0  0  0  0
 47 65  1  0  0  0  0
 48 51  1  0  0  0  0
 48 65  1  0  0  0  0
 49 70  1  0  0  0  0
 50 64  1  0  0  0  0
 51 63  1  0  0  0  0
 52 58  1  0  0  0  0
 53 60  1  0  0  0  0
 54 61  1  0  0  0  0
 55 61  1  0  0  0  0
 56 61  1  0  0  0  0
 57 72  1  0  0  0  0
 58 69  1  0  0  0  0
 59 61  1  0  0  0  0
 59 71  1  0  0  0  0
 60 72  1  0  0  0  0
 62 63  1  0  0  0  0
M  CHG  1  72   1
M  ISO  4  32 101  39 100  68 100  81 101
M  END
> <Batch ID>
0170

> <Smiles>
CNC(C)C(=O)NC(C(=O)N1Cc2cc([101O:1][101CH2:1]C(=O)C(=O)NC(C)c3sc([100NH:0][100C:0](=O)N4CCCC(n5nc(-c6ccc(Oc7ccc(F)cc7F)cc6)c(C(N)=O)c5N)C4)c(F)c3F)ccc2CC1C(=O)NC1CCCc2ccccc21)C(C)(C)C

> <Shape>
0.322

> <Color>
0.126

> <Negative vol penalty>
0.000

$$$$

  -OEChem-04052304203D

 89 97  0     1  0  0  0  0  0999 V2000
  -17.4668  -24.5905   23.4419 C   0  0  0  0  0  0  0  0  0  0  0  0
  -18.8204  -24.2715   23.4041 C   0  0  0  0  0  0  0  0  0  0  0  0
  -23.0561   -9.9777   21.5177 C   0  0  0  0  0  0  0  0  0  0  0  0
  -23.7819  -10.9807   23.5924 C   0  0  0  0  0  0  0  0  0  0  0  0
  -17.0618  -25.9201   23.3316 C   0  0  0  0  0  0  0  0  0  0  0  0
  -19.7697  -25.2819   23.2548 C   0  0  0  0  0  0  0  0  0  0  0  0
  -23.6888  -24.7480   26.4173 C   0  0  0  0  0  0  0  0  0  0  0  0
  -22.2808   -9.0635   22.2308 C   0  0  0  0  0  0  0  0  0  0  0  0
  -23.0065  -10.0665   24.3056 C   0  0  0  0  0  0  0  0  0  0  0  0
  -24.6546  -23.8007   26.0801 C   0  0  0  0  0  0  0  0  0  0  0  0
  -22.7676   -6.2026   23.9636 C   0  0  0  0  0  0  0  0  0  0  0  0
  -22.8232   -4.8643   23.5746 C   0  0  0  0  0  0  0  0  0  0  0  0
  -26.0663  -25.5560   25.2169 C   0  0  0  0  0  0  0  0  0  0  0  0
  -29.9940  -18.0947   21.2183 C   0  0  0  0  0  0  0  0  0  0  0  0
  -32.1653  -17.0406   21.1146 C   0  0  0  0  0  0  0  0  0  0  0  0
  -20.4489   -4.8952   23.1287 C   0  0  0  0  0  0  0  0  0  0  0  0
  -23.8068  -10.9363   22.1984 C   0  0  0  0  0  0  0  0  0  0  0  0
  -24.2118  -13.1459   20.9896 C   0  0  0  0  0  0  0  0  0  0  0  0
  -18.0071  -26.9482   23.1906 C   0  0  0  0  0  0  0  0  0  0  0  0
  -23.9003  -26.1075   26.1464 C   0  0  0  0  0  0  0  0  0  0  0  0
  -19.3769  -26.6263   23.1412 C   0  0  0  0  0  0  0  0  0  0  0  0
  -25.1028  -26.5188   25.5540 C   0  0  0  0  0  0  0  0  0  0  0  0
  -31.9725  -19.3421   21.8237 C   0  0  0  0  0  0  0  0  0  0  0  0
  -30.7820  -16.9762   20.9473 C   0  0  0  0  0  0  0  0  0  0  0  0
  -30.5892  -19.2777   21.6564 C   0  0  0  0  0  0  0  0  0  0  0  0
  -22.2559   -9.1079   23.6248 C   0  0  0  0  0  0  0  0  0  0  0  0
  -25.8423  -24.2043   25.4772 C   0  0  0  0  0  0  0  0  0  0  0  0
  -21.5526   -6.8873   23.9352 C   0  0  0  0  0  0  0  0  0  0  0  0
  -21.6639   -4.2106   23.1571 C   0  0  0  0  0  0  0  0  0  0  0  0
  -32.7606  -18.2236   21.5527 C   0  0  0  0  0  0  0  0  0  0  0  0
  -20.3933   -6.2336   23.5177 C   0  0  0  0  0  0  0  0  0  0  0  0
  -24.6084  -11.8806   21.4623 C   0  0  0  0  0  0  0  0  0  0  0  0
  -25.3272  -13.6424   20.3603 C   0  0  0  0  0  0  0  0  0  0  0  0
  -28.0825  -22.2820   23.4280 C   0  0  0  0  0  0  0  0  0  0  0  0
  -22.9482  -13.8128   21.1087 C   0  0  0  0  0  0  0  0  0  0  0  0
  -27.8579  -21.8394   22.1778 C   0  0  0  0  0  0  0  0  0  0  0  0
  -28.3928  -20.4881   21.8065 C   0  0  0  0  0  0  0  0  0  0  0  0
  -22.4503  -28.2877   24.3442 C   0  0  0  0  0  0  0  0  0  0  0  0
  -24.5626  -30.2994   25.7630 C   0  0  0  0  0  0  0  0  0  0  0  0
  -27.5557  -30.7084   27.3508 C   0  0  0  0  0  0  0  0  0  0  0  0
  -30.8140  -14.5740   20.1891 C   0  0  0  0  0  0  0  0  0  0  0  0
  -17.5189  -28.3659   23.0275 C   0  0  0  0  0  0  0  0  0  0  0  0
  -22.8600  -27.1199   26.5406 C   0  0  0  0  0  0  0  0  0  0  0  0
  -25.3871  -27.9685   25.2605 C   0  0  0  0  0  0  0  0  0  0  0  0
  -18.6067  -29.4138   23.2483 C   0  0  0  0  0  0  0  0  0  0  0  0
  -29.6763  -11.3822   19.0960 C   0  0  0  0  0  0  0  0  0  0  0  0
  -19.8777  -29.0305   22.4969 C   0  0  0  0  0  0  0  0  0  0  0  0
  -28.2238  -11.3314   19.5753 C   0  0  0  0  0  0  0  0  0  0  0  0
  -30.5788  -12.1020   20.0966 C   0  0  0  0  0  0  0  0  0  0  0  0
  -28.6699  -13.3892   20.9729 C   0  0  0  0  0  0  0  0  0  0  0  0
  -20.4381  -27.6967   23.0053 C   0  0  1  0  0  0  0  0  0  0  0  0
  -22.9626  -28.4208   25.7504 C   0  0  1  0  0  0  0  0  0  0  0  0
  -27.7106  -12.7307   19.9680 C   0  0  2  0  0  0  0  0  0  0  0  0
  -27.0842  -22.5356   21.1017 C   0  0  0  0  0  0  0  0  0  0  0  0
  -29.0264  -32.4751   28.3574 C   0  0  0  0  0  0  0  0  0  0  0  0
  -25.3954  -31.1955   22.9677 C   0  0  0  0  0  0  0  0  0  0  0  0
  -27.4518  -32.2035   23.9792 C   0  0  0  0  0  0  0  0  0  0  0  0
  -25.1982  -33.0443   24.6403 C   0  0  0  0  0  0  0  0  0  0  0  0
  -27.4245  -29.4558   30.0290 C   0  0  0  0  0  0  0  0  0  0  0  0
  -27.6129  -23.5731   24.0204 C   0  0  0  0  0  0  0  0  0  1  0  0
  -25.9613  -30.7745   25.4514 C   0  0  1  0  0  0  0  0  0  0  0  0
  -27.9296  -31.4546   28.6188 C   0  0  2  0  0  0  0  0  0  0  0  0
  -32.6337  -20.5974   22.2932 C   0  0  0  0  0  0  0  0  0  0  0  0
  -25.9958  -31.7768   24.2633 C   0  0  0  0  0  0  0  0  0  0  0  0
  -25.8766  -11.5911   21.1591 N   0  0  0  0  0  0  0  0  0  0  0  0
  -26.2865  -12.6815   20.4891 N   0  0  0  0  0  0  0  0  0  0  0  0
  -24.3363  -28.9197   25.6589 N   0  0  0  0  0  0  0  0  0  0  0  0
  -30.0322  -13.4220   20.4182 N   0  0  0  0  0  0  0  0  0  0  0  0
  -25.5710  -14.8027   19.7149 N   0  0  0  0  0  0  0  0  0  0  0  0
  -21.9096  -13.1603   21.7866 N   0  0  0  0  0  0  0  0  0  0  0  0
  -29.7724  -20.4025   21.9260 N   0  0  0  0  0  0  0  0  0  0  0  0
  -30.1774  -15.7745   20.5022 N   0  0  0  0  0  0  0  0  0  0  0  0
  -21.1308  -27.8856   24.2618 N   0  0  0  0  0  0  0  0  0  0  0  0
  -26.4988  -31.3074   26.6986 N   0  0  0  0  0  0  0  0  0  0  0  0
  -28.4125  -30.5012   29.6575 N   0  3  0  0  0  0  0  0  0  0  0  0
  -22.7412  -14.9468   20.6139 O   0  0  0  0  0  0  0  0  0  0  0  0
  -27.6149  -19.6313   21.3990 O   0  0  0  0  0  0  0  0  0  0  0  0
  -23.1963  -28.5332   23.4035 O   0  0  0  0  0  0  0  0  0  0  0  0
  -23.7044  -31.1215   26.0938 O   0  0  0  0  0  0  0  0  0  0  0  0
  -28.1449  -29.6976   26.9745 O   0  0  0  0  0  0  0  0  0  0  0  0
  -31.9537  -14.5025   19.7222 O   0  0  0  0  0  0  0  0  0  0  0  0
  -21.4992   -8.2162   24.3210 O   0  0  0  0  0  0  0  0  0  0  0  0
  -26.7863  -23.2816   25.1465 O   0  0  0  0  0  0  0  0  0  1  0  0
  -21.7178   -2.9258   22.7821 F   0  0  0  0  0  0  0  0  0  0  0  0
  -34.0906  -18.2745   21.7118 F   0  0  0  0  0  0  0  0  0  0  0  0
  -19.2234   -6.8864   23.4872 F   0  0  0  0  0  0  0  0  0  0  0  0
  -31.7594  -21.6192   22.5256 F   0  0  0  0  0  0  0  0  0  0  0  0
  -33.3247  -20.4442   23.4600 F   0  0  0  0  0  0  0  0  0  0  0  0
  -33.5351  -21.0814   21.3916 F   0  0  0  0  0  0  0  0  0  0  0  0
  1  2  1  0  0  0  0
  1  5  2  0  0  0  0
  2  6  2  0  0  0  0
  3  8  2  0  0  0  0
  3 17  1  0  0  0  0
  4  9  1  0  0  0  0
  4 17  2  0  0  0  0
  5 19  1  0  0  0  0
  6 21  1  0  0  0  0
  7 10  2  0  0  0  0
  7 20  1  0  0  0  0
  8 26  1  0  0  0  0
  9 26  2  0  0  0  0
 10 27  1  0  0  0  0
 11 12  2  0  0  0  0
 11 28  1  0  0  0  0
 12 29  1  0  0  0  0
 13 22  1  0  0  0  0
 13 27  2  0  0  0  0
 14 24  2  0  0  0  0
 14 25  1  0  0  0  0
 15 24  1  0  0  0  0
 15 30  2  0  0  0  0
 16 29  2  0  0  0  0
 16 31  1  0  0  0  0
 17 32  1  0  0  0  0
 18 32  1  0  0  0  0
 18 33  2  0  0  0  0
 18 35  1  0  0  0  0
 19 21  2  0  0  0  0
 19 42  1  0  0  0  0
 20 22  2  0  0  0  0
 20 43  1  0  0  0  0
 21 51  1  0  0  0  0
 22 44  1  0  0  0  0
 23 25  2  0  0  0  0
 23 30  1  0  0  0  0
 23 63  1  0  0  0  0
 24 72  1  0  0  0  0
 25 71  1  0  0  0  0
 26 82  1  0  0  0  0
 27 83  1  0  0  0  0
 28 31  2  0  0  0  0
 28 82  1  0  0  0  0
 29 84  1  0  0  0  0
 30 85  1  0  0  0  0
 31 86  1  0  0  0  0
 32 65  2  0  0  0  0
 33 66  1  0  0  0  0
 33 69  1  0  0  0  0
 34 36  2  0  0  0  0
 34 60  1  0  0  0  0
 35 70  1  0  0  0  0
 35 76  2  0  0  0  0
 36 37  1  0  0  0  0
 36 54  1  0  0  0  0
 37 71  1  0  0  0  0
 37 77  2  0  0  0  0
 38 52  1  0  0  0  0
 38 73  1  0  0  0  0
 38 78  2  0  0  0  0
 39 61  1  0  0  0  0
 39 67  1  0  0  0  0
 39 79  2  0  0  0  0
 40 62  1  0  0  0  0
 40 74  1  0  0  0  0
 40 80  2  0  0  0  0
 41 68  1  0  0  0  0
 41 72  1  0  0  0  0
 41 81  2  0  0  0  0
 42 45  1  0  0  0  0
 43 52  1  0  0  0  0
 44 67  1  0  0  0  0
 45 47  1  0  0  0  0
 46 48  1  0  0  0  0
 46 49  1  0  0  0  0
 47 51  1  0  0  0  0
 48 53  1  0  0  0  0
 49 68  1  0  0  0  0
 50 53  1  0  0  0  0
 50 68  1  0  0  0  0
 51 73  1  0  0  0  0
 52 67  1  0  0  0  0
 53 66  1  0  0  0  0
 55 62  1  0  0  0  0
 56 64  1  0  0  0  0
 57 64  1  0  0  0  0
 58 64  1  0  0  0  0
 59 75  1  0  0  0  0
 60 83  1  0  0  0  0
 61 64  1  0  0  0  0
 61 74  1  0  0  0  0
 62 75  1  0  0  0  0
 63 87  1  0  0  0  0
 63 88  1  0  0  0  0
 63 89  1  0  0  0  0
 65 66  1  0  0  0  0
M  CHG  1  75   1
M  ISO  4  41 100  60 101  72 100  83 101
M  END
> <Batch ID>
0170

> <Smiles>
CNC(C)C(=O)NC(C(=O)N1Cc2cc([101O:1][101CH2:1]C=C(C)C(=O)Nc3cc([100NH:0][100C:0](=O)N4CCCC(n5nc(-c6ccc(Oc7ccc(F)cc7F)cc6)c(C(N)=O)c5N)C4)cc(F)c3C(F)(F)F)ccc2CC1C(=O)NC1CCCc2ccccc21)C(C)(C)C

> <Shape>
0.281

> <Color>
0.171

> <Negative vol penalty>
0.000

$$$$

  -OEChem-04052304203D

 82 90  0     1  0  0  0  0  0999 V2000
  -31.7592  -18.2193   23.4205 C   0  0  0  0  0  0  0  0  0  0  0  0
  -30.6490  -19.0074   23.1342 C   0  0  0  0  0  0  0  0  0  0  0  0
  -29.7616  -28.5502   20.9651 C   0  0  0  0  0  0  0  0  0  0  0  0
  -28.1870  -27.7420   19.3206 C   0  0  0  0  0  0  0  0  0  0  0  0
  -31.8132  -16.9021   22.9668 C   0  0  0  0  0  0  0  0  0  0  0  0
  -29.5927  -18.4789   22.3930 C   0  0  0  0  0  0  0  0  0  0  0  0
  -23.6369  -19.7428   23.0538 C   0  0  0  0  0  0  0  0  0  0  0  0
  -30.6405  -27.5204   20.6298 C   0  0  0  0  0  0  0  0  0  0  0  0
  -29.0660  -26.7121   18.9852 C   0  0  0  0  0  0  0  0  0  0  0  0
  -22.7792  -20.6034   22.3701 C   0  0  0  0  0  0  0  0  0  0  0  0
  -29.9809  -23.7096   20.2417 C   0  0  0  0  0  0  0  0  0  0  0  0
  -29.4516  -22.4272   20.0974 C   0  0  0  0  0  0  0  0  0  0  0  0
  -22.0497  -18.7672   20.9861 C   0  0  0  0  0  0  0  0  0  0  0  0
  -20.1269  -26.2227   21.7553 C   0  0  0  0  0  0  0  0  0  0  0  0
  -30.2099  -22.3723   17.8041 C   0  0  0  0  0  0  0  0  0  0  0  0
  -18.4297  -25.8406   23.1516 C   0  0  0  0  0  0  0  0  0  0  0  0
  -28.5348  -28.6611   20.3105 C   0  0  0  0  0  0  0  0  0  0  0  0
  -27.5638  -31.0092   20.0850 C   0  0  0  0  0  0  0  0  0  0  0  0
  -30.7528  -16.3542   22.2279 C   0  0  0  0  0  0  0  0  0  0  0  0
  -23.7156  -18.3879   22.7009 C   0  0  0  0  0  0  0  0  0  0  0  0
  -29.6332  -17.1535   21.9278 C   0  0  0  0  0  0  0  0  0  0  0  0
  -22.9074  -17.8909   21.6685 C   0  0  0  0  0  0  0  0  0  0  0  0
  -19.3411  -25.2026   22.3428 C   0  0  0  0  0  0  0  0  0  0  0  0
  -30.2927  -26.6013   19.6399 C   0  0  0  0  0  0  0  0  0  0  0  0
  -21.9875  -20.1163   21.3342 C   0  0  0  0  0  0  0  0  0  0  0  0
  -30.6246  -24.3235   19.1672 C   0  0  0  0  0  0  0  0  0  0  0  0
  -29.5661  -21.7585   18.8787 C   0  0  0  0  0  0  0  0  0  0  0  0
  -30.7391  -23.6547   17.9484 C   0  0  0  0  0  0  0  0  0  0  0  0
  -27.6262  -29.7244   20.6569 C   0  0  0  0  0  0  0  0  0  0  0  0
  -19.6394  -27.4113   22.2468 C   0  0  0  0  0  0  0  0  0  0  0  0
  -26.5411  -31.6342   20.7557 C   0  0  0  0  0  0  0  0  0  0  0  0
  -28.3590  -31.5861   19.0407 C   0  0  0  0  0  0  0  0  0  0  0  0
  -26.0136  -16.4856   21.6036 C   0  0  0  0  0  0  0  0  0  0  0  0
  -23.7691  -14.1814   22.0223 C   0  0  0  0  0  0  0  0  0  0  0  0
  -20.4640  -13.3662   22.2644 C   0  0  0  0  0  0  0  0  0  0  0  0
  -20.3565  -23.1200   21.3574 C   0  0  0  0  0  0  0  0  0  0  0  0
  -21.7196  -29.5901   23.6585 C   0  0  0  0  0  0  0  0  0  0  0  0
  -30.8774  -14.9401   21.7185 C   0  0  0  0  0  0  0  0  0  0  0  0
  -24.6262  -17.4670   23.4659 C   0  0  0  0  0  0  0  0  0  0  0  0
  -22.9397  -16.4404   21.2644 C   0  0  0  0  0  0  0  0  0  0  0  0
  -29.5514  -14.3391   21.2593 C   0  0  0  0  0  0  0  0  0  0  0  0
  -24.2984  -31.6577   24.9819 C   0  0  0  0  0  0  0  0  0  0  0  0
  -28.7947  -15.3267   20.3769 C   0  0  0  0  0  0  0  0  0  0  0  0
  -25.4381  -31.5126   23.9720 C   0  0  0  0  0  0  0  0  0  0  0  0
  -23.5353  -30.3475   25.1638 C   0  0  0  0  0  0  0  0  0  0  0  0
  -24.1748  -29.5985   22.9047 C   0  0  0  0  0  0  0  0  0  0  0  0
  -28.4566  -16.6085   21.1478 C   0  0  1  0  0  0  0  0  0  0  0  0
  -25.0037  -16.2135   22.6824 C   0  0  1  0  0  0  0  0  0  0  0  0
  -24.9385  -30.9084   22.6458 C   0  0  2  0  0  0  0  0  0  0  0  0
  -18.9378  -11.3975   22.5678 C   0  0  0  0  0  0  0  0  0  0  0  0
  -18.7700  -21.2139   20.9001 C   0  0  0  0  0  0  0  0  0  0  0  0
  -24.2324  -13.3773   19.1157 C   0  0  0  0  0  0  0  0  0  0  0  0
  -22.0805  -12.1004   19.1987 C   0  0  0  0  0  0  0  0  0  0  0  0
  -23.9676  -11.4597   20.6990 C   0  0  0  0  0  0  0  0  0  0  0  0
  -19.3665  -14.4584   24.7866 C   0  0  0  0  0  0  0  0  0  0  0  0
  -20.0122  -28.8165   22.0320 C   0  0  0  0  0  0  0  0  0  0  0  0
  -22.6783  -13.5835   21.1670 C   0  0  1  0  0  0  0  0  0  0  0  0
  -19.7086  -12.5086   23.2635 C   0  0  2  0  0  0  0  0  0  0  0  0
  -20.1400  -21.6107   21.4299 C   0  0  1  0  0  0  0  0  0  1  0  0
  -23.2403  -12.6580   20.0512 C   0  0  0  0  0  0  0  0  0  0  0  0
  -26.7158  -29.5426   21.6171 N   0  0  0  0  0  0  0  0  0  0  0  0
  -26.0717  -30.7215   21.6539 N   0  0  0  0  0  0  0  0  0  0  0  0
  -23.8508  -15.5810   22.0383 N   0  0  0  0  0  0  0  0  0  0  0  0
  -23.0878  -29.8284   23.8691 N   0  0  0  0  0  0  0  0  0  0  0  0
  -26.0066  -32.8701   20.6590 N   0  0  0  0  0  0  0  0  0  0  0  0
  -29.3676  -30.8051   18.4600 N   0  0  0  0  0  0  0  0  0  0  0  0
  -19.4465  -23.8036   22.1572 N   0  0  0  0  0  0  0  0  0  0  0  0
  -27.3263  -16.3878   22.0242 N   0  0  0  0  0  0  0  0  0  0  0  0
  -21.7568  -12.9218   22.0843 N   0  0  0  0  0  0  0  0  0  0  0  0
  -21.3801  -29.1044   22.4017 N   0  0  0  0  0  0  0  0  0  0  0  0
  -18.7414  -13.3407   24.0336 N   0  3  0  0  0  0  0  0  0  0  0  0
  -28.1914  -32.7649   18.6459 O   0  0  0  0  0  0  0  0  0  0  0  0
  -25.6304  -16.7621   20.4730 O   0  0  0  0  0  0  0  0  0  0  0  0
  -24.5165  -13.4344   22.6587 O   0  0  0  0  0  0  0  0  0  0  0  0
  -19.9567  -14.3315   21.6974 O   0  0  0  0  0  0  0  0  0  0  0  0
  -21.2528  -23.6021   20.6709 O   0  0  0  0  0  0  0  0  0  0  0  0
  -20.8634  -29.8001   24.5244 O   0  0  0  0  0  0  0  0  0  0  0  0
  -18.6047  -27.1871   23.0986 O   0  0  0  0  0  0  0  0  0  0  0  0
  -31.1502  -25.5964   19.3122 O   0  0  0  0  0  0  0  0  0  0  0  0
  -21.1500  -20.9543   20.6648 O   0  0  0  0  0  0  0  0  0  1  0  0
  -29.0592  -20.5264   18.7408 F   0  0  0  0  0  0  0  0  0  0  0  0
  -31.3575  -24.2388   16.9129 F   0  0  0  0  0  0  0  0  0  0  0  0
  1  2  1  0  0  0  0
  1  5  2  0  0  0  0
  2  6  2  0  0  0  0
  3  8  2  0  0  0  0
  3 17  1  0  0  0  0
  4  9  1  0  0  0  0
  4 17  2  0  0  0  0
  5 19  1  0  0  0  0
  6 21  1  0  0  0  0
  7 10  2  0  0  0  0
  7 20  1  0  0  0  0
  8 24  1  0  0  0  0
  9 24  2  0  0  0  0
 10 25  1  0  0  0  0
 11 12  2  0  0  0  0
 11 26  1  0  0  0  0
 12 27  1  0  0  0  0
 13 22  1  0  0  0  0
 13 25  2  0  0  0  0
 14 23  1  0  0  0  0
 14 30  2  0  0  0  0
 15 27  2  0  0  0  0
 15 28  1  0  0  0  0
 16 23  2  0  0  0  0
 16 78  1  0  0  0  0
 17 29  1  0  0  0  0
 18 29  1  0  0  0  0
 18 31  2  0  0  0  0
 18 32  1  0  0  0  0
 19 21  2  0  0  0  0
 19 38  1  0  0  0  0
 20 22  2  0  0  0  0
 20 39  1  0  0  0  0
 21 47  1  0  0  0  0
 22 40  1  0  0  0  0
 23 67  1  0  0  0  0
 24 79  1  0  0  0  0
 25 80  1  0  0  0  0
 26 28  2  0  0  0  0
 26 79  1  0  0  0  0
 27 81  1  0  0  0  0
 28 82  1  0  0  0  0
 29 61  2  0  0  0  0
 30 56  1  0  0  0  0
 30 78  1  0  0  0  0
 31 62  1  0  0  0  0
 31 65  1  0  0  0  0
 32 66  1  0  0  0  0
 32 72  2  0  0  0  0
 33 48  1  0  0  0  0
 33 68  1  0  0  0  0
 33 73  2  0  0  0  0
 34 57  1  0  0  0  0
 34 63  1  0  0  0  0
 34 74  2  0  0  0  0
 35 58  1  0  0  0  0
 35 69  1  0  0  0  0
 35 75  2  0  0  0  0
 36 59  1  0  0  0  0
 36 67  1  0  0  0  0
 36 76  2  0  0  0  0
 37 64  1  0  0  0  0
 37 70  1  0  0  0  0
 37 77  2  0  0  0  0
 38 41  1  0  0  0  0
 39 48  1  0  0  0  0
 40 63  1  0  0  0  0
 41 43  1  0  0  0  0
 42 44  1  0  0  0  0
 42 45  1  0  0  0  0
 43 47  1  0  0  0  0
 44 49  1  0  0  0  0
 45 64  1  0  0  0  0
 46 49  1  0  0  0  0
 46 64  1  0  0  0  0
 47 68  1  0  0  0  0
 48 63  1  0  0  0  0
 49 62  1  0  0  0  0
 50 58  1  0  0  0  0
 51 59  1  0  0  0  0
 52 60  1  0  0  0  0
 53 60  1  0  0  0  0
 54 60  1  0  0  0  0
 55 71  1  0  0  0  0
 56 70  1  0  0  0  0
 57 60  1  0  0  0  0
 57 69  1  0  0  0  0
 58 71  1  0  0  0  0
 59 80  1  0  0  0  0
 61 62  1  0  0  0  0
M  CHG  1  71   1
M  ISO  4  37 100  59 101  70 100  80 101
M  END
> <Batch ID>
0170

> <Smiles>
CNC(C)C(=O)NC(C(=O)N1Cc2cc([101O:1][101CH:1](C)C(=O)Nc3coc(C[100NH:0][100C:0](=O)N4CCCC(n5nc(-c6ccc(Oc7ccc(F)cc7F)cc6)c(C(N)=O)c5N)C4)c3)ccc2CC1C(=O)NC1CCCc2ccccc21)C(C)(C)C

> <Shape>
0.253

> <Color>
0.054

> <Negative vol penalty>
0.000

$$$$

  -OEChem-04052304203D

 87 95  0     1  0  0  0  0  0999 V2000
  -27.6750  -34.4471   21.1262 C   0  0  0  0  0  0  0  0  0  0  0  0
  -27.7247  -33.0953   20.8014 C   0  0  0  0  0  0  0  0  0  0  0  0
  -31.2936  -19.5640   19.6866 C   0  0  0  0  0  0  0  0  0  0  0  0
  -23.0105   -9.9472   19.8791 C   0  0  0  0  0  0  0  0  0  0  0  0
  -23.9349   -9.6718   22.0943 C   0  0  0  0  0  0  0  0  0  0  0  0
  -26.7773  -34.8981   22.0930 C   0  0  0  0  0  0  0  0  0  0  0  0
  -26.8774  -32.1934   21.4441 C   0  0  0  0  0  0  0  0  0  0  0  0
  -24.3025  -27.1933   19.0202 C   0  0  0  0  0  0  0  0  0  0  0  0
  -31.5435  -18.4273   20.4555 C   0  0  0  0  0  0  0  0  0  0  0  0
  -30.0746  -20.2317   19.8046 C   0  0  0  0  0  0  0  0  0  0  0  0
  -22.2869   -8.7649   20.0341 C   0  0  0  0  0  0  0  0  0  0  0  0
  -23.2111   -8.4895   22.2493 C   0  0  0  0  0  0  0  0  0  0  0  0
  -24.6467  -25.8432   19.0699 C   0  0  0  0  0  0  0  0  0  0  0  0
  -23.4611   -5.2672   21.2567 C   0  0  0  0  0  0  0  0  0  0  0  0
  -24.1271   -4.1653   21.7930 C   0  0  0  0  0  0  0  0  0  0  0  0
  -23.1096  -25.5249   20.9016 C   0  0  0  0  0  0  0  0  0  0  0  0
  -22.5540   -4.1065   23.6258 C   0  0  0  0  0  0  0  0  0  0  0  0
  -23.8346  -10.4006   20.9092 C   0  0  0  0  0  0  0  0  0  0  0  0
  -24.1666  -12.9238   21.0852 C   0  0  0  0  0  0  0  0  0  0  0  0
  -25.9119  -34.0027   22.7409 C   0  0  0  0  0  0  0  0  0  0  0  0
  -23.3658  -27.7226   19.9196 C   0  0  0  0  0  0  0  0  0  0  0  0
  -25.9682  -32.6326   22.4214 C   0  0  0  0  0  0  0  0  0  0  0  0
  -22.7534  -26.8815   20.8597 C   0  0  0  0  0  0  0  0  0  0  0  0
  -30.5744  -17.9583   21.3423 C   0  0  0  0  0  0  0  0  0  0  0  0
  -29.3553  -18.6259   21.4603 C   0  0  0  0  0  0  0  0  0  0  0  0
  -29.1055  -19.7627   20.6914 C   0  0  0  0  0  0  0  0  0  0  0  0
  -22.3871   -8.0361   21.2192 C   0  0  0  0  0  0  0  0  0  0  0  0
  -24.0524  -25.0093   20.0125 C   0  0  0  0  0  0  0  0  0  0  0  0
  -22.3415   -5.7889   21.9050 C   0  0  0  0  0  0  0  0  0  0  0  0
  -23.6736   -3.5849   22.9776 C   0  0  0  0  0  0  0  0  0  0  0  0
  -21.8880   -5.2085   23.0895 C   0  0  0  0  0  0  0  0  0  0  0  0
  -24.5829  -11.6216   20.7495 C   0  0  0  0  0  0  0  0  0  0  0  0
  -25.2295  -13.7232   20.7420 C   0  0  0  0  0  0  0  0  0  0  0  0
  -22.9299  -13.3709   21.6564 C   0  0  0  0  0  0  0  0  0  0  0  0
  -23.4449  -29.9431   22.1927 C   0  0  0  0  0  0  0  0  0  0  0  0
  -26.1828  -22.0969   20.3892 C   0  0  0  0  0  0  0  0  0  0  0  0
  -20.2509  -29.3878   22.3032 C   0  0  0  0  0  0  0  0  0  0  0  0
  -17.6599  -27.2480   21.7077 C   0  0  0  0  0  0  0  0  0  0  0  0
  -30.7124  -14.7610   20.6626 C   0  0  0  0  0  0  0  0  0  0  0  0
  -24.9915  -34.5300   23.8131 C   0  0  0  0  0  0  0  0  0  0  0  0
  -22.9856  -29.1754   19.8356 C   0  0  0  0  0  0  0  0  0  0  0  0
  -21.7269  -27.3962   21.8343 C   0  0  0  0  0  0  0  0  0  0  0  0
  -23.8667  -33.5650   24.1790 C   0  0  0  0  0  0  0  0  0  0  0  0
  -29.4047  -12.6862   18.0815 C   0  0  0  0  0  0  0  0  0  0  0  0
  -24.4150  -32.1547   24.3721 C   0  0  0  0  0  0  0  0  0  0  0  0
  -28.0025  -12.3270   18.5761 C   0  0  0  0  0  0  0  0  0  0  0  0
  -30.4066  -12.7623   19.2315 C   0  0  0  0  0  0  0  0  0  0  0  0
  -28.6104  -13.2950   20.8327 C   0  0  0  0  0  0  0  0  0  0  0  0
  -25.0480  -31.6270   23.0788 C   0  0  1  0  0  0  0  0  0  0  0  0
  -22.4004  -29.7161   21.1366 C   0  0  1  0  0  0  0  0  0  0  0  0
  -27.5534  -13.2613   19.7156 C   0  0  2  0  0  0  0  0  0  0  0  0
  -15.1679  -27.0601   21.9361 C   0  0  0  0  0  0  0  0  0  0  0  0
  -20.5638  -28.9128   25.3010 C   0  0  0  0  0  0  0  0  0  0  0  0
  -18.3081  -27.8264   25.2936 C   0  0  0  0  0  0  0  0  0  0  0  0
  -18.5359  -30.2282   24.6593 C   0  0  0  0  0  0  0  0  0  0  0  0
  -17.2996  -26.9326   18.7872 C   0  0  0  0  0  0  0  0  0  0  0  0
  -30.8677  -16.7389   22.1536 C   0  0  0  0  0  0  0  0  0  0  0  0
  -27.5748  -21.6199   20.0331 C   0  0  0  0  0  0  0  0  0  0  0  0
  -25.7109  -23.3413   19.6624 C   0  0  0  0  0  0  0  0  0  1  0  0
  -19.3559  -28.4428   23.0680 C   0  0  1  0  0  0  0  0  0  0  0  0
  -16.3199  -27.4541   21.0248 C   0  0  2  0  0  0  0  0  0  0  0  0
  -28.3183  -18.1192   22.4128 C   0  0  0  0  0  0  0  0  0  0  0  0
  -19.2117  -28.8429   24.5635 C   0  0  0  0  0  0  0  0  0  0  0  0
  -25.8140  -11.5910   20.2325 N   0  0  0  0  0  0  0  0  0  0  0  0
  -26.1806  -12.8839   20.2407 N   0  0  0  0  0  0  0  0  0  0  0  0
  -21.3933  -28.8253   21.7166 N   0  0  0  0  0  0  0  0  0  0  0  0
  -29.9217  -13.6657   20.2778 N   0  0  0  0  0  0  0  0  0  0  0  0
  -25.4340  -15.0551   20.8231 N   0  0  0  0  0  0  0  0  0  0  0  0
  -21.9452  -12.4171   21.9479 N   0  0  0  0  0  0  0  0  0  0  0  0
  -27.8995  -20.4411   20.7947 N   0  0  0  0  0  0  0  0  0  0  0  0
  -24.0221  -31.1979   22.1525 N   0  0  0  0  0  0  0  0  0  0  0  0
  -18.0937  -28.3951   22.3378 N   0  0  0  0  0  0  0  0  0  0  0  0
  -30.1759  -15.5706   21.6562 N   0  0  0  0  0  0  0  0  0  0  0  0
  -16.2393  -26.6330   19.7837 N   0  3  0  0  0  0  0  0  0  0  0  0
  -22.6983  -14.5822   21.8858 O   0  0  0  0  0  0  0  0  0  0  0  0
  -23.7066  -29.0467   22.9862 O   0  0  0  0  0  0  0  0  0  0  0  0
  -25.4726  -21.5212   21.2125 O   0  0  0  0  0  0  0  0  0  0  0  0
  -19.9437  -30.5798   22.2231 O   0  0  0  0  0  0  0  0  0  0  0  0
  -18.2598  -26.1755   21.6876 O   0  0  0  0  0  0  0  0  0  0  0  0
  -31.8124  -15.0028   20.1542 O   0  0  0  0  0  0  0  0  0  0  0  0
  -21.6809   -6.8825   21.3708 O   0  0  0  0  0  0  0  0  0  0  0  0
  -24.3870  -23.6913   20.0635 O   0  0  0  0  0  0  0  0  0  1  0  0
  -24.3124   -2.5257   23.4916 F   0  0  0  0  0  0  0  0  0  0  0  0
  -20.8123   -5.7045   23.7161 F   0  0  0  0  0  0  0  0  0  0  0  0
  -28.7059  -17.0021   23.0927 F   0  0  0  0  0  0  0  0  0  0  0  0
  -27.9761  -19.0252   23.3731 F   0  0  0  0  0  0  0  0  0  0  0  0
  -27.1548  -17.7863   21.7859 F   0  0  0  0  0  0  0  0  0  0  0  0
  1  2  1  0  0  0  0
  1  6  2  0  0  0  0
  2  7  2  0  0  0  0
  3  9  1  0  0  0  0
  3 10  2  0  0  0  0
  4 11  2  0  0  0  0
  4 18  1  0  0  0  0
  5 12  1  0  0  0  0
  5 18  2  0  0  0  0
  6 20  1  0  0  0  0
  7 22  1  0  0  0  0
  8 13  2  0  0  0  0
  8 21  1  0  0  0  0
  9 24  2  0  0  0  0
 10 26  1  0  0  0  0
 11 27  1  0  0  0  0
 12 27  2  0  0  0  0
 13 28  1  0  0  0  0
 14 15  2  0  0  0  0
 14 29  1  0  0  0  0
 15 30  1  0  0  0  0
 16 23  1  0  0  0  0
 16 28  2  0  0  0  0
 17 30  2  0  0  0  0
 17 31  1  0  0  0  0
 18 32  1  0  0  0  0
 19 32  1  0  0  0  0
 19 33  2  0  0  0  0
 19 34  1  0  0  0  0
 20 22  2  0  0  0  0
 20 40  1  0  0  0  0
 21 23  2  0  0  0  0
 21 41  1  0  0  0  0
 22 49  1  0  0  0  0
 23 42  1  0  0  0  0
 24 25  1  0  0  0  0
 24 57  1  0  0  0  0
 25 26  2  0  0  0  0
 25 62  1  0  0  0  0
 26 70  1  0  0  0  0
 27 81  1  0  0  0  0
 28 82  1  0  0  0  0
 29 31  2  0  0  0  0
 29 81  1  0  0  0  0
 30 83  1  0  0  0  0
 31 84  1  0  0  0  0
 32 64  2  0  0  0  0
 33 65  1  0  0  0  0
 33 68  1  0  0  0  0
 34 69  1  0  0  0  0
 34 75  2  0  0  0  0
 35 50  1  0  0  0  0
 35 71  1  0  0  0  0
 35 76  2  0  0  0  0
 36 58  1  0  0  0  0
 36 59  1  0  0  0  0
 36 77  2  0  0  0  0
 37 60  1  0  0  0  0
 37 66  1  0  0  0  0
 37 78  2  0  0  0  0
 38 61  1  0  0  0  0
 38 72  1  0  0  0  0
 38 79  2  0  0  0  0
 39 67  1  0  0  0  0
 39 73  1  0  0  0  0
 39 80  2  0  0  0  0
 40 43  1  0  0  0  0
 41 50  1  0  0  0  0
 42 66  1  0  0  0  0
 43 45  1  0  0  0  0
 44 46  1  0  0  0  0
 44 47  1  0  0  0  0
 45 49  1  0  0  0  0
 46 51  1  0  0  0  0
 47 67  1  0  0  0  0
 48 51  1  0  0  0  0
 48 67  1  0  0  0  0
 49 71  1  0  0  0  0
 50 66  1  0  0  0  0
 51 65  1  0  0  0  0
 52 61  1  0  0  0  0
 53 63  1  0  0  0  0
 54 63  1  0  0  0  0
 55 63  1  0  0  0  0
 56 74  1  0  0  0  0
 57 73  1  0  0  0  0
 58 70  1  0  0  0  0
 59 82  1  0  0  0  0
 60 63  1  0  0  0  0
 60 72  1  0  0  0  0
 61 74  1  0  0  0  0
 62 85  1  0  0  0  0
 62 86  1  0  0  0  0
 62 87  1  0  0  0  0
 64 65  1  0  0  0  0
M  CHG  1  74   1
M  ISO  4  39 100  59 101  73 100  82 101
M  END
> <Batch ID>
0170

> <Smiles>
CNC(C)C(=O)NC(C(=O)N1Cc2cc([101O:1][101CH2:1]C(=O)CNc3cccc(C[100NH:0][100C:0](=O)N4CCCC(n5nc(-c6ccc(Oc7ccc(F)cc7F)cc6)c(C(N)=O)c5N)C4)c3C(F)(F)F)ccc2CC1C(=O)NC1CCCc2ccccc21)C(C)(C)C

> <Shape>
0.374

> <Color>
0.196

> <Negative vol penalty>
0.000

$$$$

  -OEChem-04052304203D

 84 92  0     1  0  0  0  0  0999 V2000
  -17.8424  -26.7773   27.2372 C   0  0  0  0  0  0  0  0  0  0  0  0
  -18.8594  -25.9352   26.7989 C   0  0  0  0  0  0  0  0  0  0  0  0
  -32.6371  -17.9121   22.7142 C   0  0  0  0  0  0  0  0  0  0  0  0
  -23.0143   -9.8526   20.5662 C   0  0  0  0  0  0  0  0  0  0  0  0
  -23.6730  -10.3713   22.8321 C   0  0  0  0  0  0  0  0  0  0  0  0
  -17.3881  -27.8068   26.4140 C   0  0  0  0  0  0  0  0  0  0  0  0
  -19.4219  -26.1215   25.5367 C   0  0  0  0  0  0  0  0  0  0  0  0
  -24.4774  -25.8335   25.6011 C   0  0  0  0  0  0  0  0  0  0  0  0
  -31.8320  -18.9404   23.2040 C   0  0  0  0  0  0  0  0  0  0  0  0
  -32.0647  -16.8546   22.0071 C   0  0  0  0  0  0  0  0  0  0  0  0
  -22.2280   -8.8004   21.0356 C   0  0  0  0  0  0  0  0  0  0  0  0
  -22.8867   -9.3191   23.3015 C   0  0  0  0  0  0  0  0  0  0  0  0
  -25.0420  -24.5600   25.6567 C   0  0  0  0  0  0  0  0  0  0  0  0
  -19.6141   -8.7366   23.9109 C   0  0  0  0  0  0  0  0  0  0  0  0
  -18.8058   -8.9790   25.0216 C   0  0  0  0  0  0  0  0  0  0  0  0
  -25.4459  -24.6418   23.2799 C   0  0  0  0  0  0  0  0  0  0  0  0
  -29.8820  -17.8539   22.2798 C   0  0  0  0  0  0  0  0  0  0  0  0
  -19.9588   -7.2403   26.2401 C   0  0  0  0  0  0  0  0  0  0  0  0
  -23.7368  -10.6380   21.4644 C   0  0  0  0  0  0  0  0  0  0  0  0
  -24.1544  -13.0623   20.7891 C   0  0  0  0  0  0  0  0  0  0  0  0
  -17.9520  -28.0118   25.1449 C   0  0  0  0  0  0  0  0  0  0  0  0
  -24.3828  -26.5175   24.3805 C   0  0  0  0  0  0  0  0  0  0  0  0
  -18.9738  -27.1539   24.6952 C   0  0  0  0  0  0  0  0  0  0  0  0
  -24.8821  -25.9249   23.2119 C   0  0  0  0  0  0  0  0  0  0  0  0
  -30.4545  -18.9113   22.9869 C   0  0  0  0  0  0  0  0  0  0  0  0
  -30.6872  -16.8256   21.7899 C   0  0  0  0  0  0  0  0  0  0  0  0
  -22.1642   -8.5337   22.4032 C   0  0  0  0  0  0  0  0  0  0  0  0
  -25.5237  -23.9627   24.4956 C   0  0  0  0  0  0  0  0  0  0  0  0
  -20.5947   -7.7461   23.9648 C   0  0  0  0  0  0  0  0  0  0  0  0
  -18.9782   -8.2309   26.1862 C   0  0  0  0  0  0  0  0  0  0  0  0
  -20.7671   -6.9980   25.1294 C   0  0  0  0  0  0  0  0  0  0  0  0
  -24.5496  -11.7247   20.9801 C   0  0  0  0  0  0  0  0  0  0  0  0
  -25.2821  -13.6896   20.3186 C   0  0  0  0  0  0  0  0  0  0  0  0
  -22.8818  -13.6823   21.0166 C   0  0  0  0  0  0  0  0  0  0  0  0
  -28.9034  -21.9606   24.5533 C   0  0  0  0  0  0  0  0  0  0  0  0
  -30.0516  -21.0644   24.1886 C   0  0  0  0  0  0  0  0  0  0  0  0
  -21.9866  -27.6219   22.6079 C   0  0  0  0  0  0  0  0  0  0  0  0
  -24.3935  -28.8815   20.8353 C   0  0  0  0  0  0  0  0  0  0  0  0
  -27.6683  -28.7465   19.8841 C   0  0  0  0  0  0  0  0  0  0  0  0
  -30.7626  -14.6522   20.5182 C   0  0  0  0  0  0  0  0  0  0  0  0
  -17.3954  -29.1084   24.2719 C   0  0  0  0  0  0  0  0  0  0  0  0
  -23.7954  -27.9016   24.3417 C   0  0  0  0  0  0  0  0  0  0  0  0
  -24.8227  -26.6254   21.8798 C   0  0  0  0  0  0  0  0  0  0  0  0
  -18.3018  -29.4720   23.0986 C   0  0  0  0  0  0  0  0  0  0  0  0
  -29.6855  -11.7801   18.7106 C   0  0  0  0  0  0  0  0  0  0  0  0
  -18.7947  -28.2119   22.3943 C   0  0  0  0  0  0  0  0  0  0  0  0
  -28.2208  -11.6197   19.1242 C   0  0  0  0  0  0  0  0  0  0  0  0
  -30.5532  -12.2620   19.8718 C   0  0  0  0  0  0  0  0  0  0  0  0
  -28.6088  -13.3165   20.9565 C   0  0  0  0  0  0  0  0  0  0  0  0
  -19.6262  -27.3395   23.3424 C   0  0  1  0  0  0  0  0  0  0  0  0
  -23.2832  -28.2948   22.9595 C   0  0  1  0  0  0  0  0  0  0  0  0
  -27.6839  -12.8951   19.8029 C   0  0  2  0  0  0  0  0  0  0  0  0
  -29.3353  -29.8857   18.3940 C   0  0  0  0  0  0  0  0  0  0  0  0
  -23.1492  -27.5188   18.4054 C   0  0  0  0  0  0  0  0  0  0  0  0
  -25.3057  -27.8796   17.1858 C   0  0  0  0  0  0  0  0  0  0  0  0
  -23.9849  -29.8384   17.9865 C   0  0  0  0  0  0  0  0  0  0  0  0
  -29.3871  -29.4854   22.1772 C   0  0  0  0  0  0  0  0  0  0  0  0
  -27.8443  -21.3627   25.4531 C   0  0  0  0  0  0  0  0  0  0  0  0
  -26.7265  -22.3476   25.7607 C   0  0  0  0  0  0  0  0  0  1  0  0
  -25.2206  -28.4072   19.6648 C   0  0  1  0  0  0  0  0  0  0  0  0
  -28.7350  -29.8224   19.7898 C   0  0  2  0  0  0  0  0  0  0  0  0
  -24.4146  -28.3967   18.3352 C   0  0  0  0  0  0  0  0  0  0  0  0
  -25.8284  -11.5137   20.6572 N   0  0  0  0  0  0  0  0  0  0  0  0
  -26.2465  -12.7270   20.2584 N   0  0  0  0  0  0  0  0  0  0  0  0
  -24.2335  -27.9746   21.8925 N   0  0  0  0  0  0  0  0  0  0  0  0
  -29.9856  -13.4759   20.4627 N   0  0  0  0  0  0  0  0  0  0  0  0
  -25.5328  -14.9651   19.9545 N   0  0  0  0  0  0  0  0  0  0  0  0
  -21.8310  -12.8922   21.5022 N   0  0  0  0  0  0  0  0  0  0  0  0
  -29.6388  -19.9546   23.4834 N   0  0  0  0  0  0  0  0  0  0  0  0
  -30.1063  -15.7512   21.0715 N   0  0  0  0  0  0  0  0  0  0  0  0
  -20.9584  -27.8844   23.4930 N   0  0  0  0  0  0  0  0  0  0  0  0
  -26.4096  -29.2520   19.6361 N   0  0  0  0  0  0  0  0  0  0  0  0
  -29.8319  -29.5508   20.7613 N   0  3  0  0  0  0  0  0  0  0  0  0
  -22.6780  -14.8973   20.7804 O   0  0  0  0  0  0  0  0  0  0  0  0
  -28.9184  -23.0982   24.1081 O   0  0  0  0  0  0  0  0  0  0  0  0
  -31.1630  -21.4348   24.5285 O   0  0  0  0  0  0  0  0  0  0  0  0
  -21.9233  -26.9179   21.6069 O   0  0  0  0  0  0  0  0  0  0  0  0
  -23.9133  -30.0176   20.8155 O   0  0  0  0  0  0  0  0  0  0  0  0
  -27.9262  -27.5740   20.1474 O   0  0  0  0  0  0  0  0  0  0  0  0
  -31.9154  -14.6898   20.0804 O   0  0  0  0  0  0  0  0  0  0  0  0
  -21.3969   -7.5072   22.8616 O   0  0  0  0  0  0  0  0  0  0  0  0
  -26.0746  -22.7194   24.5470 O   0  0  0  0  0  0  0  0  0  1  0  0
  -18.2029   -8.4648   27.2531 F   0  0  0  0  0  0  0  0  0  0  0  0
  -21.7083   -6.0458   25.1876 F   0  0  0  0  0  0  0  0  0  0  0  0
  1  2  1  0  0  0  0
  1  6  2  0  0  0  0
  2  7  2  0  0  0  0
  3  9  2  0  0  0  0
  3 10  1  0  0  0  0
  4 11  2  0  0  0  0
  4 19  1  0  0  0  0
  5 12  1  0  0  0  0
  5 19  2  0  0  0  0
  6 21  1  0  0  0  0
  7 23  1  0  0  0  0
  8 13  2  0  0  0  0
  8 22  1  0  0  0  0
  9 25  1  0  0  0  0
 10 26  2  0  0  0  0
 11 27  1  0  0  0  0
 12 27  2  0  0  0  0
 13 28  1  0  0  0  0
 14 15  2  0  0  0  0
 14 29  1  0  0  0  0
 15 30  1  0  0  0  0
 16 24  1  0  0  0  0
 16 28  2  0  0  0  0
 17 25  2  0  0  0  0
 17 26  1  0  0  0  0
 18 30  2  0  0  0  0
 18 31  1  0  0  0  0
 19 32  1  0  0  0  0
 20 32  1  0  0  0  0
 20 33  2  0  0  0  0
 20 34  1  0  0  0  0
 21 23  2  0  0  0  0
 21 41  1  0  0  0  0
 22 24  2  0  0  0  0
 22 42  1  0  0  0  0
 23 50  1  0  0  0  0
 24 43  1  0  0  0  0
 25 69  1  0  0  0  0
 26 70  1  0  0  0  0
 27 81  1  0  0  0  0
 28 82  1  0  0  0  0
 29 31  2  0  0  0  0
 29 81  1  0  0  0  0
 30 83  1  0  0  0  0
 31 84  1  0  0  0  0
 32 63  2  0  0  0  0
 33 64  1  0  0  0  0
 33 67  1  0  0  0  0
 34 68  1  0  0  0  0
 34 74  2  0  0  0  0
 35 36  1  0  0  0  0
 35 58  1  0  0  0  0
 35 75  2  0  0  0  0
 36 69  1  0  0  0  0
 36 76  2  0  0  0  0
 37 51  1  0  0  0  0
 37 71  1  0  0  0  0
 37 77  2  0  0  0  0
 38 60  1  0  0  0  0
 38 65  1  0  0  0  0
 38 78  2  0  0  0  0
 39 61  1  0  0  0  0
 39 72  1  0  0  0  0
 39 79  2  0  0  0  0
 40 66  1  0  0  0  0
 40 70  1  0  0  0  0
 40 80  2  0  0  0  0
 41 44  1  0  0  0  0
 42 51  1  0  0  0  0
 43 65  1  0  0  0  0
 44 46  1  0  0  0  0
 45 47  1  0  0  0  0
 45 48  1  0  0  0  0
 46 50  1  0  0  0  0
 47 52  1  0  0  0  0
 48 66  1  0  0  0  0
 49 52  1  0  0  0  0
 49 66  1  0  0  0  0
 50 71  1  0  0  0  0
 51 65  1  0  0  0  0
 52 64  1  0  0  0  0
 53 61  1  0  0  0  0
 54 62  1  0  0  0  0
 55 62  1  0  0  0  0
 56 62  1  0  0  0  0
 57 73  1  0  0  0  0
 58 59  1  0  0  0  0
 59 82  1  0  0  0  0
 60 62  1  0  0  0  0
 60 72  1  0  0  0  0
 61 73  1  0  0  0  0
 63 64  1  0  0  0  0
M  CHG  1  73   1
M  ISO  4  40 100  59 101  70 100  82 101
M  END
> <Batch ID>
0170

> <Smiles>
CNC(C)C(=O)NC(C(=O)N1Cc2cc([101O:1][101CH2:1]CC(=O)C(=O)Nc3cccc([100NH:0][100C:0](=O)N4CCCC(n5nc(-c6ccc(Oc7ccc(F)cc7F)cc6)c(C(N)=O)c5N)C4)c3)ccc2CC1C(=O)NC1CCCc2ccccc21)C(C)(C)C

> <Shape>
0.256

> <Color>
0.166

> <Negative vol penalty>
0.000

$$$$

  -OEChem-04052304203D

 86 94  0     1  0  0  0  0  0999 V2000
  -23.8181  -37.8966   18.9278 C   0  0  0  0  0  0  0  0  0  0  0  0
  -24.0247  -36.7421   18.1796 C   0  0  0  0  0  0  0  0  0  0  0  0
  -30.4639  -19.8001   23.4385 C   0  0  0  0  0  0  0  0  0  0  0  0
  -30.1352   -6.4759   18.6450 C   0  0  0  0  0  0  0  0  0  0  0  0
  -28.4361   -6.7442   16.9486 C   0  0  0  0  0  0  0  0  0  0  0  0
  -30.7701  -18.5687   22.8593 C   0  0  0  0  0  0  0  0  0  0  0  0
  -24.3566  -38.0009   20.2096 C   0  0  0  0  0  0  0  0  0  0  0  0
  -24.7711  -35.6916   18.7125 C   0  0  0  0  0  0  0  0  0  0  0  0
  -25.2072  -28.5420   18.6163 C   0  0  0  0  0  0  0  0  0  0  0  0
  -30.0208  -20.8551   22.6408 C   0  0  0  0  0  0  0  0  0  0  0  0
  -29.7798   -5.1348   18.7889 C   0  0  0  0  0  0  0  0  0  0  0  0
  -28.0807   -5.4030   17.0924 C   0  0  0  0  0  0  0  0  0  0  0  0
  -26.1320  -27.5222   18.3960 C   0  0  0  0  0  0  0  0  0  0  0  0
  -29.2478   -2.3965   16.0827 C   0  0  0  0  0  0  0  0  0  0  0  0
  -29.0493   -1.6519   14.9201 C   0  0  0  0  0  0  0  0  0  0  0  0
  -26.9471  -27.7823   20.6515 C   0  0  0  0  0  0  0  0  0  0  0  0
  -26.7699   -1.2133   15.5901 C   0  0  0  0  0  0  0  0  0  0  0  0
  -29.4633   -7.2806   17.7249 C   0  0  0  0  0  0  0  0  0  0  0  0
  -30.6334  -18.3923   21.4824 C   0  0  0  0  0  0  0  0  0  0  0  0
  -30.1903  -19.4473   20.6847 C   0  0  0  0  0  0  0  0  0  0  0  0
  -30.7907   -9.2019   16.6980 C   0  0  0  0  0  0  0  0  0  0  0  0
  -25.1018  -36.9474   20.7621 C   0  0  0  0  0  0  0  0  0  0  0  0
  -25.1527  -29.1981   19.8545 C   0  0  0  0  0  0  0  0  0  0  0  0
  -25.3212  -35.7825   20.0023 C   0  0  0  0  0  0  0  0  0  0  0  0
  -26.0190  -28.8083   20.8858 C   0  0  0  0  0  0  0  0  0  0  0  0
  -29.8840  -20.6787   21.2639 C   0  0  0  0  0  0  0  0  0  0  0  0
  -28.7526   -4.5983   18.0126 C   0  0  0  0  0  0  0  0  0  0  0  0
  -27.0041  -27.1442   19.4127 C   0  0  0  0  0  0  0  0  0  0  0  0
  -28.2073   -2.5495   16.9991 C   0  0  0  0  0  0  0  0  0  0  0  0
  -27.8104   -1.0603   14.6737 C   0  0  0  0  0  0  0  0  0  0  0  0
  -26.9684   -1.9579   16.7528 C   0  0  0  0  0  0  0  0  0  0  0  0
  -29.8296   -8.6662   17.5762 C   0  0  0  0  0  0  0  0  0  0  0  0
  -30.7613  -10.5536   16.9400 C   0  0  0  0  0  0  0  0  0  0  0  0
  -30.9634  -17.0902   20.9156 C   0  0  0  0  0  0  0  0  0  0  0  0
  -30.3532  -15.9283   21.2239 C   0  0  0  0  0  0  0  0  0  0  0  0
  -30.0490  -19.2725   19.2400 C   0  0  0  0  0  0  0  0  0  0  0  0
  -31.6344   -8.5372   15.7484 C   0  0  0  0  0  0  0  0  0  0  0  0
  -30.7967  -14.6892   20.5540 C   0  0  0  0  0  0  0  0  0  0  0  0
  -25.5949  -32.1914   20.8282 C   0  0  0  0  0  0  0  0  0  0  0  0
  -28.6758  -23.9624   19.9075 C   0  0  0  0  0  0  0  0  0  0  0  0
  -24.5893  -31.0020   23.6736 C   0  0  0  0  0  0  0  0  0  0  0  0
  -24.2094  -28.2883   25.7079 C   0  0  0  0  0  0  0  0  0  0  0  0
  -25.7039  -37.1252   22.1335 C   0  0  0  0  0  0  0  0  0  0  0  0
  -24.1313  -30.2780   20.0849 C   0  0  0  0  0  0  0  0  0  0  0  0
  -25.9872  -29.4674   22.2397 C   0  0  0  0  0  0  0  0  0  0  0  0
  -26.1666  -35.8170   22.7698 C   0  0  0  0  0  0  0  0  0  0  0  0
  -27.5185  -13.3688   19.5838 C   0  0  0  0  0  0  0  0  0  0  0  0
  -26.9642  -34.9887   21.7676 C   0  0  0  0  0  0  0  0  0  0  0  0
  -27.9146  -12.0416   18.9424 C   0  0  0  0  0  0  0  0  0  0  0  0
  -28.4362  -13.7374   20.7485 C   0  0  0  0  0  0  0  0  0  0  0  0
  -30.2794  -12.4195   19.7455 C   0  0  0  0  0  0  0  0  0  0  0  0
  -26.1043  -34.6115   20.5553 C   0  0  1  0  0  0  0  0  0  0  0  0
  -24.5104  -31.2271   21.2175 C   0  0  1  0  0  0  0  0  0  0  0  0
  -29.3982  -12.0522   18.5414 C   0  0  1  0  0  0  0  0  0  0  0  0
  -28.7242  -18.7915   18.7339 C   0  0  0  0  0  0  0  0  0  0  0  0
  -23.3919  -27.6353   27.9889 C   0  0  0  0  0  0  0  0  0  0  0  0
  -27.1280  -32.1565   24.9114 C   0  0  0  0  0  0  0  0  0  0  0  0
  -26.7371  -30.6944   26.9058 C   0  0  0  0  0  0  0  0  0  0  0  0
  -25.0669  -32.4449   26.2982 C   0  0  0  0  0  0  0  0  0  0  0  0
  -22.1383  -26.4997   24.5808 C   0  0  0  0  0  0  0  0  0  0  0  0
  -29.1146  -23.0402   21.0252 C   0  0  0  0  0  0  0  0  0  0  0  0
  -28.2904  -25.3667   20.3304 C   0  0  0  0  0  0  0  0  0  1  0  0
  -25.2644  -30.3702   24.8669 C   0  0  1  0  0  0  0  0  0  0  0  0
  -23.0257  -27.7974   26.5217 C   0  0  2  0  0  0  0  0  0  0  0  0
  -26.0513  -31.4052   25.7196 C   0  0  0  0  0  0  0  0  0  0  0  0
  -29.2333   -9.6012   18.3206 N   0  0  0  0  0  0  0  0  0  0  0  0
  -29.8213  -10.7381   17.9109 N   0  0  0  0  0  0  0  0  0  0  0  0
  -29.8524  -13.6835   20.3558 N   0  0  0  0  0  0  0  0  0  0  0  0
  -24.9750  -30.5222   22.4140 N   0  0  0  0  0  0  0  0  0  0  0  0
  -31.4481  -11.5904   16.4150 N   0  0  0  0  0  0  0  0  0  0  0  0
  -31.5363   -7.1443   15.6274 N   0  0  0  0  0  0  0  0  0  0  0  0
  -29.4444  -21.7438   20.4908 N   0  0  0  0  0  0  0  0  0  0  0  0
  -25.2152  -33.5187   20.8866 N   0  0  0  0  0  0  0  0  0  0  0  0
  -24.2199  -29.6629   25.5998 N   0  0  0  0  0  0  0  0  0  0  0  0
  -22.5535  -26.4809   26.0070 N   0  3  0  0  0  0  0  0  0  0  0  0
  -30.9381  -19.4871   18.4199 O   0  0  0  0  0  0  0  0  0  0  0  0
  -32.4629   -9.1580   15.0401 O   0  0  0  0  0  0  0  0  0  0  0  0
  -31.9793  -14.6183   20.2146 O   0  0  0  0  0  0  0  0  0  0  0  0
  -26.6953  -31.7630   20.5007 O   0  0  0  0  0  0  0  0  0  0  0  0
  -28.6308  -23.6068   18.7306 O   0  0  0  0  0  0  0  0  0  0  0  0
  -23.7454  -31.8837   23.8529 O   0  0  0  0  0  0  0  0  0  0  0  0
  -25.0434  -27.5287   25.2203 O   0  0  0  0  0  0  0  0  0  0  0  0
  -28.4057   -3.2896   18.1526 O   0  0  0  0  0  0  0  0  0  0  0  0
  -27.9082  -26.1495   19.2001 O   0  0  0  0  0  0  0  0  0  1  0  0
  -27.6195   -0.3466   13.5564 F   0  0  0  0  0  0  0  0  0  0  0  0
  -25.9647   -2.1023   17.6289 F   0  0  0  0  0  0  0  0  0  0  0  0
  1  2  1  0  0  0  0
  1  7  2  0  0  0  0
  2  8  2  0  0  0  0
  3  6  1  0  0  0  0
  3 10  2  0  0  0  0
  4 11  2  0  0  0  0
  4 18  1  0  0  0  0
  5 12  1  0  0  0  0
  5 18  2  0  0  0  0
  6 19  2  0  0  0  0
  7 22  1  0  0  0  0
  8 24  1  0  0  0  0
  9 13  2  0  0  0  0
  9 23  1  0  0  0  0
 10 26  1  0  0  0  0
 11 27  1  0  0  0  0
 12 27  2  0  0  0  0
 13 28  1  0  0  0  0
 14 15  2  0  0  0  0
 14 29  1  0  0  0  0
 15 30  1  0  0  0  0
 16 25  1  0  0  0  0
 16 28  2  0  0  0  0
 17 30  2  0  0  0  0
 17 31  1  0  0  0  0
 18 32  1  0  0  0  0
 19 20  1  0  0  0  0
 19 34  1  0  0  0  0
 20 26  2  0  0  0  0
 20 36  1  0  0  0  0
 21 32  1  0  0  0  0
 21 33  2  0  0  0  0
 21 37  1  0  0  0  0
 22 24  2  0  0  0  0
 22 43  1  0  0  0  0
 23 25  2  0  0  0  0
 23 44  1  0  0  0  0
 24 52  1  0  0  0  0
 25 45  1  0  0  0  0
 26 72  1  0  0  0  0
 27 83  1  0  0  0  0
 28 84  1  0  0  0  0
 29 31  2  0  0  0  0
 29 83  1  0  0  0  0
 30 85  1  0  0  0  0
 31 86  1  0  0  0  0
 32 66  2  0  0  0  0
 33 67  1  0  0  0  0
 33 70  1  0  0  0  0
 34 35  2  0  0  0  0
 35 38  1  0  0  0  0
 36 55  1  0  0  0  0
 36 76  2  0  0  0  0
 37 71  1  0  0  0  0
 37 77  2  0  0  0  0
 38 68  1  0  0  0  0
 38 78  2  0  0  0  0
 39 53  1  0  0  0  0
 39 73  1  0  0  0  0
 39 79  2  0  0  0  0
 40 61  1  0  0  0  0
 40 62  1  0  0  0  0
 40 80  2  0  0  0  0
 41 63  1  0  0  0  0
 41 69  1  0  0  0  0
 41 81  2  0  0  0  0
 42 64  1  0  0  0  0
 42 74  1  0  0  0  0
 42 82  2  0  0  0  0
 43 46  1  0  0  0  0
 44 53  1  0  0  0  0
 45 69  1  0  0  0  0
 46 48  1  0  0  0  0
 47 49  1  0  0  0  0
 47 50  1  0  0  0  0
 48 52  1  0  0  0  0
 49 54  1  0  0  0  0
 50 68  1  0  0  0  0
 51 54  1  0  0  0  0
 51 68  1  0  0  0  0
 52 73  1  0  0  0  0
 53 69  1  0  0  0  0
 54 67  1  0  0  0  0
 56 64  1  0  0  0  0
 57 65  1  0  0  0  0
 58 65  1  0  0  0  0
 59 65  1  0  0  0  0
 60 75  1  0  0  0  0
 61 72  1  0  0  0  0
 62 84  1  0  0  0  0
 63 65  1  0  0  0  0
 63 74  1  0  0  0  0
 64 75  1  0  0  0  0
 66 67  1  0  0  0  0
M  CHG  1  75   1
M  ISO  4  35 100  38 100  62 101  84 101
M  END
> <Batch ID>
0170

> <Smiles>
CNC(C)C(=O)NC(C(=O)N1Cc2cc([101O:1][101CH2:1]C(=O)CNc3cccc(C=[100CH:0][100C:0](=O)N4CCCC(n5nc(-c6ccc(Oc7ccc(F)cc7F)cc6)c(C(N)=O)c5N)C4)c3C(C)=O)ccc2CC1C(=O)NC1CCCc2ccccc21)C(C)(C)C

> <Shape>
0.229

> <Color>
0.117

> <Negative vol penalty>
0.000

$$$$

  -OEChem-04052304202D

  0  0  0     0  0  0  0  0  0999 V2000
M  END
$$$$

  -OEChem-04052304203D

 84 92  0     1  0  0  0  0  0999 V2000
  -27.2364  -28.8272   19.8816 C   0  0  0  0  0  0  0  0  0  0  0  0
  -27.5407  -27.5534   20.3512 C   0  0  0  0  0  0  0  0  0  0  0  0
  -23.2947   -9.7493   19.9668 C   0  0  0  0  0  0  0  0  0  0  0  0
  -23.5885  -10.0725   22.3430 C   0  0  0  0  0  0  0  0  0  0  0  0
  -25.9118  -29.2616   19.8565 C   0  0  0  0  0  0  0  0  0  0  0  0
  -26.5206  -26.7138   20.7969 C   0  0  0  0  0  0  0  0  0  0  0  0
  -26.9994  -21.9821   19.0570 C   0  0  0  0  0  0  0  0  0  0  0  0
  -22.5661   -8.5861   20.2151 C   0  0  0  0  0  0  0  0  0  0  0  0
  -22.8599   -8.9093   22.5913 C   0  0  0  0  0  0  0  0  0  0  0  0
  -27.9374  -21.1644   19.6857 C   0  0  0  0  0  0  0  0  0  0  0  0
  -21.3847   -5.8315   23.8407 C   0  0  0  0  0  0  0  0  0  0  0  0
  -21.8883   -4.9411   24.7889 C   0  0  0  0  0  0  0  0  0  0  0  0
  -26.1701  -20.1241   20.9560 C   0  0  0  0  0  0  0  0  0  0  0  0
  -23.8996   -4.6804   23.4760 C   0  0  0  0  0  0  0  0  0  0  0  0
  -31.4146  -17.6533   24.6927 C   0  0  0  0  0  0  0  0  0  0  0  0
  -23.8060  -10.4925   21.0308 C   0  0  0  0  0  0  0  0  0  0  0  0
  -24.0567  -13.0038   20.6590 C   0  0  0  0  0  0  0  0  0  0  0  0
  -24.8740  -28.4233   20.2932 C   0  0  0  0  0  0  0  0  0  0  0  0
  -25.6387  -21.8844   19.3815 C   0  0  0  0  0  0  0  0  0  0  0  0
  -25.1810  -27.1379   20.7789 C   0  0  0  0  0  0  0  0  0  0  0  0
  -25.2165  -20.9400   20.3281 C   0  0  0  0  0  0  0  0  0  0  0  0
  -22.3487   -8.1661   21.5273 C   0  0  0  0  0  0  0  0  0  0  0  0
  -27.5231  -20.2372   20.6375 C   0  0  0  0  0  0  0  0  0  0  0  0
  -22.1386   -6.1464   22.7101 C   0  0  0  0  0  0  0  0  0  0  0  0
  -23.1457   -4.3655   24.6066 C   0  0  0  0  0  0  0  0  0  0  0  0
  -23.3960   -5.5708   22.5277 C   0  0  0  0  0  0  0  0  0  0  0  0
  -31.9226  -16.8258   25.6879 C   0  0  0  0  0  0  0  0  0  0  0  0
  -31.9191  -15.4472   25.5070 C   0  0  0  0  0  0  0  0  0  0  0  0
  -24.5592  -11.6939   20.7749 C   0  0  0  0  0  0  0  0  0  0  0  0
  -31.4003  -14.9499   24.3224 C   0  0  0  0  0  0  0  0  0  0  0  0
  -30.9186  -17.0572   23.5444 C   0  0  0  0  0  0  0  0  0  0  0  0
  -25.1659  -13.7769   20.4176 C   0  0  0  0  0  0  0  0  0  0  0  0
  -22.7079  -13.4792   20.7607 C   0  0  0  0  0  0  0  0  0  0  0  0
  -23.4815  -23.8606   20.6243 C   0  0  0  0  0  0  0  0  0  0  0  0
  -21.4413  -21.4285   19.9575 C   0  0  0  0  0  0  0  0  0  0  0  0
  -20.9935  -18.0894   19.4125 C   0  0  0  0  0  0  0  0  0  0  0  0
  -30.9776  -13.0752   21.6757 C   0  0  0  0  0  0  0  0  0  0  0  0
  -23.4624  -28.9544   20.2914 C   0  0  0  0  0  0  0  0  0  0  0  0
  -24.6363  -22.7552   18.6749 C   0  0  0  0  0  0  0  0  0  0  0  0
  -23.7650  -20.7815   20.6973 C   0  0  0  0  0  0  0  0  0  0  0  0
  -22.4017  -27.8654   20.4309 C   0  0  0  0  0  0  0  0  0  0  0  0
  -29.5266  -13.5615   18.4609 C   0  0  0  0  0  0  0  0  0  0  0  0
  -22.7740  -26.8979   21.5499 C   0  0  0  0  0  0  0  0  0  0  0  0
  -28.0437  -13.2562   18.6789 C   0  0  0  0  0  0  0  0  0  0  0  0
  -30.4198  -12.6502   19.2998 C   0  0  0  0  0  0  0  0  0  0  0  0
  -28.6263  -12.3301   20.9597 C   0  0  0  0  0  0  0  0  0  0  0  0
  -24.0996  -26.1887   21.2477 C   0  0  1  0  0  0  0  0  0  0  0  0
  -23.3374  -22.9263   19.4565 C   0  0  1  0  0  0  0  0  0  0  0  0
  -27.6845  -13.2611   20.1770 C   0  0  2  0  0  0  0  0  0  0  0  0
  -19.2070  -16.3943   18.9305 C   0  0  0  0  0  0  0  0  0  0  0  0
  -20.5469  -21.5457   22.8723 C   0  0  0  0  0  0  0  0  0  0  0  0
  -19.5126  -19.2854   22.5732 C   0  0  0  0  0  0  0  0  0  0  0  0
  -18.6940  -21.2180   21.2249 C   0  0  0  0  0  0  0  0  0  0  0  0
  -22.2372  -17.3410   16.8334 C   0  0  0  0  0  0  0  0  0  0  0  0
  -31.3792  -13.4757   24.0918 C   0  0  0  0  0  0  0  0  0  0  0  0
  -30.3850  -19.3345   22.6757 C   0  0  0  0  0  0  0  0  0  0  0  0
  -20.9522  -20.2090   20.7009 C   0  0  1  0  0  0  0  0  0  0  0  0
  -20.2385  -17.3376   18.3313 C   0  0  2  0  0  0  0  0  0  0  0  0
  -29.7607  -19.9498   21.4317 C   0  0  2  0  0  0  0  0  0  1  0  0
  -19.9541  -20.5686   21.8375 C   0  0  0  0  0  0  0  0  0  0  0  0
  -25.8845  -11.6344   20.6197 N   0  0  0  0  0  0  0  0  0  0  0  0
  -30.8982  -15.7221   23.3329 N   0  0  0  0  0  0  0  0  0  0  0  0
  -26.2241  -12.9166   20.4037 N   0  0  0  0  0  0  0  0  0  0  0  0
  -22.8239  -21.6602   19.9834 N   0  0  0  0  0  0  0  0  0  0  0  0
  -30.0279  -12.7020   20.7104 N   0  0  0  0  0  0  0  0  0  0  0  0
  -25.3296  -15.1020   20.2178 N   0  0  0  0  0  0  0  0  0  0  0  0
  -21.6891  -12.5501   21.0123 N   0  0  0  0  0  0  0  0  0  0  0  0
  -30.4161  -17.8943   22.5621 N   0  0  0  0  0  0  0  0  0  0  0  0
  -23.8983  -25.1321   20.2795 N   0  0  0  0  0  0  0  0  0  0  0  0
  -20.4087  -19.3064   19.6918 N   0  0  0  0  0  0  0  0  0  0  0  0
  -30.5219  -13.1050   22.9879 N   0  0  0  0  0  0  0  0  0  0  0  0
  -21.1825  -16.5363   17.5020 N   0  3  0  0  0  0  0  0  0  0  0  0
  -22.4127  -14.6898   20.6159 O   0  0  0  0  0  0  0  0  0  0  0  0
  -23.2315  -23.4582   21.7545 O   0  0  0  0  0  0  0  0  0  0  0  0
  -20.6275  -22.1449   19.3692 O   0  0  0  0  0  0  0  0  0  0  0  0
  -21.9993  -17.6402   19.9577 O   0  0  0  0  0  0  0  0  0  0  0  0
  -32.1439  -13.3659   21.3886 O   0  0  0  0  0  0  0  0  0  0  0  0
  -21.6375   -7.0312   21.7700 O   0  0  0  0  0  0  0  0  0  0  0  0
  -28.4367  -19.4383   21.2532 O   0  0  0  0  0  0  0  0  0  1  0  0
  -23.6298   -3.5116   25.5180 F   0  0  0  0  0  0  0  0  0  0  0  0
  -24.1253   -5.8704   21.4442 F   0  0  0  0  0  0  0  0  0  0  0  0
  -32.4135  -17.3545   26.8163 F   0  0  0  0  0  0  0  0  0  0  0  0
  -32.4041  -14.6353   26.4544 F   0  0  0  0  0  0  0  0  0  0  0  0
  -30.5105  -19.6107   20.3490 F   0  0  0  0  0  0  0  0  0  0  0  0
  1  2  1  0  0  0  0
  1  5  2  0  0  0  0
  2  6  2  0  0  0  0
  3  8  2  0  0  0  0
  3 16  1  0  0  0  0
  4  9  1  0  0  0  0
  4 16  2  0  0  0  0
  5 18  1  0  0  0  0
  6 20  1  0  0  0  0
  7 10  2  0  0  0  0
  7 19  1  0  0  0  0
  8 22  1  0  0  0  0
  9 22  2  0  0  0  0
 10 23  1  0  0  0  0
 11 12  2  0  0  0  0
 11 24  1  0  0  0  0
 12 25  1  0  0  0  0
 13 21  1  0  0  0  0
 13 23  2  0  0  0  0
 14 25  2  0  0  0  0
 14 26  1  0  0  0  0
 15 27  2  0  0  0  0
 15 31  1  0  0  0  0
 16 29  1  0  0  0  0
 17 29  1  0  0  0  0
 17 32  2  0  0  0  0
 17 33  1  0  0  0  0
 18 20  2  0  0  0  0
 18 38  1  0  0  0  0
 19 21  2  0  0  0  0
 19 39  1  0  0  0  0
 20 47  1  0  0  0  0
 21 40  1  0  0  0  0
 22 78  1  0  0  0  0
 23 79  1  0  0  0  0
 24 26  2  0  0  0  0
 24 78  1  0  0  0  0
 25 80  1  0  0  0  0
 26 81  1  0  0  0  0
 27 28  1  0  0  0  0
 27 82  1  0  0  0  0
 28 30  2  0  0  0  0
 28 83  1  0  0  0  0
 29 61  2  0  0  0  0
 30 55  1  0  0  0  0
 30 62  1  0  0  0  0
 31 62  2  0  0  0  0
 31 68  1  0  0  0  0
 32 63  1  0  0  0  0
 32 66  1  0  0  0  0
 33 67  1  0  0  0  0
 33 73  2  0  0  0  0
 34 48  1  0  0  0  0
 34 69  1  0  0  0  0
 34 74  2  0  0  0  0
 35 57  1  0  0  0  0
 35 64  1  0  0  0  0
 35 75  2  0  0  0  0
 36 58  1  0  0  0  0
 36 70  1  0  0  0  0
 36 76  2  0  0  0  0
 37 65  1  0  0  0  0
 37 71  1  0  0  0  0
 37 77  2  0  0  0  0
 38 41  1  0  0  0  0
 39 48  1  0  0  0  0
 40 64  1  0  0  0  0
 41 43  1  0  0  0  0
 42 44  1  0  0  0  0
 42 45  1  0  0  0  0
 43 47  1  0  0  0  0
 44 49  1  0  0  0  0
 45 65  1  0  0  0  0
 46 49  1  0  0  0  0
 46 65  1  0  0  0  0
 47 69  1  0  0  0  0
 48 64  1  0  0  0  0
 49 63  1  0  0  0  0
 50 58  1  0  0  0  0
 51 60  1  0  0  0  0
 52 60  1  0  0  0  0
 53 60  1  0  0  0  0
 54 72  1  0  0  0  0
 55 71  1  0  0  0  0
 56 59  1  0  0  0  0
 56 68  1  0  0  0  0
 57 60  1  0  0  0  0
 57 70  1  0  0  0  0
 58 72  1  0  0  0  0
 59 79  1  0  0  0  0
 59 84  1  0  0  0  0
 61 63  1  0  0  0  0
M  CHG  1  72   1
M  ISO  4  37 100  59 101  71 100  79 101
M  END
> <Batch ID>
0170

> <Smiles>
CNC(C)C(=O)NC(C(=O)N1Cc2cc([101O:1][101CH:1](F)CNc3cc(F)c(F)c(C[100NH:0][100C:0](=O)N4CCCC(n5nc(-c6ccc(Oc7ccc(F)cc7F)cc6)c(C(N)=O)c5N)C4)n3)ccc2CC1C(=O)NC1CCCc2ccccc21)C(C)(C)C

> <Shape>
0.217

> <Color>
0.198

> <Negative vol penalty>
0.000

$$$$

  -OEChem-04052304203D

 88 96  0     1  0  0  0  0  0999 V2000
  -27.1872  -13.7657   19.6853 C   0  0  0  0  0  0  0  0  0  0  0  0
  -27.1311  -15.1553   19.7207 C   0  0  0  0  0  0  0  0  0  0  0  0
  -29.6496  -20.4446   18.0478 C   0  0  0  0  0  0  0  0  0  0  0  0
  -28.3661  -20.5977   20.0889 C   0  0  0  0  0  0  0  0  0  0  0  0
  -26.1185  -13.0135   20.1710 C   0  0  0  0  0  0  0  0  0  0  0  0
  -26.0057  -15.7935   20.2409 C   0  0  0  0  0  0  0  0  0  0  0  0
  -24.0934  -21.6812   23.8457 C   0  0  0  0  0  0  0  0  0  0  0  0
  -30.1576  -19.2126   18.4596 C   0  0  0  0  0  0  0  0  0  0  0  0
  -28.8740  -19.3656   20.5007 C   0  0  0  0  0  0  0  0  0  0  0  0
  -23.2025  -22.7507   23.7667 C   0  0  0  0  0  0  0  0  0  0  0  0
  -31.7335  -18.1779   21.8586 C   0  0  0  0  0  0  0  0  0  0  0  0
  -32.1752  -18.0669   23.1770 C   0  0  0  0  0  0  0  0  0  0  0  0
  -21.4499  -21.3482   24.6502 C   0  0  0  0  0  0  0  0  0  0  0  0
  -24.5502  -28.6958   21.5157 C   0  0  0  0  0  0  0  0  0  0  0  0
  -25.7498  -30.5673   20.5697 C   0  0  0  0  0  0  0  0  0  0  0  0
  -30.5539  -16.3200   23.5732 C   0  0  0  0  0  0  0  0  0  0  0  0
  -28.7539  -21.1372   18.8625 C   0  0  0  0  0  0  0  0  0  0  0  0
  -23.4116  -30.7923   21.1344 C   0  0  0  0  0  0  0  0  0  0  0  0
  -27.0613  -22.6405   17.6864 C   0  0  0  0  0  0  0  0  0  0  0  0
  -24.9835  -13.6427   20.7062 C   0  0  0  0  0  0  0  0  0  0  0  0
  -23.6658  -20.4321   24.3181 C   0  0  0  0  0  0  0  0  0  0  0  0
  -24.9202  -15.0490   20.7330 C   0  0  0  0  0  0  0  0  0  0  0  0
  -22.3380  -20.2652   24.7366 C   0  0  0  0  0  0  0  0  0  0  0  0
  -25.7294  -29.2446   21.0121 C   0  0  0  0  0  0  0  0  0  0  0  0
  -23.3912  -29.4696   21.5768 C   0  0  0  0  0  0  0  0  0  0  0  0
  -29.7698  -18.6730   19.6860 C   0  0  0  0  0  0  0  0  0  0  0  0
  -21.8798  -22.5835   24.1662 C   0  0  0  0  0  0  0  0  0  0  0  0
  -30.7019  -17.3599   21.3975 C   0  0  0  0  0  0  0  0  0  0  0  0
  -31.5854  -17.1380   24.0343 C   0  0  0  0  0  0  0  0  0  0  0  0
  -24.5909  -31.3412   20.6308 C   0  0  0  0  0  0  0  0  0  0  0  0
  -30.1122  -16.4310   22.2547 C   0  0  0  0  0  0  0  0  0  0  0  0
  -28.2293  -22.4103   18.4379 C   0  0  0  0  0  0  0  0  0  0  0  0
  -27.0048  -24.0060   17.5494 C   0  0  0  0  0  0  0  0  0  0  0  0
  -22.2160  -31.6242   21.1884 C   0  0  0  0  0  0  0  0  0  0  0  0
  -26.1123  -21.7038   17.1594 C   0  0  0  0  0  0  0  0  0  0  0  0
  -20.7333  -27.2733   23.0268 C   0  0  0  0  0  0  0  0  0  0  0  0
  -20.4145  -25.8910   23.5620 C   0  0  0  0  0  0  0  0  0  0  0  0
  -23.4765  -17.5105   23.0802 C   0  0  0  0  0  0  0  0  0  0  0  0
  -22.6281  -16.7058   26.1059 C   0  0  0  0  0  0  0  0  0  0  0  0
  -21.3222  -17.6795   29.1047 C   0  0  0  0  0  0  0  0  0  0  0  0
  -28.1592  -28.8492   20.4770 C   0  0  0  0  0  0  0  0  0  0  0  0
  -23.8331  -12.7878   21.1759 C   0  0  0  0  0  0  0  0  0  0  0  0
  -24.6458  -19.2958   24.4224 C   0  0  0  0  0  0  0  0  0  0  0  0
  -21.8340  -18.9500   25.2703 C   0  0  0  0  0  0  0  0  0  0  0  0
  -22.8357  -13.5382   22.0546 C   0  0  0  0  0  0  0  0  0  0  0  0
  -30.3008  -27.6813   17.8834 C   0  0  0  0  0  0  0  0  0  0  0  0
  -22.4852  -14.8864   21.4330 C   0  0  0  0  0  0  0  0  0  0  0  0
  -29.8719  -26.2254   17.6872 C   0  0  0  0  0  0  0  0  0  0  0  0
  -30.2434  -28.0964   19.3524 C   0  0  0  0  0  0  0  0  0  0  0  0
  -28.5301  -26.3896   19.8225 C   0  0  0  0  0  0  0  0  0  0  0  0
  -23.7271  -15.7778   21.3123 C   0  0  1  0  0  0  0  0  0  0  0  0
  -23.9736  -17.9263   24.4357 C   0  0  1  0  0  0  0  0  0  0  0  0
  -28.5095  -25.9449   18.3509 C   0  0  2  0  0  0  0  0  0  0  0  0
  -22.2826  -32.8759   22.0116 C   0  0  0  0  0  0  0  0  0  0  0  0
  -20.7186  -16.7903   31.3724 C   0  0  0  0  0  0  0  0  0  0  0  0
  -20.1427  -15.3876   24.9248 C   0  0  0  0  0  0  0  0  0  0  0  0
  -19.1452  -15.3716   27.2211 C   0  0  0  0  0  0  0  0  0  0  0  0
  -21.2370  -14.0921   26.7629 C   0  0  0  0  0  0  0  0  0  0  0  0
  -23.2195  -19.5066   30.4541 C   0  0  0  0  0  0  0  0  0  0  0  0
  -22.1381  -27.5463   22.5548 C   0  0  0  0  0  0  0  0  0  0  0  0
  -21.5161  -24.8621   23.5901 C   0  0  0  0  0  0  0  0  0  1  0  0
  -21.3252  -16.6168   26.8630 C   0  0  1  0  0  0  0  0  0  0  0  0
  -21.7954  -17.4560   30.5297 C   0  0  2  0  0  0  0  0  0  0  0  0
  -20.4712  -15.3914   26.4311 C   0  0  0  0  0  0  0  0  0  0  0  0
  -28.8687  -23.5390   18.7559 N   0  0  0  0  0  0  0  0  0  0  0  0
  -28.0998  -24.4917   18.2015 N   0  0  0  0  0  0  0  0  0  0  0  0
  -22.8289  -17.8675   25.3469 N   0  0  0  0  0  0  0  0  0  0  0  0
  -28.9222  -27.8049   19.9132 N   0  0  0  0  0  0  0  0  0  0  0  0
  -26.1257  -24.8265   16.9360 N   0  0  0  0  0  0  0  0  0  0  0  0
  -26.3217  -20.3378   17.3927 N   0  0  0  0  0  0  0  0  0  0  0  0
  -26.9065  -28.4583   20.9487 N   0  0  0  0  0  0  0  0  0  0  0  0
  -22.2292  -28.9053   22.0809 N   0  0  0  0  0  0  0  0  0  0  0  0
  -24.0611  -16.3557   22.5963 N   0  0  0  0  0  0  0  0  0  0  0  0
  -21.6742  -16.6325   28.2795 N   0  0  0  0  0  0  0  0  0  0  0  0
  -22.1542  -18.7549   31.1661 N   0  3  0  0  0  0  0  0  0  0  0  0
  -21.1574  -31.3723   20.6129 O   0  0  0  0  0  0  0  0  0  0  0  0
  -25.1173  -22.0664   16.4872 O   0  0  0  0  0  0  0  0  0  0  0  0
  -19.8202  -28.0892   23.0129 O   0  0  0  0  0  0  0  0  0  0  0  0
  -19.2695  -25.6840   23.9430 O   0  0  0  0  0  0  0  0  0  0  0  0
  -22.6244  -18.1865   22.5156 O   0  0  0  0  0  0  0  0  0  0  0  0
  -23.4411  -15.7819   26.1906 O   0  0  0  0  0  0  0  0  0  0  0  0
  -20.6990  -18.6809   28.7591 O   0  0  0  0  0  0  0  0  0  0  0  0
  -28.5745  -30.0104   20.5122 O   0  0  0  0  0  0  0  0  0  0  0  0
  -30.2650  -17.4707   20.0881 O   0  0  0  0  0  0  0  0  0  0  0  0
  -21.0080  -23.6256   24.0895 O   0  0  0  0  0  0  0  0  0  1  0  0
  -32.0108  -17.0305   25.2999 F   0  0  0  0  0  0  0  0  0  0  0  0
  -24.6235  -32.6116   20.2037 F   0  0  0  0  0  0  0  0  0  0  0  0
  -29.1216  -15.6416   21.8171 F   0  0  0  0  0  0  0  0  0  0  0  0
  1  2  1  0  0  0  0
  1  5  2  0  0  0  0
  2  6  2  0  0  0  0
  3  8  2  0  0  0  0
  3 17  1  0  0  0  0
  4  9  1  0  0  0  0
  4 17  2  0  0  0  0
  5 20  1  0  0  0  0
  6 22  1  0  0  0  0
  7 10  2  0  0  0  0
  7 21  1  0  0  0  0
  8 26  1  0  0  0  0
  9 26  2  0  0  0  0
 10 27  1  0  0  0  0
 11 12  2  0  0  0  0
 11 28  1  0  0  0  0
 12 29  1  0  0  0  0
 13 23  1  0  0  0  0
 13 27  2  0  0  0  0
 14 24  2  0  0  0  0
 14 25  1  0  0  0  0
 15 24  1  0  0  0  0
 15 30  2  0  0  0  0
 16 29  2  0  0  0  0
 16 31  1  0  0  0  0
 17 32  1  0  0  0  0
 18 25  2  0  0  0  0
 18 30  1  0  0  0  0
 18 34  1  0  0  0  0
 19 32  1  0  0  0  0
 19 33  2  0  0  0  0
 19 35  1  0  0  0  0
 20 22  2  0  0  0  0
 20 42  1  0  0  0  0
 21 23  2  0  0  0  0
 21 43  1  0  0  0  0
 22 51  1  0  0  0  0
 23 44  1  0  0  0  0
 24 71  1  0  0  0  0
 25 72  1  0  0  0  0
 26 84  1  0  0  0  0
 27 85  1  0  0  0  0
 28 31  2  0  0  0  0
 28 84  1  0  0  0  0
 29 86  1  0  0  0  0
 30 87  1  0  0  0  0
 31 88  1  0  0  0  0
 32 65  2  0  0  0  0
 33 66  1  0  0  0  0
 33 69  1  0  0  0  0
 34 54  1  0  0  0  0
 34 76  2  0  0  0  0
 35 70  1  0  0  0  0
 35 77  2  0  0  0  0
 36 37  1  0  0  0  0
 36 60  1  0  0  0  0
 36 78  2  0  0  0  0
 37 61  1  0  0  0  0
 37 79  2  0  0  0  0
 38 52  1  0  0  0  0
 38 73  1  0  0  0  0
 38 80  2  0  0  0  0
 39 62  1  0  0  0  0
 39 67  1  0  0  0  0
 39 81  2  0  0  0  0
 40 63  1  0  0  0  0
 40 74  1  0  0  0  0
 40 82  2  0  0  0  0
 41 68  1  0  0  0  0
 41 71  1  0  0  0  0
 41 83  2  0  0  0  0
 42 45  1  0  0  0  0
 43 52  1  0  0  0  0
 44 67  1  0  0  0  0
 45 47  1  0  0  0  0
 46 48  1  0  0  0  0
 46 49  1  0  0  0  0
 47 51  1  0  0  0  0
 48 53  1  0  0  0  0
 49 68  1  0  0  0  0
 50 53  1  0  0  0  0
 50 68  1  0  0  0  0
 51 73  1  0  0  0  0
 52 67  1  0  0  0  0
 53 66  1  0  0  0  0
 55 63  1  0  0  0  0
 56 64  1  0  0  0  0
 57 64  1  0  0  0  0
 58 64  1  0  0  0  0
 59 75  1  0  0  0  0
 60 72  1  0  0  0  0
 61 85  1  0  0  0  0
 62 64  1  0  0  0  0
 62 74  1  0  0  0  0
 63 75  1  0  0  0  0
 65 66  1  0  0  0  0
M  CHG  1  75   1
M  ISO  4  41 100  61 101  71 100  85 101
M  END
> <Batch ID>
0170

> <Smiles>
CNC(C)C(=O)NC(C(=O)N1Cc2cc([101O:1][101CH2:1]C(=O)C(=O)CNc3cc([100NH:0][100C:0](=O)N4CCCC(n5nc(-c6ccc(Oc7ccc(F)cc7F)cc6)c(C(N)=O)c5N)C4)cc(F)c3C(C)=O)ccc2CC1C(=O)NC1CCCc2ccccc21)C(C)(C)C

> <Shape>
0.214

> <Color>
0.055

> <Negative vol penalty>
0.000

$$$$

  -OEChem-04052304203D

 86 94  0     1  0  0  0  0  0999 V2000
  -25.8110  -36.4999   23.5076 C   0  0  0  0  0  0  0  0  0  0  0  0
  -26.5391  -35.4647   22.9299 C   0  0  0  0  0  0  0  0  0  0  0  0
  -24.2139  -10.0131   22.1630 C   0  0  0  0  0  0  0  0  0  0  0  0
  -24.5930  -11.5005   24.0286 C   0  0  0  0  0  0  0  0  0  0  0  0
  -24.7875  -36.2120   24.4095 C   0  0  0  0  0  0  0  0  0  0  0  0
  -26.2447  -34.1410   23.2546 C   0  0  0  0  0  0  0  0  0  0  0  0
  -26.5782  -29.2790   19.5457 C   0  0  0  0  0  0  0  0  0  0  0  0
  -23.8049   -9.0121   23.0441 C   0  0  0  0  0  0  0  0  0  0  0  0
  -24.1839  -10.4996   24.9098 C   0  0  0  0  0  0  0  0  0  0  0  0
  -27.5519  -28.2963   19.3727 C   0  0  0  0  0  0  0  0  0  0  0  0
  -21.0302   -8.2304   24.8113 C   0  0  0  0  0  0  0  0  0  0  0  0
  -19.8783   -7.5134   24.4882 C   0  0  0  0  0  0  0  0  0  0  0  0
  -29.7359  -19.9319   22.0649 C   0  0  0  0  0  0  0  0  0  0  0  0
  -26.3424  -26.8427   20.8704 C   0  0  0  0  0  0  0  0  0  0  0  0
  -21.1618   -5.4668   24.4544 C   0  0  0  0  0  0  0  0  0  0  0  0
  -31.7484  -19.7909   20.8053 C   0  0  0  0  0  0  0  0  0  0  0  0
  -24.6080  -11.2573   22.6552 C   0  0  0  0  0  0  0  0  0  0  0  0
  -29.9825  -18.6506   22.5452 C   0  0  0  0  0  0  0  0  0  0  0  0
  -24.2227  -13.2672   21.1322 C   0  0  0  0  0  0  0  0  0  0  0  0
  -24.4740  -34.8837   24.7380 C   0  0  0  0  0  0  0  0  0  0  0  0
  -25.4831  -29.0546   20.3923 C   0  0  0  0  0  0  0  0  0  0  0  0
  -25.2168  -33.8351   24.1627 C   0  0  0  0  0  0  0  0  0  0  0  0
  -25.3548  -27.8232   21.0505 C   0  0  0  0  0  0  0  0  0  0  0  0
  -30.6307  -20.5201   21.1780 C   0  0  0  0  0  0  0  0  0  0  0  0
  -23.7899   -9.2554   24.4175 C   0  0  0  0  0  0  0  0  0  0  0  0
  -27.4356  -27.0790   20.0373 C   0  0  0  0  0  0  0  0  0  0  0  0
  -22.2480   -7.5657   24.9559 C   0  0  0  0  0  0  0  0  0  0  0  0
  -19.9441   -6.1315   24.3097 C   0  0  0  0  0  0  0  0  0  0  0  0
  -22.3138   -6.1839   24.7775 C   0  0  0  0  0  0  0  0  0  0  0  0
  -25.0312  -12.2915   21.7456 C   0  0  0  0  0  0  0  0  0  0  0  0
  -31.1291  -18.0050   22.1111 C   0  0  0  0  0  0  0  0  0  0  0  0
  -25.0942  -14.0045   20.3684 C   0  0  0  0  0  0  0  0  0  0  0  0
  -29.0474  -18.0334   23.4736 C   0  0  0  0  0  0  0  0  0  0  0  0
  -22.8103  -13.4874   21.2431 C   0  0  0  0  0  0  0  0  0  0  0  0
  -24.3884  -30.4101   23.0509 C   0  0  0  0  0  0  0  0  0  0  0  0
  -29.3489  -23.9393   20.3128 C   0  0  0  0  0  0  0  0  0  0  0  0
  -21.9021  -28.3761   22.6000 C   0  0  0  0  0  0  0  0  0  0  0  0
  -20.7474  -25.4702   21.2326 C   0  0  0  0  0  0  0  0  0  0  0  0
  -30.9802  -15.0350   20.7466 C   0  0  0  0  0  0  0  0  0  0  0  0
  -23.3902  -34.6236   25.7541 C   0  0  0  0  0  0  0  0  0  0  0  0
  -24.4274  -30.1148   20.5474 C   0  0  0  0  0  0  0  0  0  0  0  0
  -24.1878  -27.5249   21.9546 C   0  0  0  0  0  0  0  0  0  0  0  0
  -22.8935  -33.1802   25.7590 C   0  0  0  0  0  0  0  0  0  0  0  0
  -29.2262  -13.6280   17.9861 C   0  0  0  0  0  0  0  0  0  0  0  0
  -24.0708  -32.2104   25.7416 C   0  0  0  0  0  0  0  0  0  0  0  0
  -27.8792  -13.2140   18.5812 C   0  0  0  0  0  0  0  0  0  0  0  0
  -30.3698  -13.4144   18.9753 C   0  0  0  0  0  0  0  0  0  0  0  0
  -28.8302  -13.6371   20.8867 C   0  0  0  0  0  0  0  0  0  0  0  0
  -24.9109  -32.3854   24.4708 C   0  0  1  0  0  0  0  0  0  0  0  0
  -23.6218  -29.9720   21.8351 C   0  0  1  0  0  0  0  0  0  0  0  0
  -27.6388  -13.8865   19.9462 C   0  0  2  0  0  0  0  0  0  0  0  0
  -28.8076  -18.7302   24.7809 C   0  0  0  0  0  0  0  0  0  0  0  0
  -18.6815  -24.0553   21.0675 C   0  0  0  0  0  0  0  0  0  0  0  0
  -22.3458  -27.3992   25.4563 C   0  0  0  0  0  0  0  0  0  0  0  0
  -20.9401  -25.3991   24.9165 C   0  0  0  0  0  0  0  0  0  0  0  0
  -19.9462  -27.6847   24.8124 C   0  0  0  0  0  0  0  0  0  0  0  0
  -20.6575  -25.7401   18.2867 C   0  0  0  0  0  0  0  0  0  0  0  0
  -31.4481  -16.6268   22.5922 C   0  0  0  0  0  0  0  0  0  0  0  0
  -29.2714  -22.6071   21.0279 C   0  0  0  0  0  0  0  0  0  0  0  0
  -28.2028  -24.8948   20.5821 C   0  0  0  0  0  0  0  0  0  1  0  0
  -21.5854  -26.9634   23.0278 C   0  0  1  0  0  0  0  0  0  0  0  0
  -19.5000  -25.1636   20.4237 C   0  0  2  0  0  0  0  0  0  0  0  0
  -21.2275  -26.8676   24.5378 C   0  0  0  0  0  0  0  0  0  0  0  0
  -32.0216  -18.5441   21.2506 N   0  0  0  0  0  0  0  0  0  0  0  0
  -26.3174  -12.3966   21.4010 N   0  0  0  0  0  0  0  0  0  0  0  0
  -26.3237  -13.4471   20.5628 N   0  0  0  0  0  0  0  0  0  0  0  0
  -23.1850  -28.5957   22.0788 N   0  0  0  0  0  0  0  0  0  0  0  0
  -30.0801  -14.0786   20.2484 N   0  0  0  0  0  0  0  0  0  0  0  0
  -24.9210  -15.0687   19.5560 N   0  0  0  0  0  0  0  0  0  0  0  0
  -22.0646  -12.6375   22.0713 N   0  0  0  0  0  0  0  0  0  0  0  0
  -30.4112  -21.7971   20.6816 N   0  0  0  0  0  0  0  0  0  0  0  0
  -24.2591  -31.7545   23.3432 N   0  0  0  0  0  0  0  0  0  0  0  0
  -20.5336  -26.4921   22.1334 N   0  0  0  0  0  0  0  0  0  0  0  0
  -30.6269  -15.6212   21.9558 N   0  0  0  0  0  0  0  0  0  0  0  0
  -19.8691  -24.7349   19.0449 N   0  3  0  0  0  0  0  0  0  0  0  0
  -28.4416  -16.9798   23.2690 O   0  0  0  0  0  0  0  0  0  0  0  0
  -22.2242  -14.4002   20.6132 O   0  0  0  0  0  0  0  0  0  0  0  0
  -25.0470  -29.5890   23.6782 O   0  0  0  0  0  0  0  0  0  0  0  0
  -30.2755  -24.2375   19.5603 O   0  0  0  0  0  0  0  0  0  0  0  0
  -21.0403  -29.2509   22.7170 O   0  0  0  0  0  0  0  0  0  0  0  0
  -21.8046  -24.8615   21.0832 O   0  0  0  0  0  0  0  0  0  0  0  0
  -32.0190  -15.3474   20.1547 O   0  0  0  0  0  0  0  0  0  0  0  0
  -23.3906   -8.2790   25.2776 O   0  0  0  0  0  0  0  0  0  0  0  0
  -28.3850  -26.1184   19.8707 O   0  0  0  0  0  0  0  0  0  1  0  0
  -18.8375   -5.4428   24.0009 F   0  0  0  0  0  0  0  0  0  0  0  0
  -23.4806   -5.5396   24.9163 F   0  0  0  0  0  0  0  0  0  0  0  0
  1  2  1  0  0  0  0
  1  5  2  0  0  0  0
  2  6  2  0  0  0  0
  3  8  2  0  0  0  0
  3 17  1  0  0  0  0
  4  9  1  0  0  0  0
  4 17  2  0  0  0  0
  5 20  1  0  0  0  0
  6 22  1  0  0  0  0
  7 10  2  0  0  0  0
  7 21  1  0  0  0  0
  8 25  1  0  0  0  0
  9 25  2  0  0  0  0
 10 26  1  0  0  0  0
 11 12  2  0  0  0  0
 11 27  1  0  0  0  0
 12 28  1  0  0  0  0
 13 18  1  0  0  0  0
 13 24  2  0  0  0  0
 14 23  1  0  0  0  0
 14 26  2  0  0  0  0
 15 28  2  0  0  0  0
 15 29  1  0  0  0  0
 16 24  1  0  0  0  0
 16 64  2  0  0  0  0
 17 30  1  0  0  0  0
 18 31  2  0  0  0  0
 18 33  1  0  0  0  0
 19 30  1  0  0  0  0
 19 32  2  0  0  0  0
 19 34  1  0  0  0  0
 20 22  2  0  0  0  0
 20 40  1  0  0  0  0
 21 23  2  0  0  0  0
 21 41  1  0  0  0  0
 22 49  1  0  0  0  0
 23 42  1  0  0  0  0
 24 71  1  0  0  0  0
 25 83  1  0  0  0  0
 26 84  1  0  0  0  0
 27 29  2  0  0  0  0
 27 83  1  0  0  0  0
 28 85  1  0  0  0  0
 29 86  1  0  0  0  0
 30 65  2  0  0  0  0
 31 58  1  0  0  0  0
 31 64  1  0  0  0  0
 32 66  1  0  0  0  0
 32 69  1  0  0  0  0
 33 52  1  0  0  0  0
 33 76  2  0  0  0  0
 34 70  1  0  0  0  0
 34 77  2  0  0  0  0
 35 50  1  0  0  0  0
 35 72  1  0  0  0  0
 35 78  2  0  0  0  0
 36 59  1  0  0  0  0
 36 60  1  0  0  0  0
 36 79  2  0  0  0  0
 37 61  1  0  0  0  0
 37 67  1  0  0  0  0
 37 80  2  0  0  0  0
 38 62  1  0  0  0  0
 38 73  1  0  0  0  0
 38 81  2  0  0  0  0
 39 68  1  0  0  0  0
 39 74  1  0  0  0  0
 39 82  2  0  0  0  0
 40 43  1  0  0  0  0
 41 50  1  0  0  0  0
 42 67  1  0  0  0  0
 43 45  1  0  0  0  0
 44 46  1  0  0  0  0
 44 47  1  0  0  0  0
 45 49  1  0  0  0  0
 46 51  1  0  0  0  0
 47 68  1  0  0  0  0
 48 51  1  0  0  0  0
 48 68  1  0  0  0  0
 49 72  1  0  0  0  0
 50 67  1  0  0  0  0
 51 66  1  0  0  0  0
 53 62  1  0  0  0  0
 54 63  1  0  0  0  0
 55 63  1  0  0  0  0
 56 63  1  0  0  0  0
 57 75  1  0  0  0  0
 58 74  1  0  0  0  0
 59 71  1  0  0  0  0
 60 84  1  0  0  0  0
 61 63  1  0  0  0  0
 61 73  1  0  0  0  0
 62 75  1  0  0  0  0
 65 66  1  0  0  0  0
M  CHG  1  75   1
M  ISO  4  39 100  60 101  74 100  84 101
M  END
> <Batch ID>
0170

> <Smiles>
CNC(C)C(=O)NC(C(=O)N1Cc2cc([101O:1][101CH2:1]C(=O)CNc3cnc(C[100NH:0][100C:0](=O)N4CCCC(n5nc(-c6ccc(Oc7ccc(F)cc7F)cc6)c(C(N)=O)c5N)C4)c(C(C)=O)c3)ccc2CC1C(=O)NC1CCCc2ccccc21)C(C)(C)C

> <Shape>
0.333

> <Color>
0.129

> <Negative vol penalty>
0.000

$$$$

  -OEChem-04052304203D

 86 94  0     1  0  0  0  0  0999 V2000
  -16.8850  -29.9906   20.7834 C   0  0  0  0  0  0  0  0  0  0  0  0
  -17.8335  -29.0595   20.3726 C   0  0  0  0  0  0  0  0  0  0  0  0
  -23.1973   -9.7433   19.8917 C   0  0  0  0  0  0  0  0  0  0  0  0
  -23.8421   -9.8391   22.2181 C   0  0  0  0  0  0  0  0  0  0  0  0
  -32.2702  -17.8474   23.6551 C   0  0  0  0  0  0  0  0  0  0  0  0
  -17.2809  -31.1142   21.5079 C   0  0  0  0  0  0  0  0  0  0  0  0
  -19.1787  -29.2520   20.6851 C   0  0  0  0  0  0  0  0  0  0  0  0
  -22.8345  -24.3616   24.5074 C   0  0  0  0  0  0  0  0  0  0  0  0
  -31.7620  -16.9179   22.7477 C   0  0  0  0  0  0  0  0  0  0  0  0
  -22.4897   -8.5664   20.1363 C   0  0  0  0  0  0  0  0  0  0  0  0
  -23.1345   -8.6622   22.4627 C   0  0  0  0  0  0  0  0  0  0  0  0
  -23.6575  -23.3760   25.0529 C   0  0  0  0  0  0  0  0  0  0  0  0
  -19.9159   -7.7442   22.9298 C   0  0  0  0  0  0  0  0  0  0  0  0
  -19.1043   -7.7014   24.0634 C   0  0  0  0  0  0  0  0  0  0  0  0
  -25.5440  -24.8863   24.9625 C   0  0  0  0  0  0  0  0  0  0  0  0
  -20.3860   -5.8369   24.9106 C   0  0  0  0  0  0  0  0  0  0  0  0
  -23.8735  -10.3796   20.9326 C   0  0  0  0  0  0  0  0  0  0  0  0
  -31.4035  -18.6988   24.3404 C   0  0  0  0  0  0  0  0  0  0  0  0
  -24.1173  -12.9132   20.7616 C   0  0  0  0  0  0  0  0  0  0  0  0
  -18.6304  -31.3156   21.8377 C   0  0  0  0  0  0  0  0  0  0  0  0
  -23.3604  -25.6198   24.2013 C   0  0  0  0  0  0  0  0  0  0  0  0
  -19.5933  -30.3800   21.4135 C   0  0  0  0  0  0  0  0  0  0  0  0
  -24.7217  -25.8815   24.4275 C   0  0  0  0  0  0  0  0  0  0  0  0
  -30.3872  -16.8399   22.5255 C   0  0  0  0  0  0  0  0  0  0  0  0
  -30.0286  -18.6208   24.1183 C   0  0  0  0  0  0  0  0  0  0  0  0
  -22.4583   -8.0258   21.4218 C   0  0  0  0  0  0  0  0  0  0  0  0
  -25.0089  -23.6377   25.2796 C   0  0  0  0  0  0  0  0  0  0  0  0
  -20.9625   -6.8333   22.7865 C   0  0  0  0  0  0  0  0  0  0  0  0
  -19.3394   -6.7478   25.0539 C   0  0  0  0  0  0  0  0  0  0  0  0
  -21.1976   -5.8796   23.7769 C   0  0  0  0  0  0  0  0  0  0  0  0
  -29.5205  -17.6913   23.2108 C   0  0  0  0  0  0  0  0  0  0  0  0
  -24.6051  -11.5951   20.6805 C   0  0  0  0  0  0  0  0  0  0  0  0
  -25.1945  -13.6988   20.4315 C   0  0  0  0  0  0  0  0  0  0  0  0
  -31.9678  -19.6585   25.2814 C   0  0  0  0  0  0  0  0  0  0  0  0
  -26.4447  -21.8182   24.9626 C   0  0  0  0  0  0  0  0  0  1  0  0
  -22.8077  -13.3852   21.1047 C   0  0  0  0  0  0  0  0  0  0  0  0
  -27.2506  -20.8342   25.3795 C   0  0  0  0  0  0  0  0  0  0  0  0
  -27.9064  -19.9503   24.3612 C   0  0  0  0  0  0  0  0  0  0  0  0
  -22.7233  -29.0723   22.8783 C   0  0  0  0  0  0  0  0  0  0  0  0
  -24.6133  -29.3715   25.2760 C   0  0  0  0  0  0  0  0  0  0  0  0
  -26.3430  -29.3071   28.2156 C   0  0  0  0  0  0  0  0  0  0  0  0
  -30.5981  -14.9778   20.8419 C   0  0  0  0  0  0  0  0  0  0  0  0
  -19.0165  -32.5694   22.5817 C   0  0  0  0  0  0  0  0  0  0  0  0
  -22.5248  -26.6913   23.5551 C   0  0  0  0  0  0  0  0  0  0  0  0
  -25.2515  -27.2381   24.0507 C   0  0  0  0  0  0  0  0  0  0  0  0
  -20.4131  -32.5081   23.1950 C   0  0  0  0  0  0  0  0  0  0  0  0
  -29.7016  -12.4613   18.4881 C   0  0  0  0  0  0  0  0  0  0  0  0
  -21.4180  -31.9694   22.1817 C   0  0  0  0  0  0  0  0  0  0  0  0
  -28.2556  -12.1200   18.8553 C   0  0  0  0  0  0  0  0  0  0  0  0
  -30.5461  -12.7581   19.7260 C   0  0  0  0  0  0  0  0  0  0  0  0
  -28.5453  -13.4356   20.9936 C   0  0  0  0  0  0  0  0  0  0  0  0
  -21.0588  -30.5411   21.7544 C   0  0  1  0  0  0  0  0  0  0  0  0
  -22.9016  -28.1106   24.0162 C   0  0  1  0  0  0  0  0  0  0  0  0
  -27.6397  -13.1924   19.7753 C   0  0  2  0  0  0  0  0  0  0  0  0
  -27.4927  -30.8164   29.8580 C   0  0  0  0  0  0  0  0  0  0  0  0
  -26.9668  -29.6605   23.3574 C   0  0  0  0  0  0  0  0  0  0  0  0
  -28.3903  -30.3063   25.3132 C   0  0  0  0  0  0  0  0  0  0  0  0
  -26.4357  -31.7188   24.6749 C   0  0  0  0  0  0  0  0  0  0  0  0
  -24.5253  -28.4992   30.4070 C   0  0  0  0  0  0  0  0  0  0  0  0
  -26.0382  -29.4695   25.7589 C   0  0  1  0  0  0  0  0  0  0  0  0
  -26.1932  -30.1171   29.4907 C   0  0  2  0  0  0  0  0  0  0  0  0
  -26.9438  -30.2640   24.7759 C   0  0  0  0  0  0  0  0  0  0  0  0
  -25.8919  -11.5423   20.3265 N   0  0  0  0  0  0  0  0  0  0  0  0
  -33.2403  -19.7630   25.5162 N   0  0  0  0  0  0  0  0  0  0  0  0
  -26.2219  -12.8371   20.1822 N   0  0  0  0  0  0  0  0  0  0  0  0
  -24.2965  -28.2810   24.4570 N   0  0  0  0  0  0  0  0  0  0  0  0
  -29.9029  -13.7859   20.5474 N   0  0  0  0  0  0  0  0  0  0  0  0
  -25.3537  -15.0357   20.3331 N   0  0  0  0  0  0  0  0  0  0  0  0
  -21.8184  -12.4429   21.4170 N   0  0  0  0  0  0  0  0  0  0  0  0
  -29.1328  -19.4751   24.8052 N   0  0  0  0  0  0  0  0  0  0  0  0
  -29.8739  -15.8947   21.6030 N   0  0  0  0  0  0  0  0  0  0  0  0
  -21.4479  -29.5945   22.7777 N   0  0  0  0  0  0  0  0  0  0  0  0
  -25.9759  -30.0339   27.1028 N   0  0  0  0  0  0  0  0  0  0  0  0
  -25.7994  -29.2321   30.6232 N   0  3  0  0  0  0  0  0  0  0  0  0
  -22.5188  -14.6059   21.1176 O   0  0  0  0  0  0  0  0  0  0  0  0
  -27.3648  -19.7190   23.2855 O   0  0  0  0  0  0  0  0  0  0  0  0
  -23.6727  -29.3241   22.1456 O   0  0  0  0  0  0  0  0  0  0  0  0
  -23.8023  -30.2400   25.6097 O   0  0  0  0  0  0  0  0  0  0  0  0
  -26.7489  -28.1471   28.2071 O   0  0  0  0  0  0  0  0  0  0  0  0
  -31.7411  -15.1823   20.4250 O   0  0  0  0  0  0  0  0  0  0  0  0
  -27.5053  -20.5991   26.7154 O   0  0  0  0  0  0  0  0  0  0  0  0
  -21.7678   -6.8775   21.6608 O   0  0  0  0  0  0  0  0  0  0  0  0
  -25.8057  -22.6726   25.8166 O   0  0  0  0  0  0  0  0  0  1  0  0
  -18.5609   -6.7078   26.1432 F   0  0  0  0  0  0  0  0  0  0  0  0
  -22.2023   -5.0026   23.6454 F   0  0  0  0  0  0  0  0  0  0  0  0
  -28.1978  -17.6144   22.9969 F   0  0  0  0  0  0  0  0  0  0  0  0
  1  2  1  0  0  0  0
  1  6  2  0  0  0  0
  2  7  2  0  0  0  0
  3 10  2  0  0  0  0
  3 17  1  0  0  0  0
  4 11  1  0  0  0  0
  4 17  2  0  0  0  0
  5  9  1  0  0  0  0
  5 18  2  0  0  0  0
  6 20  1  0  0  0  0
  7 22  1  0  0  0  0
  8 12  2  0  0  0  0
  8 21  1  0  0  0  0
  9 24  2  0  0  0  0
 10 26  1  0  0  0  0
 11 26  2  0  0  0  0
 12 27  1  0  0  0  0
 13 14  2  0  0  0  0
 13 28  1  0  0  0  0
 14 29  1  0  0  0  0
 15 23  1  0  0  0  0
 15 27  2  0  0  0  0
 16 29  2  0  0  0  0
 16 30  1  0  0  0  0
 17 32  1  0  0  0  0
 18 25  1  0  0  0  0
 18 34  1  0  0  0  0
 19 32  1  0  0  0  0
 19 33  2  0  0  0  0
 19 36  1  0  0  0  0
 20 22  2  0  0  0  0
 20 43  1  0  0  0  0
 21 23  2  0  0  0  0
 21 44  1  0  0  0  0
 22 52  1  0  0  0  0
 23 45  1  0  0  0  0
 24 31  1  0  0  0  0
 24 71  1  0  0  0  0
 25 31  2  0  0  0  0
 25 70  1  0  0  0  0
 26 82  1  0  0  0  0
 27 83  1  0  0  0  0
 28 30  2  0  0  0  0
 28 82  1  0  0  0  0
 29 84  1  0  0  0  0
 30 85  1  0  0  0  0
 31 86  1  0  0  0  0
 32 63  2  0  0  0  0
 33 65  1  0  0  0  0
 33 68  1  0  0  0  0
 34 64  2  0  0  0  0
 35 37  2  0  0  0  0
 35 83  1  0  0  0  0
 36 69  1  0  0  0  0
 36 75  2  0  0  0  0
 37 38  1  0  0  0  0
 37 81  1  0  0  0  0
 38 70  1  0  0  0  0
 38 76  2  0  0  0  0
 39 53  1  0  0  0  0
 39 72  1  0  0  0  0
 39 77  2  0  0  0  0
 40 60  1  0  0  0  0
 40 66  1  0  0  0  0
 40 78  2  0  0  0  0
 41 61  1  0  0  0  0
 41 73  1  0  0  0  0
 41 79  2  0  0  0  0
 42 67  1  0  0  0  0
 42 71  1  0  0  0  0
 42 80  2  0  0  0  0
 43 46  1  0  0  0  0
 44 53  1  0  0  0  0
 45 66  1  0  0  0  0
 46 48  1  0  0  0  0
 47 49  1  0  0  0  0
 47 50  1  0  0  0  0
 48 52  1  0  0  0  0
 49 54  1  0  0  0  0
 50 67  1  0  0  0  0
 51 54  1  0  0  0  0
 51 67  1  0  0  0  0
 52 72  1  0  0  0  0
 53 66  1  0  0  0  0
 54 65  1  0  0  0  0
 55 61  1  0  0  0  0
 56 62  1  0  0  0  0
 57 62  1  0  0  0  0
 58 62  1  0  0  0  0
 59 74  1  0  0  0  0
 60 62  1  0  0  0  0
 60 73  1  0  0  0  0
 61 74  1  0  0  0  0
 63 65  1  0  0  0  0
M  CHG  1  74   1
M  ISO  4  35 101  42 100  71 100  83 101
M  END
> <Batch ID>
0170

> <Smiles>
CNC(C)C(=O)NC(C(=O)N1Cc2cc([101O:1][101CH2:1]C(=O)C(=O)Nc3c(C=N)ccc([100NH:0][100C:0](=O)N4CCCC(n5nc(-c6ccc(Oc7ccc(F)cc7F)cc6)c(C(N)=O)c5N)C4)c3F)ccc2CC1C(=O)NC1CCCc2ccccc21)C(C)(C)C

> <Shape>
0.242

> <Color>
0.201

> <Negative vol penalty>
0.000

$$$$

  -OEChem-04052304203D

 87 95  0     1  0  0  0  0  0999 V2000
  -28.4362  -17.4731   18.3324 C   0  0  0  0  0  0  0  0  0  0  0  0
  -28.5436  -18.6167   19.1157 C   0  0  0  0  0  0  0  0  0  0  0  0
  -23.0762   -9.8664   19.9408 C   0  0  0  0  0  0  0  0  0  0  0  0
  -23.8349   -9.8743   22.2346 C   0  0  0  0  0  0  0  0  0  0  0  0
  -29.5401  -17.0189   17.6138 C   0  0  0  0  0  0  0  0  0  0  0  0
  -29.7514  -19.3132   19.1713 C   0  0  0  0  0  0  0  0  0  0  0  0
  -29.7483  -23.6039   21.5782 C   0  0  0  0  0  0  0  0  0  0  0  0
  -22.3326   -8.7131   20.1907 C   0  0  0  0  0  0  0  0  0  0  0  0
  -23.0912   -8.7209   22.4845 C   0  0  0  0  0  0  0  0  0  0  0  0
  -29.6587  -23.6890   22.9669 C   0  0  0  0  0  0  0  0  0  0  0  0
  -19.8630   -7.9222   23.0855 C   0  0  0  0  0  0  0  0  0  0  0  0
  -19.1055   -7.8823   24.2560 C   0  0  0  0  0  0  0  0  0  0  0  0
  -29.7978  -17.7500   22.7504 C   0  0  0  0  0  0  0  0  0  0  0  0
  -32.0219  -24.1590   23.0845 C   0  0  0  0  0  0  0  0  0  0  0  0
  -31.8626  -17.3487   21.5619 C   0  0  0  0  0  0  0  0  0  0  0  0
  -20.3471   -5.9455   24.9936 C   0  0  0  0  0  0  0  0  0  0  0  0
  -23.8274  -10.4470   20.9628 C   0  0  0  0  0  0  0  0  0  0  0  0
  -30.2940  -18.9737   23.1995 C   0  0  0  0  0  0  0  0  0  0  0  0
  -24.1685  -12.9722   20.8423 C   0  0  0  0  0  0  0  0  0  0  0  0
  -30.7651  -17.7037   17.6711 C   0  0  0  0  0  0  0  0  0  0  0  0
  -30.9795  -23.7852   20.9319 C   0  0  0  0  0  0  0  0  0  0  0  0
  -30.8702  -18.8841   18.4345 C   0  0  0  0  0  0  0  0  0  0  0  0
  -32.1239  -24.0781   21.6873 C   0  0  0  0  0  0  0  0  0  0  0  0
  -30.5821  -16.9374   21.9317 C   0  0  0  0  0  0  0  0  0  0  0  0
  -22.3401   -8.1403   21.4625 C   0  0  0  0  0  0  0  0  0  0  0  0
  -30.7962  -23.9637   23.7205 C   0  0  0  0  0  0  0  0  0  0  0  0
  -20.8626   -6.9737   22.8690 C   0  0  0  0  0  0  0  0  0  0  0  0
  -19.3475   -6.8940   25.2101 C   0  0  0  0  0  0  0  0  0  0  0  0
  -32.3589  -18.5726   22.0110 C   0  0  0  0  0  0  0  0  0  0  0  0
  -21.1047   -5.9853   23.8231 C   0  0  0  0  0  0  0  0  0  0  0  0
  -31.5746  -19.3851   22.8298 C   0  0  0  0  0  0  0  0  0  0  0  0
  -24.5962  -11.6381   20.7051 C   0  0  0  0  0  0  0  0  0  0  0  0
  -25.2606  -13.7220   20.4794 C   0  0  0  0  0  0  0  0  0  0  0  0
  -29.4566  -19.8371   24.0706 C   0  0  0  0  0  0  0  0  0  0  0  0
  -22.8976  -13.4877   21.2604 C   0  0  0  0  0  0  0  0  0  0  0  0
  -32.8428  -21.9698   19.1053 C   0  0  0  0  0  0  0  0  0  0  0  0
  -34.5510  -24.7105   18.7997 C   0  0  0  0  0  0  0  0  0  0  0  0
  -29.5546  -21.5435   25.8502 C   0  0  0  0  0  0  0  0  0  0  0  0
  -35.6173  -27.4027   20.9520 C   0  0  0  0  0  0  0  0  0  0  0  0
  -30.7263  -14.7694   20.6568 C   0  0  0  0  0  0  0  0  0  0  0  0
  -31.9256  -17.1724   16.8671 C   0  0  0  0  0  0  0  0  0  0  0  0
  -31.0543  -23.7166   19.4312 C   0  0  0  0  0  0  0  0  0  0  0  0
  -33.4656  -24.3011   21.0402 C   0  0  0  0  0  0  0  0  0  0  0  0
  -33.2715  -17.7158   17.3354 C   0  0  0  0  0  0  0  0  0  0  0  0
  -29.6140  -12.3546   18.2885 C   0  0  0  0  0  0  0  0  0  0  0  0
  -33.2037  -19.2300   17.4661 C   0  0  0  0  0  0  0  0  0  0  0  0
  -28.1742  -12.0627   18.7174 C   0  0  0  0  0  0  0  0  0  0  0  0
  -30.5284  -12.5840   19.4906 C   0  0  0  0  0  0  0  0  0  0  0  0
  -28.6204  -13.3082   20.8707 C   0  0  0  0  0  0  0  0  0  0  0  0
  -32.1824  -19.6407   18.5344 C   0  0  1  0  0  0  0  0  0  0  0  0
  -32.4572  -23.4097   18.9163 C   0  0  1  0  0  0  0  0  0  0  0  0
  -27.6483  -13.1343   19.6924 C   0  0  2  0  0  0  0  0  0  0  0  0
  -36.1531  -29.7972   20.4262 C   0  0  0  0  0  0  0  0  0  0  0  0
  -32.4795  -23.9237   26.6903 C   0  0  0  0  0  0  0  0  0  0  0  0
  -37.4266  -23.7153   18.5757 C   0  0  0  0  0  0  0  0  0  0  0  0
  -38.1738  -25.8417   19.6660 C   0  0  0  0  0  0  0  0  0  0  0  0
  -36.9951  -25.9159   17.4687 C   0  0  0  0  0  0  0  0  0  0  0  0
  -33.6722  -28.3974   22.9485 C   0  0  0  0  0  0  0  0  0  0  0  0
  -30.5677  -22.2883   26.7001 C   0  0  0  0  0  0  0  0  0  0  0  0
  -35.6879  -25.3518   19.5580 C   0  0  1  0  0  0  0  0  0  0  0  0
  -35.1007  -28.8301   20.9458 C   0  0  2  0  0  0  0  0  0  0  0  0
  -31.5019  -23.1311   25.8334 C   0  0  1  0  0  0  0  0  0  1  0  0
  -37.0521  -25.1891   18.8300 C   0  0  0  0  0  0  0  0  0  0  0  0
  -25.8614  -11.5425   20.2876 N   0  0  0  0  0  0  0  0  0  0  0  0
  -26.2379  -12.8262   20.1591 N   0  0  0  0  0  0  0  0  0  0  0  0
  -33.4886  -24.2174   19.5705 N   0  0  0  0  0  0  0  0  0  0  0  0
  -29.9686  -13.6149   20.3674 N   0  0  0  0  0  0  0  0  0  0  0  0
  -25.4706  -15.0535   20.4061 N   0  0  0  0  0  0  0  0  0  0  0  0
  -21.8858  -12.5783   21.5973 N   0  0  0  0  0  0  0  0  0  0  0  0
  -30.0782  -15.6945   21.4746 N   0  0  0  0  0  0  0  0  0  0  0  0
  -30.1528  -20.6425   24.9700 N   0  0  0  0  0  0  0  0  0  0  0  0
  -31.9951  -21.0739   18.4823 N   0  0  0  0  0  0  0  0  0  0  0  0
  -35.2948  -26.7378   19.7879 N   0  0  0  0  0  0  0  0  0  0  0  0
  -34.7176  -29.2483   22.3239 N   0  3  0  0  0  0  0  0  0  0  0  0
  -28.2360  -19.8162   23.9373 O   0  0  0  0  0  0  0  0  0  0  0  0
  -22.6609  -14.7183   21.3173 O   0  0  0  0  0  0  0  0  0  0  0  0
  -33.8367  -21.6923   19.7662 O   0  0  0  0  0  0  0  0  0  0  0  0
  -34.6002  -24.6556   17.5684 O   0  0  0  0  0  0  0  0  0  0  0  0
  -28.3480  -21.7513   25.9554 O   0  0  0  0  0  0  0  0  0  0  0  0
  -36.2472  -26.9264   21.8937 O   0  0  0  0  0  0  0  0  0  0  0  0
  -31.8556  -14.9384   20.1897 O   0  0  0  0  0  0  0  0  0  0  0  0
  -21.6144   -7.0151   21.7068 O   0  0  0  0  0  0  0  0  0  0  0  0
  -30.7116  -24.0468   25.0761 O   0  0  0  0  0  0  0  0  0  1  0  0
  -18.6210   -6.8567   26.3348 F   0  0  0  0  0  0  0  0  0  0  0  0
  -33.5885  -18.9676   21.6560 F   0  0  0  0  0  0  0  0  0  0  0  0
  -22.0644   -5.0721   23.6212 F   0  0  0  0  0  0  0  0  0  0  0  0
  -32.0617  -20.5589   23.2556 F   0  0  0  0  0  0  0  0  0  0  0  0
  1  2  1  0  0  0  0
  1  5  2  0  0  0  0
  2  6  2  0  0  0  0
  3  8  2  0  0  0  0
  3 17  1  0  0  0  0
  4  9  1  0  0  0  0
  4 17  2  0  0  0  0
  5 20  1  0  0  0  0
  6 22  1  0  0  0  0
  7 10  2  0  0  0  0
  7 21  1  0  0  0  0
  8 25  1  0  0  0  0
  9 25  2  0  0  0  0
 10 26  1  0  0  0  0
 11 12  2  0  0  0  0
 11 27  1  0  0  0  0
 12 28  1  0  0  0  0
 13 18  1  0  0  0  0
 13 24  2  0  0  0  0
 14 23  1  0  0  0  0
 14 26  2  0  0  0  0
 15 24  1  0  0  0  0
 15 29  2  0  0  0  0
 16 28  2  0  0  0  0
 16 30  1  0  0  0  0
 17 32  1  0  0  0  0
 18 31  2  0  0  0  0
 18 34  1  0  0  0  0
 19 32  1  0  0  0  0
 19 33  2  0  0  0  0
 19 35  1  0  0  0  0
 20 22  2  0  0  0  0
 20 41  1  0  0  0  0
 21 23  2  0  0  0  0
 21 42  1  0  0  0  0
 22 50  1  0  0  0  0
 23 43  1  0  0  0  0
 24 70  1  0  0  0  0
 25 82  1  0  0  0  0
 26 83  1  0  0  0  0
 27 30  2  0  0  0  0
 27 82  1  0  0  0  0
 28 84  1  0  0  0  0
 29 31  1  0  0  0  0
 29 85  1  0  0  0  0
 30 86  1  0  0  0  0
 31 87  1  0  0  0  0
 32 64  2  0  0  0  0
 33 65  1  0  0  0  0
 33 68  1  0  0  0  0
 34 71  1  0  0  0  0
 34 75  2  0  0  0  0
 35 69  1  0  0  0  0
 35 76  2  0  0  0  0
 36 51  1  0  0  0  0
 36 72  1  0  0  0  0
 36 77  2  0  0  0  0
 37 60  1  0  0  0  0
 37 66  1  0  0  0  0
 37 78  2  0  0  0  0
 38 59  1  0  0  0  0
 38 71  1  0  0  0  0
 38 79  2  0  0  0  0
 39 61  1  0  0  0  0
 39 73  1  0  0  0  0
 39 80  2  0  0  0  0
 40 67  1  0  0  0  0
 40 70  1  0  0  0  0
 40 81  2  0  0  0  0
 41 44  1  0  0  0  0
 42 51  1  0  0  0  0
 43 66  1  0  0  0  0
 44 46  1  0  0  0  0
 45 47  1  0  0  0  0
 45 48  1  0  0  0  0
 46 50  1  0  0  0  0
 47 52  1  0  0  0  0
 48 67  1  0  0  0  0
 49 52  1  0  0  0  0
 49 67  1  0  0  0  0
 50 72  1  0  0  0  0
 51 66  1  0  0  0  0
 52 65  1  0  0  0  0
 53 61  1  0  0  0  0
 54 62  1  0  0  0  0
 55 63  1  0  0  0  0
 56 63  1  0  0  0  0
 57 63  1  0  0  0  0
 58 74  1  0  0  0  0
 59 62  1  0  0  0  0
 60 63  1  0  0  0  0
 60 73  1  0  0  0  0
 61 74  1  0  0  0  0
 62 83  1  0  0  0  0
 64 65  1  0  0  0  0
M  CHG  1  74   1
M  ISO  4  40 100  62 101  70 100  83 101
M  END
> <Batch ID>
0170

> <Smiles>
CNC(C)C(=O)NC(C(=O)N1Cc2cc([101O:1][101CH:1](C)CC(=O)NC(=O)c3cc([100NH:0][100C:0](=O)N4CCCC(n5nc(-c6ccc(Oc7ccc(F)cc7F)cc6)c(C(N)=O)c5N)C4)cc(F)c3F)ccc2CC1C(=O)NC1CCCc2ccccc21)C(C)(C)C

> <Shape>
0.205

> <Color>
0.188

> <Negative vol penalty>
0.000

$$$$

  -OEChem-04052304203D

 84 92  0     1  0  0  0  0  0999 V2000
  -24.0208  -24.0600   21.1497 C   0  0  0  0  0  0  0  0  0  0  0  0
  -25.2909  -23.5833   21.4579 C   0  0  0  0  0  0  0  0  0  0  0  0
  -31.8707  -22.8794   15.4833 C   0  0  0  0  0  0  0  0  0  0  0  0
  -22.8503  -29.5323   21.8562 C   0  0  0  0  0  0  0  0  0  0  0  0
  -23.3144  -27.3954   22.8835 C   0  0  0  0  0  0  0  0  0  0  0  0
  -22.9168  -23.2145   21.2502 C   0  0  0  0  0  0  0  0  0  0  0  0
  -25.4576  -22.2609   21.8678 C   0  0  0  0  0  0  0  0  0  0  0  0
  -29.3779  -20.0015   19.5938 C   0  0  0  0  0  0  0  0  0  0  0  0
  -32.8231  -22.9709   16.4983 C   0  0  0  0  0  0  0  0  0  0  0  0
  -30.5790  -23.3620   15.6934 C   0  0  0  0  0  0  0  0  0  0  0  0
  -21.7619  -29.7068   22.7109 C   0  0  0  0  0  0  0  0  0  0  0  0
  -22.2261  -27.5699   23.7382 C   0  0  0  0  0  0  0  0  0  0  0  0
  -30.6520  -20.3030   20.0729 C   0  0  0  0  0  0  0  0  0  0  0  0
  -18.6443  -30.5509   24.3818 C   0  0  0  0  0  0  0  0  0  0  0  0
  -17.4504  -31.0129   23.8280 C   0  0  0  0  0  0  0  0  0  0  0  0
  -30.6637  -18.2397   21.3226 C   0  0  0  0  0  0  0  0  0  0  0  0
  -17.3737  -29.0798   22.3808 C   0  0  0  0  0  0  0  0  0  0  0  0
  -23.6265  -28.3765   21.9424 C   0  0  0  0  0  0  0  0  0  0  0  0
  -26.0820  -28.5931   21.2855 C   0  0  0  0  0  0  0  0  0  0  0  0
  -23.0712  -21.8784   21.6523 C   0  0  0  0  0  0  0  0  0  0  0  0
  -28.7316  -18.8201   19.9849 C   0  0  0  0  0  0  0  0  0  0  0  0
  -24.3544  -21.3971   21.9751 C   0  0  0  0  0  0  0  0  0  0  0  0
  -29.3825  -17.9243   20.8451 C   0  0  0  0  0  0  0  0  0  0  0  0
  -32.4837  -23.5449   17.7234 C   0  0  0  0  0  0  0  0  0  0  0  0
  -30.2396  -23.9360   16.9185 C   0  0  0  0  0  0  0  0  0  0  0  0
  -21.4498  -28.7256   23.6520 C   0  0  0  0  0  0  0  0  0  0  0  0
  -31.2939  -19.4234   20.9397 C   0  0  0  0  0  0  0  0  0  0  0  0
  -19.2030  -29.3534   23.9350 C   0  0  0  0  0  0  0  0  0  0  0  0
  -16.8151  -30.2773   22.8275 C   0  0  0  0  0  0  0  0  0  0  0  0
  -18.5677  -28.6178   22.9345 C   0  0  0  0  0  0  0  0  0  0  0  0
  -31.1919  -24.0275   17.9336 C   0  0  0  0  0  0  0  0  0  0  0  0
  -24.7506  -28.1954   21.0594 C   0  0  0  0  0  0  0  0  0  0  0  0
  -26.7555  -28.1956   20.1564 C   0  0  0  0  0  0  0  0  0  0  0  0
  -26.6584  -29.2618   22.4152 C   0  0  0  0  0  0  0  0  0  0  0  0
  -26.0557  -18.1433   21.5615 C   0  0  0  0  0  0  0  0  0  0  0  0
  -26.8114  -15.0942   20.7524 C   0  0  0  0  0  0  0  0  0  0  0  0
  -29.2199  -12.8427   19.8713 C   0  0  0  0  0  0  0  0  0  0  0  0
  -33.4380  -21.6146   20.2449 C   0  0  0  0  0  0  0  0  0  0  0  0
  -27.8650  -24.4120   16.2249 C   0  0  0  0  0  0  0  0  0  0  0  0
  -21.8421  -21.0155   21.7916 C   0  0  0  0  0  0  0  0  0  0  0  0
  -27.3682  -18.4966   19.4381 C   0  0  0  0  0  0  0  0  0  0  0  0
  -28.7401  -16.6330   21.2792 C   0  0  0  0  0  0  0  0  0  0  0  0
  -22.1517  -19.5229   21.8727 C   0  0  0  0  0  0  0  0  0  0  0  0
  -25.0230  -26.4953   15.7146 C   0  0  0  0  0  0  0  0  0  0  0  0
  -23.2903  -19.2665   22.8548 C   0  0  0  0  0  0  0  0  0  0  0  0
  -24.8083  -27.1560   17.0782 C   0  0  0  0  0  0  0  0  0  0  0  0
  -25.4917  -25.0479   15.8532 C   0  0  0  0  0  0  0  0  0  0  0  0
  -26.4558  -25.5169   18.0712 C   0  0  0  0  0  0  0  0  0  0  0  0
  -24.5789  -19.9619   22.3994 C   0  0  1  0  0  0  0  0  0  0  0  0
  -26.5935  -17.5119   20.3086 C   0  0  1  0  0  0  0  0  0  0  0  0
  -26.0457  -26.9960   17.9831 C   0  0  2  0  0  0  0  0  0  0  0  0
  -29.5391  -10.4173   19.3116 C   0  0  0  0  0  0  0  0  0  0  0  0
  -33.8547  -21.2583   22.7038 C   0  0  0  0  0  0  0  0  0  0  0  0
  -26.5724  -14.3828   23.7099 C   0  0  0  0  0  0  0  0  0  0  0  0
  -27.7996  -12.2550   23.2256 C   0  0  0  0  0  0  0  0  0  0  0  0
  -25.5929  -12.6930   22.1479 C   0  0  0  0  0  0  0  0  0  0  0  0
  -30.2128  -13.4801   17.1571 C   0  0  0  0  0  0  0  0  0  0  0  0
  -33.5114  -23.6421   18.8136 C   0  0  0  0  0  0  0  0  0  0  0  0
  -27.6242  -13.9905   21.3848 C   0  0  1  0  0  0  0  0  0  0  0  0
  -29.2752  -11.8098   18.7602 C   0  0  2  0  0  0  0  0  0  0  0  0
  -32.8678  -21.0958   21.5577 C   0  0  2  0  0  0  0  0  0  1  0  0
  -26.9089  -13.3555   22.6106 C   0  0  0  0  0  0  0  0  0  0  0  0
  -24.5861  -27.5919   19.8793 N   0  0  0  0  0  0  0  0  0  0  0  0
  -25.8228  -27.6073   19.3537 N   0  0  0  0  0  0  0  0  0  0  0  0
  -27.4039  -16.3646   20.7225 N   0  0  0  0  0  0  0  0  0  0  0  0
  -26.6696  -24.9744   16.7204 N   0  0  0  0  0  0  0  0  0  0  0  0
  -28.0485  -28.2956   19.7817 N   0  0  0  0  0  0  0  0  0  0  0  0
  -25.8239  -29.5981   23.4899 N   0  0  0  0  0  0  0  0  0  0  0  0
  -28.9268  -24.4260   17.1288 N   0  0  0  0  0  0  0  0  0  0  0  0
  -25.2090  -19.2114   21.3345 N   0  0  0  0  0  0  0  0  0  0  0  0
  -33.1022  -22.9383   20.0063 N   0  0  0  0  0  0  0  0  0  0  0  0
  -27.9307  -13.0456   20.3163 N   0  0  0  0  0  0  0  0  0  0  0  0
  -30.3589  -12.1459   17.7940 N   0  3  0  0  0  0  0  0  0  0  0  0
  -27.8741  -29.5673   22.4629 O   0  0  0  0  0  0  0  0  0  0  0  0
  -26.3835  -17.6937   22.6533 O   0  0  0  0  0  0  0  0  0  0  0  0
  -25.6949  -14.8372   20.2951 O   0  0  0  0  0  0  0  0  0  0  0  0
  -30.2208  -13.4098   20.3039 O   0  0  0  0  0  0  0  0  0  0  0  0
  -34.1035  -20.9090   19.4899 O   0  0  0  0  0  0  0  0  0  0  0  0
  -27.9489  -23.9766   15.0737 O   0  0  0  0  0  0  0  0  0  0  0  0
  -20.3880  -28.8957   24.4864 O   0  0  0  0  0  0  0  0  0  0  0  0
  -32.5373  -19.7156   21.4093 O   0  0  0  0  0  0  0  0  0  1  0  0
  -15.6677  -30.7203   22.2969 F   0  0  0  0  0  0  0  0  0  0  0  0
  -19.0990  -27.4661   22.5021 F   0  0  0  0  0  0  0  0  0  0  0  0
  -30.8668  -24.5807   19.1117 F   0  0  0  0  0  0  0  0  0  0  0  0
  1  2  1  0  0  0  0
  1  6  2  0  0  0  0
  2  7  2  0  0  0  0
  3  9  2  0  0  0  0
  3 10  1  0  0  0  0
  4 11  2  0  0  0  0
  4 18  1  0  0  0  0
  5 12  1  0  0  0  0
  5 18  2  0  0  0  0
  6 20  1  0  0  0  0
  7 22  1  0  0  0  0
  8 13  2  0  0  0  0
  8 21  1  0  0  0  0
  9 24  1  0  0  0  0
 10 25  2  0  0  0  0
 11 26  1  0  0  0  0
 12 26  2  0  0  0  0
 13 27  1  0  0  0  0
 14 15  2  0  0  0  0
 14 28  1  0  0  0  0
 15 29  1  0  0  0  0
 16 23  1  0  0  0  0
 16 27  2  0  0  0  0
 17 29  2  0  0  0  0
 17 30  1  0  0  0  0
 18 32  1  0  0  0  0
 19 32  1  0  0  0  0
 19 33  2  0  0  0  0
 19 34  1  0  0  0  0
 20 22  2  0  0  0  0
 20 40  1  0  0  0  0
 21 23  2  0  0  0  0
 21 41  1  0  0  0  0
 22 49  1  0  0  0  0
 23 42  1  0  0  0  0
 24 31  2  0  0  0  0
 24 58  1  0  0  0  0
 25 31  1  0  0  0  0
 25 69  1  0  0  0  0
 26 80  1  0  0  0  0
 27 81  1  0  0  0  0
 28 30  2  0  0  0  0
 28 80  1  0  0  0  0
 29 82  1  0  0  0  0
 30 83  1  0  0  0  0
 31 84  1  0  0  0  0
 32 63  2  0  0  0  0
 33 64  1  0  0  0  0
 33 67  1  0  0  0  0
 34 68  1  0  0  0  0
 34 74  2  0  0  0  0
 35 50  1  0  0  0  0
 35 70  1  0  0  0  0
 35 75  2  0  0  0  0
 36 59  1  0  0  0  0
 36 65  1  0  0  0  0
 36 76  2  0  0  0  0
 37 60  1  0  0  0  0
 37 72  1  0  0  0  0
 37 77  2  0  0  0  0
 38 61  1  0  0  0  0
 38 71  1  0  0  0  0
 38 78  2  0  0  0  0
 39 66  1  0  0  0  0
 39 69  1  0  0  0  0
 39 79  2  0  0  0  0
 40 43  1  0  0  0  0
 41 50  1  0  0  0  0
 42 65  1  0  0  0  0
 43 45  1  0  0  0  0
 44 46  1  0  0  0  0
 44 47  1  0  0  0  0
 45 49  1  0  0  0  0
 46 51  1  0  0  0  0
 47 66  1  0  0  0  0
 48 51  1  0  0  0  0
 48 66  1  0  0  0  0
 49 70  1  0  0  0  0
 50 65  1  0  0  0  0
 51 64  1  0  0  0  0
 52 60  1  0  0  0  0
 53 61  1  0  0  0  0
 54 62  1  0  0  0  0
 55 62  1  0  0  0  0
 56 62  1  0  0  0  0
 57 73  1  0  0  0  0
 58 71  1  0  0  0  0
 59 62  1  0  0  0  0
 59 72  1  0  0  0  0
 60 73  1  0  0  0  0
 61 81  1  0  0  0  0
 63 64  1  0  0  0  0
M  CHG  1  73   1
M  ISO  4  39 100  61 101  69 100  81 101
M  END
> <Batch ID>
0170

> <Smiles>
CNC(C)C(=O)NC(C(=O)N1Cc2cc([101O:1][101CH:1](C)C(=O)NCc3cccc([100NH:0][100C:0](=O)N4CCCC(n5nc(-c6ccc(Oc7ccc(F)cc7F)cc6)c(C(N)=O)c5N)C4)c3F)ccc2CC1C(=O)NC1CCCc2ccccc21)C(C)(C)C

> <Shape>
0.230

> <Color>
0.046

> <Negative vol penalty>
0.000

$$$$

  -OEChem-04052304203D

 85 93  0     1  0  0  0  0  0999 V2000
  -24.4237  -24.7206   16.0065 C   0  0  0  0  0  0  0  0  0  0  0  0
  -24.7791  -24.1644   17.2311 C   0  0  0  0  0  0  0  0  0  0  0  0
  -23.1073   -9.8077   20.1951 C   0  0  0  0  0  0  0  0  0  0  0  0
  -23.7871  -10.0971   22.4954 C   0  0  0  0  0  0  0  0  0  0  0  0
  -24.4801  -26.1021   15.8269 C   0  0  0  0  0  0  0  0  0  0  0  0
  -25.1923  -24.9894   18.2766 C   0  0  0  0  0  0  0  0  0  0  0  0
  -23.0649  -23.7353   22.6978 C   0  0  0  0  0  0  0  0  0  0  0  0
  -31.9838  -16.8723   22.2735 C   0  0  0  0  0  0  0  0  0  0  0  0
  -22.3578   -8.6886   20.5574 C   0  0  0  0  0  0  0  0  0  0  0  0
  -23.0374   -8.9779   22.8577 C   0  0  0  0  0  0  0  0  0  0  0  0
  -23.5929  -22.6330   23.3685 C   0  0  0  0  0  0  0  0  0  0  0  0
  -19.3626   -8.0547   21.9927 C   0  0  0  0  0  0  0  0  0  0  0  0
  -32.5379  -17.8636   23.0833 C   0  0  0  0  0  0  0  0  0  0  0  0
  -18.0735   -7.9418   21.4722 C   0  0  0  0  0  0  0  0  0  0  0  0
  -24.8378  -24.1138   24.8096 C   0  0  0  0  0  0  0  0  0  0  0  0
  -29.7789  -17.7726   22.6800 C   0  0  0  0  0  0  0  0  0  0  0  0
  -18.6830   -5.8566   20.4151 C   0  0  0  0  0  0  0  0  0  0  0  0
  -23.8221  -10.5119   21.1641 C   0  0  0  0  0  0  0  0  0  0  0  0
  -24.1624  -13.0061   20.7508 C   0  0  0  0  0  0  0  0  0  0  0  0
  -24.8848  -26.9452   16.8738 C   0  0  0  0  0  0  0  0  0  0  0  0
  -23.4284  -25.0371   23.0715 C   0  0  0  0  0  0  0  0  0  0  0  0
  -25.2554  -26.3834   18.1105 C   0  0  0  0  0  0  0  0  0  0  0  0
  -24.3110  -25.2310   24.1437 C   0  0  0  0  0  0  0  0  0  0  0  0
  -30.3330  -18.7639   23.4899 C   0  0  0  0  0  0  0  0  0  0  0  0
  -30.6043  -16.8268   22.0718 C   0  0  0  0  0  0  0  0  0  0  0  0
  -22.3228   -8.2737   21.8886 C   0  0  0  0  0  0  0  0  0  0  0  0
  -24.4818  -22.8220   24.4227 C   0  0  0  0  0  0  0  0  0  0  0  0
  -20.3120   -7.0686   21.7243 C   0  0  0  0  0  0  0  0  0  0  0  0
  -17.7337   -6.8427   20.6834 C   0  0  0  0  0  0  0  0  0  0  0  0
  -31.7125  -18.8094   23.6915 C   0  0  0  0  0  0  0  0  0  0  0  0
  -19.9722   -5.9696   20.9356 C   0  0  0  0  0  0  0  0  0  0  0  0
  -24.5970  -11.6677   20.7905 C   0  0  0  0  0  0  0  0  0  0  0  0
  -25.2648  -13.7131   20.3370 C   0  0  0  0  0  0  0  0  0  0  0  0
  -22.8770  -13.5608   21.0604 C   0  0  0  0  0  0  0  0  0  0  0  0
  -24.9002  -27.4567   21.6283 C   0  0  0  0  0  0  0  0  0  0  0  0
  -27.0187  -20.5588   25.6904 C   0  0  0  0  0  0  0  0  0  0  0  0
  -24.1140  -29.0453   24.3450 C   0  0  0  0  0  0  0  0  0  0  0  0
  -23.3208  -28.8978   27.6610 C   0  0  0  0  0  0  0  0  0  0  0  0
  -30.7194  -14.8069   20.5707 C   0  0  0  0  0  0  0  0  0  0  0  0
  -24.9752  -28.4287   16.6176 C   0  0  0  0  0  0  0  0  0  0  0  0
  -22.8293  -26.2162   22.3552 C   0  0  0  0  0  0  0  0  0  0  0  0
  -24.7174  -26.6086   24.5970 C   0  0  0  0  0  0  0  0  0  0  0  0
  -25.0649  -29.2628   17.8929 C   0  0  0  0  0  0  0  0  0  0  0  0
  -29.6932  -12.1172   18.4756 C   0  0  0  0  0  0  0  0  0  0  0  0
  -26.0893  -28.6640   18.8515 C   0  0  0  0  0  0  0  0  0  0  0  0
  -28.2401  -11.8706   18.8878 C   0  0  0  0  0  0  0  0  0  0  0  0
  -30.5655  -12.4956   19.6713 C   0  0  0  0  0  0  0  0  0  0  0  0
  -28.6101  -13.3697   20.8885 C   0  0  0  0  0  0  0  0  0  0  0  0
  -25.6850  -27.2472   19.2765 C   0  0  1  0  0  0  0  0  0  0  0  0
  -23.6674  -27.4842   22.4868 C   0  0  1  0  0  0  0  0  0  0  0  0
  -27.6792  -13.0490   19.7078 C   0  0  2  0  0  0  0  0  0  0  0  0
  -28.4253  -20.2722   27.7727 C   0  0  0  0  0  0  0  0  0  0  0  0
  -22.7685  -30.3637   29.6215 C   0  0  0  0  0  0  0  0  0  0  0  0
  -27.0586  -29.8006   24.6067 C   0  0  0  0  0  0  0  0  0  0  0  0
  -26.6170  -30.4151   26.9932 C   0  0  0  0  0  0  0  0  0  0  0  0
  -25.4568  -31.6408   25.1563 C   0  0  0  0  0  0  0  0  0  0  0  0
  -20.6479  -27.6669   27.9764 C   0  0  0  0  0  0  0  0  0  0  0  0
  -29.4435  -19.7810   24.1421 C   0  0  0  0  0  0  0  0  0  0  0  0
  -26.3028  -21.8956   25.6398 C   0  0  0  0  0  0  0  0  0  1  0  0
  -28.4193  -20.5660   26.2806 C   0  0  1  0  0  0  0  0  0  0  0  0
  -24.7746  -29.2644   25.6846 C   0  0  1  0  0  0  0  0  0  0  0  0
  -22.2103  -29.5543   28.4613 C   0  0  2  0  0  0  0  0  0  0  0  0
  -25.9708  -30.2541   25.6007 C   0  0  0  0  0  0  0  0  0  0  0  0
  -25.8759  -11.5301   20.4304 N   0  0  0  0  0  0  0  0  0  0  0  0
  -26.2542  -12.7910   20.1605 N   0  0  0  0  0  0  0  0  0  0  0  0
  -24.1095  -27.7294   23.8611 N   0  0  0  0  0  0  0  0  0  0  0  0
  -29.9741  -13.6214   20.3977 N   0  0  0  0  0  0  0  0  0  0  0  0
  -25.4748  -15.0272   20.1104 N   0  0  0  0  0  0  0  0  0  0  0  0
  -21.8559  -12.6927   21.4705 N   0  0  0  0  0  0  0  0  0  0  0  0
  -30.0419  -15.8201   21.2483 N   0  0  0  0  0  0  0  0  0  0  0  0
  -24.6433  -27.2984   20.2798 N   0  0  0  0  0  0  0  0  0  0  0  0
  -23.7166  -29.6819   26.5982 N   0  0  0  0  0  0  0  0  0  0  0  0
  -21.2870  -28.5212   29.0101 N   0  3  0  0  0  0  0  0  0  0  0  0
  -29.2524  -19.5403   25.5965 N   0  3  0  0  0  0  0  0  0  0  0  0
  -22.6362  -14.7877   20.9601 O   0  0  0  0  0  0  0  0  0  0  0  0
  -26.0028  -27.5722   22.1504 O   0  0  0  0  0  0  0  0  0  0  0  0
  -26.4961  -19.5307   25.2604 O   0  0  0  0  0  0  0  0  0  0  0  0
  -23.6138  -30.0051   23.7532 O   0  0  0  0  0  0  0  0  0  0  0  0
  -23.7926  -27.8008   27.9520 O   0  0  0  0  0  0  0  0  0  0  0  0
  -31.8637  -14.9250   20.1250 O   0  0  0  0  0  0  0  0  0  0  0  0
  -21.5912   -7.1818   22.2425 O   0  0  0  0  0  0  0  0  0  0  0  0
  -24.9992  -21.7478   25.0786 O   0  0  0  0  0  0  0  0  0  1  0  0
  -16.4952   -6.7336   20.1849 F   0  0  0  0  0  0  0  0  0  0  0  0
  -32.2542  -19.7574   24.4689 F   0  0  0  0  0  0  0  0  0  0  0  0
  -20.8796   -5.0184   20.6753 F   0  0  0  0  0  0  0  0  0  0  0  0
  1  2  1  0  0  0  0
  1  5  2  0  0  0  0
  2  6  2  0  0  0  0
  3  9  2  0  0  0  0
  3 18  1  0  0  0  0
  4 10  1  0  0  0  0
  4 18  2  0  0  0  0
  5 20  1  0  0  0  0
  6 22  1  0  0  0  0
  7 11  2  0  0  0  0
  7 21  1  0  0  0  0
  8 13  2  0  0  0  0
  8 25  1  0  0  0  0
  9 26  1  0  0  0  0
 10 26  2  0  0  0  0
 11 27  1  0  0  0  0
 12 14  2  0  0  0  0
 12 28  1  0  0  0  0
 13 30  1  0  0  0  0
 14 29  1  0  0  0  0
 15 23  1  0  0  0  0
 15 27  2  0  0  0  0
 16 24  1  0  0  0  0
 16 25  2  0  0  0  0
 17 29  2  0  0  0  0
 17 31  1  0  0  0  0
 18 32  1  0  0  0  0
 19 32  1  0  0  0  0
 19 33  2  0  0  0  0
 19 34  1  0  0  0  0
 20 22  2  0  0  0  0
 20 40  1  0  0  0  0
 21 23  2  0  0  0  0
 21 41  1  0  0  0  0
 22 49  1  0  0  0  0
 23 42  1  0  0  0  0
 24 30  2  0  0  0  0
 24 58  1  0  0  0  0
 25 70  1  0  0  0  0
 26 81  1  0  0  0  0
 27 82  1  0  0  0  0
 28 31  2  0  0  0  0
 28 81  1  0  0  0  0
 29 83  1  0  0  0  0
 30 84  1  0  0  0  0
 31 85  1  0  0  0  0
 32 64  2  0  0  0  0
 33 65  1  0  0  0  0
 33 68  1  0  0  0  0
 34 69  1  0  0  0  0
 34 75  2  0  0  0  0
 35 50  1  0  0  0  0
 35 71  1  0  0  0  0
 35 76  2  0  0  0  0
 36 59  1  0  0  0  0
 36 60  1  0  0  0  0
 36 77  2  0  0  0  0
 37 61  1  0  0  0  0
 37 66  1  0  0  0  0
 37 78  2  0  0  0  0
 38 62  1  0  0  0  0
 38 72  1  0  0  0  0
 38 79  2  0  0  0  0
 39 67  1  0  0  0  0
 39 70  1  0  0  0  0
 39 80  2  0  0  0  0
 40 43  1  0  0  0  0
 41 50  1  0  0  0  0
 42 66  1  0  0  0  0
 43 45  1  0  0  0  0
 44 46  1  0  0  0  0
 44 47  1  0  0  0  0
 45 49  1  0  0  0  0
 46 51  1  0  0  0  0
 47 67  1  0  0  0  0
 48 51  1  0  0  0  0
 48 67  1  0  0  0  0
 49 71  1  0  0  0  0
 50 66  1  0  0  0  0
 51 65  1  0  0  0  0
 52 60  1  0  0  0  0
 53 62  1  0  0  0  0
 54 63  1  0  0  0  0
 55 63  1  0  0  0  0
 56 63  1  0  0  0  0
 57 73  1  0  0  0  0
 58 74  1  0  0  0  0
 59 82  1  0  0  0  0
 60 74  1  0  0  0  0
 61 63  1  0  0  0  0
 61 72  1  0  0  0  0
 62 73  1  0  0  0  0
 64 65  1  0  0  0  0
M  CHG  2  73   1  74   1
M  ISO  4  39 100  59 101  70 100  82 101
M  END
> <Batch ID>
0170

> <Smiles>
CNC(C)C(=O)NC(C(=O)N1Cc2cc([101O:1][101CH2:1]C(=O)C(C)NCc3cc([100NH:0][100C:0](=O)N4CCCC(n5nc(-c6ccc(Oc7ccc(F)cc7F)cc6)c(C(N)=O)c5N)C4)ccc3F)ccc2CC1C(=O)NC1CCCc2ccccc21)C(C)(C)C

> <Shape>
0.209

> <Color>
0.189

> <Negative vol penalty>
0.000

$$$$

  -OEChem-04052304203D

 84 92  0     1  0  0  0  0  0999 V2000
  -20.9382  -31.4240   22.8088 C   0  0  0  0  0  0  0  0  0  0  0  0
  -21.6238  -30.3215   23.3087 C   0  0  0  0  0  0  0  0  0  0  0  0
  -23.2505   -9.6691   20.1483 C   0  0  0  0  0  0  0  0  0  0  0  0
  -23.7134  -10.1329   22.4737 C   0  0  0  0  0  0  0  0  0  0  0  0
  -19.5443  -31.4214   22.7780 C   0  0  0  0  0  0  0  0  0  0  0  0
  -20.9157  -29.2161   23.7791 C   0  0  0  0  0  0  0  0  0  0  0  0
  -22.8582  -24.8303   22.1555 C   0  0  0  0  0  0  0  0  0  0  0  0
  -22.5268   -8.5356   20.5184 C   0  0  0  0  0  0  0  0  0  0  0  0
  -22.9896   -8.9994   22.8439 C   0  0  0  0  0  0  0  0  0  0  0  0
  -24.0023  -24.3629   22.8008 C   0  0  0  0  0  0  0  0  0  0  0  0
  -19.7450   -8.1247   23.2011 C   0  0  0  0  0  0  0  0  0  0  0  0
  -18.8481   -8.2482   24.2622 C   0  0  0  0  0  0  0  0  0  0  0  0
  -22.6439  -22.8537   24.1032 C   0  0  0  0  0  0  0  0  0  0  0  0
  -29.2916  -18.1135   22.6610 C   0  0  0  0  0  0  0  0  0  0  0  0
  -31.0778  -19.3105   23.7625 C   0  0  0  0  0  0  0  0  0  0  0  0
  -31.5641  -17.3094   22.4992 C   0  0  0  0  0  0  0  0  0  0  0  0
  -20.0614   -6.5540   25.4848 C   0  0  0  0  0  0  0  0  0  0  0  0
  -23.8439  -10.4677   21.1259 C   0  0  0  0  0  0  0  0  0  0  0  0
  -24.0988  -12.9469   20.5816 C   0  0  0  0  0  0  0  0  0  0  0  0
  -18.8190  -30.3115   23.2392 C   0  0  0  0  0  0  0  0  0  0  0  0
  -21.5951  -24.3197   22.4875 C   0  0  0  0  0  0  0  0  0  0  0  0
  -19.5108  -29.1992   23.7556 C   0  0  0  0  0  0  0  0  0  0  0  0
  -21.4857  -23.3144   23.4588 C   0  0  0  0  0  0  0  0  0  0  0  0
  -29.7249  -19.1795   23.4493 C   0  0  0  0  0  0  0  0  0  0  0  0
  -30.2112  -17.1784   22.1859 C   0  0  0  0  0  0  0  0  0  0  0  0
  -22.3963   -8.2007   21.8662 C   0  0  0  0  0  0  0  0  0  0  0  0
  -23.8950  -23.3766   23.7768 C   0  0  0  0  0  0  0  0  0  0  0  0
  -20.8000   -7.2158   23.2818 C   0  0  0  0  0  0  0  0  0  0  0  0
  -19.0064   -7.4629   25.4041 C   0  0  0  0  0  0  0  0  0  0  0  0
  -31.9974  -18.3754   23.2875 C   0  0  0  0  0  0  0  0  0  0  0  0
  -20.9583   -6.4305   24.4237 C   0  0  0  0  0  0  0  0  0  0  0  0
  -24.5921  -11.6385   20.7442 C   0  0  0  0  0  0  0  0  0  0  0  0
  -25.1979  -13.6852   20.2164 C   0  0  0  0  0  0  0  0  0  0  0  0
  -25.6672  -21.8526   23.8625 C   0  0  0  0  0  0  0  0  0  1  0  0
  -22.7663  -13.4500   20.7459 C   0  0  0  0  0  0  0  0  0  0  0  0
  -26.7724  -21.3214   24.3992 C   0  0  0  0  0  0  0  0  0  0  0  0
  -27.4201  -20.1511   23.7215 C   0  0  0  0  0  0  0  0  0  0  0  0
  -18.9227  -25.5519   23.6890 C   0  0  0  0  0  0  0  0  0  0  0  0
  -17.7487  -22.5878   23.0905 C   0  0  0  0  0  0  0  0  0  0  0  0
  -18.3705  -19.2639   22.6304 C   0  0  0  0  0  0  0  0  0  0  0  0
  -30.5528  -15.0804   20.8340 C   0  0  0  0  0  0  0  0  0  0  0  0
  -17.3121  -30.3741   23.2296 C   0  0  0  0  0  0  0  0  0  0  0  0
  -20.3735  -24.8154   21.7632 C   0  0  0  0  0  0  0  0  0  0  0  0
  -20.1550  -22.7190   23.8374 C   0  0  0  0  0  0  0  0  0  0  0  0
  -16.6449  -29.0117   23.4002 C   0  0  0  0  0  0  0  0  0  0  0  0
  -29.8425  -12.2179   18.8393 C   0  0  0  0  0  0  0  0  0  0  0  0
  -17.2965  -28.2373   24.5414 C   0  0  0  0  0  0  0  0  0  0  0  0
  -28.3726  -11.9196   19.1437 C   0  0  0  0  0  0  0  0  0  0  0  0
  -30.5886  -12.7139   20.0767 C   0  0  0  0  0  0  0  0  0  0  0  0
  -28.4953  -13.5547   21.0668 C   0  0  0  0  0  0  0  0  0  0  0  0
  -18.7787  -27.9713   24.2520 C   0  0  1  0  0  0  0  0  0  0  0  0
  -19.0830  -24.5908   22.5452 C   0  0  1  0  0  0  0  0  0  0  0  0
  -27.6868  -13.1139   19.8357 C   0  0  2  0  0  0  0  0  0  0  0  0
  -17.2061  -17.0835   22.1974 C   0  0  0  0  0  0  0  0  0  0  0  0
  -16.8504  -22.4916   26.0049 C   0  0  0  0  0  0  0  0  0  0  0  0
  -16.5764  -20.0145   25.7660 C   0  0  0  0  0  0  0  0  0  0  0  0
  -15.2000  -21.5598   24.3732 C   0  0  0  0  0  0  0  0  0  0  0  0
  -19.7967  -18.8785   20.0660 C   0  0  0  0  0  0  0  0  0  0  0  0
  -17.6626  -21.2954   23.8658 C   0  0  1  0  0  0  0  0  0  0  0  0
  -17.8931  -18.2870   21.5710 C   0  0  2  0  0  0  0  0  0  0  0  0
  -16.5974  -21.3527   24.9969 C   0  0  0  0  0  0  0  0  0  0  0  0
  -25.9024  -11.5476   20.5020 N   0  0  0  0  0  0  0  0  0  0  0  0
  -26.2419  -12.8082   20.1835 N   0  0  0  0  0  0  0  0  0  0  0  0
  -18.9892  -23.2411   23.1054 N   0  0  0  0  0  0  0  0  0  0  0  0
  -29.8831  -13.8485   20.6765 N   0  0  0  0  0  0  0  0  0  0  0  0
  -25.3635  -14.9926   19.9234 N   0  0  0  0  0  0  0  0  0  0  0  0
  -21.7563  -12.5551   21.1247 N   0  0  0  0  0  0  0  0  0  0  0  0
  -28.7920  -20.1288   23.9320 N   0  0  0  0  0  0  0  0  0  0  0  0
  -29.7713  -16.0952   21.3854 N   0  0  0  0  0  0  0  0  0  0  0  0
  -18.9222  -26.8811   23.3110 N   0  0  0  0  0  0  0  0  0  0  0  0
  -17.4330  -20.2434   22.8815 N   0  0  0  0  0  0  0  0  0  0  0  0
  -19.0438  -17.8010   20.7583 N   0  3  0  0  0  0  0  0  0  0  0  0
  -22.4766  -14.6540   20.5465 O   0  0  0  0  0  0  0  0  0  0  0  0
  -26.7540  -19.3496   23.0752 O   0  0  0  0  0  0  0  0  0  0  0  0
  -18.8064  -25.1196   24.8297 O   0  0  0  0  0  0  0  0  0  0  0  0
  -16.7540  -22.9988   22.4877 O   0  0  0  0  0  0  0  0  0  0  0  0
  -19.4640  -19.1656   23.1828 O   0  0  0  0  0  0  0  0  0  0  0  0
  -31.7245  -15.2321   20.4788 O   0  0  0  0  0  0  0  0  0  0  0  0
  -27.3443  -21.8101   25.5562 O   0  0  0  0  0  0  0  0  0  0  0  0
  -21.6900   -7.0949   22.2277 O   0  0  0  0  0  0  0  0  0  0  0  0
  -25.0101  -22.9191   24.4087 O   0  0  0  0  0  0  0  0  0  1  0  0
  -18.1460   -7.5827   26.4237 F   0  0  0  0  0  0  0  0  0  0  0  0
  -33.2966  -18.5006   23.5888 F   0  0  0  0  0  0  0  0  0  0  0  0
  -21.9706   -5.5564   24.5075 F   0  0  0  0  0  0  0  0  0  0  0  0
  1  2  1  0  0  0  0
  1  5  2  0  0  0  0
  2  6  2  0  0  0  0
  3  8  2  0  0  0  0
  3 18  1  0  0  0  0
  4  9  1  0  0  0  0
  4 18  2  0  0  0  0
  5 20  1  0  0  0  0
  6 22  1  0  0  0  0
  7 10  2  0  0  0  0
  7 21  1  0  0  0  0
  8 26  1  0  0  0  0
  9 26  2  0  0  0  0
 10 27  1  0  0  0  0
 11 12  2  0  0  0  0
 11 28  1  0  0  0  0
 12 29  1  0  0  0  0
 13 23  1  0  0  0  0
 13 27  2  0  0  0  0
 14 24  2  0  0  0  0
 14 25  1  0  0  0  0
 15 24  1  0  0  0  0
 15 30  2  0  0  0  0
 16 25  2  0  0  0  0
 16 30  1  0  0  0  0
 17 29  2  0  0  0  0
 17 31  1  0  0  0  0
 18 32  1  0  0  0  0
 19 32  1  0  0  0  0
 19 33  2  0  0  0  0
 19 35  1  0  0  0  0
 20 22  2  0  0  0  0
 20 42  1  0  0  0  0
 21 23  2  0  0  0  0
 21 43  1  0  0  0  0
 22 51  1  0  0  0  0
 23 44  1  0  0  0  0
 24 68  1  0  0  0  0
 25 69  1  0  0  0  0
 26 80  1  0  0  0  0
 27 81  1  0  0  0  0
 28 31  2  0  0  0  0
 28 80  1  0  0  0  0
 29 82  1  0  0  0  0
 30 83  1  0  0  0  0
 31 84  1  0  0  0  0
 32 62  2  0  0  0  0
 33 63  1  0  0  0  0
 33 66  1  0  0  0  0
 34 36  2  0  0  0  0
 34 81  1  0  0  0  0
 35 67  1  0  0  0  0
 35 73  2  0  0  0  0
 36 37  1  0  0  0  0
 36 79  1  0  0  0  0
 37 68  1  0  0  0  0
 37 74  2  0  0  0  0
 38 52  1  0  0  0  0
 38 70  1  0  0  0  0
 38 75  2  0  0  0  0
 39 59  1  0  0  0  0
 39 64  1  0  0  0  0
 39 76  2  0  0  0  0
 40 60  1  0  0  0  0
 40 71  1  0  0  0  0
 40 77  2  0  0  0  0
 41 65  1  0  0  0  0
 41 69  1  0  0  0  0
 41 78  2  0  0  0  0
 42 45  1  0  0  0  0
 43 52  1  0  0  0  0
 44 64  1  0  0  0  0
 45 47  1  0  0  0  0
 46 48  1  0  0  0  0
 46 49  1  0  0  0  0
 47 51  1  0  0  0  0
 48 53  1  0  0  0  0
 49 65  1  0  0  0  0
 50 53  1  0  0  0  0
 50 65  1  0  0  0  0
 51 70  1  0  0  0  0
 52 64  1  0  0  0  0
 53 63  1  0  0  0  0
 54 60  1  0  0  0  0
 55 61  1  0  0  0  0
 56 61  1  0  0  0  0
 57 61  1  0  0  0  0
 58 72  1  0  0  0  0
 59 61  1  0  0  0  0
 59 71  1  0  0  0  0
 60 72  1  0  0  0  0
 62 63  1  0  0  0  0
M  CHG  1  72   1
M  ISO  4  34 101  41 100  69 100  81 101
M  END
> <Batch ID>
0170

> <Smiles>
CNC(C)C(=O)NC(C(=O)N1Cc2cc([101O:1][101CH2:1]C(=O)C(=O)Nc3cc(F)cc([100NH:0][100C:0](=O)N4CCCC(n5nc(-c6ccc(Oc7ccc(F)cc7F)cc6)c(C(N)=O)c5N)C4)c3)ccc2CC1C(=O)NC1CCCc2ccccc21)C(C)(C)C

> <Shape>
0.217

> <Color>
0.176

> <Negative vol penalty>
0.000

$$$$

  -OEChem-04052304203D

 84 92  0     1  0  0  0  0  0999 V2000
  -25.8437  -37.8776   18.6804 C   0  0  0  0  0  0  0  0  0  0  0  0
  -26.5588  -36.6906   18.5574 C   0  0  0  0  0  0  0  0  0  0  0  0
  -23.9700   -9.3655   21.2726 C   0  0  0  0  0  0  0  0  0  0  0  0
  -24.6275  -10.3381   23.3842 C   0  0  0  0  0  0  0  0  0  0  0  0
  -25.0038  -38.0737   19.7758 C   0  0  0  0  0  0  0  0  0  0  0  0
  -26.4351  -35.6994   19.5304 C   0  0  0  0  0  0  0  0  0  0  0  0
  -26.6012  -29.6403   18.6551 C   0  0  0  0  0  0  0  0  0  0  0  0
  -23.5390   -8.2167   21.9359 C   0  0  0  0  0  0  0  0  0  0  0  0
  -24.1964   -9.1893   24.0476 C   0  0  0  0  0  0  0  0  0  0  0  0
  -27.6171  -28.6979   18.8088 C   0  0  0  0  0  0  0  0  0  0  0  0
  -20.8479   -7.2413   23.7358 C   0  0  0  0  0  0  0  0  0  0  0  0
  -19.6131   -6.7059   23.3694 C   0  0  0  0  0  0  0  0  0  0  0  0
  -26.7891  -28.1737   21.0131 C   0  0  0  0  0  0  0  0  0  0  0  0
  -20.6951   -4.6384   22.7437 C   0  0  0  0  0  0  0  0  0  0  0  0
  -28.3366  -19.1167   20.8739 C   0  0  0  0  0  0  0  0  0  0  0  0
  -24.5144  -10.4262   21.9967 C   0  0  0  0  0  0  0  0  0  0  0  0
  -24.2010  -12.7617   21.0196 C   0  0  0  0  0  0  0  0  0  0  0  0
  -24.8623  -37.0805   20.7577 C   0  0  0  0  0  0  0  0  0  0  0  0
  -25.6766  -29.8646   19.6853 C   0  0  0  0  0  0  0  0  0  0  0  0
  -25.5935  -35.8829   20.6406 C   0  0  0  0  0  0  0  0  0  0  0  0
  -25.7609  -29.1177   20.8690 C   0  0  0  0  0  0  0  0  0  0  0  0
  -23.6522   -8.1286   23.3234 C   0  0  0  0  0  0  0  0  0  0  0  0
  -27.7129  -27.9665   19.9890 C   0  0  0  0  0  0  0  0  0  0  0  0
  -22.0064   -6.4752   23.6061 C   0  0  0  0  0  0  0  0  0  0  0  0
  -19.5367   -5.4045   22.8733 C   0  0  0  0  0  0  0  0  0  0  0  0
  -21.9300   -5.1738   23.1101 C   0  0  0  0  0  0  0  0  0  0  0  0
  -24.9603  -11.6130   21.3120 C   0  0  0  0  0  0  0  0  0  0  0  0
  -29.3329  -18.3408   20.3236 C   0  0  0  0  0  0  0  0  0  0  0  0
  -29.4909  -21.0057   20.3008 C   0  0  0  0  0  0  0  0  0  0  0  0
  -30.4877  -20.2299   19.7511 C   0  0  0  0  0  0  0  0  0  0  0  0
  -25.0757  -13.5940   20.3648 C   0  0  0  0  0  0  0  0  0  0  0  0
  -28.3461  -25.7456   20.3600 C   0  0  0  0  0  0  0  0  0  1  0  0
  -22.8277  -13.0507   21.3136 C   0  0  0  0  0  0  0  0  0  0  0  0
  -29.2364  -24.7597   20.5240 C   0  0  0  0  0  0  0  0  0  0  0  0
  -28.7413  -23.3638   20.7572 C   0  0  0  0  0  0  0  0  0  0  0  0
  -24.9006  -32.3566   21.4996 C   0  0  0  0  0  0  0  0  0  0  0  0
  -22.5603  -30.3698   22.5473 C   0  0  0  0  0  0  0  0  0  0  0  0
  -21.4612  -27.1699   22.9943 C   0  0  0  0  0  0  0  0  0  0  0  0
  -30.0823  -15.9793   19.8675 C   0  0  0  0  0  0  0  0  0  0  0  0
  -23.9787  -37.3572   21.9482 C   0  0  0  0  0  0  0  0  0  0  0  0
  -24.5706  -30.8658   19.4934 C   0  0  0  0  0  0  0  0  0  0  0  0
  -24.7810  -29.3063   21.9971 C   0  0  0  0  0  0  0  0  0  0  0  0
  -23.6160  -36.1047   22.7419 C   0  0  0  0  0  0  0  0  0  0  0  0
  -29.7019  -12.7095   18.5109 C   0  0  0  0  0  0  0  0  0  0  0  0
  -24.8556  -35.2498   22.9859 C   0  0  0  0  0  0  0  0  0  0  0  0
  -28.3720  -12.2272   19.0946 C   0  0  0  0  0  0  0  0  0  0  0  0
  -30.4881  -13.5536   19.5125 C   0  0  0  0  0  0  0  0  0  0  0  0
  -28.4151  -14.1963   20.6782 C   0  0  0  0  0  0  0  0  0  0  0  0
  -25.4668  -34.7740   21.6625 C   0  0  1  0  0  0  0  0  0  0  0  0
  -23.9932  -31.3778   20.8094 C   0  0  1  0  0  0  0  0  0  0  0  0
  -27.5582  -13.3961   19.6837 C   0  0  2  0  0  0  0  0  0  0  0  0
  -19.5257  -25.8618   23.9108 C   0  0  0  0  0  0  0  0  0  0  0  0
  -23.5312  -30.9265   25.3858 C   0  0  0  0  0  0  0  0  0  0  0  0
  -22.2368  -28.9231   26.1469 C   0  0  0  0  0  0  0  0  0  0  0  0
  -21.0445  -30.8627   25.1275 C   0  0  0  0  0  0  0  0  0  0  0  0
  -20.8857  -25.9532   20.3585 C   0  0  0  0  0  0  0  0  0  0  0  0
  -22.4386  -29.3521   23.6556 C   0  0  1  0  0  0  0  0  0  0  0  0
  -20.1334  -26.5071   22.6750 C   0  0  2  0  0  0  0  0  0  0  0  0
  -22.3325  -30.0137   25.0587 C   0  0  0  0  0  0  0  0  0  0  0  0
  -28.3976  -20.4631   20.8723 N   0  0  0  0  0  0  0  0  0  0  0  0
  -26.2204  -11.7037   20.8785 N   0  0  0  0  0  0  0  0  0  0  0  0
  -30.4264  -18.8836   19.7524 N   0  0  0  0  0  0  0  0  0  0  0  0
  -26.2596  -12.9193   20.3069 N   0  0  0  0  0  0  0  0  0  0  0  0
  -23.7212  -30.3013   21.7642 N   0  0  0  0  0  0  0  0  0  0  0  0
  -29.6552  -14.6438   20.0248 N   0  0  0  0  0  0  0  0  0  0  0  0
  -24.9399  -14.8298   19.8387 N   0  0  0  0  0  0  0  0  0  0  0  0
  -22.0724  -12.0850   21.9927 N   0  0  0  0  0  0  0  0  0  0  0  0
  -29.6248  -22.4146   20.2616 N   0  0  0  0  0  0  0  0  0  0  0  0
  -29.1930  -16.9314   20.3649 N   0  0  0  0  0  0  0  0  0  0  0  0
  -24.7028  -33.6707   21.1207 N   0  0  0  0  0  0  0  0  0  0  0  0
  -21.3041  -28.5034   23.3078 N   0  0  0  0  0  0  0  0  0  0  0  0
  -20.3167  -25.4538   21.6368 N   0  3  0  0  0  0  0  0  0  0  0  0
  -22.2821  -14.1264   20.9693 O   0  0  0  0  0  0  0  0  0  0  0  0
  -27.6736  -23.1606   21.3250 O   0  0  0  0  0  0  0  0  0  0  0  0
  -25.7185  -31.9499   22.3164 O   0  0  0  0  0  0  0  0  0  0  0  0
  -21.6551  -31.1905   22.3779 O   0  0  0  0  0  0  0  0  0  0  0  0
  -22.5305  -26.5643   22.9717 O   0  0  0  0  0  0  0  0  0  0  0  0
  -31.1450  -16.2590   19.3068 O   0  0  0  0  0  0  0  0  0  0  0  0
  -30.5989  -24.9762   20.4858 O   0  0  0  0  0  0  0  0  0  0  0  0
  -23.2314   -7.0078   23.9710 O   0  0  0  0  0  0  0  0  0  0  0  0
  -28.7039  -27.0464   20.1418 O   0  0  0  0  0  0  0  0  0  1  0  0
  -18.3507   -4.8900   22.5230 F   0  0  0  0  0  0  0  0  0  0  0  0
  -23.0393   -4.4325   22.9843 F   0  0  0  0  0  0  0  0  0  0  0  0
  -31.5617  -20.8064   19.1900 F   0  0  0  0  0  0  0  0  0  0  0  0
  1  2  1  0  0  0  0
  1  5  2  0  0  0  0
  2  6  2  0  0  0  0
  3  8  2  0  0  0  0
  3 16  1  0  0  0  0
  4  9  1  0  0  0  0
  4 16  2  0  0  0  0
  5 18  1  0  0  0  0
  6 20  1  0  0  0  0
  7 10  2  0  0  0  0
  7 19  1  0  0  0  0
  8 22  1  0  0  0  0
  9 22  2  0  0  0  0
 10 23  1  0  0  0  0
 11 12  2  0  0  0  0
 11 24  1  0  0  0  0
 12 25  1  0  0  0  0
 13 21  1  0  0  0  0
 13 23  2  0  0  0  0
 14 25  2  0  0  0  0
 14 26  1  0  0  0  0
 15 28  1  0  0  0  0
 15 60  2  0  0  0  0
 16 27  1  0  0  0  0
 17 27  1  0  0  0  0
 17 31  2  0  0  0  0
 17 33  1  0  0  0  0
 18 20  2  0  0  0  0
 18 40  1  0  0  0  0
 19 21  2  0  0  0  0
 19 41  1  0  0  0  0
 20 49  1  0  0  0  0
 21 42  1  0  0  0  0
 22 80  1  0  0  0  0
 23 81  1  0  0  0  0
 24 26  2  0  0  0  0
 24 80  1  0  0  0  0
 25 82  1  0  0  0  0
 26 83  1  0  0  0  0
 27 61  2  0  0  0  0
 28 62  2  0  0  0  0
 28 69  1  0  0  0  0
 29 30  2  0  0  0  0
 29 60  1  0  0  0  0
 29 68  1  0  0  0  0
 30 62  1  0  0  0  0
 30 84  1  0  0  0  0
 31 63  1  0  0  0  0
 31 66  1  0  0  0  0
 32 34  2  0  0  0  0
 32 81  1  0  0  0  0
 33 67  1  0  0  0  0
 33 73  2  0  0  0  0
 34 35  1  0  0  0  0
 34 79  1  0  0  0  0
 35 68  1  0  0  0  0
 35 74  2  0  0  0  0
 36 50  1  0  0  0  0
 36 70  1  0  0  0  0
 36 75  2  0  0  0  0
 37 57  1  0  0  0  0
 37 64  1  0  0  0  0
 37 76  2  0  0  0  0
 38 58  1  0  0  0  0
 38 71  1  0  0  0  0
 38 77  2  0  0  0  0
 39 65  1  0  0  0  0
 39 69  1  0  0  0  0
 39 78  2  0  0  0  0
 40 43  1  0  0  0  0
 41 50  1  0  0  0  0
 42 64  1  0  0  0  0
 43 45  1  0  0  0  0
 44 46  1  0  0  0  0
 44 47  1  0  0  0  0
 45 49  1  0  0  0  0
 46 51  1  0  0  0  0
 47 65  1  0  0  0  0
 48 51  1  0  0  0  0
 48 65  1  0  0  0  0
 49 70  1  0  0  0  0
 50 64  1  0  0  0  0
 51 63  1  0  0  0  0
 52 58  1  0  0  0  0
 53 59  1  0  0  0  0
 54 59  1  0  0  0  0
 55 59  1  0  0  0  0
 56 72  1  0  0  0  0
 57 59  1  0  0  0  0
 57 71  1  0  0  0  0
 58 72  1  0  0  0  0
 61 63  1  0  0  0  0
M  CHG  1  72   1
M  ISO  4  32 101  39 100  69 100  81 101
M  END
> <Batch ID>
0170

> <Smiles>
CNC(C)C(=O)NC(C(=O)N1Cc2cc([101O:1][101CH2:1]C(=O)C(=O)Nc3ncc([100NH:0][100C:0](=O)N4CCCC(n5nc(-c6ccc(Oc7ccc(F)cc7F)cc6)c(C(N)=O)c5N)C4)nc3F)ccc2CC1C(=O)NC1CCCc2ccccc21)C(C)(C)C

> <Shape>
0.348

> <Color>
0.155

> <Negative vol penalty>
0.000

$$$$

  -OEChem-04052304203D

 87 95  0     1  0  0  0  0  0999 V2000
  -29.6855  -34.6055   21.9977 C   0  0  0  0  0  0  0  0  0  0  0  0
  -29.3270  -33.2687   21.8567 C   0  0  0  0  0  0  0  0  0  0  0  0
  -24.1996   -8.8168   20.3791 C   0  0  0  0  0  0  0  0  0  0  0  0
  -22.8726  -10.7451   20.9773 C   0  0  0  0  0  0  0  0  0  0  0  0
  -29.0799  -35.3885   22.9796 C   0  0  0  0  0  0  0  0  0  0  0  0
  -28.3635  -32.7138   22.6983 C   0  0  0  0  0  0  0  0  0  0  0  0
  -25.0008  -29.8733   20.1948 C   0  0  0  0  0  0  0  0  0  0  0  0
  -23.2199   -7.9779   20.9100 C   0  0  0  0  0  0  0  0  0  0  0  0
  -21.8928   -9.9061   21.5082 C   0  0  0  0  0  0  0  0  0  0  0  0
  -25.4025  -28.5915   19.8216 C   0  0  0  0  0  0  0  0  0  0  0  0
  -22.2399   -6.9151   23.9653 C   0  0  0  0  0  0  0  0  0  0  0  0
  -22.6605   -5.8598   24.7746 C   0  0  0  0  0  0  0  0  0  0  0  0
  -24.2147  -27.6756   21.7109 C   0  0  0  0  0  0  0  0  0  0  0  0
  -21.6542   -4.2847   23.2437 C   0  0  0  0  0  0  0  0  0  0  0  0
  -29.3893  -19.1202   20.2183 C   0  0  0  0  0  0  0  0  0  0  0  0
  -24.0260  -10.2005   20.4128 C   0  0  0  0  0  0  0  0  0  0  0  0
  -25.1274  -11.5400   18.5420 C   0  0  0  0  0  0  0  0  0  0  0  0
  -28.1016  -34.8456   23.8273 C   0  0  0  0  0  0  0  0  0  0  0  0
  -24.2107  -30.0673   21.3369 C   0  0  0  0  0  0  0  0  0  0  0  0
  -27.7453  -33.4900   23.6933 C   0  0  0  0  0  0  0  0  0  0  0  0
  -23.8021  -28.9607   22.0950 C   0  0  0  0  0  0  0  0  0  0  0  0
  -27.9633  -19.9680   18.0519 C   0  0  0  0  0  0  0  0  0  0  0  0
  -28.7442  -18.1692   19.4443 C   0  0  0  0  0  0  0  0  0  0  0  0
  -22.0665   -8.5225   21.4745 C   0  0  0  0  0  0  0  0  0  0  0  0
  -25.0119  -27.4927   20.5813 C   0  0  0  0  0  0  0  0  0  0  0  0
  -21.5264   -6.6553   22.7952 C   0  0  0  0  0  0  0  0  0  0  0  0
  -22.3677   -4.5446   24.4138 C   0  0  0  0  0  0  0  0  0  0  0  0
  -21.2335   -5.3401   22.4344 C   0  0  0  0  0  0  0  0  0  0  0  0
  -28.0197  -18.6094   18.3422 C   0  0  0  0  0  0  0  0  0  0  0  0
  -25.0379  -11.0677   19.8651 C   0  0  0  0  0  0  0  0  0  0  0  0
  -28.6432  -20.8386   18.8883 C   0  0  0  0  0  0  0  0  0  0  0  0
  -26.2569  -12.3215   18.5320 C   0  0  0  0  0  0  0  0  0  0  0  0
  -24.2665  -11.2944   17.4221 C   0  0  0  0  0  0  0  0  0  0  0  0
  -24.5868  -31.6138   24.0884 C   0  0  0  0  0  0  0  0  0  0  0  0
  -30.7478  -23.1887   19.0912 C   0  0  0  0  0  0  0  0  0  0  0  0
  -21.4835  -30.7802   24.5325 C   0  0  0  0  0  0  0  0  0  0  0  0
  -18.9173  -28.6593   23.7820 C   0  0  0  0  0  0  0  0  0  0  0  0
  -29.5090  -16.2114   20.8331 C   0  0  0  0  0  0  0  0  0  0  0  0
  -27.5091  -35.7188   24.9049 C   0  0  0  0  0  0  0  0  0  0  0  0
  -23.7634  -31.4538   21.7109 C   0  0  0  0  0  0  0  0  0  0  0  0
  -22.9371  -29.1134   23.3184 C   0  0  0  0  0  0  0  0  0  0  0  0
  -26.2267  -35.1536   25.5103 C   0  0  0  0  0  0  0  0  0  0  0  0
  -29.9149  -12.8679   21.9878 C   0  0  0  0  0  0  0  0  0  0  0  0
  -26.3980  -33.6736   25.8373 C   0  0  0  0  0  0  0  0  0  0  0  0
  -28.6896  -12.1404   21.4296 C   0  0  0  0  0  0  0  0  0  0  0  0
  -29.5807  -14.2962   22.4147 C   0  0  0  0  0  0  0  0  0  0  0  0
  -27.6973  -14.3857   20.8292 C   0  0  0  0  0  0  0  0  0  0  0  0
  -26.6865  -32.8585   24.5709 C   0  0  1  0  0  0  0  0  0  0  0  0
  -23.3875  -31.5835   23.1837 C   0  0  1  0  0  0  0  0  0  0  0  0
  -27.9991  -12.9649   20.3256 C   0  0  2  0  0  0  0  0  0  0  0  0
  -27.1876  -20.4398   16.8689 C   0  0  0  0  0  0  0  0  0  0  0  0
  -31.6807  -23.5175   20.2298 C   0  0  0  0  0  0  0  0  0  0  0  0
  -16.5105  -28.2076   24.3303 C   0  0  0  0  0  0  0  0  0  0  0  0
  -22.3223  -29.5653   27.2028 C   0  0  0  0  0  0  0  0  0  0  0  0
  -20.1441  -28.3316   27.2463 C   0  0  0  0  0  0  0  0  0  0  0  0
  -20.1632  -30.8260   27.2625 C   0  0  0  0  0  0  0  0  0  0  0  0
  -18.0771  -29.0900   20.9772 C   0  0  0  0  0  0  0  0  0  0  0  0
  -27.2551  -24.7578   19.8531 C   0  0  0  0  0  0  0  0  0  0  0  0
  -28.6106  -24.5734   19.1631 C   0  0  0  0  0  0  0  0  0  0  0  0
  -26.6524  -26.1212   19.5401 C   0  0  0  0  0  0  0  0  0  1  0  0
  -29.2552  -23.2035   19.3965 C   0  0  1  0  0  0  0  0  0  0  0  0
  -20.7710  -29.5956   25.1391 C   0  0  1  0  0  0  0  0  0  0  0  0
  -17.4733  -28.9226   23.3951 C   0  0  2  0  0  0  0  0  0  0  0  0
  -20.8680  -29.5766   26.6908 C   0  0  0  0  0  0  0  0  0  0  0  0
  -29.3574  -20.4483   19.9678 N   0  0  0  0  0  0  0  0  0  0  0  0
  -26.0315  -11.5118   20.6395 N   0  0  0  0  0  0  0  0  0  0  0  0
  -26.7560  -12.2714   19.8003 N   0  0  0  0  0  0  0  0  0  0  0  0
  -22.5308  -30.4898   23.6468 N   0  0  0  0  0  0  0  0  0  0  0  0
  -28.9330  -15.0179   21.3172 N   0  0  0  0  0  0  0  0  0  0  0  0
  -26.8619  -13.0396   17.5622 N   0  0  0  0  0  0  0  0  0  0  0  0
  -23.1498  -10.4677   17.6064 N   0  0  0  0  0  0  0  0  0  0  0  0
  -28.8228  -16.7916   19.7667 N   0  0  0  0  0  0  0  0  0  0  0  0
  -28.5902  -22.1914   18.6033 N   0  0  0  0  0  0  0  0  0  0  0  0
  -25.4682  -32.6435   23.8198 N   0  0  0  0  0  0  0  0  0  0  0  0
  -19.4057  -29.6340   24.6263 N   0  0  0  0  0  0  0  0  0  0  0  0
  -17.2153  -28.4513   22.0050 N   0  3  0  0  0  0  0  0  0  0  0  0
  -24.4903  -11.7799   16.2873 O   0  0  0  0  0  0  0  0  0  0  0  0
  -24.7030  -30.7666   24.9661 O   0  0  0  0  0  0  0  0  0  0  0  0
  -31.1932  -22.9316   17.9722 O   0  0  0  0  0  0  0  0  0  0  0  0
  -21.1194  -31.9212   24.8280 O   0  0  0  0  0  0  0  0  0  0  0  0
  -19.5478  -27.6843   23.3789 O   0  0  0  0  0  0  0  0  0  0  0  0
  -30.5504  -16.6696   21.3102 O   0  0  0  0  0  0  0  0  0  0  0  0
  -21.1101   -7.7041   21.9924 O   0  0  0  0  0  0  0  0  0  0  0  0
  -25.4032  -26.2405   20.2196 O   0  0  0  0  0  0  0  0  0  1  0  0
  -22.7731   -3.5312   25.1902 F   0  0  0  0  0  0  0  0  0  0  0  0
  -20.5494   -5.0842   21.3109 F   0  0  0  0  0  0  0  0  0  0  0  0
  -27.3780  -17.7273   17.5614 F   0  0  0  0  0  0  0  0  0  0  0  0
  1  2  1  0  0  0  0
  1  5  2  0  0  0  0
  2  6  2  0  0  0  0
  3  8  2  0  0  0  0
  3 16  1  0  0  0  0
  4  9  1  0  0  0  0
  4 16  2  0  0  0  0
  5 18  1  0  0  0  0
  6 20  1  0  0  0  0
  7 10  2  0  0  0  0
  7 19  1  0  0  0  0
  8 24  1  0  0  0  0
  9 24  2  0  0  0  0
 10 25  1  0  0  0  0
 11 12  2  0  0  0  0
 11 26  1  0  0  0  0
 12 27  1  0  0  0  0
 13 21  1  0  0  0  0
 13 25  2  0  0  0  0
 14 27  2  0  0  0  0
 14 28  1  0  0  0  0
 15 23  1  0  0  0  0
 15 65  2  0  0  0  0
 16 30  1  0  0  0  0
 17 30  1  0  0  0  0
 17 32  2  0  0  0  0
 17 33  1  0  0  0  0
 18 20  2  0  0  0  0
 18 39  1  0  0  0  0
 19 21  2  0  0  0  0
 19 40  1  0  0  0  0
 20 48  1  0  0  0  0
 21 41  1  0  0  0  0
 22 29  1  0  0  0  0
 22 31  2  0  0  0  0
 22 51  1  0  0  0  0
 23 29  2  0  0  0  0
 23 72  1  0  0  0  0
 24 83  1  0  0  0  0
 25 84  1  0  0  0  0
 26 28  2  0  0  0  0
 26 83  1  0  0  0  0
 27 85  1  0  0  0  0
 28 86  1  0  0  0  0
 29 87  1  0  0  0  0
 30 66  2  0  0  0  0
 31 65  1  0  0  0  0
 31 73  1  0  0  0  0
 32 67  1  0  0  0  0
 32 70  1  0  0  0  0
 33 71  1  0  0  0  0
 33 77  2  0  0  0  0
 34 49  1  0  0  0  0
 34 74  1  0  0  0  0
 34 78  2  0  0  0  0
 35 52  1  0  0  0  0
 35 61  1  0  0  0  0
 35 79  2  0  0  0  0
 36 62  1  0  0  0  0
 36 68  1  0  0  0  0
 36 80  2  0  0  0  0
 37 63  1  0  0  0  0
 37 75  1  0  0  0  0
 37 81  2  0  0  0  0
 38 69  1  0  0  0  0
 38 72  1  0  0  0  0
 38 82  2  0  0  0  0
 39 42  1  0  0  0  0
 40 49  1  0  0  0  0
 41 68  1  0  0  0  0
 42 44  1  0  0  0  0
 43 45  1  0  0  0  0
 43 46  1  0  0  0  0
 44 48  1  0  0  0  0
 45 50  1  0  0  0  0
 46 69  1  0  0  0  0
 47 50  1  0  0  0  0
 47 69  1  0  0  0  0
 48 74  1  0  0  0  0
 49 68  1  0  0  0  0
 50 67  1  0  0  0  0
 53 63  1  0  0  0  0
 54 64  1  0  0  0  0
 55 64  1  0  0  0  0
 56 64  1  0  0  0  0
 57 76  1  0  0  0  0
 58 59  1  0  0  0  0
 58 60  1  0  0  0  0
 59 61  1  0  0  0  0
 60 84  1  0  0  0  0
 61 73  1  0  0  0  0
 62 64  1  0  0  0  0
 62 75  1  0  0  0  0
 63 76  1  0  0  0  0
 66 67  1  0  0  0  0
M  CHG  1  76   1
M  ISO  4  38 100  60 101  72 100  84 101
M  END
> <Batch ID>
0170

> <Smiles>
CNC(C)C(=O)NC(C(=O)N1Cc2cc([101O:1][101CH2:1]CCC(Nc3ncc([100NH:0][100C:0](=O)N4CCCC(n5nc(-c6ccc(Oc7ccc(F)cc7F)cc6)c(C(N)=O)c5N)C4)c(F)c3C)C(C)=O)ccc2CC1C(=O)NC1CCCc2ccccc21)C(C)(C)C

> <Shape>
0.330

> <Color>
0.086

> <Negative vol penalty>
0.000

$$$$

  -OEChem-04052304203D

 86 94  0     1  0  0  0  0  0999 V2000
  -26.6913  -20.6222   27.0796 C   0  0  0  0  0  0  0  0  0  0  0  0
  -26.8702  -19.2437   27.0245 C   0  0  0  0  0  0  0  0  0  0  0  0
  -23.2299   -9.8283   19.9099 C   0  0  0  0  0  0  0  0  0  0  0  0
  -23.7899   -9.9238   22.2581 C   0  0  0  0  0  0  0  0  0  0  0  0
  -27.7998  -21.4663   27.1320 C   0  0  0  0  0  0  0  0  0  0  0  0
  -28.1578  -18.7084   27.0207 C   0  0  0  0  0  0  0  0  0  0  0  0
  -28.6295  -14.7594   30.1556 C   0  0  0  0  0  0  0  0  0  0  0  0
  -22.5047   -8.6574   20.1303 C   0  0  0  0  0  0  0  0  0  0  0  0
  -23.0646   -8.7528   22.4787 C   0  0  0  0  0  0  0  0  0  0  0  0
  -28.1270  -13.5350   29.7174 C   0  0  0  0  0  0  0  0  0  0  0  0
  -21.0613   -5.9862   23.7237 C   0  0  0  0  0  0  0  0  0  0  0  0
  -20.2092   -5.9483   24.8274 C   0  0  0  0  0  0  0  0  0  0  0  0
  -30.3567  -12.8450   29.1078 C   0  0  0  0  0  0  0  0  0  0  0  0
  -18.9704   -7.8209   23.9353 C   0  0  0  0  0  0  0  0  0  0  0  0
  -23.8726  -10.4615   20.9738 C   0  0  0  0  0  0  0  0  0  0  0  0
  -24.1423  -12.9928   20.8075 C   0  0  0  0  0  0  0  0  0  0  0  0
  -29.1014  -20.9407   27.1385 C   0  0  0  0  0  0  0  0  0  0  0  0
  -30.0002  -15.0405   30.0630 C   0  0  0  0  0  0  0  0  0  0  0  0
  -29.2847  -19.5463   27.0718 C   0  0  0  0  0  0  0  0  0  0  0  0
  -30.8744  -14.0727   29.5479 C   0  0  0  0  0  0  0  0  0  0  0  0
  -22.4221   -8.1197   21.4147 C   0  0  0  0  0  0  0  0  0  0  0  0
  -28.9902  -12.5786   29.1907 C   0  0  0  0  0  0  0  0  0  0  0  0
  -20.8680   -6.9414   22.7258 C   0  0  0  0  0  0  0  0  0  0  0  0
  -19.1638   -6.8656   24.9332 C   0  0  0  0  0  0  0  0  0  0  0  0
  -19.8226   -7.8588   22.8316 C   0  0  0  0  0  0  0  0  0  0  0  0
  -24.6223  -11.6708   20.7465 C   0  0  0  0  0  0  0  0  0  0  0  0
  -27.5728  -16.1357   23.7184 C   0  0  0  0  0  0  0  0  0  0  0  0
  -28.5953  -15.2532   23.4389 C   0  0  0  0  0  0  0  0  0  0  0  0
  -25.2369  -13.7693   20.5158 C   0  0  0  0  0  0  0  0  0  0  0  0
  -27.7262  -14.2152   25.1644 C   0  0  0  0  0  0  0  0  0  0  0  0
  -22.8247  -13.4756   21.1016 C   0  0  0  0  0  0  0  0  0  0  0  0
  -27.2000  -17.3524   23.0771 C   0  0  0  0  0  0  0  0  0  0  0  0
  -31.7470  -17.2073   28.5277 C   0  0  0  0  0  0  0  0  0  0  0  0
  -34.1738  -15.8847   30.2257 C   0  0  0  0  0  0  0  0  0  0  0  0
  -35.3962  -13.1755   31.9029 C   0  0  0  0  0  0  0  0  0  0  0  0
  -28.1345  -12.1193   26.4983 C   0  0  0  0  0  0  0  0  0  0  0  0
  -31.0481  -13.4541   21.6179 C   0  0  0  0  0  0  0  0  0  0  0  0
  -30.2695  -21.8948   27.1484 C   0  0  0  0  0  0  0  0  0  0  0  0
  -30.5301  -16.3557   30.5648 C   0  0  0  0  0  0  0  0  0  0  0  0
  -32.3570  -14.3174   29.4456 C   0  0  0  0  0  0  0  0  0  0  0  0
  -31.5940  -21.2323   27.5187 C   0  0  0  0  0  0  0  0  0  0  0  0
  -29.5603  -13.0174   18.2567 C   0  0  0  0  0  0  0  0  0  0  0  0
  -31.7734  -19.9292   26.7464 C   0  0  0  0  0  0  0  0  0  0  0  0
  -28.1059  -12.6776   18.5778 C   0  0  0  0  0  0  0  0  0  0  0  0
  -30.5043  -12.5826   19.3737 C   0  0  0  0  0  0  0  0  0  0  0  0
  -28.6831  -12.7760   21.0350 C   0  0  0  0  0  0  0  0  0  0  0  0
  -30.6652  -18.9267   27.0908 C   0  0  1  0  0  0  0  0  0  0  0  0
  -31.8733  -16.7333   29.9478 C   0  0  1  0  0  0  0  0  0  0  0  0
  -27.7006  -13.2427   19.9503 C   0  0  2  0  0  0  0  0  0  0  0  0
  -25.7414  -17.7610   23.0943 C   0  0  0  0  0  0  0  0  0  0  0  0
  -37.4237  -12.3811   33.1502 C   0  0  0  0  0  0  0  0  0  0  0  0
  -27.1051   -9.9933   27.3817 C   0  0  0  0  0  0  0  0  0  0  0  0
  -35.6448  -15.4942   27.5812 C   0  0  0  0  0  0  0  0  0  0  0  0
  -37.1702  -13.8873   28.7470 C   0  0  0  0  0  0  0  0  0  0  0  0
  -37.0855  -16.2729   29.4712 C   0  0  0  0  0  0  0  0  0  0  0  0
  -31.7118  -14.9023   23.4998 C   0  0  0  0  0  0  0  0  0  0  0  0
  -33.8524  -12.7879   34.3980 C   0  0  0  0  0  0  0  0  0  0  0  0
  -29.5837  -15.3839   22.3487 C   0  0  0  0  0  0  0  0  0  0  0  0
  -35.1403  -14.7471   30.0005 C   0  0  1  0  0  0  0  0  0  0  0  0
  -36.0614  -13.0479   33.2615 C   0  0  2  0  0  0  0  0  0  0  0  0
  -27.5352  -11.4148   27.7127 C   0  0  1  0  0  0  0  0  0  1  0  0
  -36.2321  -15.0962   28.9500 C   0  0  0  0  0  0  0  0  0  0  0  0
  -25.9208  -11.6073   20.4400 N   0  0  0  0  0  0  0  0  0  0  0  0
  -28.6850  -14.1516   24.2673 N   0  0  0  0  0  0  0  0  0  0  0  0
  -26.2659  -12.8992   20.3056 N   0  0  0  0  0  0  0  0  0  0  0  0
  -32.8259  -15.6211   29.9436 N   0  0  0  0  0  0  0  0  0  0  0  0
  -30.0717  -13.0977   20.6732 N   0  0  0  0  0  0  0  0  0  0  0  0
  -25.4100  -15.1048   20.4210 N   0  0  0  0  0  0  0  0  0  0  0  0
  -21.8173  -12.5415   21.3790 N   0  0  0  0  0  0  0  0  0  0  0  0
  -27.4501  -13.2936   26.2023 N   0  0  0  0  0  0  0  0  0  0  0  0
  -30.9248  -18.3071   28.3727 N   0  0  0  0  0  0  0  0  0  0  0  0
  -35.6668  -14.3927   31.3142 N   0  0  0  0  0  0  0  0  0  0  0  0
  -30.7278  -14.4891   22.5095 N   0  0  0  0  0  0  0  0  0  0  0  0
  -35.2138  -12.2349   34.1789 N   0  3  0  0  0  0  0  0  0  0  0  0
  -22.5451  -14.6984   21.1018 O   0  0  0  0  0  0  0  0  0  0  0  0
  -27.9702  -18.1366   22.4821 O   0  0  0  0  0  0  0  0  0  0  0  0
  -32.3518  -16.6198   27.6385 O   0  0  0  0  0  0  0  0  0  0  0  0
  -34.5980  -16.9650   30.6435 O   0  0  0  0  0  0  0  0  0  0  0  0
  -34.7087  -12.2832   31.4114 O   0  0  0  0  0  0  0  0  0  0  0  0
  -29.1106  -11.6591   25.9131 O   0  0  0  0  0  0  0  0  0  0  0  0
  -32.1473  -12.8864   21.6557 O   0  0  0  0  0  0  0  0  0  0  0  0
  -21.7143   -6.9772   21.6303 O   0  0  0  0  0  0  0  0  0  0  0  0
  -28.5023  -11.3830   28.7616 O   0  0  0  0  0  0  0  0  0  1  0  0
  -18.3447   -6.8282   25.9924 F   0  0  0  0  0  0  0  0  0  0  0  0
  -19.6311   -8.7781   21.8755 F   0  0  0  0  0  0  0  0  0  0  0  0
  -26.6801  -15.5723   25.0700 S   0  0  0  0  0  0  0  0  0  0  0  0
  1  2  1  0  0  0  0
  1  5  2  0  0  0  0
  2  6  2  0  0  0  0
  3  8  2  0  0  0  0
  3 15  1  0  0  0  0
  4  9  1  0  0  0  0
  4 15  2  0  0  0  0
  5 17  1  0  0  0  0
  6 19  1  0  0  0  0
  7 10  2  0  0  0  0
  7 18  1  0  0  0  0
  8 21  1  0  0  0  0
  9 21  2  0  0  0  0
 10 22  1  0  0  0  0
 11 12  2  0  0  0  0
 11 23  1  0  0  0  0
 12 24  1  0  0  0  0
 13 20  1  0  0  0  0
 13 22  2  0  0  0  0
 14 24  2  0  0  0  0
 14 25  1  0  0  0  0
 15 26  1  0  0  0  0
 16 26  1  0  0  0  0
 16 29  2  0  0  0  0
 16 31  1  0  0  0  0
 17 19  2  0  0  0  0
 17 38  1  0  0  0  0
 18 20  2  0  0  0  0
 18 39  1  0  0  0  0
 19 47  1  0  0  0  0
 20 40  1  0  0  0  0
 21 82  1  0  0  0  0
 22 83  1  0  0  0  0
 23 25  2  0  0  0  0
 23 82  1  0  0  0  0
 24 84  1  0  0  0  0
 25 85  1  0  0  0  0
 26 63  2  0  0  0  0
 27 28  2  0  0  0  0
 27 32  1  0  0  0  0
 27 86  1  0  0  0  0
 28 58  1  0  0  0  0
 28 64  1  0  0  0  0
 29 65  1  0  0  0  0
 29 68  1  0  0  0  0
 30 64  2  0  0  0  0
 30 70  1  0  0  0  0
 30 86  1  0  0  0  0
 31 69  1  0  0  0  0
 31 75  2  0  0  0  0
 32 50  1  0  0  0  0
 32 76  2  0  0  0  0
 33 48  1  0  0  0  0
 33 71  1  0  0  0  0
 33 77  2  0  0  0  0
 34 59  1  0  0  0  0
 34 66  1  0  0  0  0
 34 78  2  0  0  0  0
 35 60  1  0  0  0  0
 35 72  1  0  0  0  0
 35 79  2  0  0  0  0
 36 61  1  0  0  0  0
 36 70  1  0  0  0  0
 36 80  2  0  0  0  0
 37 67  1  0  0  0  0
 37 73  1  0  0  0  0
 37 81  2  0  0  0  0
 38 41  1  0  0  0  0
 39 48  1  0  0  0  0
 40 66  1  0  0  0  0
 41 43  1  0  0  0  0
 42 44  1  0  0  0  0
 42 45  1  0  0  0  0
 43 47  1  0  0  0  0
 44 49  1  0  0  0  0
 45 67  1  0  0  0  0
 46 49  1  0  0  0  0
 46 67  1  0  0  0  0
 47 71  1  0  0  0  0
 48 66  1  0  0  0  0
 49 65  1  0  0  0  0
 51 60  1  0  0  0  0
 52 61  1  0  0  0  0
 53 62  1  0  0  0  0
 54 62  1  0  0  0  0
 55 62  1  0  0  0  0
 56 73  1  0  0  0  0
 57 74  1  0  0  0  0
 58 73  1  0  0  0  0
 59 62  1  0  0  0  0
 59 72  1  0  0  0  0
 60 74  1  0  0  0  0
 61 83  1  0  0  0  0
 63 65  1  0  0  0  0
M  CHG  1  74   1
M  ISO  4  37 100  61 101  73 100  83 101
M  END
> <Batch ID>
0170

> <Smiles>
CNC(C)C(=O)NC(C(=O)N1Cc2cc([101O:1][101CH:1](C)C(=O)Nc3nc(C[100N:0](C)[100C:0](=O)N4CCCC(n5nc(-c6ccc(Oc7ccc(F)cc7F)cc6)c(C(N)=O)c5N)C4)c(C(C)=O)s3)ccc2CC1C(=O)NC1CCCc2ccccc21)C(C)(C)C

> <Shape>
0.141

> <Color>
0.170

> <Negative vol penalty>
0.000

$$$$

  -OEChem-04052304203D

 87 95  0     1  0  0  0  0  0999 V2000
  -29.2714  -32.6017   25.8192 C   0  0  0  0  0  0  0  0  0  0  0  0
  -29.1134  -31.4315   25.0836 C   0  0  0  0  0  0  0  0  0  0  0  0
  -23.9957   -8.8372   20.7762 C   0  0  0  0  0  0  0  0  0  0  0  0
  -23.0196  -11.0383   20.9750 C   0  0  0  0  0  0  0  0  0  0  0  0
  -28.1570  -33.2339   26.3690 C   0  0  0  0  0  0  0  0  0  0  0  0
  -27.8409  -30.8923   24.8982 C   0  0  0  0  0  0  0  0  0  0  0  0
  -27.0277  -29.4302   20.1185 C   0  0  0  0  0  0  0  0  0  0  0  0
  -23.0464   -8.3358   21.6666 C   0  0  0  0  0  0  0  0  0  0  0  0
  -22.0702  -10.5368   21.8654 C   0  0  0  0  0  0  0  0  0  0  0  0
  -27.5912  -28.2193   19.7184 C   0  0  0  0  0  0  0  0  0  0  0  0
  -22.5406   -8.2998   25.0083 C   0  0  0  0  0  0  0  0  0  0  0  0
  -22.9871   -7.4483   26.0189 C   0  0  0  0  0  0  0  0  0  0  0  0
  -30.1223  -17.8591   20.6149 C   0  0  0  0  0  0  0  0  0  0  0  0
  -25.4588  -27.1333   20.0231 C   0  0  0  0  0  0  0  0  0  0  0  0
  -27.7202  -19.2778   20.6083 C   0  0  0  0  0  0  0  0  0  0  0  0
  -21.5496   -5.6976   25.1789 C   0  0  0  0  0  0  0  0  0  0  0  0
  -23.9824  -10.1886   20.4305 C   0  0  0  0  0  0  0  0  0  0  0  0
  -30.1342  -19.2510   20.7048 C   0  0  0  0  0  0  0  0  0  0  0  0
  -24.8565  -10.7868   18.1097 C   0  0  0  0  0  0  0  0  0  0  0  0
  -26.8692  -32.7075   26.1822 C   0  0  0  0  0  0  0  0  0  0  0  0
  -25.6759  -29.4996   20.4849 C   0  0  0  0  0  0  0  0  0  0  0  0
  -26.7083  -31.5174   25.4472 C   0  0  0  0  0  0  0  0  0  0  0  0
  -24.8800  -28.3468   20.4250 C   0  0  0  0  0  0  0  0  0  0  0  0
  -28.9094  -17.1765   20.5217 C   0  0  0  0  0  0  0  0  0  0  0  0
  -28.9332  -19.9603   20.7015 C   0  0  0  0  0  0  0  0  0  0  0  0
  -22.0836   -9.1855   22.2112 C   0  0  0  0  0  0  0  0  0  0  0  0
  -26.8075  -27.0700   19.6735 C   0  0  0  0  0  0  0  0  0  0  0  0
  -21.5986   -7.8502   24.0830 C   0  0  0  0  0  0  0  0  0  0  0  0
  -22.4916   -6.1472   26.1042 C   0  0  0  0  0  0  0  0  0  0  0  0
  -27.7084  -17.8859   20.5184 C   0  0  0  0  0  0  0  0  0  0  0  0
  -21.1031   -6.5491   24.1683 C   0  0  0  0  0  0  0  0  0  0  0  0
  -24.9632  -10.7073   19.5112 C   0  0  0  0  0  0  0  0  0  0  0  0
  -26.0424  -11.3501   17.7065 C   0  0  0  0  0  0  0  0  0  0  0  0
  -31.4184  -19.9340   20.7991 C   0  0  0  0  0  0  0  0  0  0  0  0
  -23.7814  -10.3872   17.2494 C   0  0  0  0  0  0  0  0  0  0  0  0
  -28.1848  -23.6416   20.9164 C   0  0  0  0  0  0  0  0  0  0  0  0
  -27.8127  -22.1909   20.8096 C   0  0  0  0  0  0  0  0  0  0  0  0
  -24.1090  -30.2514   23.1464 C   0  0  0  0  0  0  0  0  0  0  0  0
  -21.5059  -29.9562   21.2335 C   0  0  0  0  0  0  0  0  0  0  0  0
  -20.1136  -28.6118   18.4227 C   0  0  0  0  0  0  0  0  0  0  0  0
  -30.0021  -14.9090   20.4194 C   0  0  0  0  0  0  0  0  0  0  0  0
  -25.6998  -33.4004   26.8357 C   0  0  0  0  0  0  0  0  0  0  0  0
  -25.0767  -30.8188   20.8886 C   0  0  0  0  0  0  0  0  0  0  0  0
  -23.4187  -28.3722   20.7888 C   0  0  0  0  0  0  0  0  0  0  0  0
  -24.3463  -32.9689   26.2770 C   0  0  0  0  0  0  0  0  0  0  0  0
  -30.6426  -11.7127   18.9874 C   0  0  0  0  0  0  0  0  0  0  0  0
  -24.2744  -31.4492   26.1663 C   0  0  0  0  0  0  0  0  0  0  0  0
  -29.2487  -11.1018   18.8261 C   0  0  0  0  0  0  0  0  0  0  0  0
  -30.7527  -12.5452   20.2635 C   0  0  0  0  0  0  0  0  0  0  0  0
  -28.3252  -12.9651   20.2621 C   0  0  0  0  0  0  0  0  0  0  0  0
  -25.3416  -30.9151   25.2033 C   0  0  1  0  0  0  0  0  0  0  0  0
  -23.8151  -30.6686   21.7331 C   0  0  1  0  0  0  0  0  0  0  0  0
  -28.1463  -12.1708   18.9580 C   0  0  2  0  0  0  0  0  0  0  0  0
  -17.9569  -28.5203   17.1430 C   0  0  0  0  0  0  0  0  0  0  0  0
  -20.3716  -28.0076   23.2893 C   0  0  0  0  0  0  0  0  0  0  0  0
  -18.7305  -27.2458   21.5588 C   0  0  0  0  0  0  0  0  0  0  0  0
  -18.7042  -29.6136   22.3432 C   0  0  0  0  0  0  0  0  0  0  0  0
  -21.3457  -29.8456   16.0313 C   0  0  0  0  0  0  0  0  0  0  0  0
  -29.0080  -24.2091   19.7810 C   0  0  0  0  0  0  0  0  0  0  0  0
  -28.7413  -25.6904   19.5602 C   0  0  0  0  0  0  0  0  0  1  0  0
  -20.5846  -28.8238   20.8491 C   0  0  1  0  0  0  0  0  0  0  0  0
  -19.2892  -29.2343   17.3103 C   0  0  2  0  0  0  0  0  0  0  0  0
  -19.6257  -28.4215   22.0050 C   0  0  0  0  0  0  0  0  0  0  0  0
  -26.1253  -11.1820   19.9676 N   0  0  0  0  0  0  0  0  0  0  0  0
  -31.5352  -21.2240   20.8866 N   0  0  0  0  0  0  0  0  0  0  0  0
  -26.7596  -11.5651   18.8464 N   0  0  0  0  0  0  0  0  0  0  0  0
  -22.8805  -29.6846   21.1831 N   0  0  0  0  0  0  0  0  0  0  0  0
  -29.6787  -13.5394   20.3178 N   0  0  0  0  0  0  0  0  0  0  0  0
  -26.5313  -11.6775   16.4915 N   0  0  0  0  0  0  0  0  0  0  0  0
  -22.6353   -9.8258   17.8288 N   0  0  0  0  0  0  0  0  0  0  0  0
  -28.9209  -21.3717   20.7930 N   0  0  0  0  0  0  0  0  0  0  0  0
  -28.8995  -15.7626   20.4299 N   0  0  0  0  0  0  0  0  0  0  0  0
  -24.9336  -31.1240   23.8306 N   0  0  0  0  0  0  0  0  0  0  0  0
  -19.9054  -29.2463   19.6290 N   0  0  0  0  0  0  0  0  0  0  0  0
  -20.0263  -29.1628   16.0171 N   0  3  0  0  0  0  0  0  0  0  0  0
  -23.8421  -10.5089   16.0024 O   0  0  0  0  0  0  0  0  0  0  0  0
  -27.7878  -24.2501   21.8986 O   0  0  0  0  0  0  0  0  0  0  0  0
  -26.6208  -21.9335   20.7791 O   0  0  0  0  0  0  0  0  0  0  0  0
  -23.6224  -29.2154   23.5841 O   0  0  0  0  0  0  0  0  0  0  0  0
  -21.0239  -31.0439   21.5594 O   0  0  0  0  0  0  0  0  0  0  0  0
  -20.8641  -27.6557   18.2405 O   0  0  0  0  0  0  0  0  0  0  0  0
  -31.1721  -15.2979   20.4643 O   0  0  0  0  0  0  0  0  0  0  0  0
  -21.1569   -8.6965   23.0799 O   0  0  0  0  0  0  0  0  0  0  0  0
  -27.3551  -25.8867   19.2840 O   0  0  0  0  0  0  0  0  0  1  0  0
  -22.9216   -5.3292   27.0737 F   0  0  0  0  0  0  0  0  0  0  0  0
  -26.5366  -17.2405   20.4289 F   0  0  0  0  0  0  0  0  0  0  0  0
  -20.1989   -6.1111   23.2815 F   0  0  0  0  0  0  0  0  0  0  0  0
  1  2  1  0  0  0  0
  1  5  2  0  0  0  0
  2  6  2  0  0  0  0
  3  8  2  0  0  0  0
  3 17  1  0  0  0  0
  4  9  1  0  0  0  0
  4 17  2  0  0  0  0
  5 20  1  0  0  0  0
  6 22  1  0  0  0  0
  7 10  2  0  0  0  0
  7 21  1  0  0  0  0
  8 26  1  0  0  0  0
  9 26  2  0  0  0  0
 10 27  1  0  0  0  0
 11 12  2  0  0  0  0
 11 28  1  0  0  0  0
 12 29  1  0  0  0  0
 13 18  1  0  0  0  0
 13 24  2  0  0  0  0
 14 23  1  0  0  0  0
 14 27  2  0  0  0  0
 15 25  1  0  0  0  0
 15 30  2  0  0  0  0
 16 29  2  0  0  0  0
 16 31  1  0  0  0  0
 17 32  1  0  0  0  0
 18 25  2  0  0  0  0
 18 34  1  0  0  0  0
 19 32  1  0  0  0  0
 19 33  2  0  0  0  0
 19 35  1  0  0  0  0
 20 22  2  0  0  0  0
 20 42  1  0  0  0  0
 21 23  2  0  0  0  0
 21 43  1  0  0  0  0
 22 51  1  0  0  0  0
 23 44  1  0  0  0  0
 24 30  1  0  0  0  0
 24 72  1  0  0  0  0
 25 71  1  0  0  0  0
 26 83  1  0  0  0  0
 27 84  1  0  0  0  0
 28 31  2  0  0  0  0
 28 83  1  0  0  0  0
 29 85  1  0  0  0  0
 30 86  1  0  0  0  0
 31 87  1  0  0  0  0
 32 64  2  0  0  0  0
 33 66  1  0  0  0  0
 33 69  1  0  0  0  0
 34 65  2  0  0  0  0
 35 70  1  0  0  0  0
 35 76  2  0  0  0  0
 36 37  1  0  0  0  0
 36 59  1  0  0  0  0
 36 77  2  0  0  0  0
 37 71  1  0  0  0  0
 37 78  2  0  0  0  0
 38 52  1  0  0  0  0
 38 73  1  0  0  0  0
 38 79  2  0  0  0  0
 39 61  1  0  0  0  0
 39 67  1  0  0  0  0
 39 80  2  0  0  0  0
 40 62  1  0  0  0  0
 40 74  1  0  0  0  0
 40 81  2  0  0  0  0
 41 68  1  0  0  0  0
 41 72  1  0  0  0  0
 41 82  2  0  0  0  0
 42 45  1  0  0  0  0
 43 52  1  0  0  0  0
 44 67  1  0  0  0  0
 45 47  1  0  0  0  0
 46 48  1  0  0  0  0
 46 49  1  0  0  0  0
 47 51  1  0  0  0  0
 48 53  1  0  0  0  0
 49 68  1  0  0  0  0
 50 53  1  0  0  0  0
 50 68  1  0  0  0  0
 51 73  1  0  0  0  0
 52 67  1  0  0  0  0
 53 66  1  0  0  0  0
 54 62  1  0  0  0  0
 55 63  1  0  0  0  0
 56 63  1  0  0  0  0
 57 63  1  0  0  0  0
 58 75  1  0  0  0  0
 59 60  1  0  0  0  0
 60 84  1  0  0  0  0
 61 63  1  0  0  0  0
 61 74  1  0  0  0  0
 62 75  1  0  0  0  0
 64 66  1  0  0  0  0
M  CHG  1  75   1
M  ISO  4  41 100  60 101  72 100  84 101
M  END
> <Batch ID>
0170

> <Smiles>
CNC(C)C(=O)NC(C(=O)N1Cc2cc([101O:1][101CH2:1]CC(=O)C(=O)Nc3cc(F)c([100NH:0][100C:0](=O)N4CCCC(n5nc(-c6ccc(Oc7ccc(F)cc7F)cc6)c(C(N)=O)c5N)C4)cc3C=N)ccc2CC1C(=O)NC1CCCc2ccccc21)C(C)(C)C

> <Shape>
0.341

> <Color>
0.089

> <Negative vol penalty>
0.000

$$$$

  -OEChem-04052304203D

 85 93  0     1  0  0  0  0  0999 V2000
  -26.1811  -34.5986   25.2372 C   0  0  0  0  0  0  0  0  0  0  0  0
  -26.6907  -33.3926   24.7670 C   0  0  0  0  0  0  0  0  0  0  0  0
  -27.5669  -10.1897   21.7481 C   0  0  0  0  0  0  0  0  0  0  0  0
  -25.8735  -11.5668   20.7122 C   0  0  0  0  0  0  0  0  0  0  0  0
  -24.8216  -34.7151   25.5239 C   0  0  0  0  0  0  0  0  0  0  0  0
  -25.8413  -32.3019   24.5843 C   0  0  0  0  0  0  0  0  0  0  0  0
  -26.6570  -29.9187   20.1911 C   0  0  0  0  0  0  0  0  0  0  0  0
  -26.5781   -9.5058   22.4554 C   0  0  0  0  0  0  0  0  0  0  0  0
  -24.8847  -10.8829   21.4195 C   0  0  0  0  0  0  0  0  0  0  0  0
  -27.7566  -29.0642   20.1249 C   0  0  0  0  0  0  0  0  0  0  0  0
  -21.8855   -9.2596   22.6798 C   0  0  0  0  0  0  0  0  0  0  0  0
  -20.7441   -8.8643   21.9823 C   0  0  0  0  0  0  0  0  0  0  0  0
  -26.2981  -27.1715   20.4562 C   0  0  0  0  0  0  0  0  0  0  0  0
  -29.0938  -20.8186   19.4206 C   0  0  0  0  0  0  0  0  0  0  0  0
  -22.1111   -7.5343   20.4992 C   0  0  0  0  0  0  0  0  0  0  0  0
  -27.2146  -11.2202   20.8766 C   0  0  0  0  0  0  0  0  0  0  0  0
  -28.7499  -11.6049   18.8760 C   0  0  0  0  0  0  0  0  0  0  0  0
  -23.9534  -33.6282   25.3355 C   0  0  0  0  0  0  0  0  0  0  0  0
  -25.3688  -29.4060   20.4016 C   0  0  0  0  0  0  0  0  0  0  0  0
  -24.4692  -32.4036   24.8701 C   0  0  0  0  0  0  0  0  0  0  0  0
  -25.1835  -28.0214   20.5221 C   0  0  0  0  0  0  0  0  0  0  0  0
  -28.2004  -21.7268   18.7825 C   0  0  0  0  0  0  0  0  0  0  0  0
  -25.2370   -9.8524   22.2911 C   0  0  0  0  0  0  0  0  0  0  0  0
  -27.5777  -27.6906   20.2603 C   0  0  0  0  0  0  0  0  0  0  0  0
  -23.1397   -8.7924   22.2869 C   0  0  0  0  0  0  0  0  0  0  0  0
  -20.8569   -8.0016   20.8920 C   0  0  0  0  0  0  0  0  0  0  0  0
  -23.2525   -7.9297   21.1967 C   0  0  0  0  0  0  0  0  0  0  0  0
  -28.2355  -11.9274   20.1461 C   0  0  0  0  0  0  0  0  0  0  0  0
  -27.0712  -21.0954   18.3094 C   0  0  0  0  0  0  0  0  0  0  0  0
  -29.6894  -12.5760   18.6293 C   0  0  0  0  0  0  0  0  0  0  0  0
  -28.6131  -19.5275   19.4112 C   0  0  0  0  0  0  0  0  0  0  0  0
  -25.9499  -21.6474   17.6184 C   0  0  0  0  0  0  0  0  0  0  0  0
  -28.4090  -10.5241   17.9977 C   0  0  0  0  0  0  0  0  0  0  0  0
  -29.6687  -25.0102   19.0165 C   0  0  0  0  0  0  0  0  0  0  0  0
  -29.6033  -23.6662   18.4682 C   0  0  0  0  0  0  0  0  0  0  0  0
  -23.1648  -29.7388   22.6677 C   0  0  0  0  0  0  0  0  0  0  0  0
  -21.3605  -27.9777   20.6268 C   0  0  0  0  0  0  0  0  0  0  0  0
  -21.2476  -25.7283   18.0628 C   0  0  0  0  0  0  0  0  0  0  0  0
  -30.3825  -18.1774   20.5913 C   0  0  0  0  0  0  0  0  0  0  0  0
  -22.4997  -33.7880   25.7041 C   0  0  0  0  0  0  0  0  0  0  0  0
  -24.1897  -30.3389   20.4439 C   0  0  0  0  0  0  0  0  0  0  0  0
  -23.8187  -27.4190   20.7293 C   0  0  0  0  0  0  0  0  0  0  0  0
  -21.6017  -32.6965   25.1275 C   0  0  0  0  0  0  0  0  0  0  0  0
  -32.7236  -15.5115   20.8900 C   0  0  0  0  0  0  0  0  0  0  0  0
  -22.2232  -31.3213   25.3494 C   0  0  0  0  0  0  0  0  0  0  0  0
  -31.8865  -14.2609   20.6115 C   0  0  0  0  0  0  0  0  0  0  0  0
  -31.9329  -16.5615   21.6684 C   0  0  0  0  0  0  0  0  0  0  0  0
  -29.8035  -15.6799   20.7981 C   0  0  0  0  0  0  0  0  0  0  0  0
  -23.5753  -31.2052   24.6354 C   0  0  1  0  0  0  0  0  0  0  0  0
  -22.9877  -29.7498   21.1757 C   0  0  1  0  0  0  0  0  0  0  0  0
  -30.5367  -14.6200   19.9598 C   0  0  2  0  0  0  0  0  0  0  0  0
  -19.6288  -24.4494   16.6341 C   0  0  0  0  0  0  0  0  0  0  0  0
  -20.8302  -26.0650   22.9442 C   0  0  0  0  0  0  0  0  0  0  0  0
  -20.0422  -24.3728   21.2758 C   0  0  0  0  0  0  0  0  0  0  0  0
  -18.8379  -26.5446   21.5106 C   0  0  0  0  0  0  0  0  0  0  0  0
  -30.8691  -21.8843   17.2282 C   0  0  0  0  0  0  0  0  0  0  0  0
  -22.2389  -27.0121   15.5873 C   0  0  0  0  0  0  0  0  0  0  0  0
  -28.4184  -25.5399   19.6914 C   0  0  0  0  0  0  0  0  0  1  0  0
  -21.1165  -26.5029   20.4159 C   0  0  1  0  0  0  0  0  0  0  0  0
  -20.4578  -25.7174   16.7664 C   0  0  2  0  0  0  0  0  0  0  0  0
  -20.2328  -25.8825   21.5347 C   0  0  0  0  0  0  0  0  0  0  0  0
  -28.8014  -13.0181   20.6698 N   0  0  0  0  0  0  0  0  0  0  0  0
  -25.8193  -22.9190   17.3113 N   0  0  0  0  0  0  0  0  0  0  0  0
  -29.6811  -13.3893   19.7241 N   0  0  0  0  0  0  0  0  0  0  0  0
  -22.6981  -28.3730   20.7699 N   0  0  0  0  0  0  0  0  0  0  0  0
  -30.6687  -16.8544   20.9895 N   0  0  0  0  0  0  0  0  0  0  0  0
  -30.5135  -12.8050   17.5849 N   0  0  0  0  0  0  0  0  0  0  0  0
  -27.4221   -9.6168   18.4065 N   0  0  0  0  0  0  0  0  0  0  0  0
  -28.4164  -23.0739   18.6430 N   0  0  0  0  0  0  0  0  0  0  0  0
  -29.1664  -18.3289   19.9259 N   0  0  0  0  0  0  0  0  0  0  0  0
  -23.3814  -30.9877   23.2179 N   0  0  0  0  0  0  0  0  0  0  0  0
  -20.5620  -26.3689   19.0732 N   0  0  0  0  0  0  0  0  0  0  0  0
  -30.6979  -23.2014   17.8547 N   0  3  0  0  0  0  0  0  0  0  0  0
  -21.3790  -25.8007   15.5979 N   0  3  0  0  0  0  0  0  0  0  0  0
  -28.9747  -10.3582   16.8905 O   0  0  0  0  0  0  0  0  0  0  0  0
  -30.6946  -25.6800   18.9312 O   0  0  0  0  0  0  0  0  0  0  0  0
  -23.1077  -28.6760   23.2751 O   0  0  0  0  0  0  0  0  0  0  0  0
  -20.4002  -28.7514   20.6562 O   0  0  0  0  0  0  0  0  0  0  0  0
  -22.3598  -25.2163   18.1695 O   0  0  0  0  0  0  0  0  0  0  0  0
  -31.1714  -19.1028   20.7994 O   0  0  0  0  0  0  0  0  0  0  0  0
  -24.2719   -9.1851   22.9809 O   0  0  0  0  0  0  0  0  0  0  0  0
  -28.6494  -26.8543   20.1967 O   0  0  0  0  0  0  0  0  0  1  0  0
  -19.7605   -7.6209   20.2232 F   0  0  0  0  0  0  0  0  0  0  0  0
  -24.4546   -7.4765   20.8153 F   0  0  0  0  0  0  0  0  0  0  0  0
  -27.0909  -19.4144   18.6350 S   0  0  0  0  0  0  0  0  0  0  0  0
  1  2  1  0  0  0  0
  1  5  2  0  0  0  0
  2  6  2  0  0  0  0
  3  8  2  0  0  0  0
  3 16  1  0  0  0  0
  4  9  1  0  0  0  0
  4 16  2  0  0  0  0
  5 18  1  0  0  0  0
  6 20  1  0  0  0  0
  7 10  2  0  0  0  0
  7 19  1  0  0  0  0
  8 23  1  0  0  0  0
  9 23  2  0  0  0  0
 10 24  1  0  0  0  0
 11 12  2  0  0  0  0
 11 25  1  0  0  0  0
 12 26  1  0  0  0  0
 13 21  1  0  0  0  0
 13 24  2  0  0  0  0
 14 22  1  0  0  0  0
 14 31  2  0  0  0  0
 15 26  2  0  0  0  0
 15 27  1  0  0  0  0
 16 28  1  0  0  0  0
 17 28  1  0  0  0  0
 17 30  2  0  0  0  0
 17 33  1  0  0  0  0
 18 20  2  0  0  0  0
 18 40  1  0  0  0  0
 19 21  2  0  0  0  0
 19 41  1  0  0  0  0
 20 49  1  0  0  0  0
 21 42  1  0  0  0  0
 22 29  2  0  0  0  0
 22 69  1  0  0  0  0
 23 81  1  0  0  0  0
 24 82  1  0  0  0  0
 25 27  2  0  0  0  0
 25 81  1  0  0  0  0
 26 83  1  0  0  0  0
 27 84  1  0  0  0  0
 28 62  2  0  0  0  0
 29 32  1  0  0  0  0
 29 85  1  0  0  0  0
 30 64  1  0  0  0  0
 30 67  1  0  0  0  0
 31 70  1  0  0  0  0
 31 85  1  0  0  0  0
 32 63  2  0  0  0  0
 33 68  1  0  0  0  0
 33 75  2  0  0  0  0
 34 35  1  0  0  0  0
 34 58  1  0  0  0  0
 34 76  2  0  0  0  0
 35 69  1  0  0  0  0
 35 73  2  0  0  0  0
 36 50  1  0  0  0  0
 36 71  1  0  0  0  0
 36 77  2  0  0  0  0
 37 59  1  0  0  0  0
 37 65  1  0  0  0  0
 37 78  2  0  0  0  0
 38 60  1  0  0  0  0
 38 72  1  0  0  0  0
 38 79  2  0  0  0  0
 39 66  1  0  0  0  0
 39 70  1  0  0  0  0
 39 80  2  0  0  0  0
 40 43  1  0  0  0  0
 41 50  1  0  0  0  0
 42 65  1  0  0  0  0
 43 45  1  0  0  0  0
 44 46  1  0  0  0  0
 44 47  1  0  0  0  0
 45 49  1  0  0  0  0
 46 51  1  0  0  0  0
 47 66  1  0  0  0  0
 48 51  1  0  0  0  0
 48 66  1  0  0  0  0
 49 71  1  0  0  0  0
 50 65  1  0  0  0  0
 51 64  1  0  0  0  0
 52 60  1  0  0  0  0
 53 61  1  0  0  0  0
 54 61  1  0  0  0  0
 55 61  1  0  0  0  0
 56 73  1  0  0  0  0
 57 74  1  0  0  0  0
 58 82  1  0  0  0  0
 59 61  1  0  0  0  0
 59 72  1  0  0  0  0
 60 74  1  0  0  0  0
 62 64  1  0  0  0  0
M  CHG  2  73   1  74   1
M  ISO  4  39 100  58 101  70 100  82 101
M  END
> <Batch ID>
0170

> <Smiles>
CN=C(Nc1cc([100NH:0][100C:0](=O)N2CCCC(n3nc(-c4ccc(Oc5ccc(F)cc5F)cc4)c(C(N)=O)c3N)C2)sc1C=N)C(=O)[101CH2:1][101O:1]c1ccc2c(c1)CN(C(=O)C(NC(=O)C(C)NC)C(C)(C)C)C(C(=O)NC1CCCc3ccccc31)C2

> <Shape>
0.330

> <Color>
0.079

> <Negative vol penalty>
0.000

$$$$

  -OEChem-04052304203D

 85 93  0     1  0  0  0  0  0999 V2000
  -19.3962  -22.3271   25.6868 C   0  0  0  0  0  0  0  0  0  0  0  0
  -20.3543  -22.1456   24.6945 C   0  0  0  0  0  0  0  0  0  0  0  0
  -26.5476  -24.8917   19.0882 C   0  0  0  0  0  0  0  0  0  0  0  0
  -25.5297  -12.5305   21.9738 C   0  0  0  0  0  0  0  0  0  0  0  0
  -25.7070  -13.2213   19.6655 C   0  0  0  0  0  0  0  0  0  0  0  0
  -18.7125  -23.5385   25.7809 C   0  0  0  0  0  0  0  0  0  0  0  0
  -20.6284  -23.1752   23.7950 C   0  0  0  0  0  0  0  0  0  0  0  0
  -27.2655  -25.9118   23.2018 C   0  0  0  0  0  0  0  0  0  0  0  0
  -27.8811  -24.8188   18.6854 C   0  0  0  0  0  0  0  0  0  0  0  0
  -25.9848  -23.8520   19.8285 C   0  0  0  0  0  0  0  0  0  0  0  0
  -25.1687  -11.2476   21.5621 C   0  0  0  0  0  0  0  0  0  0  0  0
  -25.3460  -11.9384   19.2538 C   0  0  0  0  0  0  0  0  0  0  0  0
  -28.5520  -26.3442   22.8793 C   0  0  0  0  0  0  0  0  0  0  0  0
  -23.8504   -7.8875   21.1199 C   0  0  0  0  0  0  0  0  0  0  0  0
  -22.7784   -7.2743   21.7683 C   0  0  0  0  0  0  0  0  0  0  0  0
  -27.6363  -27.9144   21.2844 C   0  0  0  0  0  0  0  0  0  0  0  0
  -21.3249   -9.0713   21.0644 C   0  0  0  0  0  0  0  0  0  0  0  0
  -25.7988  -13.5174   21.0254 C   0  0  0  0  0  0  0  0  0  0  0  0
  -27.4718  -15.3236   21.6936 C   0  0  0  0  0  0  0  0  0  0  0  0
  -18.9853  -24.5869   24.8881 C   0  0  0  0  0  0  0  0  0  0  0  0
  -26.1572  -26.4907   22.5772 C   0  0  0  0  0  0  0  0  0  0  0  0
  -19.9468  -24.4014   23.8764 C   0  0  0  0  0  0  0  0  0  0  0  0
  -26.3445  -27.4942   21.6124 C   0  0  0  0  0  0  0  0  0  0  0  0
  -28.6517  -23.7062   19.0228 C   0  0  0  0  0  0  0  0  0  0  0  0
  -26.7555  -22.7394   20.1659 C   0  0  0  0  0  0  0  0  0  0  0  0
  -25.0769  -10.9515   20.2021 C   0  0  0  0  0  0  0  0  0  0  0  0
  -28.7369  -27.3428   21.9229 C   0  0  0  0  0  0  0  0  0  0  0  0
  -23.6598   -9.0926   20.4439 C   0  0  0  0  0  0  0  0  0  0  0  0
  -21.5157   -7.8662   21.7405 C   0  0  0  0  0  0  0  0  0  0  0  0
  -22.3970   -9.6845   20.4161 C   0  0  0  0  0  0  0  0  0  0  0  0
  -28.0889  -22.6665   19.7631 C   0  0  0  0  0  0  0  0  0  0  0  0
  -26.1712  -14.8430   21.4501 C   0  0  0  0  0  0  0  0  0  0  0  0
  -27.2894  -16.6318   22.0703 C   0  0  0  0  0  0  0  0  0  0  0  0
  -30.9633  -24.4978   19.4507 C   0  0  0  0  0  0  0  0  0  0  0  0
  -28.7320  -14.6480   21.5887 C   0  0  0  0  0  0  0  0  0  0  0  0
  -22.4217  -26.6106   22.2494 C   0  0  0  0  0  0  0  0  0  0  0  0
  -32.0115  -26.4697   19.9465 C   0  0  0  0  0  0  0  0  0  0  0  0
  -23.4186  -29.5100   22.1485 C   0  0  0  0  0  0  0  0  0  0  0  0
  -24.8812  -32.5713   22.5041 C   0  0  0  0  0  0  0  0  0  0  0  0
  -24.8738  -21.6031   21.3965 C   0  0  0  0  0  0  0  0  0  0  0  0
  -18.1870  -25.8616   24.9996 C   0  0  0  0  0  0  0  0  0  0  0  0
  -24.7564  -26.0133   22.8486 C   0  0  0  0  0  0  0  0  0  0  0  0
  -25.1248  -28.0639   20.9410 C   0  0  0  0  0  0  0  0  0  0  0  0
  -18.8032  -27.0346   24.2415 C   0  0  0  0  0  0  0  0  0  0  0  0
  -23.0675  -19.1609   23.2539 C   0  0  0  0  0  0  0  0  0  0  0  0
  -19.2227  -26.6030   22.8399 C   0  0  0  0  0  0  0  0  0  0  0  0
  -23.8209  -17.8593   22.9702 C   0  0  0  0  0  0  0  0  0  0  0  0
  -23.0229  -20.0694   22.0266 C   0  0  0  0  0  0  0  0  0  0  0  0
  -25.0817  -19.0529   21.1337 C   0  0  0  0  0  0  0  0  0  0  0  0
  -20.2899  -25.5033   22.8975 C   0  0  1  0  0  0  0  0  0  0  0  0
  -23.7130  -27.1437   22.7970 C   0  0  1  0  0  0  0  0  0  0  0  0
  -25.2091  -18.1335   22.3593 C   0  0  2  0  0  0  0  0  0  0  0  0
  -24.3403  -35.0216   22.5310 C   0  0  0  0  0  0  0  0  0  0  0  0
  -23.1389  -29.4778   19.1113 C   0  0  0  0  0  0  0  0  0  0  0  0
  -23.5560  -31.9465   19.1177 C   0  0  0  0  0  0  0  0  0  0  0  0
  -21.5587  -31.0178   20.2886 C   0  0  0  0  0  0  0  0  0  0  0  0
  -25.8602  -32.8753   25.2804 C   0  0  0  0  0  0  0  0  0  0  0  0
  -30.0895  -23.6310   18.5870 C   0  0  0  0  0  0  0  0  0  0  0  0
  -31.6537  -27.9481   19.8815 C   0  0  0  0  0  0  0  0  0  0  0  0
  -30.2159  -28.2345   20.2873 C   0  0  0  0  0  0  0  0  0  1  0  0
  -23.8548  -30.6684   21.2876 C   0  0  1  0  0  0  0  0  0  0  0  0
  -24.5211  -33.7656   23.3691 C   0  0  2  0  0  0  0  0  0  0  0  0
  -23.0460  -30.7597   19.9628 C   0  0  0  0  0  0  0  0  0  0  0  0
  -25.2320  -15.7703   21.6550 N   0  0  0  0  0  0  0  0  0  0  0  0
  -31.2122  -25.7183   19.1099 N   0  0  0  0  0  0  0  0  0  0  0  0
  -25.9431  -16.8467   22.0313 N   0  0  0  0  0  0  0  0  0  0  0  0
  -24.0619  -28.2850   21.9341 N   0  0  0  0  0  0  0  0  0  0  0  0
  -24.3738  -20.2882   21.5050 N   0  0  0  0  0  0  0  0  0  0  0  0
  -28.1509  -17.6077   22.4278 N   0  0  0  0  0  0  0  0  0  0  0  0
  -28.7388  -13.3050   21.1880 N   0  0  0  0  0  0  0  0  0  0  0  0
  -26.1812  -21.6852   20.9186 N   0  0  0  0  0  0  0  0  0  0  0  0
  -21.5845  -26.0711   23.2073 N   0  0  0  0  0  0  0  0  0  0  0  0
  -23.7630  -31.8581   22.1270 N   0  0  0  0  0  0  0  0  0  0  0  0
  -25.5932  -34.0204   24.3725 N   0  3  0  0  0  0  0  0  0  0  0  0
  -29.8186  -15.2137   21.8585 O   0  0  0  0  0  0  0  0  0  0  0  0
  -22.1993  -26.6841   21.0466 O   0  0  0  0  0  0  0  0  0  0  0  0
  -32.9111  -26.0468   20.6689 O   0  0  0  0  0  0  0  0  0  0  0  0
  -22.5278  -29.6823   22.9853 O   0  0  0  0  0  0  0  0  0  0  0  0
  -26.0384  -32.3004   22.1908 O   0  0  0  0  0  0  0  0  0  0  0  0
  -24.2019  -22.5824   21.7304 O   0  0  0  0  0  0  0  0  0  0  0  0
  -24.7249   -9.6997   19.8001 O   0  0  0  0  0  0  0  0  0  0  0  0
  -29.9955  -27.7632   21.6161 O   0  0  0  0  0  0  0  0  0  1  0  0
  -20.4859   -7.2765   22.3618 F   0  0  0  0  0  0  0  0  0  0  0  0
  -22.2075  -10.8416   19.7672 F   0  0  0  0  0  0  0  0  0  0  0  0
  -28.8313  -21.5974   20.0884 F   0  0  0  0  0  0  0  0  0  0  0  0
  1  2  1  0  0  0  0
  1  6  2  0  0  0  0
  2  7  2  0  0  0  0
  3  9  2  0  0  0  0
  3 10  1  0  0  0  0
  4 11  2  0  0  0  0
  4 18  1  0  0  0  0
  5 12  1  0  0  0  0
  5 18  2  0  0  0  0
  6 20  1  0  0  0  0
  7 22  1  0  0  0  0
  8 13  2  0  0  0  0
  8 21  1  0  0  0  0
  9 24  1  0  0  0  0
 10 25  2  0  0  0  0
 11 26  1  0  0  0  0
 12 26  2  0  0  0  0
 13 27  1  0  0  0  0
 14 15  2  0  0  0  0
 14 28  1  0  0  0  0
 15 29  1  0  0  0  0
 16 23  1  0  0  0  0
 16 27  2  0  0  0  0
 17 29  2  0  0  0  0
 17 30  1  0  0  0  0
 18 32  1  0  0  0  0
 19 32  1  0  0  0  0
 19 33  2  0  0  0  0
 19 35  1  0  0  0  0
 20 22  2  0  0  0  0
 20 41  1  0  0  0  0
 21 23  2  0  0  0  0
 21 42  1  0  0  0  0
 22 50  1  0  0  0  0
 23 43  1  0  0  0  0
 24 31  2  0  0  0  0
 24 58  1  0  0  0  0
 25 31  1  0  0  0  0
 25 71  1  0  0  0  0
 26 81  1  0  0  0  0
 27 82  1  0  0  0  0
 28 30  2  0  0  0  0
 28 81  1  0  0  0  0
 29 83  1  0  0  0  0
 30 84  1  0  0  0  0
 31 85  1  0  0  0  0
 32 64  2  0  0  0  0
 33 66  1  0  0  0  0
 33 69  1  0  0  0  0
 34 58  1  0  0  0  0
 34 65  2  0  0  0  0
 35 70  1  0  0  0  0
 35 75  2  0  0  0  0
 36 51  1  0  0  0  0
 36 72  1  0  0  0  0
 36 76  2  0  0  0  0
 37 59  1  0  0  0  0
 37 65  1  0  0  0  0
 37 77  2  0  0  0  0
 38 61  1  0  0  0  0
 38 67  1  0  0  0  0
 38 78  2  0  0  0  0
 39 62  1  0  0  0  0
 39 73  1  0  0  0  0
 39 79  2  0  0  0  0
 40 68  1  0  0  0  0
 40 71  1  0  0  0  0
 40 80  2  0  0  0  0
 41 44  1  0  0  0  0
 42 51  1  0  0  0  0
 43 67  1  0  0  0  0
 44 46  1  0  0  0  0
 45 47  1  0  0  0  0
 45 48  1  0  0  0  0
 46 50  1  0  0  0  0
 47 52  1  0  0  0  0
 48 68  1  0  0  0  0
 49 52  1  0  0  0  0
 49 68  1  0  0  0  0
 50 72  1  0  0  0  0
 51 67  1  0  0  0  0
 52 66  1  0  0  0  0
 53 62  1  0  0  0  0
 54 63  1  0  0  0  0
 55 63  1  0  0  0  0
 56 63  1  0  0  0  0
 57 74  1  0  0  0  0
 59 60  1  0  0  0  0
 60 82  1  0  0  0  0
 61 63  1  0  0  0  0
 61 73  1  0  0  0  0
 62 74  1  0  0  0  0
 64 66  1  0  0  0  0
M  CHG  1  74   1
M  ISO  4  40 100  60 101  71 100  82 101
M  END
> <Batch ID>
0170

> <Smiles>
CNC(C)C(=O)NC(C(=O)N1Cc2cc([101O:1][101CH2:1]CC(=O)NC=Cc3cccc([100NH:0][100C:0](=O)N4CCCC(n5nc(-c6ccc(Oc7ccc(F)cc7F)cc6)c(C(N)=O)c5N)C4)c3F)ccc2CC1C(=O)NC1CCCc2ccccc21)C(C)(C)C

> <Shape>
0.253

> <Color>
0.059

> <Negative vol penalty>
0.000

$$$$

  -OEChem-04052304203D

 86 94  0     1  0  0  0  0  0999 V2000
  -27.3594  -24.6338   26.2246 C   0  0  0  0  0  0  0  0  0  0  0  0
  -26.2004  -24.3256   25.5195 C   0  0  0  0  0  0  0  0  0  0  0  0
  -29.4105  -27.7194   19.3583 C   0  0  0  0  0  0  0  0  0  0  0  0
  -28.5439  -26.1503   20.9781 C   0  0  0  0  0  0  0  0  0  0  0  0
  -28.5646  -24.0207   25.8847 C   0  0  0  0  0  0  0  0  0  0  0  0
  -26.2461  -23.4047   24.4734 C   0  0  0  0  0  0  0  0  0  0  0  0
  -22.4120  -20.1000   24.6249 C   0  0  0  0  0  0  0  0  0  0  0  0
  -30.6754  -27.1437   19.4773 C   0  0  0  0  0  0  0  0  0  0  0  0
  -29.8088  -25.5746   21.0972 C   0  0  0  0  0  0  0  0  0  0  0  0
  -21.1708  -20.5435   24.1706 C   0  0  0  0  0  0  0  0  0  0  0  0
  -32.8885  -23.9233   22.0963 C   0  0  0  0  0  0  0  0  0  0  0  0
  -33.3557  -23.6444   23.3806 C   0  0  0  0  0  0  0  0  0  0  0  0
  -21.5542  -19.4374   22.0615 C   0  0  0  0  0  0  0  0  0  0  0  0
  -17.2667  -28.4497   23.7551 C   0  0  0  0  0  0  0  0  0  0  0  0
  -19.1006  -30.0047   23.9914 C   0  0  0  0  0  0  0  0  0  0  0  0
  -33.1918  -25.9869   23.9489 C   0  0  0  0  0  0  0  0  0  0  0  0
  -28.3447  -27.2227   20.1088 C   0  0  0  0  0  0  0  0  0  0  0  0
  -26.0183  -27.4519   19.0875 C   0  0  0  0  0  0  0  0  0  0  0  0
  -28.6232  -23.0847   24.8402 C   0  0  0  0  0  0  0  0  0  0  0  0
  -23.2398  -19.3296   23.7956 C   0  0  0  0  0  0  0  0  0  0  0  0
  -27.4535  -22.7795   24.1183 C   0  0  0  0  0  0  0  0  0  0  0  0
  -22.8044  -18.9831   22.5085 C   0  0  0  0  0  0  0  0  0  0  0  0
  -17.9027  -27.8662   22.6594 C   0  0  0  0  0  0  0  0  0  0  0  0
  -19.7366  -29.4211   22.8957 C   0  0  0  0  0  0  0  0  0  0  0  0
  -30.8746  -26.0713   20.3467 C   0  0  0  0  0  0  0  0  0  0  0  0
  -20.7430  -20.2147   22.8877 C   0  0  0  0  0  0  0  0  0  0  0  0
  -32.5731  -25.2340   21.7382 C   0  0  0  0  0  0  0  0  0  0  0  0
  -33.5073  -24.6762   24.3070 C   0  0  0  0  0  0  0  0  0  0  0  0
  -17.8656  -29.5191   24.4211 C   0  0  0  0  0  0  0  0  0  0  0  0
  -32.7247  -26.2658   22.6645 C   0  0  0  0  0  0  0  0  0  0  0  0
  -19.1376  -28.3518   22.2297 C   0  0  0  0  0  0  0  0  0  0  0  0
  -27.0380  -27.8174   19.9867 C   0  0  0  0  0  0  0  0  0  0  0  0
  -24.9862  -28.3128   19.3704 C   0  0  0  0  0  0  0  0  0  0  0  0
  -26.0053  -26.4260   18.0860 C   0  0  0  0  0  0  0  0  0  0  0  0
  -26.1363  -19.7081   22.5423 C   0  0  0  0  0  0  0  0  0  0  0  0
  -25.6825  -16.6515   21.5554 C   0  0  0  0  0  0  0  0  0  0  0  0
  -17.7078  -24.3563   21.3312 C   0  0  0  0  0  0  0  0  0  0  0  0
  -23.4915  -14.1549   20.7725 C   0  0  0  0  0  0  0  0  0  0  0  0
  -21.7197  -30.9704   23.0132 C   0  0  0  0  0  0  0  0  0  0  0  0
  -29.9582  -22.4833   24.4785 C   0  0  0  0  0  0  0  0  0  0  0  0
  -24.5643  -18.8365   24.3102 C   0  0  0  0  0  0  0  0  0  0  0  0
  -23.6467  -18.1415   21.5863 C   0  0  0  0  0  0  0  0  0  0  0  0
  -29.8480  -21.2389   23.6012 C   0  0  0  0  0  0  0  0  0  0  0  0
  -24.8603  -32.4681   22.2582 C   0  0  0  0  0  0  0  0  0  0  0  0
  -28.8655  -21.4763   22.4589 C   0  0  0  0  0  0  0  0  0  0  0  0
  -25.6230  -31.3616   21.5259 C   0  0  0  0  0  0  0  0  0  0  0  0
  -23.9907  -31.9089   23.3828 C   0  0  0  0  0  0  0  0  0  0  0  0
  -23.8377  -29.7262   22.2507 C   0  0  0  0  0  0  0  0  0  0  0  0
  -27.4579  -21.7674   22.9934 C   0  0  1  0  0  0  0  0  0  0  0  0
  -25.5469  -18.4901   23.1957 C   0  0  1  0  0  0  0  0  0  0  0  0
  -24.6775  -30.2341   21.0673 C   0  0  2  0  0  0  0  0  0  0  0  0
  -23.4177  -11.7813   19.9613 C   0  0  0  0  0  0  0  0  0  0  0  0
  -26.3325  -17.5999   18.7291 C   0  0  0  0  0  0  0  0  0  0  0  0
  -25.3346  -15.4741   17.8611 C   0  0  0  0  0  0  0  0  0  0  0  0
  -27.3373  -15.3945   19.3463 C   0  0  0  0  0  0  0  0  0  0  0  0
  -22.1341  -13.2330   23.2356 C   0  0  0  0  0  0  0  0  0  0  0  0
  -17.2545  -26.7156   21.9452 C   0  0  0  0  0  0  0  0  0  0  0  0
  -18.7548  -23.2705   21.5039 C   0  0  0  0  0  0  0  0  0  0  0  0
  -18.3629  -21.9680   20.8154 C   0  0  0  0  0  0  0  0  0  0  0  0
  -19.4015  -20.8786   21.0395 C   0  0  0  0  0  0  0  0  0  1  0  0
  -25.0884  -16.0010   20.3295 C   0  0  1  0  0  0  0  0  0  0  0  0
  -23.4435  -12.6928   21.1783 C   0  0  2  0  0  0  0  0  0  0  0  0
  -26.0079  -16.1349   19.0829 C   0  0  0  0  0  0  0  0  0  0  0  0
  -26.6856  -28.8315   20.7813 N   0  0  0  0  0  0  0  0  0  0  0  0
  -25.4331  -29.1107   20.3823 N   0  0  0  0  0  0  0  0  0  0  0  0
  -24.9365  -17.6887   22.1330 N   0  0  0  0  0  0  0  0  0  0  0  0
  -23.1184  -30.8485   22.8734 N   0  0  0  0  0  0  0  0  0  0  0  0
  -23.7491  -28.4576   18.8499 N   0  0  0  0  0  0  0  0  0  0  0  0
  -27.1494  -25.6320   17.9279 N   0  0  0  0  0  0  0  0  0  0  0  0
  -20.9912  -29.9168   22.4619 N   0  0  0  0  0  0  0  0  0  0  0  0
  -26.8130  -20.5414   23.4124 N   0  0  0  0  0  0  0  0  0  0  0  0
  -18.0820  -25.5327   21.9641 N   0  0  0  0  0  0  0  0  0  0  0  0
  -24.7864  -14.6237   20.7041 N   0  0  0  0  0  0  0  0  0  0  0  0
  -22.2266  -12.4215   21.9946 N   0  3  0  0  0  0  0  0  0  0  0  0
  -25.0146  -26.2301   17.3419 O   0  0  0  0  0  0  0  0  0  0  0  0
  -25.9894  -19.8783   21.3377 O   0  0  0  0  0  0  0  0  0  0  0  0
  -26.7651  -16.2494   21.9888 O   0  0  0  0  0  0  0  0  0  0  0  0
  -16.6644  -24.1941   20.7041 O   0  0  0  0  0  0  0  0  0  0  0  0
  -22.4815  -14.8140   20.5361 O   0  0  0  0  0  0  0  0  0  0  0  0
  -21.2048  -31.9512   23.5562 O   0  0  0  0  0  0  0  0  0  0  0  0
  -32.1087  -25.5091   20.4629 O   0  0  0  0  0  0  0  0  0  0  0  0
  -19.5322  -20.6468   22.4415 O   0  0  0  0  0  0  0  0  0  1  0  0
  -33.9545  -24.4080   25.5408 F   0  0  0  0  0  0  0  0  0  0  0  0
  -17.2550  -30.0793   25.4735 F   0  0  0  0  0  0  0  0  0  0  0  0
  -32.4222  -27.5268   22.3266 F   0  0  0  0  0  0  0  0  0  0  0  0
  -19.7477  -27.7893   21.1755 F   0  0  0  0  0  0  0  0  0  0  0  0
  1  2  1  0  0  0  0
  1  5  2  0  0  0  0
  2  6  2  0  0  0  0
  3  8  2  0  0  0  0
  3 17  1  0  0  0  0
  4  9  1  0  0  0  0
  4 17  2  0  0  0  0
  5 19  1  0  0  0  0
  6 21  1  0  0  0  0
  7 10  2  0  0  0  0
  7 20  1  0  0  0  0
  8 25  1  0  0  0  0
  9 25  2  0  0  0  0
 10 26  1  0  0  0  0
 11 12  2  0  0  0  0
 11 27  1  0  0  0  0
 12 28  1  0  0  0  0
 13 22  1  0  0  0  0
 13 26  2  0  0  0  0
 14 23  1  0  0  0  0
 14 29  2  0  0  0  0
 15 24  2  0  0  0  0
 15 29  1  0  0  0  0
 16 28  2  0  0  0  0
 16 30  1  0  0  0  0
 17 32  1  0  0  0  0
 18 32  1  0  0  0  0
 18 33  2  0  0  0  0
 18 34  1  0  0  0  0
 19 21  2  0  0  0  0
 19 40  1  0  0  0  0
 20 22  2  0  0  0  0
 20 41  1  0  0  0  0
 21 49  1  0  0  0  0
 22 42  1  0  0  0  0
 23 31  2  0  0  0  0
 23 57  1  0  0  0  0
 24 31  1  0  0  0  0
 24 70  1  0  0  0  0
 25 81  1  0  0  0  0
 26 82  1  0  0  0  0
 27 30  2  0  0  0  0
 27 81  1  0  0  0  0
 28 83  1  0  0  0  0
 29 84  1  0  0  0  0
 30 85  1  0  0  0  0
 31 86  1  0  0  0  0
 32 64  2  0  0  0  0
 33 65  1  0  0  0  0
 33 68  1  0  0  0  0
 34 69  1  0  0  0  0
 34 75  2  0  0  0  0
 35 50  1  0  0  0  0
 35 71  1  0  0  0  0
 35 76  2  0  0  0  0
 36 61  1  0  0  0  0
 36 66  1  0  0  0  0
 36 77  2  0  0  0  0
 37 58  1  0  0  0  0
 37 72  1  0  0  0  0
 37 78  2  0  0  0  0
 38 62  1  0  0  0  0
 38 73  1  0  0  0  0
 38 79  2  0  0  0  0
 39 67  1  0  0  0  0
 39 70  1  0  0  0  0
 39 80  2  0  0  0  0
 40 43  1  0  0  0  0
 41 50  1  0  0  0  0
 42 66  1  0  0  0  0
 43 45  1  0  0  0  0
 44 46  1  0  0  0  0
 44 47  1  0  0  0  0
 45 49  1  0  0  0  0
 46 51  1  0  0  0  0
 47 67  1  0  0  0  0
 48 51  1  0  0  0  0
 48 67  1  0  0  0  0
 49 71  1  0  0  0  0
 50 66  1  0  0  0  0
 51 65  1  0  0  0  0
 52 62  1  0  0  0  0
 53 63  1  0  0  0  0
 54 63  1  0  0  0  0
 55 63  1  0  0  0  0
 56 74  1  0  0  0  0
 57 72  1  0  0  0  0
 58 59  1  0  0  0  0
 59 60  1  0  0  0  0
 60 82  1  0  0  0  0
 61 63  1  0  0  0  0
 61 73  1  0  0  0  0
 62 74  1  0  0  0  0
 64 65  1  0  0  0  0
M  CHG  1  74   1
M  ISO  4  39 100  60 101  70 100  82 101
M  END
> <Batch ID>
0170

> <Smiles>
CNC(C)C(=O)NC(C(=O)N1Cc2cc([101O:1][101CH2:1]CCC(=O)NCc3cc(F)cc([100NH:0][100C:0](=O)N4CCCC(n5nc(-c6ccc(Oc7ccc(F)cc7F)cc6)c(C(N)=O)c5N)C4)c3F)ccc2CC1C(=O)NC1CCCc2ccccc21)C(C)(C)C

> <Shape>
0.202

> <Color>
0.087

> <Negative vol penalty>
0.000

$$$$

  -OEChem-04052304203D

 88 96  0     1  0  0  0  0  0999 V2000
  -41.9615  -15.1796   32.9426 C   0  0  0  0  0  0  0  0  0  0  0  0
  -40.9651  -15.9723   32.3821 C   0  0  0  0  0  0  0  0  0  0  0  0
  -23.0003   -9.8943   19.9810 C   0  0  0  0  0  0  0  0  0  0  0  0
  -23.7257   -9.9448   22.2850 C   0  0  0  0  0  0  0  0  0  0  0  0
  -43.0727  -14.8175   32.1823 C   0  0  0  0  0  0  0  0  0  0  0  0
  -41.0798  -16.4043   31.0613 C   0  0  0  0  0  0  0  0  0  0  0  0
  -36.7592  -15.8965   28.4690 C   0  0  0  0  0  0  0  0  0  0  0  0
  -32.0608  -16.5319   22.5484 C   0  0  0  0  0  0  0  0  0  0  0  0
  -22.2336   -8.7599   20.2473 C   0  0  0  0  0  0  0  0  0  0  0  0
  -22.9590   -8.8104   22.5513 C   0  0  0  0  0  0  0  0  0  0  0  0
  -35.7689  -16.8530   28.6883 C   0  0  0  0  0  0  0  0  0  0  0  0
  -23.2025   -5.4715   22.0789 C   0  0  0  0  0  0  0  0  0  0  0  0
  -32.6704  -17.4193   23.4353 C   0  0  0  0  0  0  0  0  0  0  0  0
  -23.7899   -4.4541   22.8308 C   0  0  0  0  0  0  0  0  0  0  0  0
  -36.4211  -17.9844   26.6600 C   0  0  0  0  0  0  0  0  0  0  0  0
  -22.0663   -4.6971   24.5062 C   0  0  0  0  0  0  0  0  0  0  0  0
  -23.7465  -10.4867   20.9999 C   0  0  0  0  0  0  0  0  0  0  0  0
  -24.1323  -13.0022   20.8242 C   0  0  0  0  0  0  0  0  0  0  0  0
  -43.1964  -15.2373   30.8484 C   0  0  0  0  0  0  0  0  0  0  0  0
  -37.5964  -15.9829   27.3474 C   0  0  0  0  0  0  0  0  0  0  0  0
  -42.1943  -16.0486   30.2829 C   0  0  0  0  0  0  0  0  0  0  0  0
  -37.4195  -17.0262   26.4274 C   0  0  0  0  0  0  0  0  0  0  0  0
  -29.9001  -17.4559   23.1092 C   0  0  0  0  0  0  0  0  0  0  0  0
  -30.6756  -16.5503   22.3853 C   0  0  0  0  0  0  0  0  0  0  0  0
  -30.5097  -18.3432   23.9961 C   0  0  0  0  0  0  0  0  0  0  0  0
  -22.2129   -8.2180   21.5324 C   0  0  0  0  0  0  0  0  0  0  0  0
  -35.6016  -17.8988   27.7853 C   0  0  0  0  0  0  0  0  0  0  0  0
  -22.0470   -6.1018   22.5407 C   0  0  0  0  0  0  0  0  0  0  0  0
  -23.2218   -4.0669   24.0445 C   0  0  0  0  0  0  0  0  0  0  0  0
  -31.8949  -18.3249   24.1592 C   0  0  0  0  0  0  0  0  0  0  0  0
  -21.4789   -5.7146   23.7543 C   0  0  0  0  0  0  0  0  0  0  0  0
  -24.5391  -11.6582   20.7253 C   0  0  0  0  0  0  0  0  0  0  0  0
  -25.2422  -13.7246   20.4597 C   0  0  0  0  0  0  0  0  0  0  0  0
  -22.8645  -13.5489   21.2109 C   0  0  0  0  0  0  0  0  0  0  0  0
  -40.7244  -16.3348   26.9049 C   0  0  0  0  0  0  0  0  0  0  0  0
  -30.2762  -18.5423   26.9667 C   0  0  0  0  0  0  0  0  0  0  0  0
  -39.9407  -15.8777   23.7906 C   0  0  0  0  0  0  0  0  0  0  0  0
  -37.5608  -16.0308   21.3493 C   0  0  0  0  0  0  0  0  0  0  0  0
  -30.7219  -14.6845   20.6932 C   0  0  0  0  0  0  0  0  0  0  0  0
  -44.4387  -14.8599   30.0809 C   0  0  0  0  0  0  0  0  0  0  0  0
  -38.6424  -14.9281   27.1111 C   0  0  0  0  0  0  0  0  0  0  0  0
  -38.2789  -17.1528   25.1970 C   0  0  0  0  0  0  0  0  0  0  0  0
  -44.3030  -15.0480   28.5721 C   0  0  0  0  0  0  0  0  0  0  0  0
  -29.6028  -12.2322   18.3671 C   0  0  0  0  0  0  0  0  0  0  0  0
  -43.6823  -16.4052   28.2569 C   0  0  0  0  0  0  0  0  0  0  0  0
  -28.1522  -11.9748   18.7814 C   0  0  0  0  0  0  0  0  0  0  0  0
  -30.5035  -12.4752   19.5768 C   0  0  0  0  0  0  0  0  0  0  0  0
  -28.5885  -13.2643   20.9106 C   0  0  0  0  0  0  0  0  0  0  0  0
  -42.2708  -16.5164   28.8457 C   0  0  1  0  0  0  0  0  0  0  0  0
  -39.7755  -15.4024   26.2064 C   0  0  1  0  0  0  0  0  0  0  0  0
  -27.6306  -13.0783   19.7225 C   0  0  2  0  0  0  0  0  0  0  0  0
  -28.4129  -17.4760   22.9346 C   0  0  0  0  0  0  0  0  0  0  0  0
  -29.3935  -17.3315   26.7501 C   0  0  0  0  0  0  0  0  0  0  0  0
  -29.1024  -20.7317   26.5482 C   0  0  0  0  0  0  0  0  0  0  0  0
  -37.2283  -15.6297   18.8946 C   0  0  0  0  0  0  0  0  0  0  0  0
  -41.4092  -18.4791   23.1691 C   0  0  0  0  0  0  0  0  0  0  0  0
  -40.2570  -18.5171   20.9466 C   0  0  0  0  0  0  0  0  0  0  0  0
  -41.7987  -16.6412   21.5183 C   0  0  0  0  0  0  0  0  0  0  0  0
  -35.5093  -13.9567   21.8480 C   0  0  0  0  0  0  0  0  0  0  0  0
  -32.8318  -19.8322   29.2245 C   0  0  0  0  0  0  0  0  0  0  0  0
  -31.9222  -19.8865   28.0052 C   0  0  0  0  0  0  0  0  0  0  0  0
  -33.8305  -18.6829   29.1653 C   0  0  0  0  0  0  0  0  0  1  0  0
  -30.1275  -19.7346   26.0318 C   0  0  2  0  0  0  0  0  0  0  0  0
  -39.5399  -16.7767   22.6460 C   0  0  1  0  0  0  0  0  0  0  0  0
  -37.1396  -15.0294   20.2890 C   0  0  2  0  0  0  0  0  0  0  0  0
  -40.7361  -17.6025   22.0941 C   0  0  0  0  0  0  0  0  0  0  0  0
  -25.8083  -11.5315   20.3290 N   0  0  0  0  0  0  0  0  0  0  0  0
  -31.1355  -18.6553   27.9177 N   0  0  0  0  0  0  0  0  0  0  0  0
  -26.2086  -12.8052   20.1755 N   0  0  0  0  0  0  0  0  0  0  0  0
  -39.2919  -16.1003   25.0134 N   0  0  0  0  0  0  0  0  0  0  0  0
  -29.9488  -13.5362   20.4203 N   0  0  0  0  0  0  0  0  0  0  0  0
  -25.4759  -15.0503   20.3578 N   0  0  0  0  0  0  0  0  0  0  0  0
  -21.8325  -12.6649   21.5544 N   0  0  0  0  0  0  0  0  0  0  0  0
  -30.0779  -15.6397   21.4790 N   0  0  0  0  0  0  0  0  0  0  0  0
  -29.7550  -19.2493   24.7230 N   0  0  0  0  0  0  0  0  0  0  0  0
  -41.3228  -15.7924   28.0262 N   0  0  0  0  0  0  0  0  0  0  0  0
  -38.9003  -15.9168   21.6561 N   0  0  0  0  0  0  0  0  0  0  0  0
  -35.7355  -14.5878   20.5222 N   0  3  0  0  0  0  0  0  0  0  0  0
  -22.6480  -14.7842   21.2348 O   0  0  0  0  0  0  0  0  0  0  0  0
  -40.9017  -17.4623   26.4588 O   0  0  0  0  0  0  0  0  0  0  0  0
  -40.7927  -15.0053   23.6046 O   0  0  0  0  0  0  0  0  0  0  0  0
  -36.7806  -16.8362   21.8522 O   0  0  0  0  0  0  0  0  0  0  0  0
  -31.8605  -14.8233   20.2391 O   0  0  0  0  0  0  0  0  0  0  0  0
  -21.4646   -7.1112   21.7927 O   0  0  0  0  0  0  0  0  0  0  0  0
  -34.6362  -18.8342   27.9973 O   0  0  0  0  0  0  0  0  0  1  0  0
  -23.7851   -3.0888   24.7657 F   0  0  0  0  0  0  0  0  0  0  0  0
  -32.4925  -19.1734   25.0079 F   0  0  0  0  0  0  0  0  0  0  0  0
  -20.3682   -6.3157   24.2025 F   0  0  0  0  0  0  0  0  0  0  0  0
  1  2  1  0  0  0  0
  1  5  2  0  0  0  0
  2  6  2  0  0  0  0
  3  9  2  0  0  0  0
  3 17  1  0  0  0  0
  4 10  1  0  0  0  0
  4 17  2  0  0  0  0
  5 19  1  0  0  0  0
  6 21  1  0  0  0  0
  7 11  2  0  0  0  0
  7 20  1  0  0  0  0
  8 13  1  0  0  0  0
  8 24  2  0  0  0  0
  9 26  1  0  0  0  0
 10 26  2  0  0  0  0
 11 27  1  0  0  0  0
 12 14  2  0  0  0  0
 12 28  1  0  0  0  0
 13 30  2  0  0  0  0
 14 29  1  0  0  0  0
 15 22  1  0  0  0  0
 15 27  2  0  0  0  0
 16 29  2  0  0  0  0
 16 31  1  0  0  0  0
 17 32  1  0  0  0  0
 18 32  1  0  0  0  0
 18 33  2  0  0  0  0
 18 34  1  0  0  0  0
 19 21  2  0  0  0  0
 19 40  1  0  0  0  0
 20 22  2  0  0  0  0
 20 41  1  0  0  0  0
 21 49  1  0  0  0  0
 22 42  1  0  0  0  0
 23 24  1  0  0  0  0
 23 25  2  0  0  0  0
 23 52  1  0  0  0  0
 24 74  1  0  0  0  0
 25 30  1  0  0  0  0
 25 75  1  0  0  0  0
 26 84  1  0  0  0  0
 27 85  1  0  0  0  0
 28 31  2  0  0  0  0
 28 84  1  0  0  0  0
 29 86  1  0  0  0  0
 30 87  1  0  0  0  0
 31 88  1  0  0  0  0
 32 67  2  0  0  0  0
 33 69  1  0  0  0  0
 33 72  1  0  0  0  0
 34 73  1  0  0  0  0
 34 79  2  0  0  0  0
 35 50  1  0  0  0  0
 35 76  1  0  0  0  0
 35 80  2  0  0  0  0
 36 53  1  0  0  0  0
 36 63  1  0  0  0  0
 36 68  2  0  0  0  0
 37 64  1  0  0  0  0
 37 70  1  0  0  0  0
 37 81  2  0  0  0  0
 38 65  1  0  0  0  0
 38 77  1  0  0  0  0
 38 82  2  0  0  0  0
 39 71  1  0  0  0  0
 39 74  1  0  0  0  0
 39 83  2  0  0  0  0
 40 43  1  0  0  0  0
 41 50  1  0  0  0  0
 42 70  1  0  0  0  0
 43 45  1  0  0  0  0
 44 46  1  0  0  0  0
 44 47  1  0  0  0  0
 45 49  1  0  0  0  0
 46 51  1  0  0  0  0
 47 71  1  0  0  0  0
 48 51  1  0  0  0  0
 48 71  1  0  0  0  0
 49 76  1  0  0  0  0
 50 70  1  0  0  0  0
 51 69  1  0  0  0  0
 54 63  1  0  0  0  0
 55 65  1  0  0  0  0
 56 66  1  0  0  0  0
 57 66  1  0  0  0  0
 58 66  1  0  0  0  0
 59 78  1  0  0  0  0
 60 61  1  0  0  0  0
 60 62  1  0  0  0  0
 61 68  1  0  0  0  0
 62 85  1  0  0  0  0
 63 75  1  0  0  0  0
 64 66  1  0  0  0  0
 64 77  1  0  0  0  0
 65 78  1  0  0  0  0
 67 69  1  0  0  0  0
M  CHG  1  78   1
M  ISO  4  39 100  62 101  74 100  85 101
M  END
> <Batch ID>
0170

> <Smiles>
CNC(C)C(=O)NC(C(=O)N1Cc2cc([101O:1][101CH2:1]CCN=C(C)C(C)Nc3c(F)ccc([100NH:0][100C:0](=O)N4CCCC(n5nc(-c6ccc(Oc7ccc(F)cc7F)cc6)c(C(N)=O)c5N)C4)c3C)ccc2CC1C(=O)NC1CCCc2ccccc21)C(C)(C)C

> <Shape>
0.170

> <Color>
0.198

> <Negative vol penalty>
0.000

$$$$

  -OEChem-04052304203D

 87 95  0     1  0  0  0  0  0999 V2000
  -28.8471  -11.5213   19.4085 C   0  0  0  0  0  0  0  0  0  0  0  0
  -28.8985  -12.8338   18.9501 C   0  0  0  0  0  0  0  0  0  0  0  0
  -23.6374  -26.7050   21.0234 C   0  0  0  0  0  0  0  0  0  0  0  0
  -22.7151  -28.8533   20.4143 C   0  0  0  0  0  0  0  0  0  0  0  0
  -27.6910  -11.0440   20.0246 C   0  0  0  0  0  0  0  0  0  0  0  0
  -27.7933  -13.6695   19.1066 C   0  0  0  0  0  0  0  0  0  0  0  0
  -29.0644  -18.2809   20.7692 C   0  0  0  0  0  0  0  0  0  0  0  0
  -22.3632  -26.2565   21.3711 C   0  0  0  0  0  0  0  0  0  0  0  0
  -21.4409  -28.4049   20.7619 C   0  0  0  0  0  0  0  0  0  0  0  0
  -29.5957  -19.1701   19.8360 C   0  0  0  0  0  0  0  0  0  0  0  0
  -17.9968  -27.9458   21.8282 C   0  0  0  0  0  0  0  0  0  0  0  0
  -17.1932  -28.7989   22.5846 C   0  0  0  0  0  0  0  0  0  0  0  0
  -33.7904  -26.6109   17.4234 C   0  0  0  0  0  0  0  0  0  0  0  0
  -27.4425  -20.2396   19.6383 C   0  0  0  0  0  0  0  0  0  0  0  0
  -18.8449  -28.7915   24.3478 C   0  0  0  0  0  0  0  0  0  0  0  0
  -23.8134  -28.0034   20.5450 C   0  0  0  0  0  0  0  0  0  0  0  0
  -34.1631  -27.7590   18.1625 C   0  0  0  0  0  0  0  0  0  0  0  0
  -25.7487  -28.3760   18.9253 C   0  0  0  0  0  0  0  0  0  0  0  0
  -26.5745  -11.8772   20.1973 C   0  0  0  0  0  0  0  0  0  0  0  0
  -27.7132  -18.3575   21.1364 C   0  0  0  0  0  0  0  0  0  0  0  0
  -26.6206  -13.2025   19.7243 C   0  0  0  0  0  0  0  0  0  0  0  0
  -26.8971  -19.3518   20.5782 C   0  0  0  0  0  0  0  0  0  0  0  0
  -21.2649  -27.1064   21.2403 C   0  0  0  0  0  0  0  0  0  0  0  0
  -28.7840  -20.1478   19.2683 C   0  0  0  0  0  0  0  0  0  0  0  0
  -19.2244  -27.5154   22.3317 C   0  0  0  0  0  0  0  0  0  0  0  0
  -17.6172  -29.2217   23.8443 C   0  0  0  0  0  0  0  0  0  0  0  0
  -19.6484  -27.9383   23.5915 C   0  0  0  0  0  0  0  0  0  0  0  0
  -25.1295  -28.4674   20.1862 C   0  0  0  0  0  0  0  0  0  0  0  0
  -33.3220  -27.8027   19.2500 C   0  0  0  0  0  0  0  0  0  0  0  0
  -26.9804  -28.9566   19.1047 C   0  0  0  0  0  0  0  0  0  0  0  0
  -32.7484  -26.0348   18.1121 C   0  0  0  0  0  0  0  0  0  0  0  0
  -29.8364  -22.1869   18.8152 C   0  0  0  0  0  0  0  0  0  1  0  0
  -35.1997  -28.7045   17.8683 C   0  0  0  0  0  0  0  0  0  0  0  0
  -25.2546  -27.8163   17.7012 C   0  0  0  0  0  0  0  0  0  0  0  0
  -33.2145  -28.7586   20.3821 C   0  0  0  0  0  0  0  0  0  0  0  0
  -30.3704  -23.1123   18.0089 C   0  0  0  0  0  0  0  0  0  0  0  0
  -30.9349  -24.3638   18.6114 C   0  0  0  0  0  0  0  0  0  0  0  0
  -25.2147  -16.4050   20.9161 C   0  0  0  0  0  0  0  0  0  0  0  0
  -23.7478  -18.7181   22.6539 C   0  0  0  0  0  0  0  0  0  0  0  0
  -23.6291  -21.9949   23.6002 C   0  0  0  0  0  0  0  0  0  0  0  0
  -31.6296  -29.7235   22.0194 C   0  0  0  0  0  0  0  0  0  0  0  0
  -25.3302  -11.3024   20.8267 C   0  0  0  0  0  0  0  0  0  0  0  0
  -27.1620  -17.4079   22.1644 C   0  0  0  0  0  0  0  0  0  0  0  0
  -25.4451  -19.4891   20.9539 C   0  0  0  0  0  0  0  0  0  0  0  0
  -24.3359  -12.3640   21.2900 C   0  0  0  0  0  0  0  0  0  0  0  0
  -28.8240  -31.6482   22.9790 C   0  0  0  0  0  0  0  0  0  0  0  0
  -24.1373  -13.4188   20.2062 C   0  0  0  0  0  0  0  0  0  0  0  0
  -27.6619  -30.9915   22.2288 C   0  0  0  0  0  0  0  0  0  0  0  0
  -29.8337  -30.6152   23.4772 C   0  0  0  0  0  0  0  0  0  0  0  0
  -29.1744  -29.0356   21.7085 C   0  0  0  0  0  0  0  0  0  0  0  0
  -25.4511  -14.1471   19.8978 C   0  0  1  0  0  0  0  0  0  0  0  0
  -25.6469  -17.2504   22.0807 C   0  0  1  0  0  0  0  0  0  0  0  0
  -28.1666  -30.0395   21.1259 C   0  0  1  0  0  0  0  0  0  0  0  0
  -36.0273  -28.4923   16.6222 C   0  0  0  0  0  0  0  0  0  0  0  0
  -22.2941  -23.5942   24.9992 C   0  0  0  0  0  0  0  0  0  0  0  0
  -21.5764  -18.7763   20.5111 C   0  0  0  0  0  0  0  0  0  0  0  0
  -20.8194  -20.9759   21.4367 C   0  0  0  0  0  0  0  0  0  0  0  0
  -20.7292  -18.9287   22.8591 C   0  0  0  0  0  0  0  0  0  0  0  0
  -25.9518  -22.6007   25.3315 C   0  0  0  0  0  0  0  0  0  0  0  0
  -22.9706  -19.9703   22.3268 C   0  0  1  0  0  0  0  0  0  0  0  0
  -23.4816  -22.6448   24.9641 C   0  0  2  0  0  0  0  0  0  0  0  0
  -21.5507  -19.6592   21.7747 C   0  0  0  0  0  0  0  0  0  0  0  0
  -25.9040  -29.0594   21.0993 N   0  0  0  0  0  0  0  0  0  0  0  0
  -27.0226  -29.3450   20.4114 N   0  0  0  0  0  0  0  0  0  0  0  0
  -24.9512  -18.5331   21.9586 N   0  0  0  0  0  0  0  0  0  0  0  0
  -30.2691  -29.7601   22.3716 N   0  0  0  0  0  0  0  0  0  0  0  0
  -28.0207  -29.1675   18.2706 N   0  0  0  0  0  0  0  0  0  0  0  0
  -23.9679  -27.2606   17.6921 N   0  0  0  0  0  0  0  0  0  0  0  0
  -31.9803  -24.8739   17.8539 N   0  0  0  0  0  0  0  0  0  0  0  0
  -31.9376  -28.9097   20.9235 N   0  0  0  0  0  0  0  0  0  0  0  0
  -25.7388  -15.1265   20.9237 N   0  0  0  0  0  0  0  0  0  0  0  0
  -22.9757  -20.7823   23.5388 N   0  0  0  0  0  0  0  0  0  0  0  0
  -24.7101  -23.4159   25.3061 N   0  3  0  0  0  0  0  0  0  0  0  0
  -35.4925  -29.7001   18.5559 O   0  0  0  0  0  0  0  0  0  0  0  0
  -25.9402  -27.7945   16.6510 O   0  0  0  0  0  0  0  0  0  0  0  0
  -34.2288  -29.3156   20.7929 O   0  0  0  0  0  0  0  0  0  0  0  0
  -30.4770  -24.8243   19.6517 O   0  0  0  0  0  0  0  0  0  0  0  0
  -24.4602  -16.8772   20.0738 O   0  0  0  0  0  0  0  0  0  0  0  0
  -23.3070  -17.9367   23.5005 O   0  0  0  0  0  0  0  0  0  0  0  0
  -24.2578  -22.5131   22.6799 O   0  0  0  0  0  0  0  0  0  0  0  0
  -32.4905  -30.3874   22.6054 O   0  0  0  0  0  0  0  0  0  0  0  0
  -32.4568  -26.7552   19.2268 O   0  0  0  0  0  0  0  0  0  0  0  0
  -30.4242  -22.9603   16.6382 O   0  0  0  0  0  0  0  0  0  0  0  0
  -20.0214  -26.6691   21.5793 O   0  0  0  0  0  0  0  0  0  0  0  0
  -29.2998  -21.0166   18.3567 O   0  0  0  0  0  0  0  0  0  1  0  0
  -16.8461  -30.0422   24.5699 F   0  0  0  0  0  0  0  0  0  0  0  0
  -20.8274  -27.5292   24.0799 F   0  0  0  0  0  0  0  0  0  0  0  0
  1  2  1  0  0  0  0
  1  5  2  0  0  0  0
  2  6  2  0  0  0  0
  3  8  2  0  0  0  0
  3 16  1  0  0  0  0
  4  9  1  0  0  0  0
  4 16  2  0  0  0  0
  5 19  1  0  0  0  0
  6 21  1  0  0  0  0
  7 10  2  0  0  0  0
  7 20  1  0  0  0  0
  8 23  1  0  0  0  0
  9 23  2  0  0  0  0
 10 24  1  0  0  0  0
 11 12  2  0  0  0  0
 11 25  1  0  0  0  0
 12 26  1  0  0  0  0
 13 17  1  0  0  0  0
 13 31  2  0  0  0  0
 14 22  1  0  0  0  0
 14 24  2  0  0  0  0
 15 26  2  0  0  0  0
 15 27  1  0  0  0  0
 16 28  1  0  0  0  0
 17 29  2  0  0  0  0
 17 33  1  0  0  0  0
 18 28  1  0  0  0  0
 18 30  2  0  0  0  0
 18 34  1  0  0  0  0
 19 21  2  0  0  0  0
 19 42  1  0  0  0  0
 20 22  2  0  0  0  0
 20 43  1  0  0  0  0
 21 51  1  0  0  0  0
 22 44  1  0  0  0  0
 23 84  1  0  0  0  0
 24 85  1  0  0  0  0
 25 27  2  0  0  0  0
 25 84  1  0  0  0  0
 26 86  1  0  0  0  0
 27 87  1  0  0  0  0
 28 63  2  0  0  0  0
 29 35  1  0  0  0  0
 29 82  1  0  0  0  0
 30 64  1  0  0  0  0
 30 67  1  0  0  0  0
 31 69  1  0  0  0  0
 31 82  1  0  0  0  0
 32 36  2  0  0  0  0
 32 85  1  0  0  0  0
 33 54  1  0  0  0  0
 33 74  2  0  0  0  0
 34 68  1  0  0  0  0
 34 75  2  0  0  0  0
 35 70  1  0  0  0  0
 35 76  2  0  0  0  0
 36 37  1  0  0  0  0
 36 83  1  0  0  0  0
 37 69  1  0  0  0  0
 37 77  2  0  0  0  0
 38 52  1  0  0  0  0
 38 71  1  0  0  0  0
 38 78  2  0  0  0  0
 39 60  1  0  0  0  0
 39 65  1  0  0  0  0
 39 79  2  0  0  0  0
 40 61  1  0  0  0  0
 40 72  1  0  0  0  0
 40 80  2  0  0  0  0
 41 66  1  0  0  0  0
 41 70  1  0  0  0  0
 41 81  2  0  0  0  0
 42 45  1  0  0  0  0
 43 52  1  0  0  0  0
 44 65  1  0  0  0  0
 45 47  1  0  0  0  0
 46 48  1  0  0  0  0
 46 49  1  0  0  0  0
 47 51  1  0  0  0  0
 48 53  1  0  0  0  0
 49 66  1  0  0  0  0
 50 53  1  0  0  0  0
 50 66  1  0  0  0  0
 51 71  1  0  0  0  0
 52 65  1  0  0  0  0
 53 64  1  0  0  0  0
 55 61  1  0  0  0  0
 56 62  1  0  0  0  0
 57 62  1  0  0  0  0
 58 62  1  0  0  0  0
 59 73  1  0  0  0  0
 60 62  1  0  0  0  0
 60 72  1  0  0  0  0
 61 73  1  0  0  0  0
 63 64  1  0  0  0  0
M  CHG  1  73   1
M  ISO  4  32 101  41 100  70 100  85 101
M  END
> <Batch ID>
0170

> <Smiles>
CNC(C)C(=O)NC(C(=O)N1Cc2cc([101O:1][101CH2:1]C(=O)C(=O)Nc3cc(C(C)=O)c(C(=O)[100NH:0][100C:0](=O)N4CCCC(n5nc(-c6ccc(Oc7ccc(F)cc7F)cc6)c(C(N)=O)c5N)C4)o3)ccc2CC1C(=O)NC1CCCc2ccccc21)C(C)(C)C

> <Shape>
0.229

> <Color>
0.064

> <Negative vol penalty>
0.000

$$$$

  -OEChem-04052304203D

 87 95  0     1  0  0  0  0  0999 V2000
  -19.3422  -12.3212   14.7707 C   0  0  0  0  0  0  0  0  0  0  0  0
  -19.6490  -13.5793   15.2792 C   0  0  0  0  0  0  0  0  0  0  0  0
  -28.6592  -25.0636   19.7746 C   0  0  0  0  0  0  0  0  0  0  0  0
  -26.7008  -23.7888   20.3884 C   0  0  0  0  0  0  0  0  0  0  0  0
  -19.5405  -11.1860   15.5555 C   0  0  0  0  0  0  0  0  0  0  0  0
  -20.1533  -13.7029   16.5734 C   0  0  0  0  0  0  0  0  0  0  0  0
  -24.2522  -17.8007   18.5514 C   0  0  0  0  0  0  0  0  0  0  0  0
  -29.4759  -24.0318   20.2372 C   0  0  0  0  0  0  0  0  0  0  0  0
  -27.5175  -22.7570   20.8509 C   0  0  0  0  0  0  0  0  0  0  0  0
  -24.1161  -19.0116   19.2290 C   0  0  0  0  0  0  0  0  0  0  0  0
  -29.3071  -20.2147   19.5262 C   0  0  0  0  0  0  0  0  0  0  0  0
  -28.9664  -18.9105   19.1678 C   0  0  0  0  0  0  0  0  0  0  0  0
  -24.5102  -17.8780   21.3216 C   0  0  0  0  0  0  0  0  0  0  0  0
  -17.4995  -28.6422   22.4119 C   0  0  0  0  0  0  0  0  0  0  0  0
  -19.4929  -30.0065   22.4579 C   0  0  0  0  0  0  0  0  0  0  0  0
  -28.7395  -18.3284   21.5017 C   0  0  0  0  0  0  0  0  0  0  0  0
  -27.2717  -24.9422   19.8503 C   0  0  0  0  0  0  0  0  0  0  0  0
  -25.9149  -26.1687   18.0720 C   0  0  0  0  0  0  0  0  0  0  0  0
  -20.0566  -11.2950   16.8564 C   0  0  0  0  0  0  0  0  0  0  0  0
  -24.5079  -16.6156   19.2561 C   0  0  0  0  0  0  0  0  0  0  0  0
  -20.3574  -12.5682   17.3768 C   0  0  0  0  0  0  0  0  0  0  0  0
  -24.6516  -16.6539   20.6504 C   0  0  0  0  0  0  0  0  0  0  0  0
  -18.2843  -27.4925   22.5007 C   0  0  0  0  0  0  0  0  0  0  0  0
  -20.2777  -28.8568   22.5467 C   0  0  0  0  0  0  0  0  0  0  0  0
  -19.6734  -27.5998   22.5681 C   0  0  0  0  0  0  0  0  0  0  0  0
  -28.9051  -22.8785   20.7753 C   0  0  0  0  0  0  0  0  0  0  0  0
  -24.2422  -19.0499   20.6145 C   0  0  0  0  0  0  0  0  0  0  0  0
  -29.3641  -20.5758   20.8723 C   0  0  0  0  0  0  0  0  0  0  0  0
  -28.6826  -17.9673   20.1555 C   0  0  0  0  0  0  0  0  0  0  0  0
  -18.1038  -29.8992   22.3905 C   0  0  0  0  0  0  0  0  0  0  0  0
  -29.0803  -19.6327   21.8600 C   0  0  0  0  0  0  0  0  0  0  0  0
  -26.4275  -26.0080   19.3732 C   0  0  0  0  0  0  0  0  0  0  0  0
  -25.1792  -27.3269   18.1334 C   0  0  0  0  0  0  0  0  0  0  0  0
  -26.0881  -25.3447   16.9115 C   0  0  0  0  0  0  0  0  0  0  0  0
  -22.9682  -13.8626   19.6487 C   0  0  0  0  0  0  0  0  0  0  0  0
  -22.6004  -22.0601   21.7752 C   0  0  0  0  0  0  0  0  0  0  0  0
  -25.6849  -13.0133   21.2043 C   0  0  0  0  0  0  0  0  0  0  0  0
  -20.5348  -25.3804   21.7470 C   0  0  0  0  0  0  0  0  0  0  0  0
  -28.4692  -13.9925   22.9178 C   0  0  0  0  0  0  0  0  0  0  0  0
  -22.4214  -30.1790   22.6017 C   0  0  0  0  0  0  0  0  0  0  0  0
  -20.2093  -10.0434   17.6840 C   0  0  0  0  0  0  0  0  0  0  0  0
  -24.6785  -15.3220   18.5080 C   0  0  0  0  0  0  0  0  0  0  0  0
  -24.9461  -15.4130   21.4516 C   0  0  0  0  0  0  0  0  0  0  0  0
  -21.0997  -10.2288   18.9101 C   0  0  0  0  0  0  0  0  0  0  0  0
  -24.9519  -31.4992   20.4732 C   0  0  0  0  0  0  0  0  0  0  0  0
  -20.7249  -11.5068   19.6537 C   0  0  0  0  0  0  0  0  0  0  0  0
  -25.5667  -30.2559   19.8265 C   0  0  0  0  0  0  0  0  0  0  0  0
  -24.5615  -31.2474   21.9285 C   0  0  0  0  0  0  0  0  0  0  0  0
  -24.3169  -28.8336   21.5005 C   0  0  0  0  0  0  0  0  0  0  0  0
  -20.9296  -12.7412   18.7671 C   0  0  1  0  0  0  0  0  0  0  0  0
  -24.4277  -14.0924   19.3756 C   0  0  1  0  0  0  0  0  0  0  0  0
  -24.6665  -29.0191   20.0149 C   0  0  2  0  0  0  0  0  0  0  0  0
  -17.6070  -26.1604   22.5216 C   0  0  0  0  0  0  0  0  0  0  0  0
  -30.6756  -13.7766   24.0936 C   0  0  0  0  0  0  0  0  0  0  0  0
  -23.9330  -12.2305   23.5766 C   0  0  0  0  0  0  0  0  0  0  0  0
  -25.9886  -12.2317   25.0058 C   0  0  0  0  0  0  0  0  0  0  0  0
  -25.8032  -10.6425   23.0920 C   0  0  0  0  0  0  0  0  0  0  0  0
  -29.9782  -14.3204   20.3931 C   0  0  0  0  0  0  0  0  0  0  0  0
  -21.6422  -23.1326   21.2780 C   0  0  0  0  0  0  0  0  0  0  0  0
  -23.2445  -21.2070   20.6999 C   0  0  0  0  0  0  0  0  0  1  0  0
  -21.5153  -24.3178   22.2303 C   0  0  0  0  0  0  0  0  0  0  0  0
  -26.1721  -13.1007   22.6305 C   0  0  1  0  0  0  0  0  0  0  0  0
  -29.9276  -13.5936   22.7822 C   0  0  2  0  0  0  0  0  0  0  0  0
  -25.4668  -12.0746   23.5616 C   0  0  0  0  0  0  0  0  0  0  0  0
  -26.0497  -26.9860   20.2007 N   0  0  0  0  0  0  0  0  0  0  0  0
  -25.2918  -27.7724   19.4176 N   0  0  0  0  0  0  0  0  0  0  0  0
  -25.0980  -14.1714   20.6751 N   0  0  0  0  0  0  0  0  0  0  0  0
  -23.7057  -30.0632   22.0291 N   0  0  0  0  0  0  0  0  0  0  0  0
  -24.4534  -27.9976   17.2137 N   0  0  0  0  0  0  0  0  0  0  0  0
  -26.8753  -24.1905   17.0231 N   0  0  0  0  0  0  0  0  0  0  0  0
  -20.4658  -26.4307   22.6581 N   0  0  0  0  0  0  0  0  0  0  0  0
  -21.6864  -28.9939   22.6136 N   0  0  0  0  0  0  0  0  0  0  0  0
  -22.3332  -13.0866   18.6979 N   0  0  0  0  0  0  0  0  0  0  0  0
  -27.6231  -12.9589   22.5757 N   0  0  0  0  0  0  0  0  0  0  0  0
  -30.5966  -14.4226   21.7400 N   0  3  0  0  0  0  0  0  0  0  0  0
  -25.5739  -25.6324   15.8041 O   0  0  0  0  0  0  0  0  0  0  0  0
  -22.4563  -14.3519   20.6488 O   0  0  0  0  0  0  0  0  0  0  0  0
  -22.8456  -21.8911   22.9686 O   0  0  0  0  0  0  0  0  0  0  0  0
  -25.8266  -11.9586   20.5805 O   0  0  0  0  0  0  0  0  0  0  0  0
  -19.9228  -25.2713   20.6898 O   0  0  0  0  0  0  0  0  0  0  0  0
  -28.1159  -15.1081   23.2935 O   0  0  0  0  0  0  0  0  0  0  0  0
  -21.9938  -31.2564   23.0239 O   0  0  0  0  0  0  0  0  0  0  0  0
  -29.7017  -21.8713   21.2265 O   0  0  0  0  0  0  0  0  0  0  0  0
  -24.1093  -20.2304   21.2784 O   0  0  0  0  0  0  0  0  0  1  0  0
  -28.3540  -16.7153   19.8112 F   0  0  0  0  0  0  0  0  0  0  0  0
  -17.3501  -31.0033   22.3051 F   0  0  0  0  0  0  0  0  0  0  0  0
  -29.1322  -19.9740   23.1549 F   0  0  0  0  0  0  0  0  0  0  0  0
  1  2  1  0  0  0  0
  1  5  2  0  0  0  0
  2  6  2  0  0  0  0
  3  8  2  0  0  0  0
  3 17  1  0  0  0  0
  4  9  1  0  0  0  0
  4 17  2  0  0  0  0
  5 19  1  0  0  0  0
  6 21  1  0  0  0  0
  7 10  2  0  0  0  0
  7 20  1  0  0  0  0
  8 26  1  0  0  0  0
  9 26  2  0  0  0  0
 10 27  1  0  0  0  0
 11 12  2  0  0  0  0
 11 28  1  0  0  0  0
 12 29  1  0  0  0  0
 13 22  1  0  0  0  0
 13 27  2  0  0  0  0
 14 23  2  0  0  0  0
 14 30  1  0  0  0  0
 15 24  1  0  0  0  0
 15 30  2  0  0  0  0
 16 29  2  0  0  0  0
 16 31  1  0  0  0  0
 17 32  1  0  0  0  0
 18 32  1  0  0  0  0
 18 33  2  0  0  0  0
 18 34  1  0  0  0  0
 19 21  2  0  0  0  0
 19 41  1  0  0  0  0
 20 22  2  0  0  0  0
 20 42  1  0  0  0  0
 21 50  1  0  0  0  0
 22 43  1  0  0  0  0
 23 25  1  0  0  0  0
 23 53  1  0  0  0  0
 24 25  2  0  0  0  0
 24 72  1  0  0  0  0
 25 71  1  0  0  0  0
 26 83  1  0  0  0  0
 27 84  1  0  0  0  0
 28 31  2  0  0  0  0
 28 83  1  0  0  0  0
 29 85  1  0  0  0  0
 30 86  1  0  0  0  0
 31 87  1  0  0  0  0
 32 65  2  0  0  0  0
 33 66  1  0  0  0  0
 33 69  1  0  0  0  0
 34 70  1  0  0  0  0
 34 76  2  0  0  0  0
 35 51  1  0  0  0  0
 35 73  1  0  0  0  0
 35 77  2  0  0  0  0
 36 59  1  0  0  0  0
 36 60  1  0  0  0  0
 36 78  2  0  0  0  0
 37 62  1  0  0  0  0
 37 67  1  0  0  0  0
 37 79  2  0  0  0  0
 38 61  1  0  0  0  0
 38 71  1  0  0  0  0
 38 80  2  0  0  0  0
 39 63  1  0  0  0  0
 39 74  1  0  0  0  0
 39 81  2  0  0  0  0
 40 68  1  0  0  0  0
 40 72  1  0  0  0  0
 40 82  2  0  0  0  0
 41 44  1  0  0  0  0
 42 51  1  0  0  0  0
 43 67  1  0  0  0  0
 44 46  1  0  0  0  0
 45 47  1  0  0  0  0
 45 48  1  0  0  0  0
 46 50  1  0  0  0  0
 47 52  1  0  0  0  0
 48 68  1  0  0  0  0
 49 52  1  0  0  0  0
 49 68  1  0  0  0  0
 50 73  1  0  0  0  0
 51 67  1  0  0  0  0
 52 66  1  0  0  0  0
 54 63  1  0  0  0  0
 55 64  1  0  0  0  0
 56 64  1  0  0  0  0
 57 64  1  0  0  0  0
 58 75  1  0  0  0  0
 59 61  1  0  0  0  0
 60 84  1  0  0  0  0
 62 64  1  0  0  0  0
 62 74  1  0  0  0  0
 63 75  1  0  0  0  0
 65 66  1  0  0  0  0
M  CHG  1  75   1
M  ISO  4  40 100  60 101  72 100  84 101
M  END
> <Batch ID>
0170

> <Smiles>
CNC(C)C(=O)NC(C(=O)N1Cc2cc([101O:1][101CH2:1]C(=O)CCC(=O)Nc3c(C)cc(F)cc3[100NH:0][100C:0](=O)N3CCCC(n4nc(-c5ccc(Oc6ccc(F)cc6F)cc5)c(C(N)=O)c4N)C3)ccc2CC1C(=O)NC1CCCc2ccccc21)C(C)(C)C

> <Shape>
0.236

> <Color>
0.076

> <Negative vol penalty>
0.000

$$$$

  -OEChem-04052304203D

 83 91  0     1  0  0  0  0  0999 V2000
  -27.8528  -34.4736   24.0839 C   0  0  0  0  0  0  0  0  0  0  0  0
  -28.0315  -33.1306   23.7678 C   0  0  0  0  0  0  0  0  0  0  0  0
  -23.4408  -10.0098   22.3191 C   0  0  0  0  0  0  0  0  0  0  0  0
  -23.3277   -9.7771   19.9170 C   0  0  0  0  0  0  0  0  0  0  0  0
  -26.5909  -34.9406   24.4493 C   0  0  0  0  0  0  0  0  0  0  0  0
  -26.9485  -32.2536   23.8179 C   0  0  0  0  0  0  0  0  0  0  0  0
  -26.7451  -29.1860   19.7938 C   0  0  0  0  0  0  0  0  0  0  0  0
  -22.6758   -8.8529   22.4672 C   0  0  0  0  0  0  0  0  0  0  0  0
  -22.5627   -8.6202   20.0651 C   0  0  0  0  0  0  0  0  0  0  0  0
  -27.6164  -28.0977   19.7781 C   0  0  0  0  0  0  0  0  0  0  0  0
  -23.1607   -5.5099   22.3175 C   0  0  0  0  0  0  0  0  0  0  0  0
  -23.5764   -4.5749   23.2653 C   0  0  0  0  0  0  0  0  0  0  0  0
  -25.8216  -26.6580   20.5027 C   0  0  0  0  0  0  0  0  0  0  0  0
  -27.6651  -19.5139   17.9934 C   0  0  0  0  0  0  0  0  0  0  0  0
  -21.4748   -4.8225   24.4313 C   0  0  0  0  0  0  0  0  0  0  0  0
  -29.7680  -18.2420   16.8078 C   0  0  0  0  0  0  0  0  0  0  0  0
  -23.7667  -10.4720   21.0440 C   0  0  0  0  0  0  0  0  0  0  0  0
  -25.9594  -11.7555   20.8155 C   0  0  0  0  0  0  0  0  0  0  0  0
  -25.4899  -34.0709   24.4945 C   0  0  0  0  0  0  0  0  0  0  0  0
  -25.4059  -29.0202   20.1752 C   0  0  0  0  0  0  0  0  0  0  0  0
  -25.6710  -32.7092   24.1855 C   0  0  0  0  0  0  0  0  0  0  0  0
  -24.9347  -27.7453   20.5199 C   0  0  0  0  0  0  0  0  0  0  0  0
  -27.5169  -18.1966   17.5739 C   0  0  0  0  0  0  0  0  0  0  0  0
  -22.2368   -8.1581   21.3402 C   0  0  0  0  0  0  0  0  0  0  0  0
  -27.1554  -26.8340   20.1353 C   0  0  0  0  0  0  0  0  0  0  0  0
  -21.9021   -6.1014   22.4266 C   0  0  0  0  0  0  0  0  0  0  0  0
  -22.7335   -4.2311   24.3222 C   0  0  0  0  0  0  0  0  0  0  0  0
  -21.0592   -5.7576   23.4835 C   0  0  0  0  0  0  0  0  0  0  0  0
  -28.5835  -17.5413   16.9689 C   0  0  0  0  0  0  0  0  0  0  0  0
  -24.5564  -11.6673   20.8903 C   0  0  0  0  0  0  0  0  0  0  0  0
  -28.8908  -20.1262   17.7867 C   0  0  0  0  0  0  0  0  0  0  0  0
  -26.2119  -13.0980   20.6727 C   0  0  0  0  0  0  0  0  0  0  0  0
  -26.9462  -10.7168   20.8701 C   0  0  0  0  0  0  0  0  0  0  0  0
  -23.5846  -30.1543   22.5204 C   0  0  0  0  0  0  0  0  0  0  0  0
  -28.4536  -23.5853   19.1744 C   0  0  0  0  0  0  0  0  0  0  0  0
  -21.2293  -28.6080   20.9129 C   0  0  0  0  0  0  0  0  0  0  0  0
  -20.3509  -26.1278   18.7395 C   0  0  0  0  0  0  0  0  0  0  0  0
  -25.1243  -18.0385   18.3464 C   0  0  0  0  0  0  0  0  0  0  0  0
  -24.1549  -34.6123   24.9409 C   0  0  0  0  0  0  0  0  0  0  0  0
  -24.4722  -30.1993   20.1612 C   0  0  0  0  0  0  0  0  0  0  0  0
  -23.5011  -27.5105   20.9174 C   0  0  0  0  0  0  0  0  0  0  0  0
  -22.9825  -33.6937   24.6065 C   0  0  0  0  0  0  0  0  0  0  0  0
  -23.1444  -17.0959   21.1516 C   0  0  0  0  0  0  0  0  0  0  0  0
  -23.3065  -32.2533   24.9900 C   0  0  0  0  0  0  0  0  0  0  0  0
  -23.4507  -15.6068   21.3275 C   0  0  0  0  0  0  0  0  0  0  0  0
  -23.0976  -17.4950   19.6777 C   0  0  0  0  0  0  0  0  0  0  0  0
  -24.5878  -15.6295   19.0706 C   0  0  0  0  0  0  0  0  0  0  0  0
  -24.5157  -31.7319   24.2042 C   0  0  1  0  0  0  0  0  0  0  0  0
  -23.2555  -30.0088   21.0616 C   0  0  1  0  0  0  0  0  0  0  0  0
  -24.7094  -15.1934   20.5399 C   0  0  2  0  0  0  0  0  0  0  0  0
  -18.3471  -25.0838   17.6476 C   0  0  0  0  0  0  0  0  0  0  0  0
  -20.5428  -27.1956   23.5289 C   0  0  0  0  0  0  0  0  0  0  0  0
  -19.2281  -25.5281   22.2026 C   0  0  0  0  0  0  0  0  0  0  0  0
  -18.5629  -27.9323   22.1903 C   0  0  0  0  0  0  0  0  0  0  0  0
  -21.3292  -26.8060   16.0299 C   0  0  0  0  0  0  0  0  0  0  0  0
  -27.9679  -22.1905   18.8415 C   0  0  0  0  0  0  0  0  0  0  0  0
  -27.4370  -24.4908   19.8422 C   0  0  0  0  0  0  0  0  0  1  0  0
  -20.6459  -27.2162   20.9492 C   0  0  1  0  0  0  0  0  0  0  0  0
  -19.4439  -26.1298   17.5222 C   0  0  2  0  0  0  0  0  0  0  0  0
  -19.7725  -26.9725   22.2122 C   0  0  0  0  0  0  0  0  0  0  0  0
  -29.9497  -19.5221   17.2025 N   0  0  0  0  0  0  0  0  0  0  0  0
  -23.9594  -12.8589   20.8025 N   0  0  0  0  0  0  0  0  0  0  0  0
  -24.9923  -13.7086   20.6711 N   0  0  0  0  0  0  0  0  0  0  0  0
  -22.6285  -28.6961   20.8942 N   0  0  0  0  0  0  0  0  0  0  0  0
  -24.3244  -17.0752   18.9968 N   0  0  0  0  0  0  0  0  0  0  0  0
  -27.3560  -13.8040   20.5498 N   0  0  0  0  0  0  0  0  0  0  0  0
  -26.5140   -9.3919   21.0195 N   0  0  0  0  0  0  0  0  0  0  0  0
  -26.2825  -17.5268   17.7622 N   0  0  0  0  0  0  0  0  0  0  0  0
  -29.0232  -21.4412   18.2090 N   0  0  0  0  0  0  0  0  0  0  0  0
  -24.1280  -31.3800   22.8550 N   0  0  0  0  0  0  0  0  0  0  0  0
  -19.9350  -27.0385   19.6877 N   0  0  0  0  0  0  0  0  0  0  0  0
  -20.2303  -25.8406   16.2898 N   0  3  0  0  0  0  0  0  0  0  0  0
  -28.1754  -10.9579   20.8053 O   0  0  0  0  0  0  0  0  0  0  0  0
  -23.3606  -29.2241   23.2861 O   0  0  0  0  0  0  0  0  0  0  0  0
  -29.5952  -23.9697   18.9240 O   0  0  0  0  0  0  0  0  0  0  0  0
  -20.4715  -29.5811   20.8943 O   0  0  0  0  0  0  0  0  0  0  0  0
  -21.3282  -25.3895   18.8408 O   0  0  0  0  0  0  0  0  0  0  0  0
  -24.8192  -19.2338   18.3338 O   0  0  0  0  0  0  0  0  0  0  0  0
  -21.4905   -7.0290   21.4843 O   0  0  0  0  0  0  0  0  0  0  0  0
  -28.0039  -25.7702   20.1215 O   0  0  0  0  0  0  0  0  0  1  0  0
  -23.1322   -3.3320   25.2315 F   0  0  0  0  0  0  0  0  0  0  0  0
  -19.8485   -6.3216   23.5929 F   0  0  0  0  0  0  0  0  0  0  0  0
  -28.4785  -16.2748   16.5477 F   0  0  0  0  0  0  0  0  0  0  0  0
  1  2  1  0  0  0  0
  1  5  2  0  0  0  0
  2  6  2  0  0  0  0
  3  8  2  0  0  0  0
  3 17  1  0  0  0  0
  4  9  1  0  0  0  0
  4 17  2  0  0  0  0
  5 19  1  0  0  0  0
  6 21  1  0  0  0  0
  7 10  2  0  0  0  0
  7 20  1  0  0  0  0
  8 24  1  0  0  0  0
  9 24  2  0  0  0  0
 10 25  1  0  0  0  0
 11 12  2  0  0  0  0
 11 26  1  0  0  0  0
 12 27  1  0  0  0  0
 13 22  1  0  0  0  0
 13 25  2  0  0  0  0
 14 23  2  0  0  0  0
 14 31  1  0  0  0  0
 15 27  2  0  0  0  0
 15 28  1  0  0  0  0
 16 29  2  0  0  0  0
 16 61  1  0  0  0  0
 17 30  1  0  0  0  0
 18 30  1  0  0  0  0
 18 32  2  0  0  0  0
 18 33  1  0  0  0  0
 19 21  2  0  0  0  0
 19 39  1  0  0  0  0
 20 22  2  0  0  0  0
 20 40  1  0  0  0  0
 21 48  1  0  0  0  0
 22 41  1  0  0  0  0
 23 29  1  0  0  0  0
 23 68  1  0  0  0  0
 24 79  1  0  0  0  0
 25 80  1  0  0  0  0
 26 28  2  0  0  0  0
 26 79  1  0  0  0  0
 27 81  1  0  0  0  0
 28 82  1  0  0  0  0
 29 83  1  0  0  0  0
 30 62  2  0  0  0  0
 31 61  2  0  0  0  0
 31 69  1  0  0  0  0
 32 63  1  0  0  0  0
 32 66  1  0  0  0  0
 33 67  1  0  0  0  0
 33 73  2  0  0  0  0
 34 49  1  0  0  0  0
 34 70  1  0  0  0  0
 34 74  2  0  0  0  0
 35 56  1  0  0  0  0
 35 57  1  0  0  0  0
 35 75  2  0  0  0  0
 36 58  1  0  0  0  0
 36 64  1  0  0  0  0
 36 76  2  0  0  0  0
 37 59  1  0  0  0  0
 37 71  1  0  0  0  0
 37 77  2  0  0  0  0
 38 65  1  0  0  0  0
 38 68  1  0  0  0  0
 38 78  2  0  0  0  0
 39 42  1  0  0  0  0
 40 49  1  0  0  0  0
 41 64  1  0  0  0  0
 42 44  1  0  0  0  0
 43 45  1  0  0  0  0
 43 46  1  0  0  0  0
 44 48  1  0  0  0  0
 45 50  1  0  0  0  0
 46 65  1  0  0  0  0
 47 50  1  0  0  0  0
 47 65  1  0  0  0  0
 48 70  1  0  0  0  0
 49 64  1  0  0  0  0
 50 63  1  0  0  0  0
 51 59  1  0  0  0  0
 52 60  1  0  0  0  0
 53 60  1  0  0  0  0
 54 60  1  0  0  0  0
 55 72  1  0  0  0  0
 56 69  1  0  0  0  0
 57 80  1  0  0  0  0
 58 60  1  0  0  0  0
 58 71  1  0  0  0  0
 59 72  1  0  0  0  0
 62 63  1  0  0  0  0
M  CHG  1  72   1
M  ISO  4  38 100  57 101  68 100  80 101
M  END
> <Batch ID>
0170

> <Smiles>
CNC(C)C(=O)NC(C(=O)N1Cc2cc([101O:1][101CH2:1]C(=O)CNc3cc([100NH:0][100C:0](=O)N4CCCC(n5nc(-c6ccc(Oc7ccc(F)cc7F)cc6)c(C(N)=O)c5N)C4)c(F)cn3)ccc2CC1C(=O)NC1CCCc2ccccc21)C(C)(C)C

> <Shape>
0.300

> <Color>
0.116

> <Negative vol penalty>
0.000

$$$$

  -OEChem-04052304203D

 84 92  0     1  0  0  0  0  0999 V2000
  -18.5007  -22.4420   16.4641 C   0  0  0  0  0  0  0  0  0  0  0  0
  -19.5070  -21.8987   17.2563 C   0  0  0  0  0  0  0  0  0  0  0  0
  -23.1212   -9.8079   21.1944 C   0  0  0  0  0  0  0  0  0  0  0  0
  -23.8840  -10.5483   23.3639 C   0  0  0  0  0  0  0  0  0  0  0  0
  -17.9208  -23.6607   16.8143 C   0  0  0  0  0  0  0  0  0  0  0  0
  -19.9349  -22.5744   18.3986 C   0  0  0  0  0  0  0  0  0  0  0  0
  -20.4559  -19.5034   22.3914 C   0  0  0  0  0  0  0  0  0  0  0  0
  -22.4141   -8.7680   21.7978 C   0  0  0  0  0  0  0  0  0  0  0  0
  -23.1767   -9.5084   23.9674 C   0  0  0  0  0  0  0  0  0  0  0  0
  -21.6018  -18.7108   22.4398 C   0  0  0  0  0  0  0  0  0  0  0  0
  -23.0900   -5.7218   23.0971 C   0  0  0  0  0  0  0  0  0  0  0  0
  -23.1875   -4.4542   22.5233 C   0  0  0  0  0  0  0  0  0  0  0  0
  -22.6100  -20.2728   23.9769 C   0  0  0  0  0  0  0  0  0  0  0  0
  -30.0321  -19.6491   21.3344 C   0  0  0  0  0  0  0  0  0  0  0  0
  -20.7984   -4.4330   22.1640 C   0  0  0  0  0  0  0  0  0  0  0  0
  -32.0319  -18.9011   20.2866 C   0  0  0  0  0  0  0  0  0  0  0  0
  -23.8563  -10.6980   21.9774 C   0  0  0  0  0  0  0  0  0  0  0  0
  -24.1190  -13.0701   21.0765 C   0  0  0  0  0  0  0  0  0  0  0  0
  -18.3351  -24.3469   17.9668 C   0  0  0  0  0  0  0  0  0  0  0  0
  -20.3825  -20.6943   23.1282 C   0  0  0  0  0  0  0  0  0  0  0  0
  -19.3610  -23.8040   18.7638 C   0  0  0  0  0  0  0  0  0  0  0  0
  -21.4611  -21.0775   23.9382 C   0  0  0  0  0  0  0  0  0  0  0  0
  -29.5729  -18.3367   21.3260 C   0  0  0  0  0  0  0  0  0  0  0  0
  -22.4418   -8.6183   23.1843 C   0  0  0  0  0  0  0  0  0  0  0  0
  -22.6802  -19.0969   23.2304 C   0  0  0  0  0  0  0  0  0  0  0  0
  -21.8467   -6.3450   23.2044 C   0  0  0  0  0  0  0  0  0  0  0  0
  -22.0417   -3.8098   22.0567 C   0  0  0  0  0  0  0  0  0  0  0  0
  -31.2840  -19.9451   20.8066 C   0  0  0  0  0  0  0  0  0  0  0  0
  -20.7009   -5.7007   22.7378 C   0  0  0  0  0  0  0  0  0  0  0  0
  -24.5875  -11.7720   21.3546 C   0  0  0  0  0  0  0  0  0  0  0  0
  -30.3973  -17.3647   20.7825 C   0  0  0  0  0  0  0  0  0  0  0  0
  -25.1867  -13.7014   20.4866 C   0  0  0  0  0  0  0  0  0  0  0  0
  -24.9827  -18.8821   22.8797 C   0  0  0  0  0  0  0  0  0  1  0  0
  -22.8337  -13.6531   21.3288 C   0  0  0  0  0  0  0  0  0  0  0  0
  -26.1438  -18.2160   22.8861 C   0  0  0  0  0  0  0  0  0  0  0  0
  -27.3875  -18.9178   22.4292 C   0  0  0  0  0  0  0  0  0  0  0  0
  -20.0461  -23.7688   22.3945 C   0  0  0  0  0  0  0  0  0  0  0  0
  -19.8487  -24.1140   25.6139 C   0  0  0  0  0  0  0  0  0  0  0  0
  -20.5821  -22.8808   28.7103 C   0  0  0  0  0  0  0  0  0  0  0  0
  -30.6179  -14.9086   20.2678 C   0  0  0  0  0  0  0  0  0  0  0  0
  -17.7116  -25.6842   18.2788 C   0  0  0  0  0  0  0  0  0  0  0  0
  -19.1290  -21.5245   23.0860 C   0  0  0  0  0  0  0  0  0  0  0  0
  -21.4246  -22.3365   24.7640 C   0  0  0  0  0  0  0  0  0  0  0  0
  -17.9613  -26.1537   19.7098 C   0  0  0  0  0  0  0  0  0  0  0  0
  -29.5758  -11.8476   18.7774 C   0  0  0  0  0  0  0  0  0  0  0  0
  -19.4294  -25.9725   20.0825 C   0  0  0  0  0  0  0  0  0  0  0  0
  -28.1466  -11.6618   19.2921 C   0  0  0  0  0  0  0  0  0  0  0  0
  -30.4851  -12.4646   19.8386 C   0  0  0  0  0  0  0  0  0  0  0  0
  -28.5586  -13.5259   20.9481 C   0  0  0  0  0  0  0  0  0  0  0  0
  -19.8350  -24.4948   20.0240 C   0  0  1  0  0  0  0  0  0  0  0  0
  -19.3632  -22.9806   23.4763 C   0  0  1  0  0  0  0  0  0  0  0  0
  -27.5899  -12.9674   19.8930 C   0  0  2  0  0  0  0  0  0  0  0  0
  -20.3238  -23.4040   31.1510 C   0  0  0  0  0  0  0  0  0  0  0  0
  -22.0761  -26.1886   25.4024 C   0  0  0  0  0  0  0  0  0  0  0  0
  -22.4212  -25.9677   27.8723 C   0  0  0  0  0  0  0  0  0  0  0  0
  -20.2381  -26.7893   26.9883 C   0  0  0  0  0  0  0  0  0  0  0  0
  -19.0005  -20.4253   29.1881 C   0  0  0  0  0  0  0  0  0  0  0  0
  -20.8414  -24.3481   26.7269 C   0  0  1  0  0  0  0  0  0  0  0  0
  -19.7243  -22.6918   29.9484 C   0  0  2  0  0  0  0  0  0  0  0  0
  -21.3959  -25.8006   26.7305 C   0  0  0  0  0  0  0  0  0  0  0  0
  -31.6194  -17.6139   20.2609 N   0  0  0  0  0  0  0  0  0  0  0  0
  -25.8541  -11.5881   20.9726 N   0  0  0  0  0  0  0  0  0  0  0  0
  -26.1906  -12.7789   20.4484 N   0  0  0  0  0  0  0  0  0  0  0  0
  -20.1793  -23.1177   24.6844 N   0  0  0  0  0  0  0  0  0  0  0  0
  -29.8956  -13.7000   20.3592 N   0  0  0  0  0  0  0  0  0  0  0  0
  -25.3554  -14.9500   20.0020 N   0  0  0  0  0  0  0  0  0  0  0  0
  -21.8511  -12.8644   21.9426 N   0  0  0  0  0  0  0  0  0  0  0  0
  -28.2981  -18.0359   21.8636 N   0  0  0  0  0  0  0  0  0  0  0  0
  -29.9433  -16.0226   20.7662 N   0  0  0  0  0  0  0  0  0  0  0  0
  -19.3581  -23.7930   21.1964 N   0  0  0  0  0  0  0  0  0  0  0  0
  -20.1679  -23.9625   27.9623 N   0  0  0  0  0  0  0  0  0  0  0  0
  -19.5980  -21.2432   30.2749 N   0  3  0  0  0  0  0  0  0  0  0  0
  -22.5593  -14.8334   21.0044 O   0  0  0  0  0  0  0  0  0  0  0  0
  -27.5155  -20.1292   22.5707 O   0  0  0  0  0  0  0  0  0  0  0  0
  -21.1171  -24.3158   22.6299 O   0  0  0  0  0  0  0  0  0  0  0  0
  -18.8145  -24.7853   25.5748 O   0  0  0  0  0  0  0  0  0  0  0  0
  -21.5275  -22.1448   28.4363 O   0  0  0  0  0  0  0  0  0  0  0  0
  -31.7405  -14.9567   19.7585 O   0  0  0  0  0  0  0  0  0  0  0  0
  -26.2440  -16.9031   23.2994 O   0  0  0  0  0  0  0  0  0  0  0  0
  -21.7516   -7.6039   23.7736 O   0  0  0  0  0  0  0  0  0  0  0  0
  -23.8002  -18.3254   23.2789 O   0  0  0  0  0  0  0  0  0  1  0  0
  -22.1357   -2.5932   21.5044 F   0  0  0  0  0  0  0  0  0  0  0  0
  -31.7515  -21.1984   20.8019 F   0  0  0  0  0  0  0  0  0  0  0  0
  -19.5039   -6.2949   22.8371 F   0  0  0  0  0  0  0  0  0  0  0  0
  1  2  1  0  0  0  0
  1  5  2  0  0  0  0
  2  6  2  0  0  0  0
  3  8  2  0  0  0  0
  3 17  1  0  0  0  0
  4  9  1  0  0  0  0
  4 17  2  0  0  0  0
  5 19  1  0  0  0  0
  6 21  1  0  0  0  0
  7 10  2  0  0  0  0
  7 20  1  0  0  0  0
  8 24  1  0  0  0  0
  9 24  2  0  0  0  0
 10 25  1  0  0  0  0
 11 12  2  0  0  0  0
 11 26  1  0  0  0  0
 12 27  1  0  0  0  0
 13 22  1  0  0  0  0
 13 25  2  0  0  0  0
 14 23  1  0  0  0  0
 14 28  2  0  0  0  0
 15 27  2  0  0  0  0
 15 29  1  0  0  0  0
 16 28  1  0  0  0  0
 16 61  2  0  0  0  0
 17 30  1  0  0  0  0
 18 30  1  0  0  0  0
 18 32  2  0  0  0  0
 18 34  1  0  0  0  0
 19 21  2  0  0  0  0
 19 41  1  0  0  0  0
 20 22  2  0  0  0  0
 20 42  1  0  0  0  0
 21 50  1  0  0  0  0
 22 43  1  0  0  0  0
 23 31  2  0  0  0  0
 23 68  1  0  0  0  0
 24 80  1  0  0  0  0
 25 81  1  0  0  0  0
 26 29  2  0  0  0  0
 26 80  1  0  0  0  0
 27 82  1  0  0  0  0
 28 83  1  0  0  0  0
 29 84  1  0  0  0  0
 30 62  2  0  0  0  0
 31 61  1  0  0  0  0
 31 69  1  0  0  0  0
 32 63  1  0  0  0  0
 32 66  1  0  0  0  0
 33 35  2  0  0  0  0
 33 81  1  0  0  0  0
 34 67  1  0  0  0  0
 34 73  2  0  0  0  0
 35 36  1  0  0  0  0
 35 79  1  0  0  0  0
 36 68  1  0  0  0  0
 36 74  2  0  0  0  0
 37 51  1  0  0  0  0
 37 70  1  0  0  0  0
 37 75  2  0  0  0  0
 38 58  1  0  0  0  0
 38 64  1  0  0  0  0
 38 76  2  0  0  0  0
 39 59  1  0  0  0  0
 39 71  1  0  0  0  0
 39 77  2  0  0  0  0
 40 65  1  0  0  0  0
 40 69  1  0  0  0  0
 40 78  2  0  0  0  0
 41 44  1  0  0  0  0
 42 51  1  0  0  0  0
 43 64  1  0  0  0  0
 44 46  1  0  0  0  0
 45 47  1  0  0  0  0
 45 48  1  0  0  0  0
 46 50  1  0  0  0  0
 47 52  1  0  0  0  0
 48 65  1  0  0  0  0
 49 52  1  0  0  0  0
 49 65  1  0  0  0  0
 50 70  1  0  0  0  0
 51 64  1  0  0  0  0
 52 63  1  0  0  0  0
 53 59  1  0  0  0  0
 54 60  1  0  0  0  0
 55 60  1  0  0  0  0
 56 60  1  0  0  0  0
 57 72  1  0  0  0  0
 58 60  1  0  0  0  0
 58 71  1  0  0  0  0
 59 72  1  0  0  0  0
 62 63  1  0  0  0  0
M  CHG  1  72   1
M  ISO  4  33 101  40 100  69 100  81 101
M  END
> <Batch ID>
0170

> <Smiles>
CNC(C)C(=O)NC(C(=O)N1Cc2cc([101O:1][101CH2:1]C(=O)C(=O)Nc3cc(F)cnc3[100NH:0][100C:0](=O)N3CCCC(n4nc(-c5ccc(Oc6ccc(F)cc6F)cc5)c(C(N)=O)c4N)C3)ccc2CC1C(=O)NC1CCCc2ccccc21)C(C)(C)C

> <Shape>
0.172

> <Color>
0.150

> <Negative vol penalty>
0.000

$$$$
