
  -OEChem-04052304233D

 87 95  0     1  0  0  0  0  0999 V2000
  -22.1122  -29.4239   23.5844 C   0  0  0  0  0  0  0  0  0  0  0  0
  -22.7680  -28.2021   23.6966 C   0  0  0  0  0  0  0  0  0  0  0  0
  -29.2649  -23.6590   18.6548 C   0  0  0  0  0  0  0  0  0  0  0  0
  -27.7002  -23.4394   20.4825 C   0  0  0  0  0  0  0  0  0  0  0  0
  -25.3128  -11.0772   20.2921 C   0  0  0  0  0  0  0  0  0  0  0  0
  -20.8317  -29.4786   23.0354 C   0  0  0  0  0  0  0  0  0  0  0  0
  -22.1432  -27.0341   23.2609 C   0  0  0  0  0  0  0  0  0  0  0  0
  -23.6269  -20.6718   20.3223 C   0  0  0  0  0  0  0  0  0  0  0  0
  -26.2495  -12.0238   19.8771 C   0  0  0  0  0  0  0  0  0  0  0  0
  -28.6237  -24.8284   18.2463 C   0  0  0  0  0  0  0  0  0  0  0  0
  -27.0590  -24.6089   20.0741 C   0  0  0  0  0  0  0  0  0  0  0  0
  -23.3966  -19.3118   20.5249 C   0  0  0  0  0  0  0  0  0  0  0  0
  -27.5657  -27.9411   20.3191 C   0  0  0  0  0  0  0  0  0  0  0  0
  -27.2344  -28.8738   21.3019 C   0  0  0  0  0  0  0  0  0  0  0  0
  -21.2152  -19.5376   19.5203 C   0  0  0  0  0  0  0  0  0  0  0  0
  -25.0341  -13.7448   21.0594 C   0  0  0  0  0  0  0  0  0  0  0  0
  -24.9007  -28.6664   20.7119 C   0  0  0  0  0  0  0  0  0  0  0  0
  -28.8031  -22.9644   19.7728 C   0  0  0  0  0  0  0  0  0  0  0  0
  -24.2367  -11.4645   21.0907 C   0  0  0  0  0  0  0  0  0  0  0  0
  -30.5372  -21.6457   21.1001 C   0  0  0  0  0  0  0  0  0  0  0  0
  -20.1948  -28.3119   22.5838 C   0  0  0  0  0  0  0  0  0  0  0  0
  -22.6471  -21.4785   19.7259 C   0  0  0  0  0  0  0  0  0  0  0  0
  -20.8525  -27.0731   22.7066 C   0  0  0  0  0  0  0  0  0  0  0  0
  -21.4365  -20.9070   19.3088 C   0  0  0  0  0  0  0  0  0  0  0  0
  -26.1102  -13.3576   20.2608 C   0  0  0  0  0  0  0  0  0  0  0  0
  -24.0973  -12.7983   21.4743 C   0  0  0  0  0  0  0  0  0  0  0  0
  -27.5208  -25.3034   18.9560 C   0  0  0  0  0  0  0  0  0  0  0  0
  -22.1895  -18.7450   20.1266 C   0  0  0  0  0  0  0  0  0  0  0  0
  -26.5645  -27.3711   19.5326 C   0  0  0  0  0  0  0  0  0  0  0  0
  -25.9019  -29.2364   21.4983 C   0  0  0  0  0  0  0  0  0  0  0  0
  -25.2321  -27.7337   19.7291 C   0  0  0  0  0  0  0  0  0  0  0  0
  -29.4647  -21.7560   20.1949 C   0  0  0  0  0  0  0  0  0  0  0  0
  -30.7972  -20.2984   21.1619 C   0  0  0  0  0  0  0  0  0  0  0  0
  -23.2755  -10.4511   21.5077 C   0  0  0  0  0  0  0  0  0  0  0  0
  -31.2359  -22.6695   21.8207 C   0  0  0  0  0  0  0  0  0  0  0  0
  -20.9537  -24.0045   20.6507 C   0  0  0  0  0  0  0  0  0  0  0  0
  -21.9632  -14.5672   23.9446 C   0  0  0  0  0  0  0  0  0  0  0  0
  -22.2382  -15.3385   21.5346 C   0  0  0  0  0  0  0  0  0  0  0  0
  -19.9455  -23.9688   17.5678 C   0  0  0  0  0  0  0  0  0  0  0  0
  -19.4411  -22.1806   14.7051 C   0  0  0  0  0  0  0  0  0  0  0  0
  -27.0809  -15.6865   20.1251 C   0  0  0  0  0  0  0  0  0  0  0  0
  -18.7915  -28.4147   22.0410 C   0  0  0  0  0  0  0  0  0  0  0  0
  -22.9215  -22.9384   19.4900 C   0  0  0  0  0  0  0  0  0  0  0  0
  -20.3601  -21.7256   18.6456 C   0  0  0  0  0  0  0  0  0  0  0  0
  -18.3491  -27.1806   21.2589 C   0  0  0  0  0  0  0  0  0  0  0  0
  -30.0645  -16.7472   17.9577 C   0  0  0  0  0  0  0  0  0  0  0  0
  -18.7021  -25.9090   22.0238 C   0  0  0  0  0  0  0  0  0  0  0  0
  -30.6992  -17.7788   18.8875 C   0  0  0  0  0  0  0  0  0  0  0  0
  -29.2024  -15.7428   18.7121 C   0  0  0  0  0  0  0  0  0  0  0  0
  -28.2990  -17.8247   19.7635 C   0  0  0  0  0  0  0  0  0  0  0  0
  -20.2178  -25.7875   22.2224 C   0  0  1  0  0  0  0  0  0  0  0  0
  -21.6505  -23.7688   19.3405 C   0  0  1  0  0  0  0  0  0  0  0  0
  -29.7594  -18.2250   20.0250 C   0  0  2  0  0  0  0  0  0  0  0  0
  -22.6822  -14.4507   25.2654 C   0  0  0  0  0  0  0  0  0  0  0  0
  -18.5686  -22.4152   12.3639 C   0  0  0  0  0  0  0  0  0  0  0  0
  -17.0867  -23.9516   18.6340 C   0  0  0  0  0  0  0  0  0  0  0  0
  -16.3175  -23.2357   16.3615 C   0  0  0  0  0  0  0  0  0  0  0  0
  -17.4534  -25.4371   16.6558 C   0  0  0  0  0  0  0  0  0  0  0  0
  -22.0577  -21.4474   13.5326 C   0  0  0  0  0  0  0  0  0  0  0  0
  -22.6012  -16.8089   21.4449 C   0  0  0  0  0  0  0  0  0  1  0  0
  -22.8322  -14.5669   22.6979 C   0  0  2  0  0  0  0  0  0  0  0  0
  -18.8102  -23.3102   16.8218 C   0  0  1  0  0  0  0  0  0  0  0  0
  -19.7969  -22.4734   13.2587 C   0  0  2  0  0  0  0  0  0  0  0  0
  -17.4363  -23.9684   17.1325 C   0  0  0  0  0  0  0  0  0  0  0  0
  -29.0705  -20.5731   19.7159 N   0  0  0  0  0  0  0  0  0  0  0  0
  -23.3682   -9.2000   21.1737 N   0  0  0  0  0  0  0  0  0  0  0  0
  -29.8998  -19.7068   20.3223 N   0  0  0  0  0  0  0  0  0  0  0  0
  -20.6733  -23.1497   18.4426 N   0  0  0  0  0  0  0  0  0  0  0  0
  -28.1750  -16.3781   19.5500 N   0  0  0  0  0  0  0  0  0  0  0  0
  -31.7037  -19.5740   21.8518 N   0  0  0  0  0  0  0  0  0  0  0  0
  -30.8400  -24.0019   21.6409 N   0  0  0  0  0  0  0  0  0  0  0  0
  -27.0624  -14.3188   19.8388 N   0  0  0  0  0  0  0  0  0  0  0  0
  -23.0351  -13.2032   22.2657 N   0  0  0  0  0  0  0  0  0  0  0  0
  -20.8529  -25.3370   21.0025 N   0  0  0  0  0  0  0  0  0  0  0  0
  -19.1797  -23.3361   15.4107 N   0  0  0  0  0  0  0  0  0  0  0  0
  -20.7901  -21.4812   12.7586 N   0  3  0  0  0  0  0  0  0  0  0  0
  -32.1940  -22.4120   22.5884 O   0  0  0  0  0  0  0  0  0  0  0  0
  -20.5371  -23.0484   21.2941 O   0  0  0  0  0  0  0  0  0  0  0  0
  -20.7370  -14.6665   23.9022 O   0  0  0  0  0  0  0  0  0  0  0  0
  -21.5116  -14.7990   20.7001 O   0  0  0  0  0  0  0  0  0  0  0  0
  -20.1825  -25.1640   17.3758 O   0  0  0  0  0  0  0  0  0  0  0  0
  -19.3956  -21.0407   15.1623 O   0  0  0  0  0  0  0  0  0  0  0  0
  -26.2435  -16.2637   20.8218 O   0  0  0  0  0  0  0  0  0  0  0  0
  -26.8950  -26.4447   18.5579 O   0  0  0  0  0  0  0  0  0  0  0  0
  -21.9619  -17.4179   20.3238 O   0  0  0  0  0  0  0  0  0  1  0  0
  -25.5837  -30.1310   22.4432 F   0  0  0  0  0  0  0  0  0  0  0  0
  -24.2658  -27.1886   18.9774 F   0  0  0  0  0  0  0  0  0  0  0  0
  1  2  1  0  0  0  0
  1  6  2  0  0  0  0
  2  7  2  0  0  0  0
  3 10  2  0  0  0  0
  3 18  1  0  0  0  0
  4 11  1  0  0  0  0
  4 18  2  0  0  0  0
  5  9  2  0  0  0  0
  5 19  1  0  0  0  0
  6 21  1  0  0  0  0
  7 23  1  0  0  0  0
  8 12  2  0  0  0  0
  8 22  1  0  0  0  0
  9 25  1  0  0  0  0
 10 27  1  0  0  0  0
 11 27  2  0  0  0  0
 12 28  1  0  0  0  0
 13 14  2  0  0  0  0
 13 29  1  0  0  0  0
 14 30  1  0  0  0  0
 15 24  1  0  0  0  0
 15 28  2  0  0  0  0
 16 25  2  0  0  0  0
 16 26  1  0  0  0  0
 17 30  2  0  0  0  0
 17 31  1  0  0  0  0
 18 32  1  0  0  0  0
 19 26  2  0  0  0  0
 19 34  1  0  0  0  0
 20 32  1  0  0  0  0
 20 33  2  0  0  0  0
 20 35  1  0  0  0  0
 21 23  2  0  0  0  0
 21 42  1  0  0  0  0
 22 24  2  0  0  0  0
 22 43  1  0  0  0  0
 23 51  1  0  0  0  0
 24 44  1  0  0  0  0
 25 72  1  0  0  0  0
 26 73  1  0  0  0  0
 27 84  1  0  0  0  0
 28 85  1  0  0  0  0
 29 31  2  0  0  0  0
 29 84  1  0  0  0  0
 30 86  1  0  0  0  0
 31 87  1  0  0  0  0
 32 65  2  0  0  0  0
 33 67  1  0  0  0  0
 33 70  1  0  0  0  0
 34 66  2  0  0  0  0
 35 71  1  0  0  0  0
 35 77  2  0  0  0  0
 36 52  1  0  0  0  0
 36 74  1  0  0  0  0
 36 78  2  0  0  0  0
 37 54  1  0  0  0  0
 37 61  1  0  0  0  0
 37 79  2  0  0  0  0
 38 60  1  0  0  0  0
 38 61  1  0  0  0  0
 38 80  2  0  0  0  0
 39 62  1  0  0  0  0
 39 68  1  0  0  0  0
 39 81  2  0  0  0  0
 40 63  1  0  0  0  0
 40 75  1  0  0  0  0
 40 82  2  0  0  0  0
 41 69  1  0  0  0  0
 41 72  1  0  0  0  0
 41 83  2  0  0  0  0
 42 45  1  0  0  0  0
 43 52  1  0  0  0  0
 44 68  1  0  0  0  0
 45 47  1  0  0  0  0
 46 48  1  0  0  0  0
 46 49  1  0  0  0  0
 47 51  1  0  0  0  0
 48 53  1  0  0  0  0
 49 69  1  0  0  0  0
 50 53  1  0  0  0  0
 50 69  1  0  0  0  0
 51 74  1  0  0  0  0
 52 68  1  0  0  0  0
 53 67  1  0  0  0  0
 55 63  1  0  0  0  0
 56 64  1  0  0  0  0
 57 64  1  0  0  0  0
 58 64  1  0  0  0  0
 59 76  1  0  0  0  0
 60 85  1  0  0  0  0
 61 73  1  0  0  0  0
 62 64  1  0  0  0  0
 62 75  1  0  0  0  0
 63 76  1  0  0  0  0
 65 67  1  0  0  0  0
M  CHG  1  76   1
M  ISO  4  41 100  60 101  72 100  85 101
M  END
> <Batch ID>
0171

> <Smiles>
CNC(C)C(=O)NC(C(=O)N1Cc2cc([101O:1][101CH2:1]C(=O)C(Nc3cc([100NH:0][100C:0](=O)N4CCCC(n5nc(-c6ccc(Oc7ccc(F)cc7F)cc6)c(C(N)=O)c5N)C4)ccc3C=N)C(C)=O)ccc2CC1C(=O)NC1CCCc2ccccc21)C(C)(C)C

> <Shape>
0.228

> <Color>
0.074

> <Negative vol penalty>
0.000

$$$$

  -OEChem-04052304233D

 86 94  0     1  0  0  0  0  0999 V2000
  -21.4008  -30.3238   14.5786 C   0  0  0  0  0  0  0  0  0  0  0  0
  -22.6062  -29.8682   15.1030 C   0  0  0  0  0  0  0  0  0  0  0  0
  -23.6806  -10.5739   22.5593 C   0  0  0  0  0  0  0  0  0  0  0  0
  -23.3752  -10.9939   20.1998 C   0  0  0  0  0  0  0  0  0  0  0  0
  -20.7726  -31.4342   15.1410 C   0  0  0  0  0  0  0  0  0  0  0  0
  -23.1847  -30.5236   16.1894 C   0  0  0  0  0  0  0  0  0  0  0  0
  -24.8782  -27.3112   19.7189 C   0  0  0  0  0  0  0  0  0  0  0  0
  -29.3778  -20.2189   19.0152 C   0  0  0  0  0  0  0  0  0  0  0  0
  -28.1964  -19.4824   19.1007 C   0  0  0  0  0  0  0  0  0  0  0  0
  -22.9565   -9.3875   22.4419 C   0  0  0  0  0  0  0  0  0  0  0  0
  -22.6511   -9.8075   20.0824 C   0  0  0  0  0  0  0  0  0  0  0  0
  -26.0913  -26.6714   19.4681 C   0  0  0  0  0  0  0  0  0  0  0  0
  -23.5018   -6.2338   21.3512 C   0  0  0  0  0  0  0  0  0  0  0  0
  -24.0150   -5.0967   21.9751 C   0  0  0  0  0  0  0  0  0  0  0  0
  -27.2155  -28.2552   20.8988 C   0  0  0  0  0  0  0  0  0  0  0  0
  -27.3214  -21.0714   20.6965 C   0  0  0  0  0  0  0  0  0  0  0  0
  -22.0117   -4.9278   23.3150 C   0  0  0  0  0  0  0  0  0  0  0  0
  -23.8900  -11.3771   21.4383 C   0  0  0  0  0  0  0  0  0  0  0  0
  -26.0272  -12.7695   21.4086 C   0  0  0  0  0  0  0  0  0  0  0  0
  -21.3389  -32.0977   16.2409 C   0  0  0  0  0  0  0  0  0  0  0  0
  -24.8263  -28.4363   20.5543 C   0  0  0  0  0  0  0  0  0  0  0  0
  -22.5642  -31.6447   16.7661 C   0  0  0  0  0  0  0  0  0  0  0  0
  -26.0001  -28.9059   21.1607 C   0  0  0  0  0  0  0  0  0  0  0  0
  -29.5311  -21.3816   19.7704 C   0  0  0  0  0  0  0  0  0  0  0  0
  -27.1681  -19.9086   19.9413 C   0  0  0  0  0  0  0  0  0  0  0  0
  -22.4417   -9.0043   21.2035 C   0  0  0  0  0  0  0  0  0  0  0  0
  -27.2606  -27.1451   20.0558 C   0  0  0  0  0  0  0  0  0  0  0  0
  -22.2436   -6.7180   21.7093 C   0  0  0  0  0  0  0  0  0  0  0  0
  -23.2699   -4.4436   22.9569 C   0  0  0  0  0  0  0  0  0  0  0  0
  -28.5029  -21.8079   20.6110 C   0  0  0  0  0  0  0  0  0  0  0  0
  -21.4985   -6.0650   22.6912 C   0  0  0  0  0  0  0  0  0  0  0  0
  -24.6375  -12.6030   21.5590 C   0  0  0  0  0  0  0  0  0  0  0  0
  -26.2371  -14.1105   21.6192 C   0  0  0  0  0  0  0  0  0  0  0  0
  -27.0380  -11.7990   21.1054 C   0  0  0  0  0  0  0  0  0  0  0  0
  -23.9958  -31.4802   20.1685 C   0  0  0  0  0  0  0  0  0  0  0  0
  -29.8158  -24.8307   18.7506 C   0  0  0  0  0  0  0  0  0  0  0  0
  -24.4408  -31.6031   23.3793 C   0  0  0  0  0  0  0  0  0  0  0  0
  -25.9434  -30.2909   26.1483 C   0  0  0  0  0  0  0  0  0  0  0  0
  -24.8515  -19.4429   20.8145 C   0  0  0  0  0  0  0  0  0  0  0  0
  -20.6468  -33.3223   16.7850 C   0  0  0  0  0  0  0  0  0  0  0  0
  -23.5057  -29.0989   20.8360 C   0  0  0  0  0  0  0  0  0  0  0  0
  -25.9949  -30.0978   22.0814 C   0  0  0  0  0  0  0  0  0  0  0  0
  -21.1364  -33.7333   18.1712 C   0  0  0  0  0  0  0  0  0  0  0  0
  -23.1310  -17.6919   23.3934 C   0  0  0  0  0  0  0  0  0  0  0  0
  -22.6608  -33.7208   18.2244 C   0  0  0  0  0  0  0  0  0  0  0  0
  -23.4839  -16.2255   23.1337 C   0  0  0  0  0  0  0  0  0  0  0  0
  -22.9540  -18.4717   22.0918 C   0  0  0  0  0  0  0  0  0  0  0  0
  -24.4304  -16.9068   20.8916 C   0  0  0  0  0  0  0  0  0  0  0  0
  -23.2106  -32.3139   17.9597 C   0  0  1  0  0  0  0  0  0  0  0  0
  -23.6495  -30.5470   21.2941 C   0  0  1  0  0  0  0  0  0  0  0  0
  -24.6823  -16.0959   22.1732 C   0  0  2  0  0  0  0  0  0  0  0  0
  -32.0434  -21.3598   20.0547 C   0  0  0  0  0  0  0  0  0  0  0  0
  -30.2316  -24.0128   16.3938 C   0  0  0  0  0  0  0  0  0  0  0  0
  -26.1456  -30.6289   28.6266 C   0  0  0  0  0  0  0  0  0  0  0  0
  -26.3234  -33.9564   22.9024 C   0  0  0  0  0  0  0  0  0  0  0  0
  -27.2023  -33.6339   25.2244 C   0  0  0  0  0  0  0  0  0  0  0  0
  -24.8032  -34.2189   24.8708 C   0  0  0  0  0  0  0  0  0  0  0  0
  -24.7872  -27.6279   26.7228 C   0  0  0  0  0  0  0  0  0  0  0  0
  -28.4189  -25.3903   18.9445 C   0  0  0  0  0  0  0  0  0  1  0  0
  -30.8121  -22.1777   19.6733 C   0  0  1  0  0  0  0  0  0  0  0  0
  -29.9376  -23.6242   17.8343 C   0  0  1  0  0  0  0  0  0  0  0  0
  -25.6118  -31.8959   24.2859 C   0  0  1  0  0  0  0  0  0  0  0  0
  -25.3919  -29.9189   27.5128 C   0  0  2  0  0  0  0  0  0  0  0  0
  -25.9859  -33.4050   24.3020 C   0  0  0  0  0  0  0  0  0  0  0  0
  -24.0088  -13.7466   21.8435 N   0  0  0  0  0  0  0  0  0  0  0  0
  -25.0082  -14.6447   21.8735 N   0  0  0  0  0  0  0  0  0  0  0  0
  -24.6800  -30.7154   22.3207 N   0  0  0  0  0  0  0  0  0  0  0  0
  -24.1296  -18.3056   21.2343 N   0  0  0  0  0  0  0  0  0  0  0  0
  -27.3511  -14.8729   21.6100 N   0  0  0  0  0  0  0  0  0  0  0  0
  -26.6494  -10.4654   20.9191 N   0  0  0  0  0  0  0  0  0  0  0  0
  -25.9687  -19.1594   20.0297 N   0  0  0  0  0  0  0  0  0  0  0  0
  -23.0734  -31.4874   19.1397 N   0  0  0  0  0  0  0  0  0  0  0  0
  -25.2612  -31.3532   25.5939 N   0  0  0  0  0  0  0  0  0  0  0  0
  -25.5026  -28.4492   27.7331 N   0  3  0  0  0  0  0  0  0  0  0  0
  -31.0350  -22.7425   18.3164 N   0  3  0  0  0  0  0  0  0  0  0  0
  -28.2521  -12.1024   21.0190 O   0  0  0  0  0  0  0  0  0  0  0  0
  -25.0230  -32.1455   20.2296 O   0  0  0  0  0  0  0  0  0  0  0  0
  -30.7914  -25.3202   19.3196 O   0  0  0  0  0  0  0  0  0  0  0  0
  -23.3520  -32.1365   23.6064 O   0  0  0  0  0  0  0  0  0  0  0  0
  -26.8877  -29.7008   25.6280 O   0  0  0  0  0  0  0  0  0  0  0  0
  -24.5198  -20.5827   21.1507 O   0  0  0  0  0  0  0  0  0  0  0  0
  -21.7352   -7.8466   21.0885 O   0  0  0  0  0  0  0  0  0  0  0  0
  -28.4461  -26.5229   19.8121 O   0  0  0  0  0  0  0  0  0  1  0  0
  -23.7621   -3.3508   23.5548 F   0  0  0  0  0  0  0  0  0  0  0  0
  -28.6408  -22.9238   21.3404 F   0  0  0  0  0  0  0  0  0  0  0  0
  -20.2887   -6.5247   23.0385 F   0  0  0  0  0  0  0  0  0  0  0  0
  1  2  1  0  0  0  0
  1  5  2  0  0  0  0
  2  6  2  0  0  0  0
  3 10  2  0  0  0  0
  3 18  1  0  0  0  0
  4 11  1  0  0  0  0
  4 18  2  0  0  0  0
  5 20  1  0  0  0  0
  6 22  1  0  0  0  0
  7 12  2  0  0  0  0
  7 21  1  0  0  0  0
  8  9  2  0  0  0  0
  8 24  1  0  0  0  0
  9 25  1  0  0  0  0
 10 26  1  0  0  0  0
 11 26  2  0  0  0  0
 12 27  1  0  0  0  0
 13 14  2  0  0  0  0
 13 28  1  0  0  0  0
 14 29  1  0  0  0  0
 15 23  1  0  0  0  0
 15 27  2  0  0  0  0
 16 25  2  0  0  0  0
 16 30  1  0  0  0  0
 17 29  2  0  0  0  0
 17 31  1  0  0  0  0
 18 32  1  0  0  0  0
 19 32  1  0  0  0  0
 19 33  2  0  0  0  0
 19 34  1  0  0  0  0
 20 22  2  0  0  0  0
 20 40  1  0  0  0  0
 21 23  2  0  0  0  0
 21 41  1  0  0  0  0
 22 49  1  0  0  0  0
 23 42  1  0  0  0  0
 24 30  2  0  0  0  0
 24 60  1  0  0  0  0
 25 71  1  0  0  0  0
 26 82  1  0  0  0  0
 27 83  1  0  0  0  0
 28 31  2  0  0  0  0
 28 82  1  0  0  0  0
 29 84  1  0  0  0  0
 30 85  1  0  0  0  0
 31 86  1  0  0  0  0
 32 65  2  0  0  0  0
 33 66  1  0  0  0  0
 33 69  1  0  0  0  0
 34 70  1  0  0  0  0
 34 76  2  0  0  0  0
 35 50  1  0  0  0  0
 35 72  1  0  0  0  0
 35 77  2  0  0  0  0
 36 59  1  0  0  0  0
 36 61  1  0  0  0  0
 36 78  2  0  0  0  0
 37 62  1  0  0  0  0
 37 67  1  0  0  0  0
 37 79  2  0  0  0  0
 38 63  1  0  0  0  0
 38 73  1  0  0  0  0
 38 80  2  0  0  0  0
 39 68  1  0  0  0  0
 39 71  1  0  0  0  0
 39 81  2  0  0  0  0
 40 43  1  0  0  0  0
 41 50  1  0  0  0  0
 42 67  1  0  0  0  0
 43 45  1  0  0  0  0
 44 46  1  0  0  0  0
 44 47  1  0  0  0  0
 45 49  1  0  0  0  0
 46 51  1  0  0  0  0
 47 68  1  0  0  0  0
 48 51  1  0  0  0  0
 48 68  1  0  0  0  0
 49 72  1  0  0  0  0
 50 67  1  0  0  0  0
 51 66  1  0  0  0  0
 52 60  1  0  0  0  0
 53 61  1  0  0  0  0
 54 63  1  0  0  0  0
 55 64  1  0  0  0  0
 56 64  1  0  0  0  0
 57 64  1  0  0  0  0
 58 74  1  0  0  0  0
 59 83  1  0  0  0  0
 60 75  1  0  0  0  0
 61 75  1  0  0  0  0
 62 64  1  0  0  0  0
 62 73  1  0  0  0  0
 63 74  1  0  0  0  0
 65 66  1  0  0  0  0
M  CHG  2  74   1  75   1
M  ISO  4  39 100  59 101  71 100  83 101
M  END
> <Batch ID>
0171

> <Smiles>
CNC(C)C(=O)NC(C(=O)N1Cc2cc([101O:1][101CH2:1]C(=O)C(C)NC(C)c3ccc([100NH:0][100C:0](=O)N4CCCC(n5nc(-c6ccc(Oc7ccc(F)cc7F)cc6)c(C(N)=O)c5N)C4)cc3F)ccc2CC1C(=O)NC1CCCc2ccccc21)C(C)(C)C

> <Shape>
0.306

> <Color>
0.102

> <Negative vol penalty>
0.000

$$$$

  -OEChem-04052304233D

 85 93  0     1  0  0  0  0  0999 V2000
  -32.8535  -33.0970   21.5520 C   0  0  0  0  0  0  0  0  0  0  0  0
  -32.3657  -32.0518   22.3298 C   0  0  0  0  0  0  0  0  0  0  0  0
  -23.1174   -9.7824   19.9278 C   0  0  0  0  0  0  0  0  0  0  0  0
  -23.8600   -9.8126   22.2266 C   0  0  0  0  0  0  0  0  0  0  0  0
  -32.4877  -33.1957   20.2103 C   0  0  0  0  0  0  0  0  0  0  0  0
  -31.5108  -31.1051   21.7664 C   0  0  0  0  0  0  0  0  0  0  0  0
  -31.2318  -25.1361   23.1077 C   0  0  0  0  0  0  0  0  0  0  0  0
  -31.6966  -17.4909   21.5987 C   0  0  0  0  0  0  0  0  0  0  0  0
  -22.4021   -8.6106   20.1741 C   0  0  0  0  0  0  0  0  0  0  0  0
  -23.1447   -8.6407   22.4730 C   0  0  0  0  0  0  0  0  0  0  0  0
  -30.3838  -24.3988   23.9330 C   0  0  0  0  0  0  0  0  0  0  0  0
  -19.9342   -7.7595   23.0533 C   0  0  0  0  0  0  0  0  0  0  0  0
  -19.1700   -7.7014   24.2187 C   0  0  0  0  0  0  0  0  0  0  0  0
  -32.1577  -18.7281   22.0486 C   0  0  0  0  0  0  0  0  0  0  0  0
  -29.0151  -23.8481   22.0244 C   0  0  0  0  0  0  0  0  0  0  0  0
  -29.6131  -17.8412   22.7706 C   0  0  0  0  0  0  0  0  0  0  0  0
  -20.4563   -5.7982   24.9673 C   0  0  0  0  0  0  0  0  0  0  0  0
  -23.8464  -10.3834   20.9540 C   0  0  0  0  0  0  0  0  0  0  0  0
  -24.1228  -12.9165   20.8324 C   0  0  0  0  0  0  0  0  0  0  0  0
  -31.6356  -32.2443   19.6276 C   0  0  0  0  0  0  0  0  0  0  0  0
  -30.9713  -25.2441   21.7341 C   0  0  0  0  0  0  0  0  0  0  0  0
  -31.1322  -31.1919   20.4159 C   0  0  0  0  0  0  0  0  0  0  0  0
  -29.8628  -24.5852   21.1834 C   0  0  0  0  0  0  0  0  0  0  0  0
  -30.4243  -17.0475   21.9597 C   0  0  0  0  0  0  0  0  0  0  0  0
  -30.0742  -19.0784   23.2205 C   0  0  0  0  0  0  0  0  0  0  0  0
  -22.4158   -8.0397   21.4468 C   0  0  0  0  0  0  0  0  0  0  0  0
  -29.2736  -23.7570   23.3919 C   0  0  0  0  0  0  0  0  0  0  0  0
  -20.9594   -6.8369   22.8448 C   0  0  0  0  0  0  0  0  0  0  0  0
  -19.4310   -6.7208   25.1757 C   0  0  0  0  0  0  0  0  0  0  0  0
  -21.2205   -5.8563   23.8018 C   0  0  0  0  0  0  0  0  0  0  0  0
  -31.3466  -19.5218   22.8595 C   0  0  0  0  0  0  0  0  0  0  0  0
  -24.5859  -11.5937   20.6999 C   0  0  0  0  0  0  0  0  0  0  0  0
  -25.1976  -13.6938   20.4759 C   0  0  0  0  0  0  0  0  0  0  0  0
  -22.8362  -13.3995   21.2412 C   0  0  0  0  0  0  0  0  0  0  0  0
  -27.3605  -20.6035   25.3342 C   0  0  0  0  0  0  0  0  0  0  0  0
  -27.9602  -19.5292   24.4736 C   0  0  0  0  0  0  0  0  0  0  0  0
  -30.3269  -27.6467   19.7552 C   0  0  0  0  0  0  0  0  0  0  0  0
  -30.5469  -25.3304   17.4949 C   0  0  0  0  0  0  0  0  0  0  0  0
  -30.3548  -22.0128   16.7181 C   0  0  0  0  0  0  0  0  0  0  0  0
  -30.6331  -14.8825   20.6887 C   0  0  0  0  0  0  0  0  0  0  0  0
  -31.2304  -32.4193   18.1855 C   0  0  0  0  0  0  0  0  0  0  0  0
  -31.9106  -26.0211   20.8530 C   0  0  0  0  0  0  0  0  0  0  0  0
  -29.5504  -24.6531   19.7116 C   0  0  0  0  0  0  0  0  0  0  0  0
  -30.6193  -31.1641   17.5679 C   0  0  0  0  0  0  0  0  0  0  0  0
  -29.5997  -12.4369   18.3163 C   0  0  0  0  0  0  0  0  0  0  0  0
  -29.5823  -30.5573   18.5077 C   0  0  0  0  0  0  0  0  0  0  0  0
  -28.1651  -12.1083   18.7358 C   0  0  0  0  0  0  0  0  0  0  0  0
  -30.4997  -12.6913   19.5242 C   0  0  0  0  0  0  0  0  0  0  0  0
  -28.5643  -13.3676   20.8904 C   0  0  0  0  0  0  0  0  0  0  0  0
  -30.2225  -30.1314   19.8345 C   0  0  1  0  0  0  0  0  0  0  0  0
  -31.2622  -26.4881   19.5535 C   0  0  1  0  0  0  0  0  0  0  0  0
  -27.6050  -13.1672   19.7058 C   0  0  2  0  0  0  0  0  0  0  0  0
  -30.5455  -20.4290   14.7810 C   0  0  0  0  0  0  0  0  0  0  0  0
  -27.7878  -26.1946   16.5198 C   0  0  0  0  0  0  0  0  0  0  0  0
  -27.6314  -24.0339   15.2648 C   0  0  0  0  0  0  0  0  0  0  0  0
  -29.4223  -25.6757   14.6995 C   0  0  0  0  0  0  0  0  0  0  0  0
  -32.6260  -20.5808   17.9629 C   0  0  0  0  0  0  0  0  0  0  0  0
  -26.5266  -21.6464   24.6229 C   0  0  0  0  0  0  0  0  0  0  0  0
  -27.3252  -22.4056   23.5741 C   0  0  0  0  0  0  0  0  0  1  0  0
  -29.5782  -24.3650   16.8558 C   0  0  1  0  0  0  0  0  0  0  0  0
  -31.2813  -21.1087   15.9254 C   0  0  2  0  0  0  0  0  0  0  0  0
  -28.6094  -25.0674   15.8631 C   0  0  0  0  0  0  0  0  0  0  0  0
  -25.8558  -11.5304   20.2910 N   0  0  0  0  0  0  0  0  0  0  0  0
  -26.1999  -12.8232   20.1634 N   0  0  0  0  0  0  0  0  0  0  0  0
  -30.4951  -25.4303   18.8925 N   0  0  0  0  0  0  0  0  0  0  0  0
  -29.9075  -13.7084   20.3958 N   0  0  0  0  0  0  0  0  0  0  0  0
  -25.3736  -15.0302   20.4022 N   0  0  0  0  0  0  0  0  0  0  0  0
  -21.8460  -12.4646   21.5725 N   0  0  0  0  0  0  0  0  0  0  0  0
  -29.2272  -19.8580   24.0423 N   0  0  0  0  0  0  0  0  0  0  0  0
  -29.9558  -15.7914   21.5009 N   0  0  0  0  0  0  0  0  0  0  0  0
  -30.9376  -28.8836   19.6731 N   0  0  0  0  0  0  0  0  0  0  0  0
  -30.3888  -23.3112   16.2550 N   0  0  0  0  0  0  0  0  0  0  0  0
  -31.8552  -20.0536   16.8076 N   0  3  0  0  0  0  0  0  0  0  0  0
  -22.5674  -14.6235   21.2948 O   0  0  0  0  0  0  0  0  0  0  0  0
  -27.5809  -20.5470   26.5345 O   0  0  0  0  0  0  0  0  0  0  0  0
  -27.2833  -18.5301   24.2962 O   0  0  0  0  0  0  0  0  0  0  0  0
  -29.1390  -27.4343   19.9681 O   0  0  0  0  0  0  0  0  0  0  0  0
  -31.3257  -25.9671   16.7811 O   0  0  0  0  0  0  0  0  0  0  0  0
  -29.6667  -21.6071   17.6522 O   0  0  0  0  0  0  0  0  0  0  0  0
  -31.7608  -15.0800   20.2291 O   0  0  0  0  0  0  0  0  0  0  0  0
  -21.7178   -6.8963   21.6876 O   0  0  0  0  0  0  0  0  0  0  0  0
  -28.4439  -23.0373   24.1952 O   0  0  0  0  0  0  0  0  0  1  0  0
  -18.6981   -6.6661   26.2955 F   0  0  0  0  0  0  0  0  0  0  0  0
  -22.2048   -4.9679   23.6077 F   0  0  0  0  0  0  0  0  0  0  0  0
  -31.9588  -21.0455   23.3965 Cl  0  0  0  0  0  0  0  0  0  0  0  0
  1  2  1  0  0  0  0
  1  5  2  0  0  0  0
  2  6  2  0  0  0  0
  3  9  2  0  0  0  0
  3 18  1  0  0  0  0
  4 10  1  0  0  0  0
  4 18  2  0  0  0  0
  5 20  1  0  0  0  0
  6 22  1  0  0  0  0
  7 11  2  0  0  0  0
  7 21  1  0  0  0  0
  8 14  2  0  0  0  0
  8 24  1  0  0  0  0
  9 26  1  0  0  0  0
 10 26  2  0  0  0  0
 11 27  1  0  0  0  0
 12 13  2  0  0  0  0
 12 28  1  0  0  0  0
 13 29  1  0  0  0  0
 14 31  1  0  0  0  0
 15 23  1  0  0  0  0
 15 27  2  0  0  0  0
 16 24  2  0  0  0  0
 16 25  1  0  0  0  0
 17 29  2  0  0  0  0
 17 30  1  0  0  0  0
 18 32  1  0  0  0  0
 19 32  1  0  0  0  0
 19 33  2  0  0  0  0
 19 34  1  0  0  0  0
 20 22  2  0  0  0  0
 20 41  1  0  0  0  0
 21 23  2  0  0  0  0
 21 42  1  0  0  0  0
 22 50  1  0  0  0  0
 23 43  1  0  0  0  0
 24 70  1  0  0  0  0
 25 31  2  0  0  0  0
 25 69  1  0  0  0  0
 26 81  1  0  0  0  0
 27 82  1  0  0  0  0
 28 30  2  0  0  0  0
 28 81  1  0  0  0  0
 29 83  1  0  0  0  0
 30 84  1  0  0  0  0
 31 85  1  0  0  0  0
 32 63  2  0  0  0  0
 33 64  1  0  0  0  0
 33 67  1  0  0  0  0
 34 68  1  0  0  0  0
 34 74  2  0  0  0  0
 35 36  1  0  0  0  0
 35 58  1  0  0  0  0
 35 75  2  0  0  0  0
 36 69  1  0  0  0  0
 36 76  2  0  0  0  0
 37 51  1  0  0  0  0
 37 71  1  0  0  0  0
 37 77  2  0  0  0  0
 38 60  1  0  0  0  0
 38 65  1  0  0  0  0
 38 78  2  0  0  0  0
 39 61  1  0  0  0  0
 39 72  1  0  0  0  0
 39 79  2  0  0  0  0
 40 66  1  0  0  0  0
 40 70  1  0  0  0  0
 40 80  2  0  0  0  0
 41 44  1  0  0  0  0
 42 51  1  0  0  0  0
 43 65  1  0  0  0  0
 44 46  1  0  0  0  0
 45 47  1  0  0  0  0
 45 48  1  0  0  0  0
 46 50  1  0  0  0  0
 47 52  1  0  0  0  0
 48 66  1  0  0  0  0
 49 52  1  0  0  0  0
 49 66  1  0  0  0  0
 50 71  1  0  0  0  0
 51 65  1  0  0  0  0
 52 64  1  0  0  0  0
 53 61  1  0  0  0  0
 54 62  1  0  0  0  0
 55 62  1  0  0  0  0
 56 62  1  0  0  0  0
 57 73  1  0  0  0  0
 58 59  1  0  0  0  0
 59 82  1  0  0  0  0
 60 62  1  0  0  0  0
 60 72  1  0  0  0  0
 61 73  1  0  0  0  0
 63 64  1  0  0  0  0
M  CHG  1  73   1
M  ISO  4  40 100  59 101  70 100  82 101
M  END
> <Batch ID>
0171

> <Smiles>
CNC(C)C(=O)NC(C(=O)N1Cc2cc([101O:1][101CH2:1]CC(=O)C(=O)Nc3cc([100NH:0][100C:0](=O)N4CCCC(n5nc(-c6ccc(Oc7ccc(F)cc7F)cc6)c(C(N)=O)c5N)C4)ccc3Cl)ccc2CC1C(=O)NC1CCCc2ccccc21)C(C)(C)C

> <Shape>
0.239

> <Color>
0.194

> <Negative vol penalty>
0.000

$$$$

  -OEChem-04052304233D

 87 95  0     1  0  0  0  0  0999 V2000
  -26.6187  -22.1825   10.3358 C   0  0  0  0  0  0  0  0  0  0  0  0
  -26.7536  -22.4701   11.6902 C   0  0  0  0  0  0  0  0  0  0  0  0
  -23.1110   -9.8695   19.9564 C   0  0  0  0  0  0  0  0  0  0  0  0
  -23.8593   -9.9224   22.2529 C   0  0  0  0  0  0  0  0  0  0  0  0
  -26.2106  -23.1789    9.4500 C   0  0  0  0  0  0  0  0  0  0  0  0
  -26.4815  -23.7546   12.1595 C   0  0  0  0  0  0  0  0  0  0  0  0
  -23.7065  -23.7281   16.3955 C   0  0  0  0  0  0  0  0  0  0  0  0
  -22.3807   -8.7110   20.2210 C   0  0  0  0  0  0  0  0  0  0  0  0
  -23.1290   -8.7639   22.5176 C   0  0  0  0  0  0  0  0  0  0  0  0
  -24.3683  -23.4403   17.5884 C   0  0  0  0  0  0  0  0  0  0  0  0
  -19.9083   -7.9343   23.1173 C   0  0  0  0  0  0  0  0  0  0  0  0
  -19.1461   -7.9031   24.2850 C   0  0  0  0  0  0  0  0  0  0  0  0
  -24.4561  -25.7959   18.1011 C   0  0  0  0  0  0  0  0  0  0  0  0
  -30.1389  -19.3376   22.5705 C   0  0  0  0  0  0  0  0  0  0  0  0
  -20.4085   -5.9936   25.0580 C   0  0  0  0  0  0  0  0  0  0  0  0
  -23.8504  -10.4752   20.9723 C   0  0  0  0  0  0  0  0  0  0  0  0
  -24.1605  -13.0023   20.8140 C   0  0  0  0  0  0  0  0  0  0  0  0
  -25.9241  -24.4738    9.9101 C   0  0  0  0  0  0  0  0  0  0  0  0
  -23.4238  -25.0550   16.0407 C   0  0  0  0  0  0  0  0  0  0  0  0
  -26.0705  -24.7697   11.2789 C   0  0  0  0  0  0  0  0  0  0  0  0
  -23.7883  -26.0977   16.9044 C   0  0  0  0  0  0  0  0  0  0  0  0
  -30.4878  -19.9896   21.3878 C   0  0  0  0  0  0  0  0  0  0  0  0
  -30.1856  -17.2164   21.4150 C   0  0  0  0  0  0  0  0  0  0  0  0
  -22.3896   -8.1582   21.5016 C   0  0  0  0  0  0  0  0  0  0  0  0
  -24.7457  -24.4744   18.4400 C   0  0  0  0  0  0  0  0  0  0  0  0
  -20.9205   -6.9951   22.9198 C   0  0  0  0  0  0  0  0  0  0  0  0
  -19.3962   -6.9328   25.2554 C   0  0  0  0  0  0  0  0  0  0  0  0
  -29.9879  -17.9510   22.5841 C   0  0  0  0  0  0  0  0  0  0  0  0
  -21.1706   -6.0248   23.8901 C   0  0  0  0  0  0  0  0  0  0  0  0
  -30.6855  -19.2550   20.2186 C   0  0  0  0  0  0  0  0  0  0  0  0
  -30.5344  -17.8684   20.2322 C   0  0  0  0  0  0  0  0  0  0  0  0
  -24.6054  -11.6717   20.6994 C   0  0  0  0  0  0  0  0  0  0  0  0
  -25.2448  -13.7600   20.4441 C   0  0  0  0  0  0  0  0  0  0  0  0
  -26.5928  -23.5468   19.5349 C   0  0  0  0  0  0  0  0  0  1  0  0
  -22.8815  -13.5083   21.2186 C   0  0  0  0  0  0  0  0  0  0  0  0
  -27.3729  -23.1890   20.5668 C   0  0  0  0  0  0  0  0  0  0  0  0
  -28.6583  -22.4822   20.2631 C   0  0  0  0  0  0  0  0  0  0  0  0
  -24.2620  -26.9622   13.6400 C   0  0  0  0  0  0  0  0  0  0  0  0
  -22.1356  -28.9864   15.0196 C   0  0  0  0  0  0  0  0  0  0  0  0
  -20.4609  -29.9534   17.8316 C   0  0  0  0  0  0  0  0  0  0  0  0
  -30.6963  -14.8783   20.6282 C   0  0  0  0  0  0  0  0  0  0  0  0
  -25.5318  -25.5301    8.9077 C   0  0  0  0  0  0  0  0  0  0  0  0
  -22.6855  -25.3470   14.7631 C   0  0  0  0  0  0  0  0  0  0  0  0
  -23.4900  -27.5377   16.5792 C   0  0  0  0  0  0  0  0  0  0  0  0
  -24.9017  -26.7675    9.5418 C   0  0  0  0  0  0  0  0  0  0  0  0
  -29.6245  -12.4133   18.2932 C   0  0  0  0  0  0  0  0  0  0  0  0
  -25.7204  -27.2268   10.7442 C   0  0  0  0  0  0  0  0  0  0  0  0
  -28.1866  -12.1101   18.7205 C   0  0  0  0  0  0  0  0  0  0  0  0
  -30.5307  -12.6728   19.4954 C   0  0  0  0  0  0  0  0  0  0  0  0
  -28.6078  -13.3944   20.8559 C   0  0  0  0  0  0  0  0  0  0  0  0
  -25.7607  -26.1446   11.8300 C   0  0  1  0  0  0  0  0  0  0  0  0
  -22.9058  -26.7693   14.2574 C   0  0  1  0  0  0  0  0  0  0  0  0
  -27.6431  -13.1901   19.6764 C   0  0  2  0  0  0  0  0  0  0  0  0
  -18.8208  -31.6638   18.6574 C   0  0  0  0  0  0  0  0  0  0  0  0
  -24.3474  -31.0880   15.0523 C   0  0  0  0  0  0  0  0  0  0  0  0
  -22.9873  -32.3929   16.7002 C   0  0  0  0  0  0  0  0  0  0  0  0
  -22.0914  -31.9577   14.4132 C   0  0  0  0  0  0  0  0  0  0  0  0
  -18.4832  -27.8754   18.5590 C   0  0  0  0  0  0  0  0  0  0  0  0
  -30.6494  -21.4822   21.3767 C   0  0  0  0  0  0  0  0  0  0  0  0
  -22.2132  -30.0594   16.0787 C   0  0  1  0  0  0  0  0  0  0  0  0
  -18.9962  -30.2710   18.0726 C   0  0  2  0  0  0  0  0  0  0  0  0
  -22.9173  -31.3476   15.5666 C   0  0  0  0  0  0  0  0  0  0  0  0
  -25.8735  -11.5855   20.2887 N   0  0  0  0  0  0  0  0  0  0  0  0
  -26.2346  -12.8716   20.1419 N   0  0  0  0  0  0  0  0  0  0  0  0
  -22.7719  -27.7726   15.3156 N   0  0  0  0  0  0  0  0  0  0  0  0
  -29.9542  -13.7101   20.3537 N   0  0  0  0  0  0  0  0  0  0  0  0
  -25.4385  -15.0927   20.3510 N   0  0  0  0  0  0  0  0  0  0  0  0
  -21.8796  -12.5917   21.5654 N   0  0  0  0  0  0  0  0  0  0  0  0
  -30.0331  -15.8078   21.4288 N   0  0  0  0  0  0  0  0  0  0  0  0
  -29.3752  -22.1646   21.4039 N   0  0  0  0  0  0  0  0  0  0  0  0
  -24.5176  -26.1252   12.5706 N   0  0  0  0  0  0  0  0  0  0  0  0
  -20.8476  -30.2706   16.5466 N   0  0  0  0  0  0  0  0  0  0  0  0
  -18.4014  -29.2855   19.0192 N   0  3  0  0  0  0  0  0  0  0  0  0
  -22.6293  -14.7366   21.2554 O   0  0  0  0  0  0  0  0  0  0  0  0
  -29.0100  -22.2283   19.1144 O   0  0  0  0  0  0  0  0  0  0  0  0
  -25.0199  -27.8089   14.0988 O   0  0  0  0  0  0  0  0  0  0  0  0
  -21.5265  -29.2142   13.9714 O   0  0  0  0  0  0  0  0  0  0  0  0
  -21.1902  -29.4756   18.6978 O   0  0  0  0  0  0  0  0  0  0  0  0
  -31.8254  -15.0541   20.1634 O   0  0  0  0  0  0  0  0  0  0  0  0
  -27.0701  -23.4301   21.8889 O   0  0  0  0  0  0  0  0  0  0  0  0
  -21.6769   -7.0278   21.7602 O   0  0  0  0  0  0  0  0  0  0  0  0
  -25.3924  -24.1963   19.6047 O   0  0  0  0  0  0  0  0  0  1  0  0
  -18.6652   -6.9039   26.3774 F   0  0  0  0  0  0  0  0  0  0  0  0
  -29.6513  -17.3348   23.7264 F   0  0  0  0  0  0  0  0  0  0  0  0
  -22.1425   -5.1206   23.7066 F   0  0  0  0  0  0  0  0  0  0  0  0
  -31.0203  -19.8727   19.0773 F   0  0  0  0  0  0  0  0  0  0  0  0
  -30.7270  -17.1725   19.1027 F   0  0  0  0  0  0  0  0  0  0  0  0
  1  2  1  0  0  0  0
  1  5  2  0  0  0  0
  2  6  2  0  0  0  0
  3  8  2  0  0  0  0
  3 16  1  0  0  0  0
  4  9  1  0  0  0  0
  4 16  2  0  0  0  0
  5 18  1  0  0  0  0
  6 20  1  0  0  0  0
  7 10  2  0  0  0  0
  7 19  1  0  0  0  0
  8 24  1  0  0  0  0
  9 24  2  0  0  0  0
 10 25  1  0  0  0  0
 11 12  2  0  0  0  0
 11 26  1  0  0  0  0
 12 27  1  0  0  0  0
 13 21  1  0  0  0  0
 13 25  2  0  0  0  0
 14 22  1  0  0  0  0
 14 28  2  0  0  0  0
 15 27  2  0  0  0  0
 15 29  1  0  0  0  0
 16 32  1  0  0  0  0
 17 32  1  0  0  0  0
 17 33  2  0  0  0  0
 17 35  1  0  0  0  0
 18 20  2  0  0  0  0
 18 42  1  0  0  0  0
 19 21  2  0  0  0  0
 19 43  1  0  0  0  0
 20 51  1  0  0  0  0
 21 44  1  0  0  0  0
 22 30  2  0  0  0  0
 22 59  1  0  0  0  0
 23 28  1  0  0  0  0
 23 31  2  0  0  0  0
 23 69  1  0  0  0  0
 24 81  1  0  0  0  0
 25 82  1  0  0  0  0
 26 29  2  0  0  0  0
 26 81  1  0  0  0  0
 27 83  1  0  0  0  0
 28 84  1  0  0  0  0
 29 85  1  0  0  0  0
 30 31  1  0  0  0  0
 30 86  1  0  0  0  0
 31 87  1  0  0  0  0
 32 63  2  0  0  0  0
 33 64  1  0  0  0  0
 33 67  1  0  0  0  0
 34 36  2  0  0  0  0
 34 82  1  0  0  0  0
 35 68  1  0  0  0  0
 35 74  2  0  0  0  0
 36 37  1  0  0  0  0
 36 80  1  0  0  0  0
 37 70  1  0  0  0  0
 37 75  2  0  0  0  0
 38 52  1  0  0  0  0
 38 71  1  0  0  0  0
 38 76  2  0  0  0  0
 39 60  1  0  0  0  0
 39 65  1  0  0  0  0
 39 77  2  0  0  0  0
 40 61  1  0  0  0  0
 40 72  1  0  0  0  0
 40 78  2  0  0  0  0
 41 66  1  0  0  0  0
 41 69  1  0  0  0  0
 41 79  2  0  0  0  0
 42 45  1  0  0  0  0
 43 52  1  0  0  0  0
 44 65  1  0  0  0  0
 45 47  1  0  0  0  0
 46 48  1  0  0  0  0
 46 49  1  0  0  0  0
 47 51  1  0  0  0  0
 48 53  1  0  0  0  0
 49 66  1  0  0  0  0
 50 53  1  0  0  0  0
 50 66  1  0  0  0  0
 51 71  1  0  0  0  0
 52 65  1  0  0  0  0
 53 64  1  0  0  0  0
 54 61  1  0  0  0  0
 55 62  1  0  0  0  0
 56 62  1  0  0  0  0
 57 62  1  0  0  0  0
 58 73  1  0  0  0  0
 59 70  1  0  0  0  0
 60 62  1  0  0  0  0
 60 72  1  0  0  0  0
 61 73  1  0  0  0  0
 63 64  1  0  0  0  0
M  CHG  1  73   1
M  ISO  4  34 101  41 100  69 100  82 101
M  END
> <Batch ID>
0171

> <Smiles>
CNC(C)C(=O)NC(C(=O)N1Cc2cc([101O:1][101CH2:1]C(=O)C(=O)NCc3cc(F)c([100NH:0][100C:0](=O)N4CCCC(n5nc(-c6ccc(Oc7ccc(F)cc7F)cc6)c(C(N)=O)c5N)C4)c(F)c3F)ccc2CC1C(=O)NC1CCCc2ccccc21)C(C)(C)C

> <Shape>
0.209

> <Color>
0.200

> <Negative vol penalty>
0.000

$$$$

  -OEChem-04052304233D

 85 93  0     1  0  0  0  0  0999 V2000
  -32.5822  -33.9466   16.9950 C   0  0  0  0  0  0  0  0  0  0  0  0
  -32.0756  -32.6608   17.1553 C   0  0  0  0  0  0  0  0  0  0  0  0
  -23.7005   -9.7861   21.9326 C   0  0  0  0  0  0  0  0  0  0  0  0
  -24.4273  -11.1247   23.8080 C   0  0  0  0  0  0  0  0  0  0  0  0
  -32.4388  -34.8836   18.0175 C   0  0  0  0  0  0  0  0  0  0  0  0
  -31.4262  -32.3110   18.3387 C   0  0  0  0  0  0  0  0  0  0  0  0
  -26.6821  -28.4855   18.9426 C   0  0  0  0  0  0  0  0  0  0  0  0
  -23.1927   -8.8298   22.8120 C   0  0  0  0  0  0  0  0  0  0  0  0
  -23.9195  -10.1684   24.6873 C   0  0  0  0  0  0  0  0  0  0  0  0
  -26.6004  -27.1433   19.3105 C   0  0  0  0  0  0  0  0  0  0  0  0
  -20.4443   -8.4291   24.7403 C   0  0  0  0  0  0  0  0  0  0  0  0
  -19.1749   -7.9148   24.4763 C   0  0  0  0  0  0  0  0  0  0  0  0
  -26.1254  -27.8011   21.5822 C   0  0  0  0  0  0  0  0  0  0  0  0
  -30.6740  -20.5766   20.3303 C   0  0  0  0  0  0  0  0  0  0  0  0
  -31.1935  -18.2760   19.8066 C   0  0  0  0  0  0  0  0  0  0  0  0
  -20.1111   -5.6944   24.3009 C   0  0  0  0  0  0  0  0  0  0  0  0
  -24.3178  -10.9336   22.4306 C   0  0  0  0  0  0  0  0  0  0  0  0
  -24.1639  -13.0345   20.9918 C   0  0  0  0  0  0  0  0  0  0  0  0
  -31.7788  -34.5479   19.2101 C   0  0  0  0  0  0  0  0  0  0  0  0
  -26.4964  -29.4974   19.8956 C   0  0  0  0  0  0  0  0  0  0  0  0
  -31.2750  -33.2440   19.3786 C   0  0  0  0  0  0  0  0  0  0  0  0
  -26.2026  -29.1555   21.2233 C   0  0  0  0  0  0  0  0  0  0  0  0
  -28.8939  -18.9614   20.0871 C   0  0  0  0  0  0  0  0  0  0  0  0
  -29.3141  -20.2667   20.3427 C   0  0  0  0  0  0  0  0  0  0  0  0
  -29.8336  -17.9660   19.8190 C   0  0  0  0  0  0  0  0  0  0  0  0
  -23.3022   -9.0210   24.1893 C   0  0  0  0  0  0  0  0  0  0  0  0
  -26.3249  -26.8008   20.6311 C   0  0  0  0  0  0  0  0  0  0  0  0
  -21.5471   -7.5761   24.7846 C   0  0  0  0  0  0  0  0  0  0  0  0
  -19.0083   -6.5474   24.2566 C   0  0  0  0  0  0  0  0  0  0  0  0
  -31.6137  -19.5812   20.0621 C   0  0  0  0  0  0  0  0  0  0  0  0
  -21.3805   -6.2088   24.5649 C   0  0  0  0  0  0  0  0  0  0  0  0
  -24.8431  -11.9215   21.5227 C   0  0  0  0  0  0  0  0  0  0  0  0
  -25.0925  -13.6534   20.1912 C   0  0  0  0  0  0  0  0  0  0  0  0
  -27.3475  -24.7047   20.8085 C   0  0  0  0  0  0  0  0  0  1  0  0
  -22.8144  -13.4699   21.2034 C   0  0  0  0  0  0  0  0  0  0  0  0
  -27.3807  -23.4055   21.1284 C   0  0  0  0  0  0  0  0  0  0  0  0
  -28.6405  -22.6289   20.8874 C   0  0  0  0  0  0  0  0  0  0  0  0
  -28.3032  -31.8370   21.0641 C   0  0  0  0  0  0  0  0  0  0  0  0
  -25.5579  -32.6746   22.5755 C   0  0  0  0  0  0  0  0  0  0  0  0
  -22.5114  -31.7256   23.7859 C   0  0  0  0  0  0  0  0  0  0  0  0
  -30.2504  -15.5414   19.2771 C   0  0  0  0  0  0  0  0  0  0  0  0
  -31.6898  -35.5805   20.3058 C   0  0  0  0  0  0  0  0  0  0  0  0
  -26.5613  -30.9407   19.4772 C   0  0  0  0  0  0  0  0  0  0  0  0
  -25.9750  -30.2039   22.2804 C   0  0  0  0  0  0  0  0  0  0  0  0
  -30.6590  -35.2417   21.3797 C   0  0  0  0  0  0  0  0  0  0  0  0
  -29.6435  -12.0961   18.6148 C   0  0  0  0  0  0  0  0  0  0  0  0
  -30.7981  -33.7857   21.8127 C   0  0  0  0  0  0  0  0  0  0  0  0
  -28.2846  -11.8351   19.2686 C   0  0  0  0  0  0  0  0  0  0  0  0
  -30.4877  -13.0726   19.4317 C   0  0  0  0  0  0  0  0  0  0  0  0
  -28.4661  -14.0798   20.4154 C   0  0  0  0  0  0  0  0  0  0  0  0
  -30.5426  -32.8339   20.6377 C   0  0  1  0  0  0  0  0  0  0  0  0
  -26.8637  -31.8857   20.6360 C   0  0  1  0  0  0  0  0  0  0  0  0
  -27.5543  -13.1524   19.5956 C   0  0  2  0  0  0  0  0  0  0  0  0
  -27.4340  -18.6288   20.1013 C   0  0  0  0  0  0  0  0  0  0  0  0
  -20.5091  -32.6228   25.0039 C   0  0  0  0  0  0  0  0  0  0  0  0
  -27.1300  -32.6267   25.1901 C   0  0  0  0  0  0  0  0  0  0  0  0
  -24.9494  -32.5822   26.4195 C   0  0  0  0  0  0  0  0  0  0  0  0
  -25.5242  -34.5317   24.9731 C   0  0  0  0  0  0  0  0  0  0  0  0
  -20.7092  -31.0982   21.5237 C   0  0  0  0  0  0  0  0  0  0  0  0
  -24.9158  -32.3264   23.8967 C   0  0  1  0  0  0  0  0  0  0  0  0
  -21.1335  -32.3469   23.6449 C   0  0  2  0  0  0  0  0  0  0  0  0
  -25.6360  -32.9968   25.1006 C   0  0  0  0  0  0  0  0  0  0  0  0
  -26.1056  -11.8358   21.0953 N   0  0  0  0  0  0  0  0  0  0  0  0
  -26.2271  -12.9027   20.2872 N   0  0  0  0  0  0  0  0  0  0  0  0
  -26.0552  -31.6011   21.8232 N   0  0  0  0  0  0  0  0  0  0  0  0
  -29.7327  -14.2986   19.6995 N   0  0  0  0  0  0  0  0  0  0  0  0
  -25.0410  -14.7612   19.4213 N   0  0  0  0  0  0  0  0  0  0  0  0
  -21.9957  -12.7176   22.0567 N   0  0  0  0  0  0  0  0  0  0  0  0
  -28.3781  -21.2928   20.6177 N   0  0  0  0  0  0  0  0  0  0  0  0
  -29.4296  -16.6333   19.5577 N   0  0  0  0  0  0  0  0  0  0  0  0
  -29.1230  -32.7159   20.3824 N   0  0  0  0  0  0  0  0  0  0  0  0
  -23.5060  -32.6804   23.7712 N   0  0  0  0  0  0  0  0  0  0  0  0
  -20.2291  -31.4352   22.8886 N   0  3  0  0  0  0  0  0  0  0  0  0
  -22.3433  -14.4864   20.6393 O   0  0  0  0  0  0  0  0  0  0  0  0
  -29.7371  -23.1755   20.9387 O   0  0  0  0  0  0  0  0  0  0  0  0
  -28.6444  -31.0606   21.9487 O   0  0  0  0  0  0  0  0  0  0  0  0
  -25.6097  -33.8549   22.2207 O   0  0  0  0  0  0  0  0  0  0  0  0
  -22.6874  -30.5148   23.9015 O   0  0  0  0  0  0  0  0  0  0  0  0
  -31.3287  -15.6274   18.6840 O   0  0  0  0  0  0  0  0  0  0  0  0
  -26.2975  -22.7478   21.6752 O   0  0  0  0  0  0  0  0  0  0  0  0
  -22.8066   -8.0882   25.0477 O   0  0  0  0  0  0  0  0  0  0  0  0
  -26.2453  -25.4914   20.9930 O   0  0  0  0  0  0  0  0  0  1  0  0
  -17.7890   -6.0535   24.0045 F   0  0  0  0  0  0  0  0  0  0  0  0
  -32.9197  -19.8794   20.0500 F   0  0  0  0  0  0  0  0  0  0  0  0
  -22.4360   -5.3842   24.6074 F   0  0  0  0  0  0  0  0  0  0  0  0
  1  2  1  0  0  0  0
  1  5  2  0  0  0  0
  2  6  2  0  0  0  0
  3  8  2  0  0  0  0
  3 17  1  0  0  0  0
  4  9  1  0  0  0  0
  4 17  2  0  0  0  0
  5 19  1  0  0  0  0
  6 21  1  0  0  0  0
  7 10  2  0  0  0  0
  7 20  1  0  0  0  0
  8 26  1  0  0  0  0
  9 26  2  0  0  0  0
 10 27  1  0  0  0  0
 11 12  2  0  0  0  0
 11 28  1  0  0  0  0
 12 29  1  0  0  0  0
 13 22  1  0  0  0  0
 13 27  2  0  0  0  0
 14 24  1  0  0  0  0
 14 30  2  0  0  0  0
 15 25  2  0  0  0  0
 15 30  1  0  0  0  0
 16 29  2  0  0  0  0
 16 31  1  0  0  0  0
 17 32  1  0  0  0  0
 18 32  1  0  0  0  0
 18 33  2  0  0  0  0
 18 35  1  0  0  0  0
 19 21  2  0  0  0  0
 19 42  1  0  0  0  0
 20 22  2  0  0  0  0
 20 43  1  0  0  0  0
 21 51  1  0  0  0  0
 22 44  1  0  0  0  0
 23 24  2  0  0  0  0
 23 25  1  0  0  0  0
 23 54  1  0  0  0  0
 24 69  1  0  0  0  0
 25 70  1  0  0  0  0
 26 81  1  0  0  0  0
 27 82  1  0  0  0  0
 28 31  2  0  0  0  0
 28 81  1  0  0  0  0
 29 83  1  0  0  0  0
 30 84  1  0  0  0  0
 31 85  1  0  0  0  0
 32 63  2  0  0  0  0
 33 64  1  0  0  0  0
 33 67  1  0  0  0  0
 34 36  2  0  0  0  0
 34 82  1  0  0  0  0
 35 68  1  0  0  0  0
 35 74  2  0  0  0  0
 36 37  1  0  0  0  0
 36 80  1  0  0  0  0
 37 69  1  0  0  0  0
 37 75  2  0  0  0  0
 38 52  1  0  0  0  0
 38 71  1  0  0  0  0
 38 76  2  0  0  0  0
 39 60  1  0  0  0  0
 39 65  1  0  0  0  0
 39 77  2  0  0  0  0
 40 61  1  0  0  0  0
 40 72  1  0  0  0  0
 40 78  2  0  0  0  0
 41 66  1  0  0  0  0
 41 70  1  0  0  0  0
 41 79  2  0  0  0  0
 42 45  1  0  0  0  0
 43 52  1  0  0  0  0
 44 65  1  0  0  0  0
 45 47  1  0  0  0  0
 46 48  1  0  0  0  0
 46 49  1  0  0  0  0
 47 51  1  0  0  0  0
 48 53  1  0  0  0  0
 49 66  1  0  0  0  0
 50 53  1  0  0  0  0
 50 66  1  0  0  0  0
 51 71  1  0  0  0  0
 52 65  1  0  0  0  0
 53 64  1  0  0  0  0
 55 61  1  0  0  0  0
 56 62  1  0  0  0  0
 57 62  1  0  0  0  0
 58 62  1  0  0  0  0
 59 73  1  0  0  0  0
 60 62  1  0  0  0  0
 60 72  1  0  0  0  0
 61 73  1  0  0  0  0
 63 64  1  0  0  0  0
M  CHG  1  73   1
M  ISO  4  34 101  41 100  70 100  82 101
M  END
> <Batch ID>
0171

> <Smiles>
CNC(C)C(=O)NC(C(=O)N1Cc2cc([101O:1][101CH2:1]C(=O)C(=O)Nc3cc(F)cc([100NH:0][100C:0](=O)N4CCCC(n5nc(-c6ccc(Oc7ccc(F)cc7F)cc6)c(C(N)=O)c5N)C4)c3C)ccc2CC1C(=O)NC1CCCc2ccccc21)C(C)(C)C

> <Shape>
0.274

> <Color>
0.124

> <Negative vol penalty>
0.000

$$$$

  -OEChem-04052304233D

 85 93  0     1  0  0  0  0  0999 V2000
  -30.2020  -31.3296   25.9378 C   0  0  0  0  0  0  0  0  0  0  0  0
  -29.9796  -30.6688   24.7340 C   0  0  0  0  0  0  0  0  0  0  0  0
  -26.2839  -12.9241   21.3286 C   0  0  0  0  0  0  0  0  0  0  0  0
  -26.2531  -13.2159   18.9305 C   0  0  0  0  0  0  0  0  0  0  0  0
  -29.2113  -31.3411   26.9188 C   0  0  0  0  0  0  0  0  0  0  0  0
  -28.7667  -30.0180   24.5109 C   0  0  0  0  0  0  0  0  0  0  0  0
  -26.8843  -30.9436   19.9017 C   0  0  0  0  0  0  0  0  0  0  0  0
  -25.0556  -12.2663   21.2644 C   0  0  0  0  0  0  0  0  0  0  0  0
  -25.0248  -12.5580   18.8662 C   0  0  0  0  0  0  0  0  0  0  0  0
  -27.4464  -30.2471   18.8327 C   0  0  0  0  0  0  0  0  0  0  0  0
  -23.9185   -9.1871   20.4529 C   0  0  0  0  0  0  0  0  0  0  0  0
  -23.7732   -8.0119   21.1901 C   0  0  0  0  0  0  0  0  0  0  0  0
  -25.5945  -28.7017   18.8739 C   0  0  0  0  0  0  0  0  0  0  0  0
  -29.0134  -22.0097   16.7337 C   0  0  0  0  0  0  0  0  0  0  0  0
  -21.9561   -9.0131   22.4281 C   0  0  0  0  0  0  0  0  0  0  0  0
  -28.7370  -20.7056   14.2831 C   0  0  0  0  0  0  0  0  0  0  0  0
  -26.8826  -13.3990   20.1617 C   0  0  0  0  0  0  0  0  0  0  0  0
  -29.4315  -13.5005   20.1404 C   0  0  0  0  0  0  0  0  0  0  0  0
  -27.9820  -30.6983   26.7038 C   0  0  0  0  0  0  0  0  0  0  0  0
  -25.6766  -30.5173   20.4728 C   0  0  0  0  0  0  0  0  0  0  0  0
  -27.7592  -30.0197   25.4905 C   0  0  0  0  0  0  0  0  0  0  0  0
  -25.0180  -29.3960   19.9483 C   0  0  0  0  0  0  0  0  0  0  0  0
  -28.6543  -22.7321   15.5959 C   0  0  0  0  0  0  0  0  0  0  0  0
  -29.2345  -20.6352   16.6463 C   0  0  0  0  0  0  0  0  0  0  0  0
  -24.4261  -12.0832   20.0332 C   0  0  0  0  0  0  0  0  0  0  0  0
  -26.8030  -29.1243   18.3205 C   0  0  0  0  0  0  0  0  0  0  0  0
  -23.0826  -10.2754   20.7034 C   0  0  0  0  0  0  0  0  0  0  0  0
  -22.7920   -7.9249   22.1777 C   0  0  0  0  0  0  0  0  0  0  0  0
  -28.5160  -22.0801   14.3706 C   0  0  0  0  0  0  0  0  0  0  0  0
  -29.0962  -19.9832   15.4210 C   0  0  0  0  0  0  0  0  0  0  0  0
  -22.1014  -10.1884   21.6909 C   0  0  0  0  0  0  0  0  0  0  0  0
  -28.1511  -14.0792   20.2274 C   0  0  0  0  0  0  0  0  0  0  0  0
  -30.2963  -14.5611   20.2574 C   0  0  0  0  0  0  0  0  0  0  0  0
  -27.6695  -27.1269   17.4659 C   0  0  0  0  0  0  0  0  0  1  0  0
  -29.8056  -12.1271   19.9689 C   0  0  0  0  0  0  0  0  0  0  0  0
  -28.2112  -26.3618   16.5105 C   0  0  0  0  0  0  0  0  0  0  0  0
  -28.5247  -24.9279   16.8174 C   0  0  0  0  0  0  0  0  0  0  0  0
  -24.7940  -29.4932   23.3496 C   0  0  0  0  0  0  0  0  0  0  0  0
  -21.8255  -29.5933   22.0455 C   0  0  0  0  0  0  0  0  0  0  0  0
  -19.8924  -29.5231   19.2339 C   0  0  0  0  0  0  0  0  0  0  0  0
  -29.7772  -20.3992   19.0950 C   0  0  0  0  0  0  0  0  0  0  0  0
  -26.9595  -30.6977   27.8125 C   0  0  0  0  0  0  0  0  0  0  0  0
  -25.0699  -31.2952   21.6082 C   0  0  0  0  0  0  0  0  0  0  0  0
  -23.7091  -28.9092   20.5126 C   0  0  0  0  0  0  0  0  0  0  0  0
  -25.5596  -30.3022   27.3497 C   0  0  0  0  0  0  0  0  0  0  0  0
  -30.6356  -18.9177   22.2167 C   0  0  0  0  0  0  0  0  0  0  0  0
  -25.6205  -29.0604   26.4660 C   0  0  0  0  0  0  0  0  0  0  0  0
  -30.2180  -17.4548   22.0508 C   0  0  0  0  0  0  0  0  0  0  0  0
  -29.6632  -19.8676   21.5197 C   0  0  0  0  0  0  0  0  0  0  0  0
  -28.9877  -18.1019   19.9402 C   0  0  0  0  0  0  0  0  0  0  0  0
  -26.4471  -29.3233   25.2014 C   0  0  1  0  0  0  0  0  0  0  0  0
  -24.0973  -30.4702   22.4453 C   0  0  1  0  0  0  0  0  0  0  0  0
  -29.9723  -17.1033   20.5703 C   0  0  2  0  0  0  0  0  0  0  0  0
  -17.4971  -29.5856   18.4882 C   0  0  0  0  0  0  0  0  0  0  0  0
  -21.4811  -26.6894   22.9166 C   0  0  0  0  0  0  0  0  0  0  0  0
  -19.5322  -26.5247   21.3537 C   0  0  0  0  0  0  0  0  0  0  0  0
  -19.4654  -28.1286   23.2630 C   0  0  0  0  0  0  0  0  0  0  0  0
  -20.3172  -32.0114   17.6890 C   0  0  0  0  0  0  0  0  0  0  0  0
  -20.9593  -28.6198   21.2834 C   0  0  1  0  0  0  0  0  0  0  0  0
  -18.7444  -30.4058   18.7786 C   0  0  2  0  0  0  0  0  0  0  0  0
  -20.3851  -27.4984   22.1946 C   0  0  0  0  0  0  0  0  0  0  0  0
  -28.1941  -15.4045   20.3877 N   0  0  0  0  0  0  0  0  0  0  0  0
  -29.5120  -15.6674   20.4023 N   0  0  0  0  0  0  0  0  0  0  0  0
  -23.1592  -29.6998   21.6262 N   0  0  0  0  0  0  0  0  0  0  0  0
  -29.4827  -19.4757   20.1202 N   0  0  0  0  0  0  0  0  0  0  0  0
  -31.6436  -14.6459   20.2497 N   0  0  0  0  0  0  0  0  0  0  0  0
  -28.7908  -11.1660   19.8657 N   0  0  0  0  0  0  0  0  0  0  0  0
  -28.4302  -24.1270   15.6875 N   0  0  0  0  0  0  0  0  0  0  0  0
  -29.5988  -19.9036   17.8038 N   0  0  0  0  0  0  0  0  0  0  0  0
  -25.6734  -30.0792   24.2399 N   0  0  0  0  0  0  0  0  0  0  0  0
  -19.9432  -29.4197   20.6080 N   0  0  0  0  0  0  0  0  0  0  0  0
  -19.1193  -31.1454   17.5403 N   0  3  0  0  0  0  0  0  0  0  0  0
  -31.0046  -11.7609   19.9253 O   0  0  0  0  0  0  0  0  0  0  0  0
  -28.8214  -24.5773   17.9544 O   0  0  0  0  0  0  0  0  0  0  0  0
  -24.5505  -28.2965   23.2482 O   0  0  0  0  0  0  0  0  0  0  0  0
  -21.3350  -30.2408   22.9738 O   0  0  0  0  0  0  0  0  0  0  0  0
  -20.6644  -28.9768   18.4491 O   0  0  0  0  0  0  0  0  0  0  0  0
  -30.1856  -21.5365   19.3436 O   0  0  0  0  0  0  0  0  0  0  0  0
  -28.4934  -26.8405   15.2473 O   0  0  0  0  0  0  0  0  0  0  0  0
  -23.2276  -11.4411   19.9701 O   0  0  0  0  0  0  0  0  0  0  0  0
  -27.3497  -28.4422   17.2776 O   0  0  0  0  0  0  0  0  0  1  0  0
  -22.6516   -6.7958   22.8845 F   0  0  0  0  0  0  0  0  0  0  0  0
  -28.1712  -22.7640   13.2703 F   0  0  0  0  0  0  0  0  0  0  0  0
  -29.3061  -18.6625   15.3247 F   0  0  0  0  0  0  0  0  0  0  0  0
  -21.2946  -11.2301   21.9353 F   0  0  0  0  0  0  0  0  0  0  0  0
  1  2  1  0  0  0  0
  1  5  2  0  0  0  0
  2  6  2  0  0  0  0
  3  8  2  0  0  0  0
  3 17  1  0  0  0  0
  4  9  1  0  0  0  0
  4 17  2  0  0  0  0
  5 19  1  0  0  0  0
  6 21  1  0  0  0  0
  7 10  2  0  0  0  0
  7 20  1  0  0  0  0
  8 25  1  0  0  0  0
  9 25  2  0  0  0  0
 10 26  1  0  0  0  0
 11 12  2  0  0  0  0
 11 27  1  0  0  0  0
 12 28  1  0  0  0  0
 13 22  1  0  0  0  0
 13 26  2  0  0  0  0
 14 23  1  0  0  0  0
 14 24  2  0  0  0  0
 15 28  2  0  0  0  0
 15 31  1  0  0  0  0
 16 29  1  0  0  0  0
 16 30  2  0  0  0  0
 17 32  1  0  0  0  0
 18 32  1  0  0  0  0
 18 33  2  0  0  0  0
 18 35  1  0  0  0  0
 19 21  2  0  0  0  0
 19 42  1  0  0  0  0
 20 22  2  0  0  0  0
 20 43  1  0  0  0  0
 21 51  1  0  0  0  0
 22 44  1  0  0  0  0
 23 29  2  0  0  0  0
 23 68  1  0  0  0  0
 24 30  1  0  0  0  0
 24 69  1  0  0  0  0
 25 80  1  0  0  0  0
 26 81  1  0  0  0  0
 27 31  2  0  0  0  0
 27 80  1  0  0  0  0
 28 82  1  0  0  0  0
 29 83  1  0  0  0  0
 30 84  1  0  0  0  0
 31 85  1  0  0  0  0
 32 62  2  0  0  0  0
 33 63  1  0  0  0  0
 33 66  1  0  0  0  0
 34 36  2  0  0  0  0
 34 81  1  0  0  0  0
 35 67  1  0  0  0  0
 35 73  2  0  0  0  0
 36 37  1  0  0  0  0
 36 79  1  0  0  0  0
 37 68  1  0  0  0  0
 37 74  2  0  0  0  0
 38 52  1  0  0  0  0
 38 70  1  0  0  0  0
 38 75  2  0  0  0  0
 39 59  1  0  0  0  0
 39 64  1  0  0  0  0
 39 76  2  0  0  0  0
 40 60  1  0  0  0  0
 40 71  1  0  0  0  0
 40 77  2  0  0  0  0
 41 65  1  0  0  0  0
 41 69  1  0  0  0  0
 41 78  2  0  0  0  0
 42 45  1  0  0  0  0
 43 52  1  0  0  0  0
 44 64  1  0  0  0  0
 45 47  1  0  0  0  0
 46 48  1  0  0  0  0
 46 49  1  0  0  0  0
 47 51  1  0  0  0  0
 48 53  1  0  0  0  0
 49 65  1  0  0  0  0
 50 53  1  0  0  0  0
 50 65  1  0  0  0  0
 51 70  1  0  0  0  0
 52 64  1  0  0  0  0
 53 63  1  0  0  0  0
 54 60  1  0  0  0  0
 55 61  1  0  0  0  0
 56 61  1  0  0  0  0
 57 61  1  0  0  0  0
 58 72  1  0  0  0  0
 59 61  1  0  0  0  0
 59 71  1  0  0  0  0
 60 72  1  0  0  0  0
 62 63  1  0  0  0  0
M  CHG  1  72   1
M  ISO  4  34 101  41 100  69 100  81 101
M  END
> <Batch ID>
0171

> <Smiles>
CNC(C)C(=O)NC(C(=O)N1Cc2cc([101O:1][101CH2:1]C(=O)C(=O)Nc3cc([100NH:0][100C:0](=O)N4CCCC(n5nc(-c6ccc(Oc7ccc(F)cc7F)cc6)c(C(N)=O)c5N)C4)c(F)cc3F)ccc2CC1C(=O)NC1CCCc2ccccc21)C(C)(C)C

> <Shape>
0.285

> <Color>
0.071

> <Negative vol penalty>
0.000

$$$$

  -OEChem-04052304233D

 88 96  0     1  0  0  0  0  0999 V2000
  -32.7945  -18.4590   18.2607 C   0  0  0  0  0  0  0  0  0  0  0  0
  -31.5578  -18.6902   18.8523 C   0  0  0  0  0  0  0  0  0  0  0  0
  -23.0724   -9.8700   19.9621 C   0  0  0  0  0  0  0  0  0  0  0  0
  -23.8259   -9.9039   22.2573 C   0  0  0  0  0  0  0  0  0  0  0  0
  -33.5935  -19.5355   17.8813 C   0  0  0  0  0  0  0  0  0  0  0  0
  -31.1146  -19.9978   19.0540 C   0  0  0  0  0  0  0  0  0  0  0  0
  -26.5046  -20.5702   20.6739 C   0  0  0  0  0  0  0  0  0  0  0  0
  -22.3235   -8.7230   20.2249 C   0  0  0  0  0  0  0  0  0  0  0  0
  -23.0769   -8.7569   22.5201 C   0  0  0  0  0  0  0  0  0  0  0  0
  -26.1199  -20.2604   21.9777 C   0  0  0  0  0  0  0  0  0  0  0  0
  -19.3682   -7.9564   21.6780 C   0  0  0  0  0  0  0  0  0  0  0  0
  -18.0625   -7.9088   21.1896 C   0  0  0  0  0  0  0  0  0  0  0  0
  -31.8750  -18.3809   24.1355 C   0  0  0  0  0  0  0  0  0  0  0  0
  -26.1070  -22.6096   22.5256 C   0  0  0  0  0  0  0  0  0  0  0  0
  -32.0781  -16.6084   22.5063 C   0  0  0  0  0  0  0  0  0  0  0  0
  -18.6185   -5.9466   19.8943 C   0  0  0  0  0  0  0  0  0  0  0  0
  -23.8237  -10.4604   20.9783 C   0  0  0  0  0  0  0  0  0  0  0  0
  -30.4894  -18.3686   23.9761 C   0  0  0  0  0  0  0  0  0  0  0  0
  -24.1755  -12.9825   20.8265 C   0  0  0  0  0  0  0  0  0  0  0  0
  -33.1645  -20.8566   18.0902 C   0  0  0  0  0  0  0  0  0  0  0  0
  -26.7043  -21.9036   20.2885 C   0  0  0  0  0  0  0  0  0  0  0  0
  -31.8961  -21.0976   18.6562 C   0  0  0  0  0  0  0  0  0  0  0  0
  -26.4917  -22.9338   21.2157 C   0  0  0  0  0  0  0  0  0  0  0  0
  -30.6924  -16.5962   22.3470 C   0  0  0  0  0  0  0  0  0  0  0  0
  -22.3257   -8.1665   21.5039 C   0  0  0  0  0  0  0  0  0  0  0  0
  -25.9239  -21.2800   22.9046 C   0  0  0  0  0  0  0  0  0  0  0  0
  -20.2991   -6.9992   21.2744 C   0  0  0  0  0  0  0  0  0  0  0  0
  -17.6876   -6.9039   20.2978 C   0  0  0  0  0  0  0  0  0  0  0  0
  -32.6694  -17.5008   23.4005 C   0  0  0  0  0  0  0  0  0  0  0  0
  -19.9242   -5.9943   20.3826 C   0  0  0  0  0  0  0  0  0  0  0  0
  -29.8981  -17.4763   23.0819 C   0  0  0  0  0  0  0  0  0  0  0  0
  -24.5980  -11.6449   20.7073 C   0  0  0  0  0  0  0  0  0  0  0  0
  -25.2715  -13.7231   20.4566 C   0  0  0  0  0  0  0  0  0  0  0  0
  -29.6522  -19.3031   24.7572 C   0  0  0  0  0  0  0  0  0  0  0  0
  -22.9058  -13.5085   21.2350 C   0  0  0  0  0  0  0  0  0  0  0  0
  -29.1848  -23.5845   19.2277 C   0  0  0  0  0  0  0  0  0  0  0  0
  -26.9534  -25.9097   18.8578 C   0  0  0  0  0  0  0  0  0  0  0  0
  -28.5472  -21.5649   24.7919 C   0  0  0  0  0  0  0  0  0  0  0  0
  -23.9314  -27.1984   19.7817 C   0  0  0  0  0  0  0  0  0  0  0  0
  -30.7411  -14.7502   20.6333 C   0  0  0  0  0  0  0  0  0  0  0  0
  -34.0661  -21.9843   17.6534 C   0  0  0  0  0  0  0  0  0  0  0  0
  -27.0933  -22.2228   18.8710 C   0  0  0  0  0  0  0  0  0  0  0  0
  -26.6731  -24.3827   20.8466 C   0  0  0  0  0  0  0  0  0  0  0  0
  -33.7117  -23.3160   18.3070 C   0  0  0  0  0  0  0  0  0  0  0  0
  -29.6242  -12.3101   18.2934 C   0  0  0  0  0  0  0  0  0  0  0  0
  -32.2196  -23.5803   18.1724 C   0  0  0  0  0  0  0  0  0  0  0  0
  -28.1822  -12.0295   18.7226 C   0  0  0  0  0  0  0  0  0  0  0  0
  -30.5367  -12.5510   19.4946 C   0  0  0  0  0  0  0  0  0  0  0  0
  -28.6287  -13.3005   20.8609 C   0  0  0  0  0  0  0  0  0  0  0  0
  -31.4065  -22.5113   18.9134 C   0  0  1  0  0  0  0  0  0  0  0  0
  -27.7676  -23.5838   18.7285 C   0  0  1  0  0  0  0  0  0  0  0  0
  -27.6585  -13.1157   19.6827 C   0  0  2  0  0  0  0  0  0  0  0  0
  -22.3924  -29.1288   19.3318 C   0  0  0  0  0  0  0  0  0  0  0  0
  -25.6008  -19.3237   25.9088 C   0  0  0  0  0  0  0  0  0  0  0  0
  -28.7583  -27.7310   20.5117 C   0  0  0  0  0  0  0  0  0  0  0  0
  -26.8041  -29.2636   20.8286 C   0  0  0  0  0  0  0  0  0  0  0  0
  -27.6912  -28.8339   18.5371 C   0  0  0  0  0  0  0  0  0  0  0  0
  -29.9674  -20.9484   22.9109 C   0  0  0  0  0  0  0  0  0  0  0  0
  -21.7718  -25.4074   18.8394 C   0  0  0  0  0  0  0  0  0  0  0  0
  -27.4194  -21.0521   25.6839 C   0  0  0  0  0  0  0  0  0  0  0  0
  -26.4047  -27.0133   19.7296 C   0  0  1  0  0  0  0  0  0  0  0  0
  -22.7567  -27.6996   18.9611 C   0  0  2  0  0  0  0  0  0  0  0  0
  -26.4301  -20.1532   24.9368 C   0  0  2  0  0  0  0  0  0  1  0  0
  -27.4129  -28.1831   19.9096 C   0  0  0  0  0  0  0  0  0  0  0  0
  -25.8637  -11.5389   20.2939 N   0  0  0  0  0  0  0  0  0  0  0  0
  -26.2458  -12.8193   20.1500 N   0  0  0  0  0  0  0  0  0  0  0  0
  -27.0601  -24.6434   19.4502 N   0  0  0  0  0  0  0  0  0  0  0  0
  -29.9792  -13.5953   20.3569 N   0  0  0  0  0  0  0  0  0  0  0  0
  -25.4872  -15.0527   20.3669 N   0  0  0  0  0  0  0  0  0  0  0  0
  -21.8895  -12.6076   21.5812 N   0  0  0  0  0  0  0  0  0  0  0  0
  -30.0950  -15.6883   21.4378 N   0  0  0  0  0  0  0  0  0  0  0  0
  -30.0063  -22.6747   18.5900 N   0  0  0  0  0  0  0  0  0  0  0  0
  -25.1317  -27.4076   19.1361 N   0  0  0  0  0  0  0  0  0  0  0  0
  -29.3722  -20.5736   24.1976 N   0  0  0  0  0  0  0  0  0  0  0  0
  -21.5624  -26.8369   19.1855 N   0  3  0  0  0  0  0  0  0  0  0  0
  -29.2243  -18.8797   25.8298 O   0  0  0  0  0  0  0  0  0  0  0  0
  -22.6741  -14.7406   21.2757 O   0  0  0  0  0  0  0  0  0  0  0  0
  -29.5093  -24.3547   20.1239 O   0  0  0  0  0  0  0  0  0  0  0  0
  -27.2688  -26.1603   17.6919 O   0  0  0  0  0  0  0  0  0  0  0  0
  -28.7139  -22.7757   24.6222 O   0  0  0  0  0  0  0  0  0  0  0  0
  -23.7978  -26.6770   20.8866 O   0  0  0  0  0  0  0  0  0  0  0  0
  -31.8721  -14.9086   20.1668 O   0  0  0  0  0  0  0  0  0  0  0  0
  -21.5948   -7.0474   21.7607 O   0  0  0  0  0  0  0  0  0  0  0  0
  -25.5490  -20.9803   24.1780 O   0  0  0  0  0  0  0  0  0  1  0  0
  -16.4333   -6.8574   19.8302 F   0  0  0  0  0  0  0  0  0  0  0  0
  -34.0001  -17.5125   23.5536 F   0  0  0  0  0  0  0  0  0  0  0  0
  -20.8138   -5.0712   19.9923 F   0  0  0  0  0  0  0  0  0  0  0  0
  -28.5650  -17.4644   22.9290 F   0  0  0  0  0  0  0  0  0  0  0  0
  1  2  1  0  0  0  0
  1  5  2  0  0  0  0
  2  6  2  0  0  0  0
  3  8  2  0  0  0  0
  3 17  1  0  0  0  0
  4  9  1  0  0  0  0
  4 17  2  0  0  0  0
  5 20  1  0  0  0  0
  6 22  1  0  0  0  0
  7 10  2  0  0  0  0
  7 21  1  0  0  0  0
  8 25  1  0  0  0  0
  9 25  2  0  0  0  0
 10 26  1  0  0  0  0
 11 12  2  0  0  0  0
 11 27  1  0  0  0  0
 12 28  1  0  0  0  0
 13 18  1  0  0  0  0
 13 29  2  0  0  0  0
 14 23  1  0  0  0  0
 14 26  2  0  0  0  0
 15 24  2  0  0  0  0
 15 29  1  0  0  0  0
 16 28  2  0  0  0  0
 16 30  1  0  0  0  0
 17 32  1  0  0  0  0
 18 31  2  0  0  0  0
 18 34  1  0  0  0  0
 19 32  1  0  0  0  0
 19 33  2  0  0  0  0
 19 35  1  0  0  0  0
 20 22  2  0  0  0  0
 20 41  1  0  0  0  0
 21 23  2  0  0  0  0
 21 42  1  0  0  0  0
 22 50  1  0  0  0  0
 23 43  1  0  0  0  0
 24 31  1  0  0  0  0
 24 71  1  0  0  0  0
 25 83  1  0  0  0  0
 26 84  1  0  0  0  0
 27 30  2  0  0  0  0
 27 83  1  0  0  0  0
 28 85  1  0  0  0  0
 29 86  1  0  0  0  0
 30 87  1  0  0  0  0
 31 88  1  0  0  0  0
 32 65  2  0  0  0  0
 33 66  1  0  0  0  0
 33 69  1  0  0  0  0
 34 74  1  0  0  0  0
 34 76  2  0  0  0  0
 35 70  1  0  0  0  0
 35 77  2  0  0  0  0
 36 51  1  0  0  0  0
 36 72  1  0  0  0  0
 36 78  2  0  0  0  0
 37 61  1  0  0  0  0
 37 67  1  0  0  0  0
 37 79  2  0  0  0  0
 38 60  1  0  0  0  0
 38 74  1  0  0  0  0
 38 80  2  0  0  0  0
 39 62  1  0  0  0  0
 39 73  1  0  0  0  0
 39 81  2  0  0  0  0
 40 68  1  0  0  0  0
 40 71  1  0  0  0  0
 40 82  2  0  0  0  0
 41 44  1  0  0  0  0
 42 51  1  0  0  0  0
 43 67  1  0  0  0  0
 44 46  1  0  0  0  0
 45 47  1  0  0  0  0
 45 48  1  0  0  0  0
 46 50  1  0  0  0  0
 47 52  1  0  0  0  0
 48 68  1  0  0  0  0
 49 52  1  0  0  0  0
 49 68  1  0  0  0  0
 50 72  1  0  0  0  0
 51 67  1  0  0  0  0
 52 66  1  0  0  0  0
 53 62  1  0  0  0  0
 54 63  1  0  0  0  0
 55 64  1  0  0  0  0
 56 64  1  0  0  0  0
 57 64  1  0  0  0  0
 58 74  1  0  0  0  0
 59 75  1  0  0  0  0
 60 63  1  0  0  0  0
 61 64  1  0  0  0  0
 61 73  1  0  0  0  0
 62 75  1  0  0  0  0
 63 84  1  0  0  0  0
 65 66  1  0  0  0  0
M  CHG  1  75   1
M  ISO  4  40 100  63 101  71 100  84 101
M  END
> <Batch ID>
0171

> <Smiles>
CNC(C)C(=O)NC(C(=O)N1Cc2cc([101O:1][101CH:1](C)CC(=O)N(C)C(=O)c3cc(F)cc([100NH:0][100C:0](=O)N4CCCC(n5nc(-c6ccc(Oc7ccc(F)cc7F)cc6)c(C(N)=O)c5N)C4)c3F)ccc2CC1C(=O)NC1CCCc2ccccc21)C(C)(C)C

> <Shape>
0.236

> <Color>
0.193

> <Negative vol penalty>
0.000

$$$$

  -OEChem-04052304233D

 87 95  0     1  0  0  0  0  0999 V2000
  -18.4613  -18.2844   28.4362 C   0  0  0  0  0  0  0  0  0  0  0  0
  -19.4013  -18.6317   27.4712 C   0  0  0  0  0  0  0  0  0  0  0  0
  -23.0716   -9.8700   19.9440 C   0  0  0  0  0  0  0  0  0  0  0  0
  -23.8341   -9.8782   22.2365 C   0  0  0  0  0  0  0  0  0  0  0  0
  -17.6225  -17.1902   28.2287 C   0  0  0  0  0  0  0  0  0  0  0  0
  -19.5037  -17.8843   26.2985 C   0  0  0  0  0  0  0  0  0  0  0  0
  -19.8883  -20.7911   22.1696 C   0  0  0  0  0  0  0  0  0  0  0  0
  -22.3280   -8.7170   20.1954 C   0  0  0  0  0  0  0  0  0  0  0  0
  -23.0904   -8.7252   22.4880 C   0  0  0  0  0  0  0  0  0  0  0  0
  -21.1329  -21.3615   21.9062 C   0  0  0  0  0  0  0  0  0  0  0  0
  -22.9007   -5.3987   20.4875 C   0  0  0  0  0  0  0  0  0  0  0  0
  -22.9665   -4.3686   19.5493 C   0  0  0  0  0  0  0  0  0  0  0  0
  -31.5084  -18.4252   20.0450 C   0  0  0  0  0  0  0  0  0  0  0  0
  -30.0132  -20.1229   19.1971 C   0  0  0  0  0  0  0  0  0  0  0  0
  -21.5732  -19.6351   20.2799 C   0  0  0  0  0  0  0  0  0  0  0  0
  -29.2963  -18.6661   20.9863 C   0  0  0  0  0  0  0  0  0  0  0  0
  -20.5815   -4.5342   19.2003 C   0  0  0  0  0  0  0  0  0  0  0  0
  -23.8247  -10.4506   20.9646 C   0  0  0  0  0  0  0  0  0  0  0  0
  -31.2489  -19.4767   19.1660 C   0  0  0  0  0  0  0  0  0  0  0  0
  -24.1663  -12.9757   20.8428 C   0  0  0  0  0  0  0  0  0  0  0  0
  -17.7081  -16.4349   27.0485 C   0  0  0  0  0  0  0  0  0  0  0  0
  -19.4807  -19.6302   21.4969 C   0  0  0  0  0  0  0  0  0  0  0  0
  -18.6661  -16.7782   26.0755 C   0  0  0  0  0  0  0  0  0  0  0  0
  -20.3219  -19.0534   20.5347 C   0  0  0  0  0  0  0  0  0  0  0  0
  -30.5321  -18.0199   20.9551 C   0  0  0  0  0  0  0  0  0  0  0  0
  -29.0368  -19.7176   20.1072 C   0  0  0  0  0  0  0  0  0  0  0  0
  -22.3374   -8.1446   21.4674 C   0  0  0  0  0  0  0  0  0  0  0  0
  -21.9768  -20.7819   20.9633 C   0  0  0  0  0  0  0  0  0  0  0  0
  -21.6753   -5.9965   20.7821 C   0  0  0  0  0  0  0  0  0  0  0  0
  -21.8069   -3.9364   18.9057 C   0  0  0  0  0  0  0  0  0  0  0  0
  -20.5157   -5.5643   20.1385 C   0  0  0  0  0  0  0  0  0  0  0  0
  -24.5934  -11.6414   20.7053 C   0  0  0  0  0  0  0  0  0  0  0  0
  -25.2581  -13.7250   20.4779 C   0  0  0  0  0  0  0  0  0  0  0  0
  -24.3062  -20.5752   20.9237 C   0  0  0  0  0  0  0  0  0  1  0  0
  -32.2669  -19.8991   18.2171 C   0  0  0  0  0  0  0  0  0  0  0  0
  -22.8963  -13.4918   21.2629 C   0  0  0  0  0  0  0  0  0  0  0  0
  -25.5499  -21.0186   20.7036 C   0  0  0  0  0  0  0  0  0  0  0  0
  -26.7068  -20.1040   20.9744 C   0  0  0  0  0  0  0  0  0  0  0  0
  -18.7276  -16.6718   22.3826 C   0  0  0  0  0  0  0  0  0  0  0  0
  -17.9346  -16.3539   19.2533 C   0  0  0  0  0  0  0  0  0  0  0  0
  -18.3468  -17.4191   16.0374 C   0  0  0  0  0  0  0  0  0  0  0  0
  -30.7420  -14.7442   20.6595 C   0  0  0  0  0  0  0  0  0  0  0  0
  -16.8121  -15.2321   26.8899 C   0  0  0  0  0  0  0  0  0  0  0  0
  -18.1239  -19.0424   21.7731 C   0  0  0  0  0  0  0  0  0  0  0  0
  -19.9228  -17.8184   19.7705 C   0  0  0  0  0  0  0  0  0  0  0  0
  -16.7303  -14.7186   25.4546 C   0  0  0  0  0  0  0  0  0  0  0  0
  -29.6017  -12.3584   18.2753 C   0  0  0  0  0  0  0  0  0  0  0  0
  -18.1234  -14.6277   24.8400 C   0  0  0  0  0  0  0  0  0  0  0  0
  -28.1648  -12.0649   18.7100 C   0  0  0  0  0  0  0  0  0  0  0  0
  -30.5202  -12.5799   19.4750 C   0  0  0  0  0  0  0  0  0  0  0  0
  -28.6200  -13.3117   20.8633 C   0  0  0  0  0  0  0  0  0  0  0  0
  -18.7908  -16.0070   24.7794 C   0  0  1  0  0  0  0  0  0  0  0  0
  -18.0252  -17.5663   21.4007 C   0  0  1  0  0  0  0  0  0  0  0  0
  -27.6445  -13.1365   19.6869 C   0  0  2  0  0  0  0  0  0  0  0  0
  -33.7031  -19.7226   18.6165 C   0  0  0  0  0  0  0  0  0  0  0  0
  -17.5935  -16.9408   13.6919 C   0  0  0  0  0  0  0  0  0  0  0  0
  -19.7584  -13.9093   19.1686 C   0  0  0  0  0  0  0  0  0  0  0  0
  -19.7183  -14.0526   16.6694 C   0  0  0  0  0  0  0  0  0  0  0  0
  -17.6031  -13.6463   17.9278 C   0  0  0  0  0  0  0  0  0  0  0  0
  -17.1725  -20.1193   15.7402 C   0  0  0  0  0  0  0  0  0  0  0  0
  -30.8092  -16.8954   21.8951 C   0  0  0  0  0  0  0  0  0  0  0  0
  -18.6684  -15.9379   18.0014 C   0  0  1  0  0  0  0  0  0  0  0  0
  -17.3414  -17.7556   14.9510 C   0  0  2  0  0  0  0  0  0  0  0  0
  -18.9457  -14.4087   17.9574 C   0  0  0  0  0  0  0  0  0  0  0  0
  -25.8578  -11.5453   20.2856 N   0  0  0  0  0  0  0  0  0  0  0  0
  -26.2346  -12.8288   20.1562 N   0  0  0  0  0  0  0  0  0  0  0  0
  -18.5892  -17.2774   20.0806 N   0  0  0  0  0  0  0  0  0  0  0  0
  -29.9706  -13.6089   20.3610 N   0  0  0  0  0  0  0  0  0  0  0  0
  -25.4684  -15.0564   20.4039 N   0  0  0  0  0  0  0  0  0  0  0  0
  -21.8848  -12.5828   21.6018 N   0  0  0  0  0  0  0  0  0  0  0  0
  -27.7825  -20.3734   20.1395 N   0  0  0  0  0  0  0  0  0  0  0  0
  -18.2572  -16.7787   23.6775 N   0  0  0  0  0  0  0  0  0  0  0  0
  -17.8773  -16.4342   16.8805 N   0  0  0  0  0  0  0  0  0  0  0  0
  -30.1438  -15.6735   21.5017 N   0  0  0  0  0  0  0  0  0  0  0  0
  -17.4232  -19.2015   14.5993 N   0  3  0  0  0  0  0  0  0  0  0  0
  -32.0398  -20.3955   17.1117 O   0  0  0  0  0  0  0  0  0  0  0  0
  -22.6601  -14.7224   21.3198 O   0  0  0  0  0  0  0  0  0  0  0  0
  -26.6392  -19.2435   21.8455 O   0  0  0  0  0  0  0  0  0  0  0  0
  -19.6287  -15.9378   21.9939 O   0  0  0  0  0  0  0  0  0  0  0  0
  -16.8184  -15.8824   19.4850 O   0  0  0  0  0  0  0  0  0  0  0  0
  -19.4410  -17.9717   16.1267 O   0  0  0  0  0  0  0  0  0  0  0  0
  -31.8774  -14.9194   20.2045 O   0  0  0  0  0  0  0  0  0  0  0  0
  -25.8125  -22.2894   20.2339 O   0  0  0  0  0  0  0  0  0  0  0  0
  -21.6117   -7.0196   21.7132 O   0  0  0  0  0  0  0  0  0  0  0  0
  -23.1924  -21.3362   20.7048 O   0  0  0  0  0  0  0  0  0  1  0  0
  -21.8705   -2.9482   18.0037 F   0  0  0  0  0  0  0  0  0  0  0  0
  -19.3358   -6.1356   20.4165 F   0  0  0  0  0  0  0  0  0  0  0  0
  1  2  1  0  0  0  0
  1  5  2  0  0  0  0
  2  6  2  0  0  0  0
  3  8  2  0  0  0  0
  3 18  1  0  0  0  0
  4  9  1  0  0  0  0
  4 18  2  0  0  0  0
  5 21  1  0  0  0  0
  6 23  1  0  0  0  0
  7 10  2  0  0  0  0
  7 22  1  0  0  0  0
  8 27  1  0  0  0  0
  9 27  2  0  0  0  0
 10 28  1  0  0  0  0
 11 12  2  0  0  0  0
 11 29  1  0  0  0  0
 12 30  1  0  0  0  0
 13 19  2  0  0  0  0
 13 25  1  0  0  0  0
 14 19  1  0  0  0  0
 14 26  2  0  0  0  0
 15 24  1  0  0  0  0
 15 28  2  0  0  0  0
 16 25  2  0  0  0  0
 16 26  1  0  0  0  0
 17 30  2  0  0  0  0
 17 31  1  0  0  0  0
 18 32  1  0  0  0  0
 19 35  1  0  0  0  0
 20 32  1  0  0  0  0
 20 33  2  0  0  0  0
 20 36  1  0  0  0  0
 21 23  2  0  0  0  0
 21 43  1  0  0  0  0
 22 24  2  0  0  0  0
 22 44  1  0  0  0  0
 23 52  1  0  0  0  0
 24 45  1  0  0  0  0
 25 61  1  0  0  0  0
 26 71  1  0  0  0  0
 27 84  1  0  0  0  0
 28 85  1  0  0  0  0
 29 31  2  0  0  0  0
 29 84  1  0  0  0  0
 30 86  1  0  0  0  0
 31 87  1  0  0  0  0
 32 65  2  0  0  0  0
 33 66  1  0  0  0  0
 33 69  1  0  0  0  0
 34 37  2  0  0  0  0
 34 85  1  0  0  0  0
 35 55  1  0  0  0  0
 35 76  2  0  0  0  0
 36 70  1  0  0  0  0
 36 77  2  0  0  0  0
 37 38  1  0  0  0  0
 37 83  1  0  0  0  0
 38 71  1  0  0  0  0
 38 78  2  0  0  0  0
 39 53  1  0  0  0  0
 39 72  1  0  0  0  0
 39 79  2  0  0  0  0
 40 62  1  0  0  0  0
 40 67  1  0  0  0  0
 40 80  2  0  0  0  0
 41 63  1  0  0  0  0
 41 73  1  0  0  0  0
 41 81  2  0  0  0  0
 42 68  1  0  0  0  0
 42 74  1  0  0  0  0
 42 82  2  0  0  0  0
 43 46  1  0  0  0  0
 44 53  1  0  0  0  0
 45 67  1  0  0  0  0
 46 48  1  0  0  0  0
 47 49  1  0  0  0  0
 47 50  1  0  0  0  0
 48 52  1  0  0  0  0
 49 54  1  0  0  0  0
 50 68  1  0  0  0  0
 51 54  1  0  0  0  0
 51 68  1  0  0  0  0
 52 72  1  0  0  0  0
 53 67  1  0  0  0  0
 54 66  1  0  0  0  0
 56 63  1  0  0  0  0
 57 64  1  0  0  0  0
 58 64  1  0  0  0  0
 59 64  1  0  0  0  0
 60 75  1  0  0  0  0
 61 74  1  0  0  0  0
 62 64  1  0  0  0  0
 62 73  1  0  0  0  0
 63 75  1  0  0  0  0
 65 66  1  0  0  0  0
M  CHG  1  75   1
M  ISO  4  34 101  42 100  74 100  85 101
M  END
> <Batch ID>
0171

> <Smiles>
CNC(C)C(=O)NC(C(=O)N1Cc2cc([101O:1][101CH2:1]C(=O)C(=O)Nc3cc(C[100NH:0][100C:0](=O)N4CCCC(n5nc(-c6ccc(Oc7ccc(F)cc7F)cc6)c(C(N)=O)c5N)C4)cc(C(C)=O)c3)ccc2CC1C(=O)NC1CCCc2ccccc21)C(C)(C)C

> <Shape>
0.175

> <Color>
0.184

> <Negative vol penalty>
0.000

$$$$

  -OEChem-04052304233D

 87 95  0     1  0  0  0  0  0999 V2000
  -29.6890  -36.2228   22.8627 C   0  0  0  0  0  0  0  0  0  0  0  0
  -29.8226  -35.0358   22.1495 C   0  0  0  0  0  0  0  0  0  0  0  0
  -30.9666  -20.3208   23.3009 C   0  0  0  0  0  0  0  0  0  0  0  0
  -22.7920  -12.7258   18.6384 C   0  0  0  0  0  0  0  0  0  0  0  0
  -23.2742  -10.5953   19.6705 C   0  0  0  0  0  0  0  0  0  0  0  0
  -28.8585  -36.2726   23.9816 C   0  0  0  0  0  0  0  0  0  0  0  0
  -29.1266  -33.8977   22.5553 C   0  0  0  0  0  0  0  0  0  0  0  0
  -26.7625  -29.5476   18.9507 C   0  0  0  0  0  0  0  0  0  0  0  0
  -30.4013  -21.2798   22.4604 C   0  0  0  0  0  0  0  0  0  0  0  0
  -30.7420  -18.9649   23.0624 C   0  0  0  0  0  0  0  0  0  0  0  0
  -21.8456  -12.1137   17.8167 C   0  0  0  0  0  0  0  0  0  0  0  0
  -22.3277   -9.9831   18.8488 C   0  0  0  0  0  0  0  0  0  0  0  0
  -27.2258  -28.2879   18.5733 C   0  0  0  0  0  0  0  0  0  0  0  0
  -18.6598  -11.0117   18.0787 C   0  0  0  0  0  0  0  0  0  0  0  0
  -17.4275  -11.6467   17.9245 C   0  0  0  0  0  0  0  0  0  0  0  0
  -25.9165  -27.2855   20.3340 C   0  0  0  0  0  0  0  0  0  0  0  0
  -17.8096  -11.8103   15.5445 C   0  0  0  0  0  0  0  0  0  0  0  0
  -23.5064  -11.9666   19.5653 C   0  0  0  0  0  0  0  0  0  0  0  0
  -29.3867  -19.5270   21.1430 C   0  0  0  0  0  0  0  0  0  0  0  0
  -24.2686  -13.1647   21.6845 C   0  0  0  0  0  0  0  0  0  0  0  0
  -28.1444  -35.1372   24.3956 C   0  0  0  0  0  0  0  0  0  0  0  0
  -25.8797  -29.6869   20.0313 C   0  0  0  0  0  0  0  0  0  0  0  0
  -28.2868  -33.9321   23.6815 C   0  0  0  0  0  0  0  0  0  0  0  0
  -25.4414  -28.5478   20.7215 C   0  0  0  0  0  0  0  0  0  0  0  0
  -29.6114  -20.8829   21.3814 C   0  0  0  0  0  0  0  0  0  0  0  0
  -29.9520  -18.5681   21.9835 C   0  0  0  0  0  0  0  0  0  0  0  0
  -21.6134  -10.7423   17.9220 C   0  0  0  0  0  0  0  0  0  0  0  0
  -26.8051  -27.1570   19.2668 C   0  0  0  0  0  0  0  0  0  0  0  0
  -19.4670  -10.7760   16.9659 C   0  0  0  0  0  0  0  0  0  0  0  0
  -17.0024  -12.0460   16.6574 C   0  0  0  0  0  0  0  0  0  0  0  0
  -19.0420  -11.1753   15.6988 C   0  0  0  0  0  0  0  0  0  0  0  0
  -24.4846  -12.5983   20.4139 C   0  0  0  0  0  0  0  0  0  0  0  0
  -25.5032  -13.6288   22.0679 C   0  0  0  0  0  0  0  0  0  0  0  0
  -27.9506  -25.1952   19.8236 C   0  0  0  0  0  0  0  0  0  1  0  0
  -28.5565  -19.1111   20.0144 C   0  0  0  0  0  0  0  0  0  0  0  0
  -23.0602  -13.2625   22.4499 C   0  0  0  0  0  0  0  0  0  0  0  0
  -28.4397  -23.9749   19.5720 C   0  0  0  0  0  0  0  0  0  0  0  0
  -29.1873  -23.2536   20.6533 C   0  0  0  0  0  0  0  0  0  0  0  0
  -25.9964  -31.1549   22.8482 C   0  0  0  0  0  0  0  0  0  0  0  0
  -22.8905  -30.2347   23.0183 C   0  0  0  0  0  0  0  0  0  0  0  0
  -20.4480  -28.0780   22.0034 C   0  0  0  0  0  0  0  0  0  0  0  0
  -30.1343  -16.5376   20.5555 C   0  0  0  0  0  0  0  0  0  0  0  0
  -27.2956  -35.2269   25.6390 C   0  0  0  0  0  0  0  0  0  0  0  0
  -25.3682  -31.0501   20.4088 C   0  0  0  0  0  0  0  0  0  0  0  0
  -24.4786  -28.6415   21.8759 C   0  0  0  0  0  0  0  0  0  0  0  0
  -26.3020  -34.0770   25.7825 C   0  0  0  0  0  0  0  0  0  0  0  0
  -30.0840  -12.8794   20.0808 C   0  0  0  0  0  0  0  0  0  0  0  0
  -26.9874  -32.7419   25.5093 C   0  0  0  0  0  0  0  0  0  0  0  0
  -28.5956  -12.5455   20.1652 C   0  0  0  0  0  0  0  0  0  0  0  0
  -30.3195  -14.2861   19.5389 C   0  0  0  0  0  0  0  0  0  0  0  0
  -28.1078  -15.0156   20.3793 C   0  0  0  0  0  0  0  0  0  0  0  0
  -27.5290  -32.6830   24.0758 C   0  0  1  0  0  0  0  0  0  0  0  0
  -24.8736  -31.1246   21.8501 C   0  0  1  0  0  0  0  0  0  0  0  0
  -27.8365  -13.6205   20.9622 C   0  0  1  0  0  0  0  0  0  0  0  0
  -27.0874  -18.9577   20.2630 C   0  0  0  0  0  0  0  0  0  0  0  0
  -18.0180  -27.5526   22.3441 C   0  0  0  0  0  0  0  0  0  0  0  0
  -23.5468  -28.9569   25.7103 C   0  0  0  0  0  0  0  0  0  0  0  0
  -21.4050  -27.6712   25.5435 C   0  0  0  0  0  0  0  0  0  0  0  0
  -21.3576  -30.1636   25.6343 C   0  0  0  0  0  0  0  0  0  0  0  0
  -29.3189  -16.3253   22.8921 C   0  0  0  0  0  0  0  0  0  0  0  0
  -19.8214  -28.5764   19.1542 C   0  0  0  0  0  0  0  0  0  0  0  0
  -22.1634  -29.0151   23.5311 C   0  0  1  0  0  0  0  0  0  0  0  0
  -19.0327  -28.3191   21.5102 C   0  0  2  0  0  0  0  0  0  0  0  0
  -22.1379  -28.9497   25.0843 C   0  0  0  0  0  0  0  0  0  0  0  0
  -25.7562  -12.6930   20.0165 N   0  0  0  0  0  0  0  0  0  0  0  0
  -26.3505  -13.3244   21.0433 N   0  0  0  0  0  0  0  0  0  0  0  0
  -24.0119  -29.9970   22.2110 N   0  0  0  0  0  0  0  0  0  0  0  0
  -29.5512  -15.2833   20.2852 N   0  0  0  0  0  0  0  0  0  0  0  0
  -25.9358  -14.2636   23.1779 N   0  0  0  0  0  0  0  0  0  0  0  0
  -21.8811  -12.7337   21.9073 N   0  0  0  0  0  0  0  0  0  0  0  0
  -29.0503  -21.8767   20.5435 N   0  0  0  0  0  0  0  0  0  0  0  0
  -26.4554  -32.4252   23.1402 N   0  0  0  0  0  0  0  0  0  0  0  0
  -20.8425  -29.0371   22.9121 N   0  0  0  0  0  0  0  0  0  0  0  0
  -29.7360  -17.1581   21.7593 N   0  0  0  0  0  0  0  0  0  0  0  0
  -18.8980  -27.8856   20.0907 N   0  3  0  0  0  0  0  0  0  0  0  0
  -28.9788  -18.8757   18.8848 O   0  0  0  0  0  0  0  0  0  0  0  0
  -23.0236  -13.8174   23.5742 O   0  0  0  0  0  0  0  0  0  0  0  0
  -29.8227  -23.8723   21.5002 O   0  0  0  0  0  0  0  0  0  0  0  0
  -26.4143  -30.1038   23.3196 O   0  0  0  0  0  0  0  0  0  0  0  0
  -22.4745  -31.3568   23.3171 O   0  0  0  0  0  0  0  0  0  0  0  0
  -21.1337  -27.1314   21.6235 O   0  0  0  0  0  0  0  0  0  0  0  0
  -30.9667  -17.0474   19.7960 O   0  0  0  0  0  0  0  0  0  0  0  0
  -28.2821  -23.3491   18.3521 O   0  0  0  0  0  0  0  0  0  0  0  0
  -20.6898  -10.1447   17.1205 O   0  0  0  0  0  0  0  0  0  0  0  0
  -27.2564  -25.9263   18.9010 O   0  0  0  0  0  0  0  0  0  1  0  0
  -15.8183  -12.6545   16.5093 F   0  0  0  0  0  0  0  0  0  0  0  0
  -19.8126  -10.9505   14.6257 F   0  0  0  0  0  0  0  0  0  0  0  0
  1  2  1  0  0  0  0
  1  6  2  0  0  0  0
  2  7  2  0  0  0  0
  3  9  2  0  0  0  0
  3 10  1  0  0  0  0
  4 11  2  0  0  0  0
  4 18  1  0  0  0  0
  5 12  1  0  0  0  0
  5 18  2  0  0  0  0
  6 21  1  0  0  0  0
  7 23  1  0  0  0  0
  8 13  2  0  0  0  0
  8 22  1  0  0  0  0
  9 25  1  0  0  0  0
 10 26  2  0  0  0  0
 11 27  1  0  0  0  0
 12 27  2  0  0  0  0
 13 28  1  0  0  0  0
 14 15  2  0  0  0  0
 14 29  1  0  0  0  0
 15 30  1  0  0  0  0
 16 24  1  0  0  0  0
 16 28  2  0  0  0  0
 17 30  2  0  0  0  0
 17 31  1  0  0  0  0
 18 32  1  0  0  0  0
 19 25  2  0  0  0  0
 19 26  1  0  0  0  0
 19 35  1  0  0  0  0
 20 32  1  0  0  0  0
 20 33  2  0  0  0  0
 20 36  1  0  0  0  0
 21 23  2  0  0  0  0
 21 43  1  0  0  0  0
 22 24  2  0  0  0  0
 22 44  1  0  0  0  0
 23 52  1  0  0  0  0
 24 45  1  0  0  0  0
 25 71  1  0  0  0  0
 26 74  1  0  0  0  0
 27 84  1  0  0  0  0
 28 85  1  0  0  0  0
 29 31  2  0  0  0  0
 29 84  1  0  0  0  0
 30 86  1  0  0  0  0
 31 87  1  0  0  0  0
 32 65  2  0  0  0  0
 33 66  1  0  0  0  0
 33 69  1  0  0  0  0
 34 37  2  0  0  0  0
 34 85  1  0  0  0  0
 35 55  1  0  0  0  0
 35 76  2  0  0  0  0
 36 70  1  0  0  0  0
 36 77  2  0  0  0  0
 37 38  1  0  0  0  0
 37 83  1  0  0  0  0
 38 71  1  0  0  0  0
 38 78  2  0  0  0  0
 39 53  1  0  0  0  0
 39 72  1  0  0  0  0
 39 79  2  0  0  0  0
 40 62  1  0  0  0  0
 40 67  1  0  0  0  0
 40 80  2  0  0  0  0
 41 63  1  0  0  0  0
 41 73  1  0  0  0  0
 41 81  2  0  0  0  0
 42 68  1  0  0  0  0
 42 74  1  0  0  0  0
 42 82  2  0  0  0  0
 43 46  1  0  0  0  0
 44 53  1  0  0  0  0
 45 67  1  0  0  0  0
 46 48  1  0  0  0  0
 47 49  1  0  0  0  0
 47 50  1  0  0  0  0
 48 52  1  0  0  0  0
 49 54  1  0  0  0  0
 50 68  1  0  0  0  0
 51 54  1  0  0  0  0
 51 68  1  0  0  0  0
 52 72  1  0  0  0  0
 53 67  1  0  0  0  0
 54 66  1  0  0  0  0
 56 63  1  0  0  0  0
 57 64  1  0  0  0  0
 58 64  1  0  0  0  0
 59 64  1  0  0  0  0
 60 74  1  0  0  0  0
 61 75  1  0  0  0  0
 62 64  1  0  0  0  0
 62 73  1  0  0  0  0
 63 75  1  0  0  0  0
 65 66  1  0  0  0  0
M  CHG  1  75   1
M  ISO  4  34 101  42 100  74 100  85 101
M  END
> <Batch ID>
0171

> <Smiles>
CNC(C)C(=O)NC(C(=O)N1Cc2cc([101O:1][101CH2:1]C(=O)C(=O)Nc3cccc([100N:0](C)[100C:0](=O)N4CCCC(n5nc(-c6ccc(Oc7ccc(F)cc7F)cc6)c(C(N)=O)c5N)C4)c3C(C)=O)ccc2CC1C(=O)NC1CCCc2ccccc21)C(C)(C)C

> <Shape>
0.299

> <Color>
0.092

> <Negative vol penalty>
0.000

$$$$

  -OEChem-04052304233D

 84 92  0     1  0  0  0  0  0999 V2000
  -17.8424  -26.7773   27.2372 C   0  0  0  0  0  0  0  0  0  0  0  0
  -18.8594  -25.9352   26.7989 C   0  0  0  0  0  0  0  0  0  0  0  0
  -32.6371  -17.9121   22.7142 C   0  0  0  0  0  0  0  0  0  0  0  0
  -23.0143   -9.8526   20.5662 C   0  0  0  0  0  0  0  0  0  0  0  0
  -23.6730  -10.3713   22.8321 C   0  0  0  0  0  0  0  0  0  0  0  0
  -17.3881  -27.8068   26.4140 C   0  0  0  0  0  0  0  0  0  0  0  0
  -19.4219  -26.1215   25.5367 C   0  0  0  0  0  0  0  0  0  0  0  0
  -24.4774  -25.8335   25.6011 C   0  0  0  0  0  0  0  0  0  0  0  0
  -31.8320  -18.9404   23.2040 C   0  0  0  0  0  0  0  0  0  0  0  0
  -32.0647  -16.8546   22.0071 C   0  0  0  0  0  0  0  0  0  0  0  0
  -22.2280   -8.8004   21.0356 C   0  0  0  0  0  0  0  0  0  0  0  0
  -22.8867   -9.3191   23.3015 C   0  0  0  0  0  0  0  0  0  0  0  0
  -25.0420  -24.5600   25.6567 C   0  0  0  0  0  0  0  0  0  0  0  0
  -19.6141   -8.7366   23.9109 C   0  0  0  0  0  0  0  0  0  0  0  0
  -18.8058   -8.9790   25.0216 C   0  0  0  0  0  0  0  0  0  0  0  0
  -25.4459  -24.6418   23.2799 C   0  0  0  0  0  0  0  0  0  0  0  0
  -29.8820  -17.8539   22.2798 C   0  0  0  0  0  0  0  0  0  0  0  0
  -19.9588   -7.2403   26.2401 C   0  0  0  0  0  0  0  0  0  0  0  0
  -23.7368  -10.6380   21.4644 C   0  0  0  0  0  0  0  0  0  0  0  0
  -24.1544  -13.0623   20.7891 C   0  0  0  0  0  0  0  0  0  0  0  0
  -17.9520  -28.0118   25.1449 C   0  0  0  0  0  0  0  0  0  0  0  0
  -24.3828  -26.5175   24.3805 C   0  0  0  0  0  0  0  0  0  0  0  0
  -18.9738  -27.1539   24.6952 C   0  0  0  0  0  0  0  0  0  0  0  0
  -24.8821  -25.9249   23.2119 C   0  0  0  0  0  0  0  0  0  0  0  0
  -30.4545  -18.9113   22.9869 C   0  0  0  0  0  0  0  0  0  0  0  0
  -30.6872  -16.8256   21.7899 C   0  0  0  0  0  0  0  0  0  0  0  0
  -22.1642   -8.5337   22.4032 C   0  0  0  0  0  0  0  0  0  0  0  0
  -25.5237  -23.9627   24.4956 C   0  0  0  0  0  0  0  0  0  0  0  0
  -20.5947   -7.7461   23.9648 C   0  0  0  0  0  0  0  0  0  0  0  0
  -18.9782   -8.2309   26.1862 C   0  0  0  0  0  0  0  0  0  0  0  0
  -20.7671   -6.9980   25.1294 C   0  0  0  0  0  0  0  0  0  0  0  0
  -24.5496  -11.7247   20.9801 C   0  0  0  0  0  0  0  0  0  0  0  0
  -25.2821  -13.6896   20.3186 C   0  0  0  0  0  0  0  0  0  0  0  0
  -22.8818  -13.6823   21.0166 C   0  0  0  0  0  0  0  0  0  0  0  0
  -28.9034  -21.9606   24.5533 C   0  0  0  0  0  0  0  0  0  0  0  0
  -30.0516  -21.0644   24.1886 C   0  0  0  0  0  0  0  0  0  0  0  0
  -21.9866  -27.6219   22.6079 C   0  0  0  0  0  0  0  0  0  0  0  0
  -24.3935  -28.8815   20.8353 C   0  0  0  0  0  0  0  0  0  0  0  0
  -27.6683  -28.7465   19.8841 C   0  0  0  0  0  0  0  0  0  0  0  0
  -30.7626  -14.6522   20.5182 C   0  0  0  0  0  0  0  0  0  0  0  0
  -17.3954  -29.1084   24.2719 C   0  0  0  0  0  0  0  0  0  0  0  0
  -23.7954  -27.9016   24.3417 C   0  0  0  0  0  0  0  0  0  0  0  0
  -24.8227  -26.6254   21.8798 C   0  0  0  0  0  0  0  0  0  0  0  0
  -18.3018  -29.4720   23.0986 C   0  0  0  0  0  0  0  0  0  0  0  0
  -29.6855  -11.7801   18.7106 C   0  0  0  0  0  0  0  0  0  0  0  0
  -18.7947  -28.2119   22.3943 C   0  0  0  0  0  0  0  0  0  0  0  0
  -28.2208  -11.6197   19.1242 C   0  0  0  0  0  0  0  0  0  0  0  0
  -30.5532  -12.2620   19.8718 C   0  0  0  0  0  0  0  0  0  0  0  0
  -28.6088  -13.3165   20.9565 C   0  0  0  0  0  0  0  0  0  0  0  0
  -19.6262  -27.3395   23.3424 C   0  0  1  0  0  0  0  0  0  0  0  0
  -23.2832  -28.2948   22.9595 C   0  0  1  0  0  0  0  0  0  0  0  0
  -27.6839  -12.8951   19.8029 C   0  0  2  0  0  0  0  0  0  0  0  0
  -29.3353  -29.8857   18.3940 C   0  0  0  0  0  0  0  0  0  0  0  0
  -23.1492  -27.5188   18.4054 C   0  0  0  0  0  0  0  0  0  0  0  0
  -25.3057  -27.8796   17.1858 C   0  0  0  0  0  0  0  0  0  0  0  0
  -23.9849  -29.8384   17.9865 C   0  0  0  0  0  0  0  0  0  0  0  0
  -29.3871  -29.4854   22.1772 C   0  0  0  0  0  0  0  0  0  0  0  0
  -27.8443  -21.3627   25.4531 C   0  0  0  0  0  0  0  0  0  0  0  0
  -26.7265  -22.3476   25.7607 C   0  0  0  0  0  0  0  0  0  1  0  0
  -25.2206  -28.4072   19.6648 C   0  0  1  0  0  0  0  0  0  0  0  0
  -28.7350  -29.8224   19.7898 C   0  0  2  0  0  0  0  0  0  0  0  0
  -24.4146  -28.3967   18.3352 C   0  0  0  0  0  0  0  0  0  0  0  0
  -25.8284  -11.5137   20.6572 N   0  0  0  0  0  0  0  0  0  0  0  0
  -26.2465  -12.7270   20.2584 N   0  0  0  0  0  0  0  0  0  0  0  0
  -24.2335  -27.9746   21.8925 N   0  0  0  0  0  0  0  0  0  0  0  0
  -29.9856  -13.4759   20.4627 N   0  0  0  0  0  0  0  0  0  0  0  0
  -25.5328  -14.9651   19.9545 N   0  0  0  0  0  0  0  0  0  0  0  0
  -21.8310  -12.8922   21.5022 N   0  0  0  0  0  0  0  0  0  0  0  0
  -29.6388  -19.9546   23.4834 N   0  0  0  0  0  0  0  0  0  0  0  0
  -30.1063  -15.7512   21.0715 N   0  0  0  0  0  0  0  0  0  0  0  0
  -20.9584  -27.8844   23.4930 N   0  0  0  0  0  0  0  0  0  0  0  0
  -26.4096  -29.2520   19.6361 N   0  0  0  0  0  0  0  0  0  0  0  0
  -29.8319  -29.5508   20.7613 N   0  3  0  0  0  0  0  0  0  0  0  0
  -22.6780  -14.8973   20.7804 O   0  0  0  0  0  0  0  0  0  0  0  0
  -28.9184  -23.0982   24.1081 O   0  0  0  0  0  0  0  0  0  0  0  0
  -31.1630  -21.4348   24.5285 O   0  0  0  0  0  0  0  0  0  0  0  0
  -21.9233  -26.9179   21.6069 O   0  0  0  0  0  0  0  0  0  0  0  0
  -23.9133  -30.0176   20.8155 O   0  0  0  0  0  0  0  0  0  0  0  0
  -27.9262  -27.5740   20.1474 O   0  0  0  0  0  0  0  0  0  0  0  0
  -31.9154  -14.6898   20.0804 O   0  0  0  0  0  0  0  0  0  0  0  0
  -21.3969   -7.5072   22.8616 O   0  0  0  0  0  0  0  0  0  0  0  0
  -26.0746  -22.7194   24.5470 O   0  0  0  0  0  0  0  0  0  1  0  0
  -18.2029   -8.4648   27.2531 F   0  0  0  0  0  0  0  0  0  0  0  0
  -21.7083   -6.0458   25.1876 F   0  0  0  0  0  0  0  0  0  0  0  0
  1  2  1  0  0  0  0
  1  6  2  0  0  0  0
  2  7  2  0  0  0  0
  3  9  2  0  0  0  0
  3 10  1  0  0  0  0
  4 11  2  0  0  0  0
  4 19  1  0  0  0  0
  5 12  1  0  0  0  0
  5 19  2  0  0  0  0
  6 21  1  0  0  0  0
  7 23  1  0  0  0  0
  8 13  2  0  0  0  0
  8 22  1  0  0  0  0
  9 25  1  0  0  0  0
 10 26  2  0  0  0  0
 11 27  1  0  0  0  0
 12 27  2  0  0  0  0
 13 28  1  0  0  0  0
 14 15  2  0  0  0  0
 14 29  1  0  0  0  0
 15 30  1  0  0  0  0
 16 24  1  0  0  0  0
 16 28  2  0  0  0  0
 17 25  2  0  0  0  0
 17 26  1  0  0  0  0
 18 30  2  0  0  0  0
 18 31  1  0  0  0  0
 19 32  1  0  0  0  0
 20 32  1  0  0  0  0
 20 33  2  0  0  0  0
 20 34  1  0  0  0  0
 21 23  2  0  0  0  0
 21 41  1  0  0  0  0
 22 24  2  0  0  0  0
 22 42  1  0  0  0  0
 23 50  1  0  0  0  0
 24 43  1  0  0  0  0
 25 69  1  0  0  0  0
 26 70  1  0  0  0  0
 27 81  1  0  0  0  0
 28 82  1  0  0  0  0
 29 31  2  0  0  0  0
 29 81  1  0  0  0  0
 30 83  1  0  0  0  0
 31 84  1  0  0  0  0
 32 63  2  0  0  0  0
 33 64  1  0  0  0  0
 33 67  1  0  0  0  0
 34 68  1  0  0  0  0
 34 74  2  0  0  0  0
 35 36  1  0  0  0  0
 35 58  1  0  0  0  0
 35 75  2  0  0  0  0
 36 69  1  0  0  0  0
 36 76  2  0  0  0  0
 37 51  1  0  0  0  0
 37 71  1  0  0  0  0
 37 77  2  0  0  0  0
 38 60  1  0  0  0  0
 38 65  1  0  0  0  0
 38 78  2  0  0  0  0
 39 61  1  0  0  0  0
 39 72  1  0  0  0  0
 39 79  2  0  0  0  0
 40 66  1  0  0  0  0
 40 70  1  0  0  0  0
 40 80  2  0  0  0  0
 41 44  1  0  0  0  0
 42 51  1  0  0  0  0
 43 65  1  0  0  0  0
 44 46  1  0  0  0  0
 45 47  1  0  0  0  0
 45 48  1  0  0  0  0
 46 50  1  0  0  0  0
 47 52  1  0  0  0  0
 48 66  1  0  0  0  0
 49 52  1  0  0  0  0
 49 66  1  0  0  0  0
 50 71  1  0  0  0  0
 51 65  1  0  0  0  0
 52 64  1  0  0  0  0
 53 61  1  0  0  0  0
 54 62  1  0  0  0  0
 55 62  1  0  0  0  0
 56 62  1  0  0  0  0
 57 73  1  0  0  0  0
 58 59  1  0  0  0  0
 59 82  1  0  0  0  0
 60 62  1  0  0  0  0
 60 72  1  0  0  0  0
 61 73  1  0  0  0  0
 63 64  1  0  0  0  0
M  CHG  1  73   1
M  ISO  4  40 100  59 101  70 100  82 101
M  END
> <Batch ID>
0171

> <Smiles>
CNC(C)C(=O)NC(C(=O)N1Cc2cc([101O:1][101CH2:1]CC(=O)C(=O)Nc3cccc([100NH:0][100C:0](=O)N4CCCC(n5nc(-c6ccc(Oc7ccc(F)cc7F)cc6)c(C(N)=O)c5N)C4)c3)ccc2CC1C(=O)NC1CCCc2ccccc21)C(C)(C)C

> <Shape>
0.256

> <Color>
0.166

> <Negative vol penalty>
0.000

$$$$

  -OEChem-04052304233D

 87 95  0     1  0  0  0  0  0999 V2000
  -30.3278  -33.5546   22.9718 C   0  0  0  0  0  0  0  0  0  0  0  0
  -29.6592  -32.6192   23.7550 C   0  0  0  0  0  0  0  0  0  0  0  0
  -23.2159   -9.6702   20.1689 C   0  0  0  0  0  0  0  0  0  0  0  0
  -23.6695  -10.0947   22.5036 C   0  0  0  0  0  0  0  0  0  0  0  0
  -30.5232  -33.3121   21.6128 C   0  0  0  0  0  0  0  0  0  0  0  0
  -29.1846  -31.4412   23.1793 C   0  0  0  0  0  0  0  0  0  0  0  0
  -31.3531  -25.0048   25.5798 C   0  0  0  0  0  0  0  0  0  0  0  0
  -22.4846   -8.5347   20.5173 C   0  0  0  0  0  0  0  0  0  0  0  0
  -22.9381   -8.9593   22.8521 C   0  0  0  0  0  0  0  0  0  0  0  0
  -31.5576  -23.7350   26.1199 C   0  0  0  0  0  0  0  0  0  0  0  0
  -23.4096   -5.6118   22.9065 C   0  0  0  0  0  0  0  0  0  0  0  0
  -23.9600   -4.7533   23.8581 C   0  0  0  0  0  0  0  0  0  0  0  0
  -34.7918  -16.5760   26.1554 C   0  0  0  0  0  0  0  0  0  0  0  0
  -30.2270  -22.7574   24.3530 C   0  0  0  0  0  0  0  0  0  0  0  0
  -33.8684  -14.5134   25.3011 C   0  0  0  0  0  0  0  0  0  0  0  0
  -22.0457   -5.1111   25.2880 C   0  0  0  0  0  0  0  0  0  0  0  0
  -23.8084  -10.4502   21.1620 C   0  0  0  0  0  0  0  0  0  0  0  0
  -33.8303  -17.2989   25.4494 C   0  0  0  0  0  0  0  0  0  0  0  0
  -24.0787  -12.9363   20.6583 C   0  0  0  0  0  0  0  0  0  0  0  0
  -30.0592  -32.1262   21.0221 C   0  0  0  0  0  0  0  0  0  0  0  0
  -30.5966  -25.1543   24.4141 C   0  0  0  0  0  0  0  0  0  0  0  0
  -29.3727  -31.1832   21.8108 C   0  0  0  0  0  0  0  0  0  0  0  0
  -30.0291  -24.0255   23.8004 C   0  0  0  0  0  0  0  0  0  0  0  0
  -32.9068  -15.2363   24.5951 C   0  0  0  0  0  0  0  0  0  0  0  0
  -22.3456   -8.1793   21.8590 C   0  0  0  0  0  0  0  0  0  0  0  0
  -30.9958  -22.6141   25.5082 C   0  0  0  0  0  0  0  0  0  0  0  0
  -22.1773   -6.2200   23.1456 C   0  0  0  0  0  0  0  0  0  0  0  0
  -23.2780   -4.5029   25.0489 C   0  0  0  0  0  0  0  0  0  0  0  0
  -34.8109  -15.1832   26.0812 C   0  0  0  0  0  0  0  0  0  0  0  0
  -21.4954   -5.9697   24.3363 C   0  0  0  0  0  0  0  0  0  0  0  0
  -32.8878  -16.6291   24.6692 C   0  0  0  0  0  0  0  0  0  0  0  0
  -24.5644  -11.6229   20.8026 C   0  0  0  0  0  0  0  0  0  0  0  0
  -25.1833  -13.6747   20.3104 C   0  0  0  0  0  0  0  0  0  0  0  0
  -32.2900  -20.6679   25.6093 C   0  0  0  0  0  0  0  0  0  1  0  0
  -33.8143  -18.7747   25.5313 C   0  0  0  0  0  0  0  0  0  0  0  0
  -22.7480  -13.4436   20.8242 C   0  0  0  0  0  0  0  0  0  0  0  0
  -32.5908  -19.4445   26.0609 C   0  0  0  0  0  0  0  0  0  0  0  0
  -29.2010  -27.4923   21.8330 C   0  0  0  0  0  0  0  0  0  0  0  0
  -31.0546  -12.7925   21.2390 C   0  0  0  0  0  0  0  0  0  0  0  0
  -30.1632  -24.9902   20.3416 C   0  0  0  0  0  0  0  0  0  0  0  0
  -31.8296  -13.1799   23.6213 C   0  0  0  0  0  0  0  0  0  0  0  0
  -29.8809  -21.6414   19.7564 C   0  0  0  0  0  0  0  0  0  0  0  0
  -30.2524  -31.9298   19.5393 C   0  0  0  0  0  0  0  0  0  0  0  0
  -30.2991  -26.5093   23.8317 C   0  0  0  0  0  0  0  0  0  0  0  0
  -29.1938  -24.2379   22.5675 C   0  0  0  0  0  0  0  0  0  0  0  0
  -30.0479  -30.4871   19.0842 C   0  0  0  0  0  0  0  0  0  0  0  0
  -29.4019  -13.3018   18.1006 C   0  0  0  0  0  0  0  0  0  0  0  0
  -28.7764  -29.9091   19.6974 C   0  0  0  0  0  0  0  0  0  0  0  0
  -27.9338  -13.0206   18.4182 C   0  0  0  0  0  0  0  0  0  0  0  0
  -30.3305  -12.3997   18.9075 C   0  0  0  0  0  0  0  0  0  0  0  0
  -28.6428  -12.1855   20.7040 C   0  0  0  0  0  0  0  0  0  0  0  0
  -28.8648  -29.8822   21.2280 C   0  0  1  0  0  0  0  0  0  0  0  0
  -30.2313  -26.5036   22.2940 C   0  0  1  0  0  0  0  0  0  0  0  0
  -27.6715  -13.0966   19.9327 C   0  0  2  0  0  0  0  0  0  0  0  0
  -30.3349  -19.9026   18.0049 C   0  0  0  0  0  0  0  0  0  0  0  0
  -27.7298  -25.9442   18.7691 C   0  0  0  0  0  0  0  0  0  0  0  0
  -27.6645  -23.7058   17.6494 C   0  0  0  0  0  0  0  0  0  0  0  0
  -29.6515  -25.1859   17.3596 C   0  0  0  0  0  0  0  0  0  0  0  0
  -31.7419  -20.1744   21.5294 C   0  0  0  0  0  0  0  0  0  0  0  0
  -30.6723  -12.8644   22.6959 C   0  0  0  0  0  0  0  0  0  0  0  0
  -29.2729  -24.0401   19.5813 C   0  0  1  0  0  0  0  0  0  0  0  0
  -30.8761  -20.6231   19.2299 C   0  0  2  0  0  0  0  0  0  0  0  0
  -28.5785  -24.7210   18.3682 C   0  0  0  0  0  0  0  0  0  0  0  0
  -25.8755  -11.5291   20.5654 N   0  0  0  0  0  0  0  0  0  0  0  0
  -26.2230  -12.7929   20.2686 N   0  0  0  0  0  0  0  0  0  0  0  0
  -29.8418  -25.2205   21.6847 N   0  0  0  0  0  0  0  0  0  0  0  0
  -30.0347  -12.4834   20.3388 N   0  0  0  0  0  0  0  0  0  0  0  0
  -25.3570  -14.9856   20.0390 N   0  0  0  0  0  0  0  0  0  0  0  0
  -21.7315  -12.5481   21.1837 N   0  0  0  0  0  0  0  0  0  0  0  0
  -31.9654  -14.5631   23.8157 N   0  0  0  0  0  0  0  0  0  0  0  0
  -29.6870  -28.7752   21.6674 N   0  0  0  0  0  0  0  0  0  0  0  0
  -30.1051  -22.8951   19.2281 N   0  0  0  0  0  0  0  0  0  0  0  0
  -31.1802  -19.6069   20.2767 N   0  3  0  0  0  0  0  0  0  0  0  0
  -34.8109  -19.4000   25.1838 O   0  0  0  0  0  0  0  0  0  0  0  0
  -22.4654  -14.6522   20.6424 O   0  0  0  0  0  0  0  0  0  0  0  0
  -28.0498  -27.1196   21.6398 O   0  0  0  0  0  0  0  0  0  0  0  0
  -32.2247  -13.0080   20.9123 O   0  0  0  0  0  0  0  0  0  0  0  0
  -31.1152  -25.5197   19.7612 O   0  0  0  0  0  0  0  0  0  0  0  0
  -32.5255  -12.2949   24.1087 O   0  0  0  0  0  0  0  0  0  0  0  0
  -28.9911  -21.3526   20.5535 O   0  0  0  0  0  0  0  0  0  0  0  0
  -31.8362  -18.7976   27.0161 O   0  0  0  0  0  0  0  0  0  0  0  0
  -21.6319   -7.0715   22.1994 O   0  0  0  0  0  0  0  0  0  0  0  0
  -31.2032  -21.3768   26.0382 O   0  0  0  0  0  0  0  0  0  1  0  0
  -23.8060   -3.6773   25.9620 F   0  0  0  0  0  0  0  0  0  0  0  0
  -35.7343  -14.4890   26.7592 F   0  0  0  0  0  0  0  0  0  0  0  0
  -20.3106   -6.5501   24.5711 F   0  0  0  0  0  0  0  0  0  0  0  0
  -31.9626  -17.3247   23.9904 F   0  0  0  0  0  0  0  0  0  0  0  0
  1  2  1  0  0  0  0
  1  5  2  0  0  0  0
  2  6  2  0  0  0  0
  3  8  2  0  0  0  0
  3 17  1  0  0  0  0
  4  9  1  0  0  0  0
  4 17  2  0  0  0  0
  5 20  1  0  0  0  0
  6 22  1  0  0  0  0
  7 10  2  0  0  0  0
  7 21  1  0  0  0  0
  8 25  1  0  0  0  0
  9 25  2  0  0  0  0
 10 26  1  0  0  0  0
 11 12  2  0  0  0  0
 11 27  1  0  0  0  0
 12 28  1  0  0  0  0
 13 18  1  0  0  0  0
 13 29  2  0  0  0  0
 14 23  1  0  0  0  0
 14 26  2  0  0  0  0
 15 24  2  0  0  0  0
 15 29  1  0  0  0  0
 16 28  2  0  0  0  0
 16 30  1  0  0  0  0
 17 32  1  0  0  0  0
 18 31  2  0  0  0  0
 18 35  1  0  0  0  0
 19 32  1  0  0  0  0
 19 33  2  0  0  0  0
 19 36  1  0  0  0  0
 20 22  2  0  0  0  0
 20 43  1  0  0  0  0
 21 23  2  0  0  0  0
 21 44  1  0  0  0  0
 22 52  1  0  0  0  0
 23 45  1  0  0  0  0
 24 31  1  0  0  0  0
 24 70  1  0  0  0  0
 25 82  1  0  0  0  0
 26 83  1  0  0  0  0
 27 30  2  0  0  0  0
 27 82  1  0  0  0  0
 28 84  1  0  0  0  0
 29 85  1  0  0  0  0
 30 86  1  0  0  0  0
 31 87  1  0  0  0  0
 32 64  2  0  0  0  0
 33 65  1  0  0  0  0
 33 68  1  0  0  0  0
 34 37  2  0  0  0  0
 34 83  1  0  0  0  0
 35 37  1  0  0  0  0
 35 74  2  0  0  0  0
 36 69  1  0  0  0  0
 36 75  2  0  0  0  0
 37 81  1  0  0  0  0
 38 53  1  0  0  0  0
 38 71  1  0  0  0  0
 38 76  2  0  0  0  0
 39 60  1  0  0  0  0
 39 67  1  0  0  0  0
 39 77  2  0  0  0  0
 40 61  1  0  0  0  0
 40 66  1  0  0  0  0
 40 78  2  0  0  0  0
 41 60  1  0  0  0  0
 41 70  1  0  0  0  0
 41 79  2  0  0  0  0
 42 62  1  0  0  0  0
 42 72  1  0  0  0  0
 42 80  2  0  0  0  0
 43 46  1  0  0  0  0
 44 53  1  0  0  0  0
 45 66  1  0  0  0  0
 46 48  1  0  0  0  0
 47 49  1  0  0  0  0
 47 50  1  0  0  0  0
 48 52  1  0  0  0  0
 49 54  1  0  0  0  0
 50 67  1  0  0  0  0
 51 54  1  0  0  0  0
 51 67  1  0  0  0  0
 52 71  1  0  0  0  0
 53 66  1  0  0  0  0
 54 65  1  0  0  0  0
 55 62  1  0  0  0  0
 56 63  1  0  0  0  0
 57 63  1  0  0  0  0
 58 63  1  0  0  0  0
 59 73  1  0  0  0  0
 61 63  1  0  0  0  0
 61 72  1  0  0  0  0
 62 73  1  0  0  0  0
 64 65  1  0  0  0  0
M  CHG  1  73   1
M  ISO  4  34 101  39 100  60 100  83 101
M  END
> <Batch ID>
0171

> <Smiles>
CNC(C)C(=O)NC(C(=O)N1Cc2cc([101O:1][101CH2:1]C(=O)C(=O)c3cc(F)cc(NC(=O)[100CH2:0][100C:0](=O)N4CCCC(n5nc(-c6ccc(Oc7ccc(F)cc7F)cc6)c(C(N)=O)c5N)C4)c3F)ccc2CC1C(=O)NC1CCCc2ccccc21)C(C)(C)C

> <Shape>
0.216

> <Color>
0.178

> <Negative vol penalty>
0.000

$$$$

  -OEChem-04052304233D

 90 98  0     1  0  0  0  0  0999 V2000
  -20.1627  -18.5244   31.2294 C   0  0  0  0  0  0  0  0  0  0  0  0
  -21.0660  -18.7778   30.2022 C   0  0  0  0  0  0  0  0  0  0  0  0
  -22.9939   -9.9913   19.9651 C   0  0  0  0  0  0  0  0  0  0  0  0
  -23.7998   -9.9306   22.2419 C   0  0  0  0  0  0  0  0  0  0  0  0
  -18.8003  -18.7407   31.0273 C   0  0  0  0  0  0  0  0  0  0  0  0
  -20.6072  -19.2467   28.9717 C   0  0  0  0  0  0  0  0  0  0  0  0
  -23.4210  -23.0528   27.1714 C   0  0  0  0  0  0  0  0  0  0  0  0
  -22.2119   -8.8629   20.2118 C   0  0  0  0  0  0  0  0  0  0  0  0
  -23.0177   -8.8023   22.4887 C   0  0  0  0  0  0  0  0  0  0  0  0
  -24.6399  -22.7201   26.5820 C   0  0  0  0  0  0  0  0  0  0  0  0
  -19.7744   -8.1166   23.1455 C   0  0  0  0  0  0  0  0  0  0  0  0
  -19.0404   -8.0854   24.3311 C   0  0  0  0  0  0  0  0  0  0  0  0
  -32.1771  -18.0707   24.1762 C   0  0  0  0  0  0  0  0  0  0  0  0
  -23.6328  -22.9224   24.3993 C   0  0  0  0  0  0  0  0  0  0  0  0
  -32.2822  -16.3415   22.4921 C   0  0  0  0  0  0  0  0  0  0  0  0
  -20.2218   -6.0903   25.0100 C   0  0  0  0  0  0  0  0  0  0  0  0
  -23.7879  -10.5251   20.9801 C   0  0  0  0  0  0  0  0  0  0  0  0
  -30.7887  -18.1101   24.0492 C   0  0  0  0  0  0  0  0  0  0  0  0
  -24.2230  -13.0373   20.8939 C   0  0  0  0  0  0  0  0  0  0  0  0
  -18.3256  -19.2217   29.7968 C   0  0  0  0  0  0  0  0  0  0  0  0
  -22.2942  -23.3126   26.3781 C   0  0  0  0  0  0  0  0  0  0  0  0
  -19.2370  -19.4684   28.7524 C   0  0  0  0  0  0  0  0  0  0  0  0
  -22.4014  -23.2607   24.9810 C   0  0  0  0  0  0  0  0  0  0  0  0
  -30.8936  -16.3808   22.3652 C   0  0  0  0  0  0  0  0  0  0  0  0
  -22.2238   -8.2684   21.4736 C   0  0  0  0  0  0  0  0  0  0  0  0
  -24.7452  -22.6520   25.1958 C   0  0  0  0  0  0  0  0  0  0  0  0
  -20.7321   -7.1347   22.8920 C   0  0  0  0  0  0  0  0  0  0  0  0
  -19.2641   -7.0723   25.2634 C   0  0  0  0  0  0  0  0  0  0  0  0
  -32.9239  -17.1864   23.3976 C   0  0  0  0  0  0  0  0  0  0  0  0
  -20.9559   -6.1215   23.8243 C   0  0  0  0  0  0  0  0  0  0  0  0
  -30.1469  -17.2651   23.1437 C   0  0  0  0  0  0  0  0  0  0  0  0
  -24.5963  -11.6903   20.7257 C   0  0  0  0  0  0  0  0  0  0  0  0
  -25.3353  -13.7511   20.5201 C   0  0  0  0  0  0  0  0  0  0  0  0
  -30.0011  -19.0470   24.8754 C   0  0  0  0  0  0  0  0  0  0  0  0
  -22.9819  -13.5934   21.3476 C   0  0  0  0  0  0  0  0  0  0  0  0
  -19.4269  -21.9806   26.0495 C   0  0  0  0  0  0  0  0  0  0  0  0
  -28.2740  -21.7081   24.6989 C   0  0  0  0  0  0  0  0  0  0  0  0
  -18.8988  -24.5234   24.1059 C   0  0  0  0  0  0  0  0  0  0  0  0
  -20.2024  -26.9511   22.0926 C   0  0  0  0  0  0  0  0  0  0  0  0
  -30.8398  -14.5867   20.5976 C   0  0  0  0  0  0  0  0  0  0  0  0
  -16.8391  -19.3953   29.6100 C   0  0  0  0  0  0  0  0  0  0  0  0
  -20.9934  -23.6963   27.0286 C   0  0  0  0  0  0  0  0  0  0  0  0
  -21.2266  -23.5506   24.0842 C   0  0  0  0  0  0  0  0  0  0  0  0
  -16.4730  -20.2496   28.3990 C   0  0  0  0  0  0  0  0  0  0  0  0
  -29.5866  -12.2572   18.2143 C   0  0  0  0  0  0  0  0  0  0  0  0
  -17.2765  -19.8158   27.1772 C   0  0  0  0  0  0  0  0  0  0  0  0
  -28.1459  -12.0128   18.6690 C   0  0  0  0  0  0  0  0  0  0  0  0
  -30.5339  -12.4309   19.4001 C   0  0  0  0  0  0  0  0  0  0  0  0
  -28.6843  -13.2032   20.8324 C   0  0  0  0  0  0  0  0  0  0  0  0
  -18.7806  -20.0013   27.4116 C   0  0  1  0  0  0  0  0  0  0  0  0
  -19.7814  -23.4380   26.1388 C   0  0  1  0  0  0  0  0  0  0  0  0
  -27.6819  -13.0867   19.6725 C   0  0  2  0  0  0  0  0  0  0  0  0
  -19.5199  -28.8576   20.6103 C   0  0  0  0  0  0  0  0  0  0  0  0
  -31.3394  -21.9351   27.9476 C   0  0  0  0  0  0  0  0  0  0  0  0
  -32.5008  -23.6719   26.5703 C   0  0  0  0  0  0  0  0  0  0  0  0
  -18.0506  -22.5393   21.9486 C   0  0  0  0  0  0  0  0  0  0  0  0
  -18.3016  -24.3724   20.2620 C   0  0  0  0  0  0  0  0  0  0  0  0
  -16.6268  -24.5899   22.0979 C   0  0  0  0  0  0  0  0  0  0  0  0
  -21.6690  -28.9166   23.7494 C   0  0  0  0  0  0  0  0  0  0  0  0
  -27.0314  -22.0678   25.4920 C   0  0  0  0  0  0  0  0  0  1  0  0
  -30.4028  -22.6175   25.6745 C   0  0  0  0  0  0  0  0  0  0  0  0
  -29.5171  -21.3841   25.5083 C   0  0  2  0  0  0  0  0  0  0  0  0
  -19.0884  -24.8017   22.6343 C   0  0  1  0  0  0  0  0  0  0  0  0
  -19.9370  -28.4437   22.0130 C   0  0  2  0  0  0  0  0  0  0  0  0
  -31.6685  -22.3876   26.5244 C   0  0  0  0  0  0  0  0  0  0  0  0
  -18.0387  -24.0684   21.7524 C   0  0  0  0  0  0  0  0  0  0  0  0
  -25.8479  -11.5540   20.2796 N   0  0  0  0  0  0  0  0  0  0  0  0
  -26.2707  -12.8244   20.1642 N   0  0  0  0  0  0  0  0  0  0  0  0
  -19.9747  -23.9151   24.7679 N   0  0  0  0  0  0  0  0  0  0  0  0
  -30.0324  -13.4670   20.3055 N   0  0  0  0  0  0  0  0  0  0  0  0
  -25.5947  -15.0747   20.4643 N   0  0  0  0  0  0  0  0  0  0  0  0
  -21.9431  -12.7175   21.6911 N   0  0  0  0  0  0  0  0  0  0  0  0
  -30.2448  -15.5214   21.4442 N   0  0  0  0  0  0  0  0  0  0  0  0
  -30.2418  -20.3610   24.7595 N   0  0  0  0  0  0  0  0  0  0  0  0
  -19.1463  -21.3942   27.2689 N   0  0  0  0  0  0  0  0  0  0  0  0
  -19.0812  -26.2534   22.4892 N   0  0  0  0  0  0  0  0  0  0  0  0
  -29.0866  -18.5396   25.7021 N   0  3  0  0  0  0  0  0  0  0  0  0
  -21.1613  -29.2081   22.3840 N   0  3  0  0  0  0  0  0  0  0  0  0
  -22.7938  -14.8309   21.4298 O   0  0  0  0  0  0  0  0  0  0  0  0
  -19.4078  -21.4293   24.9553 O   0  0  0  0  0  0  0  0  0  0  0  0
  -28.2699  -21.6912   23.4679 O   0  0  0  0  0  0  0  0  0  0  0  0
  -17.8380  -24.8407   24.6496 O   0  0  0  0  0  0  0  0  0  0  0  0
  -21.2941  -26.4536   21.8257 O   0  0  0  0  0  0  0  0  0  0  0  0
  -31.9648  -14.7206   20.1093 O   0  0  0  0  0  0  0  0  0  0  0  0
  -21.4606   -7.1675   21.7148 O   0  0  0  0  0  0  0  0  0  0  0  0
  -25.9336  -22.3268   24.6179 O   0  0  0  0  0  0  0  0  0  1  0  0
  -18.5602   -7.0433   26.4026 F   0  0  0  0  0  0  0  0  0  0  0  0
  -34.2571  -17.1486   23.5197 F   0  0  0  0  0  0  0  0  0  0  0  0
  -21.8754   -5.1761   23.5869 F   0  0  0  0  0  0  0  0  0  0  0  0
  -28.8113  -17.3043   23.0224 F   0  0  0  0  0  0  0  0  0  0  0  0
  1  2  1  0  0  0  0
  1  5  2  0  0  0  0
  2  6  2  0  0  0  0
  3  8  2  0  0  0  0
  3 17  1  0  0  0  0
  4  9  1  0  0  0  0
  4 17  2  0  0  0  0
  5 20  1  0  0  0  0
  6 22  1  0  0  0  0
  7 10  2  0  0  0  0
  7 21  1  0  0  0  0
  8 25  1  0  0  0  0
  9 25  2  0  0  0  0
 10 26  1  0  0  0  0
 11 12  2  0  0  0  0
 11 27  1  0  0  0  0
 12 28  1  0  0  0  0
 13 18  1  0  0  0  0
 13 29  2  0  0  0  0
 14 23  1  0  0  0  0
 14 26  2  0  0  0  0
 15 24  2  0  0  0  0
 15 29  1  0  0  0  0
 16 28  2  0  0  0  0
 16 30  1  0  0  0  0
 17 32  1  0  0  0  0
 18 31  2  0  0  0  0
 18 34  1  0  0  0  0
 19 32  1  0  0  0  0
 19 33  2  0  0  0  0
 19 35  1  0  0  0  0
 20 22  2  0  0  0  0
 20 41  1  0  0  0  0
 21 23  2  0  0  0  0
 21 42  1  0  0  0  0
 22 50  1  0  0  0  0
 23 43  1  0  0  0  0
 24 31  1  0  0  0  0
 24 73  1  0  0  0  0
 25 85  1  0  0  0  0
 26 86  1  0  0  0  0
 27 30  2  0  0  0  0
 27 85  1  0  0  0  0
 28 87  1  0  0  0  0
 29 88  1  0  0  0  0
 30 89  1  0  0  0  0
 31 90  1  0  0  0  0
 32 67  2  0  0  0  0
 33 68  1  0  0  0  0
 33 71  1  0  0  0  0
 34 74  1  0  0  0  0
 34 77  2  0  0  0  0
 35 72  1  0  0  0  0
 35 79  2  0  0  0  0
 36 51  1  0  0  0  0
 36 75  1  0  0  0  0
 36 80  2  0  0  0  0
 37 60  1  0  0  0  0
 37 62  1  0  0  0  0
 37 81  2  0  0  0  0
 38 63  1  0  0  0  0
 38 69  1  0  0  0  0
 38 82  2  0  0  0  0
 39 64  1  0  0  0  0
 39 76  1  0  0  0  0
 39 83  2  0  0  0  0
 40 70  1  0  0  0  0
 40 73  1  0  0  0  0
 40 84  2  0  0  0  0
 41 44  1  0  0  0  0
 42 51  1  0  0  0  0
 43 69  1  0  0  0  0
 44 46  1  0  0  0  0
 45 47  1  0  0  0  0
 45 48  1  0  0  0  0
 46 50  1  0  0  0  0
 47 52  1  0  0  0  0
 48 70  1  0  0  0  0
 49 52  1  0  0  0  0
 49 70  1  0  0  0  0
 50 75  1  0  0  0  0
 51 69  1  0  0  0  0
 52 68  1  0  0  0  0
 53 64  1  0  0  0  0
 54 65  1  0  0  0  0
 55 65  1  0  0  0  0
 56 66  1  0  0  0  0
 57 66  1  0  0  0  0
 58 66  1  0  0  0  0
 59 78  1  0  0  0  0
 60 86  1  0  0  0  0
 61 62  1  0  0  0  0
 61 65  1  0  0  0  0
 62 74  1  0  0  0  0
 63 66  1  0  0  0  0
 63 76  1  0  0  0  0
 64 78  1  0  0  0  0
 67 68  1  0  0  0  0
M  CHG  2  77   1  78   1
M  ISO  4  40 100  60 101  73 100  86 101
M  END
> <Batch ID>
0171

> <Smiles>
CNC(C)C(=O)NC(C(=O)N1Cc2cc([101O:1][101CH2:1]C(=O)C(CC(C)C)NC(=N)c3cc(F)cc([100NH:0][100C:0](=O)N4CCCC(n5nc(-c6ccc(Oc7ccc(F)cc7F)cc6)c(C(N)=O)c5N)C4)c3F)ccc2CC1C(=O)NC1CCCc2ccccc21)C(C)(C)C

> <Shape>
0.209

> <Color>
0.198

> <Negative vol penalty>
0.000

$$$$

  -OEChem-04052304233D

 86 94  0     1  0  0  0  0  0999 V2000
  -29.6036  -35.7931   20.9426 C   0  0  0  0  0  0  0  0  0  0  0  0
  -29.6424  -34.4035   20.9962 C   0  0  0  0  0  0  0  0  0  0  0  0
  -24.8569   -8.7360   21.0690 C   0  0  0  0  0  0  0  0  0  0  0  0
  -23.1656  -10.0710   19.9761 C   0  0  0  0  0  0  0  0  0  0  0  0
  -28.5996  -36.4878   21.6160 C   0  0  0  0  0  0  0  0  0  0  0  0
  -28.6779  -33.7078   21.7243 C   0  0  0  0  0  0  0  0  0  0  0  0
  -26.8583  -29.7059   19.2104 C   0  0  0  0  0  0  0  0  0  0  0  0
  -23.8783   -7.8289   21.4753 C   0  0  0  0  0  0  0  0  0  0  0  0
  -22.1870   -9.1639   20.3823 C   0  0  0  0  0  0  0  0  0  0  0  0
  -27.6511  -28.5595   19.1789 C   0  0  0  0  0  0  0  0  0  0  0  0
  -21.5199   -7.6244   23.8878 C   0  0  0  0  0  0  0  0  0  0  0  0
  -21.5603   -7.1768   25.2083 C   0  0  0  0  0  0  0  0  0  0  0  0
  -26.3149  -27.5944   20.9402 C   0  0  0  0  0  0  0  0  0  0  0  0
  -27.7307  -19.4651   17.9603 C   0  0  0  0  0  0  0  0  0  0  0  0
  -27.7301  -17.8020   16.2079 C   0  0  0  0  0  0  0  0  0  0  0  0
  -21.8167   -4.9040   24.4301 C   0  0  0  0  0  0  0  0  0  0  0  0
  -24.5005   -9.8571   20.3194 C   0  0  0  0  0  0  0  0  0  0  0  0
  -26.2569  -10.7634   18.7065 C   0  0  0  0  0  0  0  0  0  0  0  0
  -27.6167  -35.7998   22.3448 C   0  0  0  0  0  0  0  0  0  0  0  0
  -25.7928  -29.8098   20.1160 C   0  0  0  0  0  0  0  0  0  0  0  0
  -27.6606  -34.3939   22.4092 C   0  0  0  0  0  0  0  0  0  0  0  0
  -25.5085  -28.7422   20.9794 C   0  0  0  0  0  0  0  0  0  0  0  0
  -27.7700  -18.1285   17.5634 C   0  0  0  0  0  0  0  0  0  0  0  0
  -27.6513  -20.4752   17.0017 C   0  0  0  0  0  0  0  0  0  0  0  0
  -22.5434   -8.0428   21.1319 C   0  0  0  0  0  0  0  0  0  0  0  0
  -27.3812  -27.5047   20.0459 C   0  0  0  0  0  0  0  0  0  0  0  0
  -21.6278   -6.7117   22.8384 C   0  0  0  0  0  0  0  0  0  0  0  0
  -27.6114  -20.1488   15.6461 C   0  0  0  0  0  0  0  0  0  0  0  0
  -21.7087   -5.8166   25.4794 C   0  0  0  0  0  0  0  0  0  0  0  0
  -27.6508  -18.8121   15.2492 C   0  0  0  0  0  0  0  0  0  0  0  0
  -21.7762   -5.3515   23.1096 C   0  0  0  0  0  0  0  0  0  0  0  0
  -25.5109  -10.7949   19.8999 C   0  0  0  0  0  0  0  0  0  0  0  0
  -27.0747  -11.8641   18.7836 C   0  0  0  0  0  0  0  0  0  0  0  0
  -26.2144   -9.8232   17.6248 C   0  0  0  0  0  0  0  0  0  0  0  0
  -27.5906  -23.7931   18.7753 C   0  0  0  0  0  0  0  0  0  0  0  0
  -27.6523  -22.2941   18.7146 C   0  0  0  0  0  0  0  0  0  0  0  0
  -25.0854  -31.7472   22.5347 C   0  0  0  0  0  0  0  0  0  0  0  0
  -22.2845  -30.1110   22.5158 C   0  0  0  0  0  0  0  0  0  0  0  0
  -20.6034  -27.2543   21.7035 C   0  0  0  0  0  0  0  0  0  0  0  0
  -27.8952  -17.2524   19.9221 C   0  0  0  0  0  0  0  0  0  0  0  0
  -26.5789  -36.5962   23.0953 C   0  0  0  0  0  0  0  0  0  0  0  0
  -24.9305  -31.0423   20.1191 C   0  0  0  0  0  0  0  0  0  0  0  0
  -24.3636  -28.7957   21.9566 C   0  0  0  0  0  0  0  0  0  0  0  0
  -25.3756  -35.7666   23.5359 C   0  0  0  0  0  0  0  0  0  0  0  0
  -28.0540  -14.9752   22.6545 C   0  0  0  0  0  0  0  0  0  0  0  0
  -25.8336  -34.4574   24.1709 C   0  0  0  0  0  0  0  0  0  0  0  0
  -27.4679  -13.6821   22.0833 C   0  0  0  0  0  0  0  0  0  0  0  0
  -27.3404  -16.2109   22.1089 C   0  0  0  0  0  0  0  0  0  0  0  0
  -26.6754  -14.9931   20.0733 C   0  0  0  0  0  0  0  0  0  0  0  0
  -26.6176  -33.6024   23.1680 C   0  0  1  0  0  0  0  0  0  0  0  0
  -24.1891  -31.2495   21.4361 C   0  0  1  0  0  0  0  0  0  0  0  0
  -27.4044  -13.7239   20.5439 C   0  0  2  0  0  0  0  0  0  0  0  0
  -18.3322  -26.1967   21.8471 C   0  0  0  0  0  0  0  0  0  0  0  0
  -22.7329  -29.5565   25.4826 C   0  0  0  0  0  0  0  0  0  0  0  0
  -20.9971  -27.7581   25.3374 C   0  0  0  0  0  0  0  0  0  0  0  0
  -20.3760  -30.1290   24.8729 C   0  0  0  0  0  0  0  0  0  0  0  0
  -20.3858  -27.0477   18.7592 C   0  0  0  0  0  0  0  0  0  0  0  0
  -28.9130  -24.5235   18.6938 C   0  0  0  0  0  0  0  0  0  0  0  0
  -28.7428  -26.0334   18.7663 C   0  0  0  0  0  0  0  0  0  1  0  0
  -21.7722  -28.8608   23.1893 C   0  0  1  0  0  0  0  0  0  0  0  0
  -19.2780  -27.0316   20.9978 C   0  0  2  0  0  0  0  0  0  0  0  0
  -21.4924  -29.0756   24.7036 C   0  0  0  0  0  0  0  0  0  0  0  0
  -25.8268  -11.8333   20.6782 N   0  0  0  0  0  0  0  0  0  0  0  0
  -26.7805  -12.4644   19.9724 N   0  0  0  0  0  0  0  0  0  0  0  0
  -23.5534  -30.0246   21.9257 N   0  0  0  0  0  0  0  0  0  0  0  0
  -27.3228  -16.1843   20.6447 N   0  0  0  0  0  0  0  0  0  0  0  0
  -28.0097  -12.3673   17.9500 N   0  0  0  0  0  0  0  0  0  0  0  0
  -25.3159   -8.7507   17.7067 N   0  0  0  0  0  0  0  0  0  0  0  0
  -27.6125  -21.8261   17.4189 N   0  0  0  0  0  0  0  0  0  0  0  0
  -27.8487  -17.1015   18.5366 N   0  0  0  0  0  0  0  0  0  0  0  0
  -25.7135  -32.9445   22.2493 N   0  0  0  0  0  0  0  0  0  0  0  0
  -20.6083  -28.4314   22.4216 N   0  0  0  0  0  0  0  0  0  0  0  0
  -19.4929  -26.3266   19.7025 N   0  3  0  0  0  0  0  0  0  0  0  0
  -26.9629   -9.9219   16.6231 O   0  0  0  0  0  0  0  0  0  0  0  0
  -26.4853  -24.3040   18.8737 O   0  0  0  0  0  0  0  0  0  0  0  0
  -27.7526  -21.7080   19.7796 O   0  0  0  0  0  0  0  0  0  0  0  0
  -25.1975  -31.0942   23.5655 O   0  0  0  0  0  0  0  0  0  0  0  0
  -21.5816  -31.1247   22.5073 O   0  0  0  0  0  0  0  0  0  0  0  0
  -21.5395  -26.4613   21.6286 O   0  0  0  0  0  0  0  0  0  0  0  0
  -28.4145  -18.2162   20.4908 O   0  0  0  0  0  0  0  0  0  0  0  0
  -27.5333  -21.1214   14.6943 O   0  0  0  0  0  0  0  0  0  0  0  0
  -21.5882   -7.1577   21.5280 O   0  0  0  0  0  0  0  0  0  0  0  0
  -28.1539  -26.3849   20.0177 O   0  0  0  0  0  0  0  0  0  1  0  0
  -21.7491   -5.3872   26.7475 F   0  0  0  0  0  0  0  0  0  0  0  0
  -27.6118  -18.4907   13.9487 F   0  0  0  0  0  0  0  0  0  0  0  0
  -21.8815   -4.4702   22.1057 F   0  0  0  0  0  0  0  0  0  0  0  0
  1  2  1  0  0  0  0
  1  5  2  0  0  0  0
  2  6  2  0  0  0  0
  3  8  2  0  0  0  0
  3 17  1  0  0  0  0
  4  9  1  0  0  0  0
  4 17  2  0  0  0  0
  5 19  1  0  0  0  0
  6 21  1  0  0  0  0
  7 10  2  0  0  0  0
  7 20  1  0  0  0  0
  8 25  1  0  0  0  0
  9 25  2  0  0  0  0
 10 26  1  0  0  0  0
 11 12  2  0  0  0  0
 11 27  1  0  0  0  0
 12 29  1  0  0  0  0
 13 22  1  0  0  0  0
 13 26  2  0  0  0  0
 14 23  2  0  0  0  0
 14 24  1  0  0  0  0
 15 23  1  0  0  0  0
 15 30  2  0  0  0  0
 16 29  2  0  0  0  0
 16 31  1  0  0  0  0
 17 32  1  0  0  0  0
 18 32  1  0  0  0  0
 18 33  2  0  0  0  0
 18 34  1  0  0  0  0
 19 21  2  0  0  0  0
 19 41  1  0  0  0  0
 20 22  2  0  0  0  0
 20 42  1  0  0  0  0
 21 50  1  0  0  0  0
 22 43  1  0  0  0  0
 23 70  1  0  0  0  0
 24 28  2  0  0  0  0
 24 69  1  0  0  0  0
 25 82  1  0  0  0  0
 26 83  1  0  0  0  0
 27 31  2  0  0  0  0
 27 82  1  0  0  0  0
 28 30  1  0  0  0  0
 28 81  1  0  0  0  0
 29 84  1  0  0  0  0
 30 85  1  0  0  0  0
 31 86  1  0  0  0  0
 32 63  2  0  0  0  0
 33 64  1  0  0  0  0
 33 67  1  0  0  0  0
 34 68  1  0  0  0  0
 34 74  2  0  0  0  0
 35 36  1  0  0  0  0
 35 58  1  0  0  0  0
 35 75  2  0  0  0  0
 36 69  1  0  0  0  0
 36 76  2  0  0  0  0
 37 51  1  0  0  0  0
 37 71  1  0  0  0  0
 37 77  2  0  0  0  0
 38 60  1  0  0  0  0
 38 65  1  0  0  0  0
 38 78  2  0  0  0  0
 39 61  1  0  0  0  0
 39 72  1  0  0  0  0
 39 79  2  0  0  0  0
 40 66  1  0  0  0  0
 40 70  1  0  0  0  0
 40 80  2  0  0  0  0
 41 44  1  0  0  0  0
 42 51  1  0  0  0  0
 43 65  1  0  0  0  0
 44 46  1  0  0  0  0
 45 47  1  0  0  0  0
 45 48  1  0  0  0  0
 46 50  1  0  0  0  0
 47 52  1  0  0  0  0
 48 66  1  0  0  0  0
 49 52  1  0  0  0  0
 49 66  1  0  0  0  0
 50 71  1  0  0  0  0
 51 65  1  0  0  0  0
 52 64  1  0  0  0  0
 53 61  1  0  0  0  0
 54 62  1  0  0  0  0
 55 62  1  0  0  0  0
 56 62  1  0  0  0  0
 57 73  1  0  0  0  0
 58 59  1  0  0  0  0
 59 83  1  0  0  0  0
 60 62  1  0  0  0  0
 60 72  1  0  0  0  0
 61 73  1  0  0  0  0
 63 64  1  0  0  0  0
M  CHG  1  73   1
M  ISO  4  40 100  59 101  70 100  83 101
M  END
> <Batch ID>
0171

> <Smiles>
CNC(C)C(=O)NC(C(=O)N1Cc2cc([101O:1][101CH2:1]CC(=O)C(=O)Nc3cc([100NH:0][100C:0](=O)N4CCCC(n5nc(-c6ccc(Oc7ccc(F)cc7F)cc6)c(C(N)=O)c5N)C4)cc(F)c3O)ccc2CC1C(=O)NC1CCCc2ccccc21)C(C)(C)C

> <Shape>
0.309

> <Color>
0.104

> <Negative vol penalty>
0.000

$$$$

  -OEChem-04052304233D

 87 95  0     1  0  0  0  0  0999 V2000
  -24.5138  -31.3644   19.5515 C   0  0  0  0  0  0  0  0  0  0  0  0
  -25.4188  -30.3510   19.8507 C   0  0  0  0  0  0  0  0  0  0  0  0
  -23.0191   -9.8522   19.9544 C   0  0  0  0  0  0  0  0  0  0  0  0
  -23.7681   -9.8597   22.2513 C   0  0  0  0  0  0  0  0  0  0  0  0
  -23.9577  -32.1263   20.5782 C   0  0  0  0  0  0  0  0  0  0  0  0
  -25.7689  -30.0996   21.1768 C   0  0  0  0  0  0  0  0  0  0  0  0
  -27.0452  -24.6577   23.6793 C   0  0  0  0  0  0  0  0  0  0  0  0
  -32.6482  -17.3994   23.4869 C   0  0  0  0  0  0  0  0  0  0  0  0
  -32.0548  -16.5186   22.5826 C   0  0  0  0  0  0  0  0  0  0  0  0
  -22.2636   -8.7066   20.2044 C   0  0  0  0  0  0  0  0  0  0  0  0
  -23.0126   -8.7142   22.5015 C   0  0  0  0  0  0  0  0  0  0  0  0
  -28.2494  -24.0145   23.9618 C   0  0  0  0  0  0  0  0  0  0  0  0
  -21.5661   -5.5854   23.6541 C   0  0  0  0  0  0  0  0  0  0  0  0
  -22.1674   -4.5583   24.3815 C   0  0  0  0  0  0  0  0  0  0  0  0
  -28.1457  -24.8293   26.2299 C   0  0  0  0  0  0  0  0  0  0  0  0
  -23.8778   -4.3594   22.6867 C   0  0  0  0  0  0  0  0  0  0  0  0
  -23.7714  -10.4287   20.9778 C   0  0  0  0  0  0  0  0  0  0  0  0
  -24.1367  -12.9503   20.8513 C   0  0  0  0  0  0  0  0  0  0  0  0
  -24.2938  -31.8778   21.9183 C   0  0  0  0  0  0  0  0  0  0  0  0
  -26.3866  -25.4019   24.6687 C   0  0  0  0  0  0  0  0  0  0  0  0
  -25.2177  -30.8598   22.2223 C   0  0  0  0  0  0  0  0  0  0  0  0
  -26.9319  -25.4790   25.9582 C   0  0  0  0  0  0  0  0  0  0  0  0
  -31.8563  -18.2761   24.2284 C   0  0  0  0  0  0  0  0  0  0  0  0
  -30.6694  -16.5146   22.4199 C   0  0  0  0  0  0  0  0  0  0  0  0
  -22.2603   -8.1377   21.4780 C   0  0  0  0  0  0  0  0  0  0  0  0
  -28.8013  -24.1026   25.2364 C   0  0  0  0  0  0  0  0  0  0  0  0
  -22.1207   -5.9996   22.4430 C   0  0  0  0  0  0  0  0  0  0  0  0
  -23.3232   -3.9453   23.8978 C   0  0  0  0  0  0  0  0  0  0  0  0
  -23.2765   -5.3866   21.9594 C   0  0  0  0  0  0  0  0  0  0  0  0
  -30.4710  -18.2721   24.0657 C   0  0  0  0  0  0  0  0  0  0  0  0
  -29.8775  -17.3913   23.1614 C   0  0  0  0  0  0  0  0  0  0  0  0
  -24.5525  -11.6117   20.7199 C   0  0  0  0  0  0  0  0  0  0  0  0
  -25.2374  -13.6886   20.4908 C   0  0  0  0  0  0  0  0  0  0  0  0
  -22.8690  -13.4789   21.2624 C   0  0  0  0  0  0  0  0  0  0  0  0
  -25.5646  -28.4539   25.0052 C   0  0  0  0  0  0  0  0  0  0  0  0
  -31.9016  -22.1347   24.9122 C   0  0  0  0  0  0  0  0  0  0  0  0
  -24.0673  -27.3532   27.6639 C   0  0  0  0  0  0  0  0  0  0  0  0
  -23.8548  -24.9611   30.0887 C   0  0  0  0  0  0  0  0  0  0  0  0
  -30.7119  -14.6852   20.6884 C   0  0  0  0  0  0  0  0  0  0  0  0
  -23.7028  -32.7588   22.9903 C   0  0  0  0  0  0  0  0  0  0  0  0
  -25.0748  -26.0678   24.3554 C   0  0  0  0  0  0  0  0  0  0  0  0
  -26.2540  -26.2485   27.0612 C   0  0  0  0  0  0  0  0  0  0  0  0
  -23.8404  -32.1821   24.3970 C   0  0  0  0  0  0  0  0  0  0  0  0
  -29.5870  -12.2739   18.3226 C   0  0  0  0  0  0  0  0  0  0  0  0
  -25.2587  -31.6705   24.6279 C   0  0  0  0  0  0  0  0  0  0  0  0
  -28.1427  -11.9967   18.7462 C   0  0  0  0  0  0  0  0  0  0  0  0
  -30.4984  -12.4983   19.5279 C   0  0  0  0  0  0  0  0  0  0  0  0
  -28.5915  -13.2445   20.8976 C   0  0  0  0  0  0  0  0  0  0  0  0
  -25.6036  -30.5405   23.6503 C   0  0  1  0  0  0  0  0  0  0  0  0
  -24.7519  -27.2242   25.2966 C   0  0  1  0  0  0  0  0  0  0  0  0
  -27.6228  -13.0762   19.7157 C   0  0  2  0  0  0  0  0  0  0  0  0
  -33.3113  -18.5114   26.2828 C   0  0  0  0  0  0  0  0  0  0  0  0
  -33.6906  -22.1826   23.1251 C   0  0  0  0  0  0  0  0  0  0  0  0
  -22.5549  -24.3529   32.1473 C   0  0  0  0  0  0  0  0  0  0  0  0
  -25.5788  -29.4811   29.2441 C   0  0  0  0  0  0  0  0  0  0  0  0
  -24.9971  -28.2392   31.3388 C   0  0  0  0  0  0  0  0  0  0  0  0
  -23.1861  -29.1898   29.9108 C   0  0  0  0  0  0  0  0  0  0  0  0
  -22.9132  -22.4262   28.8861 C   0  0  0  0  0  0  0  0  0  0  0  0
  -30.5909  -22.7461   24.4534 C   0  0  0  0  0  0  0  0  0  1  0  0
  -32.5021  -19.2304   25.2063 C   0  0  1  0  0  0  0  0  0  0  0  0
  -32.6731  -21.3364   23.8743 C   0  0  1  0  0  0  0  0  0  0  0  0
  -24.4596  -27.1584   29.1086 C   0  0  1  0  0  0  0  0  0  0  0  0
  -22.6704  -24.1880   30.6399 C   0  0  2  0  0  0  0  0  0  0  0  0
  -24.5694  -28.5042   29.8794 C   0  0  0  0  0  0  0  0  0  0  0  0
  -25.8184  -11.5031   20.3080 N   0  0  0  0  0  0  0  0  0  0  0  0
  -26.2076  -12.7827   20.1774 N   0  0  0  0  0  0  0  0  0  0  0  0
  -24.9767  -26.8874   26.7038 N   0  0  0  0  0  0  0  0  0  0  0  0
  -29.9446  -13.5370   20.3993 N   0  0  0  0  0  0  0  0  0  0  0  0
  -25.4602  -15.0179   20.4145 N   0  0  0  0  0  0  0  0  0  0  0  0
  -21.8473  -12.5801   21.5977 N   0  0  0  0  0  0  0  0  0  0  0  0
  -30.0691  -15.6187   21.5007 N   0  0  0  0  0  0  0  0  0  0  0  0
  -24.9911  -29.3000   24.0753 N   0  0  0  0  0  0  0  0  0  0  0  0
  -23.4911  -26.2242   29.6722 N   0  0  0  0  0  0  0  0  0  0  0  0
  -22.8126  -22.7360   30.3355 N   0  3  0  0  0  0  0  0  0  0  0  0
  -33.3925  -20.2177   24.5414 N   0  3  0  0  0  0  0  0  0  0  0  0
  -22.6437  -14.7118   21.3147 O   0  0  0  0  0  0  0  0  0  0  0  0
  -26.6322  -28.6234   25.5824 O   0  0  0  0  0  0  0  0  0  0  0  0
  -32.3054  -22.2670   26.0675 O   0  0  0  0  0  0  0  0  0  0  0  0
  -22.9902  -27.8921   27.3971 O   0  0  0  0  0  0  0  0  0  0  0  0
  -24.9900  -24.4929   30.0365 O   0  0  0  0  0  0  0  0  0  0  0  0
  -31.8447  -14.8421   20.2257 O   0  0  0  0  0  0  0  0  0  0  0  0
  -21.5230   -7.0200   21.7225 O   0  0  0  0  0  0  0  0  0  0  0  0
  -29.9770  -23.4762   25.5147 O   0  0  0  0  0  0  0  0  0  1  0  0
  -23.9013   -2.9600   24.5971 F   0  0  0  0  0  0  0  0  0  0  0  0
  -23.8145   -5.7809   20.7971 F   0  0  0  0  0  0  0  0  0  0  0  0
  -29.7021  -19.1113   24.7736 F   0  0  0  0  0  0  0  0  0  0  0  0
  -28.5453  -17.3959   23.0135 F   0  0  0  0  0  0  0  0  0  0  0  0
  1  2  1  0  0  0  0
  1  5  2  0  0  0  0
  2  6  2  0  0  0  0
  3 10  2  0  0  0  0
  3 17  1  0  0  0  0
  4 11  1  0  0  0  0
  4 17  2  0  0  0  0
  5 19  1  0  0  0  0
  6 21  1  0  0  0  0
  7 12  2  0  0  0  0
  7 20  1  0  0  0  0
  8  9  2  0  0  0  0
  8 23  1  0  0  0  0
  9 24  1  0  0  0  0
 10 25  1  0  0  0  0
 11 25  2  0  0  0  0
 12 26  1  0  0  0  0
 13 14  2  0  0  0  0
 13 27  1  0  0  0  0
 14 28  1  0  0  0  0
 15 22  1  0  0  0  0
 15 26  2  0  0  0  0
 16 28  2  0  0  0  0
 16 29  1  0  0  0  0
 17 32  1  0  0  0  0
 18 32  1  0  0  0  0
 18 33  2  0  0  0  0
 18 34  1  0  0  0  0
 19 21  2  0  0  0  0
 19 40  1  0  0  0  0
 20 22  2  0  0  0  0
 20 41  1  0  0  0  0
 21 49  1  0  0  0  0
 22 42  1  0  0  0  0
 23 30  2  0  0  0  0
 23 60  1  0  0  0  0
 24 31  2  0  0  0  0
 24 71  1  0  0  0  0
 25 82  1  0  0  0  0
 26 83  1  0  0  0  0
 27 29  2  0  0  0  0
 27 82  1  0  0  0  0
 28 84  1  0  0  0  0
 29 85  1  0  0  0  0
 30 31  1  0  0  0  0
 30 86  1  0  0  0  0
 31 87  1  0  0  0  0
 32 65  2  0  0  0  0
 33 66  1  0  0  0  0
 33 69  1  0  0  0  0
 34 70  1  0  0  0  0
 34 76  2  0  0  0  0
 35 50  1  0  0  0  0
 35 72  1  0  0  0  0
 35 77  2  0  0  0  0
 36 59  1  0  0  0  0
 36 61  1  0  0  0  0
 36 78  2  0  0  0  0
 37 62  1  0  0  0  0
 37 67  1  0  0  0  0
 37 79  2  0  0  0  0
 38 63  1  0  0  0  0
 38 73  1  0  0  0  0
 38 80  2  0  0  0  0
 39 68  1  0  0  0  0
 39 71  1  0  0  0  0
 39 81  2  0  0  0  0
 40 43  1  0  0  0  0
 41 50  1  0  0  0  0
 42 67  1  0  0  0  0
 43 45  1  0  0  0  0
 44 46  1  0  0  0  0
 44 47  1  0  0  0  0
 45 49  1  0  0  0  0
 46 51  1  0  0  0  0
 47 68  1  0  0  0  0
 48 51  1  0  0  0  0
 48 68  1  0  0  0  0
 49 72  1  0  0  0  0
 50 67  1  0  0  0  0
 51 66  1  0  0  0  0
 52 60  1  0  0  0  0
 53 61  1  0  0  0  0
 54 63  1  0  0  0  0
 55 64  1  0  0  0  0
 56 64  1  0  0  0  0
 57 64  1  0  0  0  0
 58 74  1  0  0  0  0
 59 83  1  0  0  0  0
 60 75  1  0  0  0  0
 61 75  1  0  0  0  0
 62 64  1  0  0  0  0
 62 73  1  0  0  0  0
 63 74  1  0  0  0  0
 65 66  1  0  0  0  0
M  CHG  2  74   1  75   1
M  ISO  4  39 100  59 101  71 100  83 101
M  END
> <Batch ID>
0171

> <Smiles>
CNC(C)C(=O)NC(C(=O)N1Cc2cc([101O:1][101CH2:1]C(=O)C(C)NC(C)c3ccc([100NH:0][100C:0](=O)N4CCCC(n5nc(-c6ccc(Oc7ccc(F)cc7F)cc6)c(C(N)=O)c5N)C4)c(F)c3F)ccc2CC1C(=O)NC1CCCc2ccccc21)C(C)(C)C

> <Shape>
0.228

> <Color>
0.202

> <Negative vol penalty>
0.000

$$$$

  -OEChem-04052304233D

 84 92  0     1  0  0  0  0  0999 V2000
  -32.0160  -34.1868   20.0453 C   0  0  0  0  0  0  0  0  0  0  0  0
  -31.4602  -32.9124   19.9979 C   0  0  0  0  0  0  0  0  0  0  0  0
  -32.2513  -21.3318   21.2102 C   0  0  0  0  0  0  0  0  0  0  0  0
  -24.3942   -9.0312   22.1791 C   0  0  0  0  0  0  0  0  0  0  0  0
  -24.1145   -8.7204   19.7996 C   0  0  0  0  0  0  0  0  0  0  0  0
  -31.9482  -19.9837   21.4003 C   0  0  0  0  0  0  0  0  0  0  0  0
  -31.6187  -35.0830   21.0367 C   0  0  0  0  0  0  0  0  0  0  0  0
  -30.5075  -32.5329   20.9428 C   0  0  0  0  0  0  0  0  0  0  0  0
  -26.5639  -30.1276   18.8673 C   0  0  0  0  0  0  0  0  0  0  0  0
  -31.2760  -22.2047   20.7277 C   0  0  0  0  0  0  0  0  0  0  0  0
  -23.2886   -8.2143   22.4158 C   0  0  0  0  0  0  0  0  0  0  0  0
  -23.0089   -7.9035   20.0363 C   0  0  0  0  0  0  0  0  0  0  0  0
  -26.7443  -28.7889   18.5223 C   0  0  0  0  0  0  0  0  0  0  0  0
  -22.6045   -4.9035   22.4738 C   0  0  0  0  0  0  0  0  0  0  0  0
  -22.7154   -3.9359   23.4724 C   0  0  0  0  0  0  0  0  0  0  0  0
  -29.6946  -20.3811   20.6253 C   0  0  0  0  0  0  0  0  0  0  0  0
  -25.6135  -28.1212   20.5458 C   0  0  0  0  0  0  0  0  0  0  0  0
  -20.8700   -4.9485   24.6584 C   0  0  0  0  0  0  0  0  0  0  0  0
  -24.8071   -9.2842   20.8710 C   0  0  0  0  0  0  0  0  0  0  0  0
  -30.6699  -19.5083   21.1078 C   0  0  0  0  0  0  0  0  0  0  0  0
  -27.2944   -9.7287   20.5196 C   0  0  0  0  0  0  0  0  0  0  0  0
  -30.6535  -34.7176   21.9884 C   0  0  0  0  0  0  0  0  0  0  0  0
  -25.9154  -30.4737   20.0616 C   0  0  0  0  0  0  0  0  0  0  0  0
  -30.0978  -33.4246   21.9487 C   0  0  0  0  0  0  0  0  0  0  0  0
  -25.4238  -29.4651   20.9025 C   0  0  0  0  0  0  0  0  0  0  0  0
  -29.9977  -21.7293   20.4352 C   0  0  0  0  0  0  0  0  0  0  0  0
  -22.5960   -7.6505   21.3444 C   0  0  0  0  0  0  0  0  0  0  0  0
  -26.2717  -27.7855   19.3630 C   0  0  0  0  0  0  0  0  0  0  0  0
  -21.6265   -5.8937   22.5676 C   0  0  0  0  0  0  0  0  0  0  0  0
  -21.8481   -3.9584   24.5646 C   0  0  0  0  0  0  0  0  0  0  0  0
  -20.7593   -5.9161   23.6598 C   0  0  0  0  0  0  0  0  0  0  0  0
  -25.9488  -10.1284   20.6258 C   0  0  0  0  0  0  0  0  0  0  0  0
  -27.9815  -10.8947   20.2857 C   0  0  0  0  0  0  0  0  0  0  0  0
  -30.3550  -18.1023   21.3069 C   0  0  0  0  0  0  0  0  0  0  0  0
  -29.1131  -17.5883   21.4350 C   0  0  0  0  0  0  0  0  0  0  0  0
  -27.5849  -25.8521   19.4549 C   0  0  0  0  0  0  0  0  0  1  0  0
  -27.8717   -8.4204   20.6231 C   0  0  0  0  0  0  0  0  0  0  0  0
  -27.8597  -24.5703   19.1845 C   0  0  0  0  0  0  0  0  0  0  0  0
  -28.9560  -16.1320   21.6226 C   0  0  0  0  0  0  0  0  0  0  0  0
  -29.1363  -23.9758   19.6993 C   0  0  0  0  0  0  0  0  0  0  0  0
  -26.7535  -32.0426   22.6959 C   0  0  0  0  0  0  0  0  0  0  0  0
  -23.6160  -31.6854   23.4383 C   0  0  0  0  0  0  0  0  0  0  0  0
  -20.7177  -29.9359   23.0070 C   0  0  0  0  0  0  0  0  0  0  0  0
  -30.2904  -35.7043   23.0697 C   0  0  0  0  0  0  0  0  0  0  0  0
  -25.7050  -31.9226   20.4063 C   0  0  0  0  0  0  0  0  0  0  0  0
  -24.7029  -29.7840   22.1859 C   0  0  0  0  0  0  0  0  0  0  0  0
  -29.0007  -35.3529   23.8068 C   0  0  0  0  0  0  0  0  0  0  0  0
  -26.3436  -15.5210   19.1258 C   0  0  0  0  0  0  0  0  0  0  0  0
  -28.9888  -33.8758   24.1875 C   0  0  0  0  0  0  0  0  0  0  0  0
  -26.0894  -14.0293   19.3257 C   0  0  0  0  0  0  0  0  0  0  0  0
  -26.6972  -16.2215   20.4368 C   0  0  0  0  0  0  0  0  0  0  0  0
  -27.5863  -14.1004   21.3591 C   0  0  0  0  0  0  0  0  0  0  0  0
  -29.0434  -32.9844   22.9410 C   0  0  1  0  0  0  0  0  0  0  0  0
  -25.4855  -32.1561   21.8978 C   0  0  1  0  0  0  0  0  0  0  0  0
  -27.2749  -13.3668   20.0452 C   0  0  1  0  0  0  0  0  0  0  0  0
  -18.3304  -29.8584   23.7764 C   0  0  0  0  0  0  0  0  0  0  0  0
  -24.5108  -30.4538   26.0826 C   0  0  0  0  0  0  0  0  0  0  0  0
  -22.1925  -29.5525   26.3673 C   0  0  0  0  0  0  0  0  0  0  0  0
  -22.5669  -32.0166   26.2646 C   0  0  0  0  0  0  0  0  0  0  0  0
  -19.6980  -30.3877   20.2656 C   0  0  0  0  0  0  0  0  0  0  0  0
  -22.8001  -30.6386   24.1577 C   0  0  1  0  0  0  0  0  0  0  0  0
  -19.2967  -30.3931   22.7309 C   0  0  2  0  0  0  0  0  0  0  0  0
  -23.0328  -30.6590   25.6949 C   0  0  0  0  0  0  0  0  0  0  0  0
  -25.7884  -11.4455   20.4721 N   0  0  0  0  0  0  0  0  0  0  0  0
  -27.0423  -11.8835   20.2671 N   0  0  0  0  0  0  0  0  0  0  0  0
  -27.7947  -15.5353   21.1348 N   0  0  0  0  0  0  0  0  0  0  0  0
  -24.5275  -31.2154   22.4822 N   0  0  0  0  0  0  0  0  0  0  0  0
  -29.2914  -11.1605   20.0963 N   0  0  0  0  0  0  0  0  0  0  0  0
  -27.0220   -7.3325   20.8659 N   0  0  0  0  0  0  0  0  0  0  0  0
  -29.0080  -22.6159   19.9465 N   0  0  0  0  0  0  0  0  0  0  0  0
  -27.7444  -32.9233   22.3060 N   0  0  0  0  0  0  0  0  0  0  0  0
  -21.4135  -30.8576   23.7604 N   0  0  0  0  0  0  0  0  0  0  0  0
  -18.8504  -29.9169   21.3912 N   0  3  0  0  0  0  0  0  0  0  0  0
  -29.1063   -8.2240   20.5202 O   0  0  0  0  0  0  0  0  0  0  0  0
  -29.8617  -15.5326   22.2049 O   0  0  0  0  0  0  0  0  0  0  0  0
  -30.1352  -24.6692   19.8580 O   0  0  0  0  0  0  0  0  0  0  0  0
  -26.8268  -31.2182   23.5996 O   0  0  0  0  0  0  0  0  0  0  0  0
  -23.4457  -32.8766   23.7094 O   0  0  0  0  0  0  0  0  0  0  0  0
  -21.1645  -28.8663   22.5985 O   0  0  0  0  0  0  0  0  0  0  0  0
  -27.0110  -23.7686   18.4486 O   0  0  0  0  0  0  0  0  0  0  0  0
  -21.5172   -6.8531   21.5751 O   0  0  0  0  0  0  0  0  0  0  0  0
  -26.4471  -26.4780   19.0289 O   0  0  0  0  0  0  0  0  0  1  0  0
  -21.9537   -3.0282   25.5227 F   0  0  0  0  0  0  0  0  0  0  0  0
  -19.8169   -6.8642   23.7548 F   0  0  0  0  0  0  0  0  0  0  0  0
  1  2  1  0  0  0  0
  1  7  2  0  0  0  0
  2  8  2  0  0  0  0
  3  6  1  0  0  0  0
  3 10  2  0  0  0  0
  4 11  2  0  0  0  0
  4 19  1  0  0  0  0
  5 12  1  0  0  0  0
  5 19  2  0  0  0  0
  6 20  2  0  0  0  0
  7 22  1  0  0  0  0
  8 24  1  0  0  0  0
  9 13  2  0  0  0  0
  9 23  1  0  0  0  0
 10 26  1  0  0  0  0
 11 27  1  0  0  0  0
 12 27  2  0  0  0  0
 13 28  1  0  0  0  0
 14 15  2  0  0  0  0
 14 29  1  0  0  0  0
 15 30  1  0  0  0  0
 16 20  1  0  0  0  0
 16 26  2  0  0  0  0
 17 25  1  0  0  0  0
 17 28  2  0  0  0  0
 18 30  2  0  0  0  0
 18 31  1  0  0  0  0
 19 32  1  0  0  0  0
 20 34  1  0  0  0  0
 21 32  1  0  0  0  0
 21 33  2  0  0  0  0
 21 37  1  0  0  0  0
 22 24  2  0  0  0  0
 22 44  1  0  0  0  0
 23 25  2  0  0  0  0
 23 45  1  0  0  0  0
 24 53  1  0  0  0  0
 25 46  1  0  0  0  0
 26 70  1  0  0  0  0
 27 81  1  0  0  0  0
 28 82  1  0  0  0  0
 29 31  2  0  0  0  0
 29 81  1  0  0  0  0
 30 83  1  0  0  0  0
 31 84  1  0  0  0  0
 32 64  2  0  0  0  0
 33 65  1  0  0  0  0
 33 68  1  0  0  0  0
 34 35  2  0  0  0  0
 35 39  1  0  0  0  0
 36 38  2  0  0  0  0
 36 82  1  0  0  0  0
 37 69  1  0  0  0  0
 37 74  2  0  0  0  0
 38 40  1  0  0  0  0
 38 80  1  0  0  0  0
 39 66  1  0  0  0  0
 39 75  2  0  0  0  0
 40 70  1  0  0  0  0
 40 76  2  0  0  0  0
 41 54  1  0  0  0  0
 41 71  1  0  0  0  0
 41 77  2  0  0  0  0
 42 61  1  0  0  0  0
 42 67  1  0  0  0  0
 42 78  2  0  0  0  0
 43 62  1  0  0  0  0
 43 72  1  0  0  0  0
 43 79  2  0  0  0  0
 44 47  1  0  0  0  0
 45 54  1  0  0  0  0
 46 67  1  0  0  0  0
 47 49  1  0  0  0  0
 48 50  1  0  0  0  0
 48 51  1  0  0  0  0
 49 53  1  0  0  0  0
 50 55  1  0  0  0  0
 51 66  1  0  0  0  0
 52 55  1  0  0  0  0
 52 66  1  0  0  0  0
 53 71  1  0  0  0  0
 54 67  1  0  0  0  0
 55 65  1  0  0  0  0
 56 62  1  0  0  0  0
 57 63  1  0  0  0  0
 58 63  1  0  0  0  0
 59 63  1  0  0  0  0
 60 73  1  0  0  0  0
 61 63  1  0  0  0  0
 61 72  1  0  0  0  0
 62 73  1  0  0  0  0
 64 65  1  0  0  0  0
M  CHG  1  73   1
M  ISO  4  35 100  36 101  39 100  82 101
M  END
> <Batch ID>
0171

> <Smiles>
CNC(C)C(=O)NC(C(=O)N1Cc2cc([101O:1][101CH2:1]C(=O)C(=O)Nc3cccc(C=[100CH:0][100C:0](=O)N4CCCC(n5nc(-c6ccc(Oc7ccc(F)cc7F)cc6)c(C(N)=O)c5N)C4)c3)ccc2CC1C(=O)NC1CCCc2ccccc21)C(C)(C)C

> <Shape>
0.275

> <Color>
0.098

> <Negative vol penalty>
0.000

$$$$

  -OEChem-04052304233D

 90 98  0     1  0  0  0  0  0999 V2000
  -13.9739  -32.0363   14.4853 C   0  0  0  0  0  0  0  0  0  0  0  0
  -14.6483  -30.8751   14.1215 C   0  0  0  0  0  0  0  0  0  0  0  0
  -23.2640   -9.8340   19.9006 C   0  0  0  0  0  0  0  0  0  0  0  0
  -23.7303   -9.9326   22.2692 C   0  0  0  0  0  0  0  0  0  0  0  0
  -27.7423  -19.0497   16.8728 C   0  0  0  0  0  0  0  0  0  0  0  0
  -14.5858  -32.9605   15.3311 C   0  0  0  0  0  0  0  0  0  0  0  0
  -15.9355  -30.6380   14.6026 C   0  0  0  0  0  0  0  0  0  0  0  0
  -18.3817  -25.2148   16.0554 C   0  0  0  0  0  0  0  0  0  0  0  0
  -22.5282   -8.6650   20.0941 C   0  0  0  0  0  0  0  0  0  0  0  0
  -22.9944   -8.7635   22.4627 C   0  0  0  0  0  0  0  0  0  0  0  0
  -19.2265  -24.3505   15.3604 C   0  0  0  0  0  0  0  0  0  0  0  0
  -19.7405   -7.8786   22.6854 C   0  0  0  0  0  0  0  0  0  0  0  0
  -18.8444   -7.8481   23.7538 C   0  0  0  0  0  0  0  0  0  0  0  0
  -26.6231  -19.7813   16.4913 C   0  0  0  0  0  0  0  0  0  0  0  0
  -21.1286  -25.3076   16.4940 C   0  0  0  0  0  0  0  0  0  0  0  0
  -20.0390   -5.9744   24.7022 C   0  0  0  0  0  0  0  0  0  0  0  0
  -23.8652  -10.4678   20.9882 C   0  0  0  0  0  0  0  0  0  0  0  0
  -27.9621  -17.7902   16.3264 C   0  0  0  0  0  0  0  0  0  0  0  0
  -24.1466  -12.9982   20.8284 C   0  0  0  0  0  0  0  0  0  0  0  0
  -15.8773  -32.7300   15.8305 C   0  0  0  0  0  0  0  0  0  0  0  0
  -18.9060  -26.1411   16.9684 C   0  0  0  0  0  0  0  0  0  0  0  0
  -16.5657  -31.5607   15.4548 C   0  0  0  0  0  0  0  0  0  0  0  0
  -20.2881  -26.1809   17.2012 C   0  0  0  0  0  0  0  0  0  0  0  0
  -22.3934   -8.1297   21.3751 C   0  0  0  0  0  0  0  0  0  0  0  0
  -20.6004  -24.3987   15.5775 C   0  0  0  0  0  0  0  0  0  0  0  0
  -20.7859   -6.9570   22.6253 C   0  0  0  0  0  0  0  0  0  0  0  0
  -18.9936   -6.8960   24.7623 C   0  0  0  0  0  0  0  0  0  0  0  0
  -20.9351   -6.0049   23.6337 C   0  0  0  0  0  0  0  0  0  0  0  0
  -24.6259  -11.6752   20.7889 C   0  0  0  0  0  0  0  0  0  0  0  0
  -25.7610  -19.2131   15.5672 C   0  0  0  0  0  0  0  0  0  0  0  0
  -27.0400  -17.3111   15.4099 C   0  0  0  0  0  0  0  0  0  0  0  0
  -25.2536  -13.7721   20.5792 C   0  0  0  0  0  0  0  0  0  0  0  0
  -29.1610  -17.0167   16.7401 C   0  0  0  0  0  0  0  0  0  0  0  0
  -22.8193  -13.4843   21.0690 C   0  0  0  0  0  0  0  0  0  0  0  0
  -18.9394  -29.3127   17.1768 C   0  0  0  0  0  0  0  0  0  0  0  0
  -23.0714  -21.7867   15.0933 C   0  0  0  0  0  0  0  0  0  0  0  0
  -20.2988  -28.7197   20.0617 C   0  0  0  0  0  0  0  0  0  0  0  0
  -22.0714  -26.5812   22.0445 C   0  0  0  0  0  0  0  0  0  0  0  0
  -29.8902  -14.8814   17.7563 C   0  0  0  0  0  0  0  0  0  0  0  0
  -16.5161  -33.7806   16.7040 C   0  0  0  0  0  0  0  0  0  0  0  0
  -17.9788  -27.0483   17.7299 C   0  0  0  0  0  0  0  0  0  0  0  0
  -20.8991  -27.1430   18.1859 C   0  0  0  0  0  0  0  0  0  0  0  0
  -17.7360  -33.2760   17.4705 C   0  0  0  0  0  0  0  0  0  0  0  0
  -30.1629  -12.5403   20.3910 C   0  0  0  0  0  0  0  0  0  0  0  0
  -18.6609  -32.4916   16.5452 C   0  0  0  0  0  0  0  0  0  0  0  0
  -28.7073  -12.2190   20.7407 C   0  0  0  0  0  0  0  0  0  0  0  0
  -30.3576  -12.7252   18.8867 C   0  0  0  0  0  0  0  0  0  0  0  0
  -27.9979  -13.3653   18.6036 C   0  0  0  0  0  0  0  0  0  0  0  0
  -17.9534  -31.2560   15.9759 C   0  0  1  0  0  0  0  0  0  0  0  0
  -18.6692  -28.3028   18.2561 C   0  0  1  0  0  0  0  0  0  0  0  0
  -27.7364  -13.2393   20.1132 C   0  0  1  0  0  0  0  0  0  0  0  0
  -23.0638  -26.3899   24.3415 C   0  0  0  0  0  0  0  0  0  0  0  0
  -25.8260  -13.5241   12.3300 C   0  0  0  0  0  0  0  0  0  0  0  0
  -28.2217  -14.1688   12.7144 C   0  0  0  0  0  0  0  0  0  0  0  0
  -26.9061  -13.0879   14.5437 C   0  0  0  0  0  0  0  0  0  0  0  0
  -22.5748  -30.5740   19.2302 C   0  0  0  0  0  0  0  0  0  0  0  0
  -23.9439  -29.6151   21.0941 C   0  0  0  0  0  0  0  0  0  0  0  0
  -21.8292  -30.8365   21.6029 C   0  0  0  0  0  0  0  0  0  0  0  0
  -20.3938  -24.2329   22.7000 C   0  0  0  0  0  0  0  0  0  0  0  0
  -24.3511  -21.2665   15.7129 C   0  0  0  0  0  0  0  0  0  0  0  0
  -22.6319  -23.1624   15.5556 C   0  0  0  0  0  0  0  0  0  1  0  0
  -26.3689  -15.4430   13.8980 C   0  0  0  0  0  0  0  0  0  0  0  0
  -21.7119  -28.5362   20.5602 C   0  0  1  0  0  0  0  0  0  0  0  0
  -21.8485  -26.1113   23.4707 C   0  0  2  0  0  0  0  0  0  0  0  0
  -26.8292  -14.0699   13.3600 C   0  0  0  0  0  0  0  0  0  0  0  0
  -22.5039  -29.8735   20.6018 C   0  0  0  0  0  0  0  0  0  0  0  0
  -25.9354  -11.6085   20.5344 N   0  0  0  0  0  0  0  0  0  0  0  0
  -25.9412  -17.9925   15.0147 N   0  0  0  0  0  0  0  0  0  0  0  0
  -26.2883  -12.8994   20.4117 N   0  0  0  0  0  0  0  0  0  0  0  0
  -19.9517  -28.0138   18.9011 N   0  0  0  0  0  0  0  0  0  0  0  0
  -29.4079  -13.7133   18.3720 N   0  0  0  0  0  0  0  0  0  0  0  0
  -25.4331  -15.1070   20.4891 N   0  0  0  0  0  0  0  0  0  0  0  0
  -21.7997  -12.5527   21.3077 N   0  0  0  0  0  0  0  0  0  0  0  0
  -24.6495  -19.9557   15.1953 N   0  0  0  0  0  0  0  0  0  0  0  0
  -27.2569  -16.0276   14.8491 N   0  0  0  0  0  0  0  0  0  0  0  0
  -28.9047  -15.7819   17.3368 N   0  0  0  0  0  0  0  0  0  0  0  0
  -17.9027  -30.2017   16.9659 N   0  0  0  0  0  0  0  0  0  0  0  0
  -21.6054  -27.8644   21.8509 N   0  0  0  0  0  0  0  0  0  0  0  0
  -21.5775  -24.6461   23.4969 N   0  3  0  0  0  0  0  0  0  0  0  0
  -30.2769  -17.4727   16.5062 O   0  0  0  0  0  0  0  0  0  0  0  0
  -22.5425  -14.7076   21.0560 O   0  0  0  0  0  0  0  0  0  0  0  0
  -20.0097  -29.2882   16.5807 O   0  0  0  0  0  0  0  0  0  0  0  0
  -22.4226  -21.1445   14.2684 O   0  0  0  0  0  0  0  0  0  0  0  0
  -19.5291  -29.4564   20.6834 O   0  0  0  0  0  0  0  0  0  0  0  0
  -22.6088  -25.8815   21.1889 O   0  0  0  0  0  0  0  0  0  0  0  0
  -31.0948  -15.1202   17.6255 O   0  0  0  0  0  0  0  0  0  0  0  0
  -21.6752   -6.9891   21.5643 O   0  0  0  0  0  0  0  0  0  0  0  0
  -21.4273  -23.5566   14.9000 O   0  0  0  0  0  0  0  0  0  1  0  0
  -18.1339   -6.8678   25.7890 F   0  0  0  0  0  0  0  0  0  0  0  0
  -21.9382   -5.1177   23.5821 F   0  0  0  0  0  0  0  0  0  0  0  0
  1  2  1  0  0  0  0
  1  6  2  0  0  0  0
  2  7  2  0  0  0  0
  3  9  2  0  0  0  0
  3 17  1  0  0  0  0
  4 10  1  0  0  0  0
  4 17  2  0  0  0  0
  5 14  2  0  0  0  0
  5 18  1  0  0  0  0
  6 20  1  0  0  0  0
  7 22  1  0  0  0  0
  8 11  2  0  0  0  0
  8 21  1  0  0  0  0
  9 24  1  0  0  0  0
 10 24  2  0  0  0  0
 11 25  1  0  0  0  0
 12 13  2  0  0  0  0
 12 26  1  0  0  0  0
 13 27  1  0  0  0  0
 14 30  1  0  0  0  0
 15 23  1  0  0  0  0
 15 25  2  0  0  0  0
 16 27  2  0  0  0  0
 16 28  1  0  0  0  0
 17 29  1  0  0  0  0
 18 31  2  0  0  0  0
 18 33  1  0  0  0  0
 19 29  1  0  0  0  0
 19 32  2  0  0  0  0
 19 34  1  0  0  0  0
 20 22  2  0  0  0  0
 20 40  1  0  0  0  0
 21 23  2  0  0  0  0
 21 41  1  0  0  0  0
 22 49  1  0  0  0  0
 23 42  1  0  0  0  0
 24 87  1  0  0  0  0
 25 88  1  0  0  0  0
 26 28  2  0  0  0  0
 26 87  1  0  0  0  0
 27 89  1  0  0  0  0
 28 90  1  0  0  0  0
 29 67  2  0  0  0  0
 30 68  2  0  0  0  0
 30 74  1  0  0  0  0
 31 68  1  0  0  0  0
 31 75  1  0  0  0  0
 32 69  1  0  0  0  0
 32 72  1  0  0  0  0
 33 76  1  0  0  0  0
 33 80  2  0  0  0  0
 34 73  1  0  0  0  0
 34 81  2  0  0  0  0
 35 50  1  0  0  0  0
 35 77  1  0  0  0  0
 35 82  2  0  0  0  0
 36 60  1  0  0  0  0
 36 61  1  0  0  0  0
 36 83  2  0  0  0  0
 37 63  1  0  0  0  0
 37 70  1  0  0  0  0
 37 84  2  0  0  0  0
 38 64  1  0  0  0  0
 38 78  1  0  0  0  0
 38 85  2  0  0  0  0
 39 71  1  0  0  0  0
 39 76  1  0  0  0  0
 39 86  2  0  0  0  0
 40 43  1  0  0  0  0
 41 50  1  0  0  0  0
 42 70  1  0  0  0  0
 43 45  1  0  0  0  0
 44 46  1  0  0  0  0
 44 47  1  0  0  0  0
 45 49  1  0  0  0  0
 46 51  1  0  0  0  0
 47 71  1  0  0  0  0
 48 51  1  0  0  0  0
 48 71  1  0  0  0  0
 49 77  1  0  0  0  0
 50 70  1  0  0  0  0
 51 69  1  0  0  0  0
 52 64  1  0  0  0  0
 53 65  1  0  0  0  0
 54 65  1  0  0  0  0
 55 65  1  0  0  0  0
 56 66  1  0  0  0  0
 57 66  1  0  0  0  0
 58 66  1  0  0  0  0
 59 79  1  0  0  0  0
 60 74  1  0  0  0  0
 61 88  1  0  0  0  0
 62 65  1  0  0  0  0
 62 75  1  0  0  0  0
 63 66  1  0  0  0  0
 63 78  1  0  0  0  0
 64 79  1  0  0  0  0
 67 69  1  0  0  0  0
M  CHG  1  79   1
M  ISO  4  39 100  61 101  76 100  88 101
M  END
> <Batch ID>
0171

> <Smiles>
CNC(C)C(=O)NC(C(=O)N1Cc2cc([101O:1][101CH2:1]C(=O)CNc3ccc(C(=O)[100NH:0][100C:0](=O)N4CCCC(n5nc(-c6ccc(Oc7ccc(F)cc7F)cc6)c(C(N)=O)c5N)C4)c(NCC(C)(C)C)n3)ccc2CC1C(=O)NC1CCCc2ccccc21)C(C)(C)C

> <Shape>
0.171

> <Color>
0.161

> <Negative vol penalty>
0.000

$$$$

  -OEChem-04052304233D

 84 92  0     1  0  0  0  0  0999 V2000
  -35.1479  -28.4472   20.5791 C   0  0  0  0  0  0  0  0  0  0  0  0
  -33.9465  -27.8719   20.1781 C   0  0  0  0  0  0  0  0  0  0  0  0
  -24.6405   -8.6060   20.7204 C   0  0  0  0  0  0  0  0  0  0  0  0
  -22.7974  -10.0991   20.2612 C   0  0  0  0  0  0  0  0  0  0  0  0
  -35.2223  -29.1287   21.7933 C   0  0  0  0  0  0  0  0  0  0  0  0
  -32.8188  -27.9767   20.9916 C   0  0  0  0  0  0  0  0  0  0  0  0
  -26.9981  -28.5116   19.1644 C   0  0  0  0  0  0  0  0  0  0  0  0
  -23.7414   -7.6237   21.1353 C   0  0  0  0  0  0  0  0  0  0  0  0
  -21.8983   -9.1167   20.6760 C   0  0  0  0  0  0  0  0  0  0  0  0
  -25.9671  -27.5823   19.0326 C   0  0  0  0  0  0  0  0  0  0  0  0
  -21.9072   -6.9289   23.8880 C   0  0  0  0  0  0  0  0  0  0  0  0
  -22.1996   -6.2391   25.0645 C   0  0  0  0  0  0  0  0  0  0  0  0
  -25.1466  -28.1917   21.2177 C   0  0  0  0  0  0  0  0  0  0  0  0
  -22.2416   -4.1598   23.8350 C   0  0  0  0  0  0  0  0  0  0  0  0
  -25.1617  -19.4469   22.4006 C   0  0  0  0  0  0  0  0  0  0  0  0
  -24.1685   -9.8438   20.2834 C   0  0  0  0  0  0  0  0  0  0  0  0
  -25.5890  -11.0663   18.5527 C   0  0  0  0  0  0  0  0  0  0  0  0
  -34.0925  -29.2502   22.6175 C   0  0  0  0  0  0  0  0  0  0  0  0
  -27.1176  -29.2815   20.3303 C   0  0  0  0  0  0  0  0  0  0  0  0
  -32.8784  -28.6592   22.2186 C   0  0  0  0  0  0  0  0  0  0  0  0
  -26.1784  -29.1319   21.3607 C   0  0  0  0  0  0  0  0  0  0  0  0
  -22.3703   -7.8790   21.1130 C   0  0  0  0  0  0  0  0  0  0  0  0
  -25.0429  -27.4201   20.0605 C   0  0  0  0  0  0  0  0  0  0  0  0
  -21.7820   -6.2342   22.6849 C   0  0  0  0  0  0  0  0  0  0  0  0
  -22.3668   -4.8545   25.0380 C   0  0  0  0  0  0  0  0  0  0  0  0
  -21.9493   -4.8496   22.6584 C   0  0  0  0  0  0  0  0  0  0  0  0
  -25.0969  -10.8592   19.8553 C   0  0  0  0  0  0  0  0  0  0  0  0
  -24.0864  -20.2899   22.0618 C   0  0  0  0  0  0  0  0  0  0  0  0
  -24.7927  -18.2120   21.9259 C   0  0  0  0  0  0  0  0  0  0  0  0
  -26.4317  -12.1444   18.6714 C   0  0  0  0  0  0  0  0  0  0  0  0
  -25.3094  -10.3485   17.3435 C   0  0  0  0  0  0  0  0  0  0  0  0
  -23.9562  -21.7437   22.3385 C   0  0  0  0  0  0  0  0  0  0  0  0
  -29.3226  -29.5891   22.5990 C   0  0  0  0  0  0  0  0  0  0  0  0
  -23.0486  -24.5063   20.8649 C   0  0  0  0  0  0  0  0  0  0  0  0
  -27.3762  -31.9733   23.6235 C   0  0  0  0  0  0  0  0  0  0  0  0
  -24.2420  -33.3211   23.7057 C   0  0  0  0  0  0  0  0  0  0  0  0
  -26.7146  -16.6990   22.5290 C   0  0  0  0  0  0  0  0  0  0  0  0
  -34.2335  -29.9555   23.9431 C   0  0  0  0  0  0  0  0  0  0  0  0
  -28.2196  -30.2986   20.4458 C   0  0  0  0  0  0  0  0  0  0  0  0
  -26.2507  -29.9484   22.6242 C   0  0  0  0  0  0  0  0  0  0  0  0
  -32.8976  -30.3433   24.5719 C   0  0  0  0  0  0  0  0  0  0  0  0
  -29.2854  -14.3367   21.8312 C   0  0  0  0  0  0  0  0  0  0  0  0
  -31.9202  -29.1737   24.5127 C   0  0  0  0  0  0  0  0  0  0  0  0
  -28.5489  -13.1984   21.1213 C   0  0  0  0  0  0  0  0  0  0  0  0
  -28.4373  -14.9561   22.9406 C   0  0  0  0  0  0  0  0  0  0  0  0
  -26.3603  -14.2527   21.8180 C   0  0  0  0  0  0  0  0  0  0  0  0
  -31.6270  -28.7727   23.0619 C   0  0  1  0  0  0  0  0  0  0  0  0
  -28.5470  -30.6634   21.8905 C   0  0  1  0  0  0  0  0  0  0  0  0
  -27.1497  -13.6403   20.6495 C   0  0  2  0  0  0  0  0  0  0  0  0
  -22.9531  -35.2540   24.6543 C   0  0  0  0  0  0  0  0  0  0  0  0
  -27.3718  -30.6241   26.3602 C   0  0  0  0  0  0  0  0  0  0  0  0
  -25.3759  -32.0102   26.9629 C   0  0  0  0  0  0  0  0  0  0  0  0
  -27.5457  -33.1180   26.4269 C   0  0  0  0  0  0  0  0  0  0  0  0
  -22.7564  -17.3743   20.7116 C   0  0  0  0  0  0  0  0  0  0  0  0
  -23.5330  -34.3206   21.0117 C   0  0  0  0  0  0  0  0  0  0  0  0
  -22.5236  -23.7513   22.0674 C   0  0  0  0  0  0  0  0  0  0  0  0
  -23.5514  -25.9105   21.1340 C   0  0  0  0  0  0  0  0  0  1  0  0
  -26.1996  -32.0627   24.5650 C   0  0  1  0  0  0  0  0  0  0  0  0
  -23.7473  -34.7360   23.4653 C   0  0  2  0  0  0  0  0  0  0  0  0
  -26.6227  -31.9369   26.0559 C   0  0  0  0  0  0  0  0  0  0  0  0
  -25.5863  -11.7352   20.7368 N   0  0  0  0  0  0  0  0  0  0  0  0
  -23.1077  -19.6450   21.4213 N   0  0  0  0  0  0  0  0  0  0  0  0
  -26.3948  -12.5033   19.9868 N   0  0  0  0  0  0  0  0  0  0  0  0
  -23.5667  -18.3838   21.3537 N   0  0  0  0  0  0  0  0  0  0  0  0
  -27.3501  -30.9253   22.6924 N   0  0  0  0  0  0  0  0  0  0  0  0
  -27.1281  -15.3545   22.4191 N   0  0  0  0  0  0  0  0  0  0  0  0
  -27.1933  -12.8109   17.7780 N   0  0  0  0  0  0  0  0  0  0  0  0
  -24.4201   -9.2666   17.3992 N   0  0  0  0  0  0  0  0  0  0  0  0
  -25.4658  -16.9659   21.9686 N   0  0  0  0  0  0  0  0  0  0  0  0
  -22.7844  -22.3530   21.8967 N   0  0  0  0  0  0  0  0  0  0  0  0
  -30.6930  -29.7001   22.4601 N   0  0  0  0  0  0  0  0  0  0  0  0
  -25.5121  -33.3083   24.2421 N   0  0  0  0  0  0  0  0  0  0  0  0
  -22.8721  -34.7810   22.2600 N   0  3  0  0  0  0  0  0  0  0  0  0
  -25.8452  -10.6470   16.2493 O   0  0  0  0  0  0  0  0  0  0  0  0
  -24.8716  -22.3301   22.9100 O   0  0  0  0  0  0  0  0  0  0  0  0
  -28.7223  -28.7245   23.2264 O   0  0  0  0  0  0  0  0  0  0  0  0
  -23.0217  -24.0339   19.7288 O   0  0  0  0  0  0  0  0  0  0  0  0
  -28.2816  -32.8070   23.7061 O   0  0  0  0  0  0  0  0  0  0  0  0
  -23.5675  -32.3267   23.4471 O   0  0  0  0  0  0  0  0  0  0  0  0
  -27.4283  -17.5565   23.0556 O   0  0  0  0  0  0  0  0  0  0  0  0
  -21.4926   -6.9206   21.5175 O   0  0  0  0  0  0  0  0  0  0  0  0
  -24.0361  -26.5133   19.9348 O   0  0  0  0  0  0  0  0  0  1  0  0
  -22.6490   -4.1924   26.1677 F   0  0  0  0  0  0  0  0  0  0  0  0
  -21.8314   -4.1769   21.5054 F   0  0  0  0  0  0  0  0  0  0  0  0
  1  2  1  0  0  0  0
  1  5  2  0  0  0  0
  2  6  2  0  0  0  0
  3  8  2  0  0  0  0
  3 16  1  0  0  0  0
  4  9  1  0  0  0  0
  4 16  2  0  0  0  0
  5 18  1  0  0  0  0
  6 20  1  0  0  0  0
  7 10  2  0  0  0  0
  7 19  1  0  0  0  0
  8 22  1  0  0  0  0
  9 22  2  0  0  0  0
 10 23  1  0  0  0  0
 11 12  2  0  0  0  0
 11 24  1  0  0  0  0
 12 25  1  0  0  0  0
 13 21  1  0  0  0  0
 13 23  2  0  0  0  0
 14 25  2  0  0  0  0
 14 26  1  0  0  0  0
 15 28  1  0  0  0  0
 15 29  2  0  0  0  0
 16 27  1  0  0  0  0
 17 27  1  0  0  0  0
 17 30  2  0  0  0  0
 17 31  1  0  0  0  0
 18 20  2  0  0  0  0
 18 38  1  0  0  0  0
 19 21  2  0  0  0  0
 19 39  1  0  0  0  0
 20 47  1  0  0  0  0
 21 40  1  0  0  0  0
 22 81  1  0  0  0  0
 23 82  1  0  0  0  0
 24 26  2  0  0  0  0
 24 81  1  0  0  0  0
 25 83  1  0  0  0  0
 26 84  1  0  0  0  0
 27 61  2  0  0  0  0
 28 32  1  0  0  0  0
 28 62  2  0  0  0  0
 29 64  1  0  0  0  0
 29 69  1  0  0  0  0
 30 63  1  0  0  0  0
 30 67  1  0  0  0  0
 31 68  1  0  0  0  0
 31 74  2  0  0  0  0
 32 70  1  0  0  0  0
 32 75  2  0  0  0  0
 33 48  1  0  0  0  0
 33 71  1  0  0  0  0
 33 76  2  0  0  0  0
 34 56  1  0  0  0  0
 34 57  1  0  0  0  0
 34 77  2  0  0  0  0
 35 58  1  0  0  0  0
 35 65  1  0  0  0  0
 35 78  2  0  0  0  0
 36 59  1  0  0  0  0
 36 72  1  0  0  0  0
 36 79  2  0  0  0  0
 37 66  1  0  0  0  0
 37 69  1  0  0  0  0
 37 80  2  0  0  0  0
 38 41  1  0  0  0  0
 39 48  1  0  0  0  0
 40 65  1  0  0  0  0
 41 43  1  0  0  0  0
 42 44  1  0  0  0  0
 42 45  1  0  0  0  0
 43 47  1  0  0  0  0
 44 49  1  0  0  0  0
 45 66  1  0  0  0  0
 46 49  1  0  0  0  0
 46 66  1  0  0  0  0
 47 71  1  0  0  0  0
 48 65  1  0  0  0  0
 49 63  1  0  0  0  0
 50 59  1  0  0  0  0
 51 60  1  0  0  0  0
 52 60  1  0  0  0  0
 53 60  1  0  0  0  0
 54 64  1  0  0  0  0
 55 73  1  0  0  0  0
 56 70  1  0  0  0  0
 57 82  1  0  0  0  0
 58 60  1  0  0  0  0
 58 72  1  0  0  0  0
 59 73  1  0  0  0  0
 61 63  1  0  0  0  0
 62 64  1  0  0  0  0
M  CHG  1  73   1
M  ISO  4  37 100  57 101  69 100  82 101
M  END
> <Batch ID>
0171

> <Smiles>
CNC(C)C(=O)NC(C(=O)N1Cc2cc([101O:1][101CH2:1]C(=O)CNC(=O)c3cc([100NH:0][100C:0](=O)N4CCCC(n5nc(-c6ccc(Oc7ccc(F)cc7F)cc6)c(C(N)=O)c5N)C4)n(C)n3)ccc2CC1C(=O)NC1CCCc2ccccc21)C(C)(C)C

> <Shape>
0.214

> <Color>
0.118

> <Negative vol penalty>
0.000

$$$$

  -OEChem-04052304233D

 88 96  0     1  0  0  0  0  0999 V2000
  -24.3186  -22.3097   16.9012 C   0  0  0  0  0  0  0  0  0  0  0  0
  -25.2626  -21.3201   17.1559 C   0  0  0  0  0  0  0  0  0  0  0  0
  -27.0168  -29.7833   19.9713 C   0  0  0  0  0  0  0  0  0  0  0  0
  -25.6292  -28.1025   21.0138 C   0  0  0  0  0  0  0  0  0  0  0  0
  -23.1613  -22.3833   17.6752 C   0  0  0  0  0  0  0  0  0  0  0  0
  -25.0504  -20.4041   18.1857 C   0  0  0  0  0  0  0  0  0  0  0  0
  -26.1112  -15.6487   16.8050 C   0  0  0  0  0  0  0  0  0  0  0  0
  -25.8846  -30.5538   19.7066 C   0  0  0  0  0  0  0  0  0  0  0  0
  -24.4970  -28.8730   20.7491 C   0  0  0  0  0  0  0  0  0  0  0  0
  -27.4557  -15.2820   16.7657 C   0  0  0  0  0  0  0  0  0  0  0  0
  -21.2797  -30.5645   20.6691 C   0  0  0  0  0  0  0  0  0  0  0  0
  -20.3436  -30.7157   21.6920 C   0  0  0  0  0  0  0  0  0  0  0  0
  -27.2208  -14.2131   18.9155 C   0  0  0  0  0  0  0  0  0  0  0  0
  -29.9800  -19.4342   20.0412 C   0  0  0  0  0  0  0  0  0  0  0  0
  -27.7908  -18.9817   21.7102 C   0  0  0  0  0  0  0  0  0  0  0  0
  -22.0313  -31.7393   23.0852 C   0  0  0  0  0  0  0  0  0  0  0  0
  -26.8891  -28.5576   20.6249 C   0  0  0  0  0  0  0  0  0  0  0  0
  -28.8677  -27.8062   22.0491 C   0  0  0  0  0  0  0  0  0  0  0  0
  -22.9302  -21.4618   18.7087 C   0  0  0  0  0  0  0  0  0  0  0  0
  -25.3128  -15.3093   17.9067 C   0  0  0  0  0  0  0  0  0  0  0  0
  -23.8896  -20.4663   18.9751 C   0  0  0  0  0  0  0  0  0  0  0  0
  -25.8658  -14.5745   18.9652 C   0  0  0  0  0  0  0  0  0  0  0  0
  -29.9154  -18.2698   20.8065 C   0  0  0  0  0  0  0  0  0  0  0  0
  -28.9501  -20.3724   20.1105 C   0  0  0  0  0  0  0  0  0  0  0  0
  -28.8208  -18.0435   21.6410 C   0  0  0  0  0  0  0  0  0  0  0  0
  -24.6247  -30.0987   20.0954 C   0  0  0  0  0  0  0  0  0  0  0  0
  -28.0114  -14.5666   17.8223 C   0  0  0  0  0  0  0  0  0  0  0  0
  -22.5917  -31.0006   20.8542 C   0  0  0  0  0  0  0  0  0  0  0  0
  -20.7194  -31.3032   22.9000 C   0  0  0  0  0  0  0  0  0  0  0  0
  -27.8555  -20.1461   20.9449 C   0  0  0  0  0  0  0  0  0  0  0  0
  -22.9675  -31.5880   22.0623 C   0  0  0  0  0  0  0  0  0  0  0  0
  -28.0582  -27.7610   20.8982 C   0  0  0  0  0  0  0  0  0  0  0  0
  -29.8394  -26.8623   21.8226 C   0  0  0  0  0  0  0  0  0  0  0  0
  -28.7515  -28.6278   23.2183 C   0  0  0  0  0  0  0  0  0  0  0  0
  -23.6991  -16.9513   20.0984 C   0  0  0  0  0  0  0  0  0  0  0  0
  -22.6656  -14.0060   20.9811 C   0  0  0  0  0  0  0  0  0  0  0  0
  -23.2119  -10.6375   21.0279 C   0  0  0  0  0  0  0  0  0  0  0  0
  -31.6105  -15.4193   19.1635 C   0  0  0  0  0  0  0  0  0  0  0  0
  -30.0341  -21.9306   18.4543 C   0  0  0  0  0  0  0  0  0  0  0  0
  -21.6867  -21.6103   19.5491 C   0  0  0  0  0  0  0  0  0  0  0  0
  -23.8575  -15.6891   17.9217 C   0  0  0  0  0  0  0  0  0  0  0  0
  -25.0463  -14.1679   20.1617 C   0  0  0  0  0  0  0  0  0  0  0  0
  -21.3606  -20.3711   20.3787 C   0  0  0  0  0  0  0  0  0  0  0  0
  -32.2294  -24.7274   18.2639 C   0  0  0  0  0  0  0  0  0  0  0  0
  -22.6119  -19.8551   21.0822 C   0  0  0  0  0  0  0  0  0  0  0  0
  -31.4852  -25.8250   19.0278 C   0  0  0  0  0  0  0  0  0  0  0  0
  -31.2727  -23.8442   17.4648 C   0  0  0  0  0  0  0  0  0  0  0  0
  -29.4207  -24.3675   19.0028 C   0  0  0  0  0  0  0  0  0  0  0  0
  -23.6835  -19.4392   20.0673 C   0  0  1  0  0  0  0  0  0  0  0  0
  -23.2667  -15.7362   19.3275 C   0  0  1  0  0  0  0  0  0  0  0  0
  -30.3363  -25.2427   19.8743 C   0  0  2  0  0  0  0  0  0  0  0  0
  -32.3888  -17.8628   21.1361 C   0  0  0  0  0  0  0  0  0  0  0  0
  -22.2098   -8.4907   21.8551 C   0  0  0  0  0  0  0  0  0  0  0  0
  -32.1716  -13.5627   17.5556 C   0  0  0  0  0  0  0  0  0  0  0  0
  -32.5724  -15.9373   16.8977 C   0  0  0  0  0  0  0  0  0  0  0  0
  -23.5960  -14.6650   23.8113 C   0  0  0  0  0  0  0  0  0  0  0  0
  -23.4592  -12.2239   24.3500 C   0  0  0  0  0  0  0  0  0  0  0  0
  -21.4027  -13.4699   23.6859 C   0  0  0  0  0  0  0  0  0  0  0  0
  -22.9555   -9.5640   18.2819 C   0  0  0  0  0  0  0  0  0  0  0  0
  -30.2128  -15.0674   17.0746 C   0  0  0  0  0  0  0  0  0  1  0  0
  -31.0470  -17.2692   20.7121 C   0  0  2  0  0  0  0  0  0  0  0  0
  -23.1523  -12.9446   21.9380 C   0  0  1  0  0  0  0  0  0  0  0  0
  -22.3073   -9.4656   20.6920 C   0  0  2  0  0  0  0  0  0  0  0  0
  -31.6307  -14.9978   17.6767 C   0  0  0  0  0  0  0  0  0  0  0  0
  -22.9187  -13.3350   23.4248 C   0  0  0  0  0  0  0  0  0  0  0  0
  -28.4792  -26.8598   20.0068 N   0  0  0  0  0  0  0  0  0  0  0  0
  -29.5638  -26.3301   20.5975 N   0  0  0  0  0  0  0  0  0  0  0  0
  -23.6298  -14.5682   20.1326 N   0  0  0  0  0  0  0  0  0  0  0  0
  -30.2134  -23.3248   18.3325 N   0  0  0  0  0  0  0  0  0  0  0  0
  -28.7385  -16.8705   22.4231 N   0  0  0  0  0  0  0  0  0  0  0  0
  -30.8942  -26.4440   22.5539 N   0  0  0  0  0  0  0  0  0  0  0  0
  -27.6941  -29.5451   23.2880 N   0  0  0  0  0  0  0  0  0  0  0  0
  -29.0180  -21.5545   19.3322 N   0  0  0  0  0  0  0  0  0  0  0  0
  -23.3642  -18.1487   19.4954 N   0  0  0  0  0  0  0  0  0  0  0  0
  -31.1375  -16.7040   19.3864 N   0  0  0  0  0  0  0  0  0  0  0  0
  -22.4997  -11.7030   21.5367 N   0  0  0  0  0  0  0  0  0  0  0  0
  -22.8303   -8.7310   19.5056 N   0  3  0  0  0  0  0  0  0  0  0  0
  -29.5710  -28.5625   24.1658 O   0  0  0  0  0  0  0  0  0  0  0  0
  -24.2912  -16.8128   21.1623 O   0  0  0  0  0  0  0  0  0  0  0  0
  -21.4726  -14.3193   20.9814 O   0  0  0  0  0  0  0  0  0  0  0  0
  -24.4290  -10.6092   20.8595 O   0  0  0  0  0  0  0  0  0  0  0  0
  -31.9858  -14.6680   20.0642 O   0  0  0  0  0  0  0  0  0  0  0  0
  -30.7485  -21.1290   17.8469 O   0  0  0  0  0  0  0  0  0  0  0  0
  -23.5197  -30.8504   19.8374 O   0  0  0  0  0  0  0  0  0  0  0  0
  -29.3237  -14.2080   17.7867 O   0  0  0  0  0  0  0  0  0  1  0  0
  -19.8199  -31.4498   23.8817 F   0  0  0  0  0  0  0  0  0  0  0  0
  -26.8598  -21.0408   21.0194 F   0  0  0  0  0  0  0  0  0  0  0  0
  -24.2261  -32.0100   22.2456 F   0  0  0  0  0  0  0  0  0  0  0  0
  1  2  1  0  0  0  0
  1  5  2  0  0  0  0
  2  6  2  0  0  0  0
  3  8  2  0  0  0  0
  3 17  1  0  0  0  0
  4  9  1  0  0  0  0
  4 17  2  0  0  0  0
  5 19  1  0  0  0  0
  6 21  1  0  0  0  0
  7 10  2  0  0  0  0
  7 20  1  0  0  0  0
  8 26  1  0  0  0  0
  9 26  2  0  0  0  0
 10 27  1  0  0  0  0
 11 12  2  0  0  0  0
 11 28  1  0  0  0  0
 12 29  1  0  0  0  0
 13 22  1  0  0  0  0
 13 27  2  0  0  0  0
 14 23  1  0  0  0  0
 14 24  2  0  0  0  0
 15 25  1  0  0  0  0
 15 30  2  0  0  0  0
 16 29  2  0  0  0  0
 16 31  1  0  0  0  0
 17 32  1  0  0  0  0
 18 32  1  0  0  0  0
 18 33  2  0  0  0  0
 18 34  1  0  0  0  0
 19 21  2  0  0  0  0
 19 40  1  0  0  0  0
 20 22  2  0  0  0  0
 20 41  1  0  0  0  0
 21 49  1  0  0  0  0
 22 42  1  0  0  0  0
 23 25  2  0  0  0  0
 23 61  1  0  0  0  0
 24 30  1  0  0  0  0
 24 73  1  0  0  0  0
 25 70  1  0  0  0  0
 26 84  1  0  0  0  0
 27 85  1  0  0  0  0
 28 31  2  0  0  0  0
 28 84  1  0  0  0  0
 29 86  1  0  0  0  0
 30 87  1  0  0  0  0
 31 88  1  0  0  0  0
 32 66  2  0  0  0  0
 33 67  1  0  0  0  0
 33 71  1  0  0  0  0
 34 72  1  0  0  0  0
 34 78  2  0  0  0  0
 35 50  1  0  0  0  0
 35 74  1  0  0  0  0
 35 79  2  0  0  0  0
 36 62  1  0  0  0  0
 36 68  1  0  0  0  0
 36 80  2  0  0  0  0
 37 63  1  0  0  0  0
 37 76  1  0  0  0  0
 37 81  2  0  0  0  0
 38 64  1  0  0  0  0
 38 75  1  0  0  0  0
 38 82  2  0  0  0  0
 39 69  1  0  0  0  0
 39 73  1  0  0  0  0
 39 83  2  0  0  0  0
 40 43  1  0  0  0  0
 41 50  1  0  0  0  0
 42 68  1  0  0  0  0
 43 45  1  0  0  0  0
 44 46  1  0  0  0  0
 44 47  1  0  0  0  0
 45 49  1  0  0  0  0
 46 51  1  0  0  0  0
 47 69  1  0  0  0  0
 48 51  1  0  0  0  0
 48 69  1  0  0  0  0
 49 74  1  0  0  0  0
 50 68  1  0  0  0  0
 51 67  1  0  0  0  0
 52 61  1  0  0  0  0
 53 63  1  0  0  0  0
 54 64  1  0  0  0  0
 55 64  1  0  0  0  0
 56 65  1  0  0  0  0
 57 65  1  0  0  0  0
 58 65  1  0  0  0  0
 59 77  1  0  0  0  0
 60 64  1  0  0  0  0
 60 85  1  0  0  0  0
 61 75  1  0  0  0  0
 62 65  1  0  0  0  0
 62 76  1  0  0  0  0
 63 77  1  0  0  0  0
 66 67  1  0  0  0  0
M  CHG  1  77   1
M  ISO  4  39 100  60 101  73 100  85 101
M  END
> <Batch ID>
0171

> <Smiles>
CNC(C)C(=O)NC(C(=O)N1Cc2cc([101O:1][101CH2:1]C(C)(C)C(=O)NC(C)c3cc([100NH:0][100C:0](=O)N4CCCC(n5nc(-c6ccc(Oc7ccc(F)cc7F)cc6)c(C(N)=O)c5N)C4)c(F)cc3N)ccc2CC1C(=O)NC1CCCc2ccccc21)C(C)(C)C

> <Shape>
0.251

> <Color>
0.053

> <Negative vol penalty>
0.000

$$$$

  -OEChem-04052304233D

 88 97  0     1  0  0  0  0  0999 V2000
  -23.5978   -7.9467   21.6011 C   0  0  0  0  0  0  0  0  0  0  0  0
  -24.2205   -8.9111   20.8153 C   0  0  0  0  0  0  0  0  0  0  0  0
  -25.6268  -31.7423   24.3456 C   0  0  0  0  0  0  0  0  0  0  0  0
  -25.8136  -31.2110   21.9961 C   0  0  0  0  0  0  0  0  0  0  0  0
  -22.3881   -8.2369   22.2308 C   0  0  0  0  0  0  0  0  0  0  0  0
  -23.6333  -10.1661   20.6578 C   0  0  0  0  0  0  0  0  0  0  0  0
  -28.7749  -22.9590   18.3631 C   0  0  0  0  0  0  0  0  0  0  0  0
  -26.9713  -13.9454   21.1259 C   0  0  0  0  0  0  0  0  0  0  0  0
  -28.4451  -23.7462   19.4664 C   0  0  0  0  0  0  0  0  0  0  0  0
  -25.9710  -33.0663   24.0736 C   0  0  0  0  0  0  0  0  0  0  0  0
  -26.1578  -32.5351   21.7241 C   0  0  0  0  0  0  0  0  0  0  0  0
  -27.7985  -14.2033   20.0336 C   0  0  0  0  0  0  0  0  0  0  0  0
  -24.4544  -35.8366   22.8657 C   0  0  0  0  0  0  0  0  0  0  0  0
  -23.7019  -36.8403   23.4754 C   0  0  0  0  0  0  0  0  0  0  0  0
  -26.3697  -16.0383   19.3927 C   0  0  0  0  0  0  0  0  0  0  0  0
  -29.4704  -22.1220   20.9318 C   0  0  0  0  0  0  0  0  0  0  0  0
  -25.6930  -37.6739   24.5607 C   0  0  0  0  0  0  0  0  0  0  0  0
  -25.5481  -30.8146   23.3069 C   0  0  0  0  0  0  0  0  0  0  0  0
  -23.8997  -28.8914   23.6098 C   0  0  0  0  0  0  0  0  0  0  0  0
  -21.7907   -9.4993   22.0887 C   0  0  0  0  0  0  0  0  0  0  0  0
  -25.8292  -14.7265   21.3540 C   0  0  0  0  0  0  0  0  0  0  0  0
  -22.4139  -10.4730   21.2850 C   0  0  0  0  0  0  0  0  0  0  0  0
  -29.4524  -21.7532   18.5442 C   0  0  0  0  0  0  0  0  0  0  0  0
  -25.5311  -15.7899   20.4900 C   0  0  0  0  0  0  0  0  0  0  0  0
  -28.7929  -23.3277   20.7507 C   0  0  0  0  0  0  0  0  0  0  0  0
  -26.2365  -33.4627   22.7628 C   0  0  0  0  0  0  0  0  0  0  0  0
  -27.4961  -15.2481   19.1652 C   0  0  0  0  0  0  0  0  0  0  0  0
  -25.8263  -35.7514   23.1036 C   0  0  0  0  0  0  0  0  0  0  0  0
  -24.3212  -37.7590   24.3229 C   0  0  0  0  0  0  0  0  0  0  0  0
  -29.8002  -21.3347   19.8286 C   0  0  0  0  0  0  0  0  0  0  0  0
  -26.4455  -36.6701   23.9511 C   0  0  0  0  0  0  0  0  0  0  0  0
  -25.1932  -29.4466   23.5873 C   0  0  0  0  0  0  0  0  0  0  0  0
  -24.0989  -27.5692   23.9237 C   0  0  0  0  0  0  0  0  0  0  0  0
  -22.6315  -29.5152   23.3683 C   0  0  0  0  0  0  0  0  0  0  0  0
  -22.7051  -14.1519   21.4691 C   0  0  0  0  0  0  0  0  0  0  0  0
  -22.5644  -17.2531   22.4099 C   0  0  0  0  0  0  0  0  0  0  0  0
  -24.0173  -20.3410   22.4376 C   0  0  0  0  0  0  0  0  0  0  0  0
  -28.7271  -23.8572   23.2128 C   0  0  0  0  0  0  0  0  0  0  0  0
  -20.4589   -9.7507   22.7504 C   0  0  0  0  0  0  0  0  0  0  0  0
  -24.9619  -14.4522   22.5519 C   0  0  0  0  0  0  0  0  0  0  0  0
  -24.3280  -16.6707   20.7023 C   0  0  0  0  0  0  0  0  0  0  0  0
  -20.0910  -11.2297   22.8363 C   0  0  0  0  0  0  0  0  0  0  0  0
  -27.1192  -24.6933   26.2775 C   0  0  0  0  0  0  0  0  0  0  0  0
  -20.3387  -11.9200   21.4987 C   0  0  0  0  0  0  0  0  0  0  0  0
  -26.3203  -25.9531   25.9359 C   0  0  0  0  0  0  0  0  0  0  0  0
  -31.2946  -18.7675   15.9524 C   0  0  0  0  0  0  0  0  0  0  0  0
  -31.4942  -20.2388   15.5916 C   0  0  0  0  0  0  0  0  0  0  0  0
  -28.4621  -24.6586   25.5500 C   0  0  0  0  0  0  0  0  0  0  0  0
  -27.5855  -26.0979   23.7529 C   0  0  0  0  0  0  0  0  0  0  0  0
  -21.8206  -11.8541   21.1101 C   0  0  1  0  0  0  0  0  0  0  0  0
  -29.8057  -20.9132   17.3586 C   0  0  1  0  0  0  0  0  0  0  0  0
  -23.5417  -14.9872   22.3964 C   0  0  1  0  0  0  0  0  0  0  0  0
  -26.1972  -26.1463   24.4118 C   0  0  2  0  0  0  0  0  0  0  0  0
  -29.9091  -18.5153   16.5373 C   0  0  1  0  0  0  0  0  0  0  0  0
  -31.2281  -21.2085   16.7759 C   0  0  0  0  0  0  0  0  0  0  0  0
  -31.2836  -22.6508   16.2276 C   0  0  0  0  0  0  0  0  0  0  0  0
  -32.3437  -21.0590   17.8336 C   0  0  0  0  0  0  0  0  0  0  0  0
  -23.6466  -22.6852   23.2530 C   0  0  0  0  0  0  0  0  0  0  0  0
  -20.5462  -17.7113   20.1678 C   0  0  0  0  0  0  0  0  0  0  0  0
  -20.9372  -20.1720   20.4132 C   0  0  0  0  0  0  0  0  0  0  0  0
  -19.9966  -18.8643   22.3179 C   0  0  0  0  0  0  0  0  0  0  0  0
  -26.4515  -20.2647   24.1192 C   0  0  0  0  0  0  0  0  0  0  0  0
  -29.7467  -17.0868   17.0247 C   0  0  0  0  0  0  0  0  0  0  0  0
  -28.3798  -16.8542   17.6502 C   0  0  0  0  0  0  0  0  0  1  0  0
  -22.4322  -18.5800   21.7022 C   0  0  1  0  0  0  0  0  0  0  0  0
  -24.2613  -21.3293   23.5637 C   0  0  2  0  0  0  0  0  0  0  0  0
  -20.9997  -18.8143   21.1449 C   0  0  0  0  0  0  0  0  0  0  0  0
  -26.1438  -28.5504   23.8651 N   0  0  0  0  0  0  0  0  0  0  0  0
  -25.4470  -27.4187   24.0651 N   0  0  0  0  0  0  0  0  0  0  0  0
  -23.5073  -16.3585   21.8840 N   0  0  0  0  0  0  0  0  0  0  0  0
  -28.2667  -24.8437   24.1104 N   0  0  0  0  0  0  0  0  0  0  0  0
  -23.2506  -26.5323   24.0900 N   0  0  0  0  0  0  0  0  0  0  0  0
  -22.6073  -30.8817   23.0581 N   0  0  0  0  0  0  0  0  0  0  0  0
  -28.4562  -24.1265   21.8716 N   0  0  0  0  0  0  0  0  0  0  0  0
  -22.5830  -12.8313   21.8573 N   0  0  0  0  0  0  0  0  0  0  0  0
  -22.8776  -19.5948   22.6510 N   0  0  0  0  0  0  0  0  0  0  0  0
  -29.6995  -19.4394   17.6994 N   0  3  0  0  0  0  0  0  0  0  0  0
  -25.7238  -21.5152   23.7819 N   0  3  0  0  0  0  0  0  0  0  0  0
  -21.5504  -28.8831   23.4420 O   0  0  0  0  0  0  0  0  0  0  0  0
  -22.2060  -14.6676   20.4759 O   0  0  0  0  0  0  0  0  0  0  0  0
  -21.8622  -17.0217   23.3973 O   0  0  0  0  0  0  0  0  0  0  0  0
  -24.7611  -20.2435   21.4641 O   0  0  0  0  0  0  0  0  0  0  0  0
  -29.2940  -22.8349   23.6070 O   0  0  0  0  0  0  0  0  0  0  0  0
  -26.5722  -34.7547   22.4970 O   0  0  0  0  0  0  0  0  0  0  0  0
  -28.3014  -15.5015   18.0979 O   0  0  0  0  0  0  0  0  0  1  0  0
  -23.5987  -38.7239   24.9070 F   0  0  0  0  0  0  0  0  0  0  0  0
  -30.4513  -20.1778   20.0127 F   0  0  0  0  0  0  0  0  0  0  0  0
  -27.7633  -36.5940   24.1825 F   0  0  0  0  0  0  0  0  0  0  0  0
  1  2  1  0  0  0  0
  1  5  2  0  0  0  0
  2  6  2  0  0  0  0
  3 10  2  0  0  0  0
  3 18  1  0  0  0  0
  4 11  1  0  0  0  0
  4 18  2  0  0  0  0
  5 20  1  0  0  0  0
  6 22  1  0  0  0  0
  7  9  2  0  0  0  0
  7 23  1  0  0  0  0
  8 12  2  0  0  0  0
  8 21  1  0  0  0  0
  9 25  1  0  0  0  0
 10 26  1  0  0  0  0
 11 26  2  0  0  0  0
 12 27  1  0  0  0  0
 13 14  2  0  0  0  0
 13 28  1  0  0  0  0
 14 29  1  0  0  0  0
 15 24  1  0  0  0  0
 15 27  2  0  0  0  0
 16 25  2  0  0  0  0
 16 30  1  0  0  0  0
 17 29  2  0  0  0  0
 17 31  1  0  0  0  0
 18 32  1  0  0  0  0
 19 32  1  0  0  0  0
 19 33  2  0  0  0  0
 19 34  1  0  0  0  0
 20 22  2  0  0  0  0
 20 39  1  0  0  0  0
 21 24  2  0  0  0  0
 21 40  1  0  0  0  0
 22 50  1  0  0  0  0
 23 30  2  0  0  0  0
 23 51  1  0  0  0  0
 24 41  1  0  0  0  0
 25 74  1  0  0  0  0
 26 84  1  0  0  0  0
 27 85  1  0  0  0  0
 28 31  2  0  0  0  0
 28 84  1  0  0  0  0
 29 86  1  0  0  0  0
 30 87  1  0  0  0  0
 31 88  1  0  0  0  0
 32 68  2  0  0  0  0
 33 69  1  0  0  0  0
 33 72  1  0  0  0  0
 34 73  1  0  0  0  0
 34 79  2  0  0  0  0
 35 52  1  0  0  0  0
 35 75  1  0  0  0  0
 35 80  2  0  0  0  0
 36 65  1  0  0  0  0
 36 70  1  0  0  0  0
 36 81  2  0  0  0  0
 37 66  1  0  0  0  0
 37 76  1  0  0  0  0
 37 82  2  0  0  0  0
 38 71  1  0  0  0  0
 38 74  1  0  0  0  0
 38 83  2  0  0  0  0
 39 42  1  0  0  0  0
 40 52  1  0  0  0  0
 41 70  1  0  0  0  0
 42 44  1  0  0  0  0
 43 45  1  0  0  0  0
 43 48  1  0  0  0  0
 44 50  1  0  0  0  0
 45 53  1  0  0  0  0
 46 47  1  0  0  0  0
 46 54  1  0  0  0  0
 47 55  1  0  0  0  0
 48 71  1  0  0  0  0
 49 53  1  0  0  0  0
 49 71  1  0  0  0  0
 50 75  1  0  0  0  0
 51 55  1  0  0  0  0
 51 77  1  0  0  0  0
 52 70  1  0  0  0  0
 53 69  1  0  0  0  0
 54 63  1  0  0  0  0
 54 77  1  0  0  0  0
 55 56  1  0  0  0  0
 55 57  1  0  0  0  0
 58 66  1  0  0  0  0
 59 67  1  0  0  0  0
 60 67  1  0  0  0  0
 61 67  1  0  0  0  0
 62 78  1  0  0  0  0
 63 64  1  0  0  0  0
 64 85  1  0  0  0  0
 65 67  1  0  0  0  0
 65 76  1  0  0  0  0
 66 78  1  0  0  0  0
 68 69  1  0  0  0  0
M  CHG  2  77   1  78   1
M  ISO  4  38 100  64 101  74 100  85 101
M  END
> <Batch ID>
0171

> <Smiles>
CNC(C)C(=O)NC(C(=O)N1Cc2cc([101O:1][101CH2:1]CC3CCC(C)(C)C(c4ccc([100NH:0][100C:0](=O)N5CCCC(n6nc(-c7ccc(Oc8ccc(F)cc8F)cc7)c(C(N)=O)c6N)C5)cc4F)N3)ccc2CC1C(=O)NC1CCCc2ccccc21)C(C)(C)C

> <Shape>
0.213

> <Color>
0.066

> <Negative vol penalty>
0.000

$$$$

  -OEChem-04052304233D

 86 94  0     1  0  0  0  0  0999 V2000
  -17.7614  -31.9906   24.5799 C   0  0  0  0  0  0  0  0  0  0  0  0
  -18.9429  -32.4153   23.9807 C   0  0  0  0  0  0  0  0  0  0  0  0
  -24.5700  -13.7361   19.8473 C   0  0  0  0  0  0  0  0  0  0  0  0
  -25.8860  -14.0895   21.8424 C   0  0  0  0  0  0  0  0  0  0  0  0
  -17.6584  -30.6896   25.0704 C   0  0  0  0  0  0  0  0  0  0  0  0
  -20.0226  -31.5395   23.8727 C   0  0  0  0  0  0  0  0  0  0  0  0
  -25.5271  -29.9677   19.5662 C   0  0  0  0  0  0  0  0  0  0  0  0
  -24.6520  -12.3568   20.0375 C   0  0  0  0  0  0  0  0  0  0  0  0
  -25.9679  -12.7101   22.0327 C   0  0  0  0  0  0  0  0  0  0  0  0
  -26.9093  -29.7894   19.6063 C   0  0  0  0  0  0  0  0  0  0  0  0
  -23.1666  -10.0168   21.9743 C   0  0  0  0  0  0  0  0  0  0  0  0
  -21.9980   -9.2708   21.8215 C   0  0  0  0  0  0  0  0  0  0  0  0
  -26.5896  -27.5404   20.4182 C   0  0  0  0  0  0  0  0  0  0  0  0
  -27.0758  -23.7342   22.7356 C   0  0  0  0  0  0  0  0  0  0  0  0
  -23.0382   -8.0047   20.0461 C   0  0  0  0  0  0  0  0  0  0  0  0
  -29.0409  -24.2448   21.4969 C   0  0  0  0  0  0  0  0  0  0  0  0
  -25.1871  -14.6025   20.7497 C   0  0  0  0  0  0  0  0  0  0  0  0
  -24.1149  -16.8976   21.0514 C   0  0  0  0  0  0  0  0  0  0  0  0
  -18.7340  -29.7944   24.9597 C   0  0  0  0  0  0  0  0  0  0  0  0
  -24.6645  -28.9356   19.9628 C   0  0  0  0  0  0  0  0  0  0  0  0
  -19.9344  -30.2257   24.3634 C   0  0  0  0  0  0  0  0  0  0  0  0
  -25.1968  -27.7072   20.3797 C   0  0  0  0  0  0  0  0  0  0  0  0
  -27.9101  -23.4603   21.6576 C   0  0  0  0  0  0  0  0  0  0  0  0
  -25.3509  -11.8437   21.1302 C   0  0  0  0  0  0  0  0  0  0  0  0
  -27.4408  -28.5767   20.0351 C   0  0  0  0  0  0  0  0  0  0  0  0
  -24.2711   -9.7568   21.1629 C   0  0  0  0  0  0  0  0  0  0  0  0
  -21.9338   -8.2647   20.8574 C   0  0  0  0  0  0  0  0  0  0  0  0
  -27.3932  -24.7695   23.6077 C   0  0  0  0  0  0  0  0  0  0  0  0
  -24.2069   -8.7508   20.1988 C   0  0  0  0  0  0  0  0  0  0  0  0
  -25.1033  -16.0275   20.5534 C   0  0  0  0  0  0  0  0  0  0  0  0
  -28.5472  -25.4953   23.3599 C   0  0  0  0  0  0  0  0  0  0  0  0
  -24.4842  -18.1371   20.5893 C   0  0  0  0  0  0  0  0  0  0  0  0
  -22.9659  -16.6109   21.8596 C   0  0  0  0  0  0  0  0  0  0  0  0
  -22.4855  -28.5882   22.2508 C   0  0  0  0  0  0  0  0  0  0  0  0
  -21.9173  -25.7730   20.7428 C   0  0  0  0  0  0  0  0  0  0  0  0
  -28.3706  -28.8231   23.1378 C   0  0  0  0  0  0  0  0  0  0  0  0
  -23.8824  -23.1522   19.2305 C   0  0  0  0  0  0  0  0  0  0  0  0
  -28.3535  -22.0257   19.6348 C   0  0  0  0  0  0  0  0  0  0  0  0
  -18.5919  -28.4126   25.5472 C   0  0  0  0  0  0  0  0  0  0  0  0
  -23.1755  -29.1346   19.8883 C   0  0  0  0  0  0  0  0  0  0  0  0
  -24.3135  -26.5608   20.7968 C   0  0  0  0  0  0  0  0  0  0  0  0
  -19.6527  -27.4303   25.0573 C   0  0  0  0  0  0  0  0  0  0  0  0
  -27.9776  -19.4749   17.1793 C   0  0  0  0  0  0  0  0  0  0  0  0
  -21.0377  -28.0668   25.1168 C   0  0  0  0  0  0  0  0  0  0  0  0
  -27.1150  -18.4222   17.8792 C   0  0  0  0  0  0  0  0  0  0  0  0
  -28.9626  -20.1335   18.1436 C   0  0  0  0  0  0  0  0  0  0  0  0
  -27.4979  -19.6379   20.0615 C   0  0  0  0  0  0  0  0  0  0  0  0
  -21.1190  -29.2974   24.2054 C   0  0  1  0  0  0  0  0  0  0  0  0
  -22.4002  -28.1922   20.8039 C   0  0  1  0  0  0  0  0  0  0  0  0
  -26.4456  -18.9929   19.1448 C   0  0  2  0  0  0  0  0  0  0  0  0
  -23.3117  -21.5358   17.3978 C   0  0  0  0  0  0  0  0  0  0  0  0
  -30.9127  -29.4872   20.2990 C   0  0  0  0  0  0  0  0  0  0  0  0
  -21.1376  -23.9065   23.0271 C   0  0  0  0  0  0  0  0  0  0  0  0
  -22.1089  -22.0083   21.7149 C   0  0  0  0  0  0  0  0  0  0  0  0
  -20.1742  -23.2918   20.8026 C   0  0  0  0  0  0  0  0  0  0  0  0
  -26.9035  -27.8914   24.8906 C   0  0  0  0  0  0  0  0  0  0  0  0
  -26.2278  -23.9695   17.6211 C   0  0  0  0  0  0  0  0  0  0  0  0
  -28.9239  -26.6207   24.2795 C   0  0  0  0  0  0  0  0  0  0  0  0
  -29.6411  -28.6561   22.3087 C   0  0  0  0  0  0  0  0  0  0  0  0
  -22.4606  -24.3694   20.8589 C   0  0  1  0  0  0  0  0  0  0  0  0
  -24.0010  -22.8453   17.7486 C   0  0  2  0  0  0  0  0  0  0  0  0
  -29.5348  -29.2815   20.9150 C   0  0  2  0  0  0  0  0  0  1  0  0
  -21.4862  -23.4167   21.6074 C   0  0  0  0  0  0  0  0  0  0  0  0
  -29.3821  -25.2589   22.3232 N   0  0  0  0  0  0  0  0  0  0  0  0
  -26.0306  -16.6607   19.8302 N   0  0  0  0  0  0  0  0  0  0  0  0
  -25.6266  -17.9418   19.8703 N   0  0  0  0  0  0  0  0  0  0  0  0
  -22.8644  -26.8064   20.7124 N   0  0  0  0  0  0  0  0  0  0  0  0
  -28.2566  -20.6546   19.3162 N   0  0  0  0  0  0  0  0  0  0  0  0
  -23.9399  -19.3642   20.7318 N   0  0  0  0  0  0  0  0  0  0  0  0
  -22.7351  -15.2836   22.2460 N   0  0  0  0  0  0  0  0  0  0  0  0
  -27.6135  -22.4117   20.7520 N   0  0  0  0  0  0  0  0  0  0  0  0
  -21.2656  -28.8939   22.8234 N   0  0  0  0  0  0  0  0  0  0  0  0
  -22.7870  -23.9445   19.5019 N   0  0  0  0  0  0  0  0  0  0  0  0
  -28.0983  -27.8061   24.0597 N   0  0  0  0  0  0  0  0  0  0  0  0
  -25.4344  -22.7422   17.3540 N   0  3  0  0  0  0  0  0  0  0  0  0
  -22.1584  -17.5029   22.2145 O   0  0  0  0  0  0  0  0  0  0  0  0
  -23.5772  -28.6131   22.8071 O   0  0  0  0  0  0  0  0  0  0  0  0
  -20.6978  -25.9457   20.6743 O   0  0  0  0  0  0  0  0  0  0  0  0
  -27.6446  -29.8086   22.9827 O   0  0  0  0  0  0  0  0  0  0  0  0
  -24.6795  -22.7283   20.0644 O   0  0  0  0  0  0  0  0  0  0  0  0
  -29.0204  -22.8055   18.9499 O   0  0  0  0  0  0  0  0  0  0  0  0
  -25.4309  -10.4978   21.3163 O   0  0  0  0  0  0  0  0  0  0  0  0
  -28.7895  -28.4002   20.0758 O   0  0  0  0  0  0  0  0  0  1  0  0
  -20.8120   -7.5474   20.7119 F   0  0  0  0  0  0  0  0  0  0  0  0
  -26.6019  -25.0482   24.6508 F   0  0  0  0  0  0  0  0  0  0  0  0
  -25.2651   -8.4957   19.4172 F   0  0  0  0  0  0  0  0  0  0  0  0
  1  2  1  0  0  0  0
  1  5  2  0  0  0  0
  2  6  2  0  0  0  0
  3  8  2  0  0  0  0
  3 17  1  0  0  0  0
  4  9  1  0  0  0  0
  4 17  2  0  0  0  0
  5 19  1  0  0  0  0
  6 21  1  0  0  0  0
  7 10  2  0  0  0  0
  7 20  1  0  0  0  0
  8 24  1  0  0  0  0
  9 24  2  0  0  0  0
 10 25  1  0  0  0  0
 11 12  2  0  0  0  0
 11 26  1  0  0  0  0
 12 27  1  0  0  0  0
 13 22  1  0  0  0  0
 13 25  2  0  0  0  0
 14 23  2  0  0  0  0
 14 28  1  0  0  0  0
 15 27  2  0  0  0  0
 15 29  1  0  0  0  0
 16 23  1  0  0  0  0
 16 64  2  0  0  0  0
 17 30  1  0  0  0  0
 18 30  1  0  0  0  0
 18 32  2  0  0  0  0
 18 33  1  0  0  0  0
 19 21  2  0  0  0  0
 19 39  1  0  0  0  0
 20 22  2  0  0  0  0
 20 40  1  0  0  0  0
 21 48  1  0  0  0  0
 22 41  1  0  0  0  0
 23 71  1  0  0  0  0
 24 82  1  0  0  0  0
 25 83  1  0  0  0  0
 26 29  2  0  0  0  0
 26 82  1  0  0  0  0
 27 84  1  0  0  0  0
 28 31  2  0  0  0  0
 28 85  1  0  0  0  0
 29 86  1  0  0  0  0
 30 65  2  0  0  0  0
 31 58  1  0  0  0  0
 31 64  1  0  0  0  0
 32 66  1  0  0  0  0
 32 69  1  0  0  0  0
 33 70  1  0  0  0  0
 33 76  2  0  0  0  0
 34 49  1  0  0  0  0
 34 72  1  0  0  0  0
 34 77  2  0  0  0  0
 35 60  1  0  0  0  0
 35 67  1  0  0  0  0
 35 78  2  0  0  0  0
 36 59  1  0  0  0  0
 36 74  1  0  0  0  0
 36 79  2  0  0  0  0
 37 61  1  0  0  0  0
 37 73  1  0  0  0  0
 37 80  2  0  0  0  0
 38 68  1  0  0  0  0
 38 71  1  0  0  0  0
 38 81  2  0  0  0  0
 39 42  1  0  0  0  0
 40 49  1  0  0  0  0
 41 67  1  0  0  0  0
 42 44  1  0  0  0  0
 43 45  1  0  0  0  0
 43 46  1  0  0  0  0
 44 48  1  0  0  0  0
 45 50  1  0  0  0  0
 46 68  1  0  0  0  0
 47 50  1  0  0  0  0
 47 68  1  0  0  0  0
 48 72  1  0  0  0  0
 49 67  1  0  0  0  0
 50 66  1  0  0  0  0
 51 61  1  0  0  0  0
 52 62  1  0  0  0  0
 53 63  1  0  0  0  0
 54 63  1  0  0  0  0
 55 63  1  0  0  0  0
 56 74  1  0  0  0  0
 57 75  1  0  0  0  0
 58 74  1  0  0  0  0
 59 62  1  0  0  0  0
 60 63  1  0  0  0  0
 60 73  1  0  0  0  0
 61 75  1  0  0  0  0
 62 83  1  0  0  0  0
 65 66  1  0  0  0  0
M  CHG  1  75   1
M  ISO  4  38 100  62 101  71 100  83 101
M  END
> <Batch ID>
0171

> <Smiles>
CNC(C)C(=O)NC(C(=O)N1Cc2cc([101O:1][101CH:1](C)CC(=O)N(C)Cc3ncc([100NH:0][100C:0](=O)N4CCCC(n5nc(-c6ccc(Oc7ccc(F)cc7F)cc6)c(C(N)=O)c5N)C4)cc3F)ccc2CC1C(=O)NC1CCCc2ccccc21)C(C)(C)C

> <Shape>
0.201

> <Color>
0.097

> <Negative vol penalty>
0.000

$$$$

  -OEChem-04052304233D

 87 95  0     1  0  0  0  0  0999 V2000
  -28.4234  -39.7097   23.5322 C   0  0  0  0  0  0  0  0  0  0  0  0
  -29.0726  -38.6223   22.9564 C   0  0  0  0  0  0  0  0  0  0  0  0
  -24.5802   -9.4051   21.5601 C   0  0  0  0  0  0  0  0  0  0  0  0
  -24.6562  -10.6227   23.6455 C   0  0  0  0  0  0  0  0  0  0  0  0
  -27.5181  -39.5084   24.5733 C   0  0  0  0  0  0  0  0  0  0  0  0
  -28.8175  -37.3329   23.4221 C   0  0  0  0  0  0  0  0  0  0  0  0
  -28.6812  -32.1825   20.1114 C   0  0  0  0  0  0  0  0  0  0  0  0
  -24.3110   -8.2275   22.2575 C   0  0  0  0  0  0  0  0  0  0  0  0
  -24.3870   -9.4451   24.3429 C   0  0  0  0  0  0  0  0  0  0  0  0
  -29.6240  -31.1772   19.9014 C   0  0  0  0  0  0  0  0  0  0  0  0
  -23.2465   -4.9672   23.4628 C   0  0  0  0  0  0  0  0  0  0  0  0
  -22.2386   -4.1381   22.9707 C   0  0  0  0  0  0  0  0  0  0  0  0
  -28.6051  -29.8647   21.6501 C   0  0  0  0  0  0  0  0  0  0  0  0
  -28.8104  -20.2900   20.1970 C   0  0  0  0  0  0  0  0  0  0  0  0
  -20.6369   -5.9271   23.2370 C   0  0  0  0  0  0  0  0  0  0  0  0
  -24.7528  -10.6027   22.2541 C   0  0  0  0  0  0  0  0  0  0  0  0
  -24.0954  -12.7421   21.0299 C   0  0  0  0  0  0  0  0  0  0  0  0
  -27.2446  -38.2150   25.0455 C   0  0  0  0  0  0  0  0  0  0  0  0
  -27.6982  -32.0409   21.1014 C   0  0  0  0  0  0  0  0  0  0  0  0
  -27.9087  -37.1142   24.4714 C   0  0  0  0  0  0  0  0  0  0  0  0
  -27.6493  -30.8685   21.8690 C   0  0  0  0  0  0  0  0  0  0  0  0
  -28.2236  -21.5882   20.2232 C   0  0  0  0  0  0  0  0  0  0  0  0
  -24.2144   -8.2474   23.6489 C   0  0  0  0  0  0  0  0  0  0  0  0
  -29.5879  -30.0193   20.6728 C   0  0  0  0  0  0  0  0  0  0  0  0
  -22.9496   -6.2763   23.8421 C   0  0  0  0  0  0  0  0  0  0  0  0
  -20.9338   -4.6180   22.8578 C   0  0  0  0  0  0  0  0  0  0  0  0
  -21.6448   -6.7563   23.7291 C   0  0  0  0  0  0  0  0  0  0  0  0
  -25.0314  -11.8194   21.5343 C   0  0  0  0  0  0  0  0  0  0  0  0
  -26.9126  -21.5550   20.6446 C   0  0  0  0  0  0  0  0  0  0  0  0
  -24.8596  -13.7157   20.4345 C   0  0  0  0  0  0  0  0  0  0  0  0
  -27.9254  -19.3141   20.5997 C   0  0  0  0  0  0  0  0  0  0  0  0
  -25.9839  -22.6283   20.8082 C   0  0  0  0  0  0  0  0  0  0  0  0
  -30.5153  -25.2815   20.0733 C   0  0  0  0  0  0  0  0  0  0  0  0
  -22.6632  -12.7210   21.0940 C   0  0  0  0  0  0  0  0  0  0  0  0
  -30.5691  -24.3199   19.1375 C   0  0  0  0  0  0  0  0  0  0  0  0
  -30.8548  -26.7225   19.8688 C   0  0  0  0  0  0  0  0  0  0  0  0
  -30.2114  -22.8993   19.4270 C   0  0  0  0  0  0  0  0  0  0  0  0
  -26.9422  -33.6208   23.7540 C   0  0  0  0  0  0  0  0  0  0  0  0
  -24.4149  -31.5874   23.7795 C   0  0  0  0  0  0  0  0  0  0  0  0
  -23.0943  -28.5947   22.8067 C   0  0  0  0  0  0  0  0  0  0  0  0
  -29.2308  -17.1648   20.4489 C   0  0  0  0  0  0  0  0  0  0  0  0
  -26.2937  -38.0515   26.2047 C   0  0  0  0  0  0  0  0  0  0  0  0
  -26.6720  -33.1230   21.2973 C   0  0  0  0  0  0  0  0  0  0  0  0
  -26.6019  -30.6589   22.9307 C   0  0  0  0  0  0  0  0  0  0  0  0
  -25.7983  -36.6194   26.3887 C   0  0  0  0  0  0  0  0  0  0  0  0
  -29.8048  -13.8239   19.3598 C   0  0  0  0  0  0  0  0  0  0  0  0
  -26.9624  -35.6371   26.3067 C   0  0  0  0  0  0  0  0  0  0  0  0
  -28.5371  -13.0805   19.7869 C   0  0  0  0  0  0  0  0  0  0  0  0
  -30.2128  -14.8831   20.3822 C   0  0  0  0  0  0  0  0  0  0  0  0
  -27.8884  -15.0930   21.1711 C   0  0  0  0  0  0  0  0  0  0  0  0
  -27.6400  -35.6981   24.9324 C   0  0  1  0  0  0  0  0  0  0  0  0
  -26.0308  -33.0949   22.6813 C   0  0  1  0  0  0  0  0  0  0  0  0
  -27.4015  -14.0604   20.1413 C   0  0  2  0  0  0  0  0  0  0  0  0
  -31.0027  -24.5852   17.7276 C   0  0  0  0  0  0  0  0  0  0  0  0
  -21.0208  -27.1964   23.0127 C   0  0  0  0  0  0  0  0  0  0  0  0
  -25.2050  -30.8400   26.6302 C   0  0  0  0  0  0  0  0  0  0  0  0
  -23.7391  -28.8200   26.4326 C   0  0  0  0  0  0  0  0  0  0  0  0
  -22.7450  -31.1017   26.2641 C   0  0  0  0  0  0  0  0  0  0  0  0
  -22.6429  -28.6259   19.8820 C   0  0  0  0  0  0  0  0  0  0  0  0
  -30.0987  -27.6978   20.7466 C   0  0  0  0  0  0  0  0  0  1  0  0
  -24.1503  -30.2181   24.3572 C   0  0  1  0  0  0  0  0  0  0  0  0
  -21.7561  -28.2387   22.1847 C   0  0  2  0  0  0  0  0  0  0  0  0
  -23.9809  -30.2494   25.9024 C   0  0  0  0  0  0  0  0  0  0  0  0
  -26.2938  -12.1750   21.2812 N   0  0  0  0  0  0  0  0  0  0  0  0
  -26.2583  -23.8905   20.5654 N   0  0  0  0  0  0  0  0  0  0  0  0
  -26.1564  -13.3319   20.6113 N   0  0  0  0  0  0  0  0  0  0  0  0
  -25.6244  -31.7484   23.0887 N   0  0  0  0  0  0  0  0  0  0  0  0
  -29.0886  -15.7778   20.6655 N   0  0  0  0  0  0  0  0  0  0  0  0
  -24.5421  -14.8542   19.7822 N   0  0  0  0  0  0  0  0  0  0  0  0
  -22.0392  -11.6469   21.7430 N   0  0  0  0  0  0  0  0  0  0  0  0
  -28.8995  -22.7774   19.8607 N   0  0  0  0  0  0  0  0  0  0  0  0
  -28.0852  -17.9115   20.7220 N   0  0  0  0  0  0  0  0  0  0  0  0
  -26.8528  -34.9859   23.9487 N   0  0  0  0  0  0  0  0  0  0  0  0
  -22.9953  -29.6887   23.6401 N   0  0  0  0  0  0  0  0  0  0  0  0
  -21.9517  -27.6952   20.8109 N   0  3  0  0  0  0  0  0  0  0  0  0
  -21.9573  -13.6194   20.5763 O   0  0  0  0  0  0  0  0  0  0  0  0
  -31.6778  -27.0925   19.0368 O   0  0  0  0  0  0  0  0  0  0  0  0
  -31.0401  -22.0177   19.2331 O   0  0  0  0  0  0  0  0  0  0  0  0
  -27.6714  -32.8452   24.3610 O   0  0  0  0  0  0  0  0  0  0  0  0
  -23.5761  -32.4794   23.9292 O   0  0  0  0  0  0  0  0  0  0  0  0
  -24.1238  -27.9629   22.5792 O   0  0  0  0  0  0  0  0  0  0  0  0
  -30.2823  -17.6508   20.0245 O   0  0  0  0  0  0  0  0  0  0  0  0
  -23.9516   -7.0986   24.3297 O   0  0  0  0  0  0  0  0  0  0  0  0
  -30.5074  -29.0368   20.4703 O   0  0  0  0  0  0  0  0  0  1  0  0
  -19.9663   -3.8221   22.3838 F   0  0  0  0  0  0  0  0  0  0  0  0
  -21.3538   -8.0134   24.0908 F   0  0  0  0  0  0  0  0  0  0  0  0
  -26.3942  -19.9637   21.0067 S   0  0  0  0  0  0  0  0  0  0  0  0
  1  2  1  0  0  0  0
  1  5  2  0  0  0  0
  2  6  2  0  0  0  0
  3  8  2  0  0  0  0
  3 16  1  0  0  0  0
  4  9  1  0  0  0  0
  4 16  2  0  0  0  0
  5 18  1  0  0  0  0
  6 20  1  0  0  0  0
  7 10  2  0  0  0  0
  7 19  1  0  0  0  0
  8 23  1  0  0  0  0
  9 23  2  0  0  0  0
 10 24  1  0  0  0  0
 11 12  2  0  0  0  0
 11 25  1  0  0  0  0
 12 26  1  0  0  0  0
 13 21  1  0  0  0  0
 13 24  2  0  0  0  0
 14 22  1  0  0  0  0
 14 31  2  0  0  0  0
 15 26  2  0  0  0  0
 15 27  1  0  0  0  0
 16 28  1  0  0  0  0
 17 28  1  0  0  0  0
 17 30  2  0  0  0  0
 17 34  1  0  0  0  0
 18 20  2  0  0  0  0
 18 42  1  0  0  0  0
 19 21  2  0  0  0  0
 19 43  1  0  0  0  0
 20 51  1  0  0  0  0
 21 44  1  0  0  0  0
 22 29  2  0  0  0  0
 22 71  1  0  0  0  0
 23 83  1  0  0  0  0
 24 84  1  0  0  0  0
 25 27  2  0  0  0  0
 25 83  1  0  0  0  0
 26 85  1  0  0  0  0
 27 86  1  0  0  0  0
 28 64  2  0  0  0  0
 29 32  1  0  0  0  0
 29 87  1  0  0  0  0
 30 66  1  0  0  0  0
 30 69  1  0  0  0  0
 31 72  1  0  0  0  0
 31 87  1  0  0  0  0
 32 65  2  0  0  0  0
 33 35  2  0  0  0  0
 33 36  1  0  0  0  0
 34 70  1  0  0  0  0
 34 76  2  0  0  0  0
 35 37  1  0  0  0  0
 35 54  1  0  0  0  0
 36 60  1  0  0  0  0
 36 77  2  0  0  0  0
 37 71  1  0  0  0  0
 37 78  2  0  0  0  0
 38 52  1  0  0  0  0
 38 73  1  0  0  0  0
 38 79  2  0  0  0  0
 39 61  1  0  0  0  0
 39 67  1  0  0  0  0
 39 80  2  0  0  0  0
 40 62  1  0  0  0  0
 40 74  1  0  0  0  0
 40 81  2  0  0  0  0
 41 68  1  0  0  0  0
 41 72  1  0  0  0  0
 41 82  2  0  0  0  0
 42 45  1  0  0  0  0
 43 52  1  0  0  0  0
 44 67  1  0  0  0  0
 45 47  1  0  0  0  0
 46 48  1  0  0  0  0
 46 49  1  0  0  0  0
 47 51  1  0  0  0  0
 48 53  1  0  0  0  0
 49 68  1  0  0  0  0
 50 53  1  0  0  0  0
 50 68  1  0  0  0  0
 51 73  1  0  0  0  0
 52 67  1  0  0  0  0
 53 66  1  0  0  0  0
 55 62  1  0  0  0  0
 56 63  1  0  0  0  0
 57 63  1  0  0  0  0
 58 63  1  0  0  0  0
 59 75  1  0  0  0  0
 60 84  1  0  0  0  0
 61 63  1  0  0  0  0
 61 74  1  0  0  0  0
 62 75  1  0  0  0  0
 64 66  1  0  0  0  0
M  CHG  1  75   1
M  ISO  4  41 100  60 101  72 100  84 101
M  END
> <Batch ID>
0171

> <Smiles>
CNC(C)C(=O)NC(C(=O)N1Cc2cc([101O:1][101CH2:1]C(=O)C=C(C)C(=O)Nc3cc([100NH:0][100C:0](=O)N4CCCC(n5nc(-c6ccc(Oc7ccc(F)cc7F)cc6)c(C(N)=O)c5N)C4)sc3C=N)ccc2CC1C(=O)NC1CCCc2ccccc21)C(C)(C)C

> <Shape>
0.353

> <Color>
0.100

> <Negative vol penalty>
0.000

$$$$

  -OEChem-04052304233D

 89 97  0     1  0  0  0  0  0999 V2000
  -19.3147  -34.1091   21.8641 C   0  0  0  0  0  0  0  0  0  0  0  0
  -20.6390  -33.8272   21.5446 C   0  0  0  0  0  0  0  0  0  0  0  0
  -25.0205  -11.4513   20.7439 C   0  0  0  0  0  0  0  0  0  0  0  0
  -25.5323  -13.1768   22.3557 C   0  0  0  0  0  0  0  0  0  0  0  0
  -18.6064  -33.2571   22.7105 C   0  0  0  0  0  0  0  0  0  0  0  0
  -21.2561  -32.6935   22.0723 C   0  0  0  0  0  0  0  0  0  0  0  0
  -25.4453  -29.1685   19.3280 C   0  0  0  0  0  0  0  0  0  0  0  0
  -25.5979  -10.4973   21.5819 C   0  0  0  0  0  0  0  0  0  0  0  0
  -26.1097  -12.2228   23.1937 C   0  0  0  0  0  0  0  0  0  0  0  0
  -26.8359  -29.1220   19.4172 C   0  0  0  0  0  0  0  0  0  0  0  0
  -26.6142   -7.5535   23.4570 C   0  0  0  0  0  0  0  0  0  0  0  0
  -25.9253   -6.3557   23.6474 C   0  0  0  0  0  0  0  0  0  0  0  0
  -28.7026  -21.5823   20.5741 C   0  0  0  0  0  0  0  0  0  0  0  0
  -26.6664  -27.3438   21.0385 C   0  0  0  0  0  0  0  0  0  0  0  0
  -28.9549  -20.8093   17.9055 C   0  0  0  0  0  0  0  0  0  0  0  0
  -24.0494   -7.5788   24.5542 C   0  0  0  0  0  0  0  0  0  0  0  0
  -24.9878  -12.7911   21.1308 C   0  0  0  0  0  0  0  0  0  0  0  0
  -29.6949  -22.1496   19.7746 C   0  0  0  0  0  0  0  0  0  0  0  0
  -23.0469  -14.1920   20.2487 C   0  0  0  0  0  0  0  0  0  0  0  0
  -19.2122  -32.1073   23.2411 C   0  0  0  0  0  0  0  0  0  0  0  0
  -24.6533  -28.3090   20.1028 C   0  0  0  0  0  0  0  0  0  0  0  0
  -20.5557  -31.8261   22.9276 C   0  0  0  0  0  0  0  0  0  0  0  0
  -25.2661  -27.3796   20.9554 C   0  0  0  0  0  0  0  0  0  0  0  0
  -27.9627  -20.2421   18.7051 C   0  0  0  0  0  0  0  0  0  0  0  0
  -26.1424  -10.8830   22.8067 C   0  0  0  0  0  0  0  0  0  0  0  0
  -27.4466  -28.2116   20.2747 C   0  0  0  0  0  0  0  0  0  0  0  0
  -26.0207   -8.7639   23.8152 C   0  0  0  0  0  0  0  0  0  0  0  0
  -24.6429   -6.3683   24.1960 C   0  0  0  0  0  0  0  0  0  0  0  0
  -27.8366  -20.6285   20.0394 C   0  0  0  0  0  0  0  0  0  0  0  0
  -29.8210  -21.7631   18.4403 C   0  0  0  0  0  0  0  0  0  0  0  0
  -24.7383   -8.7766   24.3638 C   0  0  0  0  0  0  0  0  0  0  0  0
  -24.3920  -13.7771   20.2654 C   0  0  0  0  0  0  0  0  0  0  0  0
  -22.9917  -15.1381   19.2546 C   0  0  0  0  0  0  0  0  0  0  0  0
  -30.6104  -23.1590   20.3433 C   0  0  0  0  0  0  0  0  0  0  0  0
  -21.9458  -13.7607   21.0594 C   0  0  0  0  0  0  0  0  0  0  0  0
  -22.4658  -28.7120   22.3735 C   0  0  0  0  0  0  0  0  0  0  0  0
  -32.7896  -25.3152   19.5379 C   0  0  0  0  0  0  0  0  0  0  0  0
  -30.7565  -26.7697   20.0342 C   0  0  0  0  0  0  0  0  0  0  0  0
  -22.1300  -25.4993   22.0767 C   0  0  0  0  0  0  0  0  0  0  0  0
  -23.5047  -22.5158   21.1517 C   0  0  0  0  0  0  0  0  0  0  0  0
  -27.0754  -18.7808   16.8548 C   0  0  0  0  0  0  0  0  0  0  0  0
  -18.4209  -31.2417   24.1893 C   0  0  0  0  0  0  0  0  0  0  0  0
  -23.1552  -28.3533   19.9752 C   0  0  0  0  0  0  0  0  0  0  0  0
  -24.4613  -26.4212   21.7934 C   0  0  0  0  0  0  0  0  0  0  0  0
  -19.0324  -29.8600   24.4071 C   0  0  0  0  0  0  0  0  0  0  0  0
  -25.1005  -16.3686   15.1348 C   0  0  0  0  0  0  0  0  0  0  0  0
  -20.5316  -29.9743   24.6643 C   0  0  0  0  0  0  0  0  0  0  0  0
  -24.5674  -15.4717   16.2543 C   0  0  0  0  0  0  0  0  0  0  0  0
  -26.5293  -16.8328   15.4118 C   0  0  0  0  0  0  0  0  0  0  0  0
  -26.1998  -16.5718   17.8393 C   0  0  0  0  0  0  0  0  0  0  0  0
  -21.2523  -30.5927   23.4603 C   0  0  1  0  0  0  0  0  0  0  0  0
  -22.4346  -27.7831   21.1929 C   0  0  1  0  0  0  0  0  0  0  0  0
  -24.7407  -16.1320   17.6362 C   0  0  2  0  0  0  0  0  0  0  0  0
  -34.0411  -25.7226   20.2729 C   0  0  0  0  0  0  0  0  0  0  0  0
  -23.0021  -20.0588   21.0618 C   0  0  0  0  0  0  0  0  0  0  0  0
  -22.5758  -25.3003   25.0886 C   0  0  0  0  0  0  0  0  0  0  0  0
  -23.0092  -22.8523   24.7924 C   0  0  0  0  0  0  0  0  0  0  0  0
  -20.7809  -23.8034   24.1986 C   0  0  0  0  0  0  0  0  0  0  0  0
  -23.8040  -22.4443   18.2082 C   0  0  0  0  0  0  0  0  0  0  0  0
  -29.3904  -26.9028   20.6805 C   0  0  0  0  0  0  0  0  0  1  0  0
  -31.4838  -25.4677   20.2795 C   0  0  1  0  0  0  0  0  0  0  0  0
  -22.7718  -24.2934   22.7193 C   0  0  1  0  0  0  0  0  0  0  0  0
  -22.9648  -21.3774   20.3049 C   0  0  2  0  0  0  0  0  0  0  0  0
  -22.2998  -24.0816   24.1855 C   0  0  0  0  0  0  0  0  0  0  0  0
  -25.1375  -14.4079   19.3542 N   0  0  0  0  0  0  0  0  0  0  0  0
  -24.2577  -15.2287   18.7555 N   0  0  0  0  0  0  0  0  0  0  0  0
  -22.9998  -26.5077   21.6381 N   0  0  0  0  0  0  0  0  0  0  0  0
  -26.6164  -17.4519   16.7362 N   0  0  0  0  0  0  0  0  0  0  0  0
  -21.9842  -15.8930   18.7674 N   0  0  0  0  0  0  0  0  0  0  0  0
  -22.1773  -12.7805   22.0341 N   0  0  0  0  0  0  0  0  0  0  0  0
  -27.0842  -19.2736   18.1593 N   0  0  0  0  0  0  0  0  0  0  0  0
  -30.6386  -24.3861   19.7963 N   0  0  0  0  0  0  0  0  0  0  0  0
  -21.4165  -29.6104   22.4103 N   0  0  0  0  0  0  0  0  0  0  0  0
  -22.4987  -23.1658   21.8349 N   0  0  0  0  0  0  0  0  0  0  0  0
  -31.3730  -22.8038   21.3774 N   0  3  0  0  0  0  0  0  0  0  0  0
  -23.7726  -21.2285   19.0614 N   0  3  0  0  0  0  0  0  0  0  0  0
  -20.7873  -14.2188   20.9124 O   0  0  0  0  0  0  0  0  0  0  0  0
  -23.3737  -28.6195   23.1914 O   0  0  0  0  0  0  0  0  0  0  0  0
  -32.8458  -24.8662   18.3932 O   0  0  0  0  0  0  0  0  0  0  0  0
  -31.2396  -27.6751   19.3546 O   0  0  0  0  0  0  0  0  0  0  0  0
  -20.9025  -25.5417   21.9615 O   0  0  0  0  0  0  0  0  0  0  0  0
  -24.6998  -22.7977   21.2049 O   0  0  0  0  0  0  0  0  0  0  0  0
  -27.4085  -19.4428   15.8684 O   0  0  0  0  0  0  0  0  0  0  0  0
  -26.7057   -9.9523   23.6248 O   0  0  0  0  0  0  0  0  0  0  0  0
  -28.8037  -28.1645   20.3641 O   0  0  0  0  0  0  0  0  0  1  0  0
  -23.9809   -5.2181   24.3774 F   0  0  0  0  0  0  0  0  0  0  0  0
  -26.8866  -20.0897   20.8173 F   0  0  0  0  0  0  0  0  0  0  0  0
  -30.7715  -22.3024   17.6640 F   0  0  0  0  0  0  0  0  0  0  0  0
  -24.1626   -9.9364   24.7088 F   0  0  0  0  0  0  0  0  0  0  0  0
  1  2  1  0  0  0  0
  1  5  2  0  0  0  0
  2  6  2  0  0  0  0
  3  8  2  0  0  0  0
  3 17  1  0  0  0  0
  4  9  1  0  0  0  0
  4 17  2  0  0  0  0
  5 20  1  0  0  0  0
  6 22  1  0  0  0  0
  7 10  2  0  0  0  0
  7 21  1  0  0  0  0
  8 25  1  0  0  0  0
  9 25  2  0  0  0  0
 10 26  1  0  0  0  0
 11 12  2  0  0  0  0
 11 27  1  0  0  0  0
 12 28  1  0  0  0  0
 13 18  1  0  0  0  0
 13 29  2  0  0  0  0
 14 23  1  0  0  0  0
 14 26  2  0  0  0  0
 15 24  2  0  0  0  0
 15 30  1  0  0  0  0
 16 28  2  0  0  0  0
 16 31  1  0  0  0  0
 17 32  1  0  0  0  0
 18 30  2  0  0  0  0
 18 34  1  0  0  0  0
 19 32  1  0  0  0  0
 19 33  2  0  0  0  0
 19 35  1  0  0  0  0
 20 22  2  0  0  0  0
 20 42  1  0  0  0  0
 21 23  2  0  0  0  0
 21 43  1  0  0  0  0
 22 51  1  0  0  0  0
 23 44  1  0  0  0  0
 24 29  1  0  0  0  0
 24 71  1  0  0  0  0
 25 84  1  0  0  0  0
 26 85  1  0  0  0  0
 27 31  2  0  0  0  0
 27 84  1  0  0  0  0
 28 86  1  0  0  0  0
 29 87  1  0  0  0  0
 30 88  1  0  0  0  0
 31 89  1  0  0  0  0
 32 65  2  0  0  0  0
 33 66  1  0  0  0  0
 33 69  1  0  0  0  0
 34 72  1  0  0  0  0
 34 75  2  0  0  0  0
 35 70  1  0  0  0  0
 35 77  2  0  0  0  0
 36 52  1  0  0  0  0
 36 73  1  0  0  0  0
 36 78  2  0  0  0  0
 37 54  1  0  0  0  0
 37 61  1  0  0  0  0
 37 79  2  0  0  0  0
 38 60  1  0  0  0  0
 38 61  1  0  0  0  0
 38 80  2  0  0  0  0
 39 62  1  0  0  0  0
 39 67  1  0  0  0  0
 39 81  2  0  0  0  0
 40 63  1  0  0  0  0
 40 74  1  0  0  0  0
 40 82  2  0  0  0  0
 41 68  1  0  0  0  0
 41 71  1  0  0  0  0
 41 83  2  0  0  0  0
 42 45  1  0  0  0  0
 43 52  1  0  0  0  0
 44 67  1  0  0  0  0
 45 47  1  0  0  0  0
 46 48  1  0  0  0  0
 46 49  1  0  0  0  0
 47 51  1  0  0  0  0
 48 53  1  0  0  0  0
 49 68  1  0  0  0  0
 50 53  1  0  0  0  0
 50 68  1  0  0  0  0
 51 73  1  0  0  0  0
 52 67  1  0  0  0  0
 53 66  1  0  0  0  0
 55 63  1  0  0  0  0
 56 64  1  0  0  0  0
 57 64  1  0  0  0  0
 58 64  1  0  0  0  0
 59 76  1  0  0  0  0
 60 85  1  0  0  0  0
 61 72  1  0  0  0  0
 62 64  1  0  0  0  0
 62 74  1  0  0  0  0
 63 76  1  0  0  0  0
 65 66  1  0  0  0  0
M  CHG  2  75   1  76   1
M  ISO  4  41 100  60 101  71 100  85 101
M  END
> <Batch ID>
0171

> <Smiles>
CNC(C)C(=O)NC(C(=O)N1Cc2cc([101O:1][101CH2:1]C(=O)C(NC(=N)c3cc(F)c([100NH:0][100C:0](=O)N4CCCC(n5nc(-c6ccc(Oc7ccc(F)cc7F)cc6)c(C(N)=O)c5N)C4)cc3F)C(C)=O)ccc2CC1C(=O)NC1CCCc2ccccc21)C(C)(C)C

> <Shape>
0.189

> <Color>
0.077

> <Negative vol penalty>
0.000

$$$$

  -OEChem-04052304233D

 87 95  0     1  0  0  0  0  0999 V2000
  -39.1585  -34.8839   22.3230 C   0  0  0  0  0  0  0  0  0  0  0  0
  -38.6767  -33.7260   22.9251 C   0  0  0  0  0  0  0  0  0  0  0  0
  -23.0733   -9.8668   19.9447 C   0  0  0  0  0  0  0  0  0  0  0  0
  -23.8312   -9.8798   22.2387 C   0  0  0  0  0  0  0  0  0  0  0  0
  -38.7066  -35.2491   21.0556 C   0  0  0  0  0  0  0  0  0  0  0  0
  -37.7417  -32.9331   22.2605 C   0  0  0  0  0  0  0  0  0  0  0  0
  -37.2757  -26.8304   22.4725 C   0  0  0  0  0  0  0  0  0  0  0  0
  -22.3292   -8.7143   20.1970 C   0  0  0  0  0  0  0  0  0  0  0  0
  -23.0870   -8.7273   22.4911 C   0  0  0  0  0  0  0  0  0  0  0  0
  -36.4526  -25.9774   23.2065 C   0  0  0  0  0  0  0  0  0  0  0  0
  -22.9012   -5.3966   20.4972 C   0  0  0  0  0  0  0  0  0  0  0  0
  -22.9688   -4.3645   19.5614 C   0  0  0  0  0  0  0  0  0  0  0  0
  -34.9320  -25.8469   21.3383 C   0  0  0  0  0  0  0  0  0  0  0  0
  -29.7489  -17.7178   22.7102 C   0  0  0  0  0  0  0  0  0  0  0  0
  -20.5846   -4.5295   19.2072 C   0  0  0  0  0  0  0  0  0  0  0  0
  -32.2322  -18.5380   21.9316 C   0  0  0  0  0  0  0  0  0  0  0  0
  -23.8244  -10.4495   20.9655 C   0  0  0  0  0  0  0  0  0  0  0  0
  -24.1664  -12.9743   20.8391 C   0  0  0  0  0  0  0  0  0  0  0  0
  -37.7729  -34.4552   20.3711 C   0  0  0  0  0  0  0  0  0  0  0  0
  -36.9270  -27.2073   21.1676 C   0  0  0  0  0  0  0  0  0  0  0  0
  -37.2759  -33.2887   20.9833 C   0  0  0  0  0  0  0  0  0  0  0  0
  -35.7537  -26.7027   20.5889 C   0  0  0  0  0  0  0  0  0  0  0  0
  -30.2252  -18.9518   23.1388 C   0  0  0  0  0  0  0  0  0  0  0  0
  -31.4895  -19.3772   22.7466 C   0  0  0  0  0  0  0  0  0  0  0  0
  -22.3360   -8.1446   21.4702 C   0  0  0  0  0  0  0  0  0  0  0  0
  -35.2791  -25.4879   22.6405 C   0  0  0  0  0  0  0  0  0  0  0  0
  -21.6752   -5.9951   20.7881 C   0  0  0  0  0  0  0  0  0  0  0  0
  -21.8105   -3.9310   18.9163 C   0  0  0  0  0  0  0  0  0  0  0  0
  -20.5170   -5.5616   20.1431 C   0  0  0  0  0  0  0  0  0  0  0  0
  -24.5937  -11.6397   20.7053 C   0  0  0  0  0  0  0  0  0  0  0  0
  -30.5694  -16.9531   21.8967 C   0  0  0  0  0  0  0  0  0  0  0  0
  -25.2589  -13.7228   20.4748 C   0  0  0  0  0  0  0  0  0  0  0  0
  -34.2347  -23.4062   22.8557 C   0  0  0  0  0  0  0  0  0  1  0  0
  -22.8956  -13.4913   21.2555 C   0  0  0  0  0  0  0  0  0  0  0  0
  -33.4593  -22.5073   23.4741 C   0  0  0  0  0  0  0  0  0  0  0  0
  -33.2607  -21.1615   22.8436 C   0  0  0  0  0  0  0  0  0  0  0  0
  -36.2619  -29.9636   19.7309 C   0  0  0  0  0  0  0  0  0  0  0  0
  -36.2175  -28.1158   17.0652 C   0  0  0  0  0  0  0  0  0  0  0  0
  -35.8173  -25.0159   15.6952 C   0  0  0  0  0  0  0  0  0  0  0  0
  -30.7250  -14.7687   20.6516 C   0  0  0  0  0  0  0  0  0  0  0  0
  -37.2785  -34.9157   19.0227 C   0  0  0  0  0  0  0  0  0  0  0  0
  -37.8392  -28.1068   20.3794 C   0  0  0  0  0  0  0  0  0  0  0  0
  -35.3447  -27.0608   19.1843 C   0  0  0  0  0  0  0  0  0  0  0  0
  -36.5683  -33.8225   18.2285 C   0  0  0  0  0  0  0  0  0  0  0  0
  -29.6126  -12.3486   18.2887 C   0  0  0  0  0  0  0  0  0  0  0  0
  -35.5709  -33.0819   19.1136 C   0  0  0  0  0  0  0  0  0  0  0  0
  -28.1725  -12.0582   18.7178 C   0  0  0  0  0  0  0  0  0  0  0  0
  -30.5266  -12.5806   19.4905 C   0  0  0  0  0  0  0  0  0  0  0  0
  -28.6185  -13.3088   20.8682 C   0  0  0  0  0  0  0  0  0  0  0  0
  -36.2798  -32.3895   20.2839 C   0  0  1  0  0  0  0  0  0  0  0  0
  -37.1258  -28.8347   19.2442 C   0  0  1  0  0  0  0  0  0  0  0  0
  -27.6467  -13.1324   19.6900 C   0  0  2  0  0  0  0  0  0  0  0  0
  -35.8003  -23.8258   13.4860 C   0  0  0  0  0  0  0  0  0  0  0  0
  -33.4417  -29.2410   16.4832 C   0  0  0  0  0  0  0  0  0  0  0  0
  -33.0984  -27.3661   14.8598 C   0  0  0  0  0  0  0  0  0  0  0  0
  -34.9215  -29.0256   14.4786 C   0  0  0  0  0  0  0  0  0  0  0  0
  -38.0989  -23.2982   16.4716 C   0  0  0  0  0  0  0  0  0  0  0  0
  -35.1631  -27.3227   16.3316 C   0  0  1  0  0  0  0  0  0  0  0  0
  -36.6438  -24.2497   14.6782 C   0  0  2  0  0  0  0  0  0  0  0  0
  -29.3620  -19.7972   24.0170 C   0  0  0  0  0  0  0  0  0  0  0  0
  -34.1626  -28.2335   15.5655 C   0  0  0  0  0  0  0  0  0  0  0  0
  -31.8032  -17.3327   21.4951 N   0  0  0  0  0  0  0  0  0  0  0  0
  -25.8590  -11.5427   20.2884 N   0  0  0  0  0  0  0  0  0  0  0  0
  -26.2360  -12.8259   20.1570 N   0  0  0  0  0  0  0  0  0  0  0  0
  -36.2665  -27.9485   18.4564 N   0  0  0  0  0  0  0  0  0  0  0  0
  -29.9669  -13.6138   20.3647 N   0  0  0  0  0  0  0  0  0  0  0  0
  -25.4694  -15.0541   20.3985 N   0  0  0  0  0  0  0  0  0  0  0  0
  -21.8833  -12.5830   21.5943 N   0  0  0  0  0  0  0  0  0  0  0  0
  -32.0211  -20.6226   23.1596 N   0  0  0  0  0  0  0  0  0  0  0  0
  -30.0769  -15.6959   21.4669 N   0  0  0  0  0  0  0  0  0  0  0  0
  -36.9228  -31.1726   19.8366 N   0  0  0  0  0  0  0  0  0  0  0  0
  -35.8803  -26.3769   15.4834 N   0  0  0  0  0  0  0  0  0  0  0  0
  -37.2268  -23.0271   15.2999 N   0  3  0  0  0  0  0  0  0  0  0  0
  -22.6593  -14.7220   21.3094 O   0  0  0  0  0  0  0  0  0  0  0  0
  -34.1333  -20.6587   22.1438 O   0  0  0  0  0  0  0  0  0  0  0  0
  -35.0827  -29.7538   19.9899 O   0  0  0  0  0  0  0  0  0  0  0  0
  -36.9747  -28.8510   16.4266 O   0  0  0  0  0  0  0  0  0  0  0  0
  -35.1766  -24.4622   16.5860 O   0  0  0  0  0  0  0  0  0  0  0  0
  -31.8545  -14.9361   20.1845 O   0  0  0  0  0  0  0  0  0  0  0  0
  -32.8327  -22.7692   24.6756 O   0  0  0  0  0  0  0  0  0  0  0  0
  -21.6098   -7.0202   21.7169 O   0  0  0  0  0  0  0  0  0  0  0  0
  -34.4736  -24.6557   23.3550 O   0  0  0  0  0  0  0  0  0  1  0  0
  -21.8759   -2.9409   18.0165 F   0  0  0  0  0  0  0  0  0  0  0  0
  -19.3365   -6.1335   20.4175 F   0  0  0  0  0  0  0  0  0  0  0  0
  -28.1548  -19.2287   24.3051 F   0  0  0  0  0  0  0  0  0  0  0  0
  -29.9251  -20.0751   25.2291 F   0  0  0  0  0  0  0  0  0  0  0  0
  -29.0746  -21.0080   23.4584 F   0  0  0  0  0  0  0  0  0  0  0  0
  1  2  1  0  0  0  0
  1  5  2  0  0  0  0
  2  6  2  0  0  0  0
  3  8  2  0  0  0  0
  3 17  1  0  0  0  0
  4  9  1  0  0  0  0
  4 17  2  0  0  0  0
  5 19  1  0  0  0  0
  6 21  1  0  0  0  0
  7 10  2  0  0  0  0
  7 20  1  0  0  0  0
  8 25  1  0  0  0  0
  9 25  2  0  0  0  0
 10 26  1  0  0  0  0
 11 12  2  0  0  0  0
 11 27  1  0  0  0  0
 12 28  1  0  0  0  0
 13 22  1  0  0  0  0
 13 26  2  0  0  0  0
 14 23  1  0  0  0  0
 14 31  2  0  0  0  0
 15 28  2  0  0  0  0
 15 29  1  0  0  0  0
 16 24  1  0  0  0  0
 16 62  2  0  0  0  0
 17 30  1  0  0  0  0
 18 30  1  0  0  0  0
 18 32  2  0  0  0  0
 18 34  1  0  0  0  0
 19 21  2  0  0  0  0
 19 41  1  0  0  0  0
 20 22  2  0  0  0  0
 20 42  1  0  0  0  0
 21 50  1  0  0  0  0
 22 43  1  0  0  0  0
 23 24  2  0  0  0  0
 23 60  1  0  0  0  0
 24 69  1  0  0  0  0
 25 81  1  0  0  0  0
 26 82  1  0  0  0  0
 27 29  2  0  0  0  0
 27 81  1  0  0  0  0
 28 83  1  0  0  0  0
 29 84  1  0  0  0  0
 30 63  2  0  0  0  0
 31 62  1  0  0  0  0
 31 70  1  0  0  0  0
 32 64  1  0  0  0  0
 32 67  1  0  0  0  0
 33 35  2  0  0  0  0
 33 82  1  0  0  0  0
 34 68  1  0  0  0  0
 34 74  2  0  0  0  0
 35 36  1  0  0  0  0
 35 80  1  0  0  0  0
 36 69  1  0  0  0  0
 36 75  2  0  0  0  0
 37 51  1  0  0  0  0
 37 71  1  0  0  0  0
 37 76  2  0  0  0  0
 38 58  1  0  0  0  0
 38 65  1  0  0  0  0
 38 77  2  0  0  0  0
 39 59  1  0  0  0  0
 39 72  1  0  0  0  0
 39 78  2  0  0  0  0
 40 66  1  0  0  0  0
 40 70  1  0  0  0  0
 40 79  2  0  0  0  0
 41 44  1  0  0  0  0
 42 51  1  0  0  0  0
 43 65  1  0  0  0  0
 44 46  1  0  0  0  0
 45 47  1  0  0  0  0
 45 48  1  0  0  0  0
 46 50  1  0  0  0  0
 47 52  1  0  0  0  0
 48 66  1  0  0  0  0
 49 52  1  0  0  0  0
 49 66  1  0  0  0  0
 50 71  1  0  0  0  0
 51 65  1  0  0  0  0
 52 64  1  0  0  0  0
 53 59  1  0  0  0  0
 54 61  1  0  0  0  0
 55 61  1  0  0  0  0
 56 61  1  0  0  0  0
 57 73  1  0  0  0  0
 58 61  1  0  0  0  0
 58 72  1  0  0  0  0
 59 73  1  0  0  0  0
 60 85  1  0  0  0  0
 60 86  1  0  0  0  0
 60 87  1  0  0  0  0
 63 64  1  0  0  0  0
M  CHG  1  73   1
M  ISO  4  33 101  40 100  70 100  82 101
M  END
> <Batch ID>
0171

> <Smiles>
CNC(C)C(=O)NC(C(=O)N1Cc2cc([101O:1][101CH2:1]C(=O)C(=O)Nc3cnc([100NH:0][100C:0](=O)N4CCCC(n5nc(-c6ccc(Oc7ccc(F)cc7F)cc6)c(C(N)=O)c5N)C4)cc3C(F)(F)F)ccc2CC1C(=O)NC1CCCc2ccccc21)C(C)(C)C

> <Shape>
0.152

> <Color>
0.184

> <Negative vol penalty>
0.000

$$$$

  -OEChem-04052304233D

 86 94  0     1  0  0  0  0  0999 V2000
  -26.9770  -35.3803   24.1268 C   0  0  0  0  0  0  0  0  0  0  0  0
  -27.3788  -34.0965   23.7721 C   0  0  0  0  0  0  0  0  0  0  0  0
  -21.6108   -9.8357   22.1841 C   0  0  0  0  0  0  0  0  0  0  0  0
  -23.5672   -9.6813   20.7749 C   0  0  0  0  0  0  0  0  0  0  0  0
  -25.6726  -35.6053   24.5648 C   0  0  0  0  0  0  0  0  0  0  0  0
  -26.4766  -33.0366   23.8563 C   0  0  0  0  0  0  0  0  0  0  0  0
  -26.6189  -30.0360   19.7794 C   0  0  0  0  0  0  0  0  0  0  0  0
  -26.7567  -20.3897   17.2556 C   0  0  0  0  0  0  0  0  0  0  0  0
  -25.6475  -19.6149   17.5946 C   0  0  0  0  0  0  0  0  0  0  0  0
  -21.4395   -8.4541   22.0977 C   0  0  0  0  0  0  0  0  0  0  0  0
  -23.3960   -8.2997   20.6886 C   0  0  0  0  0  0  0  0  0  0  0  0
  -27.6707  -29.1246   19.6960 C   0  0  0  0  0  0  0  0  0  0  0  0
  -22.7829   -5.6852   23.4980 C   0  0  0  0  0  0  0  0  0  0  0  0
  -22.4993   -4.9923   24.6749 C   0  0  0  0  0  0  0  0  0  0  0  0
  -26.2068  -27.3731   20.4764 C   0  0  0  0  0  0  0  0  0  0  0  0
  -20.4139   -4.2291   23.7230 C   0  0  0  0  0  0  0  0  0  0  0  0
  -22.6746  -10.4493   21.5227 C   0  0  0  0  0  0  0  0  0  0  0  0
  -23.6000  -12.5824   22.5722 C   0  0  0  0  0  0  0  0  0  0  0  0
  -24.7512  -34.5493   24.6451 C   0  0  0  0  0  0  0  0  0  0  0  0
  -25.3539  -29.6244   20.2230 C   0  0  0  0  0  0  0  0  0  0  0  0
  -25.1590  -33.2474   24.2970 C   0  0  0  0  0  0  0  0  0  0  0  0
  -25.1400  -28.2807   20.5620 C   0  0  0  0  0  0  0  0  0  0  0  0
  -27.9001  -20.3577   18.0539 C   0  0  0  0  0  0  0  0  0  0  0  0
  -25.6816  -18.8081   18.7319 C   0  0  0  0  0  0  0  0  0  0  0  0
  -22.3321   -7.6861   21.3500 C   0  0  0  0  0  0  0  0  0  0  0  0
  -27.4655  -27.7936   20.0473 C   0  0  0  0  0  0  0  0  0  0  0  0
  -21.8820   -5.6501   22.4337 C   0  0  0  0  0  0  0  0  0  0  0  0
  -21.3148   -4.2642   24.7874 C   0  0  0  0  0  0  0  0  0  0  0  0
  -20.6975   -4.9221   22.5462 C   0  0  0  0  0  0  0  0  0  0  0  0
  -27.9342  -19.5509   19.1913 C   0  0  0  0  0  0  0  0  0  0  0  0
  -26.8250  -18.7761   19.5303 C   0  0  0  0  0  0  0  0  0  0  0  0
  -22.8518  -11.8765   21.6111 C   0  0  0  0  0  0  0  0  0  0  0  0
  -23.4522  -13.9020   22.2210 C   0  0  0  0  0  0  0  0  0  0  0  0
  -28.3427  -25.8241   19.1405 C   0  0  0  0  0  0  0  0  0  1  0  0
  -24.3606  -12.0893   23.6830 C   0  0  0  0  0  0  0  0  0  0  0  0
  -28.8917  -24.6096   19.2992 C   0  0  0  0  0  0  0  0  0  0  0  0
  -28.5981  -23.5660   18.2655 C   0  0  0  0  0  0  0  0  0  0  0  0
  -23.4841  -30.3777   22.6807 C   0  0  0  0  0  0  0  0  0  0  0  0
  -21.3658  -28.4500   21.1578 C   0  0  0  0  0  0  0  0  0  0  0  0
  -20.8368  -25.8800   18.9756 C   0  0  0  0  0  0  0  0  0  0  0  0
  -23.3420  -17.9395   18.3884 C   0  0  0  0  0  0  0  0  0  0  0  0
  -23.3658  -34.8331   25.1693 C   0  0  0  0  0  0  0  0  0  0  0  0
  -24.2228  -30.6142   20.2819 C   0  0  0  0  0  0  0  0  0  0  0  0
  -23.7956  -27.7839   21.0249 C   0  0  0  0  0  0  0  0  0  0  0  0
  -22.3628  -33.7211   24.8731 C   0  0  0  0  0  0  0  0  0  0  0  0
  -20.3379  -16.0945   18.8871 C   0  0  0  0  0  0  0  0  0  0  0  0
  -22.9620  -32.3587   25.2076 C   0  0  0  0  0  0  0  0  0  0  0  0
  -20.7857  -14.8907   19.7193 C   0  0  0  0  0  0  0  0  0  0  0  0
  -21.3916  -16.4946   17.8559 C   0  0  0  0  0  0  0  0  0  0  0  0
  -23.1856  -15.5143   19.2307 C   0  0  0  0  0  0  0  0  0  0  0  0
  -24.2022  -32.0762   24.3511 C   0  0  1  0  0  0  0  0  0  0  0  0
  -23.1101  -30.1938   21.2371 C   0  0  1  0  0  0  0  0  0  0  0  0
  -22.1844  -15.1146   20.3268 C   0  0  2  0  0  0  0  0  0  0  0  0
  -19.0000  -24.5034   17.9614 C   0  0  0  0  0  0  0  0  0  0  0  0
  -21.0855  -26.9023   23.7724 C   0  0  0  0  0  0  0  0  0  0  0  0
  -20.0259  -25.0409   22.4759 C   0  0  0  0  0  0  0  0  0  0  0  0
  -18.9371  -27.2840   22.5506 C   0  0  0  0  0  0  0  0  0  0  0  0
  -21.5316  -26.7601   16.2367 C   0  0  0  0  0  0  0  0  0  0  0  0
  -29.0920  -21.1939   17.6875 C   0  0  0  0  0  0  0  0  0  0  0  0
  -21.0466  -26.9749   21.1918 C   0  0  1  0  0  0  0  0  0  0  0  0
  -19.8813  -25.7329   17.8052 C   0  0  2  0  0  0  0  0  0  0  0  0
  -20.2997  -26.5600   22.4908 C   0  0  0  0  0  0  0  0  0  0  0  0
  -22.2716  -12.6811   20.7166 N   0  0  0  0  0  0  0  0  0  0  0  0
  -22.6553  -13.9062   21.1142 N   0  0  0  0  0  0  0  0  0  0  0  0
  -22.7230  -28.7913   21.0717 N   0  0  0  0  0  0  0  0  0  0  0  0
  -22.6895  -16.6939   18.5044 N   0  0  0  0  0  0  0  0  0  0  0  0
  -23.9275  -15.0475   22.7542 N   0  0  0  0  0  0  0  0  0  0  0  0
  -24.4065  -10.7053   23.8997 N   0  0  0  0  0  0  0  0  0  0  0  0
  -24.5535  -18.0219   19.0740 N   0  0  0  0  0  0  0  0  0  0  0  0
  -29.2176  -22.3579   18.5357 N   0  0  0  0  0  0  0  0  0  0  0  0
  -23.8138  -31.6773   23.0153 N   0  0  0  0  0  0  0  0  0  0  0  0
  -20.3139  -26.6874   19.9635 N   0  0  0  0  0  0  0  0  0  0  0  0
  -20.6408  -25.6077   16.5291 N   0  3  0  0  0  0  0  0  0  0  0  0
  -24.9678  -12.8544   24.4701 O   0  0  0  0  0  0  0  0  0  0  0  0
  -27.8821  -23.7907   17.2936 O   0  0  0  0  0  0  0  0  0  0  0  0
  -23.4729  -29.4124   23.4355 O   0  0  0  0  0  0  0  0  0  0  0  0
  -20.4445  -29.2692   21.1987 O   0  0  0  0  0  0  0  0  0  0  0  0
  -21.9355  -25.3304   19.0117 O   0  0  0  0  0  0  0  0  0  0  0  0
  -22.8482  -18.8739   17.7519 O   0  0  0  0  0  0  0  0  0  0  0  0
  -29.7096  -24.2589   20.3508 O   0  0  0  0  0  0  0  0  0  0  0  0
  -22.1654   -6.3379   21.2656 O   0  0  0  0  0  0  0  0  0  0  0  0
  -28.4905  -26.9021   19.9674 O   0  0  0  0  0  0  0  0  0  1  0  0
  -21.0433   -3.5976   25.9171 F   0  0  0  0  0  0  0  0  0  0  0  0
  -19.8288   -4.8837   21.5266 F   0  0  0  0  0  0  0  0  0  0  0  0
  -29.0284  -19.5141   19.9646 F   0  0  0  0  0  0  0  0  0  0  0  0
  -26.8691  -18.0043   20.6253 F   0  0  0  0  0  0  0  0  0  0  0  0
  1  2  1  0  0  0  0
  1  5  2  0  0  0  0
  2  6  2  0  0  0  0
  3 10  2  0  0  0  0
  3 17  1  0  0  0  0
  4 11  1  0  0  0  0
  4 17  2  0  0  0  0
  5 19  1  0  0  0  0
  6 21  1  0  0  0  0
  7 12  2  0  0  0  0
  7 20  1  0  0  0  0
  8  9  2  0  0  0  0
  8 23  1  0  0  0  0
  9 24  1  0  0  0  0
 10 25  1  0  0  0  0
 11 25  2  0  0  0  0
 12 26  1  0  0  0  0
 13 14  2  0  0  0  0
 13 27  1  0  0  0  0
 14 28  1  0  0  0  0
 15 22  1  0  0  0  0
 15 26  2  0  0  0  0
 16 28  2  0  0  0  0
 16 29  1  0  0  0  0
 17 32  1  0  0  0  0
 18 32  1  0  0  0  0
 18 33  2  0  0  0  0
 18 35  1  0  0  0  0
 19 21  2  0  0  0  0
 19 42  1  0  0  0  0
 20 22  2  0  0  0  0
 20 43  1  0  0  0  0
 21 51  1  0  0  0  0
 22 44  1  0  0  0  0
 23 30  2  0  0  0  0
 23 59  1  0  0  0  0
 24 31  2  0  0  0  0
 24 69  1  0  0  0  0
 25 81  1  0  0  0  0
 26 82  1  0  0  0  0
 27 29  2  0  0  0  0
 27 81  1  0  0  0  0
 28 83  1  0  0  0  0
 29 84  1  0  0  0  0
 30 31  1  0  0  0  0
 30 85  1  0  0  0  0
 31 86  1  0  0  0  0
 32 63  2  0  0  0  0
 33 64  1  0  0  0  0
 33 67  1  0  0  0  0
 34 36  2  0  0  0  0
 34 82  1  0  0  0  0
 35 68  1  0  0  0  0
 35 74  2  0  0  0  0
 36 37  1  0  0  0  0
 36 80  1  0  0  0  0
 37 70  1  0  0  0  0
 37 75  2  0  0  0  0
 38 52  1  0  0  0  0
 38 71  1  0  0  0  0
 38 76  2  0  0  0  0
 39 60  1  0  0  0  0
 39 65  1  0  0  0  0
 39 77  2  0  0  0  0
 40 61  1  0  0  0  0
 40 72  1  0  0  0  0
 40 78  2  0  0  0  0
 41 66  1  0  0  0  0
 41 69  1  0  0  0  0
 41 79  2  0  0  0  0
 42 45  1  0  0  0  0
 43 52  1  0  0  0  0
 44 65  1  0  0  0  0
 45 47  1  0  0  0  0
 46 48  1  0  0  0  0
 46 49  1  0  0  0  0
 47 51  1  0  0  0  0
 48 53  1  0  0  0  0
 49 66  1  0  0  0  0
 50 53  1  0  0  0  0
 50 66  1  0  0  0  0
 51 71  1  0  0  0  0
 52 65  1  0  0  0  0
 53 64  1  0  0  0  0
 54 61  1  0  0  0  0
 55 62  1  0  0  0  0
 56 62  1  0  0  0  0
 57 62  1  0  0  0  0
 58 73  1  0  0  0  0
 59 70  1  0  0  0  0
 60 62  1  0  0  0  0
 60 72  1  0  0  0  0
 61 73  1  0  0  0  0
 63 64  1  0  0  0  0
M  CHG  1  73   1
M  ISO  4  34 101  41 100  69 100  82 101
M  END
> <Batch ID>
0171

> <Smiles>
CNC(C)C(=O)NC(C(=O)N1Cc2cc([101O:1][101CH2:1]C(=O)C(=O)NCc3ccc([100NH:0][100C:0](=O)N4CCCC(n5nc(-c6ccc(Oc7ccc(F)cc7F)cc6)c(C(N)=O)c5N)C4)c(F)c3F)ccc2CC1C(=O)NC1CCCc2ccccc21)C(C)(C)C

> <Shape>
0.279

> <Color>
0.091

> <Negative vol penalty>
0.000

$$$$

  -OEChem-04052304233D

 88 97  0     1  0  0  0  0  0999 V2000
  -16.6455  -30.5438   22.5007 C   0  0  0  0  0  0  0  0  0  0  0  0
  -17.7896  -30.4524   21.7145 C   0  0  0  0  0  0  0  0  0  0  0  0
  -27.1218  -12.3162   21.7371 C   0  0  0  0  0  0  0  0  0  0  0  0
  -26.2608  -14.2818   20.6271 C   0  0  0  0  0  0  0  0  0  0  0  0
  -16.7094  -31.1499   23.7547 C   0  0  0  0  0  0  0  0  0  0  0  0
  -18.9981  -30.9680   22.1815 C   0  0  0  0  0  0  0  0  0  0  0  0
  -29.6520  -23.6296   19.1505 C   0  0  0  0  0  0  0  0  0  0  0  0
  -22.8867  -27.8209   21.3941 C   0  0  0  0  0  0  0  0  0  0  0  0
  -30.1728  -22.5192   19.8148 C   0  0  0  0  0  0  0  0  0  0  0  0
  -25.8195  -11.8575   21.9350 C   0  0  0  0  0  0  0  0  0  0  0  0
  -24.9585  -13.8231   20.8250 C   0  0  0  0  0  0  0  0  0  0  0  0
  -23.4144  -27.7711   20.1047 C   0  0  0  0  0  0  0  0  0  0  0  0
  -23.4139  -10.3278   20.1166 C   0  0  0  0  0  0  0  0  0  0  0  0
  -23.1505   -8.9859   19.8421 C   0  0  0  0  0  0  0  0  0  0  0  0
  -25.2114  -29.2270   20.7904 C   0  0  0  0  0  0  0  0  0  0  0  0
  -29.3984  -21.0877   18.0292 C   0  0  0  0  0  0  0  0  0  0  0  0
  -22.4704   -8.6500   22.1359 C   0  0  0  0  0  0  0  0  0  0  0  0
  -27.3425  -13.5284   21.0832 C   0  0  0  0  0  0  0  0  0  0  0  0
  -29.7163  -13.3607   20.1642 C   0  0  0  0  0  0  0  0  0  0  0  0
  -17.9214  -31.6646   24.2413 C   0  0  0  0  0  0  0  0  0  0  0  0
  -23.5123  -28.5842   22.3903 C   0  0  0  0  0  0  0  0  0  0  0  0
  -19.0780  -31.5827   23.4426 C   0  0  0  0  0  0  0  0  0  0  0  0
  -29.0043  -23.4691   17.9255 C   0  0  0  0  0  0  0  0  0  0  0  0
  -24.6910  -29.2828   22.0924 C   0  0  0  0  0  0  0  0  0  0  0  0
  -28.8776  -22.1982   17.3649 C   0  0  0  0  0  0  0  0  0  0  0  0
  -30.0460  -21.2483   19.2542 C   0  0  0  0  0  0  0  0  0  0  0  0
  -24.7378  -12.6110   21.4790 C   0  0  0  0  0  0  0  0  0  0  0  0
  -24.5754  -28.4765   19.8019 C   0  0  0  0  0  0  0  0  0  0  0  0
  -23.2057  -10.8309   21.4009 C   0  0  0  0  0  0  0  0  0  0  0  0
  -22.6788   -8.1470   20.8517 C   0  0  0  0  0  0  0  0  0  0  0  0
  -22.7339   -9.9920   22.4105 C   0  0  0  0  0  0  0  0  0  0  0  0
  -28.6875  -14.0030   20.8789 C   0  0  0  0  0  0  0  0  0  0  0  0
  -30.7884  -14.2133   20.2647 C   0  0  0  0  0  0  0  0  0  0  0  0
  -29.7039  -12.1055   19.4712 C   0  0  0  0  0  0  0  0  0  0  0  0
  -22.6672  -31.0827   24.1643 C   0  0  0  0  0  0  0  0  0  0  0  0
  -25.5121  -30.5194   25.6173 C   0  0  0  0  0  0  0  0  0  0  0  0
  -28.8600  -29.6398   24.6000 C   0  0  0  0  0  0  0  0  0  0  0  0
  -31.2495  -20.1049   21.1490 C   0  0  0  0  0  0  0  0  0  0  0  0
  -17.9311  -32.3531   25.5832 C   0  0  0  0  0  0  0  0  0  0  0  0
  -22.9452  -28.6061   23.7833 C   0  0  0  0  0  0  0  0  0  0  0  0
  -25.4122  -30.1007   23.1313 C   0  0  0  0  0  0  0  0  0  0  0  0
  -19.3312  -32.5396   26.1620 C   0  0  0  0  0  0  0  0  0  0  0  0
  -29.1653  -26.9248   16.1056 C   0  0  0  0  0  0  0  0  0  0  0  0
  -32.6750  -17.5324   23.1559 C   0  0  0  0  0  0  0  0  0  0  0  0
  -29.5909  -25.6427   16.8240 C   0  0  0  0  0  0  0  0  0  0  0  0
  -27.3301  -25.3547   18.0614 C   0  0  0  0  0  0  0  0  0  0  0  0
  -20.2799  -33.0850   25.0992 C   0  0  0  0  0  0  0  0  0  0  0  0
  -31.9120  -16.2758   22.7303 C   0  0  0  0  0  0  0  0  0  0  0  0
  -28.5019  -27.9312   17.0468 C   0  0  0  0  0  0  0  0  0  0  0  0
  -26.4722  -26.3234   17.2470 C   0  0  0  0  0  0  0  0  0  0  0  0
  -31.7723  -18.7647   23.1753 C   0  0  0  0  0  0  0  0  0  0  0  0
  -30.2681  -17.7544   21.5061 C   0  0  0  0  0  0  0  0  0  0  0  0
  -28.4428  -24.6976   17.2191 C   0  0  2  0  0  0  0  0  0  0  0  0
  -20.4128  -32.1081   23.9247 C   0  0  1  0  0  0  0  0  0  0  0  0
  -23.3793  -29.8286   24.5860 C   0  0  1  0  0  0  0  0  0  0  0  0
  -31.1507  -16.4993   21.4089 C   0  0  2  0  0  0  0  0  0  0  0  0
  -26.9796  -27.7743   17.1917 C   0  0  1  0  0  0  0  0  0  0  0  0
  -26.6711  -22.0686   16.1812 C   0  0  0  0  0  0  0  0  0  0  0  0
  -30.6731  -28.4207   25.8345 C   0  0  0  0  0  0  0  0  0  0  0  0
  -26.4562  -33.3126   26.4025 C   0  0  0  0  0  0  0  0  0  0  0  0
  -28.8142  -32.5148   26.1358 C   0  0  0  0  0  0  0  0  0  0  0  0
  -27.3322  -31.4703   27.8491 C   0  0  0  0  0  0  0  0  0  0  0  0
  -29.1413  -27.6344   22.4417 C   0  0  0  0  0  0  0  0  0  0  0  0
  -28.1900  -22.0025   16.0536 C   0  0  0  0  0  0  0  0  0  0  0  0
  -26.5069  -28.5687   18.4175 C   0  0  0  0  0  0  0  0  0  1  0  0
  -26.9330  -30.9812   25.4010 C   0  0  1  0  0  0  0  0  0  0  0  0
  -29.5534  -28.3061   24.8119 C   0  0  2  0  0  0  0  0  0  0  0  0
  -27.3654  -32.0678   26.4255 C   0  0  0  0  0  0  0  0  0  0  0  0
  -29.0716  -15.1733   21.3955 N   0  0  0  0  0  0  0  0  0  0  0  0
  -30.3536  -15.2731   21.0051 N   0  0  0  0  0  0  0  0  0  0  0  0
  -24.8150  -30.0957   24.4770 N   0  0  0  0  0  0  0  0  0  0  0  0
  -31.0872  -18.9149   21.8896 N   0  0  0  0  0  0  0  0  0  0  0  0
  -32.0511  -14.1524   19.7913 N   0  0  0  0  0  0  0  0  0  0  0  0
  -29.3397  -12.0930   18.1179 N   0  0  0  0  0  0  0  0  0  0  0  0
  -30.5766  -20.1202   19.9277 N   0  0  0  0  0  0  0  0  0  0  0  0
  -21.2916  -31.0129   24.2752 N   0  0  0  0  0  0  0  0  0  0  0  0
  -27.7601  -29.7795   25.4196 N   0  0  0  0  0  0  0  0  0  0  0  0
  -30.1354  -27.8155   23.5307 N   0  3  0  0  0  0  0  0  0  0  0  0
  -29.9910  -11.0248   20.0397 O   0  0  0  0  0  0  0  0  0  0  0  0
  -23.3176  -32.0431   23.7690 O   0  0  0  0  0  0  0  0  0  0  0  0
  -25.0405  -30.5273   26.7572 O   0  0  0  0  0  0  0  0  0  0  0  0
  -29.2569  -30.4758   23.7912 O   0  0  0  0  0  0  0  0  0  0  0  0
  -31.9569  -21.0305   21.5550 O   0  0  0  0  0  0  0  0  0  0  0  0
  -26.3799  -28.3882   16.0403 O   0  0  0  0  0  0  0  0  0  0  0  0
  -23.4669  -12.1636   21.6717 O   0  0  0  0  0  0  0  0  0  0  0  0
  -25.0923  -28.4301   18.5439 O   0  0  0  0  0  0  0  0  0  1  0  0
  -22.4244   -6.8587   20.5875 F   0  0  0  0  0  0  0  0  0  0  0  0
  -22.5307  -10.4698   23.6459 F   0  0  0  0  0  0  0  0  0  0  0  0
  1  2  1  0  0  0  0
  1  5  2  0  0  0  0
  2  6  2  0  0  0  0
  3 10  2  0  0  0  0
  3 18  1  0  0  0  0
  4 11  1  0  0  0  0
  4 18  2  0  0  0  0
  5 20  1  0  0  0  0
  6 22  1  0  0  0  0
  7  9  2  0  0  0  0
  7 23  1  0  0  0  0
  8 12  2  0  0  0  0
  8 21  1  0  0  0  0
  9 26  1  0  0  0  0
 10 27  1  0  0  0  0
 11 27  2  0  0  0  0
 12 28  1  0  0  0  0
 13 14  2  0  0  0  0
 13 29  1  0  0  0  0
 14 30  1  0  0  0  0
 15 24  1  0  0  0  0
 15 28  2  0  0  0  0
 16 25  1  0  0  0  0
 16 26  2  0  0  0  0
 17 30  2  0  0  0  0
 17 31  1  0  0  0  0
 18 32  1  0  0  0  0
 19 32  1  0  0  0  0
 19 33  2  0  0  0  0
 19 34  1  0  0  0  0
 20 22  2  0  0  0  0
 20 39  1  0  0  0  0
 21 24  2  0  0  0  0
 21 40  1  0  0  0  0
 22 54  1  0  0  0  0
 23 25  2  0  0  0  0
 23 53  1  0  0  0  0
 24 41  1  0  0  0  0
 25 64  1  0  0  0  0
 26 75  1  0  0  0  0
 27 85  1  0  0  0  0
 28 86  1  0  0  0  0
 29 31  2  0  0  0  0
 29 85  1  0  0  0  0
 30 87  1  0  0  0  0
 31 88  1  0  0  0  0
 32 69  2  0  0  0  0
 33 70  1  0  0  0  0
 33 73  1  0  0  0  0
 34 74  1  0  0  0  0
 34 79  2  0  0  0  0
 35 55  1  0  0  0  0
 35 76  1  0  0  0  0
 35 80  2  0  0  0  0
 36 66  1  0  0  0  0
 36 71  1  0  0  0  0
 36 81  2  0  0  0  0
 37 67  1  0  0  0  0
 37 77  1  0  0  0  0
 37 82  2  0  0  0  0
 38 72  1  0  0  0  0
 38 75  1  0  0  0  0
 38 83  2  0  0  0  0
 39 42  1  0  0  0  0
 40 55  1  0  0  0  0
 41 71  1  0  0  0  0
 42 47  1  0  0  0  0
 43 45  1  0  0  0  0
 43 49  1  0  0  0  0
 44 48  1  0  0  0  0
 44 51  1  0  0  0  0
 45 53  1  0  0  0  0
 46 50  1  0  0  0  0
 46 53  1  0  0  0  0
 47 54  1  0  0  0  0
 48 56  1  0  0  0  0
 49 57  1  0  0  0  0
 50 57  1  0  0  0  0
 51 72  1  0  0  0  0
 52 56  1  0  0  0  0
 52 72  1  0  0  0  0
 54 76  1  0  0  0  0
 55 71  1  0  0  0  0
 56 70  1  0  0  0  0
 57 65  1  0  0  0  0
 57 84  1  0  0  0  0
 58 64  1  0  0  0  0
 59 67  1  0  0  0  0
 60 68  1  0  0  0  0
 61 68  1  0  0  0  0
 62 68  1  0  0  0  0
 63 78  1  0  0  0  0
 65 86  1  0  0  0  0
 66 68  1  0  0  0  0
 66 77  1  0  0  0  0
 67 78  1  0  0  0  0
 69 70  1  0  0  0  0
M  CHG  1  78   1
M  ISO  4  38 100  65 101  75 100  86 101
M  END
> <Batch ID>
0171

> <Smiles>
CCc1cc([100NH:0][100C:0](=O)N2CCCC(n3nc(-c4ccc(Oc5ccc(F)cc5F)cc4)c(C(N)=O)c3N)C2)ccc1C1CCCC(O)([101CH2:1][101O:1]c2ccc3c(c2)CN(C(=O)C(NC(=O)C(C)NC)C(C)(C)C)C(C(=O)NC2CCCc4ccccc42)C3)CC1

> <Shape>
0.292

> <Color>
0.054

> <Negative vol penalty>
0.000

$$$$

  -OEChem-04052304233D

 86 94  0     1  0  0  0  0  0999 V2000
  -26.4268  -35.4312   24.4208 C   0  0  0  0  0  0  0  0  0  0  0  0
  -25.6138  -34.8286   23.4661 C   0  0  0  0  0  0  0  0  0  0  0  0
  -30.7971  -19.4522   19.6941 C   0  0  0  0  0  0  0  0  0  0  0  0
  -23.2766   -9.6385   20.3349 C   0  0  0  0  0  0  0  0  0  0  0  0
  -23.8707  -10.1320   22.6241 C   0  0  0  0  0  0  0  0  0  0  0  0
  -27.8070  -35.2379   24.3816 C   0  0  0  0  0  0  0  0  0  0  0  0
  -26.1808  -34.0332   22.4710 C   0  0  0  0  0  0  0  0  0  0  0  0
  -24.2662  -27.1316   21.7007 C   0  0  0  0  0  0  0  0  0  0  0  0
  -29.9526  -20.3302   20.3735 C   0  0  0  0  0  0  0  0  0  0  0  0
  -30.7247  -18.0817   19.9431 C   0  0  0  0  0  0  0  0  0  0  0  0
  -22.5986   -8.4951   20.7573 C   0  0  0  0  0  0  0  0  0  0  0  0
  -23.1927   -8.9886   23.0466 C   0  0  0  0  0  0  0  0  0  0  0  0
  -23.7989  -25.8634   21.3549 C   0  0  0  0  0  0  0  0  0  0  0  0
  -23.7514   -5.6557   23.1482 C   0  0  0  0  0  0  0  0  0  0  0  0
  -24.3843   -4.8346   24.0814 C   0  0  0  0  0  0  0  0  0  0  0  0
  -25.4523  -25.7220   19.5959 C   0  0  0  0  0  0  0  0  0  0  0  0
  -22.5589   -5.1826   25.6255 C   0  0  0  0  0  0  0  0  0  0  0  0
  -23.9128  -10.4570   21.2683 C   0  0  0  0  0  0  0  0  0  0  0  0
  -24.0866  -12.9355   20.6898 C   0  0  0  0  0  0  0  0  0  0  0  0
  -28.3903  -34.4318   23.3913 C   0  0  0  0  0  0  0  0  0  0  0  0
  -25.3397  -27.6940   21.0045 C   0  0  0  0  0  0  0  0  0  0  0  0
  -27.5703  -33.8300   22.4178 C   0  0  0  0  0  0  0  0  0  0  0  0
  -25.9328  -26.9867   19.9458 C   0  0  0  0  0  0  0  0  0  0  0  0
  -29.0358  -19.8376   21.3021 C   0  0  0  0  0  0  0  0  0  0  0  0
  -29.8078  -17.5891   20.8718 C   0  0  0  0  0  0  0  0  0  0  0  0
  -22.5566   -8.1702   22.1132 C   0  0  0  0  0  0  0  0  0  0  0  0
  -24.3904  -25.1605   20.3050 C   0  0  0  0  0  0  0  0  0  0  0  0
  -22.5223   -6.2403   23.4536 C   0  0  0  0  0  0  0  0  0  0  0  0
  -23.7880   -4.5980   25.3200 C   0  0  0  0  0  0  0  0  0  0  0  0
  -21.9261   -6.0037   24.6922 C   0  0  0  0  0  0  0  0  0  0  0  0
  -28.9633  -18.4670   21.5513 C   0  0  0  0  0  0  0  0  0  0  0  0
  -24.6138  -11.6380   20.8325 C   0  0  0  0  0  0  0  0  0  0  0  0
  -25.1471  -13.6909   20.2527 C   0  0  0  0  0  0  0  0  0  0  0  0
  -22.7571  -13.4150   20.9310 C   0  0  0  0  0  0  0  0  0  0  0  0
  -24.4680  -21.3553   21.2826 C   0  0  0  0  0  0  0  0  0  0  0  0
  -25.7727  -21.5508   21.9984 C   0  0  0  0  0  0  0  0  0  0  0  0
  -27.6700  -30.6080   20.6117 C   0  0  0  0  0  0  0  0  0  0  0  0
  -29.3476  -28.0680   20.2321 C   0  0  0  0  0  0  0  0  0  0  0  0
  -30.9116  -25.0370   20.2969 C   0  0  0  0  0  0  0  0  0  0  0  0
  -30.5019  -15.1913   20.5322 C   0  0  0  0  0  0  0  0  0  0  0  0
  -29.8915  -34.2906   23.3614 C   0  0  0  0  0  0  0  0  0  0  0  0
  -25.8360  -29.0828   21.3023 C   0  0  0  0  0  0  0  0  0  0  0  0
  -27.0625  -27.6457   19.2024 C   0  0  0  0  0  0  0  0  0  0  0  0
  -30.3770  -33.1295   22.4974 C   0  0  0  0  0  0  0  0  0  0  0  0
  -29.7269  -12.2981   18.6072 C   0  0  0  0  0  0  0  0  0  0  0  0
  -29.6563  -33.1267   21.1530 C   0  0  0  0  0  0  0  0  0  0  0  0
  -28.2842  -11.9751   19.0028 C   0  0  0  0  0  0  0  0  0  0  0  0
  -30.5370  -12.8191   19.7929 C   0  0  0  0  0  0  0  0  0  0  0  0
  -28.4919  -13.6296   20.9019 C   0  0  0  0  0  0  0  0  0  0  0  0
  -28.1454  -32.9400   21.3374 C   0  0  1  0  0  0  0  0  0  0  0  0
  -27.3572  -29.2318   21.1212 C   0  0  1  0  0  0  0  0  0  0  0  0
  -27.6188  -13.1627   19.7257 C   0  0  2  0  0  0  0  0  0  0  0  0
  -33.1782  -23.9847   20.0675 C   0  0  0  0  0  0  0  0  0  0  0  0
  -29.2202  -28.4613   17.2100 C   0  0  0  0  0  0  0  0  0  0  0  0
  -30.9186  -26.6372   16.9723 C   0  0  0  0  0  0  0  0  0  0  0  0
  -31.5004  -28.7282   18.2019 C   0  0  0  0  0  0  0  0  0  0  0  0
  -30.8065  -23.9364   23.0422 C   0  0  0  0  0  0  0  0  0  0  0  0
  -28.1281  -20.7854   22.0315 C   0  0  0  0  0  0  0  0  0  0  0  0
  -24.4764  -21.5840   19.7871 C   0  0  0  0  0  0  0  0  0  0  0  0
  -24.8775  -23.0058   19.4234 C   0  0  0  0  0  0  0  0  0  1  0  0
  -29.9215  -27.0640   19.2646 C   0  0  1  0  0  0  0  0  0  0  0  0
  -32.1510  -24.5583   21.0312 C   0  0  2  0  0  0  0  0  0  0  0  0
  -30.3656  -27.7179   17.9258 C   0  0  0  0  0  0  0  0  0  0  0  0
  -25.9086  -11.5694   20.5118 N   0  0  0  0  0  0  0  0  0  0  0  0
  -26.2038  -12.8333   20.1632 N   0  0  0  0  0  0  0  0  0  0  0  0
  -27.9704  -28.3076   20.1523 N   0  0  0  0  0  0  0  0  0  0  0  0
  -29.8476  -13.9458   20.4255 N   0  0  0  0  0  0  0  0  0  0  0  0
  -25.2695  -14.9984   19.9398 N   0  0  0  0  0  0  0  0  0  0  0  0
  -21.7893  -12.5049   21.3776 N   0  0  0  0  0  0  0  0  0  0  0  0
  -29.7360  -16.1963   21.1221 N   0  0  0  0  0  0  0  0  0  0  0  0
  -26.7784  -20.7434   21.5191 N   0  0  0  0  0  0  0  0  0  0  0  0
  -27.8368  -31.5520   21.6069 N   0  0  0  0  0  0  0  0  0  0  0  0
  -30.9923  -26.3760   19.9777 N   0  0  0  0  0  0  0  0  0  0  0  0
  -31.7921  -23.5018   22.0191 N   0  3  0  0  0  0  0  0  0  0  0  0
  -22.4328  -14.6116   20.7400 O   0  0  0  0  0  0  0  0  0  0  0  0
  -23.5055  -21.0205   21.9568 O   0  0  0  0  0  0  0  0  0  0  0  0
  -25.8171  -22.3945   22.8798 O   0  0  0  0  0  0  0  0  0  0  0  0
  -27.7554  -30.8004   19.4044 O   0  0  0  0  0  0  0  0  0  0  0  0
  -30.0986  -28.6304   21.0340 O   0  0  0  0  0  0  0  0  0  0  0  0
  -29.9679  -24.2963   20.0297 O   0  0  0  0  0  0  0  0  0  0  0  0
  -31.6467  -15.3616   20.1052 O   0  0  0  0  0  0  0  0  0  0  0  0
  -21.8949   -7.0546   22.5258 O   0  0  0  0  0  0  0  0  0  0  0  0
  -23.9322  -23.9210   19.9757 O   0  0  0  0  0  0  0  0  0  1  0  0
  -24.3951   -3.8083   26.2155 F   0  0  0  0  0  0  0  0  0  0  0  0
  -20.7448   -6.5616   24.9909 F   0  0  0  0  0  0  0  0  0  0  0  0
  -28.0802  -17.9940   22.4436 F   0  0  0  0  0  0  0  0  0  0  0  0
  1  2  1  0  0  0  0
  1  6  2  0  0  0  0
  2  7  2  0  0  0  0
  3  9  2  0  0  0  0
  3 10  1  0  0  0  0
  4 11  2  0  0  0  0
  4 18  1  0  0  0  0
  5 12  1  0  0  0  0
  5 18  2  0  0  0  0
  6 20  1  0  0  0  0
  7 22  1  0  0  0  0
  8 13  2  0  0  0  0
  8 21  1  0  0  0  0
  9 24  1  0  0  0  0
 10 25  2  0  0  0  0
 11 26  1  0  0  0  0
 12 26  2  0  0  0  0
 13 27  1  0  0  0  0
 14 15  2  0  0  0  0
 14 28  1  0  0  0  0
 15 29  1  0  0  0  0
 16 23  1  0  0  0  0
 16 27  2  0  0  0  0
 17 29  2  0  0  0  0
 17 30  1  0  0  0  0
 18 32  1  0  0  0  0
 19 32  1  0  0  0  0
 19 33  2  0  0  0  0
 19 34  1  0  0  0  0
 20 22  2  0  0  0  0
 20 41  1  0  0  0  0
 21 23  2  0  0  0  0
 21 42  1  0  0  0  0
 22 50  1  0  0  0  0
 23 43  1  0  0  0  0
 24 31  2  0  0  0  0
 24 58  1  0  0  0  0
 25 31  1  0  0  0  0
 25 70  1  0  0  0  0
 26 82  1  0  0  0  0
 27 83  1  0  0  0  0
 28 30  2  0  0  0  0
 28 82  1  0  0  0  0
 29 84  1  0  0  0  0
 30 85  1  0  0  0  0
 31 86  1  0  0  0  0
 32 64  2  0  0  0  0
 33 65  1  0  0  0  0
 33 68  1  0  0  0  0
 34 69  1  0  0  0  0
 34 75  2  0  0  0  0
 35 36  1  0  0  0  0
 35 59  1  0  0  0  0
 35 76  2  0  0  0  0
 36 71  1  0  0  0  0
 36 77  2  0  0  0  0
 37 51  1  0  0  0  0
 37 72  1  0  0  0  0
 37 78  2  0  0  0  0
 38 61  1  0  0  0  0
 38 66  1  0  0  0  0
 38 79  2  0  0  0  0
 39 62  1  0  0  0  0
 39 73  1  0  0  0  0
 39 80  2  0  0  0  0
 40 67  1  0  0  0  0
 40 70  1  0  0  0  0
 40 81  2  0  0  0  0
 41 44  1  0  0  0  0
 42 51  1  0  0  0  0
 43 66  1  0  0  0  0
 44 46  1  0  0  0  0
 45 47  1  0  0  0  0
 45 48  1  0  0  0  0
 46 50  1  0  0  0  0
 47 52  1  0  0  0  0
 48 67  1  0  0  0  0
 49 52  1  0  0  0  0
 49 67  1  0  0  0  0
 50 72  1  0  0  0  0
 51 66  1  0  0  0  0
 52 65  1  0  0  0  0
 53 62  1  0  0  0  0
 54 63  1  0  0  0  0
 55 63  1  0  0  0  0
 56 63  1  0  0  0  0
 57 74  1  0  0  0  0
 58 71  1  0  0  0  0
 59 60  1  0  0  0  0
 60 83  1  0  0  0  0
 61 63  1  0  0  0  0
 61 73  1  0  0  0  0
 62 74  1  0  0  0  0
 64 65  1  0  0  0  0
M  CHG  1  74   1
M  ISO  4  40 100  60 101  70 100  83 101
M  END
> <Batch ID>
0171

> <Smiles>
CNC(C)C(=O)NC(C(=O)N1Cc2cc([101O:1][101CH2:1]CC(=O)C(=O)NCc3cccc([100NH:0][100C:0](=O)N4CCCC(n5nc(-c6ccc(Oc7ccc(F)cc7F)cc6)c(C(N)=O)c5N)C4)c3F)ccc2CC1C(=O)NC1CCCc2ccccc21)C(C)(C)C

> <Shape>
0.296

> <Color>
0.175

> <Negative vol penalty>
0.000

$$$$

  -OEChem-04052304233D

 86 94  0     1  0  0  0  0  0999 V2000
  -16.9383  -29.4816   24.5238 C   0  0  0  0  0  0  0  0  0  0  0  0
  -18.0129  -28.6058   24.6395 C   0  0  0  0  0  0  0  0  0  0  0  0
  -32.1972  -17.8918   23.5455 C   0  0  0  0  0  0  0  0  0  0  0  0
  -23.1633   -9.6723   19.9411 C   0  0  0  0  0  0  0  0  0  0  0  0
  -23.7453   -9.8797   22.2767 C   0  0  0  0  0  0  0  0  0  0  0  0
  -31.3196  -18.7830   24.1628 C   0  0  0  0  0  0  0  0  0  0  0  0
  -16.9027  -30.4056   23.4802 C   0  0  0  0  0  0  0  0  0  0  0  0
  -19.0522  -28.6526   23.7110 C   0  0  0  0  0  0  0  0  0  0  0  0
  -24.9922  -27.6118   24.7784 C   0  0  0  0  0  0  0  0  0  0  0  0
  -31.7059  -16.9213   22.6723 C   0  0  0  0  0  0  0  0  0  0  0  0
  -22.4396   -8.5140   20.2242 C   0  0  0  0  0  0  0  0  0  0  0  0
  -23.0216   -8.7213   22.5599 C   0  0  0  0  0  0  0  0  0  0  0  0
  -25.7963  -26.4886   24.5900 C   0  0  0  0  0  0  0  0  0  0  0  0
  -23.4600   -5.3802   22.2847 C   0  0  0  0  0  0  0  0  0  0  0  0
  -24.0513   -4.4355   23.1233 C   0  0  0  0  0  0  0  0  0  0  0  0
  -26.5195  -27.3703   22.4643 C   0  0  0  0  0  0  0  0  0  0  0  0
  -22.2199   -4.6723   24.6813 C   0  0  0  0  0  0  0  0  0  0  0  0
  -23.8161  -10.3552   20.9673 C   0  0  0  0  0  0  0  0  0  0  0  0
  -29.9506  -18.7036   23.9071 C   0  0  0  0  0  0  0  0  0  0  0  0
  -24.0854  -12.8753   20.6774 C   0  0  0  0  0  0  0  0  0  0  0  0
  -17.9468  -30.4703   22.5441 C   0  0  0  0  0  0  0  0  0  0  0  0
  -24.9372  -28.6193   23.8045 C   0  0  0  0  0  0  0  0  0  0  0  0
  -19.0300  -29.5774   22.6532 C   0  0  0  0  0  0  0  0  0  0  0  0
  -25.7159  -28.5065   22.6439 C   0  0  0  0  0  0  0  0  0  0  0  0
  -30.3370  -16.8419   22.4165 C   0  0  0  0  0  0  0  0  0  0  0  0
  -22.3688   -8.0385   21.5336 C   0  0  0  0  0  0  0  0  0  0  0  0
  -26.5579  -26.3663   23.4315 C   0  0  0  0  0  0  0  0  0  0  0  0
  -22.2487   -5.9711   22.6443 C   0  0  0  0  0  0  0  0  0  0  0  0
  -23.4313   -4.0815   24.3216 C   0  0  0  0  0  0  0  0  0  0  0  0
  -21.6287   -5.6171   23.8426 C   0  0  0  0  0  0  0  0  0  0  0  0
  -29.4593  -17.7330   23.0339 C   0  0  0  0  0  0  0  0  0  0  0  0
  -24.5643  -11.5515   20.6754 C   0  0  0  0  0  0  0  0  0  0  0  0
  -25.1776  -13.6360   20.3386 C   0  0  0  0  0  0  0  0  0  0  0  0
  -29.0243  -19.6491   24.5618 C   0  0  0  0  0  0  0  0  0  0  0  0
  -22.7709  -13.3729   20.9604 C   0  0  0  0  0  0  0  0  0  0  0  0
  -22.6505  -29.8357   21.9620 C   0  0  0  0  0  0  0  0  0  0  0  0
  -28.2490  -23.1265   23.9138 C   0  0  0  0  0  0  0  0  0  0  0  0
  -24.9746  -31.9438   21.1392 C   0  0  0  0  0  0  0  0  0  0  0  0
  -28.3086  -32.6230   20.8745 C   0  0  0  0  0  0  0  0  0  0  0  0
  -30.5784  -14.8967   20.8340 C   0  0  0  0  0  0  0  0  0  0  0  0
  -17.8413  -31.4542   21.4059 C   0  0  0  0  0  0  0  0  0  0  0  0
  -24.0854  -29.8373   24.0350 C   0  0  0  0  0  0  0  0  0  0  0  0
  -25.7079  -29.5698   21.5772 C   0  0  0  0  0  0  0  0  0  0  0  0
  -19.1636  -31.6909   20.6808 C   0  0  0  0  0  0  0  0  0  0  0  0
  -29.7256  -12.2721   18.5843 C   0  0  0  0  0  0  0  0  0  0  0  0
  -19.8550  -30.3639   20.3846 C   0  0  0  0  0  0  0  0  0  0  0  0
  -28.2674  -11.9595   18.9280 C   0  0  0  0  0  0  0  0  0  0  0  0
  -30.5385  -12.6245   19.8288 C   0  0  0  0  0  0  0  0  0  0  0  0
  -28.5096  -13.3781   21.0054 C   0  0  0  0  0  0  0  0  0  0  0  0
  -20.1884  -29.6142   21.6801 C   0  0  1  0  0  0  0  0  0  0  0  0
  -23.7114  -30.5580   22.7434 C   0  0  1  0  0  0  0  0  0  0  0  0
  -27.6355  -13.0807   19.7761 C   0  0  2  0  0  0  0  0  0  0  0  0
  -28.9194  -22.4376   26.2342 C   0  0  0  0  0  0  0  0  0  0  0  0
  -29.9011  -34.4150   20.1329 C   0  0  0  0  0  0  0  0  0  0  0  0
  -24.4145  -31.2322   18.2255 C   0  0  0  0  0  0  0  0  0  0  0  0
  -26.6033  -32.2862   17.6200 C   0  0  0  0  0  0  0  0  0  0  0  0
  -24.7986  -33.6668   18.6495 C   0  0  0  0  0  0  0  0  0  0  0  0
  -29.4781  -32.8663   23.5823 C   0  0  0  0  0  0  0  0  0  0  0  0
  -27.3387  -24.2850   24.2768 C   0  0  0  0  0  0  0  0  0  1  0  0
  -28.3231  -21.9903   24.9143 C   0  0  2  0  0  0  0  0  0  0  0  0
  -26.0456  -31.9933   20.0765 C   0  0  1  0  0  0  0  0  0  0  0  0
  -29.1285  -33.8265   21.3032 C   0  0  2  0  0  0  0  0  0  0  0  0
  -25.4644  -32.2735   18.6619 C   0  0  0  0  0  0  0  0  0  0  0  0
  -25.8598  -11.4723   20.3602 N   0  0  0  0  0  0  0  0  0  0  0  0
  -26.2042  -12.7559   20.1608 N   0  0  0  0  0  0  0  0  0  0  0  0
  -24.8542  -30.7388   21.8458 N   0  0  0  0  0  0  0  0  0  0  0  0
  -29.8816  -13.6964   20.5800 N   0  0  0  0  0  0  0  0  0  0  0  0
  -25.3504  -14.9653   20.1783 N   0  0  0  0  0  0  0  0  0  0  0  0
  -21.7657  -12.4541   21.2916 N   0  0  0  0  0  0  0  0  0  0  0  0
  -29.8413  -15.8555   21.5283 N   0  0  0  0  0  0  0  0  0  0  0  0
  -29.1849  -20.9621   24.3394 N   0  0  0  0  0  0  0  0  0  0  0  0
  -21.3597  -30.1868   22.3083 N   0  0  0  0  0  0  0  0  0  0  0  0
  -27.0225  -32.9787   20.5270 N   0  0  0  0  0  0  0  0  0  0  0  0
  -28.0700  -19.1509   25.3481 N   0  3  0  0  0  0  0  0  0  0  0  0
  -30.1028  -33.4389   22.3622 N   0  3  0  0  0  0  0  0  0  0  0  0
  -22.4918  -14.5946   20.9046 O   0  0  0  0  0  0  0  0  0  0  0  0
  -22.9788  -29.0214   21.1072 O   0  0  0  0  0  0  0  0  0  0  0  0
  -28.8892  -23.1172   22.8623 O   0  0  0  0  0  0  0  0  0  0  0  0
  -24.2755  -32.9401   21.3401 O   0  0  0  0  0  0  0  0  0  0  0  0
  -28.7646  -31.4820   20.8470 O   0  0  0  0  0  0  0  0  0  0  0  0
  -31.7339  -15.0723   20.4392 O   0  0  0  0  0  0  0  0  0  0  0  0
  -21.6626   -6.9083   21.8102 O   0  0  0  0  0  0  0  0  0  0  0  0
  -27.3431  -25.2706   23.2449 O   0  0  0  0  0  0  0  0  0  1  0  0
  -23.9984   -3.1730   25.1262 F   0  0  0  0  0  0  0  0  0  0  0  0
  -20.4643   -6.1804   24.1929 F   0  0  0  0  0  0  0  0  0  0  0  0
  -28.1423  -17.6583   22.7888 F   0  0  0  0  0  0  0  0  0  0  0  0
  1  2  1  0  0  0  0
  1  7  2  0  0  0  0
  2  8  2  0  0  0  0
  3  6  2  0  0  0  0
  3 10  1  0  0  0  0
  4 11  2  0  0  0  0
  4 18  1  0  0  0  0
  5 12  1  0  0  0  0
  5 18  2  0  0  0  0
  6 19  1  0  0  0  0
  7 21  1  0  0  0  0
  8 23  1  0  0  0  0
  9 13  2  0  0  0  0
  9 22  1  0  0  0  0
 10 25  2  0  0  0  0
 11 26  1  0  0  0  0
 12 26  2  0  0  0  0
 13 27  1  0  0  0  0
 14 15  2  0  0  0  0
 14 28  1  0  0  0  0
 15 29  1  0  0  0  0
 16 24  1  0  0  0  0
 16 27  2  0  0  0  0
 17 29  2  0  0  0  0
 17 30  1  0  0  0  0
 18 32  1  0  0  0  0
 19 31  2  0  0  0  0
 19 34  1  0  0  0  0
 20 32  1  0  0  0  0
 20 33  2  0  0  0  0
 20 35  1  0  0  0  0
 21 23  2  0  0  0  0
 21 41  1  0  0  0  0
 22 24  2  0  0  0  0
 22 42  1  0  0  0  0
 23 50  1  0  0  0  0
 24 43  1  0  0  0  0
 25 31  1  0  0  0  0
 25 70  1  0  0  0  0
 26 82  1  0  0  0  0
 27 83  1  0  0  0  0
 28 30  2  0  0  0  0
 28 82  1  0  0  0  0
 29 84  1  0  0  0  0
 30 85  1  0  0  0  0
 31 86  1  0  0  0  0
 32 64  2  0  0  0  0
 33 65  1  0  0  0  0
 33 68  1  0  0  0  0
 34 71  1  0  0  0  0
 34 74  2  0  0  0  0
 35 69  1  0  0  0  0
 35 76  2  0  0  0  0
 36 51  1  0  0  0  0
 36 72  1  0  0  0  0
 36 77  2  0  0  0  0
 37 59  1  0  0  0  0
 37 60  1  0  0  0  0
 37 78  2  0  0  0  0
 38 61  1  0  0  0  0
 38 66  1  0  0  0  0
 38 79  2  0  0  0  0
 39 62  1  0  0  0  0
 39 73  1  0  0  0  0
 39 80  2  0  0  0  0
 40 67  1  0  0  0  0
 40 70  1  0  0  0  0
 40 81  2  0  0  0  0
 41 44  1  0  0  0  0
 42 51  1  0  0  0  0
 43 66  1  0  0  0  0
 44 46  1  0  0  0  0
 45 47  1  0  0  0  0
 45 48  1  0  0  0  0
 46 50  1  0  0  0  0
 47 52  1  0  0  0  0
 48 67  1  0  0  0  0
 49 52  1  0  0  0  0
 49 67  1  0  0  0  0
 50 72  1  0  0  0  0
 51 66  1  0  0  0  0
 52 65  1  0  0  0  0
 53 60  1  0  0  0  0
 54 62  1  0  0  0  0
 55 63  1  0  0  0  0
 56 63  1  0  0  0  0
 57 63  1  0  0  0  0
 58 75  1  0  0  0  0
 59 83  1  0  0  0  0
 60 71  1  0  0  0  0
 61 63  1  0  0  0  0
 61 73  1  0  0  0  0
 62 75  1  0  0  0  0
 64 65  1  0  0  0  0
M  CHG  2  74   1  75   1
M  ISO  4  40 100  59 101  70 100  83 101
M  END
> <Batch ID>
0171

> <Smiles>
CNC(C)C(=O)NC(C(=O)N1Cc2cc([101O:1][101CH2:1]C(=O)C(C)NC(=N)c3cccc([100NH:0][100C:0](=O)N4CCCC(n5nc(-c6ccc(Oc7ccc(F)cc7F)cc6)c(C(N)=O)c5N)C4)c3F)ccc2CC1C(=O)NC1CCCc2ccccc21)C(C)(C)C

> <Shape>
0.270

> <Color>
0.216

> <Negative vol penalty>
0.000

$$$$

  -OEChem-04052304233D

 85 93  0     1  0  0  0  0  0999 V2000
  -15.7857  -21.1255   21.3142 C   0  0  0  0  0  0  0  0  0  0  0  0
  -17.0639  -20.7321   21.6975 C   0  0  0  0  0  0  0  0  0  0  0  0
  -23.0754   -9.8659   19.9434 C   0  0  0  0  0  0  0  0  0  0  0  0
  -23.8338   -9.8782   22.2373 C   0  0  0  0  0  0  0  0  0  0  0  0
  -15.3945  -22.4559   21.4584 C   0  0  0  0  0  0  0  0  0  0  0  0
  -17.9520  -21.6692   22.2243 C   0  0  0  0  0  0  0  0  0  0  0  0
  -22.1590  -20.7165   26.5717 C   0  0  0  0  0  0  0  0  0  0  0  0
  -22.3317   -8.7131   20.1955 C   0  0  0  0  0  0  0  0  0  0  0  0
  -23.0901   -8.7255   22.4894 C   0  0  0  0  0  0  0  0  0  0  0  0
  -23.5304  -20.4725   26.5124 C   0  0  0  0  0  0  0  0  0  0  0  0
  -19.8618   -7.9281   23.0917 C   0  0  0  0  0  0  0  0  0  0  0  0
  -19.1041   -7.8906   24.2622 C   0  0  0  0  0  0  0  0  0  0  0  0
  -23.9574  -22.8198   26.8688 C   0  0  0  0  0  0  0  0  0  0  0  0
  -20.3456   -5.9551   25.0038 C   0  0  0  0  0  0  0  0  0  0  0  0
  -29.7545  -17.7170   22.7072 C   0  0  0  0  0  0  0  0  0  0  0  0
  -23.8265  -10.4484   20.9643 C   0  0  0  0  0  0  0  0  0  0  0  0
  -24.1677  -12.9734   20.8388 C   0  0  0  0  0  0  0  0  0  0  0  0
  -16.2749  -23.4079   21.9962 C   0  0  0  0  0  0  0  0  0  0  0  0
  -21.6755  -22.0179   26.7694 C   0  0  0  0  0  0  0  0  0  0  0  0
  -17.5726  -23.0139   22.3747 C   0  0  0  0  0  0  0  0  0  0  0  0
  -22.5794  -23.0773   26.9327 C   0  0  0  0  0  0  0  0  0  0  0  0
  -22.3390   -8.1429   21.4685 C   0  0  0  0  0  0  0  0  0  0  0  0
  -24.4298  -21.5246   26.6581 C   0  0  0  0  0  0  0  0  0  0  0  0
  -20.8613   -6.9791   22.8771 C   0  0  0  0  0  0  0  0  0  0  0  0
  -19.3460   -6.9041   25.2182 C   0  0  0  0  0  0  0  0  0  0  0  0
  -21.1032   -5.9926   23.8332 C   0  0  0  0  0  0  0  0  0  0  0  0
  -24.5954  -11.6390   20.7043 C   0  0  0  0  0  0  0  0  0  0  0  0
  -30.5696  -16.9538   21.8964 C   0  0  0  0  0  0  0  0  0  0  0  0
  -30.2731  -18.9344   23.0987 C   0  0  0  0  0  0  0  0  0  0  0  0
  -25.2598  -13.7224   20.4745 C   0  0  0  0  0  0  0  0  0  0  0  0
  -32.1906  -18.5468   21.9412 C   0  0  0  0  0  0  0  0  0  0  0  0
  -22.8968  -13.4898   21.2557 C   0  0  0  0  0  0  0  0  0  0  0  0
  -19.8753  -24.0224   25.0827 C   0  0  0  0  0  0  0  0  0  0  0  0
  -27.5943  -20.4581   25.2399 C   0  0  0  0  0  0  0  0  0  0  0  0
  -20.0627  -25.8338   27.7670 C   0  0  0  0  0  0  0  0  0  0  0  0
  -21.7598  -26.6135   30.6234 C   0  0  0  0  0  0  0  0  0  0  0  0
  -30.7256  -14.7700   20.6503 C   0  0  0  0  0  0  0  0  0  0  0  0
  -15.8231  -24.8438   22.0890 C   0  0  0  0  0  0  0  0  0  0  0  0
  -20.1937  -22.2605   26.8575 C   0  0  0  0  0  0  0  0  0  0  0  0
  -22.1119  -24.4897   27.1673 C   0  0  0  0  0  0  0  0  0  0  0  0
  -16.6958  -25.6991   23.0039 C   0  0  0  0  0  0  0  0  0  0  0  0
  -29.6134  -12.3505   18.2868 C   0  0  0  0  0  0  0  0  0  0  0  0
  -18.1732  -25.4577   22.7109 C   0  0  0  0  0  0  0  0  0  0  0  0
  -28.1736  -12.0595   18.7161 C   0  0  0  0  0  0  0  0  0  0  0  0
  -30.5277  -12.5823   19.4885 C   0  0  0  0  0  0  0  0  0  0  0  0
  -28.6196  -13.3093   20.8669 C   0  0  0  0  0  0  0  0  0  0  0  0
  -18.5560  -23.9961   22.9733 C   0  0  1  0  0  0  0  0  0  0  0  0
  -19.8050  -23.7031   26.5492 C   0  0  1  0  0  0  0  0  0  0  0  0
  -27.6476  -13.1331   19.6889 C   0  0  2  0  0  0  0  0  0  0  0  0
  -34.6380  -18.5438   22.4781 C   0  0  0  0  0  0  0  0  0  0  0  0
  -21.6885  -28.1624   32.5966 C   0  0  0  0  0  0  0  0  0  0  0  0
  -21.0483  -28.1210   26.0042 C   0  0  0  0  0  0  0  0  0  0  0  0
  -21.8472  -29.2800   28.0747 C   0  0  0  0  0  0  0  0  0  0  0  0
  -19.4180  -28.7974   27.7760 C   0  0  0  0  0  0  0  0  0  0  0  0
  -21.5558  -24.3605   32.5316 C   0  0  0  0  0  0  0  0  0  0  0  0
  -28.1675  -19.3615   24.3675 C   0  0  0  0  0  0  0  0  0  0  0  0
  -26.2024  -20.2017   25.7842 C   0  0  0  0  0  0  0  0  0  1  0  0
  -33.5442  -19.0066   21.5176 C   0  0  1  0  0  0  0  0  0  0  0  0
  -21.0071  -26.8957   28.2764 C   0  0  1  0  0  0  0  0  0  0  0  0
  -21.2906  -26.7981   32.0553 C   0  0  2  0  0  0  0  0  0  0  0  0
  -20.8392  -28.2473   27.5265 C   0  0  0  0  0  0  0  0  0  0  0  0
  -25.8605  -11.5425   20.2871 N   0  0  0  0  0  0  0  0  0  0  0  0
  -31.7979  -17.3393   21.4927 N   0  0  0  0  0  0  0  0  0  0  0  0
  -31.4921  -19.3825   22.7332 N   0  0  0  0  0  0  0  0  0  0  0  0
  -26.2372  -12.8259   20.1561 N   0  0  0  0  0  0  0  0  0  0  0  0
  -20.6533  -24.6769   27.2393 N   0  0  0  0  0  0  0  0  0  0  0  0
  -29.9679  -13.6149   20.3632 N   0  0  0  0  0  0  0  0  0  0  0  0
  -25.4699  -15.0537   20.3986 N   0  0  0  0  0  0  0  0  0  0  0  0
  -21.8849  -12.5811   21.5944 N   0  0  0  0  0  0  0  0  0  0  0  0
  -30.0775  -15.6967   21.4662 N   0  0  0  0  0  0  0  0  0  0  0  0
  -29.4835  -19.7325   23.9141 N   0  0  0  0  0  0  0  0  0  0  0  0
  -18.7069  -23.7602   24.3931 N   0  0  0  0  0  0  0  0  0  0  0  0
  -20.7881  -26.9801   29.7163 N   0  0  0  0  0  0  0  0  0  0  0  0
  -21.8856  -25.7519   32.9342 N   0  3  0  0  0  0  0  0  0  0  0  0
  -22.6601  -14.7205   21.3101 O   0  0  0  0  0  0  0  0  0  0  0  0
  -20.9124  -24.4746   24.6118 O   0  0  0  0  0  0  0  0  0  0  0  0
  -28.2079  -21.4931   25.4967 O   0  0  0  0  0  0  0  0  0  0  0  0
  -18.8457  -26.0209   27.8413 O   0  0  0  0  0  0  0  0  0  0  0  0
  -22.8778  -26.1903   30.3381 O   0  0  0  0  0  0  0  0  0  0  0  0
  -31.8550  -14.9379   20.1830 O   0  0  0  0  0  0  0  0  0  0  0  0
  -21.6132   -7.0181   21.7149 O   0  0  0  0  0  0  0  0  0  0  0  0
  -25.7688  -21.2893   26.6000 O   0  0  0  0  0  0  0  0  0  1  0  0
  -18.6193   -6.8692   26.3429 F   0  0  0  0  0  0  0  0  0  0  0  0
  -22.0629   -5.0790   23.6333 F   0  0  0  0  0  0  0  0  0  0  0  0
  -33.8994  -18.5639   20.2676 F   0  0  0  0  0  0  0  0  0  0  0  0
  1  2  1  0  0  0  0
  1  5  2  0  0  0  0
  2  6  2  0  0  0  0
  3  8  2  0  0  0  0
  3 16  1  0  0  0  0
  4  9  1  0  0  0  0
  4 16  2  0  0  0  0
  5 18  1  0  0  0  0
  6 20  1  0  0  0  0
  7 10  2  0  0  0  0
  7 19  1  0  0  0  0
  8 22  1  0  0  0  0
  9 22  2  0  0  0  0
 10 23  1  0  0  0  0
 11 12  2  0  0  0  0
 11 24  1  0  0  0  0
 12 25  1  0  0  0  0
 13 21  1  0  0  0  0
 13 23  2  0  0  0  0
 14 25  2  0  0  0  0
 14 26  1  0  0  0  0
 15 28  2  0  0  0  0
 15 29  1  0  0  0  0
 16 27  1  0  0  0  0
 17 27  1  0  0  0  0
 17 30  2  0  0  0  0
 17 32  1  0  0  0  0
 18 20  2  0  0  0  0
 18 38  1  0  0  0  0
 19 21  2  0  0  0  0
 19 39  1  0  0  0  0
 20 47  1  0  0  0  0
 21 40  1  0  0  0  0
 22 81  1  0  0  0  0
 23 82  1  0  0  0  0
 24 26  2  0  0  0  0
 24 81  1  0  0  0  0
 25 83  1  0  0  0  0
 26 84  1  0  0  0  0
 27 62  2  0  0  0  0
 28 63  1  0  0  0  0
 28 70  1  0  0  0  0
 29 64  2  0  0  0  0
 29 71  1  0  0  0  0
 30 65  1  0  0  0  0
 30 68  1  0  0  0  0
 31 58  1  0  0  0  0
 31 63  2  0  0  0  0
 31 64  1  0  0  0  0
 32 69  1  0  0  0  0
 32 75  2  0  0  0  0
 33 48  1  0  0  0  0
 33 72  1  0  0  0  0
 33 76  2  0  0  0  0
 34 56  1  0  0  0  0
 34 57  1  0  0  0  0
 34 77  2  0  0  0  0
 35 59  1  0  0  0  0
 35 66  1  0  0  0  0
 35 78  2  0  0  0  0
 36 60  1  0  0  0  0
 36 73  1  0  0  0  0
 36 79  2  0  0  0  0
 37 67  1  0  0  0  0
 37 70  1  0  0  0  0
 37 80  2  0  0  0  0
 38 41  1  0  0  0  0
 39 48  1  0  0  0  0
 40 66  1  0  0  0  0
 41 43  1  0  0  0  0
 42 44  1  0  0  0  0
 42 45  1  0  0  0  0
 43 47  1  0  0  0  0
 44 49  1  0  0  0  0
 45 67  1  0  0  0  0
 46 49  1  0  0  0  0
 46 67  1  0  0  0  0
 47 72  1  0  0  0  0
 48 66  1  0  0  0  0
 49 65  1  0  0  0  0
 50 58  1  0  0  0  0
 51 60  1  0  0  0  0
 52 61  1  0  0  0  0
 53 61  1  0  0  0  0
 54 61  1  0  0  0  0
 55 74  1  0  0  0  0
 56 71  1  0  0  0  0
 57 82  1  0  0  0  0
 58 85  1  0  0  0  0
 59 61  1  0  0  0  0
 59 73  1  0  0  0  0
 60 74  1  0  0  0  0
 62 65  1  0  0  0  0
M  CHG  1  74   1
M  ISO  4  37 100  57 101  70 100  82 101
M  END
> <Batch ID>
0171

> <Smiles>
CNC(C)C(=O)NC(C(=O)N1Cc2cc([101O:1][101CH2:1]C(=O)CNc3cc([100NH:0][100C:0](=O)N4CCCC(n5nc(-c6ccc(Oc7ccc(F)cc7F)cc6)c(C(N)=O)c5N)C4)nc(C(C)F)n3)ccc2CC1C(=O)NC1CCCc2ccccc21)C(C)(C)C

> <Shape>
0.177

> <Color>
0.184

> <Negative vol penalty>
0.000

$$$$

  -OEChem-04052304233D

 89 97  0     1  0  0  0  0  0999 V2000
  -28.6846  -37.2332   20.9234 C   0  0  0  0  0  0  0  0  0  0  0  0
  -29.0214  -35.8882   20.8097 C   0  0  0  0  0  0  0  0  0  0  0  0
  -23.7888   -8.7377   20.1776 C   0  0  0  0  0  0  0  0  0  0  0  0
  -23.1988  -10.6216   21.5704 C   0  0  0  0  0  0  0  0  0  0  0  0
  -30.5734  -19.4954   19.5456 C   0  0  0  0  0  0  0  0  0  0  0  0
  -27.5969  -37.6144   21.7080 C   0  0  0  0  0  0  0  0  0  0  0  0
  -28.2712  -34.9236   21.4815 C   0  0  0  0  0  0  0  0  0  0  0  0
  -26.9964  -29.2517   19.5554 C   0  0  0  0  0  0  0  0  0  0  0  0
  -30.4909  -18.1034   19.5784 C   0  0  0  0  0  0  0  0  0  0  0  0
  -22.9361   -7.9213   20.9206 C   0  0  0  0  0  0  0  0  0  0  0  0
  -22.3461   -9.8052   22.3135 C   0  0  0  0  0  0  0  0  0  0  0  0
  -27.5687  -28.0130   19.8418 C   0  0  0  0  0  0  0  0  0  0  0  0
  -19.6161   -7.3112   21.1167 C   0  0  0  0  0  0  0  0  0  0  0  0
  -18.7742   -6.4466   20.4174 C   0  0  0  0  0  0  0  0  0  0  0  0
  -25.8791  -27.6273   21.5199 C   0  0  0  0  0  0  0  0  0  0  0  0
  -19.7955   -4.5572   21.5239 C   0  0  0  0  0  0  0  0  0  0  0  0
  -23.9202  -10.0878   20.5025 C   0  0  0  0  0  0  0  0  0  0  0  0
  -29.5735  -20.2387   18.9183 C   0  0  0  0  0  0  0  0  0  0  0  0
  -24.4766  -11.6789   18.5877 C   0  0  0  0  0  0  0  0  0  0  0  0
  -26.8272  -36.6532   22.3819 C   0  0  0  0  0  0  0  0  0  0  0  0
  -25.8658  -29.6929   20.2578 C   0  0  0  0  0  0  0  0  0  0  0  0
  -27.1730  -35.2924   22.2768 C   0  0  0  0  0  0  0  0  0  0  0  0
  -25.2929  -28.8709   21.2386 C   0  0  0  0  0  0  0  0  0  0  0  0
  -29.4087  -17.4546   18.9838 C   0  0  0  0  0  0  0  0  0  0  0  0
  -22.2148   -8.4550   21.9885 C   0  0  0  0  0  0  0  0  0  0  0  0
  -27.0117  -27.2019   20.8262 C   0  0  0  0  0  0  0  0  0  0  0  0
  -20.5479   -6.7989   22.0196 C   0  0  0  0  0  0  0  0  0  0  0  0
  -18.8639   -5.0696   20.6210 C   0  0  0  0  0  0  0  0  0  0  0  0
  -20.6375   -5.4219   22.2232 C   0  0  0  0  0  0  0  0  0  0  0  0
  -28.4913  -19.5900   18.3238 C   0  0  0  0  0  0  0  0  0  0  0  0
  -28.4088  -18.1979   18.3565 C   0  0  0  0  0  0  0  0  0  0  0  0
  -24.8012  -10.9316   19.7357 C   0  0  0  0  0  0  0  0  0  0  0  0
  -25.6499  -12.3034   18.2415 C   0  0  0  0  0  0  0  0  0  0  0  0
  -29.6649  -21.7212   18.8869 C   0  0  0  0  0  0  0  0  0  0  0  0
  -23.2263  -11.7981   17.8962 C   0  0  0  0  0  0  0  0  0  0  0  0
  -25.2319  -32.1501   22.1719 C   0  0  0  0  0  0  0  0  0  0  0  0
  -31.7580  -24.1287   20.7870 C   0  0  0  0  0  0  0  0  0  0  0  0
  -29.2271  -24.2564   20.7923 C   0  0  0  0  0  0  0  0  0  0  0  0
  -22.2059  -30.9927   22.0108 C   0  0  0  0  0  0  0  0  0  0  0  0
  -20.1496  -28.3260   21.4566 C   0  0  0  0  0  0  0  0  0  0  0  0
  -30.2346  -15.1559   19.6003 C   0  0  0  0  0  0  0  0  0  0  0  0
  -25.6892  -37.1173   23.2562 C   0  0  0  0  0  0  0  0  0  0  0  0
  -25.2446  -31.0201   19.9183 C   0  0  0  0  0  0  0  0  0  0  0  0
  -24.0672  -29.2896   22.0073 C   0  0  0  0  0  0  0  0  0  0  0  0
  -24.7180  -36.0021   23.6347 C   0  0  0  0  0  0  0  0  0  0  0  0
  -30.3715  -11.6134   19.9302 C   0  0  0  0  0  0  0  0  0  0  0  0
  -25.4803  -34.7631   24.0936 C   0  0  0  0  0  0  0  0  0  0  0  0
  -28.9078  -11.1817   19.8146 C   0  0  0  0  0  0  0  0  0  0  0  0
  -30.5151  -12.9360   20.6812 C   0  0  0  0  0  0  0  0  0  0  0  0
  -28.2311  -13.6057   20.0455 C   0  0  0  0  0  0  0  0  0  0  0  0
  -26.3685  -34.2145   22.9703 C   0  0  1  0  0  0  0  0  0  0  0  0
  -24.3995  -31.5918   21.0525 C   0  0  1  0  0  0  0  0  0  0  0  0
  -28.0308  -12.3114   19.2402 C   0  0  2  0  0  0  0  0  0  0  0  0
  -32.4615  -25.4011   20.3879 C   0  0  0  0  0  0  0  0  0  0  0  0
  -17.7251  -27.6792   21.4343 C   0  0  0  0  0  0  0  0  0  0  0  0
  -22.1876  -30.9651   25.0618 C   0  0  0  0  0  0  0  0  0  0  0  0
  -20.1876  -29.4620   24.9668 C   0  0  0  0  0  0  0  0  0  0  0  0
  -20.0623  -31.7636   24.0131 C   0  0  0  0  0  0  0  0  0  0  0  0
  -20.2540  -27.5852   18.5932 C   0  0  0  0  0  0  0  0  0  0  0  0
  -28.7226  -25.6180   20.3570 C   0  0  0  0  0  0  0  0  0  1  0  0
  -30.4670  -23.7412   20.0837 C   0  0  2  0  0  0  0  0  0  0  0  0
  -21.4004  -29.9920   22.8037 C   0  0  1  0  0  0  0  0  0  0  0  0
  -18.9003  -28.1767   20.6072 C   0  0  2  0  0  0  0  0  0  0  0  0
  -20.9837  -30.5383   24.1984 C   0  0  0  0  0  0  0  0  0  0  0  0
  -26.0805  -11.0674   20.0947 N   0  0  0  0  0  0  0  0  0  0  0  0
  -26.5702  -11.9073   19.1669 N   0  0  0  0  0  0  0  0  0  0  0  0
  -23.5003  -30.5986   21.6434 N   0  0  0  0  0  0  0  0  0  0  0  0
  -29.6588  -13.9598   20.0785 N   0  0  0  0  0  0  0  0  0  0  0  0
  -25.9739  -13.1472   17.2387 N   0  0  0  0  0  0  0  0  0  0  0  0
  -22.1214  -11.0887   18.3864 N   0  0  0  0  0  0  0  0  0  0  0  0
  -29.3271  -16.0404   19.0185 N   0  0  0  0  0  0  0  0  0  0  0  0
  -30.3192  -22.3180   19.9591 N   0  0  0  0  0  0  0  0  0  0  0  0
  -25.5731  -33.4794   22.0104 N   0  0  0  0  0  0  0  0  0  0  0  0
  -20.2792  -29.6055   21.9540 N   0  0  0  0  0  0  0  0  0  0  0  0
  -19.1394  -27.2082   19.5001 N   0  3  0  0  0  0  0  0  0  0  0  0
  -29.1550  -22.3341   17.9526 O   0  0  0  0  0  0  0  0  0  0  0  0
  -23.0969  -12.4995   16.8643 O   0  0  0  0  0  0  0  0  0  0  0  0
  -25.5404  -31.4288   23.1133 O   0  0  0  0  0  0  0  0  0  0  0  0
  -32.2039  -23.4337   21.7036 O   0  0  0  0  0  0  0  0  0  0  0  0
  -28.6812  -23.6194   21.6936 O   0  0  0  0  0  0  0  0  0  0  0  0
  -21.7024  -32.0812   21.7218 O   0  0  0  0  0  0  0  0  0  0  0  0
  -20.9304  -27.3992   21.6616 O   0  0  0  0  0  0  0  0  0  0  0  0
  -31.4478  -15.3673   19.6752 O   0  0  0  0  0  0  0  0  0  0  0  0
  -21.3825   -7.6588   22.7136 O   0  0  0  0  0  0  0  0  0  0  0  0
  -27.5687  -25.9927   21.1082 O   0  0  0  0  0  0  0  0  0  1  0  0
  -18.0542   -4.2394   19.9505 F   0  0  0  0  0  0  0  0  0  0  0  0
  -21.5298   -4.9240   23.0902 F   0  0  0  0  0  0  0  0  0  0  0  0
  -27.5242  -20.2939   17.7180 F   0  0  0  0  0  0  0  0  0  0  0  0
  -27.3642  -17.5853   17.7815 F   0  0  0  0  0  0  0  0  0  0  0  0
  1  2  1  0  0  0  0
  1  6  2  0  0  0  0
  2  7  2  0  0  0  0
  3 10  2  0  0  0  0
  3 17  1  0  0  0  0
  4 11  1  0  0  0  0
  4 17  2  0  0  0  0
  5  9  2  0  0  0  0
  5 18  1  0  0  0  0
  6 20  1  0  0  0  0
  7 22  1  0  0  0  0
  8 12  2  0  0  0  0
  8 21  1  0  0  0  0
  9 24  1  0  0  0  0
 10 25  1  0  0  0  0
 11 25  2  0  0  0  0
 12 26  1  0  0  0  0
 13 14  2  0  0  0  0
 13 27  1  0  0  0  0
 14 28  1  0  0  0  0
 15 23  1  0  0  0  0
 15 26  2  0  0  0  0
 16 28  2  0  0  0  0
 16 29  1  0  0  0  0
 17 32  1  0  0  0  0
 18 30  2  0  0  0  0
 18 34  1  0  0  0  0
 19 32  1  0  0  0  0
 19 33  2  0  0  0  0
 19 35  1  0  0  0  0
 20 22  2  0  0  0  0
 20 42  1  0  0  0  0
 21 23  2  0  0  0  0
 21 43  1  0  0  0  0
 22 51  1  0  0  0  0
 23 44  1  0  0  0  0
 24 31  2  0  0  0  0
 24 71  1  0  0  0  0
 25 84  1  0  0  0  0
 26 85  1  0  0  0  0
 27 29  2  0  0  0  0
 27 84  1  0  0  0  0
 28 86  1  0  0  0  0
 29 87  1  0  0  0  0
 30 31  1  0  0  0  0
 30 88  1  0  0  0  0
 31 89  1  0  0  0  0
 32 65  2  0  0  0  0
 33 66  1  0  0  0  0
 33 69  1  0  0  0  0
 34 72  1  0  0  0  0
 34 76  2  0  0  0  0
 35 70  1  0  0  0  0
 35 77  2  0  0  0  0
 36 52  1  0  0  0  0
 36 73  1  0  0  0  0
 36 78  2  0  0  0  0
 37 54  1  0  0  0  0
 37 61  1  0  0  0  0
 37 79  2  0  0  0  0
 38 60  1  0  0  0  0
 38 61  1  0  0  0  0
 38 80  2  0  0  0  0
 39 62  1  0  0  0  0
 39 67  1  0  0  0  0
 39 81  2  0  0  0  0
 40 63  1  0  0  0  0
 40 74  1  0  0  0  0
 40 82  2  0  0  0  0
 41 68  1  0  0  0  0
 41 71  1  0  0  0  0
 41 83  2  0  0  0  0
 42 45  1  0  0  0  0
 43 52  1  0  0  0  0
 44 67  1  0  0  0  0
 45 47  1  0  0  0  0
 46 48  1  0  0  0  0
 46 49  1  0  0  0  0
 47 51  1  0  0  0  0
 48 53  1  0  0  0  0
 49 68  1  0  0  0  0
 50 53  1  0  0  0  0
 50 68  1  0  0  0  0
 51 73  1  0  0  0  0
 52 67  1  0  0  0  0
 53 66  1  0  0  0  0
 55 63  1  0  0  0  0
 56 64  1  0  0  0  0
 57 64  1  0  0  0  0
 58 64  1  0  0  0  0
 59 75  1  0  0  0  0
 60 85  1  0  0  0  0
 61 72  1  0  0  0  0
 62 64  1  0  0  0  0
 62 74  1  0  0  0  0
 63 75  1  0  0  0  0
 65 66  1  0  0  0  0
M  CHG  1  75   1
M  ISO  4  41 100  60 101  71 100  85 101
M  END
> <Batch ID>
0171

> <Smiles>
CNC(C)C(=O)NC(C(=O)N1Cc2cc([101O:1][101CH2:1]C(=O)C(NC(=O)c3ccc([100NH:0][100C:0](=O)N4CCCC(n5nc(-c6ccc(Oc7ccc(F)cc7F)cc6)c(C(N)=O)c5N)C4)c(F)c3F)C(C)=O)ccc2CC1C(=O)NC1CCCc2ccccc21)C(C)(C)C

> <Shape>
0.308

> <Color>
0.097

> <Negative vol penalty>
0.000

$$$$

  -OEChem-04052304233D

 88 96  0     1  0  0  0  0  0999 V2000
  -16.8650  -30.7054   23.6446 C   0  0  0  0  0  0  0  0  0  0  0  0
  -18.0864  -31.2364   24.0466 C   0  0  0  0  0  0  0  0  0  0  0  0
  -31.7312  -22.1388   22.4224 C   0  0  0  0  0  0  0  0  0  0  0  0
  -29.4184  -22.7217   22.8078 C   0  0  0  0  0  0  0  0  0  0  0  0
  -16.8091  -29.4231   23.1000 C   0  0  0  0  0  0  0  0  0  0  0  0
  -19.2526  -30.4851   23.9051 C   0  0  0  0  0  0  0  0  0  0  0  0
  -24.8488  -32.5884   22.5771 C   0  0  0  0  0  0  0  0  0  0  0  0
  -31.3503  -21.3407   21.3437 C   0  0  0  0  0  0  0  0  0  0  0  0
  -29.0376  -21.9236   21.7290 C   0  0  0  0  0  0  0  0  0  0  0  0
  -25.9549  -32.8799   23.3742 C   0  0  0  0  0  0  0  0  0  0  0  0
  -27.4205  -19.7558   19.3009 C   0  0  0  0  0  0  0  0  0  0  0  0
  -26.3231  -18.9125   19.4740 C   0  0  0  0  0  0  0  0  0  0  0  0
  -26.8625  -30.6950   22.9033 C   0  0  0  0  0  0  0  0  0  0  0  0
  -27.8275  -28.4875   31.7809 C   0  0  0  0  0  0  0  0  0  0  0  0
  -27.0240  -30.1008   30.1720 C   0  0  0  0  0  0  0  0  0  0  0  0
  -29.1886  -29.0707   29.8719 C   0  0  0  0  0  0  0  0  0  0  0  0
  -27.4708  -17.7896   21.2793 C   0  0  0  0  0  0  0  0  0  0  0  0
  -30.7652  -22.8293   23.1545 C   0  0  0  0  0  0  0  0  0  0  0  0
  -31.4970  -25.0194   24.2387 C   0  0  0  0  0  0  0  0  0  0  0  0
  -17.9764  -28.6594   22.9428 C   0  0  0  0  0  0  0  0  0  0  0  0
  -24.7359  -31.3418   21.9448 C   0  0  0  0  0  0  0  0  0  0  0  0
  -19.2120  -29.1909   23.3590 C   0  0  0  0  0  0  0  0  0  0  0  0
  -25.7553  -30.3911   22.0967 C   0  0  0  0  0  0  0  0  0  0  0  0
  -26.8381  -29.3686   31.3446 C   0  0  0  0  0  0  0  0  0  0  0  0
  -29.0028  -28.3386   31.0445 C   0  0  0  0  0  0  0  0  0  0  0  0
  -28.1992  -29.9519   29.4356 C   0  0  0  0  0  0  0  0  0  0  0  0
  -30.0035  -21.2331   20.9970 C   0  0  0  0  0  0  0  0  0  0  0  0
  -26.9606  -31.9321   23.5398 C   0  0  0  0  0  0  0  0  0  0  0  0
  -28.5431  -19.6160   20.1170 C   0  0  0  0  0  0  0  0  0  0  0  0
  -26.3482  -17.9294   20.4632 C   0  0  0  0  0  0  0  0  0  0  0  0
  -28.5682  -18.6329   21.1061 C   0  0  0  0  0  0  0  0  0  0  0  0
  -31.1580  -23.6534   24.2692 C   0  0  0  0  0  0  0  0  0  0  0  0
  -31.7917  -25.3294   25.5439 C   0  0  0  0  0  0  0  0  0  0  0  0
  -28.2788  -31.4162   25.4017 C   0  0  0  0  0  0  0  0  0  1  0  0
  -31.5414  -25.9271   23.1296 C   0  0  0  0  0  0  0  0  0  0  0  0
  -29.3107  -31.6014   26.2339 C   0  0  0  0  0  0  0  0  0  0  0  0
  -29.4850  -30.6692   27.3953 C   0  0  0  0  0  0  0  0  0  0  0  0
  -22.6761  -28.9259   22.1010 C   0  0  0  0  0  0  0  0  0  0  0  0
  -24.4440  -27.7703   19.6389 C   0  0  0  0  0  0  0  0  0  0  0  0
  -27.4273  -27.7315   17.9822 C   0  0  0  0  0  0  0  0  0  0  0  0
  -30.6348  -25.0375   30.9957 C   0  0  0  0  0  0  0  0  0  0  0  0
  -17.8597  -27.2600   22.3927 C   0  0  0  0  0  0  0  0  0  0  0  0
  -23.5494  -31.0528   21.0667 C   0  0  0  0  0  0  0  0  0  0  0  0
  -25.6915  -29.0455   21.4230 C   0  0  0  0  0  0  0  0  0  0  0  0
  -19.1915  -26.6741   21.9307 C   0  0  0  0  0  0  0  0  0  0  0  0
  -32.4641  -22.3377   29.5669 C   0  0  0  0  0  0  0  0  0  0  0  0
  -20.2734  -26.9162   22.9785 C   0  0  0  0  0  0  0  0  0  0  0  0
  -32.3100  -22.5486   28.0596 C   0  0  0  0  0  0  0  0  0  0  0  0
  -31.1935  -22.7198   30.3230 C   0  0  0  0  0  0  0  0  0  0  0  0
  -30.5401  -24.2908   28.5401 C   0  0  0  0  0  0  0  0  0  0  0  0
  -20.5022  -28.4164   23.1988 C   0  0  1  0  0  0  0  0  0  0  0  0
  -23.2898  -29.5604   20.8851 C   0  0  1  0  0  0  0  0  0  0  0  0
  -31.8149  -23.9720   27.7403 C   0  0  2  0  0  0  0  0  0  0  0  0
  -31.3154  -29.1637   32.8847 C   0  0  0  0  0  0  0  0  0  0  0  0
  -28.5819  -26.6603   16.0285 C   0  0  0  0  0  0  0  0  0  0  0  0
  -24.7743  -25.1986   21.2474 C   0  0  0  0  0  0  0  0  0  0  0  0
  -26.6605  -24.5712   19.7253 C   0  0  0  0  0  0  0  0  0  0  0  0
  -24.3594  -24.8555   18.8052 C   0  0  0  0  0  0  0  0  0  0  0  0
  -27.8427  -30.3407   16.6485 C   0  0  0  0  0  0  0  0  0  0  0  0
  -25.5816  -29.5279   32.1321 C   0  0  0  0  0  0  0  0  0  0  0  0
  -31.4058  -28.1081   31.7894 C   0  0  0  0  0  0  0  0  0  0  0  0
  -30.0605  -27.3963   31.5110 C   0  0  2  0  0  0  0  0  0  0  0  0
  -25.6692  -26.8964   19.5203 C   0  0  1  0  0  0  0  0  0  0  0  0
  -27.7613  -27.8483   16.5060 C   0  0  2  0  0  0  0  0  0  0  0  0
  -25.3664  -25.4050   19.8389 C   0  0  0  0  0  0  0  0  0  0  0  0
  -31.2304  -23.1315   25.4965 N   0  0  0  0  0  0  0  0  0  0  0  0
  -31.6184  -24.1750   26.2493 N   0  0  0  0  0  0  0  0  0  0  0  0
  -24.5083  -28.8079   20.5798 N   0  0  0  0  0  0  0  0  0  0  0  0
  -30.7782  -24.0813   29.9768 N   0  0  0  0  0  0  0  0  0  0  0  0
  -32.1796  -26.4739   26.1454 N   0  0  0  0  0  0  0  0  0  0  0  0
  -31.2083  -25.4437   21.8569 N   0  0  0  0  0  0  0  0  0  0  0  0
  -28.3878  -30.6949   28.2453 N   0  0  0  0  0  0  0  0  0  0  0  0
  -21.2951  -28.9702   22.1223 N   0  0  0  0  0  0  0  0  0  0  0  0
  -26.2055  -27.1247   18.1830 N   0  0  0  0  0  0  0  0  0  0  0  0
  -30.2441  -26.3048   30.5806 N   0  0  0  0  0  0  0  0  0  0  0  0
  -25.6628  -30.5979   33.1645 N   0  3  0  0  0  0  0  0  0  0  0  0
  -28.5409  -29.0920   16.2481 N   0  3  0  0  0  0  0  0  0  0  0  0
  -31.8827  -27.1270   23.2606 O   0  0  0  0  0  0  0  0  0  0  0  0
  -30.5025  -29.9953   27.5151 O   0  0  0  0  0  0  0  0  0  0  0  0
  -23.4017  -28.4313   22.9558 O   0  0  0  0  0  0  0  0  0  0  0  0
  -23.4685  -27.5452   18.9182 O   0  0  0  0  0  0  0  0  0  0  0  0
  -28.1771  -28.1346   18.8687 O   0  0  0  0  0  0  0  0  0  0  0  0
  -30.8450  -24.7824   32.1863 O   0  0  0  0  0  0  0  0  0  0  0  0
  -30.2266  -32.6198   26.0652 O   0  0  0  0  0  0  0  0  0  0  0  0
  -29.6316  -20.4546   19.9444 O   0  0  0  0  0  0  0  0  0  0  0  0
  -28.0409  -32.2138   24.3178 O   0  0  0  0  0  0  0  0  0  1  0  0
  -25.2936  -17.1206   20.6304 F   0  0  0  0  0  0  0  0  0  0  0  0
  -29.6434  -18.4946   21.8939 F   0  0  0  0  0  0  0  0  0  0  0  0
  1  2  1  0  0  0  0
  1  5  2  0  0  0  0
  2  6  2  0  0  0  0
  3  8  2  0  0  0  0
  3 18  1  0  0  0  0
  4  9  1  0  0  0  0
  4 18  2  0  0  0  0
  5 20  1  0  0  0  0
  6 22  1  0  0  0  0
  7 10  2  0  0  0  0
  7 21  1  0  0  0  0
  8 27  1  0  0  0  0
  9 27  2  0  0  0  0
 10 28  1  0  0  0  0
 11 12  2  0  0  0  0
 11 29  1  0  0  0  0
 12 30  1  0  0  0  0
 13 23  1  0  0  0  0
 13 28  2  0  0  0  0
 14 24  2  0  0  0  0
 14 25  1  0  0  0  0
 15 24  1  0  0  0  0
 15 26  2  0  0  0  0
 16 25  2  0  0  0  0
 16 26  1  0  0  0  0
 17 30  2  0  0  0  0
 17 31  1  0  0  0  0
 18 32  1  0  0  0  0
 19 32  1  0  0  0  0
 19 33  2  0  0  0  0
 19 35  1  0  0  0  0
 20 22  2  0  0  0  0
 20 42  1  0  0  0  0
 21 23  2  0  0  0  0
 21 43  1  0  0  0  0
 22 51  1  0  0  0  0
 23 44  1  0  0  0  0
 24 60  1  0  0  0  0
 25 62  1  0  0  0  0
 26 72  1  0  0  0  0
 27 85  1  0  0  0  0
 28 86  1  0  0  0  0
 29 31  2  0  0  0  0
 29 85  1  0  0  0  0
 30 87  1  0  0  0  0
 31 88  1  0  0  0  0
 32 66  2  0  0  0  0
 33 67  1  0  0  0  0
 33 70  1  0  0  0  0
 34 36  2  0  0  0  0
 34 86  1  0  0  0  0
 35 71  1  0  0  0  0
 35 78  2  0  0  0  0
 36 37  1  0  0  0  0
 36 84  1  0  0  0  0
 37 72  1  0  0  0  0
 37 79  2  0  0  0  0
 38 52  1  0  0  0  0
 38 73  1  0  0  0  0
 38 80  2  0  0  0  0
 39 63  1  0  0  0  0
 39 68  1  0  0  0  0
 39 81  2  0  0  0  0
 40 64  1  0  0  0  0
 40 74  1  0  0  0  0
 40 82  2  0  0  0  0
 41 69  1  0  0  0  0
 41 75  1  0  0  0  0
 41 83  2  0  0  0  0
 42 45  1  0  0  0  0
 43 52  1  0  0  0  0
 44 68  1  0  0  0  0
 45 47  1  0  0  0  0
 46 48  1  0  0  0  0
 46 49  1  0  0  0  0
 47 51  1  0  0  0  0
 48 53  1  0  0  0  0
 49 69  1  0  0  0  0
 50 53  1  0  0  0  0
 50 69  1  0  0  0  0
 51 73  1  0  0  0  0
 52 68  1  0  0  0  0
 53 67  1  0  0  0  0
 54 61  1  0  0  0  0
 55 64  1  0  0  0  0
 56 65  1  0  0  0  0
 57 65  1  0  0  0  0
 58 65  1  0  0  0  0
 59 77  1  0  0  0  0
 60 76  1  0  0  0  0
 61 62  1  0  0  0  0
 62 75  1  0  0  0  0
 63 65  1  0  0  0  0
 63 74  1  0  0  0  0
 64 77  1  0  0  0  0
 66 67  1  0  0  0  0
M  CHG  2  76   1  77   1
M  ISO  4  34 101  41 100  75 100  86 101
M  END
> <Batch ID>
0171

> <Smiles>
CCC([100NH:0][100C:0](=O)N1CCCC(n2nc(-c3ccc(Oc4ccc(F)cc4F)cc3)c(C(N)=O)c2N)C1)c1cc(CN)cc(NC(=O)C(=O)[101CH2:1][101O:1]c2ccc3c(c2)CN(C(=O)C(NC(=O)C(C)NC)C(C)(C)C)C(C(=O)NC2CCCc4ccccc42)C3)c1

> <Shape>
0.206

> <Color>
0.091

> <Negative vol penalty>
0.000

$$$$

  -OEChem-04052304233D

 88 96  0     1  0  0  0  0  0999 V2000
  -19.8270  -26.5012   26.2749 C   0  0  0  0  0  0  0  0  0  0  0  0
  -21.0762  -26.2399   25.7212 C   0  0  0  0  0  0  0  0  0  0  0  0
  -28.3977  -11.0310   16.5653 C   0  0  0  0  0  0  0  0  0  0  0  0
  -30.6517  -11.9006   16.5554 C   0  0  0  0  0  0  0  0  0  0  0  0
  -18.8316  -27.0930   25.4984 C   0  0  0  0  0  0  0  0  0  0  0  0
  -21.3303  -26.5692   24.3903 C   0  0  0  0  0  0  0  0  0  0  0  0
  -26.6319  -28.5254   22.0297 C   0  0  0  0  0  0  0  0  0  0  0  0
  -28.6203  -10.4396   15.3218 C   0  0  0  0  0  0  0  0  0  0  0  0
  -30.8744  -11.3092   15.3119 C   0  0  0  0  0  0  0  0  0  0  0  0
  -27.6516  -27.8687   21.3422 C   0  0  0  0  0  0  0  0  0  0  0  0
  -28.7128   -8.3981   12.3153 C   0  0  0  0  0  0  0  0  0  0  0  0
  -28.2820   -7.0837   12.1359 C   0  0  0  0  0  0  0  0  0  0  0  0
  -26.6740  -28.5570   19.2470 C   0  0  0  0  0  0  0  0  0  0  0  0
  -33.3288  -20.2333   19.2475 C   0  0  0  0  0  0  0  0  0  0  0  0
  -30.6341  -20.8931   19.5407 C   0  0  0  0  0  0  0  0  0  0  0  0
  -29.7260   -6.3648   13.9346 C   0  0  0  0  0  0  0  0  0  0  0  0
  -29.4133  -11.7616   17.1821 C   0  0  0  0  0  0  0  0  0  0  0  0
  -29.4100  -11.8016   19.7328 C   0  0  0  0  0  0  0  0  0  0  0  0
  -19.0767  -27.4386   24.1601 C   0  0  0  0  0  0  0  0  0  0  0  0
  -25.6178  -29.1948   21.3297 C   0  0  0  0  0  0  0  0  0  0  0  0
  -20.3369  -27.1650   23.5948 C   0  0  0  0  0  0  0  0  0  0  0  0
  -25.6440  -29.2236   19.9280 C   0  0  0  0  0  0  0  0  0  0  0  0
  -32.9087  -21.5500   19.0591 C   0  0  0  0  0  0  0  0  0  0  0  0
  -31.5614  -21.8799   19.2057 C   0  0  0  0  0  0  0  0  0  0  0  0
  -31.0542  -19.5764   19.7290 C   0  0  0  0  0  0  0  0  0  0  0  0
  -29.8587  -10.5787   14.6951 C   0  0  0  0  0  0  0  0  0  0  0  0
  -27.6712  -27.8820   19.9506 C   0  0  0  0  0  0  0  0  0  0  0  0
  -29.6503   -8.6959   13.3044 C   0  0  0  0  0  0  0  0  0  0  0  0
  -28.7886   -6.0670   12.9455 C   0  0  0  0  0  0  0  0  0  0  0  0
  -32.4016  -19.2465   19.5823 C   0  0  0  0  0  0  0  0  0  0  0  0
  -30.1568   -7.6793   14.1140 C   0  0  0  0  0  0  0  0  0  0  0  0
  -29.1837  -12.3732   18.4663 C   0  0  0  0  0  0  0  0  0  0  0  0
  -29.0376  -12.7795   20.6224 C   0  0  0  0  0  0  0  0  0  0  0  0
  -28.8062  -25.8951   19.4659 C   0  0  0  0  0  0  0  0  0  1  0  0
  -29.9121  -10.5028   20.0745 C   0  0  0  0  0  0  0  0  0  0  0  0
  -29.7478  -25.1656   18.8555 C   0  0  0  0  0  0  0  0  0  0  0  0
  -29.8187  -23.6931   19.1295 C   0  0  0  0  0  0  0  0  0  0  0  0
  -22.4626  -28.8808   21.1068 C   0  0  0  0  0  0  0  0  0  0  0  0
  -22.7056  -31.6062   19.3645 C   0  0  0  0  0  0  0  0  0  0  0  0
  -24.6398  -33.6427   17.4258 C   0  0  0  0  0  0  0  0  0  0  0  0
  -28.7377  -18.7358   20.2517 C   0  0  0  0  0  0  0  0  0  0  0  0
  -17.9546  -28.0333   23.3467 C   0  0  0  0  0  0  0  0  0  0  0  0
  -24.5397  -29.9209   22.0865 C   0  0  0  0  0  0  0  0  0  0  0  0
  -24.5900  -29.9450   19.1299 C   0  0  0  0  0  0  0  0  0  0  0  0
  -18.4239  -28.6941   22.0531 C   0  0  0  0  0  0  0  0  0  0  0  0
  -26.0730  -16.5155   21.0558 C   0  0  0  0  0  0  0  0  0  0  0  0
  -19.4057  -27.7883   21.3166 C   0  0  0  0  0  0  0  0  0  0  0  0
  -26.5913  -15.1483   20.6038 C   0  0  0  0  0  0  0  0  0  0  0  0
  -26.5163  -17.6309   20.1108 C   0  0  0  0  0  0  0  0  0  0  0  0
  -28.4794  -16.3220   19.4018 C   0  0  0  0  0  0  0  0  0  0  0  0
  -20.6588  -27.5303   22.1620 C   0  0  1  0  0  0  0  0  0  0  0  0
  -23.2733  -30.1361   21.2635 C   0  0  1  0  0  0  0  0  0  0  0  0
  -28.1127  -15.1755   20.3582 C   0  0  2  0  0  0  0  0  0  0  0  0
  -24.5500  -35.7797   16.1134 C   0  0  0  0  0  0  0  0  0  0  0  0
  -21.1713  -30.1774   17.1477 C   0  0  0  0  0  0  0  0  0  0  0  0
  -21.9316  -31.9631   15.5661 C   0  0  0  0  0  0  0  0  0  0  0  0
  -20.4957  -32.5567   17.5176 C   0  0  0  0  0  0  0  0  0  0  0  0
  -26.7316  -34.8962   19.1027 C   0  0  0  0  0  0  0  0  0  0  0  0
  -22.9135  -31.9264   17.9040 C   0  0  1  0  0  0  0  0  0  0  0  0
  -24.8688  -35.1430   17.4572 C   0  0  2  0  0  0  0  0  0  0  0  0
  -33.9240  -22.5860   18.7004 C   0  0  0  0  0  0  0  0  0  0  0  0
  -21.6470  -31.6406   17.0485 C   0  0  0  0  0  0  0  0  0  0  0  0
  -28.7045  -13.6177   18.5405 N   0  0  0  0  0  0  0  0  0  0  0  0
  -28.6265  -13.8361   19.8642 N   0  0  0  0  0  0  0  0  0  0  0  0
  -23.5533  -30.6347   19.9154 N   0  0  0  0  0  0  0  0  0  0  0  0
  -27.9692  -17.5974   19.9290 N   0  0  0  0  0  0  0  0  0  0  0  0
  -29.0247  -12.8300   21.9713 N   0  0  0  0  0  0  0  0  0  0  0  0
  -30.2467   -9.6217   19.0372 N   0  0  0  0  0  0  0  0  0  0  0  0
  -31.1155  -23.2105   19.0184 N   0  0  0  0  0  0  0  0  0  0  0  0
  -30.1108  -18.5754   20.0688 N   0  0  0  0  0  0  0  0  0  0  0  0
  -21.5430  -28.6751   22.1175 N   0  0  0  0  0  0  0  0  0  0  0  0
  -23.3707  -33.3108   17.8506 N   0  0  0  0  0  0  0  0  0  0  0  0
  -26.2891  -35.4433   17.7943 N   0  3  0  0  0  0  0  0  0  0  0  0
  -30.0442  -10.1286   21.2644 O   0  0  0  0  0  0  0  0  0  0  0  0
  -28.8100  -23.0556   19.4122 O   0  0  0  0  0  0  0  0  0  0  0  0
  -22.6560  -28.1535   20.1397 O   0  0  0  0  0  0  0  0  0  0  0  0
  -21.8284  -32.2014   19.9952 O   0  0  0  0  0  0  0  0  0  0  0  0
  -25.4994  -32.8452   17.0575 O   0  0  0  0  0  0  0  0  0  0  0  0
  -28.2187  -19.7673   20.6861 O   0  0  0  0  0  0  0  0  0  0  0  0
  -30.6604  -25.7157   17.9784 O   0  0  0  0  0  0  0  0  0  0  0  0
  -30.0764  -10.0015   13.4818 O   0  0  0  0  0  0  0  0  0  0  0  0
  -28.6650  -27.2413   19.2770 O   0  0  0  0  0  0  0  0  0  1  0  0
  -28.3736   -4.8050   12.7741 F   0  0  0  0  0  0  0  0  0  0  0  0
  -32.8167  -17.9843   19.7610 F   0  0  0  0  0  0  0  0  0  0  0  0
  -31.0568   -7.9595   15.0666 F   0  0  0  0  0  0  0  0  0  0  0  0
  -35.1924  -22.0927   18.5972 F   0  0  0  0  0  0  0  0  0  0  0  0
  -33.6787  -23.1971   17.5050 F   0  0  0  0  0  0  0  0  0  0  0  0
  -33.9930  -23.5903   19.6205 F   0  0  0  0  0  0  0  0  0  0  0  0
  1  2  1  0  0  0  0
  1  5  2  0  0  0  0
  2  6  2  0  0  0  0
  3  8  2  0  0  0  0
  3 17  1  0  0  0  0
  4  9  1  0  0  0  0
  4 17  2  0  0  0  0
  5 19  1  0  0  0  0
  6 21  1  0  0  0  0
  7 10  2  0  0  0  0
  7 20  1  0  0  0  0
  8 26  1  0  0  0  0
  9 26  2  0  0  0  0
 10 27  1  0  0  0  0
 11 12  2  0  0  0  0
 11 28  1  0  0  0  0
 12 29  1  0  0  0  0
 13 22  1  0  0  0  0
 13 27  2  0  0  0  0
 14 23  1  0  0  0  0
 14 30  2  0  0  0  0
 15 24  1  0  0  0  0
 15 25  2  0  0  0  0
 16 29  2  0  0  0  0
 16 31  1  0  0  0  0
 17 32  1  0  0  0  0
 18 32  1  0  0  0  0
 18 33  2  0  0  0  0
 18 35  1  0  0  0  0
 19 21  2  0  0  0  0
 19 42  1  0  0  0  0
 20 22  2  0  0  0  0
 20 43  1  0  0  0  0
 21 51  1  0  0  0  0
 22 44  1  0  0  0  0
 23 24  2  0  0  0  0
 23 61  1  0  0  0  0
 24 69  1  0  0  0  0
 25 30  1  0  0  0  0
 25 70  1  0  0  0  0
 26 81  1  0  0  0  0
 27 82  1  0  0  0  0
 28 31  2  0  0  0  0
 28 81  1  0  0  0  0
 29 83  1  0  0  0  0
 30 84  1  0  0  0  0
 31 85  1  0  0  0  0
 32 63  2  0  0  0  0
 33 64  1  0  0  0  0
 33 67  1  0  0  0  0
 34 36  2  0  0  0  0
 34 82  1  0  0  0  0
 35 68  1  0  0  0  0
 35 74  2  0  0  0  0
 36 37  1  0  0  0  0
 36 80  1  0  0  0  0
 37 69  1  0  0  0  0
 37 75  2  0  0  0  0
 38 52  1  0  0  0  0
 38 71  1  0  0  0  0
 38 76  2  0  0  0  0
 39 59  1  0  0  0  0
 39 65  1  0  0  0  0
 39 77  2  0  0  0  0
 40 60  1  0  0  0  0
 40 72  1  0  0  0  0
 40 78  2  0  0  0  0
 41 66  1  0  0  0  0
 41 70  1  0  0  0  0
 41 79  2  0  0  0  0
 42 45  1  0  0  0  0
 43 52  1  0  0  0  0
 44 65  1  0  0  0  0
 45 47  1  0  0  0  0
 46 48  1  0  0  0  0
 46 49  1  0  0  0  0
 47 51  1  0  0  0  0
 48 53  1  0  0  0  0
 49 66  1  0  0  0  0
 50 53  1  0  0  0  0
 50 66  1  0  0  0  0
 51 71  1  0  0  0  0
 52 65  1  0  0  0  0
 53 64  1  0  0  0  0
 54 60  1  0  0  0  0
 55 62  1  0  0  0  0
 56 62  1  0  0  0  0
 57 62  1  0  0  0  0
 58 73  1  0  0  0  0
 59 62  1  0  0  0  0
 59 72  1  0  0  0  0
 60 73  1  0  0  0  0
 61 86  1  0  0  0  0
 61 87  1  0  0  0  0
 61 88  1  0  0  0  0
 63 64  1  0  0  0  0
M  CHG  1  73   1
M  ISO  4  34 101  41 100  70 100  82 101
M  END
> <Batch ID>
0171

> <Smiles>
CNC(C)C(=O)NC(C(=O)N1Cc2cc([101O:1][101CH2:1]C(=O)C(=O)Nc3cc([100NH:0][100C:0](=O)N4CCCC(n5nc(-c6ccc(Oc7ccc(F)cc7F)cc6)c(C(N)=O)c5N)C4)c(F)cc3C(F)(F)F)ccc2CC1C(=O)NC1CCCc2ccccc21)C(C)(C)C

> <Shape>
0.218

> <Color>
0.096

> <Negative vol penalty>
0.000

$$$$

  -OEChem-04052304233D

 90 98  0     1  0  0  0  0  0999 V2000
  -30.0755  -34.3019   25.1871 C   0  0  0  0  0  0  0  0  0  0  0  0
  -29.9152  -33.0274   24.6531 C   0  0  0  0  0  0  0  0  0  0  0  0
  -23.2741   -9.6855   21.0576 C   0  0  0  0  0  0  0  0  0  0  0  0
  -23.9357  -10.4832   23.2400 C   0  0  0  0  0  0  0  0  0  0  0  0
  -28.9753  -34.9818   25.7079 C   0  0  0  0  0  0  0  0  0  0  0  0
  -28.6546  -32.4314   24.6407 C   0  0  0  0  0  0  0  0  0  0  0  0
  -27.5953  -30.2189   20.2104 C   0  0  0  0  0  0  0  0  0  0  0  0
  -22.5823   -8.6307   21.6528 C   0  0  0  0  0  0  0  0  0  0  0  0
  -23.2438   -9.4285   23.8353 C   0  0  0  0  0  0  0  0  0  0  0  0
  -28.1773  -28.9762   19.9640 C   0  0  0  0  0  0  0  0  0  0  0  0
  -19.6219   -8.1615   23.2178 C   0  0  0  0  0  0  0  0  0  0  0  0
  -18.3408   -7.8777   22.7448 C   0  0  0  0  0  0  0  0  0  0  0  0
  -29.1784  -18.4511   20.8851 C   0  0  0  0  0  0  0  0  0  0  0  0
  -26.1108  -27.8935   20.5776 C   0  0  0  0  0  0  0  0  0  0  0  0
  -30.8894  -17.8018   19.3077 C   0  0  0  0  0  0  0  0  0  0  0  0
  -19.0572   -5.6508   22.1408 C   0  0  0  0  0  0  0  0  0  0  0  0
  -23.9509  -10.6118   21.8511 C   0  0  0  0  0  0  0  0  0  0  0  0
  -29.2724  -19.7710   20.4438 C   0  0  0  0  0  0  0  0  0  0  0  0
  -24.1637  -12.9782   20.9225 C   0  0  0  0  0  0  0  0  0  0  0  0
  -27.6988  -34.3977   25.6931 C   0  0  0  0  0  0  0  0  0  0  0  0
  -26.2679  -30.3079   20.6534 C   0  0  0  0  0  0  0  0  0  0  0  0
  -27.5365  -33.1035   25.1630 C   0  0  0  0  0  0  0  0  0  0  0  0
  -25.5135  -29.1386   20.8264 C   0  0  0  0  0  0  0  0  0  0  0  0
  -29.9869  -17.4665   20.3171 C   0  0  0  0  0  0  0  0  0  0  0  0
  -22.5671   -8.5022   23.0417 C   0  0  0  0  0  0  0  0  0  0  0  0
  -27.4360  -27.8131   20.1504 C   0  0  0  0  0  0  0  0  0  0  0  0
  -20.6207   -7.1900   23.1522 C   0  0  0  0  0  0  0  0  0  0  0  0
  -18.0584   -6.6223   22.2064 C   0  0  0  0  0  0  0  0  0  0  0  0
  -30.9834  -19.1217   18.8664 C   0  0  0  0  0  0  0  0  0  0  0  0
  -20.3384   -5.9347   22.6138 C   0  0  0  0  0  0  0  0  0  0  0  0
  -30.1748  -20.1063   19.4345 C   0  0  0  0  0  0  0  0  0  0  0  0
  -24.6662  -11.7013   21.2368 C   0  0  0  0  0  0  0  0  0  0  0  0
  -25.2291  -13.6374   20.3595 C   0  0  0  0  0  0  0  0  0  0  0  0
  -28.4096  -20.8174   21.0502 C   0  0  0  0  0  0  0  0  0  0  0  0
  -22.8513  -13.5201   21.1218 C   0  0  0  0  0  0  0  0  0  0  0  0
  -24.8458  -31.4234   23.2682 C   0  0  0  0  0  0  0  0  0  0  0  0
  -28.6143  -24.4566   20.8617 C   0  0  0  0  0  0  0  0  0  0  0  0
  -22.1395  -30.7622   21.6064 C   0  0  0  0  0  0  0  0  0  0  0  0
  -20.6232  -28.9578   19.1383 C   0  0  0  0  0  0  0  0  0  0  0  0
  -30.6203  -15.0283   20.3069 C   0  0  0  0  0  0  0  0  0  0  0  0
  -26.5481  -35.1522   26.3105 C   0  0  0  0  0  0  0  0  0  0  0  0
  -25.6463  -31.6572   20.8890 C   0  0  0  0  0  0  0  0  0  0  0  0
  -24.0783  -29.1808   21.2812 C   0  0  0  0  0  0  0  0  0  0  0  0
  -25.1790  -34.6021   25.9190 C   0  0  0  0  0  0  0  0  0  0  0  0
  -29.7351  -11.9118   18.8300 C   0  0  0  0  0  0  0  0  0  0  0  0
  -25.1573  -33.0824   26.0490 C   0  0  0  0  0  0  0  0  0  0  0  0
  -28.2961  -11.6843   19.2986 C   0  0  0  0  0  0  0  0  0  0  0  0
  -30.5857  -12.5752   19.9118 C   0  0  0  0  0  0  0  0  0  0  0  0
  -28.5869  -13.5853   20.9383 C   0  0  0  0  0  0  0  0  0  0  0  0
  -26.1806  -32.4336   25.1090 C   0  0  1  0  0  0  0  0  0  0  0  0
  -24.4474  -31.6065   21.8310 C   0  0  1  0  0  0  0  0  0  0  0  0
  -27.6749  -12.9784   19.8597 C   0  0  2  0  0  0  0  0  0  0  0  0
  -18.3946  -28.6089   18.0388 C   0  0  0  0  0  0  0  0  0  0  0  0
  -21.2117  -29.1287   24.0107 C   0  0  0  0  0  0  0  0  0  0  0  0
  -19.4940  -28.0615   22.5347 C   0  0  0  0  0  0  0  0  0  0  0  0
  -19.4287  -30.5212   22.9449 C   0  0  0  0  0  0  0  0  0  0  0  0
  -21.6540  -29.8359   16.5067 C   0  0  0  0  0  0  0  0  0  0  0  0
  -27.5256  -25.4970   20.6832 C   0  0  0  0  0  0  0  0  0  1  0  0
  -28.2342  -23.2166   21.6576 C   0  0  2  0  0  0  0  0  0  0  0  0
  -21.2388  -29.5590   21.4651 C   0  0  1  0  0  0  0  0  0  0  0  0
  -19.7071  -29.3762   18.0024 C   0  0  2  0  0  0  0  0  0  0  0  0
  -20.3709  -29.3164   22.7321 C   0  0  0  0  0  0  0  0  0  0  0  0
  -28.5675  -23.3967   23.1220 C   0  0  0  0  0  0  0  0  0  0  0  0
  -25.9507  -11.5557   20.9011 N   0  0  0  0  0  0  0  0  0  0  0  0
  -26.2644  -12.7497   20.3700 N   0  0  0  0  0  0  0  0  0  0  0  0
  -23.5174  -30.5236   21.5044 N   0  0  0  0  0  0  0  0  0  0  0  0
  -29.9368  -13.7969   20.3925 N   0  0  0  0  0  0  0  0  0  0  0  0
  -25.3718  -14.8839   19.8614 N   0  0  0  0  0  0  0  0  0  0  0  0
  -21.8755  -12.7068   21.7141 N   0  0  0  0  0  0  0  0  0  0  0  0
  -29.8913  -16.1255   20.7644 N   0  0  0  0  0  0  0  0  0  0  0  0
  -28.9383  -22.1014   21.0810 N   0  0  0  0  0  0  0  0  0  0  0  0
  -25.6788  -32.4142   23.7517 N   0  0  0  0  0  0  0  0  0  0  0  0
  -20.4683  -29.7671   20.2439 N   0  0  0  0  0  0  0  0  0  0  0  0
  -20.3630  -29.1237   16.6883 N   0  3  0  0  0  0  0  0  0  0  0  0
  -27.3112  -20.5026   21.5006 O   0  0  0  0  0  0  0  0  0  0  0  0
  -22.5483  -14.6853   20.7697 O   0  0  0  0  0  0  0  0  0  0  0  0
  -24.4271  -30.4557   23.8926 O   0  0  0  0  0  0  0  0  0  0  0  0
  -29.7489  -24.6230   20.4133 O   0  0  0  0  0  0  0  0  0  0  0  0
  -21.6387  -31.8740   21.7931 O   0  0  0  0  0  0  0  0  0  0  0  0
  -21.3960  -28.0058   19.0546 O   0  0  0  0  0  0  0  0  0  0  0  0
  -31.7576  -15.1078   19.8353 O   0  0  0  0  0  0  0  0  0  0  0  0
  -21.8919   -7.4732   23.6229 O   0  0  0  0  0  0  0  0  0  0  0  0
  -28.0019  -26.5988   19.9114 O   0  0  0  0  0  0  0  0  0  1  0  0
  -16.8277   -6.3493   21.7536 F   0  0  0  0  0  0  0  0  0  0  0  0
  -31.8499  -19.4438   17.8972 F   0  0  0  0  0  0  0  0  0  0  0  0
  -21.2935   -4.9969   22.5492 F   0  0  0  0  0  0  0  0  0  0  0  0
  -30.2738  -21.3714   19.0029 F   0  0  0  0  0  0  0  0  0  0  0  0
  -28.2646  -22.2865   23.8305 F   0  0  0  0  0  0  0  0  0  0  0  0
  -27.8937  -24.4316   23.6682 F   0  0  0  0  0  0  0  0  0  0  0  0
  -29.8886  -23.6314   23.2894 F   0  0  0  0  0  0  0  0  0  0  0  0
  1  2  1  0  0  0  0
  1  5  2  0  0  0  0
  2  6  2  0  0  0  0
  3  8  2  0  0  0  0
  3 17  1  0  0  0  0
  4  9  1  0  0  0  0
  4 17  2  0  0  0  0
  5 20  1  0  0  0  0
  6 22  1  0  0  0  0
  7 10  2  0  0  0  0
  7 21  1  0  0  0  0
  8 25  1  0  0  0  0
  9 25  2  0  0  0  0
 10 26  1  0  0  0  0
 11 12  2  0  0  0  0
 11 27  1  0  0  0  0
 12 28  1  0  0  0  0
 13 18  1  0  0  0  0
 13 24  2  0  0  0  0
 14 23  1  0  0  0  0
 14 26  2  0  0  0  0
 15 24  1  0  0  0  0
 15 29  2  0  0  0  0
 16 28  2  0  0  0  0
 16 30  1  0  0  0  0
 17 32  1  0  0  0  0
 18 31  2  0  0  0  0
 18 34  1  0  0  0  0
 19 32  1  0  0  0  0
 19 33  2  0  0  0  0
 19 35  1  0  0  0  0
 20 22  2  0  0  0  0
 20 41  1  0  0  0  0
 21 23  2  0  0  0  0
 21 42  1  0  0  0  0
 22 50  1  0  0  0  0
 23 43  1  0  0  0  0
 24 70  1  0  0  0  0
 25 82  1  0  0  0  0
 26 83  1  0  0  0  0
 27 30  2  0  0  0  0
 27 82  1  0  0  0  0
 28 84  1  0  0  0  0
 29 31  1  0  0  0  0
 29 85  1  0  0  0  0
 30 86  1  0  0  0  0
 31 87  1  0  0  0  0
 32 64  2  0  0  0  0
 33 65  1  0  0  0  0
 33 68  1  0  0  0  0
 34 71  1  0  0  0  0
 34 75  2  0  0  0  0
 35 69  1  0  0  0  0
 35 76  2  0  0  0  0
 36 51  1  0  0  0  0
 36 72  1  0  0  0  0
 36 77  2  0  0  0  0
 37 58  1  0  0  0  0
 37 59  1  0  0  0  0
 37 78  2  0  0  0  0
 38 60  1  0  0  0  0
 38 66  1  0  0  0  0
 38 79  2  0  0  0  0
 39 61  1  0  0  0  0
 39 73  1  0  0  0  0
 39 80  2  0  0  0  0
 40 67  1  0  0  0  0
 40 70  1  0  0  0  0
 40 81  2  0  0  0  0
 41 44  1  0  0  0  0
 42 51  1  0  0  0  0
 43 66  1  0  0  0  0
 44 46  1  0  0  0  0
 45 47  1  0  0  0  0
 45 48  1  0  0  0  0
 46 50  1  0  0  0  0
 47 52  1  0  0  0  0
 48 67  1  0  0  0  0
 49 52  1  0  0  0  0
 49 67  1  0  0  0  0
 50 72  1  0  0  0  0
 51 66  1  0  0  0  0
 52 65  1  0  0  0  0
 53 61  1  0  0  0  0
 54 62  1  0  0  0  0
 55 62  1  0  0  0  0
 56 62  1  0  0  0  0
 57 74  1  0  0  0  0
 58 83  1  0  0  0  0
 59 63  1  0  0  0  0
 59 71  1  0  0  0  0
 60 62  1  0  0  0  0
 60 73  1  0  0  0  0
 61 74  1  0  0  0  0
 63 88  1  0  0  0  0
 63 89  1  0  0  0  0
 63 90  1  0  0  0  0
 64 65  1  0  0  0  0
M  CHG  1  74   1
M  ISO  4  40 100  58 101  70 100  83 101
M  END
> <Batch ID>
0171

> <Smiles>
CNC(C)C(=O)NC(C(=O)N1Cc2cc([101O:1][101CH2:1]C(=O)C(NC(=O)c3cc([100NH:0][100C:0](=O)N4CCCC(n5nc(-c6ccc(Oc7ccc(F)cc7F)cc6)c(C(N)=O)c5N)C4)cc(F)c3F)C(F)(F)F)ccc2CC1C(=O)NC1CCCc2ccccc21)C(C)(C)C

> <Shape>
0.359

> <Color>
0.191

> <Negative vol penalty>
0.000

$$$$

  -OEChem-04052304233D

 85 93  0     1  0  0  0  0  0999 V2000
  -16.0137  -29.4765   26.5331 C   0  0  0  0  0  0  0  0  0  0  0  0
  -16.6817  -28.3557   26.0504 C   0  0  0  0  0  0  0  0  0  0  0  0
  -32.2331  -18.8200   21.5798 C   0  0  0  0  0  0  0  0  0  0  0  0
  -23.1313   -9.7991   20.1580 C   0  0  0  0  0  0  0  0  0  0  0  0
  -23.7765  -10.0986   22.4669 C   0  0  0  0  0  0  0  0  0  0  0  0
  -31.4056  -19.7179   22.2540 C   0  0  0  0  0  0  0  0  0  0  0  0
  -16.6511  -30.7165   26.5416 C   0  0  0  0  0  0  0  0  0  0  0  0
  -17.9871  -28.4745   25.5748 C   0  0  0  0  0  0  0  0  0  0  0  0
  -22.4669  -24.3247   26.0407 C   0  0  0  0  0  0  0  0  0  0  0  0
  -31.7662  -17.5445   21.2624 C   0  0  0  0  0  0  0  0  0  0  0  0
  -22.3860   -8.6746   20.5121 C   0  0  0  0  0  0  0  0  0  0  0  0
  -23.0311   -8.9741   22.8211 C   0  0  0  0  0  0  0  0  0  0  0  0
  -22.9621  -23.3748   25.1484 C   0  0  0  0  0  0  0  0  0  0  0  0
  -19.7840   -8.2090   23.3613 C   0  0  0  0  0  0  0  0  0  0  0  0
  -18.9704   -8.3020   24.4904 C   0  0  0  0  0  0  0  0  0  0  0  0
  -24.7011  -24.9107   24.4880 C   0  0  0  0  0  0  0  0  0  0  0  0
  -20.1904   -6.4879   25.5189 C   0  0  0  0  0  0  0  0  0  0  0  0
  -23.8267  -10.5111   21.1354 C   0  0  0  0  0  0  0  0  0  0  0  0
  -30.1111  -19.3403   22.6108 C   0  0  0  0  0  0  0  0  0  0  0  0
  -24.1523  -13.0072   20.7216 C   0  0  0  0  0  0  0  0  0  0  0  0
  -17.9684  -30.8487   26.0749 C   0  0  0  0  0  0  0  0  0  0  0  0
  -23.0795  -25.5808   26.1557 C   0  0  0  0  0  0  0  0  0  0  0  0
  -18.6422  -29.7177   25.5759 C   0  0  0  0  0  0  0  0  0  0  0  0
  -24.2133  -25.8738   25.3844 C   0  0  0  0  0  0  0  0  0  0  0  0
  -30.4717  -17.1669   21.6192 C   0  0  0  0  0  0  0  0  0  0  0  0
  -22.3358   -8.2621   21.8437 C   0  0  0  0  0  0  0  0  0  0  0  0
  -24.0776  -23.6688   24.3697 C   0  0  0  0  0  0  0  0  0  0  0  0
  -20.8009   -7.2554   23.3110 C   0  0  0  0  0  0  0  0  0  0  0  0
  -19.1735   -7.4415   25.5692 C   0  0  0  0  0  0  0  0  0  0  0  0
  -21.0041   -6.3949   24.3898 C   0  0  0  0  0  0  0  0  0  0  0  0
  -29.6441  -18.0648   22.2934 C   0  0  0  0  0  0  0  0  0  0  0  0
  -24.5973  -11.6725   20.7701 C   0  0  0  0  0  0  0  0  0  0  0  0
  -25.2546  -13.7223   20.3217 C   0  0  0  0  0  0  0  0  0  0  0  0
  -29.2338  -20.3002   23.3283 C   0  0  0  0  0  0  0  0  0  0  0  0
  -22.8582  -13.5518   21.0121 C   0  0  0  0  0  0  0  0  0  0  0  0
  -22.1571  -28.5809   25.6532 C   0  0  0  0  0  0  0  0  0  0  0  0
  -25.0644  -29.2745   26.9137 C   0  0  0  0  0  0  0  0  0  0  0  0
  -26.8760  -20.9455   23.6886 C   0  0  0  0  0  0  0  0  0  0  0  0
  -28.2587  -28.2615   27.5595 C   0  0  0  0  0  0  0  0  0  0  0  0
  -30.6962  -14.8614   20.6290 C   0  0  0  0  0  0  0  0  0  0  0  0
  -18.5992  -32.2186   26.0600 C   0  0  0  0  0  0  0  0  0  0  0  0
  -22.5493  -26.5847   27.1423 C   0  0  0  0  0  0  0  0  0  0  0  0
  -24.9197  -27.2002   25.4849 C   0  0  0  0  0  0  0  0  0  0  0  0
  -20.1155  -32.1891   25.8863 C   0  0  0  0  0  0  0  0  0  0  0  0
  -29.7214  -12.1592   18.5255 C   0  0  0  0  0  0  0  0  0  0  0  0
  -20.5053  -31.2371   24.7599 C   0  0  0  0  0  0  0  0  0  0  0  0
  -28.2648  -11.9014   18.9180 C   0  0  0  0  0  0  0  0  0  0  0  0
  -30.5738  -12.5471   19.7324 C   0  0  0  0  0  0  0  0  0  0  0  0
  -28.5946  -13.4075   20.9204 C   0  0  0  0  0  0  0  0  0  0  0  0
  -20.0676  -29.8015   25.0746 C   0  0  1  0  0  0  0  0  0  0  0  0
  -22.9425  -28.0195   26.8046 C   0  0  1  0  0  0  0  0  0  0  0  0
  -27.6828  -13.0768   19.7275 C   0  0  2  0  0  0  0  0  0  0  0  0
  -30.4130  -29.0611   28.5680 C   0  0  0  0  0  0  0  0  0  0  0  0
  -25.6053  -30.9515   24.4227 C   0  0  0  0  0  0  0  0  0  0  0  0
  -28.0363  -30.9301   25.0212 C   0  0  0  0  0  0  0  0  0  0  0  0
  -26.3830  -31.9832   26.5640 C   0  0  0  0  0  0  0  0  0  0  0  0
  -28.2166  -26.1380   29.6206 C   0  0  0  0  0  0  0  0  0  0  0  0
  -25.4898  -20.5416   23.2103 C   0  0  0  0  0  0  0  0  0  0  0  0
  -24.3805  -21.3703   23.8395 C   0  0  0  0  0  0  0  0  0  1  0  0
  -26.4540  -29.4646   26.3553 C   0  0  1  0  0  0  0  0  0  0  0  0
  -29.1024  -28.3317   28.8195 C   0  0  2  0  0  0  0  0  0  0  0  0
  -26.6054  -30.8080   25.5873 C   0  0  0  0  0  0  0  0  0  0  0  0
  -25.8821  -11.5446   20.4282 N   0  0  0  0  0  0  0  0  0  0  0  0
  -26.2539  -12.8081   20.1609 N   0  0  0  0  0  0  0  0  0  0  0  0
  -24.3594  -28.1509   26.4594 N   0  0  0  0  0  0  0  0  0  0  0  0
  -29.9632  -13.6695   20.4481 N   0  0  0  0  0  0  0  0  0  0  0  0
  -25.4569  -15.0377   20.0952 N   0  0  0  0  0  0  0  0  0  0  0  0
  -21.8387  -12.6762   21.4097 N   0  0  0  0  0  0  0  0  0  0  0  0
  -30.0011  -15.8703   21.2950 N   0  0  0  0  0  0  0  0  0  0  0  0
  -27.8673  -20.1635   23.0898 N   0  0  0  0  0  0  0  0  0  0  0  0
  -20.9750  -29.1931   26.0237 N   0  0  0  0  0  0  0  0  0  0  0  0
  -27.3703  -29.3130   27.4804 N   0  0  0  0  0  0  0  0  0  0  0  0
  -29.4148  -26.9599   29.3109 N   0  3  0  0  0  0  0  0  0  0  0  0
  -29.7409  -21.1193   24.0898 O   0  0  0  0  0  0  0  0  0  0  0  0
  -22.6088  -14.7766   20.9058 O   0  0  0  0  0  0  0  0  0  0  0  0
  -22.5922  -28.4683   24.5131 O   0  0  0  0  0  0  0  0  0  0  0  0
  -24.6235  -30.0889   27.7286 O   0  0  0  0  0  0  0  0  0  0  0  0
  -27.0742  -21.8484   24.4966 O   0  0  0  0  0  0  0  0  0  0  0  0
  -28.3785  -27.3656   26.7267 O   0  0  0  0  0  0  0  0  0  0  0  0
  -31.8456  -14.9880   20.1990 O   0  0  0  0  0  0  0  0  0  0  0  0
  -21.6084   -7.1649   22.1896 O   0  0  0  0  0  0  0  0  0  0  0  0
  -24.5626  -22.7437   23.4975 O   0  0  0  0  0  0  0  0  0  1  0  0
  -18.3931   -7.5319   26.6540 F   0  0  0  0  0  0  0  0  0  0  0  0
  -21.9801   -5.4777   24.3478 F   0  0  0  0  0  0  0  0  0  0  0  0
  -28.3993  -17.7011   22.6379 F   0  0  0  0  0  0  0  0  0  0  0  0
  1  2  1  0  0  0  0
  1  7  2  0  0  0  0
  2  8  2  0  0  0  0
  3  6  2  0  0  0  0
  3 10  1  0  0  0  0
  4 11  2  0  0  0  0
  4 18  1  0  0  0  0
  5 12  1  0  0  0  0
  5 18  2  0  0  0  0
  6 19  1  0  0  0  0
  7 21  1  0  0  0  0
  8 23  1  0  0  0  0
  9 13  2  0  0  0  0
  9 22  1  0  0  0  0
 10 25  2  0  0  0  0
 11 26  1  0  0  0  0
 12 26  2  0  0  0  0
 13 27  1  0  0  0  0
 14 15  2  0  0  0  0
 14 28  1  0  0  0  0
 15 29  1  0  0  0  0
 16 24  1  0  0  0  0
 16 27  2  0  0  0  0
 17 29  2  0  0  0  0
 17 30  1  0  0  0  0
 18 32  1  0  0  0  0
 19 31  2  0  0  0  0
 19 34  1  0  0  0  0
 20 32  1  0  0  0  0
 20 33  2  0  0  0  0
 20 35  1  0  0  0  0
 21 23  2  0  0  0  0
 21 41  1  0  0  0  0
 22 24  2  0  0  0  0
 22 42  1  0  0  0  0
 23 50  1  0  0  0  0
 24 43  1  0  0  0  0
 25 31  1  0  0  0  0
 25 69  1  0  0  0  0
 26 81  1  0  0  0  0
 27 82  1  0  0  0  0
 28 30  2  0  0  0  0
 28 81  1  0  0  0  0
 29 83  1  0  0  0  0
 30 84  1  0  0  0  0
 31 85  1  0  0  0  0
 32 63  2  0  0  0  0
 33 64  1  0  0  0  0
 33 67  1  0  0  0  0
 34 70  1  0  0  0  0
 34 74  2  0  0  0  0
 35 68  1  0  0  0  0
 35 75  2  0  0  0  0
 36 51  1  0  0  0  0
 36 71  1  0  0  0  0
 36 76  2  0  0  0  0
 37 60  1  0  0  0  0
 37 65  1  0  0  0  0
 37 77  2  0  0  0  0
 38 58  1  0  0  0  0
 38 70  1  0  0  0  0
 38 78  2  0  0  0  0
 39 61  1  0  0  0  0
 39 72  1  0  0  0  0
 39 79  2  0  0  0  0
 40 66  1  0  0  0  0
 40 69  1  0  0  0  0
 40 80  2  0  0  0  0
 41 44  1  0  0  0  0
 42 51  1  0  0  0  0
 43 65  1  0  0  0  0
 44 46  1  0  0  0  0
 45 47  1  0  0  0  0
 45 48  1  0  0  0  0
 46 50  1  0  0  0  0
 47 52  1  0  0  0  0
 48 66  1  0  0  0  0
 49 52  1  0  0  0  0
 49 66  1  0  0  0  0
 50 71  1  0  0  0  0
 51 65  1  0  0  0  0
 52 64  1  0  0  0  0
 53 61  1  0  0  0  0
 54 62  1  0  0  0  0
 55 62  1  0  0  0  0
 56 62  1  0  0  0  0
 57 73  1  0  0  0  0
 58 59  1  0  0  0  0
 59 82  1  0  0  0  0
 60 62  1  0  0  0  0
 60 72  1  0  0  0  0
 61 73  1  0  0  0  0
 63 64  1  0  0  0  0
M  CHG  1  73   1
M  ISO  4  40 100  59 101  69 100  82 101
M  END
> <Batch ID>
0171

> <Smiles>
CNC(C)C(=O)NC(C(=O)N1Cc2cc([101O:1][101CH2:1]CC(=O)NC(=O)c3cccc([100NH:0][100C:0](=O)N4CCCC(n5nc(-c6ccc(Oc7ccc(F)cc7F)cc6)c(C(N)=O)c5N)C4)c3F)ccc2CC1C(=O)NC1CCCc2ccccc21)C(C)(C)C

> <Shape>
0.217

> <Color>
0.200

> <Negative vol penalty>
0.000

$$$$

  -OEChem-04052304233D

 85 93  0     1  0  0  0  0  0999 V2000
  -22.8127  -23.9336   19.1997 C   0  0  0  0  0  0  0  0  0  0  0  0
  -23.8772  -23.2408   19.7672 C   0  0  0  0  0  0  0  0  0  0  0  0
  -20.2857  -27.7268   23.5806 C   0  0  0  0  0  0  0  0  0  0  0  0
  -20.0412  -26.2802   21.6611 C   0  0  0  0  0  0  0  0  0  0  0  0
  -21.5209  -23.4160   19.2848 C   0  0  0  0  0  0  0  0  0  0  0  0
  -23.6504  -22.0303   20.4212 C   0  0  0  0  0  0  0  0  0  0  0  0
  -27.0387  -18.4811   19.1692 C   0  0  0  0  0  0  0  0  0  0  0  0
  -18.9086  -27.9486   23.5888 C   0  0  0  0  0  0  0  0  0  0  0  0
  -18.6641  -26.5019   21.6693 C   0  0  0  0  0  0  0  0  0  0  0  0
  -28.2952  -18.5609   19.7680 C   0  0  0  0  0  0  0  0  0  0  0  0
  -16.6799  -29.8364   21.8878 C   0  0  0  0  0  0  0  0  0  0  0  0
  -16.2365  -31.1484   22.0542 C   0  0  0  0  0  0  0  0  0  0  0  0
  -27.6444  -16.8570   21.3467 C   0  0  0  0  0  0  0  0  0  0  0  0
  -15.0580  -30.4957   24.0598 C   0  0  0  0  0  0  0  0  0  0  0  0
  -20.8520  -26.8927   22.6167 C   0  0  0  0  0  0  0  0  0  0  0  0
  -22.9765  -25.6478   23.2833 C   0  0  0  0  0  0  0  0  0  0  0  0
  -21.2795  -22.1938   19.9318 C   0  0  0  0  0  0  0  0  0  0  0  0
  -26.0702  -17.5949   19.6623 C   0  0  0  0  0  0  0  0  0  0  0  0
  -22.3540  -21.4965   20.5162 C   0  0  0  0  0  0  0  0  0  0  0  0
  -26.3772  -16.7660   20.7508 C   0  0  0  0  0  0  0  0  0  0  0  0
  -18.0978  -27.3361   22.6332 C   0  0  0  0  0  0  0  0  0  0  0  0
  -28.5972  -17.7509   20.8587 C   0  0  0  0  0  0  0  0  0  0  0  0
  -16.3123  -28.8540   22.8073 C   0  0  0  0  0  0  0  0  0  0  0  0
  -15.4256  -31.4780   23.1402 C   0  0  0  0  0  0  0  0  0  0  0  0
  -15.5014  -29.1837   23.8933 C   0  0  0  0  0  0  0  0  0  0  0  0
  -22.2745  -26.6637   22.6073 C   0  0  0  0  0  0  0  0  0  0  0  0
  -31.4126  -23.4405   20.4196 C   0  0  0  0  0  0  0  0  0  0  0  0
  -31.7069  -24.2843   19.3691 C   0  0  0  0  0  0  0  0  0  0  0  0
  -24.2925  -25.8618   22.9534 C   0  0  0  0  0  0  0  0  0  0  0  0
  -29.7701  -25.1372   19.9445 C   0  0  0  0  0  0  0  0  0  0  0  0
  -22.4831  -24.6039   24.1334 C   0  0  0  0  0  0  0  0  0  0  0  0
  -32.1751  -22.3002   20.9899 C   0  0  0  0  0  0  0  0  0  0  0  0
  -23.1721  -17.9168   20.9277 C   0  0  0  0  0  0  0  0  0  0  0  0
  -31.4006  -19.2546   22.5994 C   0  0  0  0  0  0  0  0  0  0  0  0
  -23.1740  -14.6763   20.7810 C   0  0  0  0  0  0  0  0  0  0  0  0
  -24.9793  -11.7824   20.6649 C   0  0  0  0  0  0  0  0  0  0  0  0
  -28.2511  -27.0076   19.2091 C   0  0  0  0  0  0  0  0  0  0  0  0
  -19.8594  -21.6976   20.0396 C   0  0  0  0  0  0  0  0  0  0  0  0
  -24.7287  -17.5017   18.9884 C   0  0  0  0  0  0  0  0  0  0  0  0
  -25.3796  -15.7835   21.3055 C   0  0  0  0  0  0  0  0  0  0  0  0
  -19.7566  -20.2238   20.4238 C   0  0  0  0  0  0  0  0  0  0  0  0
  -26.5114  -29.7716   20.6272 C   0  0  0  0  0  0  0  0  0  0  0  0
  -20.6881  -19.9100   21.5903 C   0  0  0  0  0  0  0  0  0  0  0  0
  -25.3118  -29.1259   21.3244 C   0  0  0  0  0  0  0  0  0  0  0  0
  -26.8570  -29.0617   19.3194 C   0  0  0  0  0  0  0  0  0  0  0  0
  -25.8500  -26.9646   20.1301 C   0  0  0  0  0  0  0  0  0  0  0  0
  -22.1517  -20.1681   21.2124 C   0  0  1  0  0  0  0  0  0  0  0  0
  -23.6427  -16.9314   19.8955 C   0  0  1  0  0  0  0  0  0  0  0  0
  -25.5045  -27.6051   21.4844 C   0  0  2  0  0  0  0  0  0  0  0  0
  -32.4462  -20.8788   24.2060 C   0  0  0  0  0  0  0  0  0  0  0  0
  -24.7021   -9.2895   20.5891 C   0  0  0  0  0  0  0  0  0  0  0  0
  -22.4739  -14.6662   23.7508 C   0  0  0  0  0  0  0  0  0  0  0  0
  -23.1395  -12.2539   23.8282 C   0  0  0  0  0  0  0  0  0  0  0  0
  -21.2393  -12.9759   22.3822 C   0  0  0  0  0  0  0  0  0  0  0  0
  -26.3605  -11.5919   18.0544 C   0  0  0  0  0  0  0  0  0  0  0  0
  -30.4884  -19.0885   21.3973 C   0  0  0  0  0  0  0  0  0  1  0  0
  -32.2113  -20.5429   22.7411 C   0  0  2  0  0  0  0  0  0  0  0  0
  -23.6037  -13.5644   21.7074 C   0  0  1  0  0  0  0  0  0  0  0  0
  -24.8675  -10.5607   19.7709 C   0  0  2  0  0  0  0  0  0  0  0  0
  -22.6325  -13.3849   22.9082 C   0  0  0  0  0  0  0  0  0  0  0  0
  -23.0781  -27.4637   21.9014 N   0  0  0  0  0  0  0  0  0  0  0  0
  -30.7661  -25.2576   19.0950 N   0  0  0  0  0  0  0  0  0  0  0  0
  -24.2986  -26.9506   22.1321 N   0  0  0  0  0  0  0  0  0  0  0  0
  -24.0796  -15.7340   20.6163 N   0  0  0  0  0  0  0  0  0  0  0  0
  -27.0291  -27.6256   19.5490 N   0  0  0  0  0  0  0  0  0  0  0  0
  -32.8371  -24.2001   18.6270 N   0  0  0  0  0  0  0  0  0  0  0  0
  -25.4335  -25.2229   23.2887 N   0  0  0  0  0  0  0  0  0  0  0  0
  -21.1032  -24.5286   24.3668 N   0  0  0  0  0  0  0  0  0  0  0  0
  -28.5974  -25.9287   20.0219 N   0  0  0  0  0  0  0  0  0  0  0  0
  -31.5855  -21.6488   22.0661 N   0  0  0  0  0  0  0  0  0  0  0  0
  -22.6617  -19.0863   20.3975 N   0  0  0  0  0  0  0  0  0  0  0  0
  -23.7522  -12.3749   20.8759 N   0  0  0  0  0  0  0  0  0  0  0  0
  -26.0890  -10.4218   18.9285 N   0  3  0  0  0  0  0  0  0  0  0  0
  -23.2450  -23.7729   24.6832 O   0  0  0  0  0  0  0  0  0  0  0  0
  -33.2678  -22.0093   20.5104 O   0  0  0  0  0  0  0  0  0  0  0  0
  -23.2639  -17.6361   22.1170 O   0  0  0  0  0  0  0  0  0  0  0  0
  -31.5293  -18.3463   23.4249 O   0  0  0  0  0  0  0  0  0  0  0  0
  -22.0785  -14.6054   20.2185 O   0  0  0  0  0  0  0  0  0  0  0  0
  -26.0477  -12.1701   21.1326 O   0  0  0  0  0  0  0  0  0  0  0  0
  -28.9530  -27.4231   18.2835 O   0  0  0  0  0  0  0  0  0  0  0  0
  -16.7540  -27.5521   22.6411 O   0  0  0  0  0  0  0  0  0  0  0  0
  -29.8227  -17.8272   21.4455 O   0  0  0  0  0  0  0  0  0  1  0  0
  -15.0011  -32.7383   23.3007 F   0  0  0  0  0  0  0  0  0  0  0  0
  -15.1459  -28.2445   24.7806 F   0  0  0  0  0  0  0  0  0  0  0  0
  -29.8996  -23.8753   21.1002 S   0  0  0  0  0  0  0  0  0  0  0  0
  1  2  1  0  0  0  0
  1  5  2  0  0  0  0
  2  6  2  0  0  0  0
  3  8  2  0  0  0  0
  3 15  1  0  0  0  0
  4  9  1  0  0  0  0
  4 15  2  0  0  0  0
  5 17  1  0  0  0  0
  6 19  1  0  0  0  0
  7 10  2  0  0  0  0
  7 18  1  0  0  0  0
  8 21  1  0  0  0  0
  9 21  2  0  0  0  0
 10 22  1  0  0  0  0
 11 12  2  0  0  0  0
 11 23  1  0  0  0  0
 12 24  1  0  0  0  0
 13 20  1  0  0  0  0
 13 22  2  0  0  0  0
 14 24  2  0  0  0  0
 14 25  1  0  0  0  0
 15 26  1  0  0  0  0
 16 26  1  0  0  0  0
 16 29  2  0  0  0  0
 16 31  1  0  0  0  0
 17 19  2  0  0  0  0
 17 38  1  0  0  0  0
 18 20  2  0  0  0  0
 18 39  1  0  0  0  0
 19 47  1  0  0  0  0
 20 40  1  0  0  0  0
 21 81  1  0  0  0  0
 22 82  1  0  0  0  0
 23 25  2  0  0  0  0
 23 81  1  0  0  0  0
 24 83  1  0  0  0  0
 25 84  1  0  0  0  0
 26 61  2  0  0  0  0
 27 28  2  0  0  0  0
 27 32  1  0  0  0  0
 27 85  1  0  0  0  0
 28 62  1  0  0  0  0
 28 66  1  0  0  0  0
 29 63  1  0  0  0  0
 29 67  1  0  0  0  0
 30 62  2  0  0  0  0
 30 69  1  0  0  0  0
 30 85  1  0  0  0  0
 31 68  1  0  0  0  0
 31 74  2  0  0  0  0
 32 70  1  0  0  0  0
 32 75  2  0  0  0  0
 33 48  1  0  0  0  0
 33 71  1  0  0  0  0
 33 76  2  0  0  0  0
 34 56  1  0  0  0  0
 34 57  1  0  0  0  0
 34 77  2  0  0  0  0
 35 58  1  0  0  0  0
 35 64  1  0  0  0  0
 35 78  2  0  0  0  0
 36 59  1  0  0  0  0
 36 72  1  0  0  0  0
 36 79  2  0  0  0  0
 37 65  1  0  0  0  0
 37 69  1  0  0  0  0
 37 80  2  0  0  0  0
 38 41  1  0  0  0  0
 39 48  1  0  0  0  0
 40 64  1  0  0  0  0
 41 43  1  0  0  0  0
 42 44  1  0  0  0  0
 42 45  1  0  0  0  0
 43 47  1  0  0  0  0
 44 49  1  0  0  0  0
 45 65  1  0  0  0  0
 46 49  1  0  0  0  0
 46 65  1  0  0  0  0
 47 71  1  0  0  0  0
 48 64  1  0  0  0  0
 49 63  1  0  0  0  0
 50 57  1  0  0  0  0
 51 59  1  0  0  0  0
 52 60  1  0  0  0  0
 53 60  1  0  0  0  0
 54 60  1  0  0  0  0
 55 73  1  0  0  0  0
 56 82  1  0  0  0  0
 57 70  1  0  0  0  0
 58 60  1  0  0  0  0
 58 72  1  0  0  0  0
 59 73  1  0  0  0  0
 61 63  1  0  0  0  0
M  CHG  1  73   1
M  ISO  4  37 100  56 101  69 100  82 101
M  END
> <Batch ID>
0171

> <Smiles>
CNC(C)C(=O)NC(C(=O)N1Cc2cc([101O:1][101CH2:1]C(=O)C(C)NC(=O)c3sc([100NH:0][100C:0](=O)N4CCCC(n5nc(-c6ccc(Oc7ccc(F)cc7F)cc6)c(C(N)=O)c5N)C4)nc3N)ccc2CC1C(=O)NC1CCCc2ccccc21)C(C)(C)C

> <Shape>
0.204

> <Color>
0.071

> <Negative vol penalty>
0.000

$$$$

  -OEChem-04052304233D

 86 94  0     1  0  0  0  0  0999 V2000
  -17.1890  -29.9710   24.4879 C   0  0  0  0  0  0  0  0  0  0  0  0
  -17.9502  -28.8667   24.8577 C   0  0  0  0  0  0  0  0  0  0  0  0
  -24.3497  -14.4734   20.0312 C   0  0  0  0  0  0  0  0  0  0  0  0
  -26.0176  -14.7102   21.7629 C   0  0  0  0  0  0  0  0  0  0  0  0
  -17.2812  -30.4773   23.1921 C   0  0  0  0  0  0  0  0  0  0  0  0
  -18.8032  -28.2675   23.9316 C   0  0  0  0  0  0  0  0  0  0  0  0
  -24.2326  -25.6724   25.0685 C   0  0  0  0  0  0  0  0  0  0  0  0
  -30.5991  -23.5805   21.2902 C   0  0  0  0  0  0  0  0  0  0  0  0
  -24.5292  -13.0902   20.0474 C   0  0  0  0  0  0  0  0  0  0  0  0
  -26.1971  -13.3270   21.7792 C   0  0  0  0  0  0  0  0  0  0  0  0
  -24.6184  -24.3448   25.2484 C   0  0  0  0  0  0  0  0  0  0  0  0
  -24.2887   -9.4665   19.8870 C   0  0  0  0  0  0  0  0  0  0  0  0
  -31.5877  -24.1744   22.0748 C   0  0  0  0  0  0  0  0  0  0  0  0
  -23.1477   -8.6643   19.8759 C   0  0  0  0  0  0  0  0  0  0  0  0
  -25.2496  -24.2194   22.9236 C   0  0  0  0  0  0  0  0  0  0  0  0
  -30.4581  -23.4167   24.0715 C   0  0  0  0  0  0  0  0  0  0  0  0
  -22.4194   -9.6714   21.9477 C   0  0  0  0  0  0  0  0  0  0  0  0
  -25.0940  -15.2834   20.8889 C   0  0  0  0  0  0  0  0  0  0  0  0
  -24.0015  -17.4613   21.6445 C   0  0  0  0  0  0  0  0  0  0  0  0
  -18.1430  -29.8899   22.2524 C   0  0  0  0  0  0  0  0  0  0  0  0
  -24.3424  -26.2812   23.8100 C   0  0  0  0  0  0  0  0  0  0  0  0
  -18.9060  -28.7656   22.6216 C   0  0  0  0  0  0  0  0  0  0  0  0
  -24.8669  -25.5556   22.7309 C   0  0  0  0  0  0  0  0  0  0  0  0
  -29.5400  -22.9047   21.8962 C   0  0  0  0  0  0  0  0  0  0  0  0
  -29.4695  -22.8228   23.2869 C   0  0  0  0  0  0  0  0  0  0  0  0
  -25.4529  -12.5170   20.9214 C   0  0  0  0  0  0  0  0  0  0  0  0
  -25.1242  -23.6172   24.1752 C   0  0  0  0  0  0  0  0  0  0  0  0
  -24.4952  -10.3711   20.9285 C   0  0  0  0  0  0  0  0  0  0  0  0
  -31.5172  -24.0925   23.4654 C   0  0  0  0  0  0  0  0  0  0  0  0
  -22.2130   -8.7668   20.9062 C   0  0  0  0  0  0  0  0  0  0  0  0
  -23.5605  -10.4736   21.9589 C   0  0  0  0  0  0  0  0  0  0  0  0
  -24.9094  -16.7123   20.8722 C   0  0  0  0  0  0  0  0  0  0  0  0
  -24.2163  -18.7625   21.2609 C   0  0  0  0  0  0  0  0  0  0  0  0
  -23.0492  -17.0202   22.6214 C   0  0  0  0  0  0  0  0  0  0  0  0
  -22.2868  -27.5572   21.7485 C   0  0  0  0  0  0  0  0  0  0  0  0
  -24.9924  -28.3877   20.1634 C   0  0  0  0  0  0  0  0  0  0  0  0
  -28.2958  -27.7831   19.5562 C   0  0  0  0  0  0  0  0  0  0  0  0
  -28.4298  -21.4782   25.1489 C   0  0  0  0  0  0  0  0  0  0  0  0
  -28.4873  -22.3169   19.6843 C   0  0  0  0  0  0  0  0  0  0  0  0
  -18.1735  -30.4435   20.8498 C   0  0  0  0  0  0  0  0  0  0  0  0
  -23.9469  -27.7222   23.6387 C   0  0  0  0  0  0  0  0  0  0  0  0
  -25.0240  -26.1691   21.3643 C   0  0  0  0  0  0  0  0  0  0  0  0
  -19.3810  -29.9809   20.0385 C   0  0  0  0  0  0  0  0  0  0  0  0
  -26.2288  -20.9412   17.3002 C   0  0  0  0  0  0  0  0  0  0  0  0
  -19.5825  -28.4766   20.1917 C   0  0  0  0  0  0  0  0  0  0  0  0
  -25.5686  -19.7833   18.0523 C   0  0  0  0  0  0  0  0  0  0  0  0
  -27.7034  -21.0903   17.6703 C   0  0  0  0  0  0  0  0  0  0  0  0
  -27.3147  -20.0345   19.8620 C   0  0  0  0  0  0  0  0  0  0  0  0
  -19.8612  -28.1033   21.6527 C   0  0  1  0  0  0  0  0  0  0  0  0
  -23.6217  -28.0847   22.1929 C   0  0  1  0  0  0  0  0  0  0  0  0
  -25.8125  -19.8857   19.5707 C   0  0  2  0  0  0  0  0  0  0  0  0
  -27.5962  -18.6287   24.2900 C   0  0  0  0  0  0  0  0  0  0  0  0
  -30.2291  -28.6052   18.1835 C   0  0  0  0  0  0  0  0  0  0  0  0
  -27.1973  -20.1455   26.9037 C   0  0  0  0  0  0  0  0  0  0  0  0
  -23.8130  -27.0343   17.6962 C   0  0  0  0  0  0  0  0  0  0  0  0
  -26.1025  -27.0425   16.6831 C   0  0  0  0  0  0  0  0  0  0  0  0
  -24.9798  -29.1991   17.2411 C   0  0  0  0  0  0  0  0  0  0  0  0
  -29.8749  -28.4506   21.9686 C   0  0  0  0  0  0  0  0  0  0  0  0
  -26.6298  -19.7941   24.4738 C   0  0  0  0  0  0  0  0  0  0  0  0
  -25.9826  -21.9512   25.6393 C   0  0  0  0  0  0  0  0  0  1  0  0
  -25.8560  -27.7382   19.1093 C   0  0  1  0  0  0  0  0  0  0  0  0
  -29.4980  -28.7090   19.5130 C   0  0  2  0  0  0  0  0  0  0  0  0
  -27.0629  -20.8448   25.5332 C   0  0  2  0  0  0  0  0  0  0  0  0
  -25.1832  -27.7411   17.7076 C   0  0  0  0  0  0  0  0  0  0  0  0
  -25.6460  -17.4743   20.0592 N   0  0  0  0  0  0  0  0  0  0  0  0
  -25.2011  -18.7156   20.3185 N   0  0  0  0  0  0  0  0  0  0  0  0
  -24.6175  -27.5792   21.2457 N   0  0  0  0  0  0  0  0  0  0  0  0
  -27.8570  -21.1858   19.1236 N   0  0  0  0  0  0  0  0  0  0  0  0
  -23.6567  -19.9308   21.6410 N   0  0  0  0  0  0  0  0  0  0  0  0
  -22.9590  -15.6486   22.8948 N   0  0  0  0  0  0  0  0  0  0  0  0
  -28.4044  -22.1425   23.9260 N   0  0  0  0  0  0  0  0  0  0  0  0
  -28.5467  -22.3123   21.0775 N   0  0  0  0  0  0  0  0  0  0  0  0
  -21.2315  -28.4128   22.0008 N   0  0  0  0  0  0  0  0  0  0  0  0
  -27.1426  -28.4243   19.1559 N   0  0  0  0  0  0  0  0  0  0  0  0
  -30.4546  -28.3670   20.6033 N   0  3  0  0  0  0  0  0  0  0  0  0
  -22.2890  -17.8172   23.2218 O   0  0  0  0  0  0  0  0  0  0  0  0
  -22.2196  -26.4562   21.2147 O   0  0  0  0  0  0  0  0  0  0  0  0
  -24.6686  -29.5711   20.0350 O   0  0  0  0  0  0  0  0  0  0  0  0
  -28.3728  -26.6074   19.9061 O   0  0  0  0  0  0  0  0  0  0  0  0
  -29.4041  -21.3794   25.8928 O   0  0  0  0  0  0  0  0  0  0  0  0
  -28.9165  -23.2356   18.9817 O   0  0  0  0  0  0  0  0  0  0  0  0
  -25.6281  -11.1674   20.9377 O   0  0  0  0  0  0  0  0  0  0  0  0
  -25.5009  -22.3210   24.3480 O   0  0  0  0  0  0  0  0  0  1  0  0
  -32.4669  -24.6633   24.2182 F   0  0  0  0  0  0  0  0  0  0  0  0
  -21.1166   -7.9975   20.8946 F   0  0  0  0  0  0  0  0  0  0  0  0
  -23.7528  -11.3417   22.9615 F   0  0  0  0  0  0  0  0  0  0  0  0
  1  2  1  0  0  0  0
  1  5  2  0  0  0  0
  2  6  2  0  0  0  0
  3  9  2  0  0  0  0
  3 18  1  0  0  0  0
  4 10  1  0  0  0  0
  4 18  2  0  0  0  0
  5 20  1  0  0  0  0
  6 22  1  0  0  0  0
  7 11  2  0  0  0  0
  7 21  1  0  0  0  0
  8 13  2  0  0  0  0
  8 24  1  0  0  0  0
  9 26  1  0  0  0  0
 10 26  2  0  0  0  0
 11 27  1  0  0  0  0
 12 14  2  0  0  0  0
 12 28  1  0  0  0  0
 13 29  1  0  0  0  0
 14 30  1  0  0  0  0
 15 23  1  0  0  0  0
 15 27  2  0  0  0  0
 16 25  1  0  0  0  0
 16 29  2  0  0  0  0
 17 30  2  0  0  0  0
 17 31  1  0  0  0  0
 18 32  1  0  0  0  0
 19 32  1  0  0  0  0
 19 33  2  0  0  0  0
 19 34  1  0  0  0  0
 20 22  2  0  0  0  0
 20 40  1  0  0  0  0
 21 23  2  0  0  0  0
 21 41  1  0  0  0  0
 22 49  1  0  0  0  0
 23 42  1  0  0  0  0
 24 25  2  0  0  0  0
 24 72  1  0  0  0  0
 25 71  1  0  0  0  0
 26 82  1  0  0  0  0
 27 83  1  0  0  0  0
 28 31  2  0  0  0  0
 28 82  1  0  0  0  0
 29 84  1  0  0  0  0
 30 85  1  0  0  0  0
 31 86  1  0  0  0  0
 32 65  2  0  0  0  0
 33 66  1  0  0  0  0
 33 69  1  0  0  0  0
 34 70  1  0  0  0  0
 34 76  2  0  0  0  0
 35 50  1  0  0  0  0
 35 73  1  0  0  0  0
 35 77  2  0  0  0  0
 36 61  1  0  0  0  0
 36 67  1  0  0  0  0
 36 78  2  0  0  0  0
 37 62  1  0  0  0  0
 37 74  1  0  0  0  0
 37 79  2  0  0  0  0
 38 63  1  0  0  0  0
 38 71  1  0  0  0  0
 38 80  2  0  0  0  0
 39 68  1  0  0  0  0
 39 72  1  0  0  0  0
 39 81  2  0  0  0  0
 40 43  1  0  0  0  0
 41 50  1  0  0  0  0
 42 67  1  0  0  0  0
 43 45  1  0  0  0  0
 44 46  1  0  0  0  0
 44 47  1  0  0  0  0
 45 49  1  0  0  0  0
 46 51  1  0  0  0  0
 47 68  1  0  0  0  0
 48 51  1  0  0  0  0
 48 68  1  0  0  0  0
 49 73  1  0  0  0  0
 50 67  1  0  0  0  0
 51 66  1  0  0  0  0
 52 59  1  0  0  0  0
 53 62  1  0  0  0  0
 54 63  1  0  0  0  0
 55 64  1  0  0  0  0
 56 64  1  0  0  0  0
 57 64  1  0  0  0  0
 58 75  1  0  0  0  0
 59 63  1  0  0  0  0
 60 63  1  0  0  0  0
 60 83  1  0  0  0  0
 61 64  1  0  0  0  0
 61 74  1  0  0  0  0
 62 75  1  0  0  0  0
 65 66  1  0  0  0  0
M  CHG  1  75   1
M  ISO  4  39 100  60 101  72 100  83 101
M  END
> <Batch ID>
0171

> <Smiles>
CCC(C)(C(=O)Nc1cc(F)ccc1[100NH:0][100C:0](=O)N1CCCC(n2nc(-c3ccc(Oc4ccc(F)cc4F)cc3)c(C(N)=O)c2N)C1)[101CH2:1][101O:1]c1ccc2c(c1)CN(C(=O)C(NC(=O)C(C)NC)C(C)(C)C)C(C(=O)NC1CCCc3ccccc31)C2

> <Shape>
0.184

> <Color>
0.091

> <Negative vol penalty>
0.000

$$$$

  -OEChem-04052304233D

 87 95  0     1  0  0  0  0  0999 V2000
  -22.8305   -7.8030   21.9658 C   0  0  0  0  0  0  0  0  0  0  0  0
  -23.7786   -8.6817   21.4516 C   0  0  0  0  0  0  0  0  0  0  0  0
  -25.3062  -31.1424   22.6165 C   0  0  0  0  0  0  0  0  0  0  0  0
  -26.9348  -31.1398   20.8319 C   0  0  0  0  0  0  0  0  0  0  0  0
  -21.5123   -8.2236   22.1369 C   0  0  0  0  0  0  0  0  0  0  0  0
  -23.4087   -9.9813   21.1070 C   0  0  0  0  0  0  0  0  0  0  0  0
  -26.7308  -13.4417   22.7302 C   0  0  0  0  0  0  0  0  0  0  0  0
  -25.5485  -32.4984   22.8357 C   0  0  0  0  0  0  0  0  0  0  0  0
  -27.1770  -32.4959   21.0510 C   0  0  0  0  0  0  0  0  0  0  0  0
  -27.9065  -13.5893   21.9956 C   0  0  0  0  0  0  0  0  0  0  0  0
  -24.6733  -35.4447   21.4263 C   0  0  0  0  0  0  0  0  0  0  0  0
  -23.5701  -36.2807   21.5986 C   0  0  0  0  0  0  0  0  0  0  0  0
  -29.0344  -20.9064   18.8274 C   0  0  0  0  0  0  0  0  0  0  0  0
  -26.9763  -15.5315   20.9085 C   0  0  0  0  0  0  0  0  0  0  0  0
  -27.3656  -22.0101   17.4733 C   0  0  0  0  0  0  0  0  0  0  0  0
  -24.3708  -36.8840   23.7968 C   0  0  0  0  0  0  0  0  0  0  0  0
  -25.9994  -30.4630   21.6147 C   0  0  0  0  0  0  0  0  0  0  0  0
  -29.3926  -20.1118   17.7385 C   0  0  0  0  0  0  0  0  0  0  0  0
  -24.7971  -28.4979   20.5191 C   0  0  0  0  0  0  0  0  0  0  0  0
  -21.1281   -9.5320   21.8033 C   0  0  0  0  0  0  0  0  0  0  0  0
  -25.6630  -14.3329   22.5512 C   0  0  0  0  0  0  0  0  0  0  0  0
  -22.0838  -10.4194   21.2725 C   0  0  0  0  0  0  0  0  0  0  0  0
  -25.7890  -15.3945   21.6439 C   0  0  0  0  0  0  0  0  0  0  0  0
  -28.0209  -21.8556   18.6949 C   0  0  0  0  0  0  0  0  0  0  0  0
  -26.4838  -33.1752   22.0529 C   0  0  0  0  0  0  0  0  0  0  0  0
  -28.0283  -14.6326   21.0825 C   0  0  0  0  0  0  0  0  0  0  0  0
  -25.6252  -35.3283   22.4392 C   0  0  0  0  0  0  0  0  0  0  0  0
  -23.4189  -37.0004   22.7838 C   0  0  0  0  0  0  0  0  0  0  0  0
  -27.7237  -21.2155   16.3842 C   0  0  0  0  0  0  0  0  0  0  0  0
  -25.4739  -36.0480   23.6245 C   0  0  0  0  0  0  0  0  0  0  0  0
  -28.7373  -20.2664   16.5169 C   0  0  0  0  0  0  0  0  0  0  0  0
  -25.7501  -29.0621   21.3882 C   0  0  0  0  0  0  0  0  0  0  0  0
  -24.9580  -27.1419   20.6668 C   0  0  0  0  0  0  0  0  0  0  0  0
  -30.4728  -19.1021   17.8824 C   0  0  0  0  0  0  0  0  0  0  0  0
  -23.8511  -29.1419   19.6555 C   0  0  0  0  0  0  0  0  0  0  0  0
  -22.6526  -14.0583   21.5685 C   0  0  0  0  0  0  0  0  0  0  0  0
  -31.0435  -16.2302   19.8553 C   0  0  0  0  0  0  0  0  0  0  0  0
  -22.4994  -17.1846   22.4200 C   0  0  0  0  0  0  0  0  0  0  0  0
  -24.1480  -20.1217   22.9700 C   0  0  0  0  0  0  0  0  0  0  0  0
  -28.2068  -22.6390   21.0819 C   0  0  0  0  0  0  0  0  0  0  0  0
  -19.6810   -9.9264   21.9616 C   0  0  0  0  0  0  0  0  0  0  0  0
  -24.4116  -14.1758   23.3707 C   0  0  0  0  0  0  0  0  0  0  0  0
  -24.6796  -16.3903   21.4294 C   0  0  0  0  0  0  0  0  0  0  0  0
  -19.4532  -11.4353   21.9229 C   0  0  0  0  0  0  0  0  0  0  0  0
  -27.6128  -24.4905   24.0646 C   0  0  0  0  0  0  0  0  0  0  0  0
  -20.2160  -12.0607   20.7593 C   0  0  0  0  0  0  0  0  0  0  0  0
  -26.9968  -25.7985   23.5627 C   0  0  0  0  0  0  0  0  0  0  0  0
  -28.6964  -23.9746   23.1194 C   0  0  0  0  0  0  0  0  0  0  0  0
  -27.6689  -25.1507   21.2141 C   0  0  0  0  0  0  0  0  0  0  0  0
  -21.7267  -11.8447   20.9103 C   0  0  1  0  0  0  0  0  0  0  0  0
  -23.1933  -14.8374   22.7339 C   0  0  1  0  0  0  0  0  0  0  0  0
  -26.5270  -25.6754   22.0999 C   0  0  2  0  0  0  0  0  0  0  0  0
  -32.5759  -18.1030   20.5311 C   0  0  0  0  0  0  0  0  0  0  0  0
  -23.7495  -22.5127   23.6195 C   0  0  0  0  0  0  0  0  0  0  0  0
  -21.4396  -17.7664   19.6185 C   0  0  0  0  0  0  0  0  0  0  0  0
  -21.9608  -20.1854   19.9993 C   0  0  0  0  0  0  0  0  0  0  0  0
  -20.2943  -19.0270   21.4497 C   0  0  0  0  0  0  0  0  0  0  0  0
  -25.8278  -19.8648   25.3932 C   0  0  0  0  0  0  0  0  0  0  0  0
  -29.5357  -16.1046   19.9793 C   0  0  0  0  0  0  0  0  0  1  0  0
  -31.6434  -17.5769   19.4506 C   0  0  2  0  0  0  0  0  0  0  0  0
  -22.7518  -18.4973   21.7185 C   0  0  1  0  0  0  0  0  0  0  0  0
  -24.0820  -21.1144   24.1166 C   0  0  2  0  0  0  0  0  0  0  0  0
  -21.6320  -18.8493   20.6989 C   0  0  0  0  0  0  0  0  0  0  0  0
  -26.4634  -28.1399   22.0399 N   0  0  0  0  0  0  0  0  0  0  0  0
  -25.9584  -26.9825   21.5801 N   0  0  0  0  0  0  0  0  0  0  0  0
  -23.4735  -16.1907   22.2498 N   0  0  0  0  0  0  0  0  0  0  0  0
  -28.1781  -23.8798   21.7530 N   0  0  0  0  0  0  0  0  0  0  0  0
  -24.3399  -26.0822   20.1033 N   0  0  0  0  0  0  0  0  0  0  0  0
  -23.8194  -30.5428   19.6256 N   0  0  0  0  0  0  0  0  0  0  0  0
  -27.6572  -22.6636   19.8006 N   0  0  0  0  0  0  0  0  0  0  0  0
  -30.6267  -18.5488   19.1474 N   0  0  0  0  0  0  0  0  0  0  0  0
  -22.2745  -12.7667   21.8820 N   0  0  0  0  0  0  0  0  0  0  0  0
  -22.9377  -19.4924   22.7690 N   0  0  0  0  0  0  0  0  0  0  0  0
  -25.3887  -21.1681   24.8312 N   0  3  0  0  0  0  0  0  0  0  0  0
  -31.1713  -18.8279   16.9100 O   0  0  0  0  0  0  0  0  0  0  0  0
  -23.0461  -28.4944   18.9440 O   0  0  0  0  0  0  0  0  0  0  0  0
  -22.5822  -14.5901   20.4667 O   0  0  0  0  0  0  0  0  0  0  0  0
  -31.7751  -15.2511   20.0262 O   0  0  0  0  0  0  0  0  0  0  0  0
  -21.4792  -17.0487   23.0999 O   0  0  0  0  0  0  0  0  0  0  0  0
  -25.1699  -19.9269   22.3156 O   0  0  0  0  0  0  0  0  0  0  0  0
  -28.6592  -21.6229   21.6157 O   0  0  0  0  0  0  0  0  0  0  0  0
  -26.7203  -34.4985   22.2663 O   0  0  0  0  0  0  0  0  0  0  0  0
  -29.1746  -14.7786   20.3637 O   0  0  0  0  0  0  0  0  0  1  0  0
  -22.3602  -37.8043   22.9486 F   0  0  0  0  0  0  0  0  0  0  0  0
  -27.0946  -21.3639   15.2112 F   0  0  0  0  0  0  0  0  0  0  0  0
  -26.3857  -35.9411   24.6007 F   0  0  0  0  0  0  0  0  0  0  0  0
  -29.0731  -19.5081   15.4639 F   0  0  0  0  0  0  0  0  0  0  0  0
  1  2  1  0  0  0  0
  1  5  2  0  0  0  0
  2  6  2  0  0  0  0
  3  8  2  0  0  0  0
  3 17  1  0  0  0  0
  4  9  1  0  0  0  0
  4 17  2  0  0  0  0
  5 20  1  0  0  0  0
  6 22  1  0  0  0  0
  7 10  2  0  0  0  0
  7 21  1  0  0  0  0
  8 25  1  0  0  0  0
  9 25  2  0  0  0  0
 10 26  1  0  0  0  0
 11 12  2  0  0  0  0
 11 27  1  0  0  0  0
 12 28  1  0  0  0  0
 13 18  1  0  0  0  0
 13 24  2  0  0  0  0
 14 23  1  0  0  0  0
 14 26  2  0  0  0  0
 15 24  1  0  0  0  0
 15 29  2  0  0  0  0
 16 28  2  0  0  0  0
 16 30  1  0  0  0  0
 17 32  1  0  0  0  0
 18 31  2  0  0  0  0
 18 34  1  0  0  0  0
 19 32  1  0  0  0  0
 19 33  2  0  0  0  0
 19 35  1  0  0  0  0
 20 22  2  0  0  0  0
 20 41  1  0  0  0  0
 21 23  2  0  0  0  0
 21 42  1  0  0  0  0
 22 50  1  0  0  0  0
 23 43  1  0  0  0  0
 24 70  1  0  0  0  0
 25 82  1  0  0  0  0
 26 83  1  0  0  0  0
 27 30  2  0  0  0  0
 27 82  1  0  0  0  0
 28 84  1  0  0  0  0
 29 31  1  0  0  0  0
 29 85  1  0  0  0  0
 30 86  1  0  0  0  0
 31 87  1  0  0  0  0
 32 64  2  0  0  0  0
 33 65  1  0  0  0  0
 33 68  1  0  0  0  0
 34 71  1  0  0  0  0
 34 75  2  0  0  0  0
 35 69  1  0  0  0  0
 35 76  2  0  0  0  0
 36 51  1  0  0  0  0
 36 72  1  0  0  0  0
 36 77  2  0  0  0  0
 37 59  1  0  0  0  0
 37 60  1  0  0  0  0
 37 78  2  0  0  0  0
 38 61  1  0  0  0  0
 38 66  1  0  0  0  0
 38 79  2  0  0  0  0
 39 62  1  0  0  0  0
 39 73  1  0  0  0  0
 39 80  2  0  0  0  0
 40 67  1  0  0  0  0
 40 70  1  0  0  0  0
 40 81  2  0  0  0  0
 41 44  1  0  0  0  0
 42 51  1  0  0  0  0
 43 66  1  0  0  0  0
 44 46  1  0  0  0  0
 45 47  1  0  0  0  0
 45 48  1  0  0  0  0
 46 50  1  0  0  0  0
 47 52  1  0  0  0  0
 48 67  1  0  0  0  0
 49 52  1  0  0  0  0
 49 67  1  0  0  0  0
 50 72  1  0  0  0  0
 51 66  1  0  0  0  0
 52 65  1  0  0  0  0
 53 60  1  0  0  0  0
 54 62  1  0  0  0  0
 55 63  1  0  0  0  0
 56 63  1  0  0  0  0
 57 63  1  0  0  0  0
 58 74  1  0  0  0  0
 59 83  1  0  0  0  0
 60 71  1  0  0  0  0
 61 63  1  0  0  0  0
 61 73  1  0  0  0  0
 62 74  1  0  0  0  0
 64 65  1  0  0  0  0
M  CHG  1  74   1
M  ISO  4  40 100  59 101  70 100  83 101
M  END
> <Batch ID>
0171

> <Smiles>
CNC(C)C(=O)NC(C(=O)N1Cc2cc([101O:1][101CH2:1]C(=O)C(C)NC(=O)c3cc([100NH:0][100C:0](=O)N4CCCC(n5nc(-c6ccc(Oc7ccc(F)cc7F)cc6)c(C(N)=O)c5N)C4)cc(F)c3F)ccc2CC1C(=O)NC1CCCc2ccccc21)C(C)(C)C

> <Shape>
0.206

> <Color>
0.078

> <Negative vol penalty>
0.000

$$$$

  -OEChem-04052304233D

 85 93  0     1  0  0  0  0  0999 V2000
  -18.0641  -26.5203   25.9412 C   0  0  0  0  0  0  0  0  0  0  0  0
  -19.1282  -26.0484   25.1794 C   0  0  0  0  0  0  0  0  0  0  0  0
  -22.8128  -10.1191   20.1049 C   0  0  0  0  0  0  0  0  0  0  0  0
  -23.6045  -10.1326   22.3875 C   0  0  0  0  0  0  0  0  0  0  0  0
  -17.3894  -27.6771   25.5531 C   0  0  0  0  0  0  0  0  0  0  0  0
  -19.5175  -26.7324   24.0283 C   0  0  0  0  0  0  0  0  0  0  0  0
  -24.5424  -27.2620   23.6889 C   0  0  0  0  0  0  0  0  0  0  0  0
  -28.8839  -19.3283   24.0913 C   0  0  0  0  0  0  0  0  0  0  0  0
  -21.9797   -9.0401   20.4002 C   0  0  0  0  0  0  0  0  0  0  0  0
  -22.7713   -9.0536   22.6828 C   0  0  0  0  0  0  0  0  0  0  0  0
  -25.2726  -26.1517   23.2673 C   0  0  0  0  0  0  0  0  0  0  0  0
  -22.7776   -5.7035   22.2271 C   0  0  0  0  0  0  0  0  0  0  0  0
  -23.3165   -4.6528   22.9695 C   0  0  0  0  0  0  0  0  0  0  0  0
  -29.3746  -18.1689   24.6917 C   0  0  0  0  0  0  0  0  0  0  0  0
  -25.3956  -27.0836   21.0457 C   0  0  0  0  0  0  0  0  0  0  0  0
  -21.6608   -5.0194   24.6903 C   0  0  0  0  0  0  0  0  0  0  0  0
  -23.6252  -10.6653   21.0985 C   0  0  0  0  0  0  0  0  0  0  0  0
  -24.1734  -13.1484   20.8947 C   0  0  0  0  0  0  0  0  0  0  0  0
  -17.7768  -28.3810   24.4020 C   0  0  0  0  0  0  0  0  0  0  0  0
  -24.2234  -28.2880   22.7878 C   0  0  0  0  0  0  0  0  0  0  0  0
  -18.8464  -27.8989   23.6237 C   0  0  0  0  0  0  0  0  0  0  0  0
  -24.6634  -28.2071   21.4589 C   0  0  0  0  0  0  0  0  0  0  0  0
  -30.3505  -17.4923   22.5877 C   0  0  0  0  0  0  0  0  0  0  0  0
  -29.1265  -19.5697   22.7390 C   0  0  0  0  0  0  0  0  0  0  0  0
  -21.9589   -8.5073   21.6891 C   0  0  0  0  0  0  0  0  0  0  0  0
  -25.6969  -26.0609   21.9449 C   0  0  0  0  0  0  0  0  0  0  0  0
  -21.6803   -6.4122   22.7163 C   0  0  0  0  0  0  0  0  0  0  0  0
  -22.7581   -4.3107   24.2011 C   0  0  0  0  0  0  0  0  0  0  0  0
  -21.1219   -6.0701   23.9479 C   0  0  0  0  0  0  0  0  0  0  0  0
  -29.8598  -18.6517   21.9872 C   0  0  0  0  0  0  0  0  0  0  0  0
  -30.1079  -17.2509   23.9400 C   0  0  0  0  0  0  0  0  0  0  0  0
  -24.4865  -11.7796   20.7940 C   0  0  0  0  0  0  0  0  0  0  0  0
  -25.3184  -13.7929   20.4947 C   0  0  0  0  0  0  0  0  0  0  0  0
  -22.9564  -13.7808   21.3126 C   0  0  0  0  0  0  0  0  0  0  0  0
  -21.5204  -29.5157   21.6518 C   0  0  0  0  0  0  0  0  0  0  0  0
  -27.5035  -22.8471   21.8985 C   0  0  0  0  0  0  0  0  0  0  0  0
  -23.5282  -31.6653   20.2841 C   0  0  0  0  0  0  0  0  0  0  0  0
  -26.6660  -32.3864   19.1522 C   0  0  0  0  0  0  0  0  0  0  0  0
  -30.8699  -14.3568   20.5838 C   0  0  0  0  0  0  0  0  0  0  0  0
  -16.9869  -29.6001   23.9964 C   0  0  0  0  0  0  0  0  0  0  0  0
  -23.4579  -29.4918   23.2647 C   0  0  0  0  0  0  0  0  0  0  0  0
  -24.3645  -29.2913   20.4571 C   0  0  0  0  0  0  0  0  0  0  0  0
  -17.7013  -30.4749   22.9695 C   0  0  0  0  0  0  0  0  0  0  0  0
  -29.5034  -12.0038   18.2875 C   0  0  0  0  0  0  0  0  0  0  0  0
  -18.2748  -29.6182   21.8452 C   0  0  0  0  0  0  0  0  0  0  0  0
  -28.0531  -11.8442   18.7470 C   0  0  0  0  0  0  0  0  0  0  0  0
  -30.4534  -12.1839   19.4696 C   0  0  0  0  0  0  0  0  0  0  0  0
  -28.6395  -13.1127   20.8555 C   0  0  0  0  0  0  0  0  0  0  0  0
  -19.3143  -28.6269   22.3822 C   0  0  1  0  0  0  0  0  0  0  0  0
  -22.7480  -30.2339   22.1366 C   0  0  1  0  0  0  0  0  0  0  0  0
  -27.6369  -12.9842   19.6960 C   0  0  2  0  0  0  0  0  0  0  0  0
  -27.9923  -34.2103   18.0514 C   0  0  0  0  0  0  0  0  0  0  0  0
  -22.2122  -31.0059   17.6114 C   0  0  0  0  0  0  0  0  0  0  0  0
  -24.1534  -32.0959   16.4659 C   0  0  0  0  0  0  0  0  0  0  0  0
  -22.6829  -33.4356   17.9712 C   0  0  0  0  0  0  0  0  0  0  0  0
  -28.5165  -32.5884   21.4531 C   0  0  0  0  0  0  0  0  0  0  0  0
  -31.1321  -16.5310   21.7513 C   0  0  0  0  0  0  0  0  0  0  0  0
  -27.8718  -21.7239   22.8443 C   0  0  0  0  0  0  0  0  0  0  0  0
  -26.6864  -23.9719   22.5040 C   0  0  0  0  0  0  0  0  0  1  0  0
  -24.2754  -31.7478   18.9749 C   0  0  1  0  0  0  0  0  0  0  0  0
  -27.5644  -33.5901   19.3724 C   0  0  2  0  0  0  0  0  0  0  0  0
  -23.3351  -32.0498   17.7740 C   0  0  0  0  0  0  0  0  0  0  0  0
  -25.7327  -11.5660   20.3635 N   0  0  0  0  0  0  0  0  0  0  0  0
  -26.2128  -12.8092   20.1901 N   0  0  0  0  0  0  0  0  0  0  0  0
  -23.6077  -30.4452   20.9702 N   0  0  0  0  0  0  0  0  0  0  0  0
  -30.0031  -13.2812   20.3293 N   0  0  0  0  0  0  0  0  0  0  0  0
  -25.6374  -15.0994   20.3771 N   0  0  0  0  0  0  0  0  0  0  0  0
  -21.8777  -12.9698   21.6908 N   0  0  0  0  0  0  0  0  0  0  0  0
  -28.6370  -20.7239   22.1445 N   0  0  0  0  0  0  0  0  0  0  0  0
  -20.5714  -29.2988   22.6324 N   0  0  0  0  0  0  0  0  0  0  0  0
  -25.3320  -32.7348   19.1694 N   0  0  0  0  0  0  0  0  0  0  0  0
  -30.3624  -15.3575   21.4034 N   0  0  0  0  0  0  0  0  0  0  0  0
  -28.7887  -33.1922   20.1233 N   0  3  0  0  0  0  0  0  0  0  0  0
  -22.8238  -15.0280   21.3340 O   0  0  0  0  0  0  0  0  0  0  0  0
  -21.4397  -29.1843   20.4748 O   0  0  0  0  0  0  0  0  0  0  0  0
  -27.8391  -22.8572   20.7148 O   0  0  0  0  0  0  0  0  0  0  0  0
  -22.9032  -32.6496   20.6868 O   0  0  0  0  0  0  0  0  0  0  0  0
  -27.1040  -31.2513   18.9783 O   0  0  0  0  0  0  0  0  0  0  0  0
  -32.0097  -14.4231   20.1110 O   0  0  0  0  0  0  0  0  0  0  0  0
  -21.1459   -7.4546   21.9777 O   0  0  0  0  0  0  0  0  0  0  0  0
  -26.4092  -24.9780   21.5307 O   0  0  0  0  0  0  0  0  0  1  0  0
  -23.2748   -3.3007   24.9132 F   0  0  0  0  0  0  0  0  0  0  0  0
  -20.0669   -6.7466   24.4225 F   0  0  0  0  0  0  0  0  0  0  0  0
  -30.0930  -18.8840   20.6865 F   0  0  0  0  0  0  0  0  0  0  0  0
  -30.6988  -15.8278   24.7178 Cl  0  0  0  0  0  0  0  0  0  0  0  0
  1  2  1  0  0  0  0
  1  5  2  0  0  0  0
  2  6  2  0  0  0  0
  3  9  2  0  0  0  0
  3 17  1  0  0  0  0
  4 10  1  0  0  0  0
  4 17  2  0  0  0  0
  5 19  1  0  0  0  0
  6 21  1  0  0  0  0
  7 11  2  0  0  0  0
  7 20  1  0  0  0  0
  8 14  2  0  0  0  0
  8 24  1  0  0  0  0
  9 25  1  0  0  0  0
 10 25  2  0  0  0  0
 11 26  1  0  0  0  0
 12 13  2  0  0  0  0
 12 27  1  0  0  0  0
 13 28  1  0  0  0  0
 14 31  1  0  0  0  0
 15 22  1  0  0  0  0
 15 26  2  0  0  0  0
 16 28  2  0  0  0  0
 16 29  1  0  0  0  0
 17 32  1  0  0  0  0
 18 32  1  0  0  0  0
 18 33  2  0  0  0  0
 18 34  1  0  0  0  0
 19 21  2  0  0  0  0
 19 40  1  0  0  0  0
 20 22  2  0  0  0  0
 20 41  1  0  0  0  0
 21 49  1  0  0  0  0
 22 42  1  0  0  0  0
 23 30  1  0  0  0  0
 23 31  2  0  0  0  0
 23 57  1  0  0  0  0
 24 30  2  0  0  0  0
 24 69  1  0  0  0  0
 25 80  1  0  0  0  0
 26 81  1  0  0  0  0
 27 29  2  0  0  0  0
 27 80  1  0  0  0  0
 28 82  1  0  0  0  0
 29 83  1  0  0  0  0
 30 84  1  0  0  0  0
 31 85  1  0  0  0  0
 32 63  2  0  0  0  0
 33 64  1  0  0  0  0
 33 67  1  0  0  0  0
 34 68  1  0  0  0  0
 34 74  2  0  0  0  0
 35 50  1  0  0  0  0
 35 70  1  0  0  0  0
 35 75  2  0  0  0  0
 36 58  1  0  0  0  0
 36 59  1  0  0  0  0
 36 76  2  0  0  0  0
 37 60  1  0  0  0  0
 37 65  1  0  0  0  0
 37 77  2  0  0  0  0
 38 61  1  0  0  0  0
 38 71  1  0  0  0  0
 38 78  2  0  0  0  0
 39 66  1  0  0  0  0
 39 72  1  0  0  0  0
 39 79  2  0  0  0  0
 40 43  1  0  0  0  0
 41 50  1  0  0  0  0
 42 65  1  0  0  0  0
 43 45  1  0  0  0  0
 44 46  1  0  0  0  0
 44 47  1  0  0  0  0
 45 49  1  0  0  0  0
 46 51  1  0  0  0  0
 47 66  1  0  0  0  0
 48 51  1  0  0  0  0
 48 66  1  0  0  0  0
 49 70  1  0  0  0  0
 50 65  1  0  0  0  0
 51 64  1  0  0  0  0
 52 61  1  0  0  0  0
 53 62  1  0  0  0  0
 54 62  1  0  0  0  0
 55 62  1  0  0  0  0
 56 73  1  0  0  0  0
 57 72  1  0  0  0  0
 58 69  1  0  0  0  0
 59 81  1  0  0  0  0
 60 62  1  0  0  0  0
 60 71  1  0  0  0  0
 61 73  1  0  0  0  0
 63 64  1  0  0  0  0
M  CHG  1  73   1
M  ISO  4  39 100  59 101  72 100  81 101
M  END
> <Batch ID>
0171

> <Smiles>
CNC(C)C(=O)NC(C(=O)N1Cc2cc([101O:1][101CH2:1]C(=O)CNc3ccc(Cl)c(C[100NH:0][100C:0](=O)N4CCCC(n5nc(-c6ccc(Oc7ccc(F)cc7F)cc6)c(C(N)=O)c5N)C4)c3F)ccc2CC1C(=O)NC1CCCc2ccccc21)C(C)(C)C

> <Shape>
0.301

> <Color>
0.220

> <Negative vol penalty>
0.000

$$$$

  -OEChem-04052304233D

 85 93  0     1  0  0  0  0  0999 V2000
  -29.6210  -35.8080   20.9022 C   0  0  0  0  0  0  0  0  0  0  0  0
  -29.6587  -34.4186   20.9616 C   0  0  0  0  0  0  0  0  0  0  0  0
  -24.8559   -8.7200   21.0551 C   0  0  0  0  0  0  0  0  0  0  0  0
  -23.1610  -10.0613   19.9757 C   0  0  0  0  0  0  0  0  0  0  0  0
  -28.6193  -36.5064   21.5751 C   0  0  0  0  0  0  0  0  0  0  0  0
  -28.6953  -33.7268   21.6950 C   0  0  0  0  0  0  0  0  0  0  0  0
  -26.8662  -29.7159   19.2025 C   0  0  0  0  0  0  0  0  0  0  0  0
  -27.6012  -20.1581   15.6734 C   0  0  0  0  0  0  0  0  0  0  0  0
  -23.8783   -7.8121   21.4621 C   0  0  0  0  0  0  0  0  0  0  0  0
  -22.1834   -9.1534   20.3825 C   0  0  0  0  0  0  0  0  0  0  0  0
  -27.6579  -28.5687   19.1740 C   0  0  0  0  0  0  0  0  0  0  0  0
  -21.5307   -7.5996   23.8845 C   0  0  0  0  0  0  0  0  0  0  0  0
  -27.6372  -18.8242   15.2672 C   0  0  0  0  0  0  0  0  0  0  0  0
  -21.5767   -7.1464   25.2028 C   0  0  0  0  0  0  0  0  0  0  0  0
  -26.3251  -27.6123   20.9426 C   0  0  0  0  0  0  0  0  0  0  0  0
  -27.7263  -19.4584   17.9825 C   0  0  0  0  0  0  0  0  0  0  0  0
  -21.8273   -4.8767   24.4138 C   0  0  0  0  0  0  0  0  0  0  0  0
  -24.4973   -9.8447   20.3120 C   0  0  0  0  0  0  0  0  0  0  0  0
  -26.2472  -10.7560   18.6949 C   0  0  0  0  0  0  0  0  0  0  0  0
  -27.6375  -35.8223   22.3091 C   0  0  0  0  0  0  0  0  0  0  0  0
  -25.8029  -29.8246   20.1103 C   0  0  0  0  0  0  0  0  0  0  0  0
  -27.6803  -34.4168   22.3794 C   0  0  0  0  0  0  0  0  0  0  0  0
  -25.5198  -28.7609   20.9788 C   0  0  0  0  0  0  0  0  0  0  0  0
  -27.6458  -20.4752   17.0311 C   0  0  0  0  0  0  0  0  0  0  0  0
  -27.7623  -18.1245   17.5763 C   0  0  0  0  0  0  0  0  0  0  0  0
  -22.5421   -8.0288   21.1257 C   0  0  0  0  0  0  0  0  0  0  0  0
  -27.3892  -27.5178   20.0460 C   0  0  0  0  0  0  0  0  0  0  0  0
  -21.6329   -6.6913   22.8307 C   0  0  0  0  0  0  0  0  0  0  0  0
  -21.7251   -5.7850   25.4675 C   0  0  0  0  0  0  0  0  0  0  0  0
  -27.7178  -17.8074   16.2187 C   0  0  0  0  0  0  0  0  0  0  0  0
  -21.7813   -5.3299   23.0954 C   0  0  0  0  0  0  0  0  0  0  0  0
  -25.5066  -10.7832   19.8918 C   0  0  0  0  0  0  0  0  0  0  0  0
  -27.0665  -11.8557   18.7730 C   0  0  0  0  0  0  0  0  0  0  0  0
  -26.1988   -9.8205   17.6095 C   0  0  0  0  0  0  0  0  0  0  0  0
  -27.5923  -23.8006   18.7908 C   0  0  0  0  0  0  0  0  0  0  0  0
  -27.6525  -22.3014   18.7363 C   0  0  0  0  0  0  0  0  0  0  0  0
  -25.1031  -31.7729   22.5223 C   0  0  0  0  0  0  0  0  0  0  0  0
  -22.3007  -30.1391   22.5172 C   0  0  0  0  0  0  0  0  0  0  0  0
  -20.6152  -27.2804   21.7211 C   0  0  0  0  0  0  0  0  0  0  0  0
  -27.8974  -17.2383   19.9306 C   0  0  0  0  0  0  0  0  0  0  0  0
  -26.6022  -36.6229   23.0587 C   0  0  0  0  0  0  0  0  0  0  0  0
  -24.9418  -31.0578   20.1101 C   0  0  0  0  0  0  0  0  0  0  0  0
  -24.3773  -28.8196   21.9585 C   0  0  0  0  0  0  0  0  0  0  0  0
  -25.3993  -35.7962   23.5058 C   0  0  0  0  0  0  0  0  0  0  0  0
  -28.0665  -14.9493   22.6526 C   0  0  0  0  0  0  0  0  0  0  0  0
  -25.8576  -34.4893   24.1452 C   0  0  0  0  0  0  0  0  0  0  0  0
  -27.4765  -13.6592   22.0786 C   0  0  0  0  0  0  0  0  0  0  0  0
  -27.3516  -16.1880   22.1155 C   0  0  0  0  0  0  0  0  0  0  0  0
  -26.6761  -14.9795   20.0778 C   0  0  0  0  0  0  0  0  0  0  0  0
  -26.6385  -33.6294   23.1441 C   0  0  1  0  0  0  0  0  0  0  0  0
  -24.2037  -31.2713   21.4281 C   0  0  1  0  0  0  0  0  0  0  0  0
  -27.4060  -13.7076   20.5396 C   0  0  2  0  0  0  0  0  0  0  0  0
  -18.3434  -26.2254   21.8746 C   0  0  0  0  0  0  0  0  0  0  0  0
  -22.7558  -29.5968   25.4851 C   0  0  0  0  0  0  0  0  0  0  0  0
  -21.0180  -27.7993   25.3518 C   0  0  0  0  0  0  0  0  0  0  0  0
  -20.3980  -30.1688   24.8787 C   0  0  0  0  0  0  0  0  0  0  0  0
  -20.3903  -27.0615   18.7782 C   0  0  0  0  0  0  0  0  0  0  0  0
  -28.9151  -24.5295   18.7030 C   0  0  0  0  0  0  0  0  0  0  0  0
  -28.7464  -26.0399   18.7694 C   0  0  0  0  0  0  0  0  0  1  0  0
  -21.7889  -28.8922   23.1972 C   0  0  1  0  0  0  0  0  0  0  0  0
  -19.2879  -27.0559   21.0195 C   0  0  2  0  0  0  0  0  0  0  0  0
  -21.5130  -29.1137   24.7112 C   0  0  0  0  0  0  0  0  0  0  0  0
  -25.8272  -11.8180   20.6732 N   0  0  0  0  0  0  0  0  0  0  0  0
  -26.7783  -12.4512   19.9657 N   0  0  0  0  0  0  0  0  0  0  0  0
  -23.5681  -30.0491   21.9244 N   0  0  0  0  0  0  0  0  0  0  0  0
  -27.3272  -16.1677   20.6514 N   0  0  0  0  0  0  0  0  0  0  0  0
  -27.9981  -12.3615   17.9373 N   0  0  0  0  0  0  0  0  0  0  0  0
  -25.2997   -8.7485   17.6910 N   0  0  0  0  0  0  0  0  0  0  0  0
  -27.6092  -21.8279   17.4427 N   0  0  0  0  0  0  0  0  0  0  0  0
  -27.8445  -17.0933   18.5447 N   0  0  0  0  0  0  0  0  0  0  0  0
  -25.7316  -32.9684   22.2303 N   0  0  0  0  0  0  0  0  0  0  0  0
  -20.6228  -28.4606   22.4342 N   0  0  0  0  0  0  0  0  0  0  0  0
  -19.4990  -26.3453   19.7267 N   0  3  0  0  0  0  0  0  0  0  0  0
  -26.9429   -9.9227   16.6048 O   0  0  0  0  0  0  0  0  0  0  0  0
  -26.4876  -24.3130   18.8896 O   0  0  0  0  0  0  0  0  0  0  0  0
  -27.7548  -21.7197   19.8035 O   0  0  0  0  0  0  0  0  0  0  0  0
  -25.2171  -31.1241   23.5556 O   0  0  0  0  0  0  0  0  0  0  0  0
  -21.5987  -31.1533   22.5060 O   0  0  0  0  0  0  0  0  0  0  0  0
  -21.5504  -26.4864   21.6472 O   0  0  0  0  0  0  0  0  0  0  0  0
  -28.4203  -18.1991   20.5011 O   0  0  0  0  0  0  0  0  0  0  0  0
  -21.5879   -7.1429   21.5224 O   0  0  0  0  0  0  0  0  0  0  0  0
  -28.1608  -26.3972   20.0207 O   0  0  0  0  0  0  0  0  0  1  0  0
  -21.7708   -5.3501   26.7336 F   0  0  0  0  0  0  0  0  0  0  0  0
  -27.7514  -16.5291   15.8165 F   0  0  0  0  0  0  0  0  0  0  0  0
  -21.8812   -4.4527   22.0873 F   0  0  0  0  0  0  0  0  0  0  0  0
  1  2  1  0  0  0  0
  1  5  2  0  0  0  0
  2  6  2  0  0  0  0
  3  9  2  0  0  0  0
  3 18  1  0  0  0  0
  4 10  1  0  0  0  0
  4 18  2  0  0  0  0
  5 20  1  0  0  0  0
  6 22  1  0  0  0  0
  7 11  2  0  0  0  0
  7 21  1  0  0  0  0
  8 13  2  0  0  0  0
  8 24  1  0  0  0  0
  9 26  1  0  0  0  0
 10 26  2  0  0  0  0
 11 27  1  0  0  0  0
 12 14  2  0  0  0  0
 12 28  1  0  0  0  0
 13 30  1  0  0  0  0
 14 29  1  0  0  0  0
 15 23  1  0  0  0  0
 15 27  2  0  0  0  0
 16 24  2  0  0  0  0
 16 25  1  0  0  0  0
 17 29  2  0  0  0  0
 17 31  1  0  0  0  0
 18 32  1  0  0  0  0
 19 32  1  0  0  0  0
 19 33  2  0  0  0  0
 19 34  1  0  0  0  0
 20 22  2  0  0  0  0
 20 41  1  0  0  0  0
 21 23  2  0  0  0  0
 21 42  1  0  0  0  0
 22 50  1  0  0  0  0
 23 43  1  0  0  0  0
 24 69  1  0  0  0  0
 25 30  2  0  0  0  0
 25 70  1  0  0  0  0
 26 81  1  0  0  0  0
 27 82  1  0  0  0  0
 28 31  2  0  0  0  0
 28 81  1  0  0  0  0
 29 83  1  0  0  0  0
 30 84  1  0  0  0  0
 31 85  1  0  0  0  0
 32 63  2  0  0  0  0
 33 64  1  0  0  0  0
 33 67  1  0  0  0  0
 34 68  1  0  0  0  0
 34 74  2  0  0  0  0
 35 36  1  0  0  0  0
 35 58  1  0  0  0  0
 35 75  2  0  0  0  0
 36 69  1  0  0  0  0
 36 76  2  0  0  0  0
 37 51  1  0  0  0  0
 37 71  1  0  0  0  0
 37 77  2  0  0  0  0
 38 60  1  0  0  0  0
 38 65  1  0  0  0  0
 38 78  2  0  0  0  0
 39 61  1  0  0  0  0
 39 72  1  0  0  0  0
 39 79  2  0  0  0  0
 40 66  1  0  0  0  0
 40 70  1  0  0  0  0
 40 80  2  0  0  0  0
 41 44  1  0  0  0  0
 42 51  1  0  0  0  0
 43 65  1  0  0  0  0
 44 46  1  0  0  0  0
 45 47  1  0  0  0  0
 45 48  1  0  0  0  0
 46 50  1  0  0  0  0
 47 52  1  0  0  0  0
 48 66  1  0  0  0  0
 49 52  1  0  0  0  0
 49 66  1  0  0  0  0
 50 71  1  0  0  0  0
 51 65  1  0  0  0  0
 52 64  1  0  0  0  0
 53 61  1  0  0  0  0
 54 62  1  0  0  0  0
 55 62  1  0  0  0  0
 56 62  1  0  0  0  0
 57 73  1  0  0  0  0
 58 59  1  0  0  0  0
 59 82  1  0  0  0  0
 60 62  1  0  0  0  0
 60 72  1  0  0  0  0
 61 73  1  0  0  0  0
 63 64  1  0  0  0  0
M  CHG  1  73   1
M  ISO  4  40 100  59 101  70 100  82 101
M  END
> <Batch ID>
0171

> <Smiles>
CNC(C)C(=O)NC(C(=O)N1Cc2cc([101O:1][101CH2:1]CC(=O)C(=O)Nc3ccc(F)c([100NH:0][100C:0](=O)N4CCCC(n5nc(-c6ccc(Oc7ccc(F)cc7F)cc6)c(C(N)=O)c5N)C4)c3)ccc2CC1C(=O)NC1CCCc2ccccc21)C(C)(C)C

> <Shape>
0.310

> <Color>
0.109

> <Negative vol penalty>
0.000

$$$$

  -OEChem-04052304233D

 86 95  0     1  0  0  0  0  0999 V2000
  -25.9123  -22.3576   15.9444 C   0  0  0  0  0  0  0  0  0  0  0  0
  -25.1146  -23.0178   16.8734 C   0  0  0  0  0  0  0  0  0  0  0  0
  -26.2944  -14.0191   20.2561 C   0  0  0  0  0  0  0  0  0  0  0  0
  -23.9395  -14.0937   20.7908 C   0  0  0  0  0  0  0  0  0  0  0  0
  -27.2878  -22.2621   16.1512 C   0  0  0  0  0  0  0  0  0  0  0  0
  -25.6919  -23.5820   18.0105 C   0  0  0  0  0  0  0  0  0  0  0  0
  -20.4619  -24.7676   23.9624 C   0  0  0  0  0  0  0  0  0  0  0  0
  -23.9474  -28.2388   18.9679 C   0  0  0  0  0  0  0  0  0  0  0  0
  -21.2925  -23.6935   24.2817 C   0  0  0  0  0  0  0  0  0  0  0  0
  -26.1717  -12.6753   19.9030 C   0  0  0  0  0  0  0  0  0  0  0  0
  -23.8168  -12.7498   20.4378 C   0  0  0  0  0  0  0  0  0  0  0  0
  -22.6915  -28.3379   19.5652 C   0  0  0  0  0  0  0  0  0  0  0  0
  -24.4939   -9.7392   21.8192 C   0  0  0  0  0  0  0  0  0  0  0  0
  -23.7665   -8.9089   22.6719 C   0  0  0  0  0  0  0  0  0  0  0  0
  -23.7444  -28.6928   21.7064 C   0  0  0  0  0  0  0  0  0  0  0  0
  -22.0854  -23.6284   22.0004 C   0  0  0  0  0  0  0  0  0  0  0  0
  -22.2294   -8.4109   20.8757 C   0  0  0  0  0  0  0  0  0  0  0  0
  -25.1783  -14.7283   20.7000 C   0  0  0  0  0  0  0  0  0  0  0  0
  -25.7265  -17.1772   20.2418 C   0  0  0  0  0  0  0  0  0  0  0  0
  -27.8836  -22.8338   17.2865 C   0  0  0  0  0  0  0  0  0  0  0  0
  -25.1132  -28.3552   19.7385 C   0  0  0  0  0  0  0  0  0  0  0  0
  -27.0765  -23.4929   18.2333 C   0  0  0  0  0  0  0  0  0  0  0  0
  -20.4430  -25.2721   22.6621 C   0  0  0  0  0  0  0  0  0  0  0  0
  -25.0139  -28.5973   21.1161 C   0  0  0  0  0  0  0  0  0  0  0  0
  -22.1042  -23.1239   23.3008 C   0  0  0  0  0  0  0  0  0  0  0  0
  -24.9329  -12.0406   19.9939 C   0  0  0  0  0  0  0  0  0  0  0  0
  -22.5899  -28.5621   20.9350 C   0  0  0  0  0  0  0  0  0  0  0  0
  -24.0891   -9.9054   20.4947 C   0  0  0  0  0  0  0  0  0  0  0  0
  -22.6343   -8.2448   22.2002 C   0  0  0  0  0  0  0  0  0  0  0  0
  -21.2547  -24.7026   21.6811 C   0  0  0  0  0  0  0  0  0  0  0  0
  -22.9568   -9.2412   20.0230 C   0  0  0  0  0  0  0  0  0  0  0  0
  -25.3045  -16.1164   21.0654 C   0  0  0  0  0  0  0  0  0  0  0  0
  -25.6735  -18.2840   21.0534 C   0  0  0  0  0  0  0  0  0  0  0  0
  -18.8332  -28.8491   22.8730 C   0  0  0  0  0  0  0  0  0  0  0  0
  -26.1302  -17.1634   18.8661 C   0  0  0  0  0  0  0  0  0  0  0  0
  -27.5578  -26.4383   20.4119 C   0  0  0  0  0  0  0  0  0  0  0  0
  -28.7321  -29.0901   21.8649 C   0  0  0  0  0  0  0  0  0  0  0  0
  -27.4441  -31.7421   23.9446 C   0  0  0  0  0  0  0  0  0  0  0  0
  -23.0840  -21.4095   24.8651 C   0  0  0  0  0  0  0  0  0  0  0  0
  -29.3682  -22.6639   17.4906 C   0  0  0  0  0  0  0  0  0  0  0  0
  -26.4604  -28.2725   19.0748 C   0  0  0  0  0  0  0  0  0  0  0  0
  -26.2350  -28.7499   21.9845 C   0  0  0  0  0  0  0  0  0  0  0  0
  -29.9523  -23.6136   18.5333 C   0  0  0  0  0  0  0  0  0  0  0  0
  -25.0211  -18.6706   26.0581 C   0  0  0  0  0  0  0  0  0  0  0  0
  -29.0809  -23.6331   19.7852 C   0  0  0  0  0  0  0  0  0  0  0  0
  -25.3023  -17.8492   24.7978 C   0  0  0  0  0  0  0  0  0  0  0  0
  -18.0673  -26.0527   22.5154 C   0  0  0  0  0  0  0  0  0  0  0  0
  -23.6223  -19.2842   26.0348 C   0  0  0  0  0  0  0  0  0  0  0  0
  -17.1704  -27.1666   22.0143 C   0  0  0  0  0  0  0  0  0  0  0  0
  -23.5881  -19.2441   23.5718 C   0  0  0  0  0  0  0  0  0  0  0  0
  -19.5374  -26.4445   22.3188 C   0  0  1  0  0  0  0  0  0  0  0  0
  -27.6689  -24.1393   19.4667 C   0  0  1  0  0  0  0  0  0  0  0  0
  -19.8385  -27.7217   23.1348 C   0  0  1  0  0  0  0  0  0  0  0  0
  -27.5797  -27.8939   20.0399 C   0  0  1  0  0  0  0  0  0  0  0  0
  -25.0091  -18.6596   23.5199 C   0  0  2  0  0  0  0  0  0  0  0  0
  -28.2342  -34.1039   24.2527 C   0  0  0  0  0  0  0  0  0  0  0  0
  -30.2879  -27.9542   24.2312 C   0  0  0  0  0  0  0  0  0  0  0  0
  -29.7581  -30.0492   25.4956 C   0  0  0  0  0  0  0  0  0  0  0  0
  -31.1135  -30.1655   23.4046 C   0  0  0  0  0  0  0  0  0  0  0  0
  -24.7869  -32.8446   23.2498 C   0  0  0  0  0  0  0  0  0  0  0  0
  -21.2603  -28.2373   22.8799 C   0  0  0  0  0  0  0  0  0  1  0  0
  -28.6369  -29.6804   23.2511 C   0  0  1  0  0  0  0  0  0  0  0  0
  -27.2424  -33.1930   23.5462 C   0  0  2  0  0  0  0  0  0  0  0  0
  -29.9282  -29.4463   24.0848 C   0  0  0  0  0  0  0  0  0  0  0  0
  -25.0057  -16.5135   22.3052 N   0  0  0  0  0  0  0  0  0  0  0  0
  -25.2402  -17.8362   22.2666 N   0  0  0  0  0  0  0  0  0  0  0  0
  -17.5651  -28.4778   22.4860 N   0  0  0  0  0  0  0  0  0  0  0  0
  -27.5296  -28.6549   21.2899 N   0  0  0  0  0  0  0  0  0  0  0  0
  -23.4178  -20.0403   24.7974 N   0  0  0  0  0  0  0  0  0  0  0  0
  -25.9557  -19.5869   20.8405 N   0  0  0  0  0  0  0  0  0  0  0  0
  -25.1518  -17.3537   17.8808 N   0  0  0  0  0  0  0  0  0  0  0  0
  -22.9465  -22.0315   23.6246 N   0  0  0  0  0  0  0  0  0  0  0  0
  -27.6667  -25.5805   19.3340 N   0  0  0  0  0  0  0  0  0  0  0  0
  -28.2871  -31.0856   23.0732 N   0  0  0  0  0  0  0  0  0  0  0  0
  -25.8638  -33.6390   23.8948 N   0  3  0  0  0  0  0  0  0  0  0  0
  -19.1166  -30.0300   23.0869 O   0  0  0  0  0  0  0  0  0  0  0  0
  -27.3206  -16.9713   18.5203 O   0  0  0  0  0  0  0  0  0  0  0  0
  -27.4514  -26.1172   21.5897 O   0  0  0  0  0  0  0  0  0  0  0  0
  -29.8317  -29.0243   21.3098 O   0  0  0  0  0  0  0  0  0  0  0  0
  -26.9103  -31.2422   24.9324 O   0  0  0  0  0  0  0  0  0  0  0  0
  -22.9579  -21.9941   25.9441 O   0  0  0  0  0  0  0  0  0  0  0  0
  -24.8128  -10.7294   19.6492 O   0  0  0  0  0  0  0  0  0  0  0  0
  -21.3653  -28.6586   21.5206 O   0  0  0  0  0  0  0  0  0  1  0  0
  -21.9367   -7.4463   23.0187 F   0  0  0  0  0  0  0  0  0  0  0  0
  -21.2435  -25.1805   20.4290 F   0  0  0  0  0  0  0  0  0  0  0  0
  -22.5637   -9.3960   18.7513 F   0  0  0  0  0  0  0  0  0  0  0  0
  1  2  1  0  0  0  0
  1  5  2  0  0  0  0
  2  6  2  0  0  0  0
  3 10  2  0  0  0  0
  3 18  1  0  0  0  0
  4 11  1  0  0  0  0
  4 18  2  0  0  0  0
  5 20  1  0  0  0  0
  6 22  1  0  0  0  0
  7  9  2  0  0  0  0
  7 23  1  0  0  0  0
  8 12  2  0  0  0  0
  8 21  1  0  0  0  0
  9 25  1  0  0  0  0
 10 26  1  0  0  0  0
 11 26  2  0  0  0  0
 12 27  1  0  0  0  0
 13 14  2  0  0  0  0
 13 28  1  0  0  0  0
 14 29  1  0  0  0  0
 15 24  1  0  0  0  0
 15 27  2  0  0  0  0
 16 25  2  0  0  0  0
 16 30  1  0  0  0  0
 17 29  2  0  0  0  0
 17 31  1  0  0  0  0
 18 32  1  0  0  0  0
 19 32  1  0  0  0  0
 19 33  2  0  0  0  0
 19 35  1  0  0  0  0
 20 22  2  0  0  0  0
 20 40  1  0  0  0  0
 21 24  2  0  0  0  0
 21 41  1  0  0  0  0
 22 52  1  0  0  0  0
 23 30  2  0  0  0  0
 23 51  1  0  0  0  0
 24 42  1  0  0  0  0
 25 72  1  0  0  0  0
 26 82  1  0  0  0  0
 27 83  1  0  0  0  0
 28 31  2  0  0  0  0
 28 82  1  0  0  0  0
 29 84  1  0  0  0  0
 30 85  1  0  0  0  0
 31 86  1  0  0  0  0
 32 65  2  0  0  0  0
 33 66  1  0  0  0  0
 33 70  1  0  0  0  0
 34 53  1  0  0  0  0
 34 67  1  0  0  0  0
 34 76  2  0  0  0  0
 35 71  1  0  0  0  0
 35 77  2  0  0  0  0
 36 54  1  0  0  0  0
 36 73  1  0  0  0  0
 36 78  2  0  0  0  0
 37 62  1  0  0  0  0
 37 68  1  0  0  0  0
 37 79  2  0  0  0  0
 38 63  1  0  0  0  0
 38 74  1  0  0  0  0
 38 80  2  0  0  0  0
 39 69  1  0  0  0  0
 39 72  1  0  0  0  0
 39 81  2  0  0  0  0
 40 43  1  0  0  0  0
 41 54  1  0  0  0  0
 42 68  1  0  0  0  0
 43 45  1  0  0  0  0
 44 46  1  0  0  0  0
 44 48  1  0  0  0  0
 45 52  1  0  0  0  0
 46 55  1  0  0  0  0
 47 49  1  0  0  0  0
 47 51  1  0  0  0  0
 48 69  1  0  0  0  0
 49 67  1  0  0  0  0
 50 55  1  0  0  0  0
 50 69  1  0  0  0  0
 51 53  1  0  0  0  0
 52 73  1  0  0  0  0
 53 61  1  0  0  0  0
 54 68  1  0  0  0  0
 55 66  1  0  0  0  0
 56 63  1  0  0  0  0
 57 64  1  0  0  0  0
 58 64  1  0  0  0  0
 59 64  1  0  0  0  0
 60 75  1  0  0  0  0
 61 83  1  0  0  0  0
 62 64  1  0  0  0  0
 62 74  1  0  0  0  0
 63 75  1  0  0  0  0
 65 66  1  0  0  0  0
M  CHG  1  75   1
M  ISO  4  39 100  61 101  72 100  83 101
M  END
> <Batch ID>
0171

> <Smiles>
CNC(C)C(=O)NC(C(=O)N1Cc2cc([101O:1][101CH2:1]C3C(=O)NCCC3c3ccc([100NH:0][100C:0](=O)N4CCCC(n5nc(-c6ccc(Oc7ccc(F)cc7F)cc6)c(C(N)=O)c5N)C4)cc3F)ccc2CC1C(=O)NC1CCCc2ccccc21)C(C)(C)C

> <Shape>
0.256

> <Color>
0.066

> <Negative vol penalty>
0.000

$$$$

  -OEChem-04052304233D

 84 92  0     1  0  0  0  0  0999 V2000
  -20.2319  -23.5660   33.4738 C   0  0  0  0  0  0  0  0  0  0  0  0
  -21.1125  -23.1986   32.4614 C   0  0  0  0  0  0  0  0  0  0  0  0
  -23.2007   -9.8507   19.9524 C   0  0  0  0  0  0  0  0  0  0  0  0
  -23.9120   -9.9297   22.2600 C   0  0  0  0  0  0  0  0  0  0  0  0
  -19.6247  -22.5859   34.2577 C   0  0  0  0  0  0  0  0  0  0  0  0
  -21.3872  -21.8507   32.2330 C   0  0  0  0  0  0  0  0  0  0  0  0
  -21.3139  -20.6597   27.3115 C   0  0  0  0  0  0  0  0  0  0  0  0
  -22.5092   -8.6663   20.2060 C   0  0  0  0  0  0  0  0  0  0  0  0
  -23.2204   -8.7452   22.5136 C   0  0  0  0  0  0  0  0  0  0  0  0
  -22.4321  -21.0083   26.5554 C   0  0  0  0  0  0  0  0  0  0  0  0
  -20.0235   -7.7985   23.0648 C   0  0  0  0  0  0  0  0  0  0  0  0
  -19.2455   -7.7389   24.2210 C   0  0  0  0  0  0  0  0  0  0  0  0
  -23.2383  -18.7402   26.7131 C   0  0  0  0  0  0  0  0  0  0  0  0
  -30.0375  -17.5036   23.1671 C   0  0  0  0  0  0  0  0  0  0  0  0
  -32.1325  -17.5343   21.9643 C   0  0  0  0  0  0  0  0  0  0  0  0
  -30.8126  -19.5499   22.1429 C   0  0  0  0  0  0  0  0  0  0  0  0
  -20.5648   -5.8763   25.0128 C   0  0  0  0  0  0  0  0  0  0  0  0
  -23.9022  -10.4825   20.9793 C   0  0  0  0  0  0  0  0  0  0  0  0
  -24.1224  -13.0193   20.8256 C   0  0  0  0  0  0  0  0  0  0  0  0
  -19.8847  -21.2249   34.0326 C   0  0  0  0  0  0  0  0  0  0  0  0
  -21.1546  -19.3491   27.7842 C   0  0  0  0  0  0  0  0  0  0  0  0
  -20.7840  -20.8515   33.0156 C   0  0  0  0  0  0  0  0  0  0  0  0
  -22.1159  -18.3769   27.4729 C   0  0  0  0  0  0  0  0  0  0  0  0
  -31.1758  -16.8420   22.7066 C   0  0  0  0  0  0  0  0  0  0  0  0
  -29.8559  -18.8576   22.8852 C   0  0  0  0  0  0  0  0  0  0  0  0
  -22.5190   -8.1135   21.4866 C   0  0  0  0  0  0  0  0  0  0  0  0
  -23.3960  -20.0492   26.2585 C   0  0  0  0  0  0  0  0  0  0  0  0
  -21.0721   -6.8969   22.8826 C   0  0  0  0  0  0  0  0  0  0  0  0
  -19.5161   -6.7778   25.1950 C   0  0  0  0  0  0  0  0  0  0  0  0
  -31.9510  -18.8883   21.6825 C   0  0  0  0  0  0  0  0  0  0  0  0
  -21.3428   -5.9358   23.8566 C   0  0  0  0  0  0  0  0  0  0  0  0
  -24.6172  -11.7058   20.7178 C   0  0  0  0  0  0  0  0  0  0  0  0
  -25.1838  -13.8161   20.4721 C   0  0  0  0  0  0  0  0  0  0  0  0
  -22.8198  -13.4781   21.2110 C   0  0  0  0  0  0  0  0  0  0  0  0
  -20.9613  -18.0098   30.6604 C   0  0  0  0  0  0  0  0  0  0  0  0
  -26.6030  -19.8891   24.4463 C   0  0  0  0  0  0  0  0  0  0  0  0
  -20.3261  -15.3328   28.9421 C   0  0  0  0  0  0  0  0  0  0  0  0
  -20.6099  -13.6529   25.9851 C   0  0  0  0  0  0  0  0  0  0  0  0
  -30.9475  -14.0580   20.9577 C   0  0  0  0  0  0  0  0  0  0  0  0
  -19.2410  -20.2036   34.9366 C   0  0  0  0  0  0  0  0  0  0  0  0
  -19.9294  -18.9828   28.5760 C   0  0  0  0  0  0  0  0  0  0  0  0
  -21.9817  -16.9511   27.9394 C   0  0  0  0  0  0  0  0  0  0  0  0
  -19.2969  -18.7811   34.3856 C   0  0  0  0  0  0  0  0  0  0  0  0
  -29.3565  -13.1275   17.9114 C   0  0  0  0  0  0  0  0  0  0  0  0
  -20.6971  -18.4626   33.8709 C   0  0  0  0  0  0  0  0  0  0  0  0
  -27.9262  -12.7881   18.3346 C   0  0  0  0  0  0  0  0  0  0  0  0
  -30.3738  -12.6999   18.9670 C   0  0  0  0  0  0  0  0  0  0  0  0
  -28.6791  -12.8718   20.7480 C   0  0  0  0  0  0  0  0  0  0  0  0
  -21.0883  -19.3986   32.7210 C   0  0  1  0  0  0  0  0  0  0  0  0
  -20.1259  -17.7413   29.4407 C   0  0  1  0  0  0  0  0  0  0  0  0
  -27.6128  -13.3345   19.7405 C   0  0  2  0  0  0  0  0  0  0  0  0
  -20.0240  -11.4694   24.8959 C   0  0  0  0  0  0  0  0  0  0  0  0
  -22.5873  -13.9672   30.4692 C   0  0  0  0  0  0  0  0  0  0  0  0
  -22.5857  -12.1702   28.7259 C   0  0  0  0  0  0  0  0  0  0  0  0
  -20.5558  -12.5497   30.1253 C   0  0  0  0  0  0  0  0  0  0  0  0
  -18.9467  -14.9894   23.9341 C   0  0  0  0  0  0  0  0  0  0  0  0
  -31.3699  -15.3939   23.0061 C   0  0  0  0  0  0  0  0  0  0  0  0
  -27.6839  -18.8828   24.1130 C   0  0  0  0  0  0  0  0  0  0  0  0
  -25.4367  -19.3542   25.2543 C   0  0  0  0  0  0  0  0  0  1  0  0
  -21.1586  -14.2298   28.3347 C   0  0  1  0  0  0  0  0  0  0  0  0
  -19.5872  -12.9037   25.1501 C   0  0  2  0  0  0  0  0  0  0  0  0
  -21.7257  -13.2565   29.4064 C   0  0  0  0  0  0  0  0  0  0  0  0
  -25.8935  -11.6661   20.3263 N   0  0  0  0  0  0  0  0  0  0  0  0
  -26.2097  -12.9646   20.1848 N   0  0  0  0  0  0  0  0  0  0  0  0
  -20.7692  -16.6437   28.7158 N   0  0  0  0  0  0  0  0  0  0  0  0
  -30.0199  -13.2524   20.2767 N   0  0  0  0  0  0  0  0  0  0  0  0
  -25.3302  -15.1551   20.3819 N   0  0  0  0  0  0  0  0  0  0  0  0
  -21.8469  -12.5254   21.5427 N   0  0  0  0  0  0  0  0  0  0  0  0
  -28.7231  -19.5159   23.3420 N   0  0  0  0  0  0  0  0  0  0  0  0
  -20.4454  -18.9855   31.4920 N   0  0  0  0  0  0  0  0  0  0  0  0
  -20.3165  -13.5883   27.3309 N   0  0  0  0  0  0  0  0  0  0  0  0
  -30.5298  -14.5462   22.1897 N   0  0  0  0  0  0  0  0  0  0  0  0
  -19.3989  -13.5778   23.8343 N   0  3  0  0  0  0  0  0  0  0  0  0
  -22.5225  -14.6963   21.2439 O   0  0  0  0  0  0  0  0  0  0  0  0
  -21.9964  -17.3776   30.8350 O   0  0  0  0  0  0  0  0  0  0  0  0
  -26.6566  -21.0656   24.0901 O   0  0  0  0  0  0  0  0  0  0  0  0
  -19.3157  -15.0425   29.5875 O   0  0  0  0  0  0  0  0  0  0  0  0
  -21.5747  -14.2339   25.4931 O   0  0  0  0  0  0  0  0  0  0  0  0
  -32.0630  -14.3268   20.4991 O   0  0  0  0  0  0  0  0  0  0  0  0
  -21.8441   -6.9578   21.7346 O   0  0  0  0  0  0  0  0  0  0  0  0
  -24.4887  -20.3869   25.5211 O   0  0  0  0  0  0  0  0  0  1  0  0
  -18.7699   -6.7218   26.3059 F   0  0  0  0  0  0  0  0  0  0  0  0
  -32.8701  -19.5531   20.9702 F   0  0  0  0  0  0  0  0  0  0  0  0
  -22.3497   -5.0677   23.6877 F   0  0  0  0  0  0  0  0  0  0  0  0
  1  2  1  0  0  0  0
  1  5  2  0  0  0  0
  2  6  2  0  0  0  0
  3  8  2  0  0  0  0
  3 18  1  0  0  0  0
  4  9  1  0  0  0  0
  4 18  2  0  0  0  0
  5 20  1  0  0  0  0
  6 22  1  0  0  0  0
  7 10  2  0  0  0  0
  7 21  1  0  0  0  0
  8 26  1  0  0  0  0
  9 26  2  0  0  0  0
 10 27  1  0  0  0  0
 11 12  2  0  0  0  0
 11 28  1  0  0  0  0
 12 29  1  0  0  0  0
 13 23  1  0  0  0  0
 13 27  2  0  0  0  0
 14 24  1  0  0  0  0
 14 25  2  0  0  0  0
 15 24  2  0  0  0  0
 15 30  1  0  0  0  0
 16 25  1  0  0  0  0
 16 30  2  0  0  0  0
 17 29  2  0  0  0  0
 17 31  1  0  0  0  0
 18 32  1  0  0  0  0
 19 32  1  0  0  0  0
 19 33  2  0  0  0  0
 19 34  1  0  0  0  0
 20 22  2  0  0  0  0
 20 40  1  0  0  0  0
 21 23  2  0  0  0  0
 21 41  1  0  0  0  0
 22 49  1  0  0  0  0
 23 42  1  0  0  0  0
 24 57  1  0  0  0  0
 25 69  1  0  0  0  0
 26 80  1  0  0  0  0
 27 81  1  0  0  0  0
 28 31  2  0  0  0  0
 28 80  1  0  0  0  0
 29 82  1  0  0  0  0
 30 83  1  0  0  0  0
 31 84  1  0  0  0  0
 32 63  2  0  0  0  0
 33 64  1  0  0  0  0
 33 67  1  0  0  0  0
 34 68  1  0  0  0  0
 34 74  2  0  0  0  0
 35 50  1  0  0  0  0
 35 70  1  0  0  0  0
 35 75  2  0  0  0  0
 36 58  1  0  0  0  0
 36 59  1  0  0  0  0
 36 76  2  0  0  0  0
 37 60  1  0  0  0  0
 37 65  1  0  0  0  0
 37 77  2  0  0  0  0
 38 61  1  0  0  0  0
 38 71  1  0  0  0  0
 38 78  2  0  0  0  0
 39 66  1  0  0  0  0
 39 72  1  0  0  0  0
 39 79  2  0  0  0  0
 40 43  1  0  0  0  0
 41 50  1  0  0  0  0
 42 65  1  0  0  0  0
 43 45  1  0  0  0  0
 44 46  1  0  0  0  0
 44 47  1  0  0  0  0
 45 49  1  0  0  0  0
 46 51  1  0  0  0  0
 47 66  1  0  0  0  0
 48 51  1  0  0  0  0
 48 66  1  0  0  0  0
 49 70  1  0  0  0  0
 50 65  1  0  0  0  0
 51 64  1  0  0  0  0
 52 61  1  0  0  0  0
 53 62  1  0  0  0  0
 54 62  1  0  0  0  0
 55 62  1  0  0  0  0
 56 73  1  0  0  0  0
 57 72  1  0  0  0  0
 58 69  1  0  0  0  0
 59 81  1  0  0  0  0
 60 62  1  0  0  0  0
 60 71  1  0  0  0  0
 61 73  1  0  0  0  0
 63 64  1  0  0  0  0
M  CHG  1  73   1
M  ISO  4  39 100  59 101  72 100  81 101
M  END
> <Batch ID>
0171

> <Smiles>
CNC(C)C(=O)NC(C(=O)N1Cc2cc([101O:1][101CH2:1]C(=O)CNc3cc(F)cc(C[100NH:0][100C:0](=O)N4CCCC(n5nc(-c6ccc(Oc7ccc(F)cc7F)cc6)c(C(N)=O)c5N)C4)c3)ccc2CC1C(=O)NC1CCCc2ccccc21)C(C)(C)C

> <Shape>
0.169

> <Color>
0.185

> <Negative vol penalty>
0.000

$$$$

  -OEChem-04052304233D

 91100  0     1  0  0  0  0  0999 V2000
  -26.3027  -26.7955   15.5622 C   0  0  0  0  0  0  0  0  0  0  0  0
  -26.2553  -26.1566   16.7971 C   0  0  0  0  0  0  0  0  0  0  0  0
  -23.5448   -9.6105   19.8782 C   0  0  0  0  0  0  0  0  0  0  0  0
  -23.8321   -9.8828   22.2616 C   0  0  0  0  0  0  0  0  0  0  0  0
  -26.6549  -28.1425   15.4886 C   0  0  0  0  0  0  0  0  0  0  0  0
  -26.5611  -26.8642   17.9591 C   0  0  0  0  0  0  0  0  0  0  0  0
  -30.1416  -20.0056   21.1890 C   0  0  0  0  0  0  0  0  0  0  0  0
  -23.2731  -25.9641   21.7040 C   0  0  0  0  0  0  0  0  0  0  0  0
  -30.1713  -18.6141   21.2799 C   0  0  0  0  0  0  0  0  0  0  0  0
  -22.9333   -8.3754   20.0930 C   0  0  0  0  0  0  0  0  0  0  0  0
  -23.2205   -8.6477   22.4764 C   0  0  0  0  0  0  0  0  0  0  0  0
  -23.4171  -24.7669   22.4037 C   0  0  0  0  0  0  0  0  0  0  0  0
  -19.8970   -7.2309   21.0439 C   0  0  0  0  0  0  0  0  0  0  0  0
  -18.7298   -6.9530   20.3326 C   0  0  0  0  0  0  0  0  0  0  0  0
  -24.5476  -25.9470   24.1782 C   0  0  0  0  0  0  0  0  0  0  0  0
  -28.2145  -18.6648   22.6960 C   0  0  0  0  0  0  0  0  0  0  0  0
  -19.8013   -5.0375   19.3228 C   0  0  0  0  0  0  0  0  0  0  0  0
  -23.9942  -10.3642   20.9625 C   0  0  0  0  0  0  0  0  0  0  0  0
  -24.0000  -12.8987   20.6731 C   0  0  0  0  0  0  0  0  0  0  0  0
  -26.9559  -28.8694   16.6512 C   0  0  0  0  0  0  0  0  0  0  0  0
  -23.7757  -27.1621   22.2320 C   0  0  0  0  0  0  0  0  0  0  0  0
  -26.9190  -28.2218   17.9009 C   0  0  0  0  0  0  0  0  0  0  0  0
  -29.1484  -20.7268   21.8517 C   0  0  0  0  0  0  0  0  0  0  0  0
  -24.4064  -27.1585   23.4843 C   0  0  0  0  0  0  0  0  0  0  0  0
  -29.2077  -17.9436   22.0334 C   0  0  0  0  0  0  0  0  0  0  0  0
  -28.1848  -20.0564   22.6052 C   0  0  0  0  0  0  0  0  0  0  0  0
  -22.7711   -7.8940   21.3921 C   0  0  0  0  0  0  0  0  0  0  0  0
  -24.0570  -24.7577   23.6397 C   0  0  0  0  0  0  0  0  0  0  0  0
  -21.0164   -6.4122   20.8946 C   0  0  0  0  0  0  0  0  0  0  0  0
  -18.6819   -5.8563   19.4721 C   0  0  0  0  0  0  0  0  0  0  0  0
  -20.9685   -5.3154   20.0341 C   0  0  0  0  0  0  0  0  0  0  0  0
  -24.6265  -11.6399   20.7412 C   0  0  0  0  0  0  0  0  0  0  0  0
  -25.0277  -13.7820   20.4491 C   0  0  0  0  0  0  0  0  0  0  0  0
  -24.8981  -22.5771   23.7304 C   0  0  0  0  0  0  0  0  0  1  0  0
  -22.6132  -13.2392   20.8009 C   0  0  0  0  0  0  0  0  0  0  0  0
  -25.0993  -21.3884   24.3118 C   0  0  0  0  0  0  0  0  0  0  0  0
  -25.8813  -20.3417   23.5760 C   0  0  0  0  0  0  0  0  0  0  0  0
  -25.9650  -29.2748   21.3117 C   0  0  0  0  0  0  0  0  0  0  0  0
  -24.8807  -30.9330   23.8802 C   0  0  0  0  0  0  0  0  0  0  0  0
  -23.3282  -30.8786   26.9189 C   0  0  0  0  0  0  0  0  0  0  0  0
  -30.1553  -15.6644   21.5300 C   0  0  0  0  0  0  0  0  0  0  0  0
  -27.3773  -30.3113   16.5171 C   0  0  0  0  0  0  0  0  0  0  0  0
  -23.5886  -28.4494   21.4770 C   0  0  0  0  0  0  0  0  0  0  0  0
  -24.9456  -28.4208   24.1042 C   0  0  0  0  0  0  0  0  0  0  0  0
  -27.3227  -31.0866   17.8309 C   0  0  0  0  0  0  0  0  0  0  0  0
  -29.8717  -12.9596   19.2319 C   0  0  0  0  0  0  0  0  0  0  0  0
  -28.9624  -22.6322   20.2695 C   0  0  0  0  0  0  0  0  0  0  0  0
  -27.9677  -30.2803   18.9537 C   0  0  0  0  0  0  0  0  0  0  0  0
  -29.0112  -24.1499   20.1144 C   0  0  0  0  0  0  0  0  0  0  0  0
  -28.4303  -12.4787   19.4141 C   0  0  0  0  0  0  0  0  0  0  0  0
  -30.4428  -22.7993   22.3116 C   0  0  0  0  0  0  0  0  0  0  0  0
  -30.4929  -13.4037   20.5550 C   0  0  0  0  0  0  0  0  0  0  0  0
  -28.2707  -13.9145   21.4878 C   0  0  0  0  0  0  0  0  0  0  0  0
  -29.1411  -22.2166   21.7367 C   0  0  2  0  0  0  0  0  0  0  0  0
  -27.2199  -28.9619   19.1861 C   0  0  1  0  0  0  0  0  0  0  0  0
  -24.5941  -29.5261   21.8732 C   0  0  1  0  0  0  0  0  0  0  0  0
  -30.3081  -24.7483   20.6856 C   0  0  2  0  0  0  0  0  0  0  0  0
  -30.5004  -24.3315   22.1645 C   0  0  2  0  0  0  0  0  0  0  0  0
  -27.5811  -13.5178   20.1722 C   0  0  2  0  0  0  0  0  0  0  0  0
  -30.2869  -26.2686   20.5028 C   0  0  0  0  0  0  0  0  0  0  0  0
  -31.8163  -24.8476   22.7539 C   0  0  0  0  0  0  0  0  0  0  0  0
  -22.6196  -32.3855   28.7962 C   0  0  0  0  0  0  0  0  0  0  0  0
  -27.7724  -31.0924   24.8407 C   0  0  0  0  0  0  0  0  0  0  0  0
  -26.9125  -31.7346   27.1026 C   0  0  0  0  0  0  0  0  0  0  0  0
  -26.4577  -33.1993   25.1353 C   0  0  0  0  0  0  0  0  0  0  0  0
  -20.4740  -30.1884   26.5500 C   0  0  0  0  0  0  0  0  0  0  0  0
  -25.2422  -30.9923   25.3447 C   0  0  1  0  0  0  0  0  0  0  0  0
  -22.2047  -31.7238   27.4913 C   0  0  2  0  0  0  0  0  0  0  0  0
  -26.5879  -31.7304   25.5935 C   0  0  0  0  0  0  0  0  0  0  0  0
  -25.9497  -11.7127   20.5739 N   0  0  0  0  0  0  0  0  0  0  0  0
  -26.1630  -13.0279   20.3984 N   0  0  0  0  0  0  0  0  0  0  0  0
  -24.7438  -29.6531   23.3243 N   0  0  0  0  0  0  0  0  0  0  0  0
  -29.6356  -14.3911   21.2146 N   0  0  0  0  0  0  0  0  0  0  0  0
  -25.0620  -15.1224   20.2926 N   0  0  0  0  0  0  0  0  0  0  0  0
  -21.6906  -12.2091   21.0291 N   0  0  0  0  0  0  0  0  0  0  0  0
  -27.1690  -20.7707   23.2850 N   0  0  0  0  0  0  0  0  0  0  0  0
  -29.2384  -16.5300   22.1254 N   0  0  0  0  0  0  0  0  0  0  0  0
  -26.0024  -29.1963   19.9326 N   0  0  0  0  0  0  0  0  0  0  0  0
  -24.0980  -31.5908   26.0237 N   0  0  0  0  0  0  0  0  0  0  0  0
  -21.0039  -30.8809   27.7528 N   0  3  0  0  0  0  0  0  0  0  0  0
  -22.2022  -14.4200   20.6990 O   0  0  0  0  0  0  0  0  0  0  0  0
  -25.3780  -19.2585   23.2982 O   0  0  0  0  0  0  0  0  0  0  0  0
  -26.9185  -29.1621   22.0732 O   0  0  0  0  0  0  0  0  0  0  0  0
  -24.7185  -31.9835   23.2543 O   0  0  0  0  0  0  0  0  0  0  0  0
  -23.5075  -29.7051   27.2371 O   0  0  0  0  0  0  0  0  0  0  0  0
  -31.3197  -15.9739   21.2647 O   0  0  0  0  0  0  0  0  0  0  0  0
  -24.6152  -21.0852   25.5681 O   0  0  0  0  0  0  0  0  0  0  0  0
  -22.1743   -6.6889   21.6021 O   0  0  0  0  0  0  0  0  0  0  0  0
  -24.1995  -23.5904   24.3245 O   0  0  0  0  0  0  0  0  0  1  0  0
  -17.5605   -5.5887   18.7903 F   0  0  0  0  0  0  0  0  0  0  0  0
  -22.0403   -4.5245   19.8874 F   0  0  0  0  0  0  0  0  0  0  0  0
  1  2  1  0  0  0  0
  1  5  2  0  0  0  0
  2  6  2  0  0  0  0
  3 10  2  0  0  0  0
  3 18  1  0  0  0  0
  4 11  1  0  0  0  0
  4 18  2  0  0  0  0
  5 20  1  0  0  0  0
  6 22  1  0  0  0  0
  7  9  2  0  0  0  0
  7 23  1  0  0  0  0
  8 12  2  0  0  0  0
  8 21  1  0  0  0  0
  9 25  1  0  0  0  0
 10 27  1  0  0  0  0
 11 27  2  0  0  0  0
 12 28  1  0  0  0  0
 13 14  2  0  0  0  0
 13 29  1  0  0  0  0
 14 30  1  0  0  0  0
 15 24  1  0  0  0  0
 15 28  2  0  0  0  0
 16 25  2  0  0  0  0
 16 26  1  0  0  0  0
 17 30  2  0  0  0  0
 17 31  1  0  0  0  0
 18 32  1  0  0  0  0
 19 32  1  0  0  0  0
 19 33  2  0  0  0  0
 19 35  1  0  0  0  0
 20 22  2  0  0  0  0
 20 42  1  0  0  0  0
 21 24  2  0  0  0  0
 21 43  1  0  0  0  0
 22 55  1  0  0  0  0
 23 26  2  0  0  0  0
 23 54  1  0  0  0  0
 24 44  1  0  0  0  0
 25 77  1  0  0  0  0
 26 76  1  0  0  0  0
 27 88  1  0  0  0  0
 28 89  1  0  0  0  0
 29 31  2  0  0  0  0
 29 88  1  0  0  0  0
 30 90  1  0  0  0  0
 31 91  1  0  0  0  0
 32 70  2  0  0  0  0
 33 71  1  0  0  0  0
 33 74  1  0  0  0  0
 34 36  2  0  0  0  0
 34 89  1  0  0  0  0
 35 75  1  0  0  0  0
 35 81  2  0  0  0  0
 36 37  1  0  0  0  0
 36 87  1  0  0  0  0
 37 76  1  0  0  0  0
 37 82  2  0  0  0  0
 38 56  1  0  0  0  0
 38 78  1  0  0  0  0
 38 83  2  0  0  0  0
 39 67  1  0  0  0  0
 39 72  1  0  0  0  0
 39 84  2  0  0  0  0
 40 68  1  0  0  0  0
 40 79  1  0  0  0  0
 40 85  2  0  0  0  0
 41 73  1  0  0  0  0
 41 77  1  0  0  0  0
 41 86  2  0  0  0  0
 42 45  1  0  0  0  0
 43 56  1  0  0  0  0
 44 72  1  0  0  0  0
 45 48  1  0  0  0  0
 46 50  1  0  0  0  0
 46 52  1  0  0  0  0
 47 49  1  0  0  0  0
 47 54  1  0  0  0  0
 48 55  1  0  0  0  0
 49 57  1  0  0  0  0
 50 59  1  0  0  0  0
 51 54  1  0  0  0  0
 51 58  1  0  0  0  0
 52 73  1  0  0  0  0
 53 59  1  0  0  0  0
 53 73  1  0  0  0  0
 55 78  1  0  0  0  0
 56 72  1  0  0  0  0
 57 58  1  0  0  0  0
 57 60  1  0  0  0  0
 58 61  1  0  0  0  0
 59 71  1  0  0  0  0
 62 68  1  0  0  0  0
 63 69  1  0  0  0  0
 64 69  1  0  0  0  0
 65 69  1  0  0  0  0
 66 80  1  0  0  0  0
 67 69  1  0  0  0  0
 67 79  1  0  0  0  0
 68 80  1  0  0  0  0
 70 71  1  0  0  0  0
M  CHG  1  80   1
M  ISO  4  34 101  41 100  77 100  89 101
M  END
> <Batch ID>
0171

> <Smiles>
CNC(C)C(=O)NC(C(=O)N1Cc2cc([101O:1][101CH2:1]C(=O)C(=O)Nc3cc([100NH:0][100C:0](=O)N4CCCC(n5nc(-c6ccc(Oc7ccc(F)cc7F)cc6)c(C(N)=O)c5N)C4)ccc3C3CCC(C)C(C)C3)ccc2CC1C(=O)NC1CCCc2ccccc21)C(C)(C)C

> <Shape>
0.269

> <Color>
0.155

> <Negative vol penalty>
0.000

$$$$

  -OEChem-04052304233D

 86 94  0     1  0  0  0  0  0999 V2000
  -19.7369  -32.1500   21.7114 C   0  0  0  0  0  0  0  0  0  0  0  0
  -20.8275  -31.3150   21.9322 C   0  0  0  0  0  0  0  0  0  0  0  0
  -23.1884   -9.7651   21.1409 C   0  0  0  0  0  0  0  0  0  0  0  0
  -23.8855  -10.5307   23.3238 C   0  0  0  0  0  0  0  0  0  0  0  0
  -18.4662  -31.7615   22.1336 C   0  0  0  0  0  0  0  0  0  0  0  0
  -20.6481  -30.0913   22.5762 C   0  0  0  0  0  0  0  0  0  0  0  0
  -23.1273  -26.3120   20.2924 C   0  0  0  0  0  0  0  0  0  0  0  0
  -22.4895   -8.7132   21.7330 C   0  0  0  0  0  0  0  0  0  0  0  0
  -23.1865   -9.4788   23.9159 C   0  0  0  0  0  0  0  0  0  0  0  0
  -24.4999  -26.2221   20.5194 C   0  0  0  0  0  0  0  0  0  0  0  0
  -23.1990   -5.6875   23.0619 C   0  0  0  0  0  0  0  0  0  0  0  0
  -23.3362   -4.4197   22.4966 C   0  0  0  0  0  0  0  0  0  0  0  0
  -24.1104  -24.4875   22.1500 C   0  0  0  0  0  0  0  0  0  0  0  0
  -31.6848  -17.7320   21.0399 C   0  0  0  0  0  0  0  0  0  0  0  0
  -31.2289  -20.1040   20.9888 C   0  0  0  0  0  0  0  0  0  0  0  0
  -20.9570   -4.3468   22.0828 C   0  0  0  0  0  0  0  0  0  0  0  0
  -23.8865  -10.6738   21.9363 C   0  0  0  0  0  0  0  0  0  0  0  0
  -24.1201  -13.0471   21.0303 C   0  0  0  0  0  0  0  0  0  0  0  0
  -18.2696  -30.5281   22.7745 C   0  0  0  0  0  0  0  0  0  0  0  0
  -22.2336  -25.4966   21.0015 C   0  0  0  0  0  0  0  0  0  0  0  0
  -19.3737  -29.6865   23.0085 C   0  0  0  0  0  0  0  0  0  0  0  0
  -22.7271  -24.5672   21.9282 C   0  0  0  0  0  0  0  0  0  0  0  0
  -29.4155  -18.5207   20.7850 C   0  0  0  0  0  0  0  0  0  0  0  0
  -30.3239  -17.4671   20.8871 C   0  0  0  0  0  0  0  0  0  0  0  0
  -29.8680  -19.8392   20.8359 C   0  0  0  0  0  0  0  0  0  0  0  0
  -22.4885   -8.5700   23.1205 C   0  0  0  0  0  0  0  0  0  0  0  0
  -24.9915  -25.3118   21.4504 C   0  0  0  0  0  0  0  0  0  0  0  0
  -21.9408   -6.2849   23.1378 C   0  0  0  0  0  0  0  0  0  0  0  0
  -22.2153   -3.7494   22.0070 C   0  0  0  0  0  0  0  0  0  0  0  0
  -32.1373  -19.0505   21.0908 C   0  0  0  0  0  0  0  0  0  0  0  0
  -20.8198   -5.6145   22.6482 C   0  0  0  0  0  0  0  0  0  0  0  0
  -24.6091  -11.7603   21.3252 C   0  0  0  0  0  0  0  0  0  0  0  0
  -25.1877  -13.6981   20.4620 C   0  0  0  0  0  0  0  0  0  0  0  0
  -22.8174  -13.6040   21.2504 C   0  0  0  0  0  0  0  0  0  0  0  0
  -19.8492  -26.0223   23.0367 C   0  0  0  0  0  0  0  0  0  0  0  0
  -28.1639  -23.1818   20.6469 C   0  0  0  0  0  0  0  0  0  0  0  0
  -19.4326  -22.8164   22.7702 C   0  0  0  0  0  0  0  0  0  0  0  0
  -20.7868  -19.7694   22.0434 C   0  0  0  0  0  0  0  0  0  0  0  0
  -30.5960  -15.0184   20.3617 C   0  0  0  0  0  0  0  0  0  0  0  0
  -16.8849  -30.1724   23.2550 C   0  0  0  0  0  0  0  0  0  0  0  0
  -20.7578  -25.5871   20.7256 C   0  0  0  0  0  0  0  0  0  0  0  0
  -21.8111  -23.6549   22.7009 C   0  0  0  0  0  0  0  0  0  0  0  0
  -16.7196  -28.6935   23.5954 C   0  0  0  0  0  0  0  0  0  0  0  0
  -29.6527  -11.9298   18.8624 C   0  0  0  0  0  0  0  0  0  0  0  0
  -17.8909  -28.2065   24.4426 C   0  0  0  0  0  0  0  0  0  0  0  0
  -28.2162  -11.7162   19.3452 C   0  0  0  0  0  0  0  0  0  0  0  0
  -30.5242  -12.5703   19.9412 C   0  0  0  0  0  0  0  0  0  0  0  0
  -28.5509  -13.5956   21.0013 C   0  0  0  0  0  0  0  0  0  0  0  0
  -19.2155  -28.3403   23.6816 C   0  0  1  0  0  0  0  0  0  0  0  0
  -19.9018  -25.0684   21.8770 C   0  0  1  0  0  0  0  0  0  0  0  0
  -27.6186  -13.0124   19.9270 C   0  0  2  0  0  0  0  0  0  0  0  0
  -27.1778  -18.4371   21.9129 C   0  0  0  0  0  0  0  0  0  0  0  0
  -20.2103  -17.3287   21.9516 C   0  0  0  0  0  0  0  0  0  0  0  0
  -19.5735  -22.6712   25.8147 C   0  0  0  0  0  0  0  0  0  0  0  0
  -19.9485  -20.2042   25.6101 C   0  0  0  0  0  0  0  0  0  0  0  0
  -17.8236  -21.2141   24.7807 C   0  0  0  0  0  0  0  0  0  0  0  0
  -21.3708  -19.6215   19.1458 C   0  0  0  0  0  0  0  0  0  0  0  0
  -27.9549  -18.2366   20.6171 C   0  0  0  0  0  0  0  0  0  0  0  0
  -28.4510  -24.6773   20.6736 C   0  0  0  0  0  0  0  0  0  0  0  0
  -29.3783  -22.2852   20.7816 C   0  0  0  0  0  0  0  0  0  0  0  0
  -27.1942  -25.5289   20.5804 C   0  0  0  0  0  0  0  0  0  1  0  0
  -19.9659  -21.6050   23.4962 C   0  0  1  0  0  0  0  0  0  0  0  0
  -20.2934  -18.6303   21.1695 C   0  0  2  0  0  0  0  0  0  0  0  0
  -19.3453  -21.4420   24.9125 C   0  0  0  0  0  0  0  0  0  0  0  0
  -25.8877  -11.6014   20.9732 N   0  0  0  0  0  0  0  0  0  0  0  0
  -26.2112  -12.7968   20.4512 N   0  0  0  0  0  0  0  0  0  0  0  0
  -20.3758  -23.7856   22.4004 N   0  0  0  0  0  0  0  0  0  0  0  0
  -29.8972  -13.7953   20.4423 N   0  0  0  0  0  0  0  0  0  0  0  0
  -25.3413  -14.9479   19.9754 N   0  0  0  0  0  0  0  0  0  0  0  0
  -21.8377  -12.7974   21.8453 N   0  0  0  0  0  0  0  0  0  0  0  0
  -29.8869  -16.1201   20.8392 N   0  0  0  0  0  0  0  0  0  0  0  0
  -28.9806  -20.9007   20.7365 N   0  0  0  0  0  0  0  0  0  0  0  0
  -19.3536  -27.2716   22.7156 N   0  0  0  0  0  0  0  0  0  0  0  0
  -19.7418  -20.4672   22.6111 N   0  0  0  0  0  0  0  0  0  0  0  0
  -21.2136  -18.4271   20.0150 N   0  3  0  0  0  0  0  0  0  0  0  0
  -22.5259  -14.7768   20.9141 O   0  0  0  0  0  0  0  0  0  0  0  0
  -20.2288  -25.6518   24.1414 O   0  0  0  0  0  0  0  0  0  0  0  0
  -27.0249  -22.7338   20.5226 O   0  0  0  0  0  0  0  0  0  0  0  0
  -18.2246  -22.8963   22.5335 O   0  0  0  0  0  0  0  0  0  0  0  0
  -21.9800  -20.0132   22.2090 O   0  0  0  0  0  0  0  0  0  0  0  0
  -31.7287  -15.0880   19.8779 O   0  0  0  0  0  0  0  0  0  0  0  0
  -21.8064   -7.5439   23.6986 O   0  0  0  0  0  0  0  0  0  0  0  0
  -26.3308  -25.2224   21.6745 O   0  0  0  0  0  0  0  0  0  1  0  0
  -22.3474   -2.5326   21.4627 F   0  0  0  0  0  0  0  0  0  0  0  0
  -33.4443  -19.3044   21.2378 F   0  0  0  0  0  0  0  0  0  0  0  0
  -19.6087   -6.1838   22.7172 F   0  0  0  0  0  0  0  0  0  0  0  0
  1  2  1  0  0  0  0
  1  5  2  0  0  0  0
  2  6  2  0  0  0  0
  3  8  2  0  0  0  0
  3 17  1  0  0  0  0
  4  9  1  0  0  0  0
  4 17  2  0  0  0  0
  5 19  1  0  0  0  0
  6 21  1  0  0  0  0
  7 10  2  0  0  0  0
  7 20  1  0  0  0  0
  8 26  1  0  0  0  0
  9 26  2  0  0  0  0
 10 27  1  0  0  0  0
 11 12  2  0  0  0  0
 11 28  1  0  0  0  0
 12 29  1  0  0  0  0
 13 22  1  0  0  0  0
 13 27  2  0  0  0  0
 14 24  1  0  0  0  0
 14 30  2  0  0  0  0
 15 25  2  0  0  0  0
 15 30  1  0  0  0  0
 16 29  2  0  0  0  0
 16 31  1  0  0  0  0
 17 32  1  0  0  0  0
 18 32  1  0  0  0  0
 18 33  2  0  0  0  0
 18 34  1  0  0  0  0
 19 21  2  0  0  0  0
 19 40  1  0  0  0  0
 20 22  2  0  0  0  0
 20 41  1  0  0  0  0
 21 49  1  0  0  0  0
 22 42  1  0  0  0  0
 23 24  2  0  0  0  0
 23 25  1  0  0  0  0
 23 58  1  0  0  0  0
 24 71  1  0  0  0  0
 25 72  1  0  0  0  0
 26 82  1  0  0  0  0
 27 83  1  0  0  0  0
 28 31  2  0  0  0  0
 28 82  1  0  0  0  0
 29 84  1  0  0  0  0
 30 85  1  0  0  0  0
 31 86  1  0  0  0  0
 32 65  2  0  0  0  0
 33 66  1  0  0  0  0
 33 69  1  0  0  0  0
 34 70  1  0  0  0  0
 34 76  2  0  0  0  0
 35 50  1  0  0  0  0
 35 73  1  0  0  0  0
 35 77  2  0  0  0  0
 36 59  1  0  0  0  0
 36 60  1  0  0  0  0
 36 78  2  0  0  0  0
 37 62  1  0  0  0  0
 37 67  1  0  0  0  0
 37 79  2  0  0  0  0
 38 63  1  0  0  0  0
 38 74  1  0  0  0  0
 38 80  2  0  0  0  0
 39 68  1  0  0  0  0
 39 71  1  0  0  0  0
 39 81  2  0  0  0  0
 40 43  1  0  0  0  0
 41 50  1  0  0  0  0
 42 67  1  0  0  0  0
 43 45  1  0  0  0  0
 44 46  1  0  0  0  0
 44 47  1  0  0  0  0
 45 49  1  0  0  0  0
 46 51  1  0  0  0  0
 47 68  1  0  0  0  0
 48 51  1  0  0  0  0
 48 68  1  0  0  0  0
 49 73  1  0  0  0  0
 50 67  1  0  0  0  0
 51 66  1  0  0  0  0
 52 58  1  0  0  0  0
 53 63  1  0  0  0  0
 54 64  1  0  0  0  0
 55 64  1  0  0  0  0
 56 64  1  0  0  0  0
 57 75  1  0  0  0  0
 59 61  1  0  0  0  0
 60 72  1  0  0  0  0
 61 83  1  0  0  0  0
 62 64  1  0  0  0  0
 62 74  1  0  0  0  0
 63 75  1  0  0  0  0
 65 66  1  0  0  0  0
M  CHG  1  75   1
M  ISO  4  39 100  61 101  71 100  83 101
M  END
> <Batch ID>
0171

> <Smiles>
CCc1c(NCC(=O)C[101CH2:1][101O:1]c2ccc3c(c2)CN(C(=O)C(NC(=O)C(C)NC)C(C)(C)C)C(C(=O)NC2CCCc4ccccc42)C3)cc(F)cc1[100NH:0][100C:0](=O)N1CCCC(n2nc(-c3ccc(Oc4ccc(F)cc4F)cc3)c(C(N)=O)c2N)C1

> <Shape>
0.264

> <Color>
0.169

> <Negative vol penalty>
0.000

$$$$

  -OEChem-04052304233D

 85 93  0     1  0  0  0  0  0999 V2000
  -25.9037  -31.5017   34.3366 C   0  0  0  0  0  0  0  0  0  0  0  0
  -26.0724  -30.1911   33.9015 C   0  0  0  0  0  0  0  0  0  0  0  0
  -23.0761   -9.8747   19.9257 C   0  0  0  0  0  0  0  0  0  0  0  0
  -23.8438   -9.8575   22.2164 C   0  0  0  0  0  0  0  0  0  0  0  0
  -25.6571  -32.5157   33.4119 C   0  0  0  0  0  0  0  0  0  0  0  0
  -25.9935  -29.8936   32.5415 C   0  0  0  0  0  0  0  0  0  0  0  0
  -29.2073  -25.6538   29.5081 C   0  0  0  0  0  0  0  0  0  0  0  0
  -22.3346   -8.7179   20.1655 C   0  0  0  0  0  0  0  0  0  0  0  0
  -23.1022   -8.7007   22.4562 C   0  0  0  0  0  0  0  0  0  0  0  0
  -28.9009  -24.3545   29.1058 C   0  0  0  0  0  0  0  0  0  0  0  0
  -19.8772   -7.8921   23.0609 C   0  0  0  0  0  0  0  0  0  0  0  0
  -19.1243   -7.8383   24.2339 C   0  0  0  0  0  0  0  0  0  0  0  0
  -28.2808  -25.1821   26.9264 C   0  0  0  0  0  0  0  0  0  0  0  0
  -31.8635  -18.3267   24.2485 C   0  0  0  0  0  0  0  0  0  0  0  0
  -32.0638  -16.5960   22.5747 C   0  0  0  0  0  0  0  0  0  0  0  0
  -20.3707   -5.8945   24.9448 C   0  0  0  0  0  0  0  0  0  0  0  0
  -23.8308  -10.4445   20.9511 C   0  0  0  0  0  0  0  0  0  0  0  0
  -24.1690  -12.9713   20.8577 C   0  0  0  0  0  0  0  0  0  0  0  0
  -25.5848  -32.2319   32.0390 C   0  0  0  0  0  0  0  0  0  0  0  0
  -29.0421  -26.7301   28.6246 C   0  0  0  0  0  0  0  0  0  0  0  0
  -25.7444  -30.9045   31.5977 C   0  0  0  0  0  0  0  0  0  0  0  0
  -28.5882  -26.4937   27.3191 C   0  0  0  0  0  0  0  0  0  0  0  0
  -30.4769  -18.3118   24.0980 C   0  0  0  0  0  0  0  0  0  0  0  0
  -30.6772  -16.5810   22.4243 C   0  0  0  0  0  0  0  0  0  0  0  0
  -22.3476   -8.1309   21.4307 C   0  0  0  0  0  0  0  0  0  0  0  0
  -28.4349  -24.1188   27.8157 C   0  0  0  0  0  0  0  0  0  0  0  0
  -20.8768   -6.9470   22.8298 C   0  0  0  0  0  0  0  0  0  0  0  0
  -19.3710   -6.8395   25.1758 C   0  0  0  0  0  0  0  0  0  0  0  0
  -32.6570  -17.4688   23.4868 C   0  0  0  0  0  0  0  0  0  0  0  0
  -21.1235   -5.9483   23.7717 C   0  0  0  0  0  0  0  0  0  0  0  0
  -29.8837  -17.4389   23.1860 C   0  0  0  0  0  0  0  0  0  0  0  0
  -24.5975  -11.6391   20.7039 C   0  0  0  0  0  0  0  0  0  0  0  0
  -25.2589  -13.7261   20.4990 C   0  0  0  0  0  0  0  0  0  0  0  0
  -29.1261  -22.1031   26.8516 C   0  0  0  0  0  0  0  0  0  1  0  0
  -22.8993  -13.4808   21.2866 C   0  0  0  0  0  0  0  0  0  0  0  0
  -28.9424  -20.8470   26.4273 C   0  0  0  0  0  0  0  0  0  0  0  0
  -30.0963  -20.1092   25.8170 C   0  0  0  0  0  0  0  0  0  0  0  0
  -27.2549  -29.3586   28.6008 C   0  0  0  0  0  0  0  0  0  0  0  0
  -28.9826  -30.0397   25.9412 C   0  0  0  0  0  0  0  0  0  0  0  0
  -30.8583  -28.8908   23.3319 C   0  0  0  0  0  0  0  0  0  0  0  0
  -30.7243  -14.7769   20.6666 C   0  0  0  0  0  0  0  0  0  0  0  0
  -25.2692  -33.3537   31.0815 C   0  0  0  0  0  0  0  0  0  0  0  0
  -29.4024  -28.1223   29.0654 C   0  0  0  0  0  0  0  0  0  0  0  0
  -28.4128  -27.6122   26.3258 C   0  0  0  0  0  0  0  0  0  0  0  0
  -25.5729  -33.0144   29.6245 C   0  0  0  0  0  0  0  0  0  0  0  0
  -29.6049  -12.3878   18.2757 C   0  0  0  0  0  0  0  0  0  0  0  0
  -25.0288  -31.6333   29.2734 C   0  0  0  0  0  0  0  0  0  0  0  0
  -28.1671  -12.0896   18.7070 C   0  0  0  0  0  0  0  0  0  0  0  0
  -30.5238  -12.6046   19.4767 C   0  0  0  0  0  0  0  0  0  0  0  0
  -28.6207  -13.3113   20.8723 C   0  0  0  0  0  0  0  0  0  0  0  0
  -25.6905  -30.5459   30.1285 C   0  0  1  0  0  0  0  0  0  0  0  0
  -28.7074  -29.2066   28.2476 C   0  0  1  0  0  0  0  0  0  0  0  0
  -27.6441  -13.1498   19.6960 C   0  0  2  0  0  0  0  0  0  0  0  0
  -32.1027  -29.6822   21.3015 C   0  0  0  0  0  0  0  0  0  0  0  0
  -26.3359  -30.4273   24.4732 C   0  0  0  0  0  0  0  0  0  0  0  0
  -27.5911  -30.2692   22.3127 C   0  0  0  0  0  0  0  0  0  0  0  0
  -28.0957  -32.1140   23.9142 C   0  0  0  0  0  0  0  0  0  0  0  0
  -33.4302  -27.8458   24.3578 C   0  0  0  0  0  0  0  0  0  0  0  0
  -28.8296  -29.7584   24.4659 C   0  0  1  0  0  0  0  0  0  0  0  0
  -32.1992  -29.3406   22.7802 C   0  0  2  0  0  0  0  0  0  0  0  0
  -27.7144  -30.6212   23.8106 C   0  0  0  0  0  0  0  0  0  0  0  0
  -25.8610  -11.5496   20.2803 N   0  0  0  0  0  0  0  0  0  0  0  0
  -26.2358  -12.8350   20.1648 N   0  0  0  0  0  0  0  0  0  0  0  0
  -28.7725  -28.9565   26.8063 N   0  0  0  0  0  0  0  0  0  0  0  0
  -29.9665  -13.6250   20.3673 N   0  0  0  0  0  0  0  0  0  0  0  0
  -25.4674  -15.0586   20.4399 N   0  0  0  0  0  0  0  0  0  0  0  0
  -21.8897  -12.5666   21.6173 N   0  0  0  0  0  0  0  0  0  0  0  0
  -29.6742  -19.1835   24.8727 N   0  0  0  0  0  0  0  0  0  0  0  0
  -30.0786  -15.6921   21.4973 N   0  0  0  0  0  0  0  0  0  0  0  0
  -27.0165  -30.2486   29.6307 N   0  0  0  0  0  0  0  0  0  0  0  0
  -30.1513  -29.9421   23.8761 N   0  0  0  0  0  0  0  0  0  0  0  0
  -33.2160  -28.2642   22.9486 N   0  3  0  0  0  0  0  0  0  0  0  0
  -22.6616  -14.7104   21.3582 O   0  0  0  0  0  0  0  0  0  0  0  0
  -31.2492  -20.3479   26.1603 O   0  0  0  0  0  0  0  0  0  0  0  0
  -26.4127  -28.7172   27.9836 O   0  0  0  0  0  0  0  0  0  0  0  0
  -29.2846  -31.1768   26.3119 O   0  0  0  0  0  0  0  0  0  0  0  0
  -30.4748  -27.7242   23.2814 O   0  0  0  0  0  0  0  0  0  0  0  0
  -31.8516  -14.9523   20.1970 O   0  0  0  0  0  0  0  0  0  0  0  0
  -27.7283  -20.1990   26.5301 O   0  0  0  0  0  0  0  0  0  0  0  0
  -21.6239   -7.0022   21.6652 O   0  0  0  0  0  0  0  0  0  0  0  0
  -28.1345  -22.8517   27.4207 O   0  0  0  0  0  0  0  0  0  1  0  0
  -18.6490   -6.7889   26.3029 F   0  0  0  0  0  0  0  0  0  0  0  0
  -33.9886  -17.4828   23.6315 F   0  0  0  0  0  0  0  0  0  0  0  0
  -22.0833   -5.0383   23.5558 F   0  0  0  0  0  0  0  0  0  0  0  0
  -28.5494  -17.4233   23.0419 F   0  0  0  0  0  0  0  0  0  0  0  0
  1  2  1  0  0  0  0
  1  5  2  0  0  0  0
  2  6  2  0  0  0  0
  3  8  2  0  0  0  0
  3 17  1  0  0  0  0
  4  9  1  0  0  0  0
  4 17  2  0  0  0  0
  5 19  1  0  0  0  0
  6 21  1  0  0  0  0
  7 10  2  0  0  0  0
  7 20  1  0  0  0  0
  8 25  1  0  0  0  0
  9 25  2  0  0  0  0
 10 26  1  0  0  0  0
 11 12  2  0  0  0  0
 11 27  1  0  0  0  0
 12 28  1  0  0  0  0
 13 22  1  0  0  0  0
 13 26  2  0  0  0  0
 14 23  1  0  0  0  0
 14 29  2  0  0  0  0
 15 24  2  0  0  0  0
 15 29  1  0  0  0  0
 16 28  2  0  0  0  0
 16 30  1  0  0  0  0
 17 32  1  0  0  0  0
 18 32  1  0  0  0  0
 18 33  2  0  0  0  0
 18 35  1  0  0  0  0
 19 21  2  0  0  0  0
 19 42  1  0  0  0  0
 20 22  2  0  0  0  0
 20 43  1  0  0  0  0
 21 51  1  0  0  0  0
 22 44  1  0  0  0  0
 23 31  2  0  0  0  0
 23 68  1  0  0  0  0
 24 31  1  0  0  0  0
 24 69  1  0  0  0  0
 25 80  1  0  0  0  0
 26 81  1  0  0  0  0
 27 30  2  0  0  0  0
 27 80  1  0  0  0  0
 28 82  1  0  0  0  0
 29 83  1  0  0  0  0
 30 84  1  0  0  0  0
 31 85  1  0  0  0  0
 32 62  2  0  0  0  0
 33 63  1  0  0  0  0
 33 66  1  0  0  0  0
 34 36  2  0  0  0  0
 34 81  1  0  0  0  0
 35 67  1  0  0  0  0
 35 73  2  0  0  0  0
 36 37  1  0  0  0  0
 36 79  1  0  0  0  0
 37 68  1  0  0  0  0
 37 74  2  0  0  0  0
 38 52  1  0  0  0  0
 38 70  1  0  0  0  0
 38 75  2  0  0  0  0
 39 59  1  0  0  0  0
 39 64  1  0  0  0  0
 39 76  2  0  0  0  0
 40 60  1  0  0  0  0
 40 71  1  0  0  0  0
 40 77  2  0  0  0  0
 41 65  1  0  0  0  0
 41 69  1  0  0  0  0
 41 78  2  0  0  0  0
 42 45  1  0  0  0  0
 43 52  1  0  0  0  0
 44 64  1  0  0  0  0
 45 47  1  0  0  0  0
 46 48  1  0  0  0  0
 46 49  1  0  0  0  0
 47 51  1  0  0  0  0
 48 53  1  0  0  0  0
 49 65  1  0  0  0  0
 50 53  1  0  0  0  0
 50 65  1  0  0  0  0
 51 70  1  0  0  0  0
 52 64  1  0  0  0  0
 53 63  1  0  0  0  0
 54 60  1  0  0  0  0
 55 61  1  0  0  0  0
 56 61  1  0  0  0  0
 57 61  1  0  0  0  0
 58 72  1  0  0  0  0
 59 61  1  0  0  0  0
 59 71  1  0  0  0  0
 60 72  1  0  0  0  0
 62 63  1  0  0  0  0
M  CHG  1  72   1
M  ISO  4  34 101  41 100  69 100  81 101
M  END
> <Batch ID>
0171

> <Smiles>
CNC(C)C(=O)NC(C(=O)N1Cc2cc([101O:1][101CH2:1]C(=O)C(=O)Nc3cc(F)cc([100NH:0][100C:0](=O)N4CCCC(n5nc(-c6ccc(Oc7ccc(F)cc7F)cc6)c(C(N)=O)c5N)C4)c3F)ccc2CC1C(=O)NC1CCCc2ccccc21)C(C)(C)C

> <Shape>
0.198

> <Color>
0.188

> <Negative vol penalty>
0.000

$$$$

  -OEChem-04052304233D

 85 94  0     1  0  0  0  0  0999 V2000
  -27.0811  -34.1408   26.9056 C   0  0  0  0  0  0  0  0  0  0  0  0
  -27.2888  -32.8658   26.3892 C   0  0  0  0  0  0  0  0  0  0  0  0
  -24.3305   -8.9746   21.4639 C   0  0  0  0  0  0  0  0  0  0  0  0
  -24.5765  -10.4856   23.3329 C   0  0  0  0  0  0  0  0  0  0  0  0
  -25.8201  -34.7294   26.8200 C   0  0  0  0  0  0  0  0  0  0  0  0
  -26.2353  -32.1782   25.7877 C   0  0  0  0  0  0  0  0  0  0  0  0
  -29.7538  -20.3710   19.7709 C   0  0  0  0  0  0  0  0  0  0  0  0
  -27.5928  -29.9588   21.4430 C   0  0  0  0  0  0  0  0  0  0  0  0
  -29.7012  -18.9974   19.5343 C   0  0  0  0  0  0  0  0  0  0  0  0
  -24.0029   -7.9416   22.3420 C   0  0  0  0  0  0  0  0  0  0  0  0
  -24.2488   -9.4527   24.2112 C   0  0  0  0  0  0  0  0  0  0  0  0
  -28.3096  -28.7664   21.5339 C   0  0  0  0  0  0  0  0  0  0  0  0
  -21.2960   -6.9283   24.0967 C   0  0  0  0  0  0  0  0  0  0  0  0
  -20.2093   -6.1180   23.7678 C   0  0  0  0  0  0  0  0  0  0  0  0
  -26.2861  -27.5245   21.1067 C   0  0  0  0  0  0  0  0  0  0  0  0
  -27.2883  -19.0732   19.6298 C   0  0  0  0  0  0  0  0  0  0  0  0
  -21.6594   -4.1858   23.7369 C   0  0  0  0  0  0  0  0  0  0  0  0
  -24.6173  -10.2466   21.9593 C   0  0  0  0  0  0  0  0  0  0  0  0
  -24.0718  -12.2197   20.4371 C   0  0  0  0  0  0  0  0  0  0  0  0
  -24.7530  -34.0525   26.2086 C   0  0  0  0  0  0  0  0  0  0  0  0
  -26.2130  -29.9425   21.1937 C   0  0  0  0  0  0  0  0  0  0  0  0
  -24.9585  -32.7578   25.6951 C   0  0  0  0  0  0  0  0  0  0  0  0
  -28.5736  -21.0958   19.9371 C   0  0  0  0  0  0  0  0  0  0  0  0
  -25.5546  -28.7181   21.0105 C   0  0  0  0  0  0  0  0  0  0  0  0
  -28.4685  -18.3485   19.4637 C   0  0  0  0  0  0  0  0  0  0  0  0
  -23.9620   -8.1806   23.7157 C   0  0  0  0  0  0  0  0  0  0  0  0
  -27.6558  -27.5490   21.3687 C   0  0  0  0  0  0  0  0  0  0  0  0
  -22.5644   -6.3673   24.2456 C   0  0  0  0  0  0  0  0  0  0  0  0
  -20.3910   -4.7468   23.5880 C   0  0  0  0  0  0  0  0  0  0  0  0
  -27.3409  -20.4469   19.8665 C   0  0  0  0  0  0  0  0  0  0  0  0
  -22.7461   -4.9961   24.0658 C   0  0  0  0  0  0  0  0  0  0  0  0
  -24.9564  -11.3140   21.0527 C   0  0  0  0  0  0  0  0  0  0  0  0
  -24.8817  -13.0284   19.6779 C   0  0  0  0  0  0  0  0  0  0  0  0
  -29.9473  -23.9935   21.5966 C   0  0  0  0  0  0  0  0  0  0  0  0
  -22.6455  -12.3210   20.5423 C   0  0  0  0  0  0  0  0  0  0  0  0
  -23.6350  -30.9109   22.7813 C   0  0  0  0  0  0  0  0  0  0  0  0
  -22.1127  -30.0753   20.0414 C   0  0  0  0  0  0  0  0  0  0  0  0
  -22.1000  -28.2000   17.1902 C   0  0  0  0  0  0  0  0  0  0  0  0
  -29.4915  -16.0856   19.0403 C   0  0  0  0  0  0  0  0  0  0  0  0
  -23.3961  -34.7104   26.1818 C   0  0  0  0  0  0  0  0  0  0  0  0
  -25.4591  -31.2384   21.0720 C   0  0  0  0  0  0  0  0  0  0  0  0
  -24.0783  -28.6471   20.7209 C   0  0  0  0  0  0  0  0  0  0  0  0
  -22.4261  -34.0660   25.1948 C   0  0  0  0  0  0  0  0  0  0  0  0
  -29.7762  -12.5833   18.4662 C   0  0  0  0  0  0  0  0  0  0  0  0
  -22.4545  -32.5472   25.3329 C   0  0  0  0  0  0  0  0  0  0  0  0
  -28.4749  -12.0153   19.0373 C   0  0  0  0  0  0  0  0  0  0  0  0
  -30.3001  -13.7504   19.3010 C   0  0  0  0  0  0  0  0  0  0  0  0
  -28.0297  -14.2598   20.1103 C   0  0  0  0  0  0  0  0  0  0  0  0
  -29.2892  -23.2970   19.0090 C   0  0  0  0  0  0  0  0  0  0  0  0
  -28.6352  -22.5903   20.1923 C   0  0  2  0  0  0  0  0  0  0  0  0
  -23.8469  -31.9900   25.0131 C   0  0  1  0  0  0  0  0  0  0  0  0
  -30.1225  -25.0492   20.5387 C   0  0  2  0  0  0  0  0  0  0  0  0
  -23.9625  -31.0851   21.3252 C   0  0  1  0  0  0  0  0  0  0  0  0
  -27.4288  -13.1239   19.2663 C   0  0  2  0  0  0  0  0  0  0  0  0
  -20.7034  -27.7030   15.1654 C   0  0  0  0  0  0  0  0  0  0  0  0
  -20.2663  -28.3422   21.7435 C   0  0  0  0  0  0  0  0  0  0  0  0
  -19.5487  -27.1724   19.6495 C   0  0  0  0  0  0  0  0  0  0  0  0
  -19.1174  -29.6142   19.9223 C   0  0  0  0  0  0  0  0  0  0  0  0
  -24.2000  -29.1908   15.3551 C   0  0  0  0  0  0  0  0  0  0  0  0
  -29.7254  -26.4166   21.0684 C   0  0  0  0  0  0  0  0  0  1  0  0
  -21.4795  -28.8109   19.5131 C   0  0  1  0  0  0  0  0  0  0  0  0
  -21.8133  -28.5660   15.7451 C   0  0  2  0  0  0  0  0  0  0  0  0
  -20.1304  -28.4858   20.2145 C   0  0  0  0  0  0  0  0  0  0  0  0
  -26.2307  -11.5267   20.7137 N   0  0  0  0  0  0  0  0  0  0  0  0
  -29.3137  -22.8803   21.4654 N   0  0  0  0  0  0  0  0  0  0  0  0
  -26.1527  -12.5753   19.8768 N   0  0  0  0  0  0  0  0  0  0  0  0
  -23.3838  -29.9411   20.6176 N   0  0  0  0  0  0  0  0  0  0  0  0
  -29.2564  -14.7633   19.4727 N   0  0  0  0  0  0  0  0  0  0  0  0
  -24.6236  -14.0757   18.8661 N   0  0  0  0  0  0  0  0  0  0  0  0
  -21.9699  -11.4106   21.3664 N   0  0  0  0  0  0  0  0  0  0  0  0
  -28.4152  -16.9528   19.2253 N   0  0  0  0  0  0  0  0  0  0  0  0
  -24.0603  -31.9535   23.5822 N   0  0  0  0  0  0  0  0  0  0  0  0
  -21.3761  -28.9792   18.0677 N   0  0  0  0  0  0  0  0  0  0  0  0
  -29.3130  -24.7509   19.3230 N   0  3  0  0  0  0  0  0  0  0  0  0
  -23.0352  -28.3822   14.9119 N   0  3  0  0  0  0  0  0  0  0  0  0
  -21.9878  -13.1828   19.9111 O   0  0  0  0  0  0  0  0  0  0  0  0
  -23.0393  -29.9056   23.1505 O   0  0  0  0  0  0  0  0  0  0  0  0
  -21.5049  -31.1440   19.9400 O   0  0  0  0  0  0  0  0  0  0  0  0
  -22.8847  -27.3093   17.5086 O   0  0  0  0  0  0  0  0  0  0  0  0
  -30.5586  -16.4174   18.5175 O   0  0  0  0  0  0  0  0  0  0  0  0
  -23.6421   -7.1730   24.5729 O   0  0  0  0  0  0  0  0  0  0  0  0
  -28.3529  -26.3836   21.4575 O   0  0  0  0  0  0  0  0  0  1  0  0
  -19.3470   -3.9686   23.2737 F   0  0  0  0  0  0  0  0  0  0  0  0
  -26.2015  -21.1348   20.0247 F   0  0  0  0  0  0  0  0  0  0  0  0
  -23.9620   -4.4513   24.2087 F   0  0  0  0  0  0  0  0  0  0  0  0
  1  2  1  0  0  0  0
  1  5  2  0  0  0  0
  2  6  2  0  0  0  0
  3 10  2  0  0  0  0
  3 18  1  0  0  0  0
  4 11  1  0  0  0  0
  4 18  2  0  0  0  0
  5 20  1  0  0  0  0
  6 22  1  0  0  0  0
  7  9  2  0  0  0  0
  7 23  1  0  0  0  0
  8 12  2  0  0  0  0
  8 21  1  0  0  0  0
  9 25  1  0  0  0  0
 10 26  1  0  0  0  0
 11 26  2  0  0  0  0
 12 27  1  0  0  0  0
 13 14  2  0  0  0  0
 13 28  1  0  0  0  0
 14 29  1  0  0  0  0
 15 24  1  0  0  0  0
 15 27  2  0  0  0  0
 16 25  2  0  0  0  0
 16 30  1  0  0  0  0
 17 29  2  0  0  0  0
 17 31  1  0  0  0  0
 18 32  1  0  0  0  0
 19 32  1  0  0  0  0
 19 33  2  0  0  0  0
 19 35  1  0  0  0  0
 20 22  2  0  0  0  0
 20 40  1  0  0  0  0
 21 24  2  0  0  0  0
 21 41  1  0  0  0  0
 22 51  1  0  0  0  0
 23 30  2  0  0  0  0
 23 50  1  0  0  0  0
 24 42  1  0  0  0  0
 25 71  1  0  0  0  0
 26 81  1  0  0  0  0
 27 82  1  0  0  0  0
 28 31  2  0  0  0  0
 28 81  1  0  0  0  0
 29 83  1  0  0  0  0
 30 84  1  0  0  0  0
 31 85  1  0  0  0  0
 32 64  2  0  0  0  0
 33 66  1  0  0  0  0
 33 69  1  0  0  0  0
 34 52  1  0  0  0  0
 34 65  2  0  0  0  0
 35 70  1  0  0  0  0
 35 76  2  0  0  0  0
 36 53  1  0  0  0  0
 36 72  1  0  0  0  0
 36 77  2  0  0  0  0
 37 61  1  0  0  0  0
 37 67  1  0  0  0  0
 37 78  2  0  0  0  0
 38 62  1  0  0  0  0
 38 73  1  0  0  0  0
 38 79  2  0  0  0  0
 39 68  1  0  0  0  0
 39 71  1  0  0  0  0
 39 80  2  0  0  0  0
 40 43  1  0  0  0  0
 41 53  1  0  0  0  0
 42 67  1  0  0  0  0
 43 45  1  0  0  0  0
 44 46  1  0  0  0  0
 44 47  1  0  0  0  0
 45 51  1  0  0  0  0
 46 54  1  0  0  0  0
 47 68  1  0  0  0  0
 48 54  1  0  0  0  0
 48 68  1  0  0  0  0
 49 50  1  0  0  0  0
 49 74  1  0  0  0  0
 50 65  1  0  0  0  0
 51 72  1  0  0  0  0
 52 60  1  0  0  0  0
 52 74  1  0  0  0  0
 53 67  1  0  0  0  0
 54 66  1  0  0  0  0
 55 62  1  0  0  0  0
 56 63  1  0  0  0  0
 57 63  1  0  0  0  0
 58 63  1  0  0  0  0
 59 75  1  0  0  0  0
 60 82  1  0  0  0  0
 61 63  1  0  0  0  0
 61 73  1  0  0  0  0
 62 75  1  0  0  0  0
 64 66  1  0  0  0  0
M  CHG  2  74   1  75   1
M  ISO  4  39 100  60 101  71 100  82 101
M  END
> <Batch ID>
0171

> <Smiles>
CNC(C)C(=O)NC(C(=O)N1Cc2cc([101O:1][101CH2:1]C3=NCC(c4ccc([100NH:0][100C:0](=O)N5CCCC(n6nc(-c7ccc(Oc8ccc(F)cc8F)cc7)c(C(N)=O)c6N)C5)cc4F)NC3)ccc2CC1C(=O)NC1CCCc2ccccc21)C(C)(C)C

> <Shape>
0.328

> <Color>
0.086

> <Negative vol penalty>
0.000

$$$$

  -OEChem-04052304233D

 89 97  0     1  0  0  0  0  0999 V2000
  -29.8632  -34.0013   26.5935 C   0  0  0  0  0  0  0  0  0  0  0  0
  -29.4508  -32.8640   25.9066 C   0  0  0  0  0  0  0  0  0  0  0  0
  -24.0655   -9.8476   22.1396 C   0  0  0  0  0  0  0  0  0  0  0  0
  -24.5219  -11.3703   23.9590 C   0  0  0  0  0  0  0  0  0  0  0  0
  -28.9277  -34.9636   26.9715 C   0  0  0  0  0  0  0  0  0  0  0  0
  -28.1024  -32.6878   25.5981 C   0  0  0  0  0  0  0  0  0  0  0  0
  -27.3880  -31.1127   20.8385 C   0  0  0  0  0  0  0  0  0  0  0  0
  -23.6306   -8.8870   23.0526 C   0  0  0  0  0  0  0  0  0  0  0  0
  -24.0869  -10.4097   24.8721 C   0  0  0  0  0  0  0  0  0  0  0  0
  -27.6176  -29.7634   20.5731 C   0  0  0  0  0  0  0  0  0  0  0  0
  -20.8505   -8.2577   24.8715 C   0  0  0  0  0  0  0  0  0  0  0  0
  -19.6691   -7.5755   24.5811 C   0  0  0  0  0  0  0  0  0  0  0  0
  -28.4113  -20.8255   20.1549 C   0  0  0  0  0  0  0  0  0  0  0  0
  -25.2440  -29.3456   20.6757 C   0  0  0  0  0  0  0  0  0  0  0  0
  -30.5710  -19.0878   19.8400 C   0  0  0  0  0  0  0  0  0  0  0  0
  -20.8757   -5.4823   24.5899 C   0  0  0  0  0  0  0  0  0  0  0  0
  -24.5113  -11.0892   22.5928 C   0  0  0  0  0  0  0  0  0  0  0  0
  -29.7151  -21.3199   20.1897 C   0  0  0  0  0  0  0  0  0  0  0  0
  -24.1821  -13.0698   21.0191 C   0  0  0  0  0  0  0  0  0  0  0  0
  -27.5685  -34.8037   26.6590 C   0  0  0  0  0  0  0  0  0  0  0  0
  -26.0833  -31.5874   21.0356 C   0  0  0  0  0  0  0  0  0  0  0  0
  -27.1476  -33.6482   25.9734 C   0  0  0  0  0  0  0  0  0  0  0  0
  -25.0003  -30.7018   20.9409 C   0  0  0  0  0  0  0  0  0  0  0  0
  -29.2671  -18.5933   19.8053 C   0  0  0  0  0  0  0  0  0  0  0  0
  -23.6412   -9.1680   24.4188 C   0  0  0  0  0  0  0  0  0  0  0  0
  -26.5458  -28.8791   20.4945 C   0  0  0  0  0  0  0  0  0  0  0  0
  -22.0446   -7.5523   25.0210 C   0  0  0  0  0  0  0  0  0  0  0  0
  -19.6816   -6.1878   24.4403 C   0  0  0  0  0  0  0  0  0  0  0  0
  -28.1873  -19.4621   19.9627 C   0  0  0  0  0  0  0  0  0  0  0  0
  -30.7949  -20.4511   20.0323 C   0  0  0  0  0  0  0  0  0  0  0  0
  -22.0571   -6.1646   24.8802 C   0  0  0  0  0  0  0  0  0  0  0  0
  -24.9613  -12.0817   21.6502 C   0  0  0  0  0  0  0  0  0  0  0  0
  -25.0708  -13.7530   20.2255 C   0  0  0  0  0  0  0  0  0  0  0  0
  -29.9493  -22.7636   20.3934 C   0  0  0  0  0  0  0  0  0  0  0  0
  -22.7802  -13.3454   21.1394 C   0  0  0  0  0  0  0  0  0  0  0  0
  -24.5391  -32.9686   23.4463 C   0  0  0  0  0  0  0  0  0  0  0  0
  -28.2007  -25.6591   19.8074 C   0  0  0  0  0  0  0  0  0  0  0  0
  -22.1664  -33.2514   21.2524 C   0  0  0  0  0  0  0  0  0  0  0  0
  -20.7364  -32.1168   18.3689 C   0  0  0  0  0  0  0  0  0  0  0  0
  -30.0036  -16.2125   19.4370 C   0  0  0  0  0  0  0  0  0  0  0  0
  -26.5877  -35.8481   27.1299 C   0  0  0  0  0  0  0  0  0  0  0  0
  -25.8503  -33.0506   21.2946 C   0  0  0  0  0  0  0  0  0  0  0  0
  -23.5789  -31.1648   21.1245 C   0  0  0  0  0  0  0  0  0  0  0  0
  -25.2305  -35.7660   26.4360 C   0  0  0  0  0  0  0  0  0  0  0  0
  -29.8558  -12.6865   18.9651 C   0  0  0  0  0  0  0  0  0  0  0  0
  -24.7371  -34.3231   26.3972 C   0  0  0  0  0  0  0  0  0  0  0  0
  -28.5051  -12.2961   19.5697 C   0  0  0  0  0  0  0  0  0  0  0  0
  -30.5298  -13.8051   19.7576 C   0  0  0  0  0  0  0  0  0  0  0  0
  -28.3506  -14.6074   20.5802 C   0  0  0  0  0  0  0  0  0  0  0  0
  -25.6973  -33.4330   25.5989 C   0  0  1  0  0  0  0  0  0  0  0  0
  -24.5206  -33.3304   21.9880 C   0  0  1  0  0  0  0  0  0  0  0  0
  -27.6038  -13.5288   19.7786 C   0  0  2  0  0  0  0  0  0  0  0  0
  -18.7839  -32.5233   16.8458 C   0  0  0  0  0  0  0  0  0  0  0  0
  -29.5393  -25.3729   17.0633 C   0  0  0  0  0  0  0  0  0  0  0  0
  -31.7227  -25.0545   18.2536 C   0  0  0  0  0  0  0  0  0  0  0  0
  -20.3204  -31.8777   23.2562 C   0  0  0  0  0  0  0  0  0  0  0  0
  -18.7121  -31.4610   21.3832 C   0  0  0  0  0  0  0  0  0  0  0  0
  -19.2876  -33.7995   22.0337 C   0  0  0  0  0  0  0  0  0  0  0  0
  -22.5042  -32.7511   16.0817 C   0  0  0  0  0  0  0  0  0  0  0  0
  -28.1228  -27.1537   20.0564 C   0  0  0  0  0  0  0  0  0  1  0  0
  -29.5894  -25.0761   19.6059 C   0  0  2  0  0  0  0  0  0  0  0  0
  -21.0024  -32.3929   20.8199 C   0  0  1  0  0  0  0  0  0  0  0  0
  -20.2412  -32.8485   17.1345 C   0  0  2  0  0  0  0  0  0  0  0  0
  -30.3069  -25.6276   18.3642 C   0  0  0  0  0  0  0  0  0  0  0  0
  -19.8574  -32.3734   21.8717 C   0  0  0  0  0  0  0  0  0  0  0  0
  -26.2462  -12.1295   21.2886 N   0  0  0  0  0  0  0  0  0  0  0  0
  -26.2812  -13.1557   20.4216 N   0  0  0  0  0  0  0  0  0  0  0  0
  -23.4031  -32.6037   21.3819 N   0  0  0  0  0  0  0  0  0  0  0  0
  -29.6183  -14.9410   19.9121 N   0  0  0  0  0  0  0  0  0  0  0  0
  -24.9272  -14.8003   19.3859 N   0  0  0  0  0  0  0  0  0  0  0  0
  -22.0137  -12.5467   21.9991 N   0  0  0  0  0  0  0  0  0  0  0  0
  -29.0425  -17.2080   19.6097 N   0  0  0  0  0  0  0  0  0  0  0  0
  -29.4406  -23.6253   19.5022 N   0  0  0  0  0  0  0  0  0  0  0  0
  -25.5063  -33.6308   24.1780 N   0  0  0  0  0  0  0  0  0  0  0  0
  -20.5990  -32.8837   19.5066 N   0  0  0  0  0  0  0  0  0  0  0  0
  -30.6600  -23.1410   21.4562 N   0  3  0  0  0  0  0  0  0  0  0  0
  -21.0528  -32.4652   15.9448 N   0  3  0  0  0  0  0  0  0  0  0  0
  -22.2206  -14.2619   20.4910 O   0  0  0  0  0  0  0  0  0  0  0  0
  -23.7343  -32.1505   23.8760 O   0  0  0  0  0  0  0  0  0  0  0  0
  -27.1876  -24.9598   19.7771 O   0  0  0  0  0  0  0  0  0  0  0  0
  -21.9865  -34.4539   21.4606 O   0  0  0  0  0  0  0  0  0  0  0  0
  -21.1955  -30.9774   18.3286 O   0  0  0  0  0  0  0  0  0  0  0  0
  -31.0941  -16.3982   18.8909 O   0  0  0  0  0  0  0  0  0  0  0  0
  -23.2165   -8.2310   25.3100 O   0  0  0  0  0  0  0  0  0  0  0  0
  -26.7671  -27.5615   20.2362 O   0  0  0  0  0  0  0  0  0  1  0  0
  -18.5467   -5.5326   24.1630 F   0  0  0  0  0  0  0  0  0  0  0  0
  -26.9298  -18.9978   19.9312 F   0  0  0  0  0  0  0  0  0  0  0  0
  -32.0515  -20.9167   20.0644 F   0  0  0  0  0  0  0  0  0  0  0  0
  -23.2010   -5.4813   25.0238 F   0  0  0  0  0  0  0  0  0  0  0  0
  1  2  1  0  0  0  0
  1  5  2  0  0  0  0
  2  6  2  0  0  0  0
  3  8  2  0  0  0  0
  3 17  1  0  0  0  0
  4  9  1  0  0  0  0
  4 17  2  0  0  0  0
  5 20  1  0  0  0  0
  6 22  1  0  0  0  0
  7 10  2  0  0  0  0
  7 21  1  0  0  0  0
  8 25  1  0  0  0  0
  9 25  2  0  0  0  0
 10 26  1  0  0  0  0
 11 12  2  0  0  0  0
 11 27  1  0  0  0  0
 12 28  1  0  0  0  0
 13 18  1  0  0  0  0
 13 29  2  0  0  0  0
 14 23  1  0  0  0  0
 14 26  2  0  0  0  0
 15 24  2  0  0  0  0
 15 30  1  0  0  0  0
 16 28  2  0  0  0  0
 16 31  1  0  0  0  0
 17 32  1  0  0  0  0
 18 30  2  0  0  0  0
 18 34  1  0  0  0  0
 19 32  1  0  0  0  0
 19 33  2  0  0  0  0
 19 35  1  0  0  0  0
 20 22  2  0  0  0  0
 20 41  1  0  0  0  0
 21 23  2  0  0  0  0
 21 42  1  0  0  0  0
 22 50  1  0  0  0  0
 23 43  1  0  0  0  0
 24 29  1  0  0  0  0
 24 72  1  0  0  0  0
 25 84  1  0  0  0  0
 26 85  1  0  0  0  0
 27 31  2  0  0  0  0
 27 84  1  0  0  0  0
 28 86  1  0  0  0  0
 29 87  1  0  0  0  0
 30 88  1  0  0  0  0
 31 89  1  0  0  0  0
 32 66  2  0  0  0  0
 33 67  1  0  0  0  0
 33 70  1  0  0  0  0
 34 73  1  0  0  0  0
 34 76  2  0  0  0  0
 35 71  1  0  0  0  0
 35 78  2  0  0  0  0
 36 51  1  0  0  0  0
 36 74  1  0  0  0  0
 36 79  2  0  0  0  0
 37 60  1  0  0  0  0
 37 61  1  0  0  0  0
 37 80  2  0  0  0  0
 38 62  1  0  0  0  0
 38 68  1  0  0  0  0
 38 81  2  0  0  0  0
 39 63  1  0  0  0  0
 39 75  1  0  0  0  0
 39 82  2  0  0  0  0
 40 69  1  0  0  0  0
 40 72  1  0  0  0  0
 40 83  2  0  0  0  0
 41 44  1  0  0  0  0
 42 51  1  0  0  0  0
 43 68  1  0  0  0  0
 44 46  1  0  0  0  0
 45 47  1  0  0  0  0
 45 48  1  0  0  0  0
 46 50  1  0  0  0  0
 47 52  1  0  0  0  0
 48 69  1  0  0  0  0
 49 52  1  0  0  0  0
 49 69  1  0  0  0  0
 50 74  1  0  0  0  0
 51 68  1  0  0  0  0
 52 67  1  0  0  0  0
 53 63  1  0  0  0  0
 54 64  1  0  0  0  0
 55 64  1  0  0  0  0
 56 65  1  0  0  0  0
 57 65  1  0  0  0  0
 58 65  1  0  0  0  0
 59 77  1  0  0  0  0
 60 85  1  0  0  0  0
 61 64  1  0  0  0  0
 61 73  1  0  0  0  0
 62 65  1  0  0  0  0
 62 75  1  0  0  0  0
 63 77  1  0  0  0  0
 66 67  1  0  0  0  0
M  CHG  2  76   1  77   1
M  ISO  4  40 100  60 101  72 100  85 101
M  END
> <Batch ID>
0171

> <Smiles>
CNC(C)C(=O)NC(C(=O)N1Cc2cc([101O:1][101CH2:1]C(=O)C(NC(=N)c3cc(F)c([100NH:0][100C:0](=O)N4CCCC(n5nc(-c6ccc(Oc7ccc(F)cc7F)cc6)c(C(N)=O)c5N)C4)cc3F)C(C)C)ccc2CC1C(=O)NC1CCCc2ccccc21)C(C)(C)C

> <Shape>
0.298

> <Color>
0.116

> <Negative vol penalty>
0.000

$$$$

  -OEChem-04052304233D

 86 94  0     1  0  0  0  0  0999 V2000
  -29.3964  -32.6894   24.7023 C   0  0  0  0  0  0  0  0  0  0  0  0
  -29.1651  -31.4276   24.1640 C   0  0  0  0  0  0  0  0  0  0  0  0
  -23.0986   -9.9811   21.5420 C   0  0  0  0  0  0  0  0  0  0  0  0
  -23.7003  -11.1651   23.5602 C   0  0  0  0  0  0  0  0  0  0  0  0
  -28.3601  -33.3786   25.3309 C   0  0  0  0  0  0  0  0  0  0  0  0
  -27.8974  -30.8538   24.2549 C   0  0  0  0  0  0  0  0  0  0  0  0
  -26.4050  -28.7403   19.9016 C   0  0  0  0  0  0  0  0  0  0  0  0
  -31.9434  -17.3594   20.9480 C   0  0  0  0  0  0  0  0  0  0  0  0
  -22.3298   -9.0919   22.2928 C   0  0  0  0  0  0  0  0  0  0  0  0
  -22.9314  -10.2759   24.3111 C   0  0  0  0  0  0  0  0  0  0  0  0
  -26.9392  -27.4924   19.5837 C   0  0  0  0  0  0  0  0  0  0  0  0
  -22.8529   -6.3908   24.2561 C   0  0  0  0  0  0  0  0  0  0  0  0
  -32.4752  -18.5949   21.3171 C   0  0  0  0  0  0  0  0  0  0  0  0
  -22.9750   -5.0305   23.9728 C   0  0  0  0  0  0  0  0  0  0  0  0
  -24.9159  -26.4345   20.3623 C   0  0  0  0  0  0  0  0  0  0  0  0
  -29.7314  -18.3293   20.8886 C   0  0  0  0  0  0  0  0  0  0  0  0
  -20.6215   -4.9312   23.4358 C   0  0  0  0  0  0  0  0  0  0  0  0
  -23.7840  -11.0177   22.1757 C   0  0  0  0  0  0  0  0  0  0  0  0
  -24.1545  -13.1454   20.8181 C   0  0  0  0  0  0  0  0  0  0  0  0
  -27.0767  -32.8170   25.4210 C   0  0  0  0  0  0  0  0  0  0  0  0
  -25.1243  -28.8441   20.4634 C   0  0  0  0  0  0  0  0  0  0  0  0
  -26.8433  -31.5355   24.8864 C   0  0  0  0  0  0  0  0  0  0  0  0
  -24.3667  -27.6851   20.6842 C   0  0  0  0  0  0  0  0  0  0  0  0
  -30.5715  -17.2266   20.7337 C   0  0  0  0  0  0  0  0  0  0  0  0
  -30.2633  -19.5648   21.2577 C   0  0  0  0  0  0  0  0  0  0  0  0
  -22.2461   -9.2393   23.6774 C   0  0  0  0  0  0  0  0  0  0  0  0
  -26.1958  -26.3391   19.8167 C   0  0  0  0  0  0  0  0  0  0  0  0
  -21.6151   -7.0213   24.1294 C   0  0  0  0  0  0  0  0  0  0  0  0
  -21.8593   -4.3007   23.5626 C   0  0  0  0  0  0  0  0  0  0  0  0
  -31.6352  -19.6976   21.4720 C   0  0  0  0  0  0  0  0  0  0  0  0
  -20.4994   -6.2915   23.7192 C   0  0  0  0  0  0  0  0  0  0  0  0
  -24.5789  -11.9362   21.4007 C   0  0  0  0  0  0  0  0  0  0  0  0
  -25.2751  -13.6385   20.1957 C   0  0  0  0  0  0  0  0  0  0  0  0
  -26.8634  -24.2094   20.5163 C   0  0  0  0  0  0  0  0  0  1  0  0
  -22.8628  -13.7673   20.8378 C   0  0  0  0  0  0  0  0  0  0  0  0
  -27.3623  -22.9829   20.3269 C   0  0  0  0  0  0  0  0  0  0  0  0
  -27.4790  -22.0740   21.4933 C   0  0  0  0  0  0  0  0  0  0  0  0
  -28.0426  -20.7093   21.2387 C   0  0  0  0  0  0  0  0  0  0  0  0
  -23.9630  -29.9365   23.2132 C   0  0  0  0  0  0  0  0  0  0  0  0
  -21.1070  -29.3522   21.7904 C   0  0  0  0  0  0  0  0  0  0  0  0
  -19.3424  -27.6191   19.4389 C   0  0  0  0  0  0  0  0  0  0  0  0
  -30.7253  -14.7778   20.1627 C   0  0  0  0  0  0  0  0  0  0  0  0
  -26.0001  -33.5799   26.1515 C   0  0  0  0  0  0  0  0  0  0  0  0
  -24.5518  -30.1994   20.7760 C   0  0  0  0  0  0  0  0  0  0  0  0
  -22.9789  -27.7438   21.2665 C   0  0  0  0  0  0  0  0  0  0  0  0
  -24.5915  -33.0605   25.8754 C   0  0  0  0  0  0  0  0  0  0  0  0
  -29.7548  -11.4694   19.2738 C   0  0  0  0  0  0  0  0  0  0  0  0
  -24.5530  -31.5393   25.9818 C   0  0  0  0  0  0  0  0  0  0  0  0
  -28.2868  -11.3954   19.7000 C   0  0  0  0  0  0  0  0  0  0  0  0
  -30.5876  -12.2982   20.2502 C   0  0  0  0  0  0  0  0  0  0  0  0
  -28.5971  -13.5684   20.9525 C   0  0  0  0  0  0  0  0  0  0  0  0
  -25.4757  -30.8901   24.9433 C   0  0  1  0  0  0  0  0  0  0  0  0
  -23.4412  -30.1524   21.8208 C   0  0  1  0  0  0  0  0  0  0  0  0
  -27.7054  -12.7981   19.9650 C   0  0  2  0  0  0  0  0  0  0  0  0
  -17.0183  -27.3286   18.5382 C   0  0  0  0  0  0  0  0  0  0  0  0
  -20.3674  -27.6917   24.2410 C   0  0  0  0  0  0  0  0  0  0  0  0
  -18.5048  -26.6811   22.9077 C   0  0  0  0  0  0  0  0  0  0  0  0
  -18.5226  -29.1338   23.3625 C   0  0  0  0  0  0  0  0  0  0  0  0
  -20.1501  -28.5267   16.7402 C   0  0  0  0  0  0  0  0  0  0  0  0
  -20.1748  -28.1675   21.7107 C   0  0  1  0  0  0  0  0  0  0  0  0
  -18.3365  -28.0737   18.3969 C   0  0  2  0  0  0  0  0  0  0  0  0
  -19.4193  -27.9169   23.0463 C   0  0  0  0  0  0  0  0  0  0  0  0
  -25.8685  -11.6768   21.1690 N   0  0  0  0  0  0  0  0  0  0  0  0
  -26.2640  -12.7299   20.4338 N   0  0  0  0  0  0  0  0  0  0  0  0
  -22.4655  -29.0918   21.5613 N   0  0  0  0  0  0  0  0  0  0  0  0
  -29.9788  -13.6152   20.4491 N   0  0  0  0  0  0  0  0  0  0  0  0
  -25.5013  -14.7564   19.4733 N   0  0  0  0  0  0  0  0  0  0  0  0
  -21.8226  -13.1254   21.5236 N   0  0  0  0  0  0  0  0  0  0  0  0
  -29.4096  -20.6813   21.4138 N   0  0  0  0  0  0  0  0  0  0  0  0
  -30.0314  -15.9714   20.3588 N   0  0  0  0  0  0  0  0  0  0  0  0
  -24.8544  -30.9039   23.6363 N   0  0  0  0  0  0  0  0  0  0  0  0
  -19.3022  -28.4108   20.5671 N   0  0  0  0  0  0  0  0  0  0  0  0
  -18.8673  -27.8336   17.0252 N   0  3  0  0  0  0  0  0  0  0  0  0
  -22.6335  -14.8517   20.2504 O   0  0  0  0  0  0  0  0  0  0  0  0
  -27.1404  -22.3391   22.6362 O   0  0  0  0  0  0  0  0  0  0  0  0
  -27.2488  -19.8345   20.9357 O   0  0  0  0  0  0  0  0  0  0  0  0
  -23.5837  -28.9650   23.8567 O   0  0  0  0  0  0  0  0  0  0  0  0
  -20.6458  -30.4689   22.0395 O   0  0  0  0  0  0  0  0  0  0  0  0
  -20.0866  -26.6556   19.2706 O   0  0  0  0  0  0  0  0  0  0  0  0
  -31.8850  -14.7181   19.7463 O   0  0  0  0  0  0  0  0  0  0  0  0
  -27.7742  -22.5193   19.0971 O   0  0  0  0  0  0  0  0  0  0  0  0
  -21.4957   -8.3720   24.4103 O   0  0  0  0  0  0  0  0  0  0  0  0
  -26.7151  -25.1197   19.5078 O   0  0  0  0  0  0  0  0  0  1  0  0
  -21.9770   -2.9947   23.2890 F   0  0  0  0  0  0  0  0  0  0  0  0
  -32.1576  -20.8799   21.8274 F   0  0  0  0  0  0  0  0  0  0  0  0
  -19.3079   -6.8920   23.5945 F   0  0  0  0  0  0  0  0  0  0  0  0
  1  2  1  0  0  0  0
  1  5  2  0  0  0  0
  2  6  2  0  0  0  0
  3  9  2  0  0  0  0
  3 18  1  0  0  0  0
  4 10  1  0  0  0  0
  4 18  2  0  0  0  0
  5 20  1  0  0  0  0
  6 22  1  0  0  0  0
  7 11  2  0  0  0  0
  7 21  1  0  0  0  0
  8 13  2  0  0  0  0
  8 24  1  0  0  0  0
  9 26  1  0  0  0  0
 10 26  2  0  0  0  0
 11 27  1  0  0  0  0
 12 14  2  0  0  0  0
 12 28  1  0  0  0  0
 13 30  1  0  0  0  0
 14 29  1  0  0  0  0
 15 23  1  0  0  0  0
 15 27  2  0  0  0  0
 16 24  2  0  0  0  0
 16 25  1  0  0  0  0
 17 29  2  0  0  0  0
 17 31  1  0  0  0  0
 18 32  1  0  0  0  0
 19 32  1  0  0  0  0
 19 33  2  0  0  0  0
 19 35  1  0  0  0  0
 20 22  2  0  0  0  0
 20 43  1  0  0  0  0
 21 23  2  0  0  0  0
 21 44  1  0  0  0  0
 22 52  1  0  0  0  0
 23 45  1  0  0  0  0
 24 70  1  0  0  0  0
 25 30  2  0  0  0  0
 25 69  1  0  0  0  0
 26 82  1  0  0  0  0
 27 83  1  0  0  0  0
 28 31  2  0  0  0  0
 28 82  1  0  0  0  0
 29 84  1  0  0  0  0
 30 85  1  0  0  0  0
 31 86  1  0  0  0  0
 32 63  2  0  0  0  0
 33 64  1  0  0  0  0
 33 67  1  0  0  0  0
 34 36  2  0  0  0  0
 34 83  1  0  0  0  0
 35 68  1  0  0  0  0
 35 74  2  0  0  0  0
 36 37  1  0  0  0  0
 36 81  1  0  0  0  0
 37 38  1  0  0  0  0
 37 75  2  0  0  0  0
 38 69  1  0  0  0  0
 38 76  2  0  0  0  0
 39 53  1  0  0  0  0
 39 71  1  0  0  0  0
 39 77  2  0  0  0  0
 40 60  1  0  0  0  0
 40 65  1  0  0  0  0
 40 78  2  0  0  0  0
 41 61  1  0  0  0  0
 41 72  1  0  0  0  0
 41 79  2  0  0  0  0
 42 66  1  0  0  0  0
 42 70  1  0  0  0  0
 42 80  2  0  0  0  0
 43 46  1  0  0  0  0
 44 53  1  0  0  0  0
 45 65  1  0  0  0  0
 46 48  1  0  0  0  0
 47 49  1  0  0  0  0
 47 50  1  0  0  0  0
 48 52  1  0  0  0  0
 49 54  1  0  0  0  0
 50 66  1  0  0  0  0
 51 54  1  0  0  0  0
 51 66  1  0  0  0  0
 52 71  1  0  0  0  0
 53 65  1  0  0  0  0
 54 64  1  0  0  0  0
 55 61  1  0  0  0  0
 56 62  1  0  0  0  0
 57 62  1  0  0  0  0
 58 62  1  0  0  0  0
 59 73  1  0  0  0  0
 60 62  1  0  0  0  0
 60 72  1  0  0  0  0
 61 73  1  0  0  0  0
 63 64  1  0  0  0  0
M  CHG  1  73   1
M  ISO  4  34 101  42 100  70 100  83 101
M  END
> <Batch ID>
0171

> <Smiles>
CNC(C)C(=O)NC(C(=O)N1Cc2cc([101O:1][101CH2:1]C(=O)C(=O)C(=O)Nc3cc([100NH:0][100C:0](=O)N4CCCC(n5nc(-c6ccc(Oc7ccc(F)cc7F)cc6)c(C(N)=O)c5N)C4)ccc3F)ccc2CC1C(=O)NC1CCCc2ccccc21)C(C)(C)C

> <Shape>
0.361

> <Color>
0.150

> <Negative vol penalty>
0.000

$$$$

  -OEChem-04052304233D

 88 96  0     1  0  0  0  0  0999 V2000
  -16.2052  -22.0547   16.1892 C   0  0  0  0  0  0  0  0  0  0  0  0
  -17.2507  -21.2710   15.7115 C   0  0  0  0  0  0  0  0  0  0  0  0
  -23.2888   -9.7948   19.9071 C   0  0  0  0  0  0  0  0  0  0  0  0
  -23.7144   -9.9369   22.2810 C   0  0  0  0  0  0  0  0  0  0  0  0
  -15.4060  -21.5882   17.2320 C   0  0  0  0  0  0  0  0  0  0  0  0
  -17.4983  -20.0207   16.2772 C   0  0  0  0  0  0  0  0  0  0  0  0
  -18.3491  -16.4459   12.7927 C   0  0  0  0  0  0  0  0  0  0  0  0
  -22.5554   -8.6255   20.1085 C   0  0  0  0  0  0  0  0  0  0  0  0
  -22.9810   -8.7676   22.4825 C   0  0  0  0  0  0  0  0  0  0  0  0
  -19.6116  -16.4204   12.2018 C   0  0  0  0  0  0  0  0  0  0  0  0
  -19.7281   -7.8701   22.6659 C   0  0  0  0  0  0  0  0  0  0  0  0
  -18.8142   -7.8536   23.7195 C   0  0  0  0  0  0  0  0  0  0  0  0
  -27.1510  -17.1295   15.3398 C   0  0  0  0  0  0  0  0  0  0  0  0
  -20.2566  -14.6195   13.6714 C   0  0  0  0  0  0  0  0  0  0  0  0
  -25.7495  -19.0965   15.4006 C   0  0  0  0  0  0  0  0  0  0  0  0
  -20.0016   -6.0029   24.7205 C   0  0  0  0  0  0  0  0  0  0  0  0
  -23.8683  -10.4505   20.9933 C   0  0  0  0  0  0  0  0  0  0  0  0
  -28.0082  -17.7113   16.2737 C   0  0  0  0  0  0  0  0  0  0  0  0
  -24.1402  -12.9791   20.7940 C   0  0  0  0  0  0  0  0  0  0  0  0
  -15.6378  -20.3275   17.8043 C   0  0  0  0  0  0  0  0  0  0  0  0
  -18.0340  -15.5642   13.8366 C   0  0  0  0  0  0  0  0  0  0  0  0
  -16.7022  -19.5375   17.3296 C   0  0  0  0  0  0  0  0  0  0  0  0
  -18.9886  -14.6341   14.2722 C   0  0  0  0  0  0  0  0  0  0  0  0
  -27.7361  -18.9858   16.7711 C   0  0  0  0  0  0  0  0  0  0  0  0
  -26.0216  -17.8221   14.9032 C   0  0  0  0  0  0  0  0  0  0  0  0
  -22.4015   -8.1120   21.3962 C   0  0  0  0  0  0  0  0  0  0  0  0
  -20.5665  -15.5091   12.6430 C   0  0  0  0  0  0  0  0  0  0  0  0
  -20.7788   -6.9530   22.6395 C   0  0  0  0  0  0  0  0  0  0  0  0
  -18.9510   -6.9201   24.7468 C   0  0  0  0  0  0  0  0  0  0  0  0
  -26.6067  -19.6784   16.3345 C   0  0  0  0  0  0  0  0  0  0  0  0
  -20.9155   -6.0194   23.6669 C   0  0  0  0  0  0  0  0  0  0  0  0
  -24.6265  -11.6580   20.7857 C   0  0  0  0  0  0  0  0  0  0  0  0
  -25.2476  -13.7541   20.5500 C   0  0  0  0  0  0  0  0  0  0  0  0
  -22.8857  -15.7169   12.8644 C   0  0  0  0  0  0  0  0  0  1  0  0
  -29.2037  -16.9513   16.7210 C   0  0  0  0  0  0  0  0  0  0  0  0
  -22.8068  -13.4625   21.0037 C   0  0  0  0  0  0  0  0  0  0  0  0
  -24.1431  -15.7150   12.4055 C   0  0  0  0  0  0  0  0  0  0  0  0
  -25.2668  -15.9826   13.3615 C   0  0  0  0  0  0  0  0  0  0  0  0
  -17.2045  -15.9038   16.8863 C   0  0  0  0  0  0  0  0  0  0  0  0
  -16.7929  -12.6901   16.7275 C   0  0  0  0  0  0  0  0  0  0  0  0
  -17.5771   -9.7407   15.2001 C   0  0  0  0  0  0  0  0  0  0  0  0
  -29.9259  -14.8378   17.7864 C   0  0  0  0  0  0  0  0  0  0  0  0
  -14.7768  -19.8860   18.9613 C   0  0  0  0  0  0  0  0  0  0  0  0
  -16.6588  -15.5863   14.4455 C   0  0  0  0  0  0  0  0  0  0  0  0
  -18.6934  -13.6525   15.3758 C   0  0  0  0  0  0  0  0  0  0  0  0
  -14.8709  -18.3910   19.2548 C   0  0  0  0  0  0  0  0  0  0  0  0
  -30.1653  -12.5444   20.4660 C   0  0  0  0  0  0  0  0  0  0  0  0
  -16.3280  -17.9400   19.2670 C   0  0  0  0  0  0  0  0  0  0  0  0
  -28.7055  -12.2218   20.7967 C   0  0  0  0  0  0  0  0  0  0  0  0
  -30.3845  -12.7040   18.9622 C   0  0  0  0  0  0  0  0  0  0  0  0
  -28.0268  -13.3270   18.6283 C   0  0  0  0  0  0  0  0  0  0  0  0
  -16.9867  -18.1653   17.9007 C   0  0  1  0  0  0  0  0  0  0  0  0
  -16.6170  -14.9894   15.8488 C   0  0  1  0  0  0  0  0  0  0  0  0
  -27.7404  -13.2261   20.1352 C   0  0  1  0  0  0  0  0  0  0  0  0
  -29.5362  -20.6916   17.1405 C   0  0  0  0  0  0  0  0  0  0  0  0
  -17.1127   -7.2774   15.3169 C   0  0  0  0  0  0  0  0  0  0  0  0
  -18.6335  -12.4605   19.1502 C   0  0  0  0  0  0  0  0  0  0  0  0
  -18.8905  -10.0236   18.6365 C   0  0  0  0  0  0  0  0  0  0  0  0
  -16.6436  -10.9465   19.2045 C   0  0  0  0  0  0  0  0  0  0  0  0
  -16.4249   -9.7110   12.4742 C   0  0  0  0  0  0  0  0  0  0  0  0
  -28.6402  -19.6303   17.7712 C   0  0  0  0  0  0  0  0  0  0  0  0
  -17.6741  -11.4866   16.9599 C   0  0  1  0  0  0  0  0  0  0  0  0
  -16.7057   -8.6046   14.6959 C   0  0  2  0  0  0  0  0  0  0  0  0
  -17.9669  -11.2490   18.4683 C   0  0  0  0  0  0  0  0  0  0  0  0
  -25.9404  -11.5937   20.5545 N   0  0  0  0  0  0  0  0  0  0  0  0
  -26.2892  -12.8840   20.4152 N   0  0  0  0  0  0  0  0  0  0  0  0
  -17.3367  -13.7177   15.9438 N   0  0  0  0  0  0  0  0  0  0  0  0
  -29.4388  -13.6781   18.4143 N   0  0  0  0  0  0  0  0  0  0  0  0
  -25.4222  -15.0882   20.4395 N   0  0  0  0  0  0  0  0  0  0  0  0
  -21.7878  -12.5300   21.2415 N   0  0  0  0  0  0  0  0  0  0  0  0
  -25.1513  -17.2320   13.9552 N   0  0  0  0  0  0  0  0  0  0  0  0
  -28.9432  -15.7258   17.3347 N   0  0  0  0  0  0  0  0  0  0  0  0
  -16.5822  -17.1348   16.9685 N   0  0  0  0  0  0  0  0  0  0  0  0
  -17.0184  -10.3660   16.2947 N   0  0  0  0  0  0  0  0  0  0  0  0
  -16.8173   -8.4843   13.2147 N   0  3  0  0  0  0  0  0  0  0  0  0
  -30.3212  -17.4089   16.4979 O   0  0  0  0  0  0  0  0  0  0  0  0
  -22.5243  -14.6840   20.9647 O   0  0  0  0  0  0  0  0  0  0  0  0
  -26.1481  -15.1502   13.5467 O   0  0  0  0  0  0  0  0  0  0  0  0
  -18.1514  -15.5203   17.5631 O   0  0  0  0  0  0  0  0  0  0  0  0
  -15.6609  -12.7144   17.2172 O   0  0  0  0  0  0  0  0  0  0  0  0
  -18.6483  -10.0410   14.6777 O   0  0  0  0  0  0  0  0  0  0  0  0
  -31.1314  -15.0805   17.6718 O   0  0  0  0  0  0  0  0  0  0  0  0
  -24.4496  -15.4743   11.0816 O   0  0  0  0  0  0  0  0  0  0  0  0
  -21.6857   -6.9712   21.5932 O   0  0  0  0  0  0  0  0  0  0  0  0
  -21.7998  -15.4826   12.0684 O   0  0  0  0  0  0  0  0  0  1  0  0
  -18.0742   -6.9053   25.7593 F   0  0  0  0  0  0  0  0  0  0  0  0
  -26.3363  -20.9039   16.8056 F   0  0  0  0  0  0  0  0  0  0  0  0
  -21.9235   -5.1366   23.6476 F   0  0  0  0  0  0  0  0  0  0  0  0
  1  2  1  0  0  0  0
  1  5  2  0  0  0  0
  2  6  2  0  0  0  0
  3  8  2  0  0  0  0
  3 17  1  0  0  0  0
  4  9  1  0  0  0  0
  4 17  2  0  0  0  0
  5 20  1  0  0  0  0
  6 22  1  0  0  0  0
  7 10  2  0  0  0  0
  7 21  1  0  0  0  0
  8 26  1  0  0  0  0
  9 26  2  0  0  0  0
 10 27  1  0  0  0  0
 11 12  2  0  0  0  0
 11 28  1  0  0  0  0
 12 29  1  0  0  0  0
 13 18  1  0  0  0  0
 13 25  2  0  0  0  0
 14 23  1  0  0  0  0
 14 27  2  0  0  0  0
 15 25  1  0  0  0  0
 15 30  2  0  0  0  0
 16 29  2  0  0  0  0
 16 31  1  0  0  0  0
 17 32  1  0  0  0  0
 18 24  2  0  0  0  0
 18 35  1  0  0  0  0
 19 32  1  0  0  0  0
 19 33  2  0  0  0  0
 19 36  1  0  0  0  0
 20 22  2  0  0  0  0
 20 43  1  0  0  0  0
 21 23  2  0  0  0  0
 21 44  1  0  0  0  0
 22 52  1  0  0  0  0
 23 45  1  0  0  0  0
 24 30  1  0  0  0  0
 24 61  1  0  0  0  0
 25 71  1  0  0  0  0
 26 84  1  0  0  0  0
 27 85  1  0  0  0  0
 28 31  2  0  0  0  0
 28 84  1  0  0  0  0
 29 86  1  0  0  0  0
 30 87  1  0  0  0  0
 31 88  1  0  0  0  0
 32 65  2  0  0  0  0
 33 66  1  0  0  0  0
 33 69  1  0  0  0  0
 34 37  2  0  0  0  0
 34 85  1  0  0  0  0
 35 72  1  0  0  0  0
 35 76  2  0  0  0  0
 36 70  1  0  0  0  0
 36 77  2  0  0  0  0
 37 38  1  0  0  0  0
 37 83  1  0  0  0  0
 38 71  1  0  0  0  0
 38 78  2  0  0  0  0
 39 53  1  0  0  0  0
 39 73  1  0  0  0  0
 39 79  2  0  0  0  0
 40 62  1  0  0  0  0
 40 67  1  0  0  0  0
 40 80  2  0  0  0  0
 41 63  1  0  0  0  0
 41 74  1  0  0  0  0
 41 81  2  0  0  0  0
 42 68  1  0  0  0  0
 42 72  1  0  0  0  0
 42 82  2  0  0  0  0
 43 46  1  0  0  0  0
 44 53  1  0  0  0  0
 45 67  1  0  0  0  0
 46 48  1  0  0  0  0
 47 49  1  0  0  0  0
 47 50  1  0  0  0  0
 48 52  1  0  0  0  0
 49 54  1  0  0  0  0
 50 68  1  0  0  0  0
 51 54  1  0  0  0  0
 51 68  1  0  0  0  0
 52 73  1  0  0  0  0
 53 67  1  0  0  0  0
 54 66  1  0  0  0  0
 55 61  1  0  0  0  0
 56 63  1  0  0  0  0
 57 64  1  0  0  0  0
 58 64  1  0  0  0  0
 59 64  1  0  0  0  0
 60 75  1  0  0  0  0
 62 64  1  0  0  0  0
 62 74  1  0  0  0  0
 63 75  1  0  0  0  0
 65 66  1  0  0  0  0
M  CHG  1  75   1
M  ISO  4  34 101  42 100  72 100  85 101
M  END
> <Batch ID>
0171

> <Smiles>
CCc1c(F)cc(NC(=O)C(=O)[101CH2:1][101O:1]c2ccc3c(c2)CN(C(=O)C(NC(=O)C(C)NC)C(C)(C)C)C(C(=O)NC2CCCc4ccccc42)C3)cc1C(=O)[100NH:0][100C:0](=O)N1CCCC(n2nc(-c3ccc(Oc4ccc(F)cc4F)cc3)c(C(N)=O)c2N)C1

> <Shape>
0.133

> <Color>
0.163

> <Negative vol penalty>
0.000

$$$$

  -OEChem-04052304233D

 90 98  0     1  0  0  0  0  0999 V2000
  -22.1583  -31.0661   14.0115 C   0  0  0  0  0  0  0  0  0  0  0  0
  -23.2495  -30.4687   14.6342 C   0  0  0  0  0  0  0  0  0  0  0  0
  -24.3572  -10.5008   23.3035 C   0  0  0  0  0  0  0  0  0  0  0  0
  -24.8485  -12.7917   23.8929 C   0  0  0  0  0  0  0  0  0  0  0  0
  -21.6994  -32.3070   14.4515 C   0  0  0  0  0  0  0  0  0  0  0  0
  -23.8831  -31.1124   15.6966 C   0  0  0  0  0  0  0  0  0  0  0  0
  -24.8776  -27.9813   19.5505 C   0  0  0  0  0  0  0  0  0  0  0  0
  -31.0582  -18.7680   17.7743 C   0  0  0  0  0  0  0  0  0  0  0  0
  -24.1003  -10.2111   24.6435 C   0  0  0  0  0  0  0  0  0  0  0  0
  -24.5915  -12.5021   25.2329 C   0  0  0  0  0  0  0  0  0  0  0  0
  -25.9779  -27.1356   19.4161 C   0  0  0  0  0  0  0  0  0  0  0  0
  -21.5764  -10.6575   26.8490 C   0  0  0  0  0  0  0  0  0  0  0  0
  -30.8269  -17.7535   16.8454 C   0  0  0  0  0  0  0  0  0  0  0  0
  -20.4385   -9.9064   27.1432 C   0  0  0  0  0  0  0  0  0  0  0  0
  -27.2882  -28.6336   20.7792 C   0  0  0  0  0  0  0  0  0  0  0  0
  -21.8232   -8.2050   28.1556 C   0  0  0  0  0  0  0  0  0  0  0  0
  -24.7314  -11.7911   22.9282 C   0  0  0  0  0  0  0  0  0  0  0  0
  -24.0755  -12.5371   20.5785 C   0  0  0  0  0  0  0  0  0  0  0  0
  -22.3216  -32.9617   15.5261 C   0  0  0  0  0  0  0  0  0  0  0  0
  -24.9777  -29.1670   20.2924 C   0  0  0  0  0  0  0  0  0  0  0  0
  -23.4329  -32.3638   16.1505 C   0  0  0  0  0  0  0  0  0  0  0  0
  -26.1871  -29.4914   20.9236 C   0  0  0  0  0  0  0  0  0  0  0  0
  -31.0440  -18.4806   19.1392 C   0  0  0  0  0  0  0  0  0  0  0  0
  -30.5669  -16.1640   18.6463 C   0  0  0  0  0  0  0  0  0  0  0  0
  -24.2174  -11.2117   25.6083 C   0  0  0  0  0  0  0  0  0  0  0  0
  -27.1842  -27.4631   20.0281 C   0  0  0  0  0  0  0  0  0  0  0  0
  -22.8378  -10.1823   27.2080 C   0  0  0  0  0  0  0  0  0  0  0  0
  -20.5619   -8.6802   27.7965 C   0  0  0  0  0  0  0  0  0  0  0  0
  -30.5812  -16.4515   17.2814 C   0  0  0  0  0  0  0  0  0  0  0  0
  -22.9612   -8.9561   27.8614 C   0  0  0  0  0  0  0  0  0  0  0  0
  -30.7983  -17.1786   19.5752 C   0  0  0  0  0  0  0  0  0  0  0  0
  -24.9975  -12.0908   21.5442 C   0  0  0  0  0  0  0  0  0  0  0  0
  -24.8186  -12.6737   19.4316 C   0  0  0  0  0  0  0  0  0  0  0  0
  -22.6727  -12.8045   20.7069 C   0  0  0  0  0  0  0  0  0  0  0  0
  -24.6771  -32.2609   19.6282 C   0  0  0  0  0  0  0  0  0  0  0  0
  -30.2010  -21.4814   19.3040 C   0  0  0  0  0  0  0  0  0  0  0  0
  -25.0042  -32.5832   22.8393 C   0  0  0  0  0  0  0  0  0  0  0  0
  -29.3528  -24.6346   19.0986 C   0  0  0  0  0  0  0  0  0  0  0  0
  -26.1551  -31.2866   25.7789 C   0  0  0  0  0  0  0  0  0  0  0  0
  -30.6258  -13.6555   18.4227 C   0  0  0  0  0  0  0  0  0  0  0  0
  -21.8193  -34.3236   15.9355 C   0  0  0  0  0  0  0  0  0  0  0  0
  -23.7741  -30.0551   20.4500 C   0  0  0  0  0  0  0  0  0  0  0  0
  -26.3407  -30.7425   21.7479 C   0  0  0  0  0  0  0  0  0  0  0  0
  -22.3127  -34.7668   17.3104 C   0  0  0  0  0  0  0  0  0  0  0  0
  -28.6960  -10.9032   17.2486 C   0  0  0  0  0  0  0  0  0  0  0  0
  -23.8107  -34.5136   17.4472 C   0  0  0  0  0  0  0  0  0  0  0  0
  -27.4419  -10.9397   18.1250 C   0  0  0  0  0  0  0  0  0  0  0  0
  -29.9470  -11.2972   18.0320 C   0  0  0  0  0  0  0  0  0  0  0  0
  -28.6016  -12.6146   19.6206 C   0  0  0  0  0  0  0  0  0  0  0  0
  -24.1313  -33.0192   17.3221 C   0  0  1  0  0  0  0  0  0  0  0  0
  -24.1358  -31.4948   20.8020 C   0  0  1  0  0  0  0  0  0  0  0  0
  -27.3065  -12.2881   18.8592 C   0  0  2  0  0  0  0  0  0  0  0  0
  -33.4948  -21.0650   21.2996 C   0  0  0  0  0  0  0  0  0  0  0  0
  -26.3084  -31.7972   28.2311 C   0  0  0  0  0  0  0  0  0  0  0  0
  -27.2671  -34.5535   22.2851 C   0  0  0  0  0  0  0  0  0  0  0  0
  -27.9848  -34.2924   24.6694 C   0  0  0  0  0  0  0  0  0  0  0  0
  -25.7316  -35.2238   24.1418 C   0  0  0  0  0  0  0  0  0  0  0  0
  -24.5530  -28.9031   26.4937 C   0  0  0  0  0  0  0  0  0  0  0  0
  -30.2582  -22.5058   18.1853 C   0  0  0  0  0  0  0  0  0  0  0  0
  -28.0819  -25.4566   19.1202 C   0  0  0  0  0  0  0  0  0  1  0  0
  -32.1672  -21.6544   20.8443 C   0  0  0  0  0  0  0  0  0  0  0  0
  -31.5360  -20.8611   19.7019 C   0  0  1  0  0  0  0  0  0  0  0  0
  -26.1694  -32.7597   23.7829 C   0  0  1  0  0  0  0  0  0  0  0  0
  -25.4943  -31.1257   27.1361 C   0  0  2  0  0  0  0  0  0  0  0  0
  -26.7862  -34.1847   23.7027 C   0  0  0  0  0  0  0  0  0  0  0  0
  -26.2320  -11.9528   21.0534 N   0  0  0  0  0  0  0  0  0  0  0  0
  -26.0909  -12.3145   19.7668 N   0  0  0  0  0  0  0  0  0  0  0  0
  -25.1370  -31.5818   21.8670 N   0  0  0  0  0  0  0  0  0  0  0  0
  -29.7468  -12.5864   18.6972 N   0  0  0  0  0  0  0  0  0  0  0  0
  -24.5013  -13.0648   18.1790 N   0  0  0  0  0  0  0  0  0  0  0  0
  -22.0675  -12.6121   21.9563 N   0  0  0  0  0  0  0  0  0  0  0  0
  -30.3172  -14.8412   19.0885 N   0  0  0  0  0  0  0  0  0  0  0  0
  -31.2745  -19.4918   20.0615 N   0  0  0  0  0  0  0  0  0  0  0  0
  -23.8114  -32.3289   18.5532 N   0  0  0  0  0  0  0  0  0  0  0  0
  -29.1972  -23.4699   18.3634 N   0  0  0  0  0  0  0  0  0  0  0  0
  -25.6807  -32.3938   25.1079 N   0  0  0  0  0  0  0  0  0  0  0  0
  -25.3520  -29.6814   27.4749 N   0  3  0  0  0  0  0  0  0  0  0  0
  -21.9732  -13.1865   19.7382 O   0  0  0  0  0  0  0  0  0  0  0  0
  -25.7966  -32.7549   19.6935 O   0  0  0  0  0  0  0  0  0  0  0  0
  -29.1560  -21.1884   19.8862 O   0  0  0  0  0  0  0  0  0  0  0  0
  -24.0099  -33.3023   22.9650 O   0  0  0  0  0  0  0  0  0  0  0  0
  -30.3799  -24.9840   19.6739 O   0  0  0  0  0  0  0  0  0  0  0  0
  -27.0096  -30.5100   25.3578 O   0  0  0  0  0  0  0  0  0  0  0  0
  -31.5657  -13.5362   17.6326 O   0  0  0  0  0  0  0  0  0  0  0  0
  -23.9665  -10.9295   26.9159 O   0  0  0  0  0  0  0  0  0  0  0  0
  -28.2598  -26.6397   19.8980 O   0  0  0  0  0  0  0  0  0  1  0  0
  -19.4689   -7.9598   28.0804 F   0  0  0  0  0  0  0  0  0  0  0  0
  -30.3603  -15.4843   16.3797 F   0  0  0  0  0  0  0  0  0  0  0  0
  -24.1702   -8.4950   28.2099 F   0  0  0  0  0  0  0  0  0  0  0  0
  -30.7846  -16.9019   20.8880 F   0  0  0  0  0  0  0  0  0  0  0  0
  1  2  1  0  0  0  0
  1  5  2  0  0  0  0
  2  6  2  0  0  0  0
  3  9  2  0  0  0  0
  3 17  1  0  0  0  0
  4 10  1  0  0  0  0
  4 17  2  0  0  0  0
  5 19  1  0  0  0  0
  6 21  1  0  0  0  0
  7 11  2  0  0  0  0
  7 20  1  0  0  0  0
  8 13  2  0  0  0  0
  8 23  1  0  0  0  0
  9 25  1  0  0  0  0
 10 25  2  0  0  0  0
 11 26  1  0  0  0  0
 12 14  2  0  0  0  0
 12 27  1  0  0  0  0
 13 29  1  0  0  0  0
 14 28  1  0  0  0  0
 15 22  1  0  0  0  0
 15 26  2  0  0  0  0
 16 28  2  0  0  0  0
 16 30  1  0  0  0  0
 17 32  1  0  0  0  0
 18 32  1  0  0  0  0
 18 33  2  0  0  0  0
 18 34  1  0  0  0  0
 19 21  2  0  0  0  0
 19 41  1  0  0  0  0
 20 22  2  0  0  0  0
 20 42  1  0  0  0  0
 21 50  1  0  0  0  0
 22 43  1  0  0  0  0
 23 31  2  0  0  0  0
 23 73  1  0  0  0  0
 24 29  2  0  0  0  0
 24 31  1  0  0  0  0
 24 72  1  0  0  0  0
 25 85  1  0  0  0  0
 26 86  1  0  0  0  0
 27 30  2  0  0  0  0
 27 85  1  0  0  0  0
 28 87  1  0  0  0  0
 29 88  1  0  0  0  0
 30 89  1  0  0  0  0
 31 90  1  0  0  0  0
 32 66  2  0  0  0  0
 33 67  1  0  0  0  0
 33 70  1  0  0  0  0
 34 71  1  0  0  0  0
 34 78  2  0  0  0  0
 35 51  1  0  0  0  0
 35 74  1  0  0  0  0
 35 79  2  0  0  0  0
 36 59  1  0  0  0  0
 36 62  1  0  0  0  0
 36 80  2  0  0  0  0
 37 63  1  0  0  0  0
 37 68  1  0  0  0  0
 37 81  2  0  0  0  0
 38 60  1  0  0  0  0
 38 75  1  0  0  0  0
 38 82  2  0  0  0  0
 39 64  1  0  0  0  0
 39 76  1  0  0  0  0
 39 83  2  0  0  0  0
 40 69  1  0  0  0  0
 40 72  1  0  0  0  0
 40 84  2  0  0  0  0
 41 44  1  0  0  0  0
 42 51  1  0  0  0  0
 43 68  1  0  0  0  0
 44 46  1  0  0  0  0
 45 47  1  0  0  0  0
 45 48  1  0  0  0  0
 46 50  1  0  0  0  0
 47 52  1  0  0  0  0
 48 69  1  0  0  0  0
 49 52  1  0  0  0  0
 49 69  1  0  0  0  0
 50 74  1  0  0  0  0
 51 68  1  0  0  0  0
 52 67  1  0  0  0  0
 53 61  1  0  0  0  0
 54 64  1  0  0  0  0
 55 65  1  0  0  0  0
 56 65  1  0  0  0  0
 57 65  1  0  0  0  0
 58 77  1  0  0  0  0
 59 75  1  0  0  0  0
 60 86  1  0  0  0  0
 61 62  1  0  0  0  0
 62 73  1  0  0  0  0
 63 65  1  0  0  0  0
 63 76  1  0  0  0  0
 64 77  1  0  0  0  0
 66 67  1  0  0  0  0
M  CHG  1  77   1
M  ISO  4  40 100  60 101  72 100  86 101
M  END
> <Batch ID>
0171

> <Smiles>
CCC(Nc1ccc(F)c([100NH:0][100C:0](=O)N2CCCC(n3nc(-c4ccc(Oc5ccc(F)cc5F)cc4)c(C(N)=O)c3N)C2)c1F)C(=O)CNC(=O)[101CH2:1][101O:1]c1ccc2c(c1)CN(C(=O)C(NC(=O)C(C)NC)C(C)(C)C)C(C(=O)NC1CCCc3ccccc31)C2

> <Shape>
0.258

> <Color>
0.131

> <Negative vol penalty>
0.000

$$$$

  -OEChem-04052304233D

 84 92  0     1  0  0  0  0  0999 V2000
  -25.1132  -36.9304   22.2112 C   0  0  0  0  0  0  0  0  0  0  0  0
  -25.8757  -35.8915   21.6871 C   0  0  0  0  0  0  0  0  0  0  0  0
  -23.2260  -10.8776   21.8137 C   0  0  0  0  0  0  0  0  0  0  0  0
  -22.6633  -13.0815   20.9991 C   0  0  0  0  0  0  0  0  0  0  0  0
  -24.2876  -36.7015   23.3112 C   0  0  0  0  0  0  0  0  0  0  0  0
  -25.8138  -34.6232   22.2634 C   0  0  0  0  0  0  0  0  0  0  0  0
  -26.2209  -29.2410   19.3700 C   0  0  0  0  0  0  0  0  0  0  0  0
  -22.1466  -10.9280   22.6956 C   0  0  0  0  0  0  0  0  0  0  0  0
  -21.5838  -13.1318   21.8810 C   0  0  0  0  0  0  0  0  0  0  0  0
  -27.2789  -28.3514   19.1883 C   0  0  0  0  0  0  0  0  0  0  0  0
  -18.4410  -11.9000   22.0413 C   0  0  0  0  0  0  0  0  0  0  0  0
  -17.2221  -12.3629   21.5456 C   0  0  0  0  0  0  0  0  0  0  0  0
  -26.5181  -27.0685   21.0842 C   0  0  0  0  0  0  0  0  0  0  0  0
  -30.5224  -18.2975   20.0888 C   0  0  0  0  0  0  0  0  0  0  0  0
  -17.2442  -14.1555   23.1653 C   0  0  0  0  0  0  0  0  0  0  0  0
  -28.4269  -18.4873   18.9800 C   0  0  0  0  0  0  0  0  0  0  0  0
  -23.4844  -11.9544   20.9655 C   0  0  0  0  0  0  0  0  0  0  0  0
  -24.5973  -11.4148   18.7343 C   0  0  0  0  0  0  0  0  0  0  0  0
  -24.2082  -35.4274   23.8952 C   0  0  0  0  0  0  0  0  0  0  0  0
  -25.3083  -29.0568   20.4186 C   0  0  0  0  0  0  0  0  0  0  0  0
  -24.9874  -34.3774   23.3730 C   0  0  0  0  0  0  0  0  0  0  0  0
  -25.4479  -27.9557   21.2756 C   0  0  0  0  0  0  0  0  0  0  0  0
  -29.4273  -17.6792   19.4957 C   0  0  0  0  0  0  0  0  0  0  0  0
  -21.3254  -12.0550   22.7293 C   0  0  0  0  0  0  0  0  0  0  0  0
  -27.4294  -27.2666   20.0472 C   0  0  0  0  0  0  0  0  0  0  0  0
  -19.0614  -12.5647   23.0991 C   0  0  0  0  0  0  0  0  0  0  0  0
  -16.6238  -13.4906   22.1076 C   0  0  0  0  0  0  0  0  0  0  0  0
  -30.5827  -19.6854   20.1472 C   0  0  0  0  0  0  0  0  0  0  0  0
  -18.4631  -13.6925   23.6610 C   0  0  0  0  0  0  0  0  0  0  0  0
  -24.5997  -11.9033   20.0546 C   0  0  0  0  0  0  0  0  0  0  0  0
  -29.5306  -20.4037   19.6022 C   0  0  0  0  0  0  0  0  0  0  0  0
  -25.8898  -11.5862   18.3024 C   0  0  0  0  0  0  0  0  0  0  0  0
  -28.1640  -25.0847   19.6345 C   0  0  0  0  0  0  0  0  0  1  0  0
  -23.5227  -10.8563   17.9668 C   0  0  0  0  0  0  0  0  0  0  0  0
  -29.0987  -24.1449   19.4481 C   0  0  0  0  0  0  0  0  0  0  0  0
  -28.6684  -22.7316   19.1923 C   0  0  0  0  0  0  0  0  0  0  0  0
  -24.4629  -30.7411   22.9783 C   0  0  0  0  0  0  0  0  0  0  0  0
  -22.2308  -28.4087   23.2938 C   0  0  0  0  0  0  0  0  0  0  0  0
  -21.2784  -25.2004   22.6252 C   0  0  0  0  0  0  0  0  0  0  0  0
  -30.2620  -15.3357   19.8928 C   0  0  0  0  0  0  0  0  0  0  0  0
  -23.3375  -35.2397   25.1123 C   0  0  0  0  0  0  0  0  0  0  0  0
  -24.1569  -30.0103   20.5849 C   0  0  0  0  0  0  0  0  0  0  0  0
  -24.4835  -27.7020   22.4043 C   0  0  0  0  0  0  0  0  0  0  0  0
  -23.0445  -33.7761   25.4317 C   0  0  0  0  0  0  0  0  0  0  0  0
  -30.3885  -11.7777   19.9330 C   0  0  0  0  0  0  0  0  0  0  0  0
  -24.3240  -32.9484   25.3639 C   0  0  0  0  0  0  0  0  0  0  0  0
  -28.9186  -11.3616   19.8424 C   0  0  0  0  0  0  0  0  0  0  0  0
  -30.5708  -13.0354   20.7807 C   0  0  0  0  0  0  0  0  0  0  0  0
  -28.2677  -13.7616   20.2933 C   0  0  0  0  0  0  0  0  0  0  0  0
  -24.9285  -32.9817   23.9550 C   0  0  1  0  0  0  0  0  0  0  0  0
  -23.5845  -30.0150   21.9991 C   0  0  1  0  0  0  0  0  0  0  0  0
  -28.0267  -12.5367   19.3960 C   0  0  2  0  0  0  0  0  0  0  0  0
  -19.4191  -23.5689   23.0475 C   0  0  0  0  0  0  0  0  0  0  0  0
  -23.2333  -28.0086   26.1477 C   0  0  0  0  0  0  0  0  0  0  0  0
  -22.0410  -25.8074   26.1838 C   0  0  0  0  0  0  0  0  0  0  0  0
  -20.7469  -27.9202   25.8934 C   0  0  0  0  0  0  0  0  0  0  0  0
  -20.7030  -24.9301   19.7347 C   0  0  0  0  0  0  0  0  0  0  0  0
  -22.1747  -27.0694   23.9882 C   0  0  1  0  0  0  0  0  0  0  0  0
  -19.9740  -24.6247   22.1041 C   0  0  2  0  0  0  0  0  0  0  0  0
  -22.0685  -27.2070   25.5333 C   0  0  0  0  0  0  0  0  0  0  0  0
  -28.4504  -19.8384   19.0182 N   0  0  0  0  0  0  0  0  0  0  0  0
  -25.7987  -12.3511   20.4365 N   0  0  0  0  0  0  0  0  0  0  0  0
  -26.5617  -12.1447   19.3496 N   0  0  0  0  0  0  0  0  0  0  0  0
  -23.3778  -28.6660   22.5297 N   0  0  0  0  0  0  0  0  0  0  0  0
  -29.6978  -14.1072   20.2967 N   0  0  0  0  0  0  0  0  0  0  0  0
  -26.5057  -11.3119   17.1329 N   0  0  0  0  0  0  0  0  0  0  0  0
  -22.2587  -10.7532   18.5634 N   0  0  0  0  0  0  0  0  0  0  0  0
  -29.3378  -16.2671   19.4206 N   0  0  0  0  0  0  0  0  0  0  0  0
  -29.5984  -21.8164   19.6661 N   0  0  0  0  0  0  0  0  0  0  0  0
  -24.2017  -32.0948   23.0721 N   0  0  0  0  0  0  0  0  0  0  0  0
  -21.0707  -26.3381   23.3761 N   0  0  0  0  0  0  0  0  0  0  0  0
  -20.1814  -23.9986   20.7678 N   0  3  0  0  0  0  0  0  0  0  0  0
  -23.6827  -10.4452   16.7925 O   0  0  0  0  0  0  0  0  0  0  0  0
  -27.6079  -22.4885   18.6265 O   0  0  0  0  0  0  0  0  0  0  0  0
  -25.3135  -30.1190   23.6037 O   0  0  0  0  0  0  0  0  0  0  0  0
  -21.2882  -29.1945   23.4188 O   0  0  0  0  0  0  0  0  0  0  0  0
  -22.3719  -24.6897   22.3927 O   0  0  0  0  0  0  0  0  0  0  0  0
  -31.4786  -15.5363   19.9352 O   0  0  0  0  0  0  0  0  0  0  0  0
  -30.4497  -24.4251   19.4805 O   0  0  0  0  0  0  0  0  0  0  0  0
  -20.2718  -12.1044   23.5896 O   0  0  0  0  0  0  0  0  0  0  0  0
  -28.4616  -26.3972   19.8724 O   0  0  0  0  0  0  0  0  0  1  0  0
  -15.4541  -13.9360   21.6304 F   0  0  0  0  0  0  0  0  0  0  0  0
  -31.6299  -20.2945   20.7178 F   0  0  0  0  0  0  0  0  0  0  0  0
  -19.0549  -14.3360   24.6766 F   0  0  0  0  0  0  0  0  0  0  0  0
  1  2  1  0  0  0  0
  1  5  2  0  0  0  0
  2  6  2  0  0  0  0
  3  8  2  0  0  0  0
  3 17  1  0  0  0  0
  4  9  1  0  0  0  0
  4 17  2  0  0  0  0
  5 19  1  0  0  0  0
  6 21  1  0  0  0  0
  7 10  2  0  0  0  0
  7 20  1  0  0  0  0
  8 24  1  0  0  0  0
  9 24  2  0  0  0  0
 10 25  1  0  0  0  0
 11 12  2  0  0  0  0
 11 26  1  0  0  0  0
 12 27  1  0  0  0  0
 13 22  1  0  0  0  0
 13 25  2  0  0  0  0
 14 23  2  0  0  0  0
 14 28  1  0  0  0  0
 15 27  2  0  0  0  0
 15 29  1  0  0  0  0
 16 23  1  0  0  0  0
 16 61  2  0  0  0  0
 17 30  1  0  0  0  0
 18 30  1  0  0  0  0
 18 32  2  0  0  0  0
 18 34  1  0  0  0  0
 19 21  2  0  0  0  0
 19 41  1  0  0  0  0
 20 22  2  0  0  0  0
 20 42  1  0  0  0  0
 21 50  1  0  0  0  0
 22 43  1  0  0  0  0
 23 68  1  0  0  0  0
 24 80  1  0  0  0  0
 25 81  1  0  0  0  0
 26 29  2  0  0  0  0
 26 80  1  0  0  0  0
 27 82  1  0  0  0  0
 28 31  2  0  0  0  0
 28 83  1  0  0  0  0
 29 84  1  0  0  0  0
 30 62  2  0  0  0  0
 31 61  1  0  0  0  0
 31 69  1  0  0  0  0
 32 63  1  0  0  0  0
 32 66  1  0  0  0  0
 33 35  2  0  0  0  0
 33 81  1  0  0  0  0
 34 67  1  0  0  0  0
 34 73  2  0  0  0  0
 35 36  1  0  0  0  0
 35 79  1  0  0  0  0
 36 69  1  0  0  0  0
 36 74  2  0  0  0  0
 37 51  1  0  0  0  0
 37 70  1  0  0  0  0
 37 75  2  0  0  0  0
 38 58  1  0  0  0  0
 38 64  1  0  0  0  0
 38 76  2  0  0  0  0
 39 59  1  0  0  0  0
 39 71  1  0  0  0  0
 39 77  2  0  0  0  0
 40 65  1  0  0  0  0
 40 68  1  0  0  0  0
 40 78  2  0  0  0  0
 41 44  1  0  0  0  0
 42 51  1  0  0  0  0
 43 64  1  0  0  0  0
 44 46  1  0  0  0  0
 45 47  1  0  0  0  0
 45 48  1  0  0  0  0
 46 50  1  0  0  0  0
 47 52  1  0  0  0  0
 48 65  1  0  0  0  0
 49 52  1  0  0  0  0
 49 65  1  0  0  0  0
 50 70  1  0  0  0  0
 51 64  1  0  0  0  0
 52 63  1  0  0  0  0
 53 59  1  0  0  0  0
 54 60  1  0  0  0  0
 55 60  1  0  0  0  0
 56 60  1  0  0  0  0
 57 72  1  0  0  0  0
 58 60  1  0  0  0  0
 58 71  1  0  0  0  0
 59 72  1  0  0  0  0
 62 63  1  0  0  0  0
M  CHG  1  72   1
M  ISO  4  33 101  40 100  68 100  81 101
M  END
> <Batch ID>
0171

> <Smiles>
CNC(C)C(=O)NC(C(=O)N1Cc2cc([101O:1][101CH2:1]C(=O)C(=O)Nc3ncc([100NH:0][100C:0](=O)N4CCCC(n5nc(-c6ccc(Oc7ccc(F)cc7F)cc6)c(C(N)=O)c5N)C4)cc3F)ccc2CC1C(=O)NC1CCCc2ccccc21)C(C)(C)C

> <Shape>
0.287

> <Color>
0.075

> <Negative vol penalty>
0.000

$$$$

  -OEChem-04052304233D

 89 98  0     1  0  0  0  0  0999 V2000
  -26.7853  -37.2086   16.6753 C   0  0  0  0  0  0  0  0  0  0  0  0
  -26.2289  -35.9348   16.7327 C   0  0  0  0  0  0  0  0  0  0  0  0
  -24.5599   -9.6063   21.6141 C   0  0  0  0  0  0  0  0  0  0  0  0
  -24.7850  -10.8170   23.6927 C   0  0  0  0  0  0  0  0  0  0  0  0
  -28.1299  -37.3957   16.9931 C   0  0  0  0  0  0  0  0  0  0  0  0
  -27.0172  -34.8471   17.1070 C   0  0  0  0  0  0  0  0  0  0  0  0
  -25.2400  -29.9442   20.3177 C   0  0  0  0  0  0  0  0  0  0  0  0
  -24.2539   -8.4450   22.3236 C   0  0  0  0  0  0  0  0  0  0  0  0
  -24.4790   -9.6557   24.4022 C   0  0  0  0  0  0  0  0  0  0  0  0
  -24.8628  -28.6580   19.9340 C   0  0  0  0  0  0  0  0  0  0  0  0
  -23.0595   -5.2480   23.5757 C   0  0  0  0  0  0  0  0  0  0  0  0
  -21.9888   -4.4759   23.1251 C   0  0  0  0  0  0  0  0  0  0  0  0
  -27.1108  -27.8837   20.3413 C   0  0  0  0  0  0  0  0  0  0  0  0
  -20.4999   -6.3505   23.4510 C   0  0  0  0  0  0  0  0  0  0  0  0
  -24.8255  -10.7923   22.2986 C   0  0  0  0  0  0  0  0  0  0  0  0
  -24.2394  -12.9651   21.0975 C   0  0  0  0  0  0  0  0  0  0  0  0
  -28.9326  -36.3113   17.3808 C   0  0  0  0  0  0  0  0  0  0  0  0
  -26.5604  -30.2126   20.7063 C   0  0  0  0  0  0  0  0  0  0  0  0
  -28.3741  -35.0197   17.4290 C   0  0  0  0  0  0  0  0  0  0  0  0
  -27.5016  -29.1736   20.7320 C   0  0  0  0  0  0  0  0  0  0  0  0
  -24.2134   -8.4697   23.7177 C   0  0  0  0  0  0  0  0  0  0  0  0
  -25.7989  -27.6282   19.9430 C   0  0  0  0  0  0  0  0  0  0  0  0
  -22.8504   -6.5714   23.9640 C   0  0  0  0  0  0  0  0  0  0  0  0
  -20.7090   -5.0271   23.0627 C   0  0  0  0  0  0  0  0  0  0  0  0
  -21.5706   -7.1226   23.9016 C   0  0  0  0  0  0  0  0  0  0  0  0
  -25.1422  -11.9920   21.5663 C   0  0  0  0  0  0  0  0  0  0  0  0
  -28.8034  -21.4233   20.0432 C   0  0  0  0  0  0  0  0  0  0  0  0
  -25.0321  -13.8954   20.4707 C   0  0  0  0  0  0  0  0  0  0  0  0
  -27.5179  -21.5554   20.5252 C   0  0  0  0  0  0  0  0  0  0  0  0
  -28.3955  -19.3126   20.4771 C   0  0  0  0  0  0  0  0  0  0  0  0
  -22.8119  -13.0231   21.2178 C   0  0  0  0  0  0  0  0  0  0  0  0
  -24.8060  -24.0600   21.2532 C   0  0  0  0  0  0  0  0  0  0  0  0
  -25.3941  -22.6792   21.2100 C   0  0  0  0  0  0  0  0  0  0  0  0
  -28.8864  -32.0801   19.6082 C   0  0  0  0  0  0  0  0  0  0  0  0
  -30.4135  -31.0978   22.2962 C   0  0  0  0  0  0  0  0  0  0  0  0
  -30.7477  -28.7404   24.7411 C   0  0  0  0  0  0  0  0  0  0  0  0
  -29.5840  -17.0979   20.3070 C   0  0  0  0  0  0  0  0  0  0  0  0
  -30.3927  -36.5555   17.6693 C   0  0  0  0  0  0  0  0  0  0  0  0
  -26.9448  -31.5996   21.1430 C   0  0  0  0  0  0  0  0  0  0  0  0
  -28.9269  -29.4051   21.1604 C   0  0  0  0  0  0  0  0  0  0  0  0
  -31.0656  -35.4084   18.4186 C   0  0  0  0  0  0  0  0  0  0  0  0
  -30.3498  -25.3672   18.9261 C   0  0  0  0  0  0  0  0  0  0  0  0
  -30.9331  -24.6750   20.1542 C   0  0  0  0  0  0  0  0  0  0  0  0
  -30.0255  -24.3693   17.8186 C   0  0  0  0  0  0  0  0  0  0  0  0
  -29.9296  -13.7309   19.2021 C   0  0  0  0  0  0  0  0  0  0  0  0
  -30.7017  -34.0699   17.7840 C   0  0  0  0  0  0  0  0  0  0  0  0
  -30.0181  -23.5621   20.6621 C   0  0  0  0  0  0  0  0  0  0  0  0
  -29.1060  -23.2550   18.3150 C   0  0  0  0  0  0  0  0  0  0  0  0
  -28.6406  -13.0584   19.6801 C   0  0  0  0  0  0  0  0  0  0  0  0
  -30.4353  -14.7655   20.2058 C   0  0  0  0  0  0  0  0  0  0  0  0
  -28.1589  -15.1032   21.0851 C   0  0  0  0  0  0  0  0  0  0  0  0
  -29.1905  -33.8187   17.8545 C   0  0  1  0  0  0  0  0  0  0  0  0
  -29.6899  -22.5474   19.5515 C   0  0  0  0  0  0  0  0  0  0  0  0
  -28.4420  -31.8688   21.0280 C   0  0  1  0  0  0  0  0  0  0  0  0
  -27.5756  -14.0994   20.0772 C   0  0  2  0  0  0  0  0  0  0  0  0
  -32.1069  -28.1946   26.7788 C   0  0  0  0  0  0  0  0  0  0  0  0
  -32.7401  -30.2491   20.5139 C   0  0  0  0  0  0  0  0  0  0  0  0
  -33.6147  -28.8864   22.4233 C   0  0  0  0  0  0  0  0  0  0  0  0
  -33.4141  -31.3625   22.6494 C   0  0  0  0  0  0  0  0  0  0  0  0
  -28.3612  -28.7963   26.4905 C   0  0  0  0  0  0  0  0  0  0  0  0
  -24.0102  -24.4892   20.0402 C   0  0  0  0  0  0  0  0  0  0  0  0
  -24.0793  -25.9909   19.8075 C   0  0  0  0  0  0  0  0  0  1  0  0
  -31.3211  -29.9443   22.6492 C   0  0  1  0  0  0  0  0  0  0  0  0
  -30.8465  -28.8622   26.2511 C   0  0  2  0  0  0  0  0  0  0  0  0
  -32.7462  -30.1063   22.0490 C   0  0  0  0  0  0  0  0  0  0  0  0
  -26.4113  -12.2775   21.2631 N   0  0  0  0  0  0  0  0  0  0  0  0
  -29.3084  -20.1381   20.0153 N   0  0  0  0  0  0  0  0  0  0  0  0
  -26.3117  -13.4405   20.5970 N   0  0  0  0  0  0  0  0  0  0  0  0
  -29.2556  -30.7798   21.5724 N   0  0  0  0  0  0  0  0  0  0  0  0
  -29.3742  -15.7209   20.5316 N   0  0  0  0  0  0  0  0  0  0  0  0
  -24.7524  -15.0499   19.8294 N   0  0  0  0  0  0  0  0  0  0  0  0
  -22.1556  -11.9848   21.8928 N   0  0  0  0  0  0  0  0  0  0  0  0
  -26.6761  -22.6778   20.7040 N   0  0  0  0  0  0  0  0  0  0  0  0
  -28.4930  -17.9066   20.6236 N   0  0  0  0  0  0  0  0  0  0  0  0
  -28.8104  -33.3932   19.1845 N   0  0  0  0  0  0  0  0  0  0  0  0
  -31.2943  -29.8340   24.1037 N   0  0  0  0  0  0  0  0  0  0  0  0
  -29.6682  -28.2215   26.9007 N   0  3  0  0  0  0  0  0  0  0  0  0
  -22.1367  -13.9592   20.7267 O   0  0  0  0  0  0  0  0  0  0  0  0
  -25.0042  -24.7213   22.2612 O   0  0  0  0  0  0  0  0  0  0  0  0
  -24.6963  -21.7747   21.6375 O   0  0  0  0  0  0  0  0  0  0  0  0
  -29.2711  -31.1230   18.9467 O   0  0  0  0  0  0  0  0  0  0  0  0
  -30.7170  -32.2381   22.6559 O   0  0  0  0  0  0  0  0  0  0  0  0
  -30.2399  -27.7703   24.1829 O   0  0  0  0  0  0  0  0  0  0  0  0
  -30.6432  -17.5254   19.8407 O   0  0  0  0  0  0  0  0  0  0  0  0
  -23.9146   -7.3368   24.4103 O   0  0  0  0  0  0  0  0  0  0  0  0
  -25.4336  -26.3720   19.5683 O   0  0  0  0  0  0  0  0  0  1  0  0
  -19.6811   -4.2860   22.6286 F   0  0  0  0  0  0  0  0  0  0  0  0
  -21.3638   -8.3937   24.2722 F   0  0  0  0  0  0  0  0  0  0  0  0
  -26.9063  -20.0139   20.9623 S   0  0  0  0  0  0  0  0  0  0  0  0
  1  2  1  0  0  0  0
  1  5  2  0  0  0  0
  2  6  2  0  0  0  0
  3  8  2  0  0  0  0
  3 15  1  0  0  0  0
  4  9  1  0  0  0  0
  4 15  2  0  0  0  0
  5 17  1  0  0  0  0
  6 19  1  0  0  0  0
  7 10  2  0  0  0  0
  7 18  1  0  0  0  0
  8 21  1  0  0  0  0
  9 21  2  0  0  0  0
 10 22  1  0  0  0  0
 11 12  2  0  0  0  0
 11 23  1  0  0  0  0
 12 24  1  0  0  0  0
 13 20  1  0  0  0  0
 13 22  2  0  0  0  0
 14 24  2  0  0  0  0
 14 25  1  0  0  0  0
 15 26  1  0  0  0  0
 16 26  1  0  0  0  0
 16 28  2  0  0  0  0
 16 31  1  0  0  0  0
 17 19  2  0  0  0  0
 17 38  1  0  0  0  0
 18 20  2  0  0  0  0
 18 39  1  0  0  0  0
 19 52  1  0  0  0  0
 20 40  1  0  0  0  0
 21 85  1  0  0  0  0
 22 86  1  0  0  0  0
 23 25  2  0  0  0  0
 23 85  1  0  0  0  0
 24 87  1  0  0  0  0
 25 88  1  0  0  0  0
 26 66  2  0  0  0  0
 27 29  2  0  0  0  0
 27 53  1  0  0  0  0
 27 67  1  0  0  0  0
 28 68  1  0  0  0  0
 28 71  1  0  0  0  0
 29 73  1  0  0  0  0
 29 89  1  0  0  0  0
 30 67  2  0  0  0  0
 30 74  1  0  0  0  0
 30 89  1  0  0  0  0
 31 72  1  0  0  0  0
 31 78  2  0  0  0  0
 32 33  1  0  0  0  0
 32 61  1  0  0  0  0
 32 79  2  0  0  0  0
 33 73  1  0  0  0  0
 33 80  2  0  0  0  0
 34 54  1  0  0  0  0
 34 75  1  0  0  0  0
 34 81  2  0  0  0  0
 35 63  1  0  0  0  0
 35 69  1  0  0  0  0
 35 82  2  0  0  0  0
 36 64  1  0  0  0  0
 36 76  1  0  0  0  0
 36 83  2  0  0  0  0
 37 70  1  0  0  0  0
 37 74  1  0  0  0  0
 37 84  2  0  0  0  0
 38 41  1  0  0  0  0
 39 54  1  0  0  0  0
 40 69  1  0  0  0  0
 41 46  1  0  0  0  0
 42 43  1  0  0  0  0
 42 44  1  0  0  0  0
 43 47  1  0  0  0  0
 44 48  1  0  0  0  0
 45 49  1  0  0  0  0
 45 50  1  0  0  0  0
 46 52  1  0  0  0  0
 47 53  1  0  0  0  0
 48 53  1  0  0  0  0
 49 55  1  0  0  0  0
 50 70  1  0  0  0  0
 51 55  1  0  0  0  0
 51 70  1  0  0  0  0
 52 75  1  0  0  0  0
 54 69  1  0  0  0  0
 55 68  1  0  0  0  0
 56 64  1  0  0  0  0
 57 65  1  0  0  0  0
 58 65  1  0  0  0  0
 59 65  1  0  0  0  0
 60 77  1  0  0  0  0
 61 62  1  0  0  0  0
 62 86  1  0  0  0  0
 63 65  1  0  0  0  0
 63 76  1  0  0  0  0
 64 77  1  0  0  0  0
 66 68  1  0  0  0  0
M  CHG  1  77   1
M  ISO  4  37 100  62 101  74 100  86 101
M  END
> <Batch ID>
0171

> <Smiles>
CNC(C)C(=O)NC(C(=O)N1Cc2cc([101O:1][101CH2:1]CC(=O)C(=O)Nc3sc([100NH:0][100C:0](=O)N4CCCC(n5nc(-c6ccc(Oc7ccc(F)cc7F)cc6)c(C(N)=O)c5N)C4)nc3C3CCCCC3)ccc2CC1C(=O)NC1CCCc2ccccc21)C(C)(C)C

> <Shape>
0.245

> <Color>
0.121

> <Negative vol penalty>
0.000

$$$$

  -OEChem-04052304233D

 86 94  0     1  0  0  0  0  0999 V2000
  -18.7658  -26.6607   16.3457 C   0  0  0  0  0  0  0  0  0  0  0  0
  -19.9032  -25.8631   16.4218 C   0  0  0  0  0  0  0  0  0  0  0  0
  -23.0034   -9.8845   19.9627 C   0  0  0  0  0  0  0  0  0  0  0  0
  -23.7574   -9.8864   22.2580 C   0  0  0  0  0  0  0  0  0  0  0  0
  -18.8823  -28.0480   16.4214 C   0  0  0  0  0  0  0  0  0  0  0  0
  -21.1579  -26.4525   16.5727 C   0  0  0  0  0  0  0  0  0  0  0  0
  -25.9126  -24.2327   19.7303 C   0  0  0  0  0  0  0  0  0  0  0  0
  -29.4933  -17.8595   22.4091 C   0  0  0  0  0  0  0  0  0  0  0  0
  -29.6694  -19.2431   22.4172 C   0  0  0  0  0  0  0  0  0  0  0  0
  -22.2513   -8.7363   20.2106 C   0  0  0  0  0  0  0  0  0  0  0  0
  -23.0052   -8.7382   22.5060 C   0  0  0  0  0  0  0  0  0  0  0  0
  -27.0525  -23.5313   19.3399 C   0  0  0  0  0  0  0  0  0  0  0  0
  -23.2755   -5.4144   21.9493 C   0  0  0  0  0  0  0  0  0  0  0  0
  -23.8824   -4.3850   22.6688 C   0  0  0  0  0  0  0  0  0  0  0  0
  -28.2945  -25.5983   19.2742 C   0  0  0  0  0  0  0  0  0  0  0  0
  -31.1274  -17.6619   20.6405 C   0  0  0  0  0  0  0  0  0  0  0  0
  -22.1777   -4.5699   24.3709 C   0  0  0  0  0  0  0  0  0  0  0  0
  -23.7565  -10.4596   20.9864 C   0  0  0  0  0  0  0  0  0  0  0  0
  -24.1153  -12.9824   20.8673 C   0  0  0  0  0  0  0  0  0  0  0  0
  -20.1381  -28.6543   16.5830 C   0  0  0  0  0  0  0  0  0  0  0  0
  -25.9523  -25.6259   19.8852 C   0  0  0  0  0  0  0  0  0  0  0  0
  -21.2914  -27.8493   16.6493 C   0  0  0  0  0  0  0  0  0  0  0  0
  -27.1544  -26.3147   19.6691 C   0  0  0  0  0  0  0  0  0  0  0  0
  -31.3035  -19.0455   20.6486 C   0  0  0  0  0  0  0  0  0  0  0  0
  -30.2224  -17.0688   21.5208 C   0  0  0  0  0  0  0  0  0  0  0  0
  -30.5744  -19.8362   21.5369 C   0  0  0  0  0  0  0  0  0  0  0  0
  -22.2521   -8.1632   21.4823 C   0  0  0  0  0  0  0  0  0  0  0  0
  -28.2430  -24.2144   19.1090 C   0  0  0  0  0  0  0  0  0  0  0  0
  -22.1198   -6.0216   22.4406 C   0  0  0  0  0  0  0  0  0  0  0  0
  -23.3335   -3.9627   23.8796 C   0  0  0  0  0  0  0  0  0  0  0  0
  -21.5709   -5.5993   23.6514 C   0  0  0  0  0  0  0  0  0  0  0  0
  -24.5341  -11.6453   20.7307 C   0  0  0  0  0  0  0  0  0  0  0  0
  -25.2134  -13.7246   20.5069 C   0  0  0  0  0  0  0  0  0  0  0  0
  -22.8472  -13.5066   21.2829 C   0  0  0  0  0  0  0  0  0  0  0  0
  -24.4808  -28.0797   18.5006 C   0  0  0  0  0  0  0  0  0  0  0  0
  -30.5480  -21.5110   18.1252 C   0  0  0  0  0  0  0  0  0  0  0  0
  -26.0151  -29.7892   20.7910 C   0  0  0  0  0  0  0  0  0  0  0  0
  -28.6288  -30.0167   22.9736 C   0  0  0  0  0  0  0  0  0  0  0  0
  -30.6859  -14.7341   20.6959 C   0  0  0  0  0  0  0  0  0  0  0  0
  -20.2188  -30.1600   16.6124 C   0  0  0  0  0  0  0  0  0  0  0  0
  -24.7209  -26.3646   20.3328 C   0  0  0  0  0  0  0  0  0  0  0  0
  -27.2548  -27.8076   19.8412 C   0  0  0  0  0  0  0  0  0  0  0  0
  -21.5469  -30.6884   17.1484 C   0  0  0  0  0  0  0  0  0  0  0  0
  -29.5617  -12.3277   18.3247 C   0  0  0  0  0  0  0  0  0  0  0  0
  -22.7149  -29.9467   16.5062 C   0  0  0  0  0  0  0  0  0  0  0  0
  -28.1191  -12.0457   18.7505 C   0  0  0  0  0  0  0  0  0  0  0  0
  -30.4752  -12.5504   19.5287 C   0  0  0  0  0  0  0  0  0  0  0  0
  -28.5695  -13.2875   20.9050 C   0  0  0  0  0  0  0  0  0  0  0  0
  -22.6674  -28.4503   16.8378 C   0  0  1  0  0  0  0  0  0  0  0  0
  -24.7435  -27.8440   19.9612 C   0  0  1  0  0  0  0  0  0  0  0  0
  -27.5986  -13.1207   19.7247 C   0  0  2  0  0  0  0  0  0  0  0  0
  -33.7065  -19.1232   19.8663 C   0  0  0  0  0  0  0  0  0  0  0  0
  -30.2377  -19.6133   16.4824 C   0  0  0  0  0  0  0  0  0  0  0  0
  -29.6380  -31.5491   24.6855 C   0  0  0  0  0  0  0  0  0  0  0  0
  -27.1218  -31.5503   18.5585 C   0  0  0  0  0  0  0  0  0  0  0  0
  -28.8184  -32.4207   20.1810 C   0  0  0  0  0  0  0  0  0  0  0  0
  -26.3878  -32.7931   20.6008 C   0  0  0  0  0  0  0  0  0  0  0  0
  -28.2796  -28.0234   25.1332 C   0  0  0  0  0  0  0  0  0  0  0  0
  -29.2347  -22.1180   18.5824 C   0  0  0  0  0  0  0  0  0  1  0  0
  -32.2898  -19.6617   19.6834 C   0  0  1  0  0  0  0  0  0  0  0  0
  -30.5585  -20.0057   17.9162 C   0  0  1  0  0  0  0  0  0  0  0  0
  -27.3555  -30.4759   20.8946 C   0  0  1  0  0  0  0  0  0  0  0  0
  -28.6837  -30.3899   24.4440 C   0  0  2  0  0  0  0  0  0  0  0  0
  -27.4188  -31.7821   20.0535 C   0  0  0  0  0  0  0  0  0  0  0  0
  -25.7994  -11.5411   20.3157 N   0  0  0  0  0  0  0  0  0  0  0  0
  -26.1851  -12.8222   20.1884 N   0  0  0  0  0  0  0  0  0  0  0  0
  -26.0219  -28.4859   20.2741 N   0  0  0  0  0  0  0  0  0  0  0  0
  -29.9208  -13.5849   20.4047 N   0  0  0  0  0  0  0  0  0  0  0  0
  -30.7400  -21.2384   21.5595 N   0  0  0  0  0  0  0  0  0  0  0  0
  -25.4328  -15.0547   20.4345 N   0  0  0  0  0  0  0  0  0  0  0  0
  -21.8284  -12.6041   21.6175 N   0  0  0  0  0  0  0  0  0  0  0  0
  -30.0425  -15.6633   21.5127 N   0  0  0  0  0  0  0  0  0  0  0  0
  -23.1425  -28.2157   18.1845 N   0  0  0  0  0  0  0  0  0  0  0  0
  -27.6060  -30.6695   22.3187 N   0  0  0  0  0  0  0  0  0  0  0  0
  -29.1409  -29.2275   25.2568 N   0  3  0  0  0  0  0  0  0  0  0  0
  -31.9009  -19.4650   18.2622 N   0  3  0  0  0  0  0  0  0  0  0  0
  -22.6190  -14.7388   21.3397 O   0  0  0  0  0  0  0  0  0  0  0  0
  -25.4226  -28.1355   17.7187 O   0  0  0  0  0  0  0  0  0  0  0  0
  -31.5516  -22.2020   17.9506 O   0  0  0  0  0  0  0  0  0  0  0  0
  -25.0004  -30.3845   21.1619 O   0  0  0  0  0  0  0  0  0  0  0  0
  -29.4170  -29.2279   22.4567 O   0  0  0  0  0  0  0  0  0  0  0  0
  -31.8173  -14.8953   20.2313 O   0  0  0  0  0  0  0  0  0  0  0  0
  -21.5181   -7.0429   21.7247 O   0  0  0  0  0  0  0  0  0  0  0  0
  -29.3569  -23.5323   18.7272 O   0  0  0  0  0  0  0  0  0  1  0  0
  -23.9154   -2.9731   24.5697 F   0  0  0  0  0  0  0  0  0  0  0  0
  -20.4601   -6.1780   24.1279 F   0  0  0  0  0  0  0  0  0  0  0  0
  1  2  1  0  0  0  0
  1  5  2  0  0  0  0
  2  6  2  0  0  0  0
  3 10  2  0  0  0  0
  3 18  1  0  0  0  0
  4 11  1  0  0  0  0
  4 18  2  0  0  0  0
  5 20  1  0  0  0  0
  6 22  1  0  0  0  0
  7 12  2  0  0  0  0
  7 21  1  0  0  0  0
  8  9  2  0  0  0  0
  8 25  1  0  0  0  0
  9 26  1  0  0  0  0
 10 27  1  0  0  0  0
 11 27  2  0  0  0  0
 12 28  1  0  0  0  0
 13 14  2  0  0  0  0
 13 29  1  0  0  0  0
 14 30  1  0  0  0  0
 15 23  1  0  0  0  0
 15 28  2  0  0  0  0
 16 24  1  0  0  0  0
 16 25  2  0  0  0  0
 17 30  2  0  0  0  0
 17 31  1  0  0  0  0
 18 32  1  0  0  0  0
 19 32  1  0  0  0  0
 19 33  2  0  0  0  0
 19 34  1  0  0  0  0
 20 22  2  0  0  0  0
 20 40  1  0  0  0  0
 21 23  2  0  0  0  0
 21 41  1  0  0  0  0
 22 49  1  0  0  0  0
 23 42  1  0  0  0  0
 24 26  2  0  0  0  0
 24 60  1  0  0  0  0
 25 72  1  0  0  0  0
 26 69  1  0  0  0  0
 27 83  1  0  0  0  0
 28 84  1  0  0  0  0
 29 31  2  0  0  0  0
 29 83  1  0  0  0  0
 30 85  1  0  0  0  0
 31 86  1  0  0  0  0
 32 65  2  0  0  0  0
 33 66  1  0  0  0  0
 33 70  1  0  0  0  0
 34 71  1  0  0  0  0
 34 77  2  0  0  0  0
 35 50  1  0  0  0  0
 35 73  1  0  0  0  0
 35 78  2  0  0  0  0
 36 59  1  0  0  0  0
 36 61  1  0  0  0  0
 36 79  2  0  0  0  0
 37 62  1  0  0  0  0
 37 67  1  0  0  0  0
 37 80  2  0  0  0  0
 38 63  1  0  0  0  0
 38 74  1  0  0  0  0
 38 81  2  0  0  0  0
 39 68  1  0  0  0  0
 39 72  1  0  0  0  0
 39 82  2  0  0  0  0
 40 43  1  0  0  0  0
 41 50  1  0  0  0  0
 42 67  1  0  0  0  0
 43 45  1  0  0  0  0
 44 46  1  0  0  0  0
 44 47  1  0  0  0  0
 45 49  1  0  0  0  0
 46 51  1  0  0  0  0
 47 68  1  0  0  0  0
 48 51  1  0  0  0  0
 48 68  1  0  0  0  0
 49 73  1  0  0  0  0
 50 67  1  0  0  0  0
 51 66  1  0  0  0  0
 52 60  1  0  0  0  0
 53 61  1  0  0  0  0
 54 63  1  0  0  0  0
 55 64  1  0  0  0  0
 56 64  1  0  0  0  0
 57 64  1  0  0  0  0
 58 75  1  0  0  0  0
 59 84  1  0  0  0  0
 60 76  1  0  0  0  0
 61 76  1  0  0  0  0
 62 64  1  0  0  0  0
 62 74  1  0  0  0  0
 63 75  1  0  0  0  0
 65 66  1  0  0  0  0
M  CHG  2  75   1  76   1
M  ISO  4  39 100  59 101  72 100  84 101
M  END
> <Batch ID>
0171

> <Smiles>
CNC(C)C(=O)NC(C(=O)N1Cc2cc([101O:1][101CH2:1]C(=O)C(C)NC(C)c3cc([100NH:0][100C:0](=O)N4CCCC(n5nc(-c6ccc(Oc7ccc(F)cc7F)cc6)c(C(N)=O)c5N)C4)ccc3N)ccc2CC1C(=O)NC1CCCc2ccccc21)C(C)(C)C

> <Shape>
0.293

> <Color>
0.206

> <Negative vol penalty>
0.000

$$$$

  -OEChem-04052304233D

 85 93  0     1  0  0  0  0  0999 V2000
  -27.3224  -25.3798   12.4487 C   0  0  0  0  0  0  0  0  0  0  0  0
  -27.2150  -24.8637   13.7361 C   0  0  0  0  0  0  0  0  0  0  0  0
  -32.4238  -18.4819   21.7039 C   0  0  0  0  0  0  0  0  0  0  0  0
  -23.1138   -9.7961   21.4909 C   0  0  0  0  0  0  0  0  0  0  0  0
  -23.7853  -10.7960   23.5853 C   0  0  0  0  0  0  0  0  0  0  0  0
  -27.6017  -26.7330   12.2623 C   0  0  0  0  0  0  0  0  0  0  0  0
  -27.3879  -25.7005   14.8381 C   0  0  0  0  0  0  0  0  0  0  0  0
  -23.8736  -24.9620   18.4087 C   0  0  0  0  0  0  0  0  0  0  0  0
  -31.5859  -19.5593   21.9908 C   0  0  0  0  0  0  0  0  0  0  0  0
  -31.8832  -17.2810   21.2439 C   0  0  0  0  0  0  0  0  0  0  0  0
  -22.3800   -8.8344   22.1852 C   0  0  0  0  0  0  0  0  0  0  0  0
  -23.0513   -9.8343   24.2796 C   0  0  0  0  0  0  0  0  0  0  0  0
  -24.0306  -23.8513   19.2366 C   0  0  0  0  0  0  0  0  0  0  0  0
  -22.9951   -5.9699   23.8706 C   0  0  0  0  0  0  0  0  0  0  0  0
  -23.1147   -4.6426   23.4590 C   0  0  0  0  0  0  0  0  0  0  0  0
  -24.9493  -25.2710   20.9570 C   0  0  0  0  0  0  0  0  0  0  0  0
  -20.7429   -4.5699   23.0042 C   0  0  0  0  0  0  0  0  0  0  0  0
  -23.8165  -10.7769   22.1909 C   0  0  0  0  0  0  0  0  0  0  0  0
  -24.1213  -13.0236   21.0217 C   0  0  0  0  0  0  0  0  0  0  0  0
  -27.7686  -27.5887   13.3626 C   0  0  0  0  0  0  0  0  0  0  0  0
  -24.2640  -26.2361   18.8454 C   0  0  0  0  0  0  0  0  0  0  0  0
  -27.6711  -27.0662   14.6663 C   0  0  0  0  0  0  0  0  0  0  0  0
  -24.7938  -26.3966   20.1337 C   0  0  0  0  0  0  0  0  0  0  0  0
  -30.2072  -19.4361   21.8180 C   0  0  0  0  0  0  0  0  0  0  0  0
  -30.5046  -17.1577   21.0711 C   0  0  0  0  0  0  0  0  0  0  0  0
  -22.3487   -8.8535   23.5796 C   0  0  0  0  0  0  0  0  0  0  0  0
  -24.5712  -24.0052   20.5098 C   0  0  0  0  0  0  0  0  0  0  0  0
  -21.7494   -6.5973   23.8492 C   0  0  0  0  0  0  0  0  0  0  0  0
  -21.9886   -3.9426   23.0258 C   0  0  0  0  0  0  0  0  0  0  0  0
  -20.6234   -5.8973   23.4159 C   0  0  0  0  0  0  0  0  0  0  0  0
  -29.6666  -18.2352   21.3581 C   0  0  0  0  0  0  0  0  0  0  0  0
  -24.5753  -11.7703   21.4742 C   0  0  0  0  0  0  0  0  0  0  0  0
  -25.2141  -13.5826   20.4054 C   0  0  0  0  0  0  0  0  0  0  0  0
  -22.8274  -13.6285   21.1472 C   0  0  0  0  0  0  0  0  0  0  0  0
  -26.3942  -28.3855   17.8729 C   0  0  0  0  0  0  0  0  0  0  0  0
  -26.2987  -21.5575   22.5569 C   0  0  0  0  0  0  0  0  0  0  0  0
  -25.0191  -30.2145   20.1720 C   0  0  0  0  0  0  0  0  0  0  0  0
  -23.2390  -30.3588   23.0802 C   0  0  0  0  0  0  0  0  0  0  0  0
  -30.6517  -14.7732   20.2720 C   0  0  0  0  0  0  0  0  0  0  0  0
  -28.1161  -29.0347   13.1114 C   0  0  0  0  0  0  0  0  0  0  0  0
  -24.0633  -27.4281   17.9503 C   0  0  0  0  0  0  0  0  0  0  0  0
  -25.2098  -27.7460   20.6576 C   0  0  0  0  0  0  0  0  0  0  0  0
  -27.9145  -29.9303   14.3311 C   0  0  0  0  0  0  0  0  0  0  0  0
  -29.6684  -11.5509   19.1198 C   0  0  0  0  0  0  0  0  0  0  0  0
  -28.5147  -29.2818   15.5745 C   0  0  0  0  0  0  0  0  0  0  0  0
  -28.2184  -11.4238   19.5924 C   0  0  0  0  0  0  0  0  0  0  0  0
  -30.5330  -12.2948   20.1362 C   0  0  0  0  0  0  0  0  0  0  0  0
  -28.5630  -13.4758   21.0268 C   0  0  0  0  0  0  0  0  0  0  0  0
  -27.8275  -27.9470   15.8869 C   0  0  1  0  0  0  0  0  0  0  0  0
  -24.9715  -28.6014   18.3051 C   0  0  1  0  0  0  0  0  0  0  0  0
  -27.6389  -12.7906   20.0070 C   0  0  2  0  0  0  0  0  0  0  0  0
  -26.9551  -21.2454   24.9794 C   0  0  0  0  0  0  0  0  0  0  0  0
  -22.3005  -31.9940   24.7363 C   0  0  0  0  0  0  0  0  0  0  0  0
  -27.8128  -30.6546   21.3171 C   0  0  0  0  0  0  0  0  0  0  0  0
  -26.7431  -31.4591   23.4329 C   0  0  0  0  0  0  0  0  0  0  0  0
  -26.3607  -32.6907   21.2975 C   0  0  0  0  0  0  0  0  0  0  0  0
  -20.4666  -29.4522   22.5794 C   0  0  0  0  0  0  0  0  0  0  0  0
  -29.3089  -20.5972   22.1274 C   0  0  0  0  0  0  0  0  0  0  0  0
  -25.8039  -22.9596   22.2543 C   0  0  0  0  0  0  0  0  0  1  0  0
  -27.4416  -21.4461   23.5526 C   0  0  1  0  0  0  0  0  0  0  0  0
  -25.2608  -30.4409   21.6449 C   0  0  1  0  0  0  0  0  0  0  0  0
  -22.0276  -31.1816   23.4799 C   0  0  2  0  0  0  0  0  0  0  0  0
  -26.5384  -31.2855   21.9128 C   0  0  0  0  0  0  0  0  0  0  0  0
  -25.8566  -11.5458   21.1712 N   0  0  0  0  0  0  0  0  0  0  0  0
  -26.2171  -12.6657   20.5215 N   0  0  0  0  0  0  0  0  0  0  0  0
  -24.9995  -28.8800   19.7424 N   0  0  0  0  0  0  0  0  0  0  0  0
  -29.9241  -13.5820   20.4782 N   0  0  0  0  0  0  0  0  0  0  0  0
  -25.4053  -14.7641   19.7810 N   0  0  0  0  0  0  0  0  0  0  0  0
  -21.8184  -12.9163   21.8097 N   0  0  0  0  0  0  0  0  0  0  0  0
  -29.9584  -15.9370   20.6030 N   0  0  0  0  0  0  0  0  0  0  0  0
  -26.5440  -28.1743   16.5155 N   0  0  0  0  0  0  0  0  0  0  0  0
  -24.0346  -31.0279   22.1743 N   0  0  0  0  0  0  0  0  0  0  0  0
  -20.8602  -30.2924   23.7396 N   0  3  0  0  0  0  0  0  0  0  0  0
  -28.3099  -20.2948   23.1859 N   0  3  0  0  0  0  0  0  0  0  0  0
  -22.5690  -14.7598   20.6711 O   0  0  0  0  0  0  0  0  0  0  0  0
  -27.2900  -28.4103   18.7087 O   0  0  0  0  0  0  0  0  0  0  0  0
  -25.8091  -20.5690   22.0107 O   0  0  0  0  0  0  0  0  0  0  0  0
  -24.8466  -31.1856   19.4312 O   0  0  0  0  0  0  0  0  0  0  0  0
  -23.4596  -29.2363   23.5296 O   0  0  0  0  0  0  0  0  0  0  0  0
  -31.7949  -14.7633   19.8084 O   0  0  0  0  0  0  0  0  0  0  0  0
  -21.6325   -7.9153   24.2574 O   0  0  0  0  0  0  0  0  0  0  0  0
  -24.7262  -22.9226   21.3197 O   0  0  0  0  0  0  0  0  0  1  0  0
  -22.1039   -2.6684   22.6290 F   0  0  0  0  0  0  0  0  0  0  0  0
  -19.4242   -6.4950   23.3920 F   0  0  0  0  0  0  0  0  0  0  0  0
  -28.3406  -18.1180   21.1908 F   0  0  0  0  0  0  0  0  0  0  0  0
  1  2  1  0  0  0  0
  1  6  2  0  0  0  0
  2  7  2  0  0  0  0
  3  9  2  0  0  0  0
  3 10  1  0  0  0  0
  4 11  2  0  0  0  0
  4 18  1  0  0  0  0
  5 12  1  0  0  0  0
  5 18  2  0  0  0  0
  6 20  1  0  0  0  0
  7 22  1  0  0  0  0
  8 13  2  0  0  0  0
  8 21  1  0  0  0  0
  9 24  1  0  0  0  0
 10 25  2  0  0  0  0
 11 26  1  0  0  0  0
 12 26  2  0  0  0  0
 13 27  1  0  0  0  0
 14 15  2  0  0  0  0
 14 28  1  0  0  0  0
 15 29  1  0  0  0  0
 16 23  1  0  0  0  0
 16 27  2  0  0  0  0
 17 29  2  0  0  0  0
 17 30  1  0  0  0  0
 18 32  1  0  0  0  0
 19 32  1  0  0  0  0
 19 33  2  0  0  0  0
 19 34  1  0  0  0  0
 20 22  2  0  0  0  0
 20 40  1  0  0  0  0
 21 23  2  0  0  0  0
 21 41  1  0  0  0  0
 22 49  1  0  0  0  0
 23 42  1  0  0  0  0
 24 31  2  0  0  0  0
 24 58  1  0  0  0  0
 25 31  1  0  0  0  0
 25 70  1  0  0  0  0
 26 81  1  0  0  0  0
 27 82  1  0  0  0  0
 28 30  2  0  0  0  0
 28 81  1  0  0  0  0
 29 83  1  0  0  0  0
 30 84  1  0  0  0  0
 31 85  1  0  0  0  0
 32 64  2  0  0  0  0
 33 65  1  0  0  0  0
 33 68  1  0  0  0  0
 34 69  1  0  0  0  0
 34 75  2  0  0  0  0
 35 50  1  0  0  0  0
 35 71  1  0  0  0  0
 35 76  2  0  0  0  0
 36 59  1  0  0  0  0
 36 60  1  0  0  0  0
 36 77  2  0  0  0  0
 37 61  1  0  0  0  0
 37 66  1  0  0  0  0
 37 78  2  0  0  0  0
 38 62  1  0  0  0  0
 38 72  1  0  0  0  0
 38 79  2  0  0  0  0
 39 67  1  0  0  0  0
 39 70  1  0  0  0  0
 39 80  2  0  0  0  0
 40 43  1  0  0  0  0
 41 50  1  0  0  0  0
 42 66  1  0  0  0  0
 43 45  1  0  0  0  0
 44 46  1  0  0  0  0
 44 47  1  0  0  0  0
 45 49  1  0  0  0  0
 46 51  1  0  0  0  0
 47 67  1  0  0  0  0
 48 51  1  0  0  0  0
 48 67  1  0  0  0  0
 49 71  1  0  0  0  0
 50 66  1  0  0  0  0
 51 65  1  0  0  0  0
 52 60  1  0  0  0  0
 53 62  1  0  0  0  0
 54 63  1  0  0  0  0
 55 63  1  0  0  0  0
 56 63  1  0  0  0  0
 57 73  1  0  0  0  0
 58 74  1  0  0  0  0
 59 82  1  0  0  0  0
 60 74  1  0  0  0  0
 61 63  1  0  0  0  0
 61 72  1  0  0  0  0
 62 73  1  0  0  0  0
 64 65  1  0  0  0  0
M  CHG  2  73   1  74   1
M  ISO  4  39 100  59 101  70 100  82 101
M  END
> <Batch ID>
0171

> <Smiles>
CNC(C)C(=O)NC(C(=O)N1Cc2cc([101O:1][101CH2:1]C(=O)C(C)NCc3cccc([100NH:0][100C:0](=O)N4CCCC(n5nc(-c6ccc(Oc7ccc(F)cc7F)cc6)c(C(N)=O)c5N)C4)c3F)ccc2CC1C(=O)NC1CCCc2ccccc21)C(C)(C)C

> <Shape>
0.262

> <Color>
0.166

> <Negative vol penalty>
0.000

$$$$

  -OEChem-04052304233D

 88 96  0     1  0  0  0  0  0999 V2000
  -17.6887  -25.7608   21.7178 C   0  0  0  0  0  0  0  0  0  0  0  0
  -18.9891  -25.4256   22.0810 C   0  0  0  0  0  0  0  0  0  0  0  0
  -23.3093   -9.8430   19.8820 C   0  0  0  0  0  0  0  0  0  0  0  0
  -24.4464   -9.5967   21.9994 C   0  0  0  0  0  0  0  0  0  0  0  0
  -17.4258  -27.0013   21.1381 C   0  0  0  0  0  0  0  0  0  0  0  0
  -20.0277  -26.3304   21.8636 C   0  0  0  0  0  0  0  0  0  0  0  0
  -23.1335  -26.7159   25.8448 C   0  0  0  0  0  0  0  0  0  0  0  0
  -22.8814   -8.5176   19.9576 C   0  0  0  0  0  0  0  0  0  0  0  0
  -24.0184   -8.2712   22.0751 C   0  0  0  0  0  0  0  0  0  0  0  0
  -24.0683  -25.6971   26.0242 C   0  0  0  0  0  0  0  0  0  0  0  0
  -21.1903   -6.6114   22.8921 C   0  0  0  0  0  0  0  0  0  0  0  0
  -20.6794   -6.1655   24.1110 C   0  0  0  0  0  0  0  0  0  0  0  0
  -25.7687  -27.0907   25.0314 C   0  0  0  0  0  0  0  0  0  0  0  0
  -28.8209  -18.1064   23.8135 C   0  0  0  0  0  0  0  0  0  0  0  0
  -30.7173  -19.2411   24.7895 C   0  0  0  0  0  0  0  0  0  0  0  0
  -30.9940  -17.9435   22.7704 C   0  0  0  0  0  0  0  0  0  0  0  0
  -22.4115   -4.4848   24.2221 C   0  0  0  0  0  0  0  0  0  0  0  0
  -24.0918  -10.3825   20.9029 C   0  0  0  0  0  0  0  0  0  0  0  0
  -23.8677  -12.8899   21.3159 C   0  0  0  0  0  0  0  0  0  0  0  0
  -18.4601  -27.9255   20.9224 C   0  0  0  0  0  0  0  0  0  0  0  0
  -23.5075  -27.9277   25.2465 C   0  0  0  0  0  0  0  0  0  0  0  0
  -19.7786  -27.5839   21.2793 C   0  0  0  0  0  0  0  0  0  0  0  0
  -24.8374  -28.1242   24.8479 C   0  0  0  0  0  0  0  0  0  0  0  0
  -29.3608  -18.9171   24.8119 C   0  0  0  0  0  0  0  0  0  0  0  0
  -29.6375  -17.6195   22.7928 C   0  0  0  0  0  0  0  0  0  0  0  0
  -23.2359   -7.7317   21.0541 C   0  0  0  0  0  0  0  0  0  0  0  0
  -25.3854  -25.8834   25.6148 C   0  0  0  0  0  0  0  0  0  0  0  0
  -22.3118   -5.9940   22.3381 C   0  0  0  0  0  0  0  0  0  0  0  0
  -21.2900   -5.1023   24.7760 C   0  0  0  0  0  0  0  0  0  0  0  0
  -31.5340  -18.7543   23.7688 C   0  0  0  0  0  0  0  0  0  0  0  0
  -22.9224   -4.9308   23.0032 C   0  0  0  0  0  0  0  0  0  0  0  0
  -24.5347  -11.7515   20.8251 C   0  0  0  0  0  0  0  0  0  0  0  0
  -24.6952  -13.9379   20.9944 C   0  0  0  0  0  0  0  0  0  0  0  0
  -22.6124  -12.9910   22.0012 C   0  0  0  0  0  0  0  0  0  0  0  0
  -22.6534  -29.4854   22.6106 C   0  0  0  0  0  0  0  0  0  0  0  0
  -26.9678  -22.6745   26.5097 C   0  0  0  0  0  0  0  0  0  0  0  0
  -24.5751  -31.8000   23.8239 C   0  0  0  0  0  0  0  0  0  0  0  0
  -27.1884  -32.6242   25.8581 C   0  0  0  0  0  0  0  0  0  0  0  0
  -28.8989  -20.2253   26.9157 C   0  0  0  0  0  0  0  0  0  0  0  0
  -29.7608  -16.2299   20.6951 C   0  0  0  0  0  0  0  0  0  0  0  0
  -18.1346  -29.2354   20.2494 C   0  0  0  0  0  0  0  0  0  0  0  0
  -22.4934  -29.0267   25.0844 C   0  0  0  0  0  0  0  0  0  0  0  0
  -25.2944  -29.4142   24.2188 C   0  0  0  0  0  0  0  0  0  0  0  0
  -19.2329  -30.2853   20.3965 C   0  0  0  0  0  0  0  0  0  0  0  0
  -28.7761  -14.1155   18.0050 C   0  0  0  0  0  0  0  0  0  0  0  0
  -20.5983  -29.6753   20.0961 C   0  0  0  0  0  0  0  0  0  0  0  0
  -27.5300  -13.4056   18.5393 C   0  0  0  0  0  0  0  0  0  0  0  0
  -29.8215  -14.3264   19.0989 C   0  0  0  0  0  0  0  0  0  0  0  0
  -28.0817  -14.2872   20.8426 C   0  0  0  0  0  0  0  0  0  0  0  0
  -20.9281  -28.5482   21.0823 C   0  0  1  0  0  0  0  0  0  0  0  0
  -22.8663  -30.0280   23.9955 C   0  0  1  0  0  0  0  0  0  0  0  0
  -26.9734  -14.1104   19.7918 C   0  0  2  0  0  0  0  0  0  0  0  0
  -28.5523  -34.5903   26.6142 C   0  0  0  0  0  0  0  0  0  0  0  0
  -27.1422  -19.2502   28.4222 C   0  0  0  0  0  0  0  0  0  0  0  0
  -28.2238  -21.3977   29.0548 C   0  0  0  0  0  0  0  0  0  0  0  0
  -26.0497  -31.8013   21.1526 C   0  0  0  0  0  0  0  0  0  0  0  0
  -27.9212  -33.0370   22.2656 C   0  0  0  0  0  0  0  0  0  0  0  0
  -25.6550  -34.0703   22.1274 C   0  0  0  0  0  0  0  0  0  0  0  0
  -26.3930  -32.2375   28.6824 C   0  0  0  0  0  0  0  0  0  0  0  0
  -26.5848  -21.3341   27.1309 C   0  0  0  0  0  0  0  0  0  0  0  0
  -25.8405  -23.6838   26.3962 C   0  0  0  0  0  0  0  0  0  1  0  0
  -26.0420  -32.1389   23.7123 C   0  0  1  0  0  0  0  0  0  0  0  0
  -27.3456  -33.7118   26.9054 C   0  0  2  0  0  0  0  0  0  0  0  0
  -27.7156  -20.5668   27.8578 C   0  0  0  0  0  0  0  0  0  0  0  0
  -26.4082  -32.7367   22.3245 C   0  0  0  0  0  0  0  0  0  0  0  0
  -25.6963  -12.0482   20.2364 N   0  0  0  0  0  0  0  0  0  0  0  0
  -25.7657  -13.3851   20.3551 N   0  0  0  0  0  0  0  0  0  0  0  0
  -24.2643  -30.4563   24.0761 N   0  0  0  0  0  0  0  0  0  0  0  0
  -29.2233  -15.0030   20.2518 N   0  0  0  0  0  0  0  0  0  0  0  0
  -24.6043  -15.2692   21.1989 N   0  0  0  0  0  0  0  0  0  0  0  0
  -21.8910  -11.8156   22.2511 N   0  0  0  0  0  0  0  0  0  0  0  0
  -28.5323  -19.4113   25.8484 N   0  0  0  0  0  0  0  0  0  0  0  0
  -29.0895  -16.7956   21.7786 N   0  0  0  0  0  0  0  0  0  0  0  0
  -21.3528  -29.0963   22.3525 N   0  0  0  0  0  0  0  0  0  0  0  0
  -26.3455  -33.0145   24.8391 N   0  0  0  0  0  0  0  0  0  0  0  0
  -27.5189  -33.1083   28.2570 N   0  3  0  0  0  0  0  0  0  0  0  0
  -22.1365  -14.0927   22.3663 O   0  0  0  0  0  0  0  0  0  0  0  0
  -23.5988  -29.4257   21.8332 O   0  0  0  0  0  0  0  0  0  0  0  0
  -28.1016  -22.9327   26.1110 O   0  0  0  0  0  0  0  0  0  0  0  0
  -23.7363  -32.6958   23.6992 O   0  0  0  0  0  0  0  0  0  0  0  0
  -27.7595  -31.5386   25.9344 O   0  0  0  0  0  0  0  0  0  0  0  0
  -30.0295  -20.6521   27.1436 O   0  0  0  0  0  0  0  0  0  0  0  0
  -30.7275  -16.7546   20.1364 O   0  0  0  0  0  0  0  0  0  0  0  0
  -22.8183   -6.4384   21.1283 O   0  0  0  0  0  0  0  0  0  0  0  0
  -26.2996  -24.8904   25.7881 O   0  0  0  0  0  0  0  0  0  1  0  0
  -20.8002   -4.6752   25.9473 F   0  0  0  0  0  0  0  0  0  0  0  0
  -32.8368  -19.0647   23.7475 F   0  0  0  0  0  0  0  0  0  0  0  0
  -24.0007   -4.3344   22.4766 F   0  0  0  0  0  0  0  0  0  0  0  0
  1  2  1  0  0  0  0
  1  5  2  0  0  0  0
  2  6  2  0  0  0  0
  3  8  2  0  0  0  0
  3 18  1  0  0  0  0
  4  9  1  0  0  0  0
  4 18  2  0  0  0  0
  5 20  1  0  0  0  0
  6 22  1  0  0  0  0
  7 10  2  0  0  0  0
  7 21  1  0  0  0  0
  8 26  1  0  0  0  0
  9 26  2  0  0  0  0
 10 27  1  0  0  0  0
 11 12  2  0  0  0  0
 11 28  1  0  0  0  0
 12 29  1  0  0  0  0
 13 23  1  0  0  0  0
 13 27  2  0  0  0  0
 14 24  2  0  0  0  0
 14 25  1  0  0  0  0
 15 24  1  0  0  0  0
 15 30  2  0  0  0  0
 16 25  2  0  0  0  0
 16 30  1  0  0  0  0
 17 29  2  0  0  0  0
 17 31  1  0  0  0  0
 18 32  1  0  0  0  0
 19 32  1  0  0  0  0
 19 33  2  0  0  0  0
 19 34  1  0  0  0  0
 20 22  2  0  0  0  0
 20 41  1  0  0  0  0
 21 23  2  0  0  0  0
 21 42  1  0  0  0  0
 22 50  1  0  0  0  0
 23 43  1  0  0  0  0
 24 72  1  0  0  0  0
 25 73  1  0  0  0  0
 26 84  1  0  0  0  0
 27 85  1  0  0  0  0
 28 31  2  0  0  0  0
 28 84  1  0  0  0  0
 29 86  1  0  0  0  0
 30 87  1  0  0  0  0
 31 88  1  0  0  0  0
 32 66  2  0  0  0  0
 33 67  1  0  0  0  0
 33 70  1  0  0  0  0
 34 71  1  0  0  0  0
 34 77  2  0  0  0  0
 35 51  1  0  0  0  0
 35 74  1  0  0  0  0
 35 78  2  0  0  0  0
 36 60  1  0  0  0  0
 36 61  1  0  0  0  0
 36 79  2  0  0  0  0
 37 62  1  0  0  0  0
 37 68  1  0  0  0  0
 37 80  2  0  0  0  0
 38 63  1  0  0  0  0
 38 75  1  0  0  0  0
 38 81  2  0  0  0  0
 39 64  1  0  0  0  0
 39 72  1  0  0  0  0
 39 82  2  0  0  0  0
 40 69  1  0  0  0  0
 40 73  1  0  0  0  0
 40 83  2  0  0  0  0
 41 44  1  0  0  0  0
 42 51  1  0  0  0  0
 43 68  1  0  0  0  0
 44 46  1  0  0  0  0
 45 47  1  0  0  0  0
 45 48  1  0  0  0  0
 46 50  1  0  0  0  0
 47 52  1  0  0  0  0
 48 69  1  0  0  0  0
 49 52  1  0  0  0  0
 49 69  1  0  0  0  0
 50 74  1  0  0  0  0
 51 68  1  0  0  0  0
 52 67  1  0  0  0  0
 53 63  1  0  0  0  0
 54 64  1  0  0  0  0
 55 64  1  0  0  0  0
 56 65  1  0  0  0  0
 57 65  1  0  0  0  0
 58 65  1  0  0  0  0
 59 76  1  0  0  0  0
 60 64  1  0  0  0  0
 61 85  1  0  0  0  0
 62 65  1  0  0  0  0
 62 75  1  0  0  0  0
 63 76  1  0  0  0  0
 66 67  1  0  0  0  0
M  CHG  1  76   1
M  ISO  4  40 100  61 101  73 100  85 101
M  END
> <Batch ID>
0171

> <Smiles>
CNC(C)C(=O)NC(C(=O)N1Cc2cc([101O:1][101CH2:1]C(=O)CC(C)(C)C(=O)Nc3cc(F)cc([100NH:0][100C:0](=O)N4CCCC(n5nc(-c6ccc(Oc7ccc(F)cc7F)cc6)c(C(N)=O)c5N)C4)c3)ccc2CC1C(=O)NC1CCCc2ccccc21)C(C)(C)C

> <Shape>
0.284

> <Color>
0.131

> <Negative vol penalty>
0.000

$$$$

  -OEChem-04052304233D

 86 94  0     1  0  0  0  0  0999 V2000
  -22.1502  -22.8565   30.7500 C   0  0  0  0  0  0  0  0  0  0  0  0
  -22.7743  -21.6968   30.3018 C   0  0  0  0  0  0  0  0  0  0  0  0
  -23.1907   -9.8195   19.9317 C   0  0  0  0  0  0  0  0  0  0  0  0
  -23.5701   -9.9993   22.3110 C   0  0  0  0  0  0  0  0  0  0  0  0
  -22.3726  -23.3086   32.0501 C   0  0  0  0  0  0  0  0  0  0  0  0
  -23.6221  -20.9890   31.1531 C   0  0  0  0  0  0  0  0  0  0  0  0
  -24.3843  -14.9165   31.3755 C   0  0  0  0  0  0  0  0  0  0  0  0
  -22.4249   -8.6725   20.1405 C   0  0  0  0  0  0  0  0  0  0  0  0
  -22.8042   -8.8523   22.5197 C   0  0  0  0  0  0  0  0  0  0  0  0
  -25.3529  -14.0723   30.8343 C   0  0  0  0  0  0  0  0  0  0  0  0
  -23.2063   -5.5058   22.2544 C   0  0  0  0  0  0  0  0  0  0  0  0
  -23.7054   -4.5444   23.1331 C   0  0  0  0  0  0  0  0  0  0  0  0
  -26.5523  -14.1168   32.9269 C   0  0  0  0  0  0  0  0  0  0  0  0
  -30.6988  -12.5157   25.3133 C   0  0  0  0  0  0  0  0  0  0  0  0
  -32.6596  -12.1083   23.9620 C   0  0  0  0  0  0  0  0  0  0  0  0
  -21.7495   -4.8033   24.5275 C   0  0  0  0  0  0  0  0  0  0  0  0
  -23.7633  -10.4829   21.0170 C   0  0  0  0  0  0  0  0  0  0  0  0
  -32.7704  -11.8470   26.3613 C   0  0  0  0  0  0  0  0  0  0  0  0
  -24.1010  -12.9997   20.7738 C   0  0  0  0  0  0  0  0  0  0  0  0
  -23.2160  -22.6007   32.9209 C   0  0  0  0  0  0  0  0  0  0  0  0
  -24.4983  -15.3767   32.6952 C   0  0  0  0  0  0  0  0  0  0  0  0
  -23.8571  -21.4328   32.4656 C   0  0  0  0  0  0  0  0  0  0  0  0
  -25.5824  -14.9647   33.4833 C   0  0  0  0  0  0  0  0  0  0  0  0
  -31.3155  -12.4670   24.0631 C   0  0  0  0  0  0  0  0  0  0  0  0
  -31.4263  -12.2057   26.4624 C   0  0  0  0  0  0  0  0  0  0  0  0
  -22.2316   -8.1889   21.4345 C   0  0  0  0  0  0  0  0  0  0  0  0
  -26.4386  -13.6746   31.6091 C   0  0  0  0  0  0  0  0  0  0  0  0
  -21.9788   -6.1161   22.5123 C   0  0  0  0  0  0  0  0  0  0  0  0
  -22.9770   -4.1931   24.2696 C   0  0  0  0  0  0  0  0  0  0  0  0
  -33.3871  -11.7983   25.1111 C   0  0  0  0  0  0  0  0  0  0  0  0
  -21.2504   -5.7648   23.6488 C   0  0  0  0  0  0  0  0  0  0  0  0
  -24.5550  -11.6674   20.8019 C   0  0  0  0  0  0  0  0  0  0  0  0
  -25.2319  -13.7428   20.5382 C   0  0  0  0  0  0  0  0  0  0  0  0
  -33.5540  -11.5165   27.5450 C   0  0  0  0  0  0  0  0  0  0  0  0
  -22.7757  -13.5191   20.9455 C   0  0  0  0  0  0  0  0  0  0  0  0
  -24.7981  -18.2334   34.0566 C   0  0  0  0  0  0  0  0  0  0  0  0
  -29.0503  -12.5751   29.3435 C   0  0  0  0  0  0  0  0  0  0  0  0
  -24.4877  -16.5274   36.7981 C   0  0  0  0  0  0  0  0  0  0  0  0
  -24.7948  -13.5261   38.3933 C   0  0  0  0  0  0  0  0  0  0  0  0
  -31.0371  -12.7839   21.5795 C   0  0  0  0  0  0  0  0  0  0  0  0
  -23.4628  -23.1542   34.3020 C   0  0  0  0  0  0  0  0  0  0  0  0
  -23.4311  -16.2654   33.2728 C   0  0  0  0  0  0  0  0  0  0  0  0
  -25.7405  -15.4144   34.9120 C   0  0  0  0  0  0  0  0  0  0  0  0
  -24.0811  -22.1415   35.2624 C   0  0  0  0  0  0  0  0  0  0  0  0
  -29.5229  -13.4659   18.4300 C   0  0  0  0  0  0  0  0  0  0  0  0
  -25.2413  -21.4110   34.5938 C   0  0  0  0  0  0  0  0  0  0  0  0
  -28.0351  -13.2092   18.6800 C   0  0  0  0  0  0  0  0  0  0  0  0
  -30.4048  -12.4809   19.1955 C   0  0  0  0  0  0  0  0  0  0  0  0
  -28.6459  -12.1384   20.8861 C   0  0  0  0  0  0  0  0  0  0  0  0
  -24.7641  -20.6239   33.3673 C   0  0  1  0  0  0  0  0  0  0  0  0
  -23.9168  -17.0864   34.4633 C   0  0  1  0  0  0  0  0  0  0  0  0
  -27.7194  -13.1468   20.1873 C   0  0  2  0  0  0  0  0  0  0  0  0
  -34.1548  -10.1442   27.6141 C   0  0  0  0  0  0  0  0  0  0  0  0
  -24.5030  -12.4516   40.6422 C   0  0  0  0  0  0  0  0  0  0  0  0
  -27.0791  -17.8257   37.7518 C   0  0  0  0  0  0  0  0  0  0  0  0
  -27.2347  -16.0559   39.5159 C   0  0  0  0  0  0  0  0  0  0  0  0
  -25.3027  -17.6339   39.5018 C   0  0  0  0  0  0  0  0  0  0  0  0
  -22.7483  -11.6533   37.3620 C   0  0  0  0  0  0  0  0  0  0  0  0
  -29.4113  -12.6219   27.8739 C   0  0  0  0  0  0  0  0  0  0  0  0
  -27.6175  -12.9419   29.6780 C   0  0  0  0  0  0  0  0  0  1  0  0
  -25.4420  -15.8292   37.7366 C   0  0  1  0  0  0  0  0  0  0  0  0
  -23.8477  -12.7696   39.3072 C   0  0  2  0  0  0  0  0  0  0  0  0
  -26.2630  -16.8291   38.5990 C   0  0  0  0  0  0  0  0  0  0  0  0
  -25.8715  -11.5668   20.6001 N   0  0  0  0  0  0  0  0  0  0  0  0
  -26.2545  -12.8454   20.4429 N   0  0  0  0  0  0  0  0  0  0  0  0
  -24.6741  -16.2878   35.4293 N   0  0  0  0  0  0  0  0  0  0  0  0
  -30.0517  -12.4789   20.6169 N   0  0  0  0  0  0  0  0  0  0  0  0
  -25.4413  -15.0698   20.4053 N   0  0  0  0  0  0  0  0  0  0  0  0
  -21.7295  -12.6164   21.1797 N   0  0  0  0  0  0  0  0  0  0  0  0
  -30.5770  -12.7831   22.8959 N   0  0  0  0  0  0  0  0  0  0  0  0
  -30.7943  -12.2601   27.6965 N   0  0  0  0  0  0  0  0  0  0  0  0
  -24.1108  -19.3988   33.7757 N   0  0  0  0  0  0  0  0  0  0  0  0
  -24.6382  -14.8909   38.5124 N   0  0  0  0  0  0  0  0  0  0  0  0
  -23.4285  -11.4881   38.6724 N   0  3  0  0  0  0  0  0  0  0  0  0
  -33.7538  -12.2780   28.4913 O   0  0  0  0  0  0  0  0  0  0  0  0
  -22.5241  -14.7461   20.8763 O   0  0  0  0  0  0  0  0  0  0  0  0
  -26.0118  -18.0733   34.0031 O   0  0  0  0  0  0  0  0  0  0  0  0
  -29.8579  -12.2619   30.2173 O   0  0  0  0  0  0  0  0  0  0  0  0
  -23.6049  -17.2529   37.2628 O   0  0  0  0  0  0  0  0  0  0  0  0
  -25.5960  -12.9628   37.6509 O   0  0  0  0  0  0  0  0  0  0  0  0
  -32.1970  -13.0544   21.2577 O   0  0  0  0  0  0  0  0  0  0  0  0
  -21.4842   -7.0699   21.6386 O   0  0  0  0  0  0  0  0  0  0  0  0
  -27.3858  -12.8512   31.0831 O   0  0  0  0  0  0  0  0  0  1  0  0
  -23.4557   -3.2687   25.1125 F   0  0  0  0  0  0  0  0  0  0  0  0
  -34.6781  -11.4538   25.0008 F   0  0  0  0  0  0  0  0  0  0  0  0
  -20.0699   -6.3467   23.9012 F   0  0  0  0  0  0  0  0  0  0  0  0
  1  2  1  0  0  0  0
  1  5  2  0  0  0  0
  2  6  2  0  0  0  0
  3  8  2  0  0  0  0
  3 17  1  0  0  0  0
  4  9  1  0  0  0  0
  4 17  2  0  0  0  0
  5 20  1  0  0  0  0
  6 22  1  0  0  0  0
  7 10  2  0  0  0  0
  7 21  1  0  0  0  0
  8 26  1  0  0  0  0
  9 26  2  0  0  0  0
 10 27  1  0  0  0  0
 11 12  2  0  0  0  0
 11 28  1  0  0  0  0
 12 29  1  0  0  0  0
 13 23  1  0  0  0  0
 13 27  2  0  0  0  0
 14 24  2  0  0  0  0
 14 25  1  0  0  0  0
 15 24  1  0  0  0  0
 15 30  2  0  0  0  0
 16 29  2  0  0  0  0
 16 31  1  0  0  0  0
 17 32  1  0  0  0  0
 18 25  2  0  0  0  0
 18 30  1  0  0  0  0
 18 34  1  0  0  0  0
 19 32  1  0  0  0  0
 19 33  2  0  0  0  0
 19 35  1  0  0  0  0
 20 22  2  0  0  0  0
 20 41  1  0  0  0  0
 21 23  2  0  0  0  0
 21 42  1  0  0  0  0
 22 50  1  0  0  0  0
 23 43  1  0  0  0  0
 24 70  1  0  0  0  0
 25 71  1  0  0  0  0
 26 82  1  0  0  0  0
 27 83  1  0  0  0  0
 28 31  2  0  0  0  0
 28 82  1  0  0  0  0
 29 84  1  0  0  0  0
 30 85  1  0  0  0  0
 31 86  1  0  0  0  0
 32 64  2  0  0  0  0
 33 65  1  0  0  0  0
 33 68  1  0  0  0  0
 34 53  1  0  0  0  0
 34 75  2  0  0  0  0
 35 69  1  0  0  0  0
 35 76  2  0  0  0  0
 36 51  1  0  0  0  0
 36 72  1  0  0  0  0
 36 77  2  0  0  0  0
 37 59  1  0  0  0  0
 37 60  1  0  0  0  0
 37 78  2  0  0  0  0
 38 61  1  0  0  0  0
 38 66  1  0  0  0  0
 38 79  2  0  0  0  0
 39 62  1  0  0  0  0
 39 73  1  0  0  0  0
 39 80  2  0  0  0  0
 40 67  1  0  0  0  0
 40 70  1  0  0  0  0
 40 81  2  0  0  0  0
 41 44  1  0  0  0  0
 42 51  1  0  0  0  0
 43 66  1  0  0  0  0
 44 46  1  0  0  0  0
 45 47  1  0  0  0  0
 45 48  1  0  0  0  0
 46 50  1  0  0  0  0
 47 52  1  0  0  0  0
 48 67  1  0  0  0  0
 49 52  1  0  0  0  0
 49 67  1  0  0  0  0
 50 72  1  0  0  0  0
 51 66  1  0  0  0  0
 52 65  1  0  0  0  0
 54 62  1  0  0  0  0
 55 63  1  0  0  0  0
 56 63  1  0  0  0  0
 57 63  1  0  0  0  0
 58 74  1  0  0  0  0
 59 71  1  0  0  0  0
 60 83  1  0  0  0  0
 61 63  1  0  0  0  0
 61 73  1  0  0  0  0
 62 74  1  0  0  0  0
 64 65  1  0  0  0  0
M  CHG  1  74   1
M  ISO  4  40 100  60 101  70 100  83 101
M  END
> <Batch ID>
0171

> <Smiles>
CNC(C)C(=O)NC(C(=O)N1Cc2cc([101O:1][101CH2:1]C(=O)CNc3cc([100NH:0][100C:0](=O)N4CCCC(n5nc(-c6ccc(Oc7ccc(F)cc7F)cc6)c(C(N)=O)c5N)C4)cc(F)c3C(C)=O)ccc2CC1C(=O)NC1CCCc2ccccc21)C(C)(C)C

> <Shape>
0.139

> <Color>
0.178

> <Negative vol penalty>
0.000

$$$$

  -OEChem-04052304233D

 83 91  0     1  0  0  0  0  0999 V2000
  -29.5457  -34.8650   21.2593 C   0  0  0  0  0  0  0  0  0  0  0  0
  -28.6158  -34.0177   20.6653 C   0  0  0  0  0  0  0  0  0  0  0  0
  -26.6909  -15.0384   21.1447 C   0  0  0  0  0  0  0  0  0  0  0  0
  -24.3600  -14.9426   20.5164 C   0  0  0  0  0  0  0  0  0  0  0  0
  -30.9066  -34.5737   21.1742 C   0  0  0  0  0  0  0  0  0  0  0  0
  -29.0463  -32.8792   19.9849 C   0  0  0  0  0  0  0  0  0  0  0  0
  -26.2958  -28.7815   21.1199 C   0  0  0  0  0  0  0  0  0  0  0  0
  -26.7958  -13.6591   20.9660 C   0  0  0  0  0  0  0  0  0  0  0  0
  -24.4649  -13.5632   20.3377 C   0  0  0  0  0  0  0  0  0  0  0  0
  -25.0470  -28.6642   20.5112 C   0  0  0  0  0  0  0  0  0  0  0  0
  -24.0259   -9.9657   20.0636 C   0  0  0  0  0  0  0  0  0  0  0  0
  -23.0110   -9.1650   20.5874 C   0  0  0  0  0  0  0  0  0  0  0  0
  -25.9834  -27.1337   18.8988 C   0  0  0  0  0  0  0  0  0  0  0  0
  -23.5007   -9.9941   22.8033 C   0  0  0  0  0  0  0  0  0  0  0  0
  -25.4730  -15.6802   20.9200 C   0  0  0  0  0  0  0  0  0  0  0  0
  -25.5824  -18.1067   20.1403 C   0  0  0  0  0  0  0  0  0  0  0  0
  -31.3534  -33.4260   20.5007 C   0  0  0  0  0  0  0  0  0  0  0  0
  -27.4020  -28.0830   20.6152 C   0  0  0  0  0  0  0  0  0  0  0  0
  -30.4145  -32.5731   19.8896 C   0  0  0  0  0  0  0  0  0  0  0  0
  -27.2445  -27.2418   19.5044 C   0  0  0  0  0  0  0  0  0  0  0  0
  -25.6829  -12.9215   20.5625 C   0  0  0  0  0  0  0  0  0  0  0  0
  -24.8913  -27.8425   19.3987 C   0  0  0  0  0  0  0  0  0  0  0  0
  -24.7783  -10.7806   20.9095 C   0  0  0  0  0  0  0  0  0  0  0  0
  -22.7484   -9.1792   21.9573 C   0  0  0  0  0  0  0  0  0  0  0  0
  -24.5156  -10.7948   22.2794 C   0  0  0  0  0  0  0  0  0  0  0  0
  -25.3638  -17.1050   21.1049 C   0  0  0  0  0  0  0  0  0  0  0  0
  -20.7084  -26.0983   22.5614 C   0  0  0  0  0  0  0  0  0  0  0  0
  -20.7105  -25.8534   21.2041 C   0  0  0  0  0  0  0  0  0  0  0  0
  -25.3527  -19.2839   20.8095 C   0  0  0  0  0  0  0  0  0  0  0  0
  -21.5305  -24.0653   22.5945 C   0  0  0  0  0  0  0  0  0  0  0  0
  -25.9594  -17.9840   18.7624 C   0  0  0  0  0  0  0  0  0  0  0  0
  -30.2117  -28.9182   19.3855 C   0  0  0  0  0  0  0  0  0  0  0  0
  -30.7534  -25.7208   19.4551 C   0  0  0  0  0  0  0  0  0  0  0  0
  -29.4594  -22.5630   19.4852 C   0  0  0  0  0  0  0  0  0  0  0  0
  -22.3267  -22.3916   24.3007 C   0  0  0  0  0  0  0  0  0  0  0  0
  -32.8373  -33.1780   20.3946 C   0  0  0  0  0  0  0  0  0  0  0  0
  -28.7365  -28.1994   21.2994 C   0  0  0  0  0  0  0  0  0  0  0  0
  -28.3961  -26.4549   18.9360 C   0  0  0  0  0  0  0  0  0  0  0  0
  -33.1882  -31.7524   19.9765 C   0  0  0  0  0  0  0  0  0  0  0  0
  -24.7274  -20.1970   25.7488 C   0  0  0  0  0  0  0  0  0  0  0  0
  -32.3290  -31.3160   18.7941 C   0  0  0  0  0  0  0  0  0  0  0  0
  -25.1250  -19.2793   24.5904 C   0  0  0  0  0  0  0  0  0  0  0  0
  -23.2435  -20.5569   25.7037 C   0  0  0  0  0  0  0  0  0  0  0  0
  -23.1754  -20.1942   23.2679 C   0  0  0  0  0  0  0  0  0  0  0  0
  -30.8409  -31.3153   19.1641 C   0  0  1  0  0  0  0  0  0  0  0  0
  -29.9077  -27.8424   20.3894 C   0  0  1  0  0  0  0  0  0  0  0  0
  -24.6749  -19.8567   23.2341 C   0  0  2  0  0  0  0  0  0  0  0  0
  -20.2545  -27.3400   23.2202 C   0  0  0  0  0  0  0  0  0  0  0  0
  -29.4350  -20.0579   19.6318 C   0  0  0  0  0  0  0  0  0  0  0  0
  -31.4614  -25.9026   16.4927 C   0  0  0  0  0  0  0  0  0  0  0  0
  -31.2110  -23.4155   16.3517 C   0  0  0  0  0  0  0  0  0  0  0  0
  -32.9550  -24.4098   17.8325 C   0  0  0  0  0  0  0  0  0  0  0  0
  -29.2321  -22.6220   22.4354 C   0  0  0  0  0  0  0  0  0  0  0  0
  -22.5251  -27.8790   19.6355 C   0  0  0  0  0  0  0  0  0  1  0  0
  -30.5217  -24.5761   18.4986 C   0  0  1  0  0  0  0  0  0  0  0  0
  -29.7700  -21.3553   20.3510 C   0  0  2  0  0  0  0  0  0  0  0  0
  -21.3994  -27.0285   19.0649 C   0  0  1  0  0  0  0  0  0  0  0  0
  -20.2734  -26.7315   20.0564 C   0  0  0  0  0  0  0  0  0  0  0  0
  -31.5158  -24.5922   17.3032 C   0  0  0  0  0  0  0  0  0  0  0  0
  -25.0216  -17.6024   22.2964 N   0  0  0  0  0  0  0  0  0  0  0  0
  -21.1778  -25.0740   23.3603 N   0  0  0  0  0  0  0  0  0  0  0  0
  -25.0236  -18.9295   22.0848 N   0  0  0  0  0  0  0  0  0  0  0  0
  -29.6822  -26.6070   19.6363 N   0  0  0  0  0  0  0  0  0  0  0  0
  -22.8908  -21.1015   24.3907 N   0  0  0  0  0  0  0  0  0  0  0  0
  -25.4022  -20.5772   20.4257 N   0  0  0  0  0  0  0  0  0  0  0  0
  -26.1551  -16.7003   18.2350 N   0  0  0  0  0  0  0  0  0  0  0  0
  -22.0631  -22.8161   22.9988 N   0  0  0  0  0  0  0  0  0  0  0  0
  -30.5155  -30.1432   19.9481 N   0  0  0  0  0  0  0  0  0  0  0  0
  -30.5707  -23.3580   19.3001 N   0  0  0  0  0  0  0  0  0  0  0  0
  -28.9832  -21.4084   21.6155 N   0  3  0  0  0  0  0  0  0  0  0  0
  -26.1339  -18.9838   18.0252 O   0  0  0  0  0  0  0  0  0  0  0  0
  -30.1748  -28.6560   18.1890 O   0  0  0  0  0  0  0  0  0  0  0  0
  -31.8423  -25.8207   20.0262 O   0  0  0  0  0  0  0  0  0  0  0  0
  -28.3436  -22.7775   19.0167 O   0  0  0  0  0  0  0  0  0  0  0  0
  -22.1197  -23.0807   25.3028 O   0  0  0  0  0  0  0  0  0  0  0  0
  -25.7850  -11.5755   20.3878 O   0  0  0  0  0  0  0  0  0  0  0  0
  -23.6736  -27.7268   18.8023 O   0  0  0  0  0  0  0  0  0  1  0  0
  -21.7727   -8.4114   22.4600 F   0  0  0  0  0  0  0  0  0  0  0  0
  -25.2343  -11.5764   23.0969 F   0  0  0  0  0  0  0  0  0  0  0  0
  -20.8437  -27.7378   18.0333 F   0  0  0  0  0  0  0  0  0  0  0  0
  -19.7567  -27.9255   20.4726 F   0  0  0  0  0  0  0  0  0  0  0  0
  -19.2630  -26.1385   19.3494 F   0  0  0  0  0  0  0  0  0  0  0  0
  -21.3250  -24.2805   20.9044 S   0  0  0  0  0  0  0  0  0  0  0  0
  1  2  1  0  0  0  0
  1  5  2  0  0  0  0
  2  6  2  0  0  0  0
  3  8  2  0  0  0  0
  3 15  1  0  0  0  0
  4  9  1  0  0  0  0
  4 15  2  0  0  0  0
  5 17  1  0  0  0  0
  6 19  1  0  0  0  0
  7 10  2  0  0  0  0
  7 18  1  0  0  0  0
  8 21  1  0  0  0  0
  9 21  2  0  0  0  0
 10 22  1  0  0  0  0
 11 12  2  0  0  0  0
 11 23  1  0  0  0  0
 12 24  1  0  0  0  0
 13 20  1  0  0  0  0
 13 22  2  0  0  0  0
 14 24  2  0  0  0  0
 14 25  1  0  0  0  0
 15 26  1  0  0  0  0
 16 26  1  0  0  0  0
 16 29  2  0  0  0  0
 16 31  1  0  0  0  0
 17 19  2  0  0  0  0
 17 36  1  0  0  0  0
 18 20  2  0  0  0  0
 18 37  1  0  0  0  0
 19 45  1  0  0  0  0
 20 38  1  0  0  0  0
 21 76  1  0  0  0  0
 22 77  1  0  0  0  0
 23 25  2  0  0  0  0
 23 76  1  0  0  0  0
 24 78  1  0  0  0  0
 25 79  1  0  0  0  0
 26 60  2  0  0  0  0
 27 28  2  0  0  0  0
 27 48  1  0  0  0  0
 27 61  1  0  0  0  0
 28 58  1  0  0  0  0
 28 83  1  0  0  0  0
 29 62  1  0  0  0  0
 29 65  1  0  0  0  0
 30 61  2  0  0  0  0
 30 67  1  0  0  0  0
 30 83  1  0  0  0  0
 31 66  1  0  0  0  0
 31 71  2  0  0  0  0
 32 46  1  0  0  0  0
 32 68  1  0  0  0  0
 32 72  2  0  0  0  0
 33 55  1  0  0  0  0
 33 63  1  0  0  0  0
 33 73  2  0  0  0  0
 34 56  1  0  0  0  0
 34 69  1  0  0  0  0
 34 74  2  0  0  0  0
 35 64  1  0  0  0  0
 35 67  1  0  0  0  0
 35 75  2  0  0  0  0
 36 39  1  0  0  0  0
 37 46  1  0  0  0  0
 38 63  1  0  0  0  0
 39 41  1  0  0  0  0
 40 42  1  0  0  0  0
 40 43  1  0  0  0  0
 41 45  1  0  0  0  0
 42 47  1  0  0  0  0
 43 64  1  0  0  0  0
 44 47  1  0  0  0  0
 44 64  1  0  0  0  0
 45 68  1  0  0  0  0
 46 63  1  0  0  0  0
 47 62  1  0  0  0  0
 49 56  1  0  0  0  0
 50 59  1  0  0  0  0
 51 59  1  0  0  0  0
 52 59  1  0  0  0  0
 53 70  1  0  0  0  0
 54 57  1  0  0  0  0
 54 77  1  0  0  0  0
 55 59  1  0  0  0  0
 55 69  1  0  0  0  0
 56 70  1  0  0  0  0
 57 58  1  0  0  0  0
 57 80  1  0  0  0  0
 58 81  1  0  0  0  0
 58 82  1  0  0  0  0
 60 62  1  0  0  0  0
M  CHG  1  70   1
M  ISO  4  35 100  54 101  67 100  77 101
M  END
> <Batch ID>
0171

> <Smiles>
CNC(C)C(=O)NC(C(=O)N1Cc2cc([101O:1][101CH2:1]C(F)C(F)(F)c3sc([100NH:0][100C:0](=O)N4CCCC(n5nc(-c6ccc(Oc7ccc(F)cc7F)cc6)c(C(N)=O)c5N)C4)nc3C)ccc2CC1C(=O)NC1CCCc2ccccc21)C(C)(C)C

> <Shape>
0.211

> <Color>
0.059

> <Negative vol penalty>
0.000

$$$$

  -OEChem-04052304233D

 85 93  0     1  0  0  0  0  0999 V2000
  -29.1115  -32.4771   25.8430 C   0  0  0  0  0  0  0  0  0  0  0  0
  -28.6913  -31.1583   25.9830 C   0  0  0  0  0  0  0  0  0  0  0  0
  -23.2109   -9.6940   20.9798 C   0  0  0  0  0  0  0  0  0  0  0  0
  -23.8878  -10.4152   23.1840 C   0  0  0  0  0  0  0  0  0  0  0  0
  -28.2806  -33.4103   25.2245 C   0  0  0  0  0  0  0  0  0  0  0  0
  -27.4394  -30.7722   25.5054 C   0  0  0  0  0  0  0  0  0  0  0  0
  -27.5943  -26.3926   22.9676 C   0  0  0  0  0  0  0  0  0  0  0  0
  -22.5102   -8.6279   21.5437 C   0  0  0  0  0  0  0  0  0  0  0  0
  -23.1870   -9.3491   23.7480 C   0  0  0  0  0  0  0  0  0  0  0  0
  -27.6598  -25.2218   23.7216 C   0  0  0  0  0  0  0  0  0  0  0  0
  -23.2176   -5.5767   22.8142 C   0  0  0  0  0  0  0  0  0  0  0  0
  -23.3631   -4.3216   22.2234 C   0  0  0  0  0  0  0  0  0  0  0  0
  -25.2906  -24.8941   23.4073 C   0  0  0  0  0  0  0  0  0  0  0  0
  -31.4505  -19.5114   22.7231 C   0  0  0  0  0  0  0  0  0  0  0  0
  -31.7940  -17.3661   21.6663 C   0  0  0  0  0  0  0  0  0  0  0  0
  -20.9875   -4.2509   21.7886 C   0  0  0  0  0  0  0  0  0  0  0  0
  -23.8998  -10.5876   21.7999 C   0  0  0  0  0  0  0  0  0  0  0  0
  -24.1340  -12.9801   20.9462 C   0  0  0  0  0  0  0  0  0  0  0  0
  -27.0218  -33.0333   24.7304 C   0  0  0  0  0  0  0  0  0  0  0  0
  -26.3725  -26.8295   22.4360 C   0  0  0  0  0  0  0  0  0  0  0  0
  -26.5903  -31.7015   24.8808 C   0  0  0  0  0  0  0  0  0  0  0  0
  -25.2128  -26.0694   22.6447 C   0  0  0  0  0  0  0  0  0  0  0  0
  -30.0731  -19.3765   22.5493 C   0  0  0  0  0  0  0  0  0  0  0  0
  -30.4166  -17.2311   21.4926 C   0  0  0  0  0  0  0  0  0  0  0  0
  -22.4982   -8.4555   22.9278 C   0  0  0  0  0  0  0  0  0  0  0  0
  -26.5073  -24.4738   23.9440 C   0  0  0  0  0  0  0  0  0  0  0  0
  -21.9570   -6.1690   22.8923 C   0  0  0  0  0  0  0  0  0  0  0  0
  -22.2481   -3.6587   21.7106 C   0  0  0  0  0  0  0  0  0  0  0  0
  -20.8421   -5.5061   22.3795 C   0  0  0  0  0  0  0  0  0  0  0  0
  -29.5562  -18.2364   21.9340 C   0  0  0  0  0  0  0  0  0  0  0  0
  -32.3110  -18.5062   22.2815 C   0  0  0  0  0  0  0  0  0  0  0  0
  -24.6243  -11.6887   21.2179 C   0  0  0  0  0  0  0  0  0  0  0  0
  -25.2043  -13.6459   20.4006 C   0  0  0  0  0  0  0  0  0  0  0  0
  -27.3782  -22.3230   24.2377 C   0  0  0  0  0  0  0  0  0  1  0  0
  -22.8279  -13.5287   21.1673 C   0  0  0  0  0  0  0  0  0  0  0  0
  -27.5139  -21.1580   24.8819 C   0  0  0  0  0  0  0  0  0  0  0  0
  -28.4263  -20.1129   24.3200 C   0  0  0  0  0  0  0  0  0  0  0  0
  -24.5575  -29.4117   22.8127 C   0  0  0  0  0  0  0  0  0  0  0  0
  -22.8287  -28.0677   20.4196 C   0  0  0  0  0  0  0  0  0  0  0  0
  -21.9363  -25.2444   18.7227 C   0  0  0  0  0  0  0  0  0  0  0  0
  -30.6094  -14.9827   20.3729 C   0  0  0  0  0  0  0  0  0  0  0  0
  -26.1392  -34.0881   24.1115 C   0  0  0  0  0  0  0  0  0  0  0  0
  -26.3235  -28.0805   21.6023 C   0  0  0  0  0  0  0  0  0  0  0  0
  -23.8801  -26.4844   22.0788 C   0  0  0  0  0  0  0  0  0  0  0  0
  -24.9825  -33.5136   23.2978 C   0  0  0  0  0  0  0  0  0  0  0  0
  -29.6873  -11.9239   18.8009 C   0  0  0  0  0  0  0  0  0  0  0  0
  -24.2868  -32.3987   24.0723 C   0  0  0  0  0  0  0  0  0  0  0  0
  -28.2476  -11.6963   19.2673 C   0  0  0  0  0  0  0  0  0  0  0  0
  -30.5482  -12.5439   19.9002 C   0  0  0  0  0  0  0  0  0  0  0  0
  -28.5633  -13.5412   20.9654 C   0  0  0  0  0  0  0  0  0  0  0  0
  -25.2495  -31.2387   24.3536 C   0  0  1  0  0  0  0  0  0  0  0  0
  -24.9325  -28.7039   21.5415 C   0  0  1  0  0  0  0  0  0  0  0  0
  -27.6415  -12.9782   19.8713 C   0  0  2  0  0  0  0  0  0  0  0  0
  -20.4767  -24.4563   16.8397 C   0  0  0  0  0  0  0  0  0  0  0  0
  -20.3765  -28.3217   22.2174 C   0  0  0  0  0  0  0  0  0  0  0  0
  -19.1959  -26.7009   20.7183 C   0  0  0  0  0  0  0  0  0  0  0  0
  -19.9732  -28.8928   19.8162 C   0  0  0  0  0  0  0  0  0  0  0  0
  -24.2601  -24.2491   17.1838 C   0  0  0  0  0  0  0  0  0  0  0  0
  -29.1462  -20.4646   23.0286 C   0  0  0  0  0  0  0  0  0  0  0  0
  -21.6731  -27.0989   20.3494 C   0  0  1  0  0  0  0  0  0  0  0  0
  -21.8615  -24.9436   17.2367 C   0  0  2  0  0  0  0  0  0  0  0  0
  -20.3293  -27.7465   20.7878 C   0  0  0  0  0  0  0  0  0  0  0  0
  -25.9062  -11.5408   20.8732 N   0  0  0  0  0  0  0  0  0  0  0  0
  -26.2305  -12.7478   20.3792 N   0  0  0  0  0  0  0  0  0  0  0  0
  -23.8826  -27.7184   21.2758 N   0  0  0  0  0  0  0  0  0  0  0  0
  -29.9135  -13.7563   20.4218 N   0  0  0  0  0  0  0  0  0  0  0  0
  -25.3582  -14.9062   19.9418 N   0  0  0  0  0  0  0  0  0  0  0  0
  -21.8457  -12.7070   21.7369 N   0  0  0  0  0  0  0  0  0  0  0  0
  -29.8932  -16.0721   20.8676 N   0  0  0  0  0  0  0  0  0  0  0  0
  -25.4240  -30.4279   23.1676 N   0  0  0  0  0  0  0  0  0  0  0  0
  -21.6659  -26.5698   18.9898 N   0  0  0  0  0  0  0  0  0  0  0  0
  -22.8525  -23.8925   16.8703 N   0  3  0  0  0  0  0  0  0  0  0  0
  -22.5358  -14.7075   20.8534 O   0  0  0  0  0  0  0  0  0  0  0  0
  -28.5754  -19.0308   24.8851 O   0  0  0  0  0  0  0  0  0  0  0  0
  -23.5553  -29.0627   23.4255 O   0  0  0  0  0  0  0  0  0  0  0  0
  -22.8006  -29.0931   19.7344 O   0  0  0  0  0  0  0  0  0  0  0  0
  -22.2039  -24.3883   19.5630 O   0  0  0  0  0  0  0  0  0  0  0  0
  -31.7458  -15.0656   19.9000 O   0  0  0  0  0  0  0  0  0  0  0  0
  -26.8461  -20.8706   26.0528 O   0  0  0  0  0  0  0  0  0  0  0  0
  -21.8144   -7.4154   23.4785 O   0  0  0  0  0  0  0  0  0  0  0  0
  -26.5682  -23.3309   24.6802 O   0  0  0  0  0  0  0  0  0  1  0  0
  -22.3882   -2.4541   21.1419 F   0  0  0  0  0  0  0  0  0  0  0  0
  -19.6287   -6.0705   22.4505 F   0  0  0  0  0  0  0  0  0  0  0  0
  -28.2310  -18.1084   21.7678 F   0  0  0  0  0  0  0  0  0  0  0  0
  -34.0106  -18.6717   22.4976 Cl  0  0  0  0  0  0  0  0  0  0  0  0
  1  2  1  0  0  0  0
  1  5  2  0  0  0  0
  2  6  2  0  0  0  0
  3  8  2  0  0  0  0
  3 17  1  0  0  0  0
  4  9  1  0  0  0  0
  4 17  2  0  0  0  0
  5 19  1  0  0  0  0
  6 21  1  0  0  0  0
  7 10  2  0  0  0  0
  7 20  1  0  0  0  0
  8 25  1  0  0  0  0
  9 25  2  0  0  0  0
 10 26  1  0  0  0  0
 11 12  2  0  0  0  0
 11 27  1  0  0  0  0
 12 28  1  0  0  0  0
 13 22  1  0  0  0  0
 13 26  2  0  0  0  0
 14 23  1  0  0  0  0
 14 31  2  0  0  0  0
 15 24  2  0  0  0  0
 15 31  1  0  0  0  0
 16 28  2  0  0  0  0
 16 29  1  0  0  0  0
 17 32  1  0  0  0  0
 18 32  1  0  0  0  0
 18 33  2  0  0  0  0
 18 35  1  0  0  0  0
 19 21  2  0  0  0  0
 19 42  1  0  0  0  0
 20 22  2  0  0  0  0
 20 43  1  0  0  0  0
 21 51  1  0  0  0  0
 22 44  1  0  0  0  0
 23 30  2  0  0  0  0
 23 59  1  0  0  0  0
 24 30  1  0  0  0  0
 24 69  1  0  0  0  0
 25 80  1  0  0  0  0
 26 81  1  0  0  0  0
 27 29  2  0  0  0  0
 27 80  1  0  0  0  0
 28 82  1  0  0  0  0
 29 83  1  0  0  0  0
 30 84  1  0  0  0  0
 31 85  1  0  0  0  0
 32 63  2  0  0  0  0
 33 64  1  0  0  0  0
 33 67  1  0  0  0  0
 34 36  2  0  0  0  0
 34 81  1  0  0  0  0
 35 68  1  0  0  0  0
 35 73  2  0  0  0  0
 36 37  1  0  0  0  0
 36 79  1  0  0  0  0
 37 59  1  0  0  0  0
 37 74  2  0  0  0  0
 38 52  1  0  0  0  0
 38 70  1  0  0  0  0
 38 75  2  0  0  0  0
 39 60  1  0  0  0  0
 39 65  1  0  0  0  0
 39 76  2  0  0  0  0
 40 61  1  0  0  0  0
 40 71  1  0  0  0  0
 40 77  2  0  0  0  0
 41 66  1  0  0  0  0
 41 69  1  0  0  0  0
 41 78  2  0  0  0  0
 42 45  1  0  0  0  0
 43 52  1  0  0  0  0
 44 65  1  0  0  0  0
 45 47  1  0  0  0  0
 46 48  1  0  0  0  0
 46 49  1  0  0  0  0
 47 51  1  0  0  0  0
 48 53  1  0  0  0  0
 49 66  1  0  0  0  0
 50 53  1  0  0  0  0
 50 66  1  0  0  0  0
 51 70  1  0  0  0  0
 52 65  1  0  0  0  0
 53 64  1  0  0  0  0
 54 61  1  0  0  0  0
 55 62  1  0  0  0  0
 56 62  1  0  0  0  0
 57 62  1  0  0  0  0
 58 72  1  0  0  0  0
 60 62  1  0  0  0  0
 60 71  1  0  0  0  0
 61 72  1  0  0  0  0
 63 64  1  0  0  0  0
M  CHG  1  72   1
M  ISO  4  34 101  41 100  69 100  81 101
M  END
> <Batch ID>
0171

> <Smiles>
CNC(C)C(=O)NC(C(=O)N1Cc2cc([101O:1][101CH2:1]C(=O)C(=O)Cc3cc(Cl)cc([100NH:0][100C:0](=O)N4CCCC(n5nc(-c6ccc(Oc7ccc(F)cc7F)cc6)c(C(N)=O)c5N)C4)c3F)ccc2CC1C(=O)NC1CCCc2ccccc21)C(C)(C)C

> <Shape>
0.285

> <Color>
0.172

> <Negative vol penalty>
0.000

$$$$

  -OEChem-04052304233D

 88 97  0     1  0  0  0  0  0999 V2000
  -27.8075  -16.5560   17.8049 C   0  0  0  0  0  0  0  0  0  0  0  0
  -27.0993  -17.7392   17.6275 C   0  0  0  0  0  0  0  0  0  0  0  0
  -25.3229  -14.3664   19.6079 C   0  0  0  0  0  0  0  0  0  0  0  0
  -23.4075  -14.0595   21.0480 C   0  0  0  0  0  0  0  0  0  0  0  0
  -28.8728  -16.5137   18.7018 C   0  0  0  0  0  0  0  0  0  0  0  0
  -27.4636  -18.8834   18.3381 C   0  0  0  0  0  0  0  0  0  0  0  0
  -25.1619  -23.0702   17.1647 C   0  0  0  0  0  0  0  0  0  0  0  0
  -25.7557  -13.0749   19.9083 C   0  0  0  0  0  0  0  0  0  0  0  0
  -23.8403  -12.7680   21.3484 C   0  0  0  0  0  0  0  0  0  0  0  0
  -23.8293  -23.3153   17.4931 C   0  0  0  0  0  0  0  0  0  0  0  0
  -23.7900   -9.7223   19.8848 C   0  0  0  0  0  0  0  0  0  0  0  0
  -22.8395   -8.7016   19.8681 C   0  0  0  0  0  0  0  0  0  0  0  0
  -18.6471  -22.6456   20.4796 C   0  0  0  0  0  0  0  0  0  0  0  0
  -24.5438  -24.7589   19.2889 C   0  0  0  0  0  0  0  0  0  0  0  0
  -23.2960   -8.2385   22.1950 C   0  0  0  0  0  0  0  0  0  0  0  0
  -17.6407  -23.5622   20.2528 C   0  0  0  0  0  0  0  0  0  0  0  0
  -24.1488  -14.8588   20.1778 C   0  0  0  0  0  0  0  0  0  0  0  0
  -22.8489  -16.5814   18.8175 C   0  0  0  0  0  0  0  0  0  0  0  0
  -29.2418  -17.6551   19.4325 C   0  0  0  0  0  0  0  0  0  0  0  0
  -26.1973  -23.6599   17.9040 C   0  0  0  0  0  0  0  0  0  0  0  0
  -28.5510  -18.8672   19.2302 C   0  0  0  0  0  0  0  0  0  0  0  0
  -25.8887  -24.5216   18.9662 C   0  0  0  0  0  0  0  0  0  0  0  0
  -25.0144  -12.2757   20.7786 C   0  0  0  0  0  0  0  0  0  0  0  0
  -23.5201  -24.1575   18.5572 C   0  0  0  0  0  0  0  0  0  0  0  0
  -24.4936  -10.0011   21.0566 C   0  0  0  0  0  0  0  0  0  0  0  0
  -22.5925   -7.9597   21.0232 C   0  0  0  0  0  0  0  0  0  0  0  0
  -24.2465   -9.2592   22.2117 C   0  0  0  0  0  0  0  0  0  0  0  0
  -23.7014  -16.1930   19.8682 C   0  0  0  0  0  0  0  0  0  0  0  0
  -19.7430  -23.1209   21.1704 C   0  0  0  0  0  0  0  0  0  0  0  0
  -22.7330  -17.9431   18.9549 C   0  0  0  0  0  0  0  0  0  0  0  0
  -18.8108  -25.1881   21.3274 C   0  0  0  0  0  0  0  0  0  0  0  0
  -22.2181  -15.7828   17.8075 C   0  0  0  0  0  0  0  0  0  0  0  0
  -28.5816  -22.5611   19.6960 C   0  0  0  0  0  0  0  0  0  0  0  0
  -20.5056  -26.0888   19.1140 C   0  0  0  0  0  0  0  0  0  0  0  0
  -29.4374  -25.6887   19.7864 C   0  0  0  0  0  0  0  0  0  0  0  0
  -28.4969  -28.9586   19.5216 C   0  0  0  0  0  0  0  0  0  0  0  0
  -21.9924  -22.4755   22.1032 C   0  0  0  0  0  0  0  0  0  0  0  0
  -30.4078  -17.5553   20.3842 C   0  0  0  0  0  0  0  0  0  0  0  0
  -27.6294  -23.4066   17.5201 C   0  0  0  0  0  0  0  0  0  0  0  0
  -26.9631  -25.1955   19.7785 C   0  0  0  0  0  0  0  0  0  0  0  0
  -30.4360  -18.6835   21.4102 C   0  0  0  0  0  0  0  0  0  0  0  0
  -25.3045  -21.1910   21.8636 C   0  0  0  0  0  0  0  0  0  0  0  0
  -30.2732  -20.0253   20.7119 C   0  0  0  0  0  0  0  0  0  0  0  0
  -19.0574  -26.6026   23.3313 C   0  0  0  0  0  0  0  0  0  0  0  0
  -19.1941  -28.0087   23.9023 C   0  0  0  0  0  0  0  0  0  0  0  0
  -25.1125  -19.8082   21.2367 C   0  0  0  0  0  0  0  0  0  0  0  0
  -24.1746  -21.5364   22.8320 C   0  0  0  0  0  0  0  0  0  0  0  0
  -22.6289  -20.0248   21.6509 C   0  0  0  0  0  0  0  0  0  0  0  0
  -20.1864  -28.7899   21.7294 C   0  0  0  0  0  0  0  0  0  0  0  0
  -28.9098  -20.1162   20.0147 C   0  0  1  0  0  0  0  0  0  0  0  0
  -18.9009  -26.6042   21.8007 C   0  0  1  0  0  0  0  0  0  0  0  0
  -28.6074  -23.6535   18.6646 C   0  0  1  0  0  0  0  0  0  0  0  0
  -20.3550  -28.7565   23.2464 C   0  0  1  0  0  0  0  0  0  0  0  0
  -23.7083  -19.6594   20.6189 C   0  0  2  0  0  0  0  0  0  0  0  0
  -20.4584  -30.1770   23.7997 C   0  0  0  0  0  0  0  0  0  0  0  0
  -29.4104  -31.2903   19.6830 C   0  0  0  0  0  0  0  0  0  0  0  0
  -29.4720  -25.4620   22.8290 C   0  0  0  0  0  0  0  0  0  0  0  0
  -29.4430  -27.9627   22.9461 C   0  0  0  0  0  0  0  0  0  0  0  0
  -31.3576  -26.7888   21.8603 C   0  0  0  0  0  0  0  0  0  0  0  0
  -27.7950  -29.5526   16.7086 C   0  0  0  0  0  0  0  0  0  0  0  0
  -20.0327  -27.4035   19.6759 C   0  0  0  0  0  0  0  0  0  0  0  0
  -21.9191  -25.6666   19.4600 C   0  0  0  0  0  0  0  0  0  1  0  0
  -29.1196  -26.8584   20.6862 C   0  0  1  0  0  0  0  0  0  0  0  0
  -29.1032  -30.1224   18.7586 C   0  0  2  0  0  0  0  0  0  0  0  0
  -29.8276  -26.7539   22.0665 C   0  0  0  0  0  0  0  0  0  0  0  0
  -17.6897  -24.8462   20.6642 N   0  0  0  0  0  0  0  0  0  0  0  0
  -24.0991  -17.2245   20.6178 N   0  0  0  0  0  0  0  0  0  0  0  0
  -19.8586  -24.3910   21.6106 N   0  0  0  0  0  0  0  0  0  0  0  0
  -23.4938  -18.2746   20.0372 N   0  0  0  0  0  0  0  0  0  0  0  0
  -28.3482  -24.9112   19.3682 N   0  0  0  0  0  0  0  0  0  0  0  0
  -22.8748  -21.3769   22.1764 N   0  0  0  0  0  0  0  0  0  0  0  0
  -22.0556  -18.8772   18.2542 N   0  0  0  0  0  0  0  0  0  0  0  0
  -22.4439  -14.3996   17.8118 N   0  0  0  0  0  0  0  0  0  0  0  0
  -20.8005  -22.2137   21.4284 N   0  0  0  0  0  0  0  0  0  0  0  0
  -28.8772  -21.3075   19.1953 N   0  0  0  0  0  0  0  0  0  0  0  0
  -29.4589  -28.0591   19.9300 N   0  0  0  0  0  0  0  0  0  0  0  0
  -20.0731  -27.3797   21.1547 N   0  3  1  0  0  0  0  0  0  0  0  0
  -28.1645  -30.5940   17.7015 N   0  3  0  0  0  0  0  0  0  0  0  0
  -21.4894  -16.2831   16.9175 O   0  0  0  0  0  0  0  0  0  0  0  0
  -28.3149  -22.8355   20.8601 O   0  0  0  0  0  0  0  0  0  0  0  0
  -19.7770  -25.4091   18.3914 O   0  0  0  0  0  0  0  0  0  0  0  0
  -30.6082  -25.4769   19.4607 O   0  0  0  0  0  0  0  0  0  0  0  0
  -27.2911  -28.8593   19.7372 O   0  0  0  0  0  0  0  0  0  0  0  0
  -22.2849  -23.5756   22.5787 O   0  0  0  0  0  0  0  0  0  0  0  0
  -25.4364  -11.0153   21.0718 O   0  0  0  0  0  0  0  0  0  0  0  0
  -22.2203  -24.3979   18.8804 O   0  0  0  0  0  0  0  0  0  1  0  0
  -21.6786   -6.9806   21.0074 F   0  0  0  0  0  0  0  0  0  0  0  0
  -24.9184   -9.5232   23.3407 F   0  0  0  0  0  0  0  0  0  0  0  0
  1  2  1  0  0  0  0
  1  5  2  0  0  0  0
  2  6  2  0  0  0  0
  3  8  2  0  0  0  0
  3 17  1  0  0  0  0
  4  9  1  0  0  0  0
  4 17  2  0  0  0  0
  5 19  1  0  0  0  0
  6 21  1  0  0  0  0
  7 10  2  0  0  0  0
  7 20  1  0  0  0  0
  8 23  1  0  0  0  0
  9 23  2  0  0  0  0
 10 24  1  0  0  0  0
 11 12  2  0  0  0  0
 11 25  1  0  0  0  0
 12 26  1  0  0  0  0
 13 16  1  0  0  0  0
 13 29  2  0  0  0  0
 14 22  1  0  0  0  0
 14 24  2  0  0  0  0
 15 26  2  0  0  0  0
 15 27  1  0  0  0  0
 16 66  2  0  0  0  0
 17 28  1  0  0  0  0
 18 28  1  0  0  0  0
 18 30  2  0  0  0  0
 18 32  1  0  0  0  0
 19 21  2  0  0  0  0
 19 38  1  0  0  0  0
 20 22  2  0  0  0  0
 20 39  1  0  0  0  0
 21 50  1  0  0  0  0
 22 40  1  0  0  0  0
 23 85  1  0  0  0  0
 24 86  1  0  0  0  0
 25 27  2  0  0  0  0
 25 85  1  0  0  0  0
 26 87  1  0  0  0  0
 27 88  1  0  0  0  0
 28 67  2  0  0  0  0
 29 68  1  0  0  0  0
 29 74  1  0  0  0  0
 30 69  1  0  0  0  0
 30 72  1  0  0  0  0
 31 51  1  0  0  0  0
 31 66  1  0  0  0  0
 31 68  2  0  0  0  0
 32 73  1  0  0  0  0
 32 79  2  0  0  0  0
 33 52  1  0  0  0  0
 33 75  1  0  0  0  0
 33 80  2  0  0  0  0
 34 61  1  0  0  0  0
 34 62  1  0  0  0  0
 34 81  2  0  0  0  0
 35 63  1  0  0  0  0
 35 70  1  0  0  0  0
 35 82  2  0  0  0  0
 36 64  1  0  0  0  0
 36 76  1  0  0  0  0
 36 83  2  0  0  0  0
 37 71  1  0  0  0  0
 37 74  1  0  0  0  0
 37 84  2  0  0  0  0
 38 41  1  0  0  0  0
 39 52  1  0  0  0  0
 40 70  1  0  0  0  0
 41 43  1  0  0  0  0
 42 46  1  0  0  0  0
 42 47  1  0  0  0  0
 43 50  1  0  0  0  0
 44 45  1  0  0  0  0
 44 51  1  0  0  0  0
 45 53  1  0  0  0  0
 46 54  1  0  0  0  0
 47 71  1  0  0  0  0
 48 54  1  0  0  0  0
 48 71  1  0  0  0  0
 49 53  1  0  0  0  0
 49 77  1  0  0  0  0
 50 75  1  0  0  0  0
 51 77  1  0  0  0  0
 52 70  1  0  0  0  0
 53 55  1  0  0  0  0
 54 69  1  0  0  0  0
 56 64  1  0  0  0  0
 57 65  1  0  0  0  0
 58 65  1  0  0  0  0
 59 65  1  0  0  0  0
 60 78  1  0  0  0  0
 61 77  1  0  0  0  0
 62 86  1  0  0  0  0
 63 65  1  0  0  0  0
 63 76  1  0  0  0  0
 64 78  1  0  0  0  0
 67 69  1  0  0  0  0
M  CHG  2  77   1  78   1
M  ISO  4  37 100  62 101  74 100  86 101
M  END
> <Batch ID>
0171

> <Smiles>
CNC(C)C(=O)NC(C(=O)N1Cc2cc([101O:1][101CH2:1]C(=O)CN3CC(C)CCC3c3nccc([100NH:0][100C:0](=O)N4CCCC(n5nc(-c6ccc(Oc7ccc(F)cc7F)cc6)c(C(N)=O)c5N)C4)n3)ccc2CC1C(=O)NC1CCCc2ccccc21)C(C)(C)C

> <Shape>
0.219

> <Color>
0.059

> <Negative vol penalty>
0.000

$$$$

  -OEChem-04052304233D

 87 95  0     1  0  0  0  0  0999 V2000
  -16.9360  -29.4814   24.5236 C   0  0  0  0  0  0  0  0  0  0  0  0
  -18.0106  -28.6055   24.6393 C   0  0  0  0  0  0  0  0  0  0  0  0
  -23.1629   -9.6718   19.9414 C   0  0  0  0  0  0  0  0  0  0  0  0
  -23.7432   -9.8809   22.2773 C   0  0  0  0  0  0  0  0  0  0  0  0
  -16.9011  -30.4062   23.4808 C   0  0  0  0  0  0  0  0  0  0  0  0
  -19.0505  -28.6531   23.7115 C   0  0  0  0  0  0  0  0  0  0  0  0
  -24.9898  -27.6115   24.7818 C   0  0  0  0  0  0  0  0  0  0  0  0
  -22.4389   -8.5138   20.2249 C   0  0  0  0  0  0  0  0  0  0  0  0
  -23.0191   -8.7229   22.5608 C   0  0  0  0  0  0  0  0  0  0  0  0
  -25.7940  -26.4885   24.5931 C   0  0  0  0  0  0  0  0  0  0  0  0
  -23.4571   -5.3815   22.2887 C   0  0  0  0  0  0  0  0  0  0  0  0
  -24.0475   -4.4374   23.1285 C   0  0  0  0  0  0  0  0  0  0  0  0
  -31.3176  -18.7834   24.1631 C   0  0  0  0  0  0  0  0  0  0  0  0
  -26.5186  -27.3719   22.4685 C   0  0  0  0  0  0  0  0  0  0  0  0
  -31.7050  -16.9213   22.6733 C   0  0  0  0  0  0  0  0  0  0  0  0
  -22.2150   -4.6758   24.6849 C   0  0  0  0  0  0  0  0  0  0  0  0
  -23.8151  -10.3554   20.9676 C   0  0  0  0  0  0  0  0  0  0  0  0
  -29.9489  -18.7041   23.9064 C   0  0  0  0  0  0  0  0  0  0  0  0
  -24.0851  -12.8752   20.6759 C   0  0  0  0  0  0  0  0  0  0  0  0
  -17.9457  -30.4717   22.5454 C   0  0  0  0  0  0  0  0  0  0  0  0
  -24.9354  -28.6198   23.8088 C   0  0  0  0  0  0  0  0  0  0  0  0
  -19.0289  -29.5788   22.6544 C   0  0  0  0  0  0  0  0  0  0  0  0
  -25.7148  -28.5080   22.6485 C   0  0  0  0  0  0  0  0  0  0  0  0
  -30.3362  -16.8420   22.4166 C   0  0  0  0  0  0  0  0  0  0  0  0
  -22.3669   -8.0394   21.5346 C   0  0  0  0  0  0  0  0  0  0  0  0
  -26.5563  -26.3671   23.4350 C   0  0  0  0  0  0  0  0  0  0  0  0
  -22.2456   -5.9729   22.6469 C   0  0  0  0  0  0  0  0  0  0  0  0
  -23.4265   -4.0844   24.3266 C   0  0  0  0  0  0  0  0  0  0  0  0
  -32.1957  -17.8920   23.5465 C   0  0  0  0  0  0  0  0  0  0  0  0
  -21.6246   -5.6200   23.8450 C   0  0  0  0  0  0  0  0  0  0  0  0
  -29.4582  -17.7334   23.0331 C   0  0  0  0  0  0  0  0  0  0  0  0
  -24.5637  -11.5513   20.6753 C   0  0  0  0  0  0  0  0  0  0  0  0
  -25.1778  -13.6355   20.3373 C   0  0  0  0  0  0  0  0  0  0  0  0
  -29.0222  -19.6491   24.5613 C   0  0  0  0  0  0  0  0  0  0  0  0
  -22.7705  -13.3733   20.9574 C   0  0  0  0  0  0  0  0  0  0  0  0
  -22.6499  -29.8377   21.9658 C   0  0  0  0  0  0  0  0  0  0  0  0
  -28.2472  -23.1270   23.9157 C   0  0  0  0  0  0  0  0  0  0  0  0
  -24.9744  -31.9465   21.1462 C   0  0  0  0  0  0  0  0  0  0  0  0
  -28.3086  -32.6260   20.8842 C   0  0  0  0  0  0  0  0  0  0  0  0
  -30.5784  -14.8955   20.8358 C   0  0  0  0  0  0  0  0  0  0  0  0
  -17.8409  -31.4565   21.4079 C   0  0  0  0  0  0  0  0  0  0  0  0
  -24.0834  -29.8377   24.0396 C   0  0  0  0  0  0  0  0  0  0  0  0
  -25.7075  -29.5722   21.5827 C   0  0  0  0  0  0  0  0  0  0  0  0
  -19.1637  -31.6939   20.6839 C   0  0  0  0  0  0  0  0  0  0  0  0
  -29.7268  -12.2692   18.5876 C   0  0  0  0  0  0  0  0  0  0  0  0
  -19.8553  -30.3671   20.3870 C   0  0  0  0  0  0  0  0  0  0  0  0
  -28.2683  -11.9572   18.9303 C   0  0  0  0  0  0  0  0  0  0  0  0
  -30.5389  -12.6225   19.8323 C   0  0  0  0  0  0  0  0  0  0  0  0
  -28.5092  -13.3774   21.0069 C   0  0  0  0  0  0  0  0  0  0  0  0
  -20.1879  -29.6164   21.6821 C   0  0  1  0  0  0  0  0  0  0  0  0
  -23.7102  -30.5593   22.7484 C   0  0  1  0  0  0  0  0  0  0  0  0
  -27.6360  -13.0791   19.7771 C   0  0  2  0  0  0  0  0  0  0  0  0
  -28.9162  -22.4362   26.2359 C   0  0  0  0  0  0  0  0  0  0  0  0
  -29.9015  -34.4186   20.1450 C   0  0  0  0  0  0  0  0  0  0  0  0
  -24.4162  -31.2373   18.2315 C   0  0  0  0  0  0  0  0  0  0  0  0
  -26.6053  -32.2919   17.6283 C   0  0  0  0  0  0  0  0  0  0  0  0
  -24.7999  -33.6715   18.6578 C   0  0  0  0  0  0  0  0  0  0  0  0
  -29.4763  -32.8671   23.5929 C   0  0  0  0  0  0  0  0  0  0  0  0
  -27.3367  -24.2851   24.2790 C   0  0  0  0  0  0  0  0  0  1  0  0
  -28.3207  -21.9899   24.9152 C   0  0  2  0  0  0  0  0  0  0  0  0
  -26.0461  -31.9969   20.0842 C   0  0  1  0  0  0  0  0  0  0  0  0
  -29.1282  -33.8291   21.3143 C   0  0  2  0  0  0  0  0  0  0  0  0
  -25.4658  -32.2782   18.6694 C   0  0  0  0  0  0  0  0  0  0  0  0
  -25.8595  -11.4716   20.3611 N   0  0  0  0  0  0  0  0  0  0  0  0
  -26.2043  -12.7550   20.1610 N   0  0  0  0  0  0  0  0  0  0  0  0
  -24.8536  -30.7409   21.8517 N   0  0  0  0  0  0  0  0  0  0  0  0
  -29.8816  -13.6951   20.5822 N   0  0  0  0  0  0  0  0  0  0  0  0
  -25.3510  -14.9645   20.1760 N   0  0  0  0  0  0  0  0  0  0  0  0
  -21.7648  -12.4549   21.2886 N   0  0  0  0  0  0  0  0  0  0  0  0
  -29.8410  -15.8549   21.5287 N   0  0  0  0  0  0  0  0  0  0  0  0
  -29.1829  -20.9622   24.3400 N   0  0  0  0  0  0  0  0  0  0  0  0
  -21.3588  -30.1885   22.3115 N   0  0  0  0  0  0  0  0  0  0  0  0
  -27.0227  -32.9819   20.5361 N   0  0  0  0  0  0  0  0  0  0  0  0
  -28.0674  -19.1502   25.3466 N   0  3  0  0  0  0  0  0  0  0  0  0
  -30.1018  -33.4407   22.3736 N   0  3  0  0  0  0  0  0  0  0  0  0
  -22.4917  -14.5950   20.9004 O   0  0  0  0  0  0  0  0  0  0  0  0
  -22.9787  -29.0241   21.1105 O   0  0  0  0  0  0  0  0  0  0  0  0
  -28.8881  -23.1186   22.8645 O   0  0  0  0  0  0  0  0  0  0  0  0
  -24.2752  -32.9426   21.3474 O   0  0  0  0  0  0  0  0  0  0  0  0
  -28.7646  -31.4850   20.8560 O   0  0  0  0  0  0  0  0  0  0  0  0
  -31.7343  -15.0705   20.4417 O   0  0  0  0  0  0  0  0  0  0  0  0
  -21.6602   -6.9096   21.8116 O   0  0  0  0  0  0  0  0  0  0  0  0
  -27.3417  -25.2717   23.2479 O   0  0  0  0  0  0  0  0  0  1  0  0
  -23.9929   -3.1766   25.1323 F   0  0  0  0  0  0  0  0  0  0  0  0
  -33.5099  -17.9680   23.7932 F   0  0  0  0  0  0  0  0  0  0  0  0
  -20.4600   -6.1839   24.1939 F   0  0  0  0  0  0  0  0  0  0  0  0
  -28.1415  -17.6586   22.7869 F   0  0  0  0  0  0  0  0  0  0  0  0
  1  2  1  0  0  0  0
  1  5  2  0  0  0  0
  2  6  2  0  0  0  0
  3  8  2  0  0  0  0
  3 17  1  0  0  0  0
  4  9  1  0  0  0  0
  4 17  2  0  0  0  0
  5 20  1  0  0  0  0
  6 22  1  0  0  0  0
  7 10  2  0  0  0  0
  7 21  1  0  0  0  0
  8 25  1  0  0  0  0
  9 25  2  0  0  0  0
 10 26  1  0  0  0  0
 11 12  2  0  0  0  0
 11 27  1  0  0  0  0
 12 28  1  0  0  0  0
 13 18  1  0  0  0  0
 13 29  2  0  0  0  0
 14 23  1  0  0  0  0
 14 26  2  0  0  0  0
 15 24  2  0  0  0  0
 15 29  1  0  0  0  0
 16 28  2  0  0  0  0
 16 30  1  0  0  0  0
 17 32  1  0  0  0  0
 18 31  2  0  0  0  0
 18 34  1  0  0  0  0
 19 32  1  0  0  0  0
 19 33  2  0  0  0  0
 19 35  1  0  0  0  0
 20 22  2  0  0  0  0
 20 41  1  0  0  0  0
 21 23  2  0  0  0  0
 21 42  1  0  0  0  0
 22 50  1  0  0  0  0
 23 43  1  0  0  0  0
 24 31  1  0  0  0  0
 24 70  1  0  0  0  0
 25 82  1  0  0  0  0
 26 83  1  0  0  0  0
 27 30  2  0  0  0  0
 27 82  1  0  0  0  0
 28 84  1  0  0  0  0
 29 85  1  0  0  0  0
 30 86  1  0  0  0  0
 31 87  1  0  0  0  0
 32 64  2  0  0  0  0
 33 65  1  0  0  0  0
 33 68  1  0  0  0  0
 34 71  1  0  0  0  0
 34 74  2  0  0  0  0
 35 69  1  0  0  0  0
 35 76  2  0  0  0  0
 36 51  1  0  0  0  0
 36 72  1  0  0  0  0
 36 77  2  0  0  0  0
 37 59  1  0  0  0  0
 37 60  1  0  0  0  0
 37 78  2  0  0  0  0
 38 61  1  0  0  0  0
 38 66  1  0  0  0  0
 38 79  2  0  0  0  0
 39 62  1  0  0  0  0
 39 73  1  0  0  0  0
 39 80  2  0  0  0  0
 40 67  1  0  0  0  0
 40 70  1  0  0  0  0
 40 81  2  0  0  0  0
 41 44  1  0  0  0  0
 42 51  1  0  0  0  0
 43 66  1  0  0  0  0
 44 46  1  0  0  0  0
 45 47  1  0  0  0  0
 45 48  1  0  0  0  0
 46 50  1  0  0  0  0
 47 52  1  0  0  0  0
 48 67  1  0  0  0  0
 49 52  1  0  0  0  0
 49 67  1  0  0  0  0
 50 72  1  0  0  0  0
 51 66  1  0  0  0  0
 52 65  1  0  0  0  0
 53 60  1  0  0  0  0
 54 62  1  0  0  0  0
 55 63  1  0  0  0  0
 56 63  1  0  0  0  0
 57 63  1  0  0  0  0
 58 75  1  0  0  0  0
 59 83  1  0  0  0  0
 60 71  1  0  0  0  0
 61 63  1  0  0  0  0
 61 73  1  0  0  0  0
 62 75  1  0  0  0  0
 64 65  1  0  0  0  0
M  CHG  2  74   1  75   1
M  ISO  4  40 100  59 101  70 100  83 101
M  END
> <Batch ID>
0171

> <Smiles>
CNC(C)C(=O)NC(C(=O)N1Cc2cc([101O:1][101CH2:1]C(=O)C(C)NC(=N)c3cc(F)cc([100NH:0][100C:0](=O)N4CCCC(n5nc(-c6ccc(Oc7ccc(F)cc7F)cc6)c(C(N)=O)c5N)C4)c3F)ccc2CC1C(=O)NC1CCCc2ccccc21)C(C)(C)C

> <Shape>
0.268

> <Color>
0.216

> <Negative vol penalty>
0.000

$$$$

  -OEChem-04052304233D

 85 93  0     1  0  0  0  0  0999 V2000
  -18.2943  -13.2260   25.4005 C   0  0  0  0  0  0  0  0  0  0  0  0
  -19.4936  -13.9294   25.4467 C   0  0  0  0  0  0  0  0  0  0  0  0
  -23.0592  -30.8820   21.2518 C   0  0  0  0  0  0  0  0  0  0  0  0
  -22.8393  -28.8137   22.4810 C   0  0  0  0  0  0  0  0  0  0  0  0
  -18.1980  -12.0639   24.6362 C   0  0  0  0  0  0  0  0  0  0  0  0
  -20.5979  -13.4705   24.7295 C   0  0  0  0  0  0  0  0  0  0  0  0
  -22.9808  -17.1844   22.2448 C   0  0  0  0  0  0  0  0  0  0  0  0
  -29.7941  -22.8653   20.0252 C   0  0  0  0  0  0  0  0  0  0  0  0
  -21.6841  -30.8893   21.0182 C   0  0  0  0  0  0  0  0  0  0  0  0
  -21.4642  -28.8211   22.2474 C   0  0  0  0  0  0  0  0  0  0  0  0
  -23.8183  -18.0135   22.9896 C   0  0  0  0  0  0  0  0  0  0  0  0
  -18.7353  -30.3744   23.4969 C   0  0  0  0  0  0  0  0  0  0  0  0
  -29.7491  -21.4721   20.0756 C   0  0  0  0  0  0  0  0  0  0  0  0
  -17.8954  -30.0822   24.5715 C   0  0  0  0  0  0  0  0  0  0  0  0
  -25.7324  -16.7679   22.2126 C   0  0  0  0  0  0  0  0  0  0  0  0
  -28.4930  -22.9810   22.0576 C   0  0  0  0  0  0  0  0  0  0  0  0
  -17.0040  -28.1911   23.3606 C   0  0  0  0  0  0  0  0  0  0  0  0
  -23.6368  -29.8441   21.9832 C   0  0  0  0  0  0  0  0  0  0  0  0
  -25.7380  -30.4108   23.3142 C   0  0  0  0  0  0  0  0  0  0  0  0
  -19.2988  -11.5958   23.9015 C   0  0  0  0  0  0  0  0  0  0  0  0
  -23.5127  -16.1322   21.4856 C   0  0  0  0  0  0  0  0  0  0  0  0
  -20.5167  -12.3003   23.9557 C   0  0  0  0  0  0  0  0  0  0  0  0
  -24.8997  -15.9285   21.4570 C   0  0  0  0  0  0  0  0  0  0  0  0
  -29.1661  -23.6197   21.0162 C   0  0  0  0  0  0  0  0  0  0  0  0
  -28.4479  -21.5877   22.1080 C   0  0  0  0  0  0  0  0  0  0  0  0
  -20.8866  -29.8589   21.5160 C   0  0  0  0  0  0  0  0  0  0  0  0
  -25.1941  -17.8036   22.9759 C   0  0  0  0  0  0  0  0  0  0  0  0
  -18.7096  -29.5750   22.3541 C   0  0  0  0  0  0  0  0  0  0  0  0
  -17.0298  -28.9906   24.5034 C   0  0  0  0  0  0  0  0  0  0  0  0
  -29.0759  -20.8333   21.1170 C   0  0  0  0  0  0  0  0  0  0  0  0
  -17.8439  -28.4834   22.2860 C   0  0  0  0  0  0  0  0  0  0  0  0
  -25.0573  -29.8357   22.2244 C   0  0  0  0  0  0  0  0  0  0  0  0
  -27.0617  -30.1296   23.0794 C   0  0  0  0  0  0  0  0  0  0  0  0
  -25.2200  -31.1345   24.4384 C   0  0  0  0  0  0  0  0  0  0  0  0
  -23.2077  -12.9684   21.5134 C   0  0  0  0  0  0  0  0  0  0  0  0
  -25.0025  -13.1617   18.8183 C   0  0  0  0  0  0  0  0  0  0  0  0
  -27.2607  -14.9221   16.9613 C   0  0  0  0  0  0  0  0  0  0  0  0
  -27.0882  -21.5321   24.2305 C   0  0  0  0  0  0  0  0  0  0  0  0
  -29.8368  -25.8255   20.0007 C   0  0  0  0  0  0  0  0  0  0  0  0
  -19.1606  -10.3088   23.1275 C   0  0  0  0  0  0  0  0  0  0  0  0
  -22.5982  -15.2633   20.6664 C   0  0  0  0  0  0  0  0  0  0  0  0
  -25.5226  -14.8254   20.6422 C   0  0  0  0  0  0  0  0  0  0  0  0
  -20.2676  -10.0952   22.0982 C   0  0  0  0  0  0  0  0  0  0  0  0
  -30.1442  -29.3373   19.5010 C   0  0  0  0  0  0  0  0  0  0  0  0
  -21.6323  -10.3877   22.7135 C   0  0  0  0  0  0  0  0  0  0  0  0
  -28.9399  -29.9164   20.2470 C   0  0  0  0  0  0  0  0  0  0  0  0
  -29.8061  -28.0121   18.8205 C   0  0  0  0  0  0  0  0  0  0  0  0
  -28.0059  -27.5765   20.4449 C   0  0  0  0  0  0  0  0  0  0  0  0
  -21.7294  -11.8479   23.1717 C   0  0  1  0  0  0  0  0  0  0  0  0
  -23.2037  -13.9025   20.3366 C   0  0  1  0  0  0  0  0  0  0  0  0
  -28.3156  -28.8790   21.2007 C   0  0  2  0  0  0  0  0  0  0  0  0
  -28.5687  -14.8072   14.8228 C   0  0  0  0  0  0  0  0  0  0  0  0
  -25.7461  -21.2449   26.3456 C   0  0  0  0  0  0  0  0  0  0  0  0
  -27.5439  -19.5723   25.7737 C   0  0  0  0  0  0  0  0  0  0  0  0
  -26.9165  -11.1604   20.0993 C   0  0  0  0  0  0  0  0  0  0  0  0
  -28.6256  -11.8046   18.3869 C   0  0  0  0  0  0  0  0  0  0  0  0
  -26.4720  -10.7703   17.6693 C   0  0  0  0  0  0  0  0  0  0  0  0
  -25.9688  -17.3660   15.9043 C   0  0  0  0  0  0  0  0  0  0  0  0
  -25.3967  -19.6539   24.4563 C   0  0  0  0  0  0  0  0  0  1  0  0
  -26.4814  -13.1526   18.5158 C   0  0  1  0  0  0  0  0  0  0  0  0
  -27.2876  -15.2860   15.4878 C   0  0  2  0  0  0  0  0  0  0  0  0
  -26.4565  -20.4993   25.2021 C   0  0  0  0  0  0  0  0  0  0  0  0
  -27.1123  -11.7417   18.6848 C   0  0  0  0  0  0  0  0  0  0  0  0
  -25.8807  -29.2346   21.3613 N   0  0  0  0  0  0  0  0  0  0  0  0
  -27.0923  -29.4306   21.9086 N   0  0  0  0  0  0  0  0  0  0  0  0
  -24.5860  -13.9988   19.8631 N   0  0  0  0  0  0  0  0  0  0  0  0
  -29.2230  -27.0776   19.7857 N   0  0  0  0  0  0  0  0  0  0  0  0
  -28.1909  -30.4145   23.7622 N   0  0  0  0  0  0  0  0  0  0  0  0
  -23.8353  -31.3336   24.5243 N   0  0  0  0  0  0  0  0  0  0  0  0
  -27.7640  -20.9414   23.1666 N   0  0  0  0  0  0  0  0  0  0  0  0
  -29.2120  -25.0350   20.9647 N   0  0  0  0  0  0  0  0  0  0  0  0
  -21.9540  -12.7193   22.0383 N   0  0  0  0  0  0  0  0  0  0  0  0
  -26.6280  -13.7163   17.1782 N   0  0  0  0  0  0  0  0  0  0  0  0
  -27.1934  -16.7635   15.3174 N   0  3  0  0  0  0  0  0  0  0  0  0
  -25.9645  -31.6052   25.3315 O   0  0  0  0  0  0  0  0  0  0  0  0
  -24.2695  -12.5065   21.9146 O   0  0  0  0  0  0  0  0  0  0  0  0
  -24.2437  -12.4576   18.1474 O   0  0  0  0  0  0  0  0  0  0  0  0
  -27.7551  -15.6343   17.8325 O   0  0  0  0  0  0  0  0  0  0  0  0
  -26.9810  -22.7404   24.4322 O   0  0  0  0  0  0  0  0  0  0  0  0
  -30.8583  -25.4910   19.3952 O   0  0  0  0  0  0  0  0  0  0  0  0
  -19.5446  -29.8659   21.2884 O   0  0  0  0  0  0  0  0  0  0  0  0
  -26.0138  -18.6110   23.7026 O   0  0  0  0  0  0  0  0  0  1  0  0
  -16.2243  -28.7092   25.5360 F   0  0  0  0  0  0  0  0  0  0  0  0
  -29.0390  -19.4938   21.1548 F   0  0  0  0  0  0  0  0  0  0  0  0
  -17.8155  -27.7110   21.1912 F   0  0  0  0  0  0  0  0  0  0  0  0
  1  2  1  0  0  0  0
  1  5  2  0  0  0  0
  2  6  2  0  0  0  0
  3  9  2  0  0  0  0
  3 18  1  0  0  0  0
  4 10  1  0  0  0  0
  4 18  2  0  0  0  0
  5 20  1  0  0  0  0
  6 22  1  0  0  0  0
  7 11  2  0  0  0  0
  7 21  1  0  0  0  0
  8 13  2  0  0  0  0
  8 24  1  0  0  0  0
  9 26  1  0  0  0  0
 10 26  2  0  0  0  0
 11 27  1  0  0  0  0
 12 14  2  0  0  0  0
 12 28  1  0  0  0  0
 13 30  1  0  0  0  0
 14 29  1  0  0  0  0
 15 23  1  0  0  0  0
 15 27  2  0  0  0  0
 16 24  2  0  0  0  0
 16 25  1  0  0  0  0
 17 29  2  0  0  0  0
 17 31  1  0  0  0  0
 18 32  1  0  0  0  0
 19 32  1  0  0  0  0
 19 33  2  0  0  0  0
 19 34  1  0  0  0  0
 20 22  2  0  0  0  0
 20 40  1  0  0  0  0
 21 23  2  0  0  0  0
 21 41  1  0  0  0  0
 22 49  1  0  0  0  0
 23 42  1  0  0  0  0
 24 71  1  0  0  0  0
 25 30  2  0  0  0  0
 25 70  1  0  0  0  0
 26 81  1  0  0  0  0
 27 82  1  0  0  0  0
 28 31  2  0  0  0  0
 28 81  1  0  0  0  0
 29 83  1  0  0  0  0
 30 84  1  0  0  0  0
 31 85  1  0  0  0  0
 32 64  2  0  0  0  0
 33 65  1  0  0  0  0
 33 68  1  0  0  0  0
 34 69  1  0  0  0  0
 34 75  2  0  0  0  0
 35 50  1  0  0  0  0
 35 72  1  0  0  0  0
 35 76  2  0  0  0  0
 36 60  1  0  0  0  0
 36 66  1  0  0  0  0
 36 77  2  0  0  0  0
 37 61  1  0  0  0  0
 37 73  1  0  0  0  0
 37 78  2  0  0  0  0
 38 62  1  0  0  0  0
 38 70  1  0  0  0  0
 38 79  2  0  0  0  0
 39 67  1  0  0  0  0
 39 71  1  0  0  0  0
 39 80  2  0  0  0  0
 40 43  1  0  0  0  0
 41 50  1  0  0  0  0
 42 66  1  0  0  0  0
 43 45  1  0  0  0  0
 44 46  1  0  0  0  0
 44 47  1  0  0  0  0
 45 49  1  0  0  0  0
 46 51  1  0  0  0  0
 47 67  1  0  0  0  0
 48 51  1  0  0  0  0
 48 67  1  0  0  0  0
 49 72  1  0  0  0  0
 50 66  1  0  0  0  0
 51 65  1  0  0  0  0
 52 61  1  0  0  0  0
 53 62  1  0  0  0  0
 54 62  1  0  0  0  0
 55 63  1  0  0  0  0
 56 63  1  0  0  0  0
 57 63  1  0  0  0  0
 58 74  1  0  0  0  0
 59 62  1  0  0  0  0
 59 82  1  0  0  0  0
 60 63  1  0  0  0  0
 60 73  1  0  0  0  0
 61 74  1  0  0  0  0
 64 65  1  0  0  0  0
M  CHG  1  74   1
M  ISO  4  39 100  59 101  71 100  82 101
M  END
> <Batch ID>
0171

> <Smiles>
CNC(C)C(=O)NC(C(=O)N1Cc2cc([101O:1][101CH2:1]C(C)(C)C(=O)Nc3cc([100NH:0][100C:0](=O)N4CCCC(n5nc(-c6ccc(Oc7ccc(F)cc7F)cc6)c(C(N)=O)c5N)C4)ccc3F)ccc2CC1C(=O)NC1CCCc2ccccc21)C(C)(C)C

> <Shape>
0.249

> <Color>
0.055

> <Negative vol penalty>
0.000

$$$$

  -OEChem-04052304233D

 84 92  0     1  0  0  0  0  0999 V2000
  -18.8829  -33.2594   20.7463 C   0  0  0  0  0  0  0  0  0  0  0  0
  -20.2235  -33.0177   20.4637 C   0  0  0  0  0  0  0  0  0  0  0  0
  -24.0173   -9.7721   22.2183 C   0  0  0  0  0  0  0  0  0  0  0  0
  -24.6410   -8.8033   20.0947 C   0  0  0  0  0  0  0  0  0  0  0  0
  -18.2625  -32.5910   21.8009 C   0  0  0  0  0  0  0  0  0  0  0  0
  -20.9447  -32.1081   21.2362 C   0  0  0  0  0  0  0  0  0  0  0  0
  -25.4003  -28.3692   19.3194 C   0  0  0  0  0  0  0  0  0  0  0  0
  -22.9567   -8.8717   22.3175 C   0  0  0  0  0  0  0  0  0  0  0  0
  -23.5803   -7.9029   20.1940 C   0  0  0  0  0  0  0  0  0  0  0  0
  -26.7904  -28.4626   19.3716 C   0  0  0  0  0  0  0  0  0  0  0  0
  -20.3021   -6.5915   23.3020 C   0  0  0  0  0  0  0  0  0  0  0  0
  -20.1030   -5.9566   24.5279 C   0  0  0  0  0  0  0  0  0  0  0  0
  -26.7975  -27.1400   21.3890 C   0  0  0  0  0  0  0  0  0  0  0  0
  -22.3136   -4.9918   24.3872 C   0  0  0  0  0  0  0  0  0  0  0  0
  -28.6212  -22.6498   19.5840 C   0  0  0  0  0  0  0  0  0  0  0  0
  -24.8595   -9.7379   21.1068 C   0  0  0  0  0  0  0  0  0  0  0  0
  -27.2703  -10.4879   21.4716 C   0  0  0  0  0  0  0  0  0  0  0  0
  -18.9739  -31.6655   22.5807 C   0  0  0  0  0  0  0  0  0  0  0  0
  -24.6964  -27.6686   20.3093 C   0  0  0  0  0  0  0  0  0  0  0  0
  -20.3336  -31.4276   22.3031 C   0  0  0  0  0  0  0  0  0  0  0  0
  -25.3987  -27.0371   21.3457 C   0  0  0  0  0  0  0  0  0  0  0  0
  -28.8695  -21.9965   21.7025 C   0  0  0  0  0  0  0  0  0  0  0  0
  -28.9084  -23.1210   20.8439 C   0  0  0  0  0  0  0  0  0  0  0  0
  -22.7381   -7.9371   21.3054 C   0  0  0  0  0  0  0  0  0  0  0  0
  -27.4890  -27.8504   20.4081 C   0  0  0  0  0  0  0  0  0  0  0  0
  -21.5069   -6.4266   22.6187 C   0  0  0  0  0  0  0  0  0  0  0  0
  -21.1087   -5.1568   25.0705 C   0  0  0  0  0  0  0  0  0  0  0  0
  -22.5127   -5.6267   23.1613 C   0  0  0  0  0  0  0  0  0  0  0  0
  -25.9550  -10.6681   21.0034 C   0  0  0  0  0  0  0  0  0  0  0  0
  -28.5611  -20.9183   20.9061 C   0  0  0  0  0  0  0  0  0  0  0  0
  -27.9183  -11.6500   21.1309 C   0  0  0  0  0  0  0  0  0  0  0  0
  -28.4071  -19.5671   21.2979 C   0  0  0  0  0  0  0  0  0  0  0  0
  -28.1193  -18.5015   20.4810 C   0  0  0  0  0  0  0  0  0  0  0  0
  -27.8542   -9.3700   22.1536 C   0  0  0  0  0  0  0  0  0  0  0  0
  -27.9996  -17.1410   21.0427 C   0  0  0  0  0  0  0  0  0  0  0  0
  -22.5067  -28.4444   22.4789 C   0  0  0  0  0  0  0  0  0  0  0  0
  -22.4546  -25.2435   23.0022 C   0  0  0  0  0  0  0  0  0  0  0  0
  -24.0788  -22.2486   22.8040 C   0  0  0  0  0  0  0  0  0  0  0  0
  -29.2086  -25.5643   20.3153 C   0  0  0  0  0  0  0  0  0  0  0  0
  -18.2731  -31.0025   23.7400 C   0  0  0  0  0  0  0  0  0  0  0  0
  -23.1990  -27.5545   20.2240 C   0  0  0  0  0  0  0  0  0  0  0  0
  -24.6915  -26.2559   22.4218 C   0  0  0  0  0  0  0  0  0  0  0  0
  -19.0073  -29.7756   24.2745 C   0  0  0  0  0  0  0  0  0  0  0  0
  -26.5168  -15.4622   18.1419 C   0  0  0  0  0  0  0  0  0  0  0  0
  -20.4932  -30.0752   24.4458 C   0  0  0  0  0  0  0  0  0  0  0  0
  -26.3046  -14.0550   18.6938 C   0  0  0  0  0  0  0  0  0  0  0  0
  -26.3244  -16.5323   19.2153 C   0  0  0  0  0  0  0  0  0  0  0  0
  -26.9537  -14.9105   20.9800 C   0  0  0  0  0  0  0  0  0  0  0  0
  -21.1429  -30.4298   23.1028 C   0  0  1  0  0  0  0  0  0  0  0  0
  -22.5454  -27.2499   21.5683 C   0  0  1  0  0  0  0  0  0  0  0  0
  -27.1885  -13.8153   19.9280 C   0  0  1  0  0  0  0  0  0  0  0  0
  -30.5997  -22.0863   23.5149 C   0  0  0  0  0  0  0  0  0  0  0  0
  -23.7957  -19.8146   23.3449 C   0  0  0  0  0  0  0  0  0  0  0  0
  -31.0396  -27.1400   21.0393 C   0  0  0  0  0  0  0  0  0  0  0  0
  -22.9493  -25.8441   25.9525 C   0  0  0  0  0  0  0  0  0  0  0  0
  -23.5953  -23.4449   26.2607 C   0  0  0  0  0  0  0  0  0  0  0  0
  -21.2849  -24.0277   25.5225 C   0  0  0  0  0  0  0  0  0  0  0  0
  -24.3511  -21.4664   19.9627 C   0  0  0  0  0  0  0  0  0  0  0  0
  -29.1126  -21.9917   23.1599 C   0  0  0  0  0  0  0  0  0  0  0  0
  -23.2080  -24.2951   23.9032 C   0  0  1  0  0  0  0  0  0  0  0  0
  -23.6331  -20.8934   22.2854 C   0  0  2  0  0  0  0  0  0  0  0  0
  -29.5457  -26.8519   21.0627 C   0  0  1  0  0  0  0  0  0  1  0  0
  -22.7729  -24.4192   25.3907 C   0  0  0  0  0  0  0  0  0  0  0  0
  -25.7763  -11.8516   20.4105 N   0  0  0  0  0  0  0  0  0  0  0  0
  -26.9879  -12.4256   20.5040 N   0  0  0  0  0  0  0  0  0  0  0  0
  -27.1358  -16.2496   20.4088 N   0  0  0  0  0  0  0  0  0  0  0  0
  -23.2265  -26.1785   22.2981 N   0  0  0  0  0  0  0  0  0  0  0  0
  -29.1875  -12.0739   21.3094 N   0  0  0  0  0  0  0  0  0  0  0  0
  -27.0468   -8.2570   22.4250 N   0  0  0  0  0  0  0  0  0  0  0  0
  -29.1825  -24.4698   21.1735 N   0  0  0  0  0  0  0  0  0  0  0  0
  -21.3822  -29.2327   22.3254 N   0  0  0  0  0  0  0  0  0  0  0  0
  -23.0266  -22.9630   23.3366 N   0  0  0  0  0  0  0  0  0  0  0  0
  -24.4372  -20.5053   21.0922 N   0  3  0  0  0  0  0  0  0  0  0  0
  -29.0519   -9.3650   22.5262 O   0  0  0  0  0  0  0  0  0  0  0  0
  -28.6691  -16.8780   22.0434 O   0  0  0  0  0  0  0  0  0  0  0  0
  -23.4282  -28.6359   23.2638 O   0  0  0  0  0  0  0  0  0  0  0  0
  -21.2271  -25.1532   22.9204 O   0  0  0  0  0  0  0  0  0  0  0  0
  -25.2446  -22.6335   22.7461 O   0  0  0  0  0  0  0  0  0  0  0  0
  -28.9831  -25.5693   19.1086 O   0  0  0  0  0  0  0  0  0  0  0  0
  -28.4080  -21.3080   19.6133 O   0  0  0  0  0  0  0  0  0  0  0  0
  -21.7034   -7.0582   21.4021 O   0  0  0  0  0  0  0  0  0  0  0  0
  -28.8458  -27.9406   20.4618 O   0  0  0  0  0  0  0  0  0  1  0  0
  -20.9180   -4.5484   26.2485 F   0  0  0  0  0  0  0  0  0  0  0  0
  -23.6727   -5.4655   22.5101 F   0  0  0  0  0  0  0  0  0  0  0  0
  1  2  1  0  0  0  0
  1  5  2  0  0  0  0
  2  6  2  0  0  0  0
  3  8  2  0  0  0  0
  3 16  1  0  0  0  0
  4  9  1  0  0  0  0
  4 16  2  0  0  0  0
  5 18  1  0  0  0  0
  6 20  1  0  0  0  0
  7 10  2  0  0  0  0
  7 19  1  0  0  0  0
  8 24  1  0  0  0  0
  9 24  2  0  0  0  0
 10 25  1  0  0  0  0
 11 12  2  0  0  0  0
 11 26  1  0  0  0  0
 12 27  1  0  0  0  0
 13 21  1  0  0  0  0
 13 25  2  0  0  0  0
 14 27  2  0  0  0  0
 14 28  1  0  0  0  0
 15 23  2  0  0  0  0
 15 80  1  0  0  0  0
 16 29  1  0  0  0  0
 17 29  1  0  0  0  0
 17 31  2  0  0  0  0
 17 34  1  0  0  0  0
 18 20  2  0  0  0  0
 18 40  1  0  0  0  0
 19 21  2  0  0  0  0
 19 41  1  0  0  0  0
 20 49  1  0  0  0  0
 21 42  1  0  0  0  0
 22 23  1  0  0  0  0
 22 30  2  0  0  0  0
 22 59  1  0  0  0  0
 23 70  1  0  0  0  0
 24 81  1  0  0  0  0
 25 82  1  0  0  0  0
 26 28  2  0  0  0  0
 26 81  1  0  0  0  0
 27 83  1  0  0  0  0
 28 84  1  0  0  0  0
 29 64  2  0  0  0  0
 30 32  1  0  0  0  0
 30 80  1  0  0  0  0
 31 65  1  0  0  0  0
 31 68  1  0  0  0  0
 32 33  2  0  0  0  0
 33 35  1  0  0  0  0
 34 69  1  0  0  0  0
 34 74  2  0  0  0  0
 35 66  1  0  0  0  0
 35 75  2  0  0  0  0
 36 50  1  0  0  0  0
 36 71  1  0  0  0  0
 36 76  2  0  0  0  0
 37 60  1  0  0  0  0
 37 67  1  0  0  0  0
 37 77  2  0  0  0  0
 38 61  1  0  0  0  0
 38 72  1  0  0  0  0
 38 78  2  0  0  0  0
 39 62  1  0  0  0  0
 39 70  1  0  0  0  0
 39 79  2  0  0  0  0
 40 43  1  0  0  0  0
 41 50  1  0  0  0  0
 42 67  1  0  0  0  0
 43 45  1  0  0  0  0
 44 46  1  0  0  0  0
 44 47  1  0  0  0  0
 45 49  1  0  0  0  0
 46 51  1  0  0  0  0
 47 66  1  0  0  0  0
 48 51  1  0  0  0  0
 48 66  1  0  0  0  0
 49 71  1  0  0  0  0
 50 67  1  0  0  0  0
 51 65  1  0  0  0  0
 52 59  1  0  0  0  0
 53 61  1  0  0  0  0
 54 62  1  0  0  0  0
 55 63  1  0  0  0  0
 56 63  1  0  0  0  0
 57 63  1  0  0  0  0
 58 73  1  0  0  0  0
 60 63  1  0  0  0  0
 60 72  1  0  0  0  0
 61 73  1  0  0  0  0
 62 82  1  0  0  0  0
 64 65  1  0  0  0  0
M  CHG  1  73   1
M  ISO  4  33 100  35 100  62 101  82 101
M  END
> <Batch ID>
0171

> <Smiles>
CCc1c(NC(=O)[101CH:1](C)[101O:1]c2ccc3c(c2)CN(C(=O)C(NC(=O)C(C)NC)C(C)(C)C)C(C(=O)NC2CCCc4ccccc42)C3)coc1C=[100CH:0][100C:0](=O)N1CCCC(n2nc(-c3ccc(Oc4ccc(F)cc4F)cc3)c(C(N)=O)c2N)C1

> <Shape>
0.244

> <Color>
0.123

> <Negative vol penalty>
0.000

$$$$

  -OEChem-04052304233D

 82 90  0     1  0  0  0  0  0999 V2000
  -22.0892  -20.1024   36.7211 C   0  0  0  0  0  0  0  0  0  0  0  0
  -22.9218  -19.8261   35.6414 C   0  0  0  0  0  0  0  0  0  0  0  0
  -23.1899   -9.8191   19.9324 C   0  0  0  0  0  0  0  0  0  0  0  0
  -23.5680   -9.9995   22.3118 C   0  0  0  0  0  0  0  0  0  0  0  0
  -21.1311  -19.1703   37.1175 C   0  0  0  0  0  0  0  0  0  0  0  0
  -22.7976  -18.6169   34.9582 C   0  0  0  0  0  0  0  0  0  0  0  0
  -22.9051  -19.2069   29.9297 C   0  0  0  0  0  0  0  0  0  0  0  0
  -22.4236   -8.6725   20.1410 C   0  0  0  0  0  0  0  0  0  0  0  0
  -22.8015   -8.8529   22.5205 C   0  0  0  0  0  0  0  0  0  0  0  0
  -24.1520  -19.4046   29.3383 C   0  0  0  0  0  0  0  0  0  0  0  0
  -23.2024   -5.5062   22.2565 C   0  0  0  0  0  0  0  0  0  0  0  0
  -23.7006   -4.5448   23.1358 C   0  0  0  0  0  0  0  0  0  0  0  0
  -32.6336  -15.3711   24.0402 C   0  0  0  0  0  0  0  0  0  0  0  0
  -32.1599  -16.5892   24.5835 C   0  0  0  0  0  0  0  0  0  0  0  0
  -24.2093  -17.0802   28.6958 C   0  0  0  0  0  0  0  0  0  0  0  0
  -21.7439   -4.8050   24.5289 C   0  0  0  0  0  0  0  0  0  0  0  0
  -23.7622  -10.4826   21.0177 C   0  0  0  0  0  0  0  0  0  0  0  0
  -24.1012  -12.9992   20.7740 C   0  0  0  0  0  0  0  0  0  0  0  0
  -20.9886  -17.9531   36.4327 C   0  0  0  0  0  0  0  0  0  0  0  0
  -22.3048  -17.9396   29.9181 C   0  0  0  0  0  0  0  0  0  0  0  0
  -21.8377  -17.6670   35.3466 C   0  0  0  0  0  0  0  0  0  0  0  0
  -22.9535  -16.8695   29.2855 C   0  0  0  0  0  0  0  0  0  0  0  0
  -22.2293   -8.1894   21.4351 C   0  0  0  0  0  0  0  0  0  0  0  0
  -24.8056  -18.3406   28.7238 C   0  0  0  0  0  0  0  0  0  0  0  0
  -21.9749   -6.1171   22.5134 C   0  0  0  0  0  0  0  0  0  0  0  0
  -22.9713   -4.1942   24.2720 C   0  0  0  0  0  0  0  0  0  0  0  0
  -21.2457   -5.7664   23.6496 C   0  0  0  0  0  0  0  0  0  0  0  0
  -24.5545  -11.6667   20.8028 C   0  0  0  0  0  0  0  0  0  0  0  0
  -31.6569  -14.4357   24.2908 C   0  0  0  0  0  0  0  0  0  0  0  0
  -25.2324  -13.7418   20.5388 C   0  0  0  0  0  0  0  0  0  0  0  0
  -30.9272  -16.3113   25.1270 C   0  0  0  0  0  0  0  0  0  0  0  0
  -22.7760  -13.5192   20.9446 C   0  0  0  0  0  0  0  0  0  0  0  0
  -21.4004  -15.8654   32.1504 C   0  0  0  0  0  0  0  0  0  0  0  0
  -27.9908  -17.7613   26.9591 C   0  0  0  0  0  0  0  0  0  0  0  0
  -20.1745  -14.2619   29.6111 C   0  0  0  0  0  0  0  0  0  0  0  0
  -20.2566  -13.6550   26.2537 C   0  0  0  0  0  0  0  0  0  0  0  0
  -31.0470  -12.7514   21.5687 C   0  0  0  0  0  0  0  0  0  0  0  0
  -19.9703  -16.9567   36.9276 C   0  0  0  0  0  0  0  0  0  0  0  0
  -20.9472  -17.7488   30.5370 C   0  0  0  0  0  0  0  0  0  0  0  0
  -22.3425  -15.4941   29.2279 C   0  0  0  0  0  0  0  0  0  0  0  0
  -19.6517  -15.8583   35.9165 C   0  0  0  0  0  0  0  0  0  0  0  0
  -29.5200  -13.4688   18.4334 C   0  0  0  0  0  0  0  0  0  0  0  0
  -20.9366  -15.2936   35.3190 C   0  0  0  0  0  0  0  0  0  0  0  0
  -28.0334  -13.2085   18.6825 C   0  0  0  0  0  0  0  0  0  0  0  0
  -30.4012  -12.4793   19.1927 C   0  0  0  0  0  0  0  0  0  0  0  0
  -28.6474  -12.1368   20.8900 C   0  0  0  0  0  0  0  0  0  0  0  0
  -21.7169  -16.3770   34.5647 C   0  0  1  0  0  0  0  0  0  0  0  0
  -20.6617  -16.2989   30.9159 C   0  0  1  0  0  0  0  0  0  0  0  0
  -27.7201  -13.1446   20.1895 C   0  0  2  0  0  0  0  0  0  0  0  0
  -19.1584  -12.2660   24.4756 C   0  0  0  0  0  0  0  0  0  0  0  0
  -21.7331  -11.8171   30.5616 C   0  0  0  0  0  0  0  0  0  0  0  0
  -21.3767  -10.7982   28.3026 C   0  0  0  0  0  0  0  0  0  0  0  0
  -19.4176  -11.3284   29.7528 C   0  0  0  0  0  0  0  0  0  0  0  0
  -19.3126  -16.0537   24.7999 C   0  0  0  0  0  0  0  0  0  0  0  0
  -31.5369  -13.0025   23.9886 C   0  0  0  0  0  0  0  0  0  0  0  0
  -28.7448  -16.6296   26.2937 C   0  0  0  0  0  0  0  0  0  0  0  0
  -26.6360  -17.3966   27.5345 C   0  0  0  0  0  0  0  0  0  1  0  0
  -20.6941  -13.2149   28.6557 C   0  0  1  0  0  0  0  0  0  0  0  0
  -19.1526  -13.5957   25.2135 C   0  0  2  0  0  0  0  0  0  0  0  0
  -20.8180  -11.8150   29.3208 C   0  0  0  0  0  0  0  0  0  0  0  0
  -25.8711  -11.5655   20.6018 N   0  0  0  0  0  0  0  0  0  0  0  0
  -26.2547  -12.8439   20.4444 N   0  0  0  0  0  0  0  0  0  0  0  0
  -21.0166  -15.3565   29.8529 N   0  0  0  0  0  0  0  0  0  0  0  0
  -30.0545  -12.4683   20.6159 N   0  0  0  0  0  0  0  0  0  0  0  0
  -25.4425  -15.0686   20.4056 N   0  0  0  0  0  0  0  0  0  0  0  0
  -21.7292  -12.6171   21.1786 N   0  0  0  0  0  0  0  0  0  0  0  0
  -30.0049  -17.1102   25.7876 N   0  0  0  0  0  0  0  0  0  0  0  0
  -21.1174  -16.6232   33.2707 N   0  0  0  0  0  0  0  0  0  0  0  0
  -19.8121  -13.2486   27.4941 N   0  0  0  0  0  0  0  0  0  0  0  0
  -30.6326  -12.7260   22.8947 N   0  0  0  0  0  0  0  0  0  0  0  0
  -19.3229  -14.6884   24.2145 N   0  3  0  0  0  0  0  0  0  0  0  0
  -22.5249  -14.7463   20.8749 O   0  0  0  0  0  0  0  0  0  0  0  0
  -22.1691  -14.9128   32.0913 O   0  0  0  0  0  0  0  0  0  0  0  0
  -28.4376  -18.9052   27.0337 O   0  0  0  0  0  0  0  0  0  0  0  0
  -19.0594  -14.1175   30.1184 O   0  0  0  0  0  0  0  0  0  0  0  0
  -21.4001  -14.0214   25.9913 O   0  0  0  0  0  0  0  0  0  0  0  0
  -32.2147  -13.0129   21.2602 O   0  0  0  0  0  0  0  0  0  0  0  0
  -30.6133  -15.0007   24.9528 O   0  0  0  0  0  0  0  0  0  0  0  0
  -21.4813   -7.0707   21.6391 O   0  0  0  0  0  0  0  0  0  0  0  0
  -26.0231  -18.5307   28.1464 O   0  0  0  0  0  0  0  0  0  1  0  0
  -23.4491   -3.2699   25.1155 F   0  0  0  0  0  0  0  0  0  0  0  0
  -20.0653   -6.3490   23.9011 F   0  0  0  0  0  0  0  0  0  0  0  0
  1  2  1  0  0  0  0
  1  5  2  0  0  0  0
  2  6  2  0  0  0  0
  3  8  2  0  0  0  0
  3 17  1  0  0  0  0
  4  9  1  0  0  0  0
  4 17  2  0  0  0  0
  5 19  1  0  0  0  0
  6 21  1  0  0  0  0
  7 10  2  0  0  0  0
  7 20  1  0  0  0  0
  8 23  1  0  0  0  0
  9 23  2  0  0  0  0
 10 24  1  0  0  0  0
 11 12  2  0  0  0  0
 11 25  1  0  0  0  0
 12 26  1  0  0  0  0
 13 14  1  0  0  0  0
 13 29  2  0  0  0  0
 14 31  2  0  0  0  0
 15 22  1  0  0  0  0
 15 24  2  0  0  0  0
 16 26  2  0  0  0  0
 16 27  1  0  0  0  0
 17 28  1  0  0  0  0
 18 28  1  0  0  0  0
 18 30  2  0  0  0  0
 18 32  1  0  0  0  0
 19 21  2  0  0  0  0
 19 38  1  0  0  0  0
 20 22  2  0  0  0  0
 20 39  1  0  0  0  0
 21 47  1  0  0  0  0
 22 40  1  0  0  0  0
 23 79  1  0  0  0  0
 24 80  1  0  0  0  0
 25 27  2  0  0  0  0
 25 79  1  0  0  0  0
 26 81  1  0  0  0  0
 27 82  1  0  0  0  0
 28 61  2  0  0  0  0
 29 55  1  0  0  0  0
 29 78  1  0  0  0  0
 30 62  1  0  0  0  0
 30 65  1  0  0  0  0
 31 67  1  0  0  0  0
 31 78  1  0  0  0  0
 32 66  1  0  0  0  0
 32 72  2  0  0  0  0
 33 48  1  0  0  0  0
 33 68  1  0  0  0  0
 33 73  2  0  0  0  0
 34 56  1  0  0  0  0
 34 57  1  0  0  0  0
 34 74  2  0  0  0  0
 35 58  1  0  0  0  0
 35 63  1  0  0  0  0
 35 75  2  0  0  0  0
 36 59  1  0  0  0  0
 36 69  1  0  0  0  0
 36 76  2  0  0  0  0
 37 64  1  0  0  0  0
 37 70  1  0  0  0  0
 37 77  2  0  0  0  0
 38 41  1  0  0  0  0
 39 48  1  0  0  0  0
 40 63  1  0  0  0  0
 41 43  1  0  0  0  0
 42 44  1  0  0  0  0
 42 45  1  0  0  0  0
 43 47  1  0  0  0  0
 44 49  1  0  0  0  0
 45 64  1  0  0  0  0
 46 49  1  0  0  0  0
 46 64  1  0  0  0  0
 47 68  1  0  0  0  0
 48 63  1  0  0  0  0
 49 62  1  0  0  0  0
 50 59  1  0  0  0  0
 51 60  1  0  0  0  0
 52 60  1  0  0  0  0
 53 60  1  0  0  0  0
 54 71  1  0  0  0  0
 55 70  1  0  0  0  0
 56 67  1  0  0  0  0
 57 80  1  0  0  0  0
 58 60  1  0  0  0  0
 58 69  1  0  0  0  0
 59 71  1  0  0  0  0
 61 62  1  0  0  0  0
M  CHG  1  71   1
M  ISO  4  37 100  57 101  70 100  80 101
M  END
> <Batch ID>
0171

> <Smiles>
CNC(C)C(=O)NC(C(=O)N1Cc2cc([101O:1][101CH2:1]C(=O)CNc3ccc(C[100NH:0][100C:0](=O)N4CCCC(n5nc(-c6ccc(Oc7ccc(F)cc7F)cc6)c(C(N)=O)c5N)C4)o3)ccc2CC1C(=O)NC1CCCc2ccccc21)C(C)(C)C

> <Shape>
0.143

> <Color>
0.178

> <Negative vol penalty>
0.000

$$$$

  -OEChem-04052304233D

 85 93  0     1  0  0  0  0  0999 V2000
  -33.4343  -20.5237   22.8775 C   0  0  0  0  0  0  0  0  0  0  0  0
  -32.1548  -21.0670   22.8199 C   0  0  0  0  0  0  0  0  0  0  0  0
  -18.0422  -27.7261   22.7912 C   0  0  0  0  0  0  0  0  0  0  0  0
  -18.7377  -28.4320   23.7728 C   0  0  0  0  0  0  0  0  0  0  0  0
  -30.4752  -24.8068   19.7452 C   0  0  0  0  0  0  0  0  0  0  0  0
  -28.7817  -24.9443   18.0276 C   0  0  0  0  0  0  0  0  0  0  0  0
  -33.7585  -19.4213   22.0878 C   0  0  0  0  0  0  0  0  0  0  0  0
  -31.1991  -20.5087   21.9718 C   0  0  0  0  0  0  0  0  0  0  0  0
  -25.1747  -20.0837   22.9877 C   0  0  0  0  0  0  0  0  0  0  0  0
  -18.6938  -27.3300   21.6232 C   0  0  0  0  0  0  0  0  0  0  0  0
  -20.0849  -28.7420   23.5863 C   0  0  0  0  0  0  0  0  0  0  0  0
  -31.3775  -24.2920   18.8144 C   0  0  0  0  0  0  0  0  0  0  0  0
  -29.6840  -24.4295   17.0967 C   0  0  0  0  0  0  0  0  0  0  0  0
  -24.0952  -20.8581   22.5649 C   0  0  0  0  0  0  0  0  0  0  0  0
  -30.9358  -21.4053   16.2494 C   0  0  0  0  0  0  0  0  0  0  0  0
  -30.4810  -20.4044   15.3910 C   0  0  0  0  0  0  0  0  0  0  0  0
  -23.7127  -19.3210   20.7456 C   0  0  0  0  0  0  0  0  0  0  0  0
  -30.9753  -21.8106   13.4896 C   0  0  0  0  0  0  0  0  0  0  0  0
  -29.1773  -25.1329   19.3518 C   0  0  0  0  0  0  0  0  0  0  0  0
  -27.7956  -25.0441   21.4944 C   0  0  0  0  0  0  0  0  0  0  0  0
  -32.8033  -18.8433   21.2368 C   0  0  0  0  0  0  0  0  0  0  0  0
  -25.5386  -18.9260   22.2850 C   0  0  0  0  0  0  0  0  0  0  0  0
  -31.5112  -19.3984   21.1690 C   0  0  0  0  0  0  0  0  0  0  0  0
  -24.7956  -18.5322   21.1630 C   0  0  0  0  0  0  0  0  0  0  0  0
  -20.0410  -27.6400   21.4368 C   0  0  0  0  0  0  0  0  0  0  0  0
  -20.7365  -28.3460   22.4183 C   0  0  0  0  0  0  0  0  0  0  0  0
  -30.9819  -24.1034   17.4902 C   0  0  0  0  0  0  0  0  0  0  0  0
  -23.3658  -20.4784   21.4420 C   0  0  0  0  0  0  0  0  0  0  0  0
  -31.4103  -22.6089   15.7280 C   0  0  0  0  0  0  0  0  0  0  0  0
  -30.5008  -20.6070   14.0111 C   0  0  0  0  0  0  0  0  0  0  0  0
  -31.4301  -22.8115   14.3481 C   0  0  0  0  0  0  0  0  0  0  0  0
  -28.2445  -25.6642   20.3130 C   0  0  0  0  0  0  0  0  0  0  0  0
  -26.9275  -25.9518   22.0501 C   0  0  0  0  0  0  0  0  0  0  0  0
  -21.6398  -24.8917   20.3789 C   0  0  0  0  0  0  0  0  0  0  0  0
  -28.1332  -23.7622   22.0407 C   0  0  0  0  0  0  0  0  0  0  0  0
  -20.6602  -25.7078   19.9521 C   0  0  0  0  0  0  0  0  0  0  0  0
  -21.6408  -23.4078   20.2148 C   0  0  0  0  0  0  0  0  0  0  0  0
  -28.1297  -17.9836   20.7033 C   0  0  0  0  0  0  0  0  0  0  0  0
  -26.5129  -15.1783   20.5065 C   0  0  0  0  0  0  0  0  0  0  0  0
  -23.5108  -13.5557   20.5448 C   0  0  0  0  0  0  0  0  0  0  0  0
  -22.5668  -29.4719   21.1623 C   0  0  0  0  0  0  0  0  0  0  0  0
  -33.2143  -17.6817   20.3671 C   0  0  0  0  0  0  0  0  0  0  0  0
  -26.6891  -18.0870   22.7697 C   0  0  0  0  0  0  0  0  0  0  0  0
  -25.1330  -17.2870   20.3857 C   0  0  0  0  0  0  0  0  0  0  0  0
  -32.0336  -16.9178   19.7732 C   0  0  0  0  0  0  0  0  0  0  0  0
  -26.0059  -30.7814   20.9012 C   0  0  0  0  0  0  0  0  0  0  0  0
  -31.0088  -17.8867   19.1921 C   0  0  0  0  0  0  0  0  0  0  0  0
  -26.8434  -29.5120   20.7560 C   0  0  0  0  0  0  0  0  0  0  0  0
  -24.6043  -30.6048   20.3246 C   0  0  0  0  0  0  0  0  0  0  0  0
  -24.7048  -28.1661   20.7406 C   0  0  0  0  0  0  0  0  0  0  0  0
  -30.4396  -18.8056   20.2799 C   0  0  1  0  0  0  0  0  0  0  0  0
  -27.2890  -17.2073   21.6771 C   0  0  1  0  0  0  0  0  0  0  0  0
  -26.1083  -28.2985   21.3510 C   0  0  1  0  0  0  0  0  0  0  0  0
  -22.5055  -11.2673   20.3216 C   0  0  0  0  0  0  0  0  0  0  0  0
  -26.9417  -15.2871   17.4875 C   0  0  0  0  0  0  0  0  0  0  0  0
  -25.1539  -13.5518   17.2412 C   0  0  0  0  0  0  0  0  0  0  0  0
  -27.2396  -13.0210   18.5025 C   0  0  0  0  0  0  0  0  0  0  0  0
  -23.0620  -28.3823   23.3388 C   0  0  0  0  0  0  0  0  0  0  0  0
  -22.3728  -13.6626   23.2747 C   0  0  0  0  0  0  0  0  0  0  0  0
  -20.7201  -27.1986   20.1630 C   0  0  0  0  0  0  0  0  0  0  0  0
  -22.3720  -22.6338   21.2918 C   0  0  0  0  0  0  0  0  0  1  0  0
  -25.5315  -14.5762   19.5301 C   0  0  1  0  0  0  0  0  0  0  0  0
  -23.0466  -12.3135   21.2836 C   0  0  2  0  0  0  0  0  0  0  0  0
  -26.2113  -14.1336   18.2036 C   0  0  0  0  0  0  0  0  0  0  0  0
  -27.7060  -26.8724   20.1281 N   0  0  0  0  0  0  0  0  0  0  0  0
  -26.9097  -27.0188   21.2007 N   0  0  0  0  0  0  0  0  0  0  0  0
  -26.2704  -16.5034   20.8954 N   0  0  0  0  0  0  0  0  0  0  0  0
  -23.9451  -29.4188   20.8727 N   0  0  0  0  0  0  0  0  0  0  0  0
  -26.1852  -25.9335   23.1776 N   0  0  0  0  0  0  0  0  0  0  0  0
  -27.3580  -22.6540   21.6728 N   0  0  0  0  0  0  0  0  0  0  0  0
  -29.4559  -18.1005   21.0733 N   0  0  0  0  0  0  0  0  0  0  0  0
  -24.8551  -13.4983   20.2435 N   0  0  0  0  0  0  0  0  0  0  0  0
  -22.1312  -28.6768   22.2444 N   0  0  0  0  0  0  0  0  0  0  0  0
  -21.9707  -12.6601   22.2547 N   0  3  0  0  0  0  0  0  0  0  0  0
  -29.0836  -23.6069   22.8445 O   0  0  0  0  0  0  0  0  0  0  0  0
  -21.0866  -22.8532   19.2703 O   0  0  0  0  0  0  0  0  0  0  0  0
  -27.6137  -18.4413   19.6904 O   0  0  0  0  0  0  0  0  0  0  0  0
  -27.4557  -14.4957   20.9148 O   0  0  0  0  0  0  0  0  0  0  0  0
  -22.7556  -14.4826   20.2600 O   0  0  0  0  0  0  0  0  0  0  0  0
  -21.7933  -30.1952   20.5235 O   0  0  0  0  0  0  0  0  0  0  0  0
  -19.5100  -25.2818   19.3200 O   0  0  0  0  0  0  0  0  0  0  0  0
  -31.8622  -23.6013   16.5815 O   0  0  0  0  0  0  0  0  0  0  0  0
  -22.3122  -21.2329   21.0268 O   0  0  0  0  0  0  0  0  0  1  0  0
  -30.0655  -19.6452   13.1868 F   0  0  0  0  0  0  0  0  0  0  0  0
  -31.8859  -23.9653   13.8412 F   0  0  0  0  0  0  0  0  0  0  0  0
  1  2  1  0  0  0  0
  1  7  2  0  0  0  0
  2  8  2  0  0  0  0
  3  4  1  0  0  0  0
  3 10  2  0  0  0  0
  4 11  2  0  0  0  0
  5 12  2  0  0  0  0
  5 19  1  0  0  0  0
  6 13  1  0  0  0  0
  6 19  2  0  0  0  0
  7 21  1  0  0  0  0
  8 23  1  0  0  0  0
  9 14  2  0  0  0  0
  9 22  1  0  0  0  0
 10 25  1  0  0  0  0
 11 26  1  0  0  0  0
 12 27  1  0  0  0  0
 13 27  2  0  0  0  0
 14 28  1  0  0  0  0
 15 16  2  0  0  0  0
 15 29  1  0  0  0  0
 16 30  1  0  0  0  0
 17 24  1  0  0  0  0
 17 28  2  0  0  0  0
 18 30  2  0  0  0  0
 18 31  1  0  0  0  0
 19 32  1  0  0  0  0
 20 32  1  0  0  0  0
 20 33  2  0  0  0  0
 20 35  1  0  0  0  0
 21 23  2  0  0  0  0
 21 42  1  0  0  0  0
 22 24  2  0  0  0  0
 22 43  1  0  0  0  0
 23 51  1  0  0  0  0
 24 44  1  0  0  0  0
 25 26  2  0  0  0  0
 25 60  1  0  0  0  0
 26 73  1  0  0  0  0
 27 82  1  0  0  0  0
 28 83  1  0  0  0  0
 29 31  2  0  0  0  0
 29 82  1  0  0  0  0
 30 84  1  0  0  0  0
 31 85  1  0  0  0  0
 32 65  2  0  0  0  0
 33 66  1  0  0  0  0
 33 69  1  0  0  0  0
 34 36  2  0  0  0  0
 34 37  1  0  0  0  0
 35 70  1  0  0  0  0
 35 75  2  0  0  0  0
 36 60  1  0  0  0  0
 36 81  1  0  0  0  0
 37 61  1  0  0  0  0
 37 76  2  0  0  0  0
 38 52  1  0  0  0  0
 38 71  1  0  0  0  0
 38 77  2  0  0  0  0
 39 62  1  0  0  0  0
 39 67  1  0  0  0  0
 39 78  2  0  0  0  0
 40 63  1  0  0  0  0
 40 72  1  0  0  0  0
 40 79  2  0  0  0  0
 41 68  1  0  0  0  0
 41 73  1  0  0  0  0
 41 80  2  0  0  0  0
 42 45  1  0  0  0  0
 43 52  1  0  0  0  0
 44 67  1  0  0  0  0
 45 47  1  0  0  0  0
 46 48  1  0  0  0  0
 46 49  1  0  0  0  0
 47 51  1  0  0  0  0
 48 53  1  0  0  0  0
 49 68  1  0  0  0  0
 50 53  1  0  0  0  0
 50 68  1  0  0  0  0
 51 71  1  0  0  0  0
 52 67  1  0  0  0  0
 53 66  1  0  0  0  0
 54 63  1  0  0  0  0
 55 64  1  0  0  0  0
 56 64  1  0  0  0  0
 57 64  1  0  0  0  0
 58 73  1  0  0  0  0
 59 74  1  0  0  0  0
 61 83  1  0  0  0  0
 62 64  1  0  0  0  0
 62 72  1  0  0  0  0
 63 74  1  0  0  0  0
 65 66  1  0  0  0  0
M  CHG  1  74   1
M  ISO  4  41 100  61 101  73 100  83 101
M  END
> <Batch ID>
0171

> <Smiles>
CNC(C)C(=O)NC(C(=O)N1Cc2cc([101O:1][101CH2:1]C(=O)CC(=O)Cc3ccccc3[100N:0](C)[100C:0](=O)N3CCCC(n4nc(-c5ccc(Oc6ccc(F)cc6F)cc5)c(C(N)=O)c4N)C3)ccc2CC1C(=O)NC1CCCc2ccccc21)C(C)(C)C

> <Shape>
0.220

> <Color>
0.072

> <Negative vol penalty>
0.000

$$$$

  -OEChem-04052304233D

 85 93  0     1  0  0  0  0  0999 V2000
  -27.1082  -37.2776   24.4408 C   0  0  0  0  0  0  0  0  0  0  0  0
  -27.8514  -36.1337   24.1678 C   0  0  0  0  0  0  0  0  0  0  0  0
  -23.3110   -9.7466   21.4568 C   0  0  0  0  0  0  0  0  0  0  0  0
  -23.9481  -10.7662   23.5525 C   0  0  0  0  0  0  0  0  0  0  0  0
  -25.7351  -37.1791   24.6619 C   0  0  0  0  0  0  0  0  0  0  0  0
  -27.2221  -34.8904   24.1169 C   0  0  0  0  0  0  0  0  0  0  0  0
  -27.5947  -28.5783   20.7502 C   0  0  0  0  0  0  0  0  0  0  0  0
  -31.4767  -17.8685   21.1419 C   0  0  0  0  0  0  0  0  0  0  0  0
  -22.6680   -8.7217   22.1509 C   0  0  0  0  0  0  0  0  0  0  0  0
  -23.3051   -9.7414   24.2466 C   0  0  0  0  0  0  0  0  0  0  0  0
  -27.6574  -27.2129   21.0253 C   0  0  0  0  0  0  0  0  0  0  0  0
  -23.5368   -5.8902   23.7793 C   0  0  0  0  0  0  0  0  0  0  0  0
  -31.9525  -19.0938   21.6086 C   0  0  0  0  0  0  0  0  0  0  0  0
  -23.7491   -4.5818   23.3450 C   0  0  0  0  0  0  0  0  0  0  0  0
  -25.2668  -27.1737   21.3454 C   0  0  0  0  0  0  0  0  0  0  0  0
  -21.3809   -4.3329   22.9370 C   0  0  0  0  0  0  0  0  0  0  0  0
  -23.9511  -10.7689   22.1576 C   0  0  0  0  0  0  0  0  0  0  0  0
  -24.0576  -13.0483   21.0172 C   0  0  0  0  0  0  0  0  0  0  0  0
  -25.0870  -35.9352   24.6042 C   0  0  0  0  0  0  0  0  0  0  0  0
  -26.3669  -29.2550   20.7814 C   0  0  0  0  0  0  0  0  0  0  0  0
  -25.8393  -34.7750   24.3388 C   0  0  0  0  0  0  0  0  0  0  0  0
  -25.1908  -28.5472   21.0678 C   0  0  0  0  0  0  0  0  0  0  0  0
  -29.2082  -18.6784   21.3283 C   0  0  0  0  0  0  0  0  0  0  0  0
  -30.1045  -17.6608   21.0017 C   0  0  0  0  0  0  0  0  0  0  0  0
  -29.6840  -19.9038   21.7950 C   0  0  0  0  0  0  0  0  0  0  0  0
  -22.6650   -8.7191   23.5458 C   0  0  0  0  0  0  0  0  0  0  0  0
  -26.4937  -26.5110   21.3258 C   0  0  0  0  0  0  0  0  0  0  0  0
  -22.2465   -6.4199   23.7926 C   0  0  0  0  0  0  0  0  0  0  0  0
  -22.6712   -3.8032   22.9238 C   0  0  0  0  0  0  0  0  0  0  0  0
  -31.0562  -20.1114   21.9352 C   0  0  0  0  0  0  0  0  0  0  0  0
  -21.1686   -5.6413   23.3714 C   0  0  0  0  0  0  0  0  0  0  0  0
  -24.6160  -11.8275   21.4412 C   0  0  0  0  0  0  0  0  0  0  0  0
  -25.0910  -13.6983   20.3878 C   0  0  0  0  0  0  0  0  0  0  0  0
  -22.7241  -13.5499   21.1780 C   0  0  0  0  0  0  0  0  0  0  0  0
  -25.1632  -31.6399   22.5038 C   0  0  0  0  0  0  0  0  0  0  0  0
  -27.7369  -23.0797   21.8505 C   0  0  0  0  0  0  0  0  0  0  0  0
  -22.6788  -31.3614   20.4368 C   0  0  0  0  0  0  0  0  0  0  0  0
  -20.9253  -29.4014   18.2618 C   0  0  0  0  0  0  0  0  0  0  0  0
  -30.4171  -15.3059   20.1632 C   0  0  0  0  0  0  0  0  0  0  0  0
  -23.6088  -35.8725   24.8969 C   0  0  0  0  0  0  0  0  0  0  0  0
  -26.3126  -30.7225   20.4561 C   0  0  0  0  0  0  0  0  0  0  0  0
  -23.8451  -29.2229   21.0942 C   0  0  0  0  0  0  0  0  0  0  0  0
  -22.9553  -34.5657   24.4549 C   0  0  0  0  0  0  0  0  0  0  0  0
  -29.6597  -12.0337   18.9816 C   0  0  0  0  0  0  0  0  0  0  0  0
  -23.7974  -33.3723   24.8946 C   0  0  0  0  0  0  0  0  0  0  0  0
  -28.2341  -11.7888   19.4813 C   0  0  0  0  0  0  0  0  0  0  0  0
  -30.4861  -12.8279   19.9916 C   0  0  0  0  0  0  0  0  0  0  0  0
  -28.4507  -13.8412   20.9399 C   0  0  0  0  0  0  0  0  0  0  0  0
  -25.1886  -33.4116   24.2507 C   0  0  1  0  0  0  0  0  0  0  0  0
  -25.0758  -31.4144   21.0209 C   0  0  1  0  0  0  0  0  0  0  0  0
  -27.5604  -13.1010   19.9284 C   0  0  2  0  0  0  0  0  0  0  0  0
  -27.2859  -18.5438   19.7242 C   0  0  0  0  0  0  0  0  0  0  0  0
  -18.9205  -29.4394   16.7530 C   0  0  0  0  0  0  0  0  0  0  0  0
  -20.8492  -31.1091   22.8655 C   0  0  0  0  0  0  0  0  0  0  0  0
  -19.0711  -30.2159   21.3460 C   0  0  0  0  0  0  0  0  0  0  0  0
  -19.9416  -32.5306   21.0189 C   0  0  0  0  0  0  0  0  0  0  0  0
  -22.5768  -28.8788   15.8621 C   0  0  0  0  0  0  0  0  0  0  0  0
  -27.7349  -18.4560   21.1781 C   0  0  0  0  0  0  0  0  0  0  0  0
  -29.0432  -22.3151   21.8197 C   0  0  0  0  0  0  0  0  0  0  0  0
  -27.8390  -24.5630   21.5526 C   0  0  0  0  0  0  0  0  0  1  0  0
  -21.4003  -30.5593   20.4038 C   0  0  1  0  0  0  0  0  0  0  0  0
  -20.4217  -29.6609   16.8535 C   0  0  2  0  0  0  0  0  0  0  0  0
  -20.3410  -31.0911   21.4100 C   0  0  0  0  0  0  0  0  0  0  0  0
  -25.9040  -11.7067   21.1090 N   0  0  0  0  0  0  0  0  0  0  0  0
  -26.1636  -12.8599   20.4695 N   0  0  0  0  0  0  0  0  0  0  0  0
  -23.8448  -30.6603   20.7755 N   0  0  0  0  0  0  0  0  0  0  0  0
  -29.7876  -14.0595   20.3656 N   0  0  0  0  0  0  0  0  0  0  0  0
  -25.1776  -14.8995   19.7778 N   0  0  0  0  0  0  0  0  0  0  0  0
  -21.7870  -12.7530   21.8497 N   0  0  0  0  0  0  0  0  0  0  0  0
  -29.6438  -16.4082   20.5260 N   0  0  0  0  0  0  0  0  0  0  0  0
  -28.8068  -20.9271   22.1244 N   0  0  0  0  0  0  0  0  0  0  0  0
  -25.1209  -32.9706   22.8739 N   0  0  0  0  0  0  0  0  0  0  0  0
  -20.9560  -30.5565   19.0142 N   0  0  0  0  0  0  0  0  0  0  0  0
  -21.0969  -28.7505   15.8859 N   0  3  0  0  0  0  0  0  0  0  0  0
  -22.3696  -14.6645   20.7247 O   0  0  0  0  0  0  0  0  0  0  0  0
  -25.2603  -30.6779   23.2566 O   0  0  0  0  0  0  0  0  0  0  0  0
  -26.6579  -22.5436   22.1000 O   0  0  0  0  0  0  0  0  0  0  0  0
  -22.6454  -32.5642   20.1649 O   0  0  0  0  0  0  0  0  0  0  0  0
  -21.2548  -28.2850   18.6563 O   0  0  0  0  0  0  0  0  0  0  0  0
  -31.5476  -15.3905   19.6766 O   0  0  0  0  0  0  0  0  0  0  0  0
  -22.0375   -7.7193   24.2234 O   0  0  0  0  0  0  0  0  0  0  0  0
  -26.5522  -25.1784   21.5953 O   0  0  0  0  0  0  0  0  0  1  0  0
  -22.8754   -2.5473   22.5053 F   0  0  0  0  0  0  0  0  0  0  0  0
  -31.5257  -21.2851   22.3818 F   0  0  0  0  0  0  0  0  0  0  0  0
  -19.9268   -6.1452   23.3808 F   0  0  0  0  0  0  0  0  0  0  0  0
  1  2  1  0  0  0  0
  1  5  2  0  0  0  0
  2  6  2  0  0  0  0
  3  9  2  0  0  0  0
  3 17  1  0  0  0  0
  4 10  1  0  0  0  0
  4 17  2  0  0  0  0
  5 19  1  0  0  0  0
  6 21  1  0  0  0  0
  7 11  2  0  0  0  0
  7 20  1  0  0  0  0
  8 13  1  0  0  0  0
  8 24  2  0  0  0  0
  9 26  1  0  0  0  0
 10 26  2  0  0  0  0
 11 27  1  0  0  0  0
 12 14  2  0  0  0  0
 12 28  1  0  0  0  0
 13 30  2  0  0  0  0
 14 29  1  0  0  0  0
 15 22  1  0  0  0  0
 15 27  2  0  0  0  0
 16 29  2  0  0  0  0
 16 31  1  0  0  0  0
 17 32  1  0  0  0  0
 18 32  1  0  0  0  0
 18 33  2  0  0  0  0
 18 34  1  0  0  0  0
 19 21  2  0  0  0  0
 19 40  1  0  0  0  0
 20 22  2  0  0  0  0
 20 41  1  0  0  0  0
 21 49  1  0  0  0  0
 22 42  1  0  0  0  0
 23 24  1  0  0  0  0
 23 25  2  0  0  0  0
 23 58  1  0  0  0  0
 24 70  1  0  0  0  0
 25 30  1  0  0  0  0
 25 71  1  0  0  0  0
 26 81  1  0  0  0  0
 27 82  1  0  0  0  0
 28 31  2  0  0  0  0
 28 81  1  0  0  0  0
 29 83  1  0  0  0  0
 30 84  1  0  0  0  0
 31 85  1  0  0  0  0
 32 64  2  0  0  0  0
 33 65  1  0  0  0  0
 33 68  1  0  0  0  0
 34 69  1  0  0  0  0
 34 75  2  0  0  0  0
 35 50  1  0  0  0  0
 35 72  1  0  0  0  0
 35 76  2  0  0  0  0
 36 59  1  0  0  0  0
 36 60  1  0  0  0  0
 36 77  2  0  0  0  0
 37 61  1  0  0  0  0
 37 66  1  0  0  0  0
 37 78  2  0  0  0  0
 38 62  1  0  0  0  0
 38 73  1  0  0  0  0
 38 79  2  0  0  0  0
 39 67  1  0  0  0  0
 39 70  1  0  0  0  0
 39 80  2  0  0  0  0
 40 43  1  0  0  0  0
 41 50  1  0  0  0  0
 42 66  1  0  0  0  0
 43 45  1  0  0  0  0
 44 46  1  0  0  0  0
 44 47  1  0  0  0  0
 45 49  1  0  0  0  0
 46 51  1  0  0  0  0
 47 67  1  0  0  0  0
 48 51  1  0  0  0  0
 48 67  1  0  0  0  0
 49 72  1  0  0  0  0
 50 66  1  0  0  0  0
 51 65  1  0  0  0  0
 52 58  1  0  0  0  0
 53 62  1  0  0  0  0
 54 63  1  0  0  0  0
 55 63  1  0  0  0  0
 56 63  1  0  0  0  0
 57 74  1  0  0  0  0
 59 71  1  0  0  0  0
 60 82  1  0  0  0  0
 61 63  1  0  0  0  0
 61 73  1  0  0  0  0
 62 74  1  0  0  0  0
 64 65  1  0  0  0  0
M  CHG  1  74   1
M  ISO  4  39 100  60 101  70 100  82 101
M  END
> <Batch ID>
0171

> <Smiles>
CCc1c([100NH:0][100C:0](=O)N2CCCC(n3nc(-c4ccc(Oc5ccc(F)cc5F)cc4)c(C(N)=O)c3N)C2)ccc(F)c1NCC(=O)[101CH2:1][101O:1]c1ccc2c(c1)CN(C(=O)C(NC(=O)C(C)NC)C(C)(C)C)C(C(=O)NC1CCCc3ccccc31)C2

> <Shape>
0.326

> <Color>
0.160

> <Negative vol penalty>
0.000

$$$$

  -OEChem-04052304233D

 85 93  0     1  0  0  0  0  0999 V2000
  -17.6339  -26.1218   23.4128 C   0  0  0  0  0  0  0  0  0  0  0  0
  -18.9098  -25.6866   23.0690 C   0  0  0  0  0  0  0  0  0  0  0  0
  -23.7362  -17.8439   24.9439 C   0  0  0  0  0  0  0  0  0  0  0  0
  -24.2877  -19.6132   23.3939 C   0  0  0  0  0  0  0  0  0  0  0  0
  -17.2598  -27.4425   23.1684 C   0  0  0  0  0  0  0  0  0  0  0  0
  -19.8119  -26.5715   22.4796 C   0  0  0  0  0  0  0  0  0  0  0  0
  -25.8840  -26.7057   23.2655 C   0  0  0  0  0  0  0  0  0  0  0  0
  -23.1376  -18.7744   25.7932 C   0  0  0  0  0  0  0  0  0  0  0  0
  -23.6890  -20.5438   24.2432 C   0  0  0  0  0  0  0  0  0  0  0  0
  -26.9396  -26.2053   22.5045 C   0  0  0  0  0  0  0  0  0  0  0  0
  -24.4766  -22.1840   27.0928 C   0  0  0  0  0  0  0  0  0  0  0  0
  -25.1619  -23.3743   27.3359 C   0  0  0  0  0  0  0  0  0  0  0  0
  -27.2087  -28.3667   21.4676 C   0  0  0  0  0  0  0  0  0  0  0  0
  -23.3121  -24.6271   26.4162 C   0  0  0  0  0  0  0  0  0  0  0  0
  -24.3113  -18.2632   23.7442 C   0  0  0  0  0  0  0  0  0  0  0  0
  -24.3151  -16.5823   21.8254 C   0  0  0  0  0  0  0  0  0  0  0  0
  -18.1611  -28.3467   22.5845 C   0  0  0  0  0  0  0  0  0  0  0  0
  -25.4751  -28.0397   23.1251 C   0  0  0  0  0  0  0  0  0  0  0  0
  -19.4491  -27.9052   22.2260 C   0  0  0  0  0  0  0  0  0  0  0  0
  -26.1494  -28.8823   22.2298 C   0  0  0  0  0  0  0  0  0  0  0  0
  -23.1140  -20.1244   25.4428 C   0  0  0  0  0  0  0  0  0  0  0  0
  -27.6003  -27.0350   21.6033 C   0  0  0  0  0  0  0  0  0  0  0  0
  -23.2091  -22.2152   26.5112 C   0  0  0  0  0  0  0  0  0  0  0  0
  -24.5796  -24.5959   26.9976 C   0  0  0  0  0  0  0  0  0  0  0  0
  -22.6268  -23.4368   26.1730 C   0  0  0  0  0  0  0  0  0  0  0  0
  -24.9304  -17.3025   22.8668 C   0  0  0  0  0  0  0  0  0  0  0  0
  -31.3818  -19.2969   18.8352 C   0  0  0  0  0  0  0  0  0  0  0  0
  -30.9845  -19.3080   17.5145 C   0  0  0  0  0  0  0  0  0  0  0  0
  -25.3222  -15.8098   21.3005 C   0  0  0  0  0  0  0  0  0  0  0  0
  -30.7334  -21.3878   18.7036 C   0  0  0  0  0  0  0  0  0  0  0  0
  -22.9549  -16.6092   21.3728 C   0  0  0  0  0  0  0  0  0  0  0  0
  -30.1211  -24.8125   20.1372 C   0  0  0  0  0  0  0  0  0  0  0  0
  -30.5950  -23.3890   20.1932 C   0  0  0  0  0  0  0  0  0  0  0  0
  -22.7920  -29.4792   22.2125 C   0  0  0  0  0  0  0  0  0  0  0  0
  -24.3841  -32.1588   23.1109 C   0  0  0  0  0  0  0  0  0  0  0  0
  -27.3772  -33.7032   23.6614 C   0  0  0  0  0  0  0  0  0  0  0  0
  -31.2804  -16.3938   21.2033 C   0  0  0  0  0  0  0  0  0  0  0  0
  -17.6953  -29.7519   22.2964 C   0  0  0  0  0  0  0  0  0  0  0  0
  -24.3520  -28.5714   23.9727 C   0  0  0  0  0  0  0  0  0  0  0  0
  -25.7623  -30.3275   22.0564 C   0  0  0  0  0  0  0  0  0  0  0  0
  -18.8362  -30.7254   22.0116 C   0  0  0  0  0  0  0  0  0  0  0  0
  -29.4184  -13.6614   22.5237 C   0  0  0  0  0  0  0  0  0  0  0  0
  -19.8287  -30.1118   21.0291 C   0  0  0  0  0  0  0  0  0  0  0  0
  -28.0015  -14.2197   22.6674 C   0  0  0  0  0  0  0  0  0  0  0  0
  -30.4757  -14.7170   22.8396 C   0  0  0  0  0  0  0  0  0  0  0  0
  -28.9266  -16.5315   22.2217 C   0  0  0  0  0  0  0  0  0  0  0  0
  -20.4642  -28.8418   21.6076 C   0  0  1  0  0  0  0  0  0  0  0  0
  -23.6857  -29.8068   23.3752 C   0  0  1  0  0  0  0  0  0  0  0  0
  -27.8264  -15.5195   21.8591 C   0  0  2  0  0  0  0  0  0  0  0  0
  -32.3977  -17.9653   15.9377 C   0  0  0  0  0  0  0  0  0  0  0  0
  -28.3592  -35.9063   24.3535 C   0  0  0  0  0  0  0  0  0  0  0  0
  -23.7789  -33.2950   20.3446 C   0  0  0  0  0  0  0  0  0  0  0  0
  -25.5426  -35.0259   20.7461 C   0  0  0  0  0  0  0  0  0  0  0  0
  -23.5328  -34.9303   22.2206 C   0  0  0  0  0  0  0  0  0  0  0  0
  -28.6742  -32.5098   26.0389 C   0  0  0  0  0  0  0  0  0  0  0  0
  -31.9372  -18.1398   19.5665 C   0  0  0  0  0  0  0  0  0  0  0  0
  -30.9998  -18.2286   16.5073 C   0  0  0  0  0  0  0  0  0  0  0  0
  -28.9818  -25.1794   21.0519 C   0  0  0  0  0  0  0  0  0  1  0  0
  -25.3040  -33.1374   22.4218 C   0  0  1  0  0  0  0  0  0  0  0  0
  -27.8795  -34.5417   24.8229 C   0  0  2  0  0  0  0  0  0  0  0  0
  -24.5459  -34.0694   21.4349 C   0  0  0  0  0  0  0  0  0  0  0  0
  -26.2278  -17.0132   22.9974 N   0  0  0  0  0  0  0  0  0  0  0  0
  -31.2390  -20.4887   19.5185 N   0  0  0  0  0  0  0  0  0  0  0  0
  -26.4360  -16.1026   22.0312 N   0  0  0  0  0  0  0  0  0  0  0  0
  -24.6539  -30.7987   22.9032 N   0  0  0  0  0  0  0  0  0  0  0  0
  -30.2539  -15.9235   22.0388 N   0  0  0  0  0  0  0  0  0  0  0  0
  -25.3548  -14.9153   20.2900 N   0  0  0  0  0  0  0  0  0  0  0  0
  -22.0510  -17.4600   22.0236 N   0  0  0  0  0  0  0  0  0  0  0  0
  -30.4254  -22.7382   18.9902 N   0  0  0  0  0  0  0  0  0  0  0  0
  -21.4903  -29.1832   22.5694 N   0  0  0  0  0  0  0  0  0  0  0  0
  -26.0173  -33.8427   23.4812 N   0  0  0  0  0  0  0  0  0  0  0  0
  -30.9853  -17.5392   20.4742 N   0  0  0  0  0  0  0  0  0  0  0  0
  -29.0119  -33.8548   25.5060 N   0  3  0  0  0  0  0  0  0  0  0  0
  -22.5492  -15.8877   20.4303 O   0  0  0  0  0  0  0  0  0  0  0  0
  -30.6741  -25.5618   19.3464 O   0  0  0  0  0  0  0  0  0  0  0  0
  -31.0287  -22.9993   21.2646 O   0  0  0  0  0  0  0  0  0  0  0  0
  -23.2493  -29.4952   21.0757 O   0  0  0  0  0  0  0  0  0  0  0  0
  -23.4643  -32.5854   23.8136 O   0  0  0  0  0  0  0  0  0  0  0  0
  -28.1178  -32.9981   22.9795 O   0  0  0  0  0  0  0  0  0  0  0  0
  -32.3767  -15.8314   21.1097 O   0  0  0  0  0  0  0  0  0  0  0  0
  -22.5297  -21.0326   26.2712 O   0  0  0  0  0  0  0  0  0  0  0  0
  -28.6305  -26.5490   20.8588 O   0  0  0  0  0  0  0  0  0  1  0  0
  -25.2372  -25.7390   27.2326 F   0  0  0  0  0  0  0  0  0  0  0  0
  -21.4089  -23.4731   25.6152 F   0  0  0  0  0  0  0  0  0  0  0  0
  -30.4050  -20.8684   17.1013 S   0  0  0  0  0  0  0  0  0  0  0  0
  1  2  1  0  0  0  0
  1  5  2  0  0  0  0
  2  6  2  0  0  0  0
  3  8  2  0  0  0  0
  3 15  1  0  0  0  0
  4  9  1  0  0  0  0
  4 15  2  0  0  0  0
  5 17  1  0  0  0  0
  6 19  1  0  0  0  0
  7 10  2  0  0  0  0
  7 18  1  0  0  0  0
  8 21  1  0  0  0  0
  9 21  2  0  0  0  0
 10 22  1  0  0  0  0
 11 12  2  0  0  0  0
 11 23  1  0  0  0  0
 12 24  1  0  0  0  0
 13 20  1  0  0  0  0
 13 22  2  0  0  0  0
 14 24  2  0  0  0  0
 14 25  1  0  0  0  0
 15 26  1  0  0  0  0
 16 26  1  0  0  0  0
 16 29  2  0  0  0  0
 16 31  1  0  0  0  0
 17 19  2  0  0  0  0
 17 38  1  0  0  0  0
 18 20  2  0  0  0  0
 18 39  1  0  0  0  0
 19 47  1  0  0  0  0
 20 40  1  0  0  0  0
 21 81  1  0  0  0  0
 22 82  1  0  0  0  0
 23 25  2  0  0  0  0
 23 81  1  0  0  0  0
 24 83  1  0  0  0  0
 25 84  1  0  0  0  0
 26 62  2  0  0  0  0
 27 28  2  0  0  0  0
 27 56  1  0  0  0  0
 27 63  1  0  0  0  0
 28 57  1  0  0  0  0
 28 85  1  0  0  0  0
 29 64  1  0  0  0  0
 29 67  1  0  0  0  0
 30 63  2  0  0  0  0
 30 69  1  0  0  0  0
 30 85  1  0  0  0  0
 31 68  1  0  0  0  0
 31 74  2  0  0  0  0
 32 33  1  0  0  0  0
 32 58  1  0  0  0  0
 32 75  2  0  0  0  0
 33 69  1  0  0  0  0
 33 76  2  0  0  0  0
 34 48  1  0  0  0  0
 34 70  1  0  0  0  0
 34 77  2  0  0  0  0
 35 59  1  0  0  0  0
 35 65  1  0  0  0  0
 35 78  2  0  0  0  0
 36 60  1  0  0  0  0
 36 71  1  0  0  0  0
 36 79  2  0  0  0  0
 37 66  1  0  0  0  0
 37 72  1  0  0  0  0
 37 80  2  0  0  0  0
 38 41  1  0  0  0  0
 39 48  1  0  0  0  0
 40 65  1  0  0  0  0
 41 43  1  0  0  0  0
 42 44  1  0  0  0  0
 42 45  1  0  0  0  0
 43 47  1  0  0  0  0
 44 49  1  0  0  0  0
 45 66  1  0  0  0  0
 46 49  1  0  0  0  0
 46 66  1  0  0  0  0
 47 70  1  0  0  0  0
 48 65  1  0  0  0  0
 49 64  1  0  0  0  0
 50 57  1  0  0  0  0
 51 60  1  0  0  0  0
 52 61  1  0  0  0  0
 53 61  1  0  0  0  0
 54 61  1  0  0  0  0
 55 73  1  0  0  0  0
 56 72  1  0  0  0  0
 58 82  1  0  0  0  0
 59 61  1  0  0  0  0
 59 71  1  0  0  0  0
 60 73  1  0  0  0  0
 62 64  1  0  0  0  0
M  CHG  1  73   1
M  ISO  4  37 100  58 101  72 100  82 101
M  END
> <Batch ID>
0171

> <Smiles>
CCc1sc(NC(=O)C(=O)[101CH2:1][101O:1]c2ccc3c(c2)CN(C(=O)C(NC(=O)C(C)NC)C(C)(C)C)C(C(=O)NC2CCCc4ccccc42)C3)nc1C[100NH:0][100C:0](=O)N1CCCC(n2nc(-c3ccc(Oc4ccc(F)cc4F)cc3)c(C(N)=O)c2N)C1

> <Shape>
0.207

> <Color>
0.115

> <Negative vol penalty>
0.000

$$$$

  -OEChem-04052304233D

 90 99  0     1  0  0  0  0  0999 V2000
  -22.1682  -21.2035   26.8116 C   0  0  0  0  0  0  0  0  0  0  0  0
  -21.8456  -22.5368   27.0380 C   0  0  0  0  0  0  0  0  0  0  0  0
  -26.5403  -12.9980   18.8540 C   0  0  0  0  0  0  0  0  0  0  0  0
  -26.0565  -13.2198   21.2106 C   0  0  0  0  0  0  0  0  0  0  0  0
  -23.1610  -20.8775   25.8900 C   0  0  0  0  0  0  0  0  0  0  0  0
  -22.5072  -23.5438   26.3343 C   0  0  0  0  0  0  0  0  0  0  0  0
  -24.7850  -30.4445   22.2608 C   0  0  0  0  0  0  0  0  0  0  0  0
  -25.3840  -12.2358   18.6883 C   0  0  0  0  0  0  0  0  0  0  0  0
  -24.9001  -12.4576   21.0449 C   0  0  0  0  0  0  0  0  0  0  0  0
  -25.5850  -30.7087   21.1500 C   0  0  0  0  0  0  0  0  0  0  0  0
  -24.0946   -9.1892   20.7287 C   0  0  0  0  0  0  0  0  0  0  0  0
  -23.8393   -8.1871   21.6647 C   0  0  0  0  0  0  0  0  0  0  0  0
  -24.6862  -28.7606   20.0470 C   0  0  0  0  0  0  0  0  0  0  0  0
  -21.7563   -9.2629   22.2484 C   0  0  0  0  0  0  0  0  0  0  0  0
  -28.6155  -21.1479   16.8791 C   0  0  0  0  0  0  0  0  0  0  0  0
  -26.8766  -13.4900   20.1152 C   0  0  0  0  0  0  0  0  0  0  0  0
  -29.3958  -13.8807   20.0218 C   0  0  0  0  0  0  0  0  0  0  0  0
  -23.8433  -21.8821   25.1843 C   0  0  0  0  0  0  0  0  0  0  0  0
  -23.9362  -29.3284   22.2775 C   0  0  0  0  0  0  0  0  0  0  0  0
  -23.4955  -23.2338   25.3826 C   0  0  0  0  0  0  0  0  0  0  0  0
  -23.8745  -28.4860   21.1583 C   0  0  0  0  0  0  0  0  0  0  0  0
  -24.5639  -11.9656   19.7837 C   0  0  0  0  0  0  0  0  0  0  0  0
  -25.5378  -29.8651   20.0440 C   0  0  0  0  0  0  0  0  0  0  0  0
  -23.1808  -10.2283   20.5526 C   0  0  0  0  0  0  0  0  0  0  0  0
  -22.6702   -8.2239   22.4245 C   0  0  0  0  0  0  0  0  0  0  0  0
  -22.0116  -10.2651   21.3124 C   0  0  0  0  0  0  0  0  0  0  0  0
  -28.0713  -14.2770   20.2872 C   0  0  0  0  0  0  0  0  0  0  0  0
  -28.7198  -22.1126   15.8979 C   0  0  0  0  0  0  0  0  0  0  0  0
  -28.8636  -21.5770   18.1670 C   0  0  0  0  0  0  0  0  0  0  0  0
  -30.1543  -14.9789   20.3459 C   0  0  0  0  0  0  0  0  0  0  0  0
  -29.2590  -23.6938   17.4393 C   0  0  0  0  0  0  0  0  0  0  0  0
  -29.4715  -27.2685   20.3238 C   0  0  0  0  0  0  0  0  0  0  0  0
  -29.8958  -12.6315   19.5266 C   0  0  0  0  0  0  0  0  0  0  0  0
  -23.7093  -26.7093   24.0642 C   0  0  0  0  0  0  0  0  0  0  0  0
  -21.0177  -26.2238   22.3200 C   0  0  0  0  0  0  0  0  0  0  0  0
  -20.0180  -26.5655   18.8702 C   0  0  0  0  0  0  0  0  0  0  0  0
  -28.9746  -20.8324   20.5710 C   0  0  0  0  0  0  0  0  0  0  0  0
  -24.9038  -21.4725   24.1929 C   0  0  0  0  0  0  0  0  0  0  0  0
  -23.0598  -29.0724   23.4728 C   0  0  0  0  0  0  0  0  0  0  0  0
  -22.9651  -27.2861   21.1180 C   0  0  0  0  0  0  0  0  0  0  0  0
  -30.9006  -26.7841   20.4225 C   0  0  0  0  0  0  0  0  0  0  0  0
  -25.8487  -22.6129   23.8280 C   0  0  0  0  0  0  0  0  0  0  0  0
  -31.0918  -25.3577   19.9193 C   0  0  0  0  0  0  0  0  0  0  0  0
  -30.1714  -18.7973   23.2363 C   0  0  0  0  0  0  0  0  0  0  0  0
  -25.0485  -23.8524   23.4569 C   0  0  0  0  0  0  0  0  0  0  0  0
  -31.0242  -25.2503   18.3934 C   0  0  0  0  0  0  0  0  0  0  0  0
  -29.8947  -17.3709   22.7557 C   0  0  0  0  0  0  0  0  0  0  0  0
  -29.0662  -19.7630   22.8123 C   0  0  0  0  0  0  0  0  0  0  0  0
  -28.4762  -18.3302   20.8970 C   0  0  0  0  0  0  0  0  0  0  0  0
  -24.2231  -24.3475   24.6513 C   0  0  1  0  0  0  0  0  0  0  0  0
  -29.6249  -25.1341   17.7561 C   0  0  2  0  0  0  0  0  0  0  0  0
  -28.8164  -27.2491   18.9531 C   0  0  2  0  0  0  0  0  0  0  0  0
  -22.6128  -27.6181   23.5854 C   0  0  1  0  0  0  0  0  0  0  0  0
  -29.5943  -17.3337   21.2444 C   0  0  2  0  0  0  0  0  0  0  0  0
  -17.7593  -26.9837   17.8599 C   0  0  0  0  0  0  0  0  0  0  0  0
  -20.8802  -23.1846   22.0864 C   0  0  0  0  0  0  0  0  0  0  0  0
  -19.7463  -23.4757   19.8733 C   0  0  0  0  0  0  0  0  0  0  0  0
  -18.6678  -24.3427   21.9489 C   0  0  0  0  0  0  0  0  0  0  0  0
  -28.3745  -30.0605   20.1624 C   0  0  0  0  0  0  0  0  0  0  0  0
  -28.3246  -29.9897   17.6604 C   0  0  0  0  0  0  0  0  0  0  0  0
  -20.9861  -28.9476   17.4049 C   0  0  0  0  0  0  0  0  0  0  0  0
  -27.4879  -27.9975   18.9505 C   0  0  0  0  0  0  0  0  0  0  0  0
  -20.6979  -25.5284   21.0188 C   0  0  1  0  0  0  0  0  0  0  0  0
  -19.0757  -27.6080   18.2961 C   0  0  2  0  0  0  0  0  0  0  0  0
  -20.0236  -24.1444   21.2367 C   0  0  0  0  0  0  0  0  0  0  0  0
  -27.6188  -29.5335   18.9416 C   0  0  0  0  0  0  0  0  0  1  0  0
  -27.9896  -15.5291   20.7448 N   0  0  0  0  0  0  0  0  0  0  0  0
  -29.0407  -23.3998   16.1434 N   0  0  0  0  0  0  0  0  0  0  0  0
  -29.1893  -22.8472   18.4843 N   0  0  0  0  0  0  0  0  0  0  0  0
  -29.2723  -15.9291   20.7696 N   0  0  0  0  0  0  0  0  0  0  0  0
  -22.1323  -27.0744   22.3135 N   0  0  0  0  0  0  0  0  0  0  0  0
  -28.8396  -19.6759   21.3680 N   0  0  0  0  0  0  0  0  0  0  0  0
  -28.4707  -21.7135   14.5618 N   0  0  0  0  0  0  0  0  0  0  0  0
  -31.4829  -15.2148   20.3072 N   0  0  0  0  0  0  0  0  0  0  0  0
  -30.2361  -11.6344   20.4508 N   0  0  0  0  0  0  0  0  0  0  0  0
  -28.7673  -20.6209   19.2083 N   0  0  0  0  0  0  0  0  0  0  0  0
  -23.3249  -25.3895   24.2050 N   0  0  0  0  0  0  0  0  0  0  0  0
  -19.8974  -26.4672   20.2403 N   0  0  0  0  0  0  0  0  0  0  0  0
  -28.5513  -25.8267   18.5529 N   0  3  0  0  0  0  0  0  0  0  0  0
  -19.6954  -28.2717   17.1145 N   0  3  0  0  0  0  0  0  0  0  0  0
  -28.8899  -27.6946   21.3230 O   0  0  0  0  0  0  0  0  0  0  0  0
  -30.0522  -12.4122   18.3014 O   0  0  0  0  0  0  0  0  0  0  0  0
  -24.8222  -27.1709   24.2877 O   0  0  0  0  0  0  0  0  0  0  0  0
  -20.3007  -26.0253   23.3039 O   0  0  0  0  0  0  0  0  0  0  0  0
  -20.7819  -25.9018   18.1726 O   0  0  0  0  0  0  0  0  0  0  0  0
  -29.2802  -21.9239   21.0579 O   0  0  0  0  0  0  0  0  0  0  0  0
  -23.4353  -11.2220   19.6223 O   0  0  0  0  0  0  0  0  0  0  0  0
  -26.3181  -30.1202   18.9587 O   0  0  0  0  0  0  0  0  0  1  0  0
  -22.4244   -7.2606   23.3223 F   0  0  0  0  0  0  0  0  0  0  0  0
  -21.1294  -11.2601   21.1468 F   0  0  0  0  0  0  0  0  0  0  0  0
  1  2  1  0  0  0  0
  1  5  2  0  0  0  0
  2  6  2  0  0  0  0
  3  8  2  0  0  0  0
  3 16  1  0  0  0  0
  4  9  1  0  0  0  0
  4 16  2  0  0  0  0
  5 18  1  0  0  0  0
  6 20  1  0  0  0  0
  7 10  2  0  0  0  0
  7 19  1  0  0  0  0
  8 22  1  0  0  0  0
  9 22  2  0  0  0  0
 10 23  1  0  0  0  0
 11 12  2  0  0  0  0
 11 24  1  0  0  0  0
 12 25  1  0  0  0  0
 13 21  1  0  0  0  0
 13 23  2  0  0  0  0
 14 25  2  0  0  0  0
 14 26  1  0  0  0  0
 15 28  1  0  0  0  0
 15 29  2  0  0  0  0
 16 27  1  0  0  0  0
 17 27  1  0  0  0  0
 17 30  2  0  0  0  0
 17 33  1  0  0  0  0
 18 20  2  0  0  0  0
 18 38  1  0  0  0  0
 19 21  2  0  0  0  0
 19 39  1  0  0  0  0
 20 50  1  0  0  0  0
 21 40  1  0  0  0  0
 22 87  1  0  0  0  0
 23 88  1  0  0  0  0
 24 26  2  0  0  0  0
 24 87  1  0  0  0  0
 25 89  1  0  0  0  0
 26 90  1  0  0  0  0
 27 67  2  0  0  0  0
 28 68  2  0  0  0  0
 28 73  1  0  0  0  0
 29 69  1  0  0  0  0
 29 76  1  0  0  0  0
 30 70  1  0  0  0  0
 30 74  1  0  0  0  0
 31 51  1  0  0  0  0
 31 68  1  0  0  0  0
 31 69  2  0  0  0  0
 32 41  1  0  0  0  0
 32 52  1  0  0  0  0
 32 81  2  0  0  0  0
 33 75  1  0  0  0  0
 33 82  2  0  0  0  0
 34 53  1  0  0  0  0
 34 77  1  0  0  0  0
 34 83  2  0  0  0  0
 35 63  1  0  0  0  0
 35 71  1  0  0  0  0
 35 84  2  0  0  0  0
 36 64  1  0  0  0  0
 36 78  1  0  0  0  0
 36 85  2  0  0  0  0
 37 72  1  0  0  0  0
 37 76  1  0  0  0  0
 37 86  2  0  0  0  0
 38 42  1  0  0  0  0
 39 53  1  0  0  0  0
 40 71  1  0  0  0  0
 41 43  1  0  0  0  0
 42 45  1  0  0  0  0
 43 46  1  0  0  0  0
 44 47  1  0  0  0  0
 44 48  1  0  0  0  0
 45 50  1  0  0  0  0
 46 51  1  0  0  0  0
 47 54  1  0  0  0  0
 48 72  1  0  0  0  0
 49 54  1  0  0  0  0
 49 72  1  0  0  0  0
 50 77  1  0  0  0  0
 51 79  1  0  0  0  0
 52 62  1  0  0  0  0
 52 79  1  0  0  0  0
 53 71  1  0  0  0  0
 54 70  1  0  0  0  0
 55 64  1  0  0  0  0
 56 65  1  0  0  0  0
 57 65  1  0  0  0  0
 58 65  1  0  0  0  0
 59 66  1  0  0  0  0
 60 66  1  0  0  0  0
 61 80  1  0  0  0  0
 62 66  1  0  0  0  0
 63 65  1  0  0  0  0
 63 78  1  0  0  0  0
 64 80  1  0  0  0  0
 66 88  1  0  0  0  0
 67 70  1  0  0  0  0
M  CHG  2  79   1  80   1
M  ISO  4  37 100  66 101  76 100  88 101
M  END
> <Batch ID>
0171

> <Smiles>
CNC(C)C(=O)NC(C(=O)N1Cc2cc([101O:1][101C:1](C)(C)CC3NC(c4nc(N)cc([100NH:0][100C:0](=O)N5CCCC(n6nc(-c7ccc(Oc8ccc(F)cc8F)cc7)c(C(N)=O)c6N)C5)n4)CCCC3=O)ccc2CC1C(=O)NC1CCCc2ccccc21)C(C)(C)C

> <Shape>
0.284

> <Color>
0.062

> <Negative vol penalty>
0.000

$$$$

  -OEChem-04052304233D

 89 97  0     1  0  0  0  0  0999 V2000
  -22.8598   -7.6321   17.8704 C   0  0  0  0  0  0  0  0  0  0  0  0
  -22.4928   -8.8913   17.4066 C   0  0  0  0  0  0  0  0  0  0  0  0
  -18.7555  -27.8324   21.2288 C   0  0  0  0  0  0  0  0  0  0  0  0
  -29.3038  -27.9556   20.5622 C   0  0  0  0  0  0  0  0  0  0  0  0
  -27.2623  -27.1021   19.5920 C   0  0  0  0  0  0  0  0  0  0  0  0
  -23.1786   -7.4516   19.2157 C   0  0  0  0  0  0  0  0  0  0  0  0
  -22.4434   -9.9706   18.2882 C   0  0  0  0  0  0  0  0  0  0  0  0
  -23.5170  -17.0497   18.5122 C   0  0  0  0  0  0  0  0  0  0  0  0
  -19.2185  -28.9555   21.9143 C   0  0  0  0  0  0  0  0  0  0  0  0
  -18.8928  -26.5646   21.7940 C   0  0  0  0  0  0  0  0  0  0  0  0
  -29.9434  -26.7491   20.2777 C   0  0  0  0  0  0  0  0  0  0  0  0
  -27.9020  -25.8956   19.3075 C   0  0  0  0  0  0  0  0  0  0  0  0
  -22.8759  -18.2245   18.9029 C   0  0  0  0  0  0  0  0  0  0  0  0
  -28.8052  -23.0997   20.9801 C   0  0  0  0  0  0  0  0  0  0  0  0
  -28.1247  -21.9193   21.2786 C   0  0  0  0  0  0  0  0  0  0  0  0
  -23.5243  -17.8107   21.1893 C   0  0  0  0  0  0  0  0  0  0  0  0
  -28.2142  -21.2790   18.9507 C   0  0  0  0  0  0  0  0  0  0  0  0
  -27.9632  -28.1321   20.2194 C   0  0  0  0  0  0  0  0  0  0  0  0
  -27.2204  -30.5134   19.6854 C   0  0  0  0  0  0  0  0  0  0  0  0
  -23.1424   -8.5312   20.1122 C   0  0  0  0  0  0  0  0  0  0  0  0
  -24.1583  -16.2396   19.4603 C   0  0  0  0  0  0  0  0  0  0  0  0
  -22.7607   -9.8041   19.6470 C   0  0  0  0  0  0  0  0  0  0  0  0
  -24.1750  -16.6275   20.8076 C   0  0  0  0  0  0  0  0  0  0  0  0
  -19.8189  -28.8108   23.1650 C   0  0  0  0  0  0  0  0  0  0  0  0
  -19.4931  -26.4199   23.0447 C   0  0  0  0  0  0  0  0  0  0  0  0
  -19.9562  -27.5430   23.7302 C   0  0  0  0  0  0  0  0  0  0  0  0
  -29.2425  -25.7192   19.6503 C   0  0  0  0  0  0  0  0  0  0  0  0
  -22.8770  -18.6037   20.2421 C   0  0  0  0  0  0  0  0  0  0  0  0
  -29.1902  -23.3699   19.6669 C   0  0  0  0  0  0  0  0  0  0  0  0
  -27.8292  -21.0089   20.2639 C   0  0  0  0  0  0  0  0  0  0  0  0
  -28.8947  -22.4595   18.6522 C   0  0  0  0  0  0  0  0  0  0  0  0
  -27.3018  -29.3779   20.5135 C   0  0  0  0  0  0  0  0  0  0  0  0
  -26.4928  -31.4202   20.4166 C   0  0  0  0  0  0  0  0  0  0  0  0
  -27.7547  -30.7291   18.3725 C   0  0  0  0  0  0  0  0  0  0  0  0
  -23.7754  -13.2561   20.4877 C   0  0  0  0  0  0  0  0  0  0  0  0
  -26.4895  -13.8926   22.1463 C   0  0  0  0  0  0  0  0  0  0  0  0
  -19.8835  -23.0001   22.2076 C   0  0  0  0  0  0  0  0  0  0  0  0
  -28.5490  -16.2257   23.5471 C   0  0  0  0  0  0  0  0  0  0  0  0
  -22.4658  -30.8242   24.8074 C   0  0  0  0  0  0  0  0  0  0  0  0
  -23.4496   -8.2774   21.5668 C   0  0  0  0  0  0  0  0  0  0  0  0
  -24.8682  -14.9893   19.0187 C   0  0  0  0  0  0  0  0  0  0  0  0
  -24.8666  -15.8033   21.8616 C   0  0  0  0  0  0  0  0  0  0  0  0
  -23.7354   -9.5501   22.3600 C   0  0  0  0  0  0  0  0  0  0  0  0
  -25.5116  -32.6639   24.9312 C   0  0  0  0  0  0  0  0  0  0  0  0
  -22.6906  -10.6176   22.0509 C   0  0  0  0  0  0  0  0  0  0  0  0
  -26.3084  -32.1328   23.7383 C   0  0  0  0  0  0  0  0  0  0  0  0
  -24.6941  -31.5609   25.5999 C   0  0  0  0  0  0  0  0  0  0  0  0
  -24.6065  -30.2768   23.4982 C   0  0  0  0  0  0  0  0  0  0  0  0
  -22.7194  -11.0046   20.5674 C   0  0  1  0  0  0  0  0  0  0  0  0
  -25.0491  -13.9756   20.1444 C   0  0  1  0  0  0  0  0  0  0  0  0
  -25.4033  -31.3640   22.7569 C   0  0  2  0  0  0  0  0  0  0  0  0
  -30.6717  -16.4402   24.8682 C   0  0  0  0  0  0  0  0  0  0  0  0
  -25.0086  -13.0112   24.6642 C   0  0  0  0  0  0  0  0  0  0  0  0
  -26.7956  -14.1228   26.0203 C   0  0  0  0  0  0  0  0  0  0  0  0
  -27.3763  -12.2198   24.5156 C   0  0  0  0  0  0  0  0  0  0  0  0
  -21.7978  -24.5801   22.5593 C   0  0  0  0  0  0  0  0  0  0  0  0
  -29.8617  -17.7886   21.4039 C   0  0  0  0  0  0  0  0  0  0  0  0
  -20.3060  -30.0296   23.8784 C   0  0  0  0  0  0  0  0  0  0  0  0
  -19.6283  -25.0443   23.6309 C   0  0  0  0  0  0  0  0  0  0  0  0
  -20.8318  -22.1836   21.3391 C   0  0  0  0  0  0  0  0  0  0  0  0
  -20.1699  -20.9352   20.7598 C   0  0  0  0  0  0  0  0  0  0  0  0
  -21.1212  -20.1612   19.8586 C   0  0  0  0  0  0  0  0  0  1  0  0
  -20.6000  -27.3878   25.0713 C   0  0  0  0  0  0  0  0  0  0  0  0
  -26.8009  -14.4659   23.5077 C   0  0  1  0  0  0  0  0  0  0  0  0
  -30.0541  -16.4115   23.4788 C   0  0  2  0  0  0  0  0  0  0  0  0
  -26.4806  -13.4697   24.6576 C   0  0  0  0  0  0  0  0  0  0  0  0
  -26.6760  -29.5457   21.6815 N   0  0  0  0  0  0  0  0  0  0  0  0
  -26.1945  -30.7972   21.5926 N   0  0  0  0  0  0  0  0  0  0  0  0
  -25.5412  -14.5861   21.3810 N   0  0  0  0  0  0  0  0  0  0  0  0
  -23.8564  -30.8720   24.6152 N   0  0  0  0  0  0  0  0  0  0  0  0
  -26.0855  -32.6819   20.1619 N   0  0  0  0  0  0  0  0  0  0  0  0
  -28.4771  -29.6922   17.7664 N   0  0  0  0  0  0  0  0  0  0  0  0
  -23.8329  -11.8887   20.2972 N   0  0  0  0  0  0  0  0  0  0  0  0
  -28.1941  -14.8961   23.4606 N   0  0  0  0  0  0  0  0  0  0  0  0
  -21.7452  -30.1574   23.8240 N   0  0  0  0  0  0  0  0  0  0  0  0
  -20.4147  -24.1624   22.7772 N   0  0  0  0  0  0  0  0  0  0  0  0
  -30.3875  -17.6902   22.7899 N   0  3  0  0  0  0  0  0  0  0  0  0
  -27.6102  -31.8152   17.7617 O   0  0  0  0  0  0  0  0  0  0  0  0
  -22.8125  -13.8941   20.8967 O   0  0  0  0  0  0  0  0  0  0  0  0
  -27.0717  -12.8713   21.7727 O   0  0  0  0  0  0  0  0  0  0  0  0
  -18.7188  -22.6310   22.3798 O   0  0  0  0  0  0  0  0  0  0  0  0
  -27.7667  -17.1657   23.6689 O   0  0  0  0  0  0  0  0  0  0  0  0
  -21.9071  -31.3423   25.7802 O   0  0  0  0  0  0  0  0  0  0  0  0
  -29.8664  -24.5419   19.3723 O   0  0  0  0  0  0  0  0  0  0  0  0
  -22.2514  -19.7495   20.6263 O   0  0  0  0  0  0  0  0  0  1  0  0
  -27.1771  -19.8747   20.5510 F   0  0  0  0  0  0  0  0  0  0  0  0
  -29.2631  -22.7130   17.3889 F   0  0  0  0  0  0  0  0  0  0  0  0
  -21.6894  -26.5821   24.9897 F   0  0  0  0  0  0  0  0  0  0  0  0
  -19.7461  -26.7991   25.9470 F   0  0  0  0  0  0  0  0  0  0  0  0
  1  2  1  0  0  0  0
  1  6  2  0  0  0  0
  2  7  2  0  0  0  0
  3  9  1  0  0  0  0
  3 10  2  0  0  0  0
  4 11  2  0  0  0  0
  4 18  1  0  0  0  0
  5 12  1  0  0  0  0
  5 18  2  0  0  0  0
  6 20  1  0  0  0  0
  7 22  1  0  0  0  0
  8 13  2  0  0  0  0
  8 21  1  0  0  0  0
  9 24  2  0  0  0  0
 10 25  1  0  0  0  0
 11 27  1  0  0  0  0
 12 27  2  0  0  0  0
 13 28  1  0  0  0  0
 14 15  2  0  0  0  0
 14 29  1  0  0  0  0
 15 30  1  0  0  0  0
 16 23  1  0  0  0  0
 16 28  2  0  0  0  0
 17 30  2  0  0  0  0
 17 31  1  0  0  0  0
 18 32  1  0  0  0  0
 19 32  1  0  0  0  0
 19 33  2  0  0  0  0
 19 34  1  0  0  0  0
 20 22  2  0  0  0  0
 20 40  1  0  0  0  0
 21 23  2  0  0  0  0
 21 41  1  0  0  0  0
 22 49  1  0  0  0  0
 23 42  1  0  0  0  0
 24 26  1  0  0  0  0
 24 58  1  0  0  0  0
 25 26  2  0  0  0  0
 25 59  1  0  0  0  0
 26 63  1  0  0  0  0
 27 84  1  0  0  0  0
 28 85  1  0  0  0  0
 29 31  2  0  0  0  0
 29 84  1  0  0  0  0
 30 86  1  0  0  0  0
 31 87  1  0  0  0  0
 32 67  2  0  0  0  0
 33 68  1  0  0  0  0
 33 71  1  0  0  0  0
 34 72  1  0  0  0  0
 34 78  2  0  0  0  0
 35 50  1  0  0  0  0
 35 73  1  0  0  0  0
 35 79  2  0  0  0  0
 36 64  1  0  0  0  0
 36 69  1  0  0  0  0
 36 80  2  0  0  0  0
 37 60  1  0  0  0  0
 37 76  1  0  0  0  0
 37 81  2  0  0  0  0
 38 65  1  0  0  0  0
 38 74  1  0  0  0  0
 38 82  2  0  0  0  0
 39 70  1  0  0  0  0
 39 75  1  0  0  0  0
 39 83  2  0  0  0  0
 40 43  1  0  0  0  0
 41 50  1  0  0  0  0
 42 69  1  0  0  0  0
 43 45  1  0  0  0  0
 44 46  1  0  0  0  0
 44 47  1  0  0  0  0
 45 49  1  0  0  0  0
 46 51  1  0  0  0  0
 47 70  1  0  0  0  0
 48 51  1  0  0  0  0
 48 70  1  0  0  0  0
 49 73  1  0  0  0  0
 50 69  1  0  0  0  0
 51 68  1  0  0  0  0
 52 65  1  0  0  0  0
 53 66  1  0  0  0  0
 54 66  1  0  0  0  0
 55 66  1  0  0  0  0
 56 76  1  0  0  0  0
 57 77  1  0  0  0  0
 58 75  1  0  0  0  0
 59 76  1  0  0  0  0
 60 61  1  0  0  0  0
 61 62  1  0  0  0  0
 62 85  1  0  0  0  0
 63 88  1  0  0  0  0
 63 89  1  0  0  0  0
 64 66  1  0  0  0  0
 64 74  1  0  0  0  0
 65 77  1  0  0  0  0
 67 68  1  0  0  0  0
M  CHG  1  77   1
M  ISO  4  39 100  62 101  75 100  85 101
M  END
> <Batch ID>
0171

> <Smiles>
CNC(C)C(=O)NC(C(=O)N1Cc2cc([101O:1][101CH2:1]CCC(=O)N(C)Cc3cccc(C[100NH:0][100C:0](=O)N4CCCC(n5nc(-c6ccc(Oc7ccc(F)cc7F)cc6)c(C(N)=O)c5N)C4)c3C(F)F)ccc2CC1C(=O)NC1CCCc2ccccc21)C(C)(C)C

> <Shape>
0.267

> <Color>
0.051

> <Negative vol penalty>
0.000

$$$$

  -OEChem-04052304233D

 89 97  0     1  0  0  0  0  0999 V2000
  -20.0453  -27.1834   15.6868 C   0  0  0  0  0  0  0  0  0  0  0  0
  -21.3745  -27.0623   16.0793 C   0  0  0  0  0  0  0  0  0  0  0  0
  -23.9404   -9.2191   20.4740 C   0  0  0  0  0  0  0  0  0  0  0  0
  -22.8429  -11.3650   20.6405 C   0  0  0  0  0  0  0  0  0  0  0  0
  -19.4061  -28.4199   15.7663 C   0  0  0  0  0  0  0  0  0  0  0  0
  -22.0656  -28.1780   16.5505 C   0  0  0  0  0  0  0  0  0  0  0  0
  -24.7753  -27.1714   20.7086 C   0  0  0  0  0  0  0  0  0  0  0  0
  -22.7773   -8.5898   20.9176 C   0  0  0  0  0  0  0  0  0  0  0  0
  -21.6798  -10.7357   21.0840 C   0  0  0  0  0  0  0  0  0  0  0  0
  -25.9868  -26.5042   20.5330 C   0  0  0  0  0  0  0  0  0  0  0  0
  -19.1037   -9.0219   19.7250 C   0  0  0  0  0  0  0  0  0  0  0  0
  -17.8937   -9.4297   19.1637 C   0  0  0  0  0  0  0  0  0  0  0  0
  -27.1627  -28.6018   20.7232 C   0  0  0  0  0  0  0  0  0  0  0  0
  -30.5896  -18.6350   20.1446 C   0  0  0  0  0  0  0  0  0  0  0  0
  -17.0954  -10.0721   21.3517 C   0  0  0  0  0  0  0  0  0  0  0  0
  -23.9733  -10.6067   20.3355 C   0  0  0  0  0  0  0  0  0  0  0  0
  -25.5321  -11.5436   18.5467 C   0  0  0  0  0  0  0  0  0  0  0  0
  -20.0868  -29.5493   16.2479 C   0  0  0  0  0  0  0  0  0  0  0  0
  -24.7476  -28.5626   20.8822 C   0  0  0  0  0  0  0  0  0  0  0  0
  -21.4352  -29.4311   16.6353 C   0  0  0  0  0  0  0  0  0  0  0  0
  -25.9498  -29.2840   20.9033 C   0  0  0  0  0  0  0  0  0  0  0  0
  -29.6161  -19.3729   17.6365 C   0  0  0  0  0  0  0  0  0  0  0  0
  -29.9250  -17.6995   19.3516 C   0  0  0  0  0  0  0  0  0  0  0  0
  -30.2806  -20.3084   18.4296 C   0  0  0  0  0  0  0  0  0  0  0  0
  -21.6470   -9.3481   21.2226 C   0  0  0  0  0  0  0  0  0  0  0  0
  -27.1806  -27.2197   20.5374 C   0  0  0  0  0  0  0  0  0  0  0  0
  -19.3096   -9.1390   21.0996 C   0  0  0  0  0  0  0  0  0  0  0  0
  -16.8895   -9.9549   19.9770 C   0  0  0  0  0  0  0  0  0  0  0  0
  -30.7674  -19.9394   19.6836 C   0  0  0  0  0  0  0  0  0  0  0  0
  -18.3054   -9.6642   21.9129 C   0  0  0  0  0  0  0  0  0  0  0  0
  -29.4383  -18.0685   18.0976 C   0  0  0  0  0  0  0  0  0  0  0  0
  -25.1746  -11.2574   19.8779 C   0  0  0  0  0  0  0  0  0  0  0  0
  -26.7545  -12.1621   18.6448 C   0  0  0  0  0  0  0  0  0  0  0  0
  -24.8225  -11.2746   17.3302 C   0  0  0  0  0  0  0  0  0  0  0  0
  -23.4971  -30.9999   19.2698 C   0  0  0  0  0  0  0  0  0  0  0  0
  -29.6855  -25.1797   18.8935 C   0  0  0  0  0  0  0  0  0  0  0  0
  -24.5266  -32.7123   21.8252 C   0  0  0  0  0  0  0  0  0  0  0  0
  -26.6759  -32.9713   24.4634 C   0  0  0  0  0  0  0  0  0  0  0  0
  -30.1696  -15.8485   21.0429 C   0  0  0  0  0  0  0  0  0  0  0  0
  -19.3680  -30.8750   16.2711 C   0  0  0  0  0  0  0  0  0  0  0  0
  -23.4345  -29.2640   21.0970 C   0  0  0  0  0  0  0  0  0  0  0  0
  -25.9757  -30.7762   21.1063 C   0  0  0  0  0  0  0  0  0  0  0  0
  -20.0590  -31.9275   17.1342 C   0  0  0  0  0  0  0  0  0  0  0  0
  -29.8908  -12.6527   22.5875 C   0  0  0  0  0  0  0  0  0  0  0  0
  -21.5558  -31.9586   16.8420 C   0  0  0  0  0  0  0  0  0  0  0  0
  -28.6684  -12.0283   21.9107 C   0  0  0  0  0  0  0  0  0  0  0  0
  -29.7143  -14.1547   22.8032 C   0  0  0  0  0  0  0  0  0  0  0  0
  -28.1259  -14.2913   20.9250 C   0  0  0  0  0  0  0  0  0  0  0  0
  -22.2111  -30.6129   17.1752 C   0  0  1  0  0  0  0  0  0  0  0  0
  -23.4867  -30.7490   20.7512 C   0  0  1  0  0  0  0  0  0  0  0  0
  -28.2835  -12.7910   20.6279 C   0  0  2  0  0  0  0  0  0  0  0  0
  -29.9677  -19.2286   15.1582 C   0  0  0  0  0  0  0  0  0  0  0  0
  -27.3034  -34.5024   26.3501 C   0  0  0  0  0  0  0  0  0  0  0  0
  -25.9856  -34.5332   19.8591 C   0  0  0  0  0  0  0  0  0  0  0  0
  -27.3225  -35.4207   21.7808 C   0  0  0  0  0  0  0  0  0  0  0  0
  -24.8472  -35.7269   21.7389 C   0  0  0  0  0  0  0  0  0  0  0  0
  -25.9806  -30.9381   26.4984 C   0  0  0  0  0  0  0  0  0  0  0  0
  -29.0854  -19.7454   16.2902 C   0  0  0  0  0  0  0  0  0  0  0  0
  -28.3463  -25.3859   19.5708 C   0  0  0  0  0  0  0  0  0  1  0  0
  -30.3362  -22.7700   18.8333 C   0  0  0  0  0  0  0  0  0  0  0  0
  -25.8045  -33.4301   22.1864 C   0  0  1  0  0  0  0  0  0  0  0  0
  -26.4431  -33.3238   25.9215 C   0  0  2  0  0  0  0  0  0  0  0  0
  -29.8311  -23.9515   18.0201 C   0  0  0  0  0  0  0  0  0  0  0  0
  -25.9897  -34.7499   21.3855 C   0  0  0  0  0  0  0  0  0  0  0  0
  -26.0956  -11.6607   20.7572 N   0  0  0  0  0  0  0  0  0  0  0  0
  -27.0438  -12.2067   19.9769 N   0  0  0  0  0  0  0  0  0  0  0  0
  -24.6656  -31.4174   21.3058 N   0  0  0  0  0  0  0  0  0  0  0  0
  -29.3549  -14.8115   21.5445 N   0  0  0  0  0  0  0  0  0  0  0  0
  -27.5994  -12.6667   17.7208 N   0  0  0  0  0  0  0  0  0  0  0  0
  -23.5796  -10.6319   17.4099 N   0  0  0  0  0  0  0  0  0  0  0  0
  -29.7466  -16.3752   19.8229 N   0  0  0  0  0  0  0  0  0  0  0  0
  -30.4643  -21.6078   17.9855 N   0  0  0  0  0  0  0  0  0  0  0  0
  -22.4018  -30.4836   18.6040 N   0  0  0  0  0  0  0  0  0  0  0  0
  -25.7773  -33.6086   23.6341 N   0  0  0  0  0  0  0  0  0  0  0  0
  -26.7705  -32.1610   26.7942 N   0  3  0  0  0  0  0  0  0  0  0  0
  -25.2848  -11.5799   16.2048 O   0  0  0  0  0  0  0  0  0  0  0  0
  -24.4291  -31.6175   18.7682 O   0  0  0  0  0  0  0  0  0  0  0  0
  -30.6123  -25.9799   19.0193 O   0  0  0  0  0  0  0  0  0  0  0  0
  -23.4445  -33.2768   22.0042 O   0  0  0  0  0  0  0  0  0  0  0  0
  -27.5682  -32.2100   24.0965 O   0  0  0  0  0  0  0  0  0  0  0  0
  -31.1842  -16.2219   21.6372 O   0  0  0  0  0  0  0  0  0  0  0  0
  -20.5118   -8.7344   21.6552 O   0  0  0  0  0  0  0  0  0  0  0  0
  -28.3644  -26.5710   20.3655 O   0  0  0  0  0  0  0  0  0  1  0  0
  -15.7281  -10.3480   19.4377 F   0  0  0  0  0  0  0  0  0  0  0  0
  -31.4082  -20.8293   20.4551 F   0  0  0  0  0  0  0  0  0  0  0  0
  -18.4978   -9.7803   23.2340 F   0  0  0  0  0  0  0  0  0  0  0  0
  -28.7990  -17.1691   17.3344 F   0  0  0  0  0  0  0  0  0  0  0  0
  -28.6340  -23.6271   17.4591 F   0  0  0  0  0  0  0  0  0  0  0  0
  -30.6840  -24.1883   16.9878 F   0  0  0  0  0  0  0  0  0  0  0  0
  1  2  1  0  0  0  0
  1  5  2  0  0  0  0
  2  6  2  0  0  0  0
  3  8  2  0  0  0  0
  3 16  1  0  0  0  0
  4  9  1  0  0  0  0
  4 16  2  0  0  0  0
  5 18  1  0  0  0  0
  6 20  1  0  0  0  0
  7 10  2  0  0  0  0
  7 19  1  0  0  0  0
  8 25  1  0  0  0  0
  9 25  2  0  0  0  0
 10 26  1  0  0  0  0
 11 12  2  0  0  0  0
 11 27  1  0  0  0  0
 12 28  1  0  0  0  0
 13 21  1  0  0  0  0
 13 26  2  0  0  0  0
 14 23  1  0  0  0  0
 14 29  2  0  0  0  0
 15 28  2  0  0  0  0
 15 30  1  0  0  0  0
 16 32  1  0  0  0  0
 17 32  1  0  0  0  0
 17 33  2  0  0  0  0
 17 34  1  0  0  0  0
 18 20  2  0  0  0  0
 18 40  1  0  0  0  0
 19 21  2  0  0  0  0
 19 41  1  0  0  0  0
 20 49  1  0  0  0  0
 21 42  1  0  0  0  0
 22 24  2  0  0  0  0
 22 31  1  0  0  0  0
 22 58  1  0  0  0  0
 23 31  2  0  0  0  0
 23 71  1  0  0  0  0
 24 29  1  0  0  0  0
 24 72  1  0  0  0  0
 25 82  1  0  0  0  0
 26 83  1  0  0  0  0
 27 30  2  0  0  0  0
 27 82  1  0  0  0  0
 28 84  1  0  0  0  0
 29 85  1  0  0  0  0
 30 86  1  0  0  0  0
 31 87  1  0  0  0  0
 32 65  2  0  0  0  0
 33 66  1  0  0  0  0
 33 69  1  0  0  0  0
 34 70  1  0  0  0  0
 34 76  2  0  0  0  0
 35 50  1  0  0  0  0
 35 73  1  0  0  0  0
 35 77  2  0  0  0  0
 36 59  1  0  0  0  0
 36 63  1  0  0  0  0
 36 78  2  0  0  0  0
 37 61  1  0  0  0  0
 37 67  1  0  0  0  0
 37 79  2  0  0  0  0
 38 62  1  0  0  0  0
 38 74  1  0  0  0  0
 38 80  2  0  0  0  0
 39 68  1  0  0  0  0
 39 71  1  0  0  0  0
 39 81  2  0  0  0  0
 40 43  1  0  0  0  0
 41 50  1  0  0  0  0
 42 67  1  0  0  0  0
 43 45  1  0  0  0  0
 44 46  1  0  0  0  0
 44 47  1  0  0  0  0
 45 49  1  0  0  0  0
 46 51  1  0  0  0  0
 47 68  1  0  0  0  0
 48 51  1  0  0  0  0
 48 68  1  0  0  0  0
 49 73  1  0  0  0  0
 50 67  1  0  0  0  0
 51 66  1  0  0  0  0
 52 58  1  0  0  0  0
 53 62  1  0  0  0  0
 54 64  1  0  0  0  0
 55 64  1  0  0  0  0
 56 64  1  0  0  0  0
 57 75  1  0  0  0  0
 59 83  1  0  0  0  0
 60 63  1  0  0  0  0
 60 72  1  0  0  0  0
 61 64  1  0  0  0  0
 61 74  1  0  0  0  0
 62 75  1  0  0  0  0
 63 88  1  0  0  0  0
 63 89  1  0  0  0  0
 65 66  1  0  0  0  0
M  CHG  1  75   1
M  ISO  4  39 100  59 101  71 100  83 101
M  END
> <Batch ID>
0171

> <Smiles>
CCc1c(F)c([100NH:0][100C:0](=O)N2CCCC(n3nc(-c4ccc(Oc5ccc(F)cc5F)cc4)c(C(N)=O)c3N)C2)cc(F)c1NCC(F)(F)C(=O)[101CH2:1][101O:1]c1ccc2c(c1)CN(C(=O)C(NC(=O)C(C)NC)C(C)(C)C)C(C(=O)NC1CCCc3ccccc31)C2

> <Shape>
0.273

> <Color>
0.098

> <Negative vol penalty>
0.000

$$$$

  -OEChem-04052304233D

 87 95  0     1  0  0  0  0  0999 V2000
  -21.0673  -21.6000   11.4721 C   0  0  0  0  0  0  0  0  0  0  0  0
  -21.9892  -21.4092   12.4963 C   0  0  0  0  0  0  0  0  0  0  0  0
  -23.0738   -9.8664   19.9443 C   0  0  0  0  0  0  0  0  0  0  0  0
  -23.8316   -9.8799   22.2384 C   0  0  0  0  0  0  0  0  0  0  0  0
  -19.7086  -21.7002   11.7684 C   0  0  0  0  0  0  0  0  0  0  0  0
  -21.5530  -21.3195   13.8177 C   0  0  0  0  0  0  0  0  0  0  0  0
  -23.9484  -17.8477   18.2578 C   0  0  0  0  0  0  0  0  0  0  0  0
  -22.3296   -8.7141   20.1969 C   0  0  0  0  0  0  0  0  0  0  0  0
  -23.0873   -8.7275   22.4910 C   0  0  0  0  0  0  0  0  0  0  0  0
  -24.8358  -18.1318   19.2950 C   0  0  0  0  0  0  0  0  0  0  0  0
  -19.9441   -5.9743   20.3309 C   0  0  0  0  0  0  0  0  0  0  0  0
  -18.6389   -5.9250   19.8415 C   0  0  0  0  0  0  0  0  0  0  0  0
  -22.9727  -18.4453   20.7950 C   0  0  0  0  0  0  0  0  0  0  0  0
  -29.7498  -17.7178   22.7084 C   0  0  0  0  0  0  0  0  0  0  0  0
  -18.0727   -7.8717   21.1556 C   0  0  0  0  0  0  0  0  0  0  0  0
  -23.8249  -10.4493   20.9650 C   0  0  0  0  0  0  0  0  0  0  0  0
  -24.1670  -12.9741   20.8381 C   0  0  0  0  0  0  0  0  0  0  0  0
  -19.2546  -21.6020   13.0932 C   0  0  0  0  0  0  0  0  0  0  0  0
  -22.5639  -17.8710   18.4792 C   0  0  0  0  0  0  0  0  0  0  0  0
  -20.1871  -21.4198   14.1322 C   0  0  0  0  0  0  0  0  0  0  0  0
  -22.0700  -18.1586   19.7596 C   0  0  0  0  0  0  0  0  0  0  0  0
  -30.2247  -18.9533   23.1341 C   0  0  0  0  0  0  0  0  0  0  0  0
  -22.3364   -8.1446   21.4702 C   0  0  0  0  0  0  0  0  0  0  0  0
  -24.3479  -18.4335   20.5631 C   0  0  0  0  0  0  0  0  0  0  0  0
  -20.3136   -6.9722   21.2327 C   0  0  0  0  0  0  0  0  0  0  0  0
  -17.7032   -6.8737   20.2539 C   0  0  0  0  0  0  0  0  0  0  0  0
  -19.3779   -7.9209   21.6451 C   0  0  0  0  0  0  0  0  0  0  0  0
  -31.4878  -19.3800   22.7391 C   0  0  0  0  0  0  0  0  0  0  0  0
  -24.5943  -11.6394   20.7046 C   0  0  0  0  0  0  0  0  0  0  0  0
  -30.5702  -16.9527   21.8952 C   0  0  0  0  0  0  0  0  0  0  0  0
  -32.2305  -18.5404   21.9247 C   0  0  0  0  0  0  0  0  0  0  0  0
  -25.2596  -13.7224   20.4737 C   0  0  0  0  0  0  0  0  0  0  0  0
  -22.8962  -13.4912   21.2543 C   0  0  0  0  0  0  0  0  0  0  0  0
  -20.1374  -19.5745   17.3330 C   0  0  0  0  0  0  0  0  0  0  0  0
  -26.9444  -20.2252   22.3348 C   0  0  0  0  0  0  0  0  0  0  0  0
  -18.3625  -17.5022   19.0874 C   0  0  0  0  0  0  0  0  0  0  0  0
  -18.4562  -15.1668   21.1963 C   0  0  0  0  0  0  0  0  0  0  0  0
  -30.7257  -14.7680   20.6505 C   0  0  0  0  0  0  0  0  0  0  0  0
  -17.7807  -21.7637   13.3693 C   0  0  0  0  0  0  0  0  0  0  0  0
  -21.6207  -17.5361   17.3564 C   0  0  0  0  0  0  0  0  0  0  0  0
  -20.5931  -18.1768   20.0543 C   0  0  0  0  0  0  0  0  0  0  0  0
  -17.3648  -21.2833   14.7572 C   0  0  0  0  0  0  0  0  0  0  0  0
  -29.6133  -12.3475   18.2881 C   0  0  0  0  0  0  0  0  0  0  0  0
  -18.3276  -21.8117   15.8158 C   0  0  0  0  0  0  0  0  0  0  0  0
  -28.1732  -12.0573   18.7172 C   0  0  0  0  0  0  0  0  0  0  0  0
  -30.5273  -12.5797   19.4900 C   0  0  0  0  0  0  0  0  0  0  0  0
  -28.6191  -13.3083   20.8674 C   0  0  0  0  0  0  0  0  0  0  0  0
  -19.7505  -21.2928   15.5756 C   0  0  1  0  0  0  0  0  0  0  0  0
  -20.2164  -18.0928   17.5696 C   0  0  1  0  0  0  0  0  0  0  0  0
  -27.6474  -13.1318   19.6891 C   0  0  2  0  0  0  0  0  0  0  0  0
  -30.0414  -20.1505   25.3536 C   0  0  0  0  0  0  0  0  0  0  0  0
  -28.0599  -22.3244   21.4714 C   0  0  0  0  0  0  0  0  0  0  0  0
  -18.1097  -13.3058   22.8437 C   0  0  0  0  0  0  0  0  0  0  0  0
  -17.0597  -19.9272   20.4035 C   0  0  0  0  0  0  0  0  0  0  0  0
  -16.2164  -18.4085   22.2063 C   0  0  0  0  0  0  0  0  0  0  0  0
  -15.4815  -18.0689   19.8468 C   0  0  0  0  0  0  0  0  0  0  0  0
  -18.2346  -13.1471   19.0443 C   0  0  0  0  0  0  0  0  0  0  0  0
  -26.4556  -19.3154   21.2233 C   0  0  0  0  0  0  0  0  0  1  0  0
  -29.3684  -19.8262   24.0222 C   0  0  1  0  0  0  0  0  0  0  0  0
  -28.2583  -20.9477   22.0861 C   0  0  1  0  0  0  0  0  0  0  0  0
  -17.8478  -17.4707   20.5062 C   0  0  1  0  0  0  0  0  0  0  0  0
  -17.8518  -13.7934   21.4265 C   0  0  2  0  0  0  0  0  0  0  0  0
  -16.6792  -18.4705   20.7350 C   0  0  0  0  0  0  0  0  0  0  0  0
  -25.8595  -11.5422   20.2878 N   0  0  0  0  0  0  0  0  0  0  0  0
  -31.8027  -17.3336   21.4909 N   0  0  0  0  0  0  0  0  0  0  0  0
  -26.2367  -12.8254   20.1561 N   0  0  0  0  0  0  0  0  0  0  0  0
  -19.7110  -17.8488   18.9221 N   0  0  0  0  0  0  0  0  0  0  0  0
  -29.9676  -13.6131   20.3639 N   0  0  0  0  0  0  0  0  0  0  0  0
  -33.5155  -18.9866   21.5281 N   0  0  0  0  0  0  0  0  0  0  0  0
  -25.4702  -15.0537   20.3970 N   0  0  0  0  0  0  0  0  0  0  0  0
  -21.8839  -12.5831   21.5933 N   0  0  0  0  0  0  0  0  0  0  0  0
  -30.0777  -15.6955   21.4656 N   0  0  0  0  0  0  0  0  0  0  0  0
  -19.8705  -19.9215   16.0224 N   0  0  0  0  0  0  0  0  0  0  0  0
  -17.5078  -16.0799   20.7863 N   0  0  0  0  0  0  0  0  0  0  0  0
  -18.4352  -12.8048   20.4760 N   0  3  0  0  0  0  0  0  0  0  0  0
  -28.9887  -21.1082   23.3724 N   0  3  0  0  0  0  0  0  0  0  0  0
  -22.6600  -14.7220   21.3079 O   0  0  0  0  0  0  0  0  0  0  0  0
  -20.3045  -20.3458   18.2705 O   0  0  0  0  0  0  0  0  0  0  0  0
  -26.3162  -20.3548   23.3854 O   0  0  0  0  0  0  0  0  0  0  0  0
  -17.5982  -17.2224   18.1605 O   0  0  0  0  0  0  0  0  0  0  0  0
  -19.6495  -15.4066   21.3669 O   0  0  0  0  0  0  0  0  0  0  0  0
  -31.8553  -14.9353   20.1834 O   0  0  0  0  0  0  0  0  0  0  0  0
  -21.6101   -7.0203   21.7171 O   0  0  0  0  0  0  0  0  0  0  0  0
  -25.2118  -18.7118   21.5770 O   0  0  0  0  0  0  0  0  0  1  0  0
  -16.4502   -6.8271   19.7826 F   0  0  0  0  0  0  0  0  0  0  0  0
  -19.7273   -8.8827   22.5103 F   0  0  0  0  0  0  0  0  0  0  0  0
  -31.9657  -20.5671   23.1367 F   0  0  0  0  0  0  0  0  0  0  0  0
  1  2  1  0  0  0  0
  1  5  2  0  0  0  0
  2  6  2  0  0  0  0
  3  8  2  0  0  0  0
  3 16  1  0  0  0  0
  4  9  1  0  0  0  0
  4 16  2  0  0  0  0
  5 18  1  0  0  0  0
  6 20  1  0  0  0  0
  7 10  2  0  0  0  0
  7 19  1  0  0  0  0
  8 23  1  0  0  0  0
  9 23  2  0  0  0  0
 10 24  1  0  0  0  0
 11 12  2  0  0  0  0
 11 25  1  0  0  0  0
 12 26  1  0  0  0  0
 13 21  1  0  0  0  0
 13 24  2  0  0  0  0
 14 22  1  0  0  0  0
 14 30  2  0  0  0  0
 15 26  2  0  0  0  0
 15 27  1  0  0  0  0
 16 29  1  0  0  0  0
 17 29  1  0  0  0  0
 17 32  2  0  0  0  0
 17 33  1  0  0  0  0
 18 20  2  0  0  0  0
 18 39  1  0  0  0  0
 19 21  2  0  0  0  0
 19 40  1  0  0  0  0
 20 48  1  0  0  0  0
 21 41  1  0  0  0  0
 22 28  2  0  0  0  0
 22 59  1  0  0  0  0
 23 83  1  0  0  0  0
 24 84  1  0  0  0  0
 25 27  2  0  0  0  0
 25 83  1  0  0  0  0
 26 85  1  0  0  0  0
 27 86  1  0  0  0  0
 28 31  1  0  0  0  0
 28 87  1  0  0  0  0
 29 64  2  0  0  0  0
 30 65  1  0  0  0  0
 30 72  1  0  0  0  0
 31 65  2  0  0  0  0
 31 69  1  0  0  0  0
 32 66  1  0  0  0  0
 32 70  1  0  0  0  0
 33 71  1  0  0  0  0
 33 77  2  0  0  0  0
 34 49  1  0  0  0  0
 34 73  1  0  0  0  0
 34 78  2  0  0  0  0
 35 58  1  0  0  0  0
 35 60  1  0  0  0  0
 35 79  2  0  0  0  0
 36 61  1  0  0  0  0
 36 67  1  0  0  0  0
 36 80  2  0  0  0  0
 37 62  1  0  0  0  0
 37 74  1  0  0  0  0
 37 81  2  0  0  0  0
 38 68  1  0  0  0  0
 38 72  1  0  0  0  0
 38 82  2  0  0  0  0
 39 42  1  0  0  0  0
 40 49  1  0  0  0  0
 41 67  1  0  0  0  0
 42 44  1  0  0  0  0
 43 45  1  0  0  0  0
 43 46  1  0  0  0  0
 44 48  1  0  0  0  0
 45 50  1  0  0  0  0
 46 68  1  0  0  0  0
 47 50  1  0  0  0  0
 47 68  1  0  0  0  0
 48 73  1  0  0  0  0
 49 67  1  0  0  0  0
 50 66  1  0  0  0  0
 51 59  1  0  0  0  0
 52 60  1  0  0  0  0
 53 62  1  0  0  0  0
 54 63  1  0  0  0  0
 55 63  1  0  0  0  0
 56 63  1  0  0  0  0
 57 75  1  0  0  0  0
 58 84  1  0  0  0  0
 59 76  1  0  0  0  0
 60 76  1  0  0  0  0
 61 63  1  0  0  0  0
 61 74  1  0  0  0  0
 62 75  1  0  0  0  0
 64 66  1  0  0  0  0
M  CHG  2  75   1  76   1
M  ISO  4  38 100  58 101  72 100  84 101
M  END
> <Batch ID>
0171

> <Smiles>
CNC(C)C(=O)NC(C(=O)N1Cc2cc([101O:1][101CH2:1]C(=O)C(C)NC(C)c3cc([100NH:0][100C:0](=O)N4CCCC(n5nc(-c6ccc(Oc7ccc(F)cc7F)cc6)c(C(N)=O)c5N)C4)nc(N)c3F)ccc2CC1C(=O)NC1CCCc2ccccc21)C(C)(C)C

> <Shape>
0.159

> <Color>
0.177

> <Negative vol penalty>
0.000

$$$$

  -OEChem-04052304233D

 88 96  0     1  0  0  0  0  0999 V2000
  -17.4122  -26.1154   20.9332 C   0  0  0  0  0  0  0  0  0  0  0  0
  -18.7514  -25.8743   20.6439 C   0  0  0  0  0  0  0  0  0  0  0  0
  -26.5314  -15.2030   19.4044 C   0  0  0  0  0  0  0  0  0  0  0  0
  -28.5169  -14.5168   20.5978 C   0  0  0  0  0  0  0  0  0  0  0  0
  -16.9778  -27.4162   21.1849 C   0  0  0  0  0  0  0  0  0  0  0  0
  -19.6569  -26.9340   20.6050 C   0  0  0  0  0  0  0  0  0  0  0  0
  -23.9859  -25.8795   23.0118 C   0  0  0  0  0  0  0  0  0  0  0  0
  -25.9421  -13.9680   19.6745 C   0  0  0  0  0  0  0  0  0  0  0  0
  -27.9275  -13.2817   20.8680 C   0  0  0  0  0  0  0  0  0  0  0  0
  -24.9078  -25.0766   22.3415 C   0  0  0  0  0  0  0  0  0  0  0  0
  -24.4006  -12.4600   22.2789 C   0  0  0  0  0  0  0  0  0  0  0  0
  -23.0759  -12.4555   22.7153 C   0  0  0  0  0  0  0  0  0  0  0  0
  -26.1614  -27.0427   21.7233 C   0  0  0  0  0  0  0  0  0  0  0  0
  -26.5263  -19.6795   16.8881 C   0  0  0  0  0  0  0  0  0  0  0  0
  -27.2312  -18.3789   14.9780 C   0  0  0  0  0  0  0  0  0  0  0  0
  -22.4487  -11.1258   20.7981 C   0  0  0  0  0  0  0  0  0  0  0  0
  -27.8188  -15.4774   19.8659 C   0  0  0  0  0  0  0  0  0  0  0  0
  -28.3590  -17.9185   20.3729 C   0  0  0  0  0  0  0  0  0  0  0  0
  -17.8802  -28.4911   21.1586 C   0  0  0  0  0  0  0  0  0  0  0  0
  -24.1392  -27.2732   23.0337 C   0  0  0  0  0  0  0  0  0  0  0  0
  -19.2339  -28.2505   20.8553 C   0  0  0  0  0  0  0  0  0  0  0  0
  -25.2415  -27.8608   22.3968 C   0  0  0  0  0  0  0  0  0  0  0  0
  -28.3682  -20.4400   15.5222 C   0  0  0  0  0  0  0  0  0  0  0  0
  -27.5193  -20.6200   16.6143 C   0  0  0  0  0  0  0  0  0  0  0  0
  -28.2242  -19.3194   14.7041 C   0  0  0  0  0  0  0  0  0  0  0  0
  -26.6401  -13.0074   20.4064 C   0  0  0  0  0  0  0  0  0  0  0  0
  -25.9942  -25.6584   21.6947 C   0  0  0  0  0  0  0  0  0  0  0  0
  -24.7495  -11.7975   21.1020 C   0  0  0  0  0  0  0  0  0  0  0  0
  -22.0999  -11.7884   21.9750 C   0  0  0  0  0  0  0  0  0  0  0  0
  -26.3822  -18.5590   16.0700 C   0  0  0  0  0  0  0  0  0  0  0  0
  -23.7735  -11.1304   20.3616 C   0  0  0  0  0  0  0  0  0  0  0  0
  -28.4284  -16.7528   19.5867 C   0  0  0  0  0  0  0  0  0  0  0  0
  -29.0976  -18.8453   19.6787 C   0  0  0  0  0  0  0  0  0  0  0  0
  -27.6870  -18.1434   21.6193 C   0  0  0  0  0  0  0  0  0  0  0  0
  -22.4225  -29.7353   21.9874 C   0  0  0  0  0  0  0  0  0  0  0  0
  -27.2204  -23.2671   19.2573 C   0  0  0  0  0  0  0  0  0  0  0  0
  -24.6849  -31.4694   23.5355 C   0  0  0  0  0  0  0  0  0  0  0  0
  -27.8646  -31.6450   24.7626 C   0  0  0  0  0  0  0  0  0  0  0  0
  -30.4903  -18.9917   13.7281 C   0  0  0  0  0  0  0  0  0  0  0  0
  -17.3550  -29.8857   21.3907 C   0  0  0  0  0  0  0  0  0  0  0  0
  -23.1505  -28.1232   23.7838 C   0  0  0  0  0  0  0  0  0  0  0  0
  -25.4625  -29.3506   22.4078 C   0  0  0  0  0  0  0  0  0  0  0  0
  -18.4488  -30.9050   21.6990 C   0  0  0  0  0  0  0  0  0  0  0  0
  -32.7585  -19.2100   16.6295 C   0  0  0  0  0  0  0  0  0  0  0  0
  -19.6074  -30.7580   20.7178 C   0  0  0  0  0  0  0  0  0  0  0  0
  -31.9120  -18.6413   17.7670 C   0  0  0  0  0  0  0  0  0  0  0  0
  -32.3796  -18.6021   15.2823 C   0  0  0  0  0  0  0  0  0  0  0  0
  -30.0828  -18.1562   16.0924 C   0  0  0  0  0  0  0  0  0  0  0  0
  -20.2512  -29.3706   20.8283 C   0  0  1  0  0  0  0  0  0  0  0  0
  -23.1243  -29.5717   23.3059 C   0  0  1  0  0  0  0  0  0  0  0  0
  -30.4115  -18.7807   17.4569 C   0  0  1  0  0  0  0  0  0  0  0  0
  -29.4331  -21.4510   15.2279 C   0  0  0  0  0  0  0  0  0  0  0  0
  -29.4374  -33.2044   25.9423 C   0  0  0  0  0  0  0  0  0  0  0  0
  -27.8107  -19.6624    9.9824 C   0  0  0  0  0  0  0  0  0  0  0  0
  -25.1071  -33.0075   20.9343 C   0  0  0  0  0  0  0  0  0  0  0  0
  -27.2708  -33.8537   21.8673 C   0  0  0  0  0  0  0  0  0  0  0  0
  -25.1205  -34.4221   22.9967 C   0  0  0  0  0  0  0  0  0  0  0  0
  -28.1255  -29.8177   27.0760 C   0  0  0  0  0  0  0  0  0  0  0  0
  -26.8054  -21.9768   18.5828 C   0  0  0  0  0  0  0  0  0  0  0  0
  -26.4107  -23.6576   20.4785 C   0  0  0  0  0  0  0  0  0  1  0  0
  -28.4865  -18.7813   12.2755 C   0  0  0  0  0  0  0  0  0  0  0  0
  -26.0198  -32.0647   23.1578 C   0  0  1  0  0  0  0  0  0  0  0  0
  -28.4017  -32.1030   26.1065 C   0  0  2  0  0  0  0  0  0  0  0  0
  -28.4052  -19.9814   11.3429 C   0  0  2  0  0  0  0  0  0  0  0  0
  -25.8746  -33.3091   22.2370 C   0  0  0  0  0  0  0  0  0  0  0  0
  -29.1537  -16.9212   18.4778 N   0  0  0  0  0  0  0  0  0  0  0  0
  -29.5467  -18.2035   18.5622 N   0  0  0  0  0  0  0  0  0  0  0  0
  -24.4649  -30.1397   23.1493 N   0  0  0  0  0  0  0  0  0  0  0  0
  -30.9415  -18.7071   15.0326 N   0  0  0  0  0  0  0  0  0  0  0  0
  -29.4001  -20.1386   19.9204 N   0  0  0  0  0  0  0  0  0  0  0  0
  -26.9737  -17.0830   22.1946 N   0  0  0  0  0  0  0  0  0  0  0  0
  -27.6463  -21.7279   17.4399 N   0  0  0  0  0  0  0  0  0  0  0  0
  -21.1100  -29.3031   21.9913 N   0  0  0  0  0  0  0  0  0  0  0  0
  -26.7190  -32.3272   24.4111 N   0  0  0  0  0  0  0  0  0  0  0  0
  -29.0926  -19.1113   13.5695 N   0  0  0  0  0  0  0  0  0  0  0  0
  -29.0377  -30.9633   26.8258 N   0  3  0  0  0  0  0  0  0  0  0  0
  -27.7045  -19.2566   22.1972 O   0  0  0  0  0  0  0  0  0  0  0  0
  -23.0265  -30.2193   21.0373 O   0  0  0  0  0  0  0  0  0  0  0  0
  -28.1511  -23.9612   18.8502 O   0  0  0  0  0  0  0  0  0  0  0  0
  -23.8703  -32.1566   24.1566 O   0  0  0  0  0  0  0  0  0  0  0  0
  -28.4090  -30.7723   24.0900 O   0  0  0  0  0  0  0  0  0  0  0  0
  -31.2761  -19.1554   12.7872 O   0  0  0  0  0  0  0  0  0  0  0  0
  -26.0653  -11.8022   20.6704 O   0  0  0  0  0  0  0  0  0  0  0  0
  -26.8952  -24.8772   21.0392 O   0  0  0  0  0  0  0  0  0  1  0  0
  -20.8280  -11.7829   22.3951 F   0  0  0  0  0  0  0  0  0  0  0  0
  -25.4289  -17.6557   16.3336 F   0  0  0  0  0  0  0  0  0  0  0  0
  -24.1028  -10.4911   19.2308 F   0  0  0  0  0  0  0  0  0  0  0  0
  -27.6396  -20.9418   11.9320 F   0  0  0  0  0  0  0  0  0  0  0  0
  1  2  1  0  0  0  0
  1  5  2  0  0  0  0
  2  6  2  0  0  0  0
  3  8  2  0  0  0  0
  3 17  1  0  0  0  0
  4  9  1  0  0  0  0
  4 17  2  0  0  0  0
  5 19  1  0  0  0  0
  6 21  1  0  0  0  0
  7 10  2  0  0  0  0
  7 20  1  0  0  0  0
  8 26  1  0  0  0  0
  9 26  2  0  0  0  0
 10 27  1  0  0  0  0
 11 12  2  0  0  0  0
 11 28  1  0  0  0  0
 12 29  1  0  0  0  0
 13 22  1  0  0  0  0
 13 27  2  0  0  0  0
 14 24  1  0  0  0  0
 14 30  2  0  0  0  0
 15 25  2  0  0  0  0
 15 30  1  0  0  0  0
 16 29  2  0  0  0  0
 16 31  1  0  0  0  0
 17 32  1  0  0  0  0
 18 32  1  0  0  0  0
 18 33  2  0  0  0  0
 18 34  1  0  0  0  0
 19 21  2  0  0  0  0
 19 40  1  0  0  0  0
 20 22  2  0  0  0  0
 20 41  1  0  0  0  0
 21 49  1  0  0  0  0
 22 42  1  0  0  0  0
 23 24  2  0  0  0  0
 23 25  1  0  0  0  0
 23 52  1  0  0  0  0
 24 72  1  0  0  0  0
 25 75  1  0  0  0  0
 26 83  1  0  0  0  0
 27 84  1  0  0  0  0
 28 31  2  0  0  0  0
 28 83  1  0  0  0  0
 29 85  1  0  0  0  0
 30 86  1  0  0  0  0
 31 87  1  0  0  0  0
 32 66  2  0  0  0  0
 33 67  1  0  0  0  0
 33 70  1  0  0  0  0
 34 71  1  0  0  0  0
 34 77  2  0  0  0  0
 35 50  1  0  0  0  0
 35 73  1  0  0  0  0
 35 78  2  0  0  0  0
 36 59  1  0  0  0  0
 36 60  1  0  0  0  0
 36 79  2  0  0  0  0
 37 62  1  0  0  0  0
 37 68  1  0  0  0  0
 37 80  2  0  0  0  0
 38 63  1  0  0  0  0
 38 74  1  0  0  0  0
 38 81  2  0  0  0  0
 39 69  1  0  0  0  0
 39 75  1  0  0  0  0
 39 82  2  0  0  0  0
 40 43  1  0  0  0  0
 41 50  1  0  0  0  0
 42 68  1  0  0  0  0
 43 45  1  0  0  0  0
 44 46  1  0  0  0  0
 44 47  1  0  0  0  0
 45 49  1  0  0  0  0
 46 51  1  0  0  0  0
 47 69  1  0  0  0  0
 48 51  1  0  0  0  0
 48 69  1  0  0  0  0
 49 73  1  0  0  0  0
 50 68  1  0  0  0  0
 51 67  1  0  0  0  0
 53 63  1  0  0  0  0
 54 64  1  0  0  0  0
 55 65  1  0  0  0  0
 56 65  1  0  0  0  0
 57 65  1  0  0  0  0
 58 76  1  0  0  0  0
 59 72  1  0  0  0  0
 60 84  1  0  0  0  0
 61 64  1  0  0  0  0
 61 75  1  0  0  0  0
 62 65  1  0  0  0  0
 62 74  1  0  0  0  0
 63 76  1  0  0  0  0
 64 88  1  0  0  0  0
 66 67  1  0  0  0  0
M  CHG  1  76   1
M  ISO  4  39 100  60 101  75 100  84 101
M  END
> <Batch ID>
0171

> <Smiles>
CNC(C)C(=O)NC(C(=O)N1Cc2cc([101O:1][101CH2:1]C(=O)CNc3cc(F)cc([100N:0](CC(C)F)[100C:0](=O)N4CCCC(n5nc(-c6ccc(Oc7ccc(F)cc7F)cc6)c(C(N)=O)c5N)C4)c3C)ccc2CC1C(=O)NC1CCCc2ccccc21)C(C)(C)C

> <Shape>
0.221

> <Color>
0.072

> <Negative vol penalty>
0.000

$$$$

  -OEChem-04052304233D

 87 95  0     1  0  0  0  0  0999 V2000
  -23.7419  -20.0013   22.9952 C   0  0  0  0  0  0  0  0  0  0  0  0
  -24.5951  -20.8827   22.3391 C   0  0  0  0  0  0  0  0  0  0  0  0
  -24.7924  -11.8051   20.5604 C   0  0  0  0  0  0  0  0  0  0  0  0
  -25.2668  -12.6572   22.7708 C   0  0  0  0  0  0  0  0  0  0  0  0
  -29.2263  -20.9770   24.7584 C   0  0  0  0  0  0  0  0  0  0  0  0
  -22.4050  -20.3442   23.1931 C   0  0  0  0  0  0  0  0  0  0  0  0
  -24.1116  -22.1072   21.8794 C   0  0  0  0  0  0  0  0  0  0  0  0
  -27.2340  -25.9505   22.9402 C   0  0  0  0  0  0  0  0  0  0  0  0
  -25.0443  -10.5078   21.0064 C   0  0  0  0  0  0  0  0  0  0  0  0
  -25.5187  -11.3598   23.2169 C   0  0  0  0  0  0  0  0  0  0  0  0
  -28.3591  -26.0989   22.1304 C   0  0  0  0  0  0  0  0  0  0  0  0
  -23.4213   -8.1192   22.7652 C   0  0  0  0  0  0  0  0  0  0  0  0
  -22.5240   -7.1192   22.3904 C   0  0  0  0  0  0  0  0  0  0  0  0
  -28.7451  -20.0667   23.8240 C   0  0  0  0  0  0  0  0  0  0  0  0
  -27.2337  -27.8393   20.8961 C   0  0  0  0  0  0  0  0  0  0  0  0
  -24.3110   -5.9326   21.2787 C   0  0  0  0  0  0  0  0  0  0  0  0
  -24.9037  -12.8799   21.4426 C   0  0  0  0  0  0  0  0  0  0  0  0
  -29.9564  -22.0811   24.3329 C   0  0  0  0  0  0  0  0  0  0  0  0
  -23.4095  -14.8966   20.9869 C   0  0  0  0  0  0  0  0  0  0  0  0
  -21.9072  -21.5777   22.7442 C   0  0  0  0  0  0  0  0  0  0  0  0
  -26.0943  -26.7392   22.7268 C   0  0  0  0  0  0  0  0  0  0  0  0
  -22.7665  -22.4664   22.0703 C   0  0  0  0  0  0  0  0  0  0  0  0
  -26.0964  -27.7008   21.7063 C   0  0  0  0  0  0  0  0  0  0  0  0
  -25.4074  -10.2851   22.3346 C   0  0  0  0  0  0  0  0  0  0  0  0
  -28.3581  -27.0414   21.1063 C   0  0  0  0  0  0  0  0  0  0  0  0
  -24.7634   -8.0260   22.3967 C   0  0  0  0  0  0  0  0  0  0  0  0
  -22.9689   -6.0259   21.6472 C   0  0  0  0  0  0  0  0  0  0  0  0
  -25.2082   -6.9326   21.6535 C   0  0  0  0  0  0  0  0  0  0  0  0
  -24.6442  -14.2204   20.9823 C   0  0  0  0  0  0  0  0  0  0  0  0
  -29.0192  -20.3039   22.4867 C   0  0  0  0  0  0  0  0  0  0  0  0
  -30.1765  -22.2281   22.9729 C   0  0  0  0  0  0  0  0  0  0  0  0
  -23.6915  -16.1298   20.4519 C   0  0  0  0  0  0  0  0  0  0  0  0
  -30.4565  -23.0288   25.3192 C   0  0  0  0  0  0  0  0  0  0  0  0
  -22.1227  -14.4501   21.4347 C   0  0  0  0  0  0  0  0  0  0  0  0
  -23.0705  -26.1468   21.9463 C   0  0  0  0  0  0  0  0  0  0  0  0
  -31.3360  -25.9280   21.1631 C   0  0  0  0  0  0  0  0  0  0  0  0
  -22.7205  -29.3292   22.4681 C   0  0  0  0  0  0  0  0  0  0  0  0
  -24.1652  -32.4177   22.6114 C   0  0  0  0  0  0  0  0  0  0  0  0
  -28.6786  -19.4081   20.1569 C   0  0  0  0  0  0  0  0  0  0  0  0
  -20.4435  -21.8841   22.9393 C   0  0  0  0  0  0  0  0  0  0  0  0
  -24.8986  -26.5854   23.6261 C   0  0  0  0  0  0  0  0  0  0  0  0
  -24.9056  -28.5863   21.4487 C   0  0  0  0  0  0  0  0  0  0  0  0
  -20.1000  -23.3598   22.7532 C   0  0  0  0  0  0  0  0  0  0  0  0
  -26.6956  -18.2969   17.4165 C   0  0  0  0  0  0  0  0  0  0  0  0
  -20.7573  -23.9057   21.4895 C   0  0  0  0  0  0  0  0  0  0  0  0
  -25.8278  -17.1911   18.0218 C   0  0  0  0  0  0  0  0  0  0  0  0
  -28.1040  -18.3003   18.0080 C   0  0  0  0  0  0  0  0  0  0  0  0
  -27.2936  -17.2421   20.0799 C   0  0  0  0  0  0  0  0  0  0  0  0
  -22.2855  -23.8145   21.5790 C   0  0  1  0  0  0  0  0  0  0  0  0
  -23.6048  -27.0855   22.9908 C   0  0  1  0  0  0  0  0  0  0  0  0
  -25.8459  -17.2401   19.5622 C   0  0  2  0  0  0  0  0  0  0  0  0
  -29.6591  -23.2019   26.5782 C   0  0  0  0  0  0  0  0  0  0  0  0
  -23.6173  -34.8315   23.0242 C   0  0  0  0  0  0  0  0  0  0  0  0
  -21.4885  -29.5232   19.6834 C   0  0  0  0  0  0  0  0  0  0  0  0
  -21.8417  -32.0001   19.7758 C   0  0  0  0  0  0  0  0  0  0  0  0
  -20.3384  -30.8938   21.4308 C   0  0  0  0  0  0  0  0  0  0  0  0
  -25.9721  -32.5478   24.9517 C   0  0  0  0  0  0  0  0  0  0  0  0
  -30.2607  -26.0299   20.1000 C   0  0  0  0  0  0  0  0  0  1  0  0
  -31.5568  -23.3983   21.2550 C   0  0  0  0  0  0  0  0  0  0  0  0
  -32.2686  -24.7327   21.0919 C   0  0  2  0  0  0  0  0  0  0  0  0
  -22.8390  -30.5713   21.6183 C   0  0  1  0  0  0  0  0  0  0  0  0
  -24.0782  -33.5234   23.6479 C   0  0  2  0  0  0  0  0  0  0  0  0
  -21.6488  -30.7292   20.6304 C   0  0  0  0  0  0  0  0  0  0  0  0
  -25.6366  -14.9623   20.4838 N   0  0  0  0  0  0  0  0  0  0  0  0
  -29.7250  -21.3649   22.0354 N   0  0  0  0  0  0  0  0  0  0  0  0
  -25.0259  -16.1176   20.1701 N   0  0  0  0  0  0  0  0  0  0  0  0
  -23.7582  -28.3936   22.3509 N   0  0  0  0  0  0  0  0  0  0  0  0
  -28.0426  -18.3522   19.4704 N   0  0  0  0  0  0  0  0  0  0  0  0
  -22.9257  -17.2126   20.1996 N   0  0  0  0  0  0  0  0  0  0  0  0
  -22.0098  -13.1546   21.9575 N   0  0  0  0  0  0  0  0  0  0  0  0
  -28.5247  -19.3704   21.5424 N   0  0  0  0  0  0  0  0  0  0  0  0
  -30.9036  -23.3254   22.5414 N   0  0  0  0  0  0  0  0  0  0  0  0
  -22.8068  -24.8741   22.4155 N   0  0  0  0  0  0  0  0  0  0  0  0
  -22.9981  -31.6864   22.5454 N   0  0  0  0  0  0  0  0  0  0  0  0
  -25.4092  -33.7472   24.2796 N   0  3  0  0  0  0  0  0  0  0  0  0
  -31.4811  -23.7009   25.1942 O   0  0  0  0  0  0  0  0  0  0  0  0
  -21.1001  -15.1724   21.3579 O   0  0  0  0  0  0  0  0  0  0  0  0
  -22.9080  -26.5479   20.7998 O   0  0  0  0  0  0  0  0  0  0  0  0
  -31.4714  -26.7844   22.0373 O   0  0  0  0  0  0  0  0  0  0  0  0
  -21.7468  -29.1973   23.2138 O   0  0  0  0  0  0  0  0  0  0  0  0
  -25.1670  -32.2246   21.9260 O   0  0  0  0  0  0  0  0  0  0  0  0
  -29.2901  -20.2964   19.5579 O   0  0  0  0  0  0  0  0  0  0  0  0
  -25.6531   -9.0192   22.7703 O   0  0  0  0  0  0  0  0  0  0  0  0
  -29.4547  -27.1879   20.3140 O   0  0  0  0  0  0  0  0  0  1  0  0
  -22.1074   -5.0649   21.2886 F   0  0  0  0  0  0  0  0  0  0  0  0
  -26.4966   -6.8370   21.2975 F   0  0  0  0  0  0  0  0  0  0  0  0
  -33.2331  -24.8233   22.0533 F   0  0  0  0  0  0  0  0  0  0  0  0
  1  2  1  0  0  0  0
  1  6  2  0  0  0  0
  2  7  2  0  0  0  0
  3  9  2  0  0  0  0
  3 17  1  0  0  0  0
  4 10  1  0  0  0  0
  4 17  2  0  0  0  0
  5 14  2  0  0  0  0
  5 18  1  0  0  0  0
  6 20  1  0  0  0  0
  7 22  1  0  0  0  0
  8 11  2  0  0  0  0
  8 21  1  0  0  0  0
  9 24  1  0  0  0  0
 10 24  2  0  0  0  0
 11 25  1  0  0  0  0
 12 13  2  0  0  0  0
 12 26  1  0  0  0  0
 13 27  1  0  0  0  0
 14 30  1  0  0  0  0
 15 23  1  0  0  0  0
 15 25  2  0  0  0  0
 16 27  2  0  0  0  0
 16 28  1  0  0  0  0
 17 29  1  0  0  0  0
 18 31  2  0  0  0  0
 18 33  1  0  0  0  0
 19 29  1  0  0  0  0
 19 32  2  0  0  0  0
 19 34  1  0  0  0  0
 20 22  2  0  0  0  0
 20 40  1  0  0  0  0
 21 23  2  0  0  0  0
 21 41  1  0  0  0  0
 22 49  1  0  0  0  0
 23 42  1  0  0  0  0
 24 83  1  0  0  0  0
 25 84  1  0  0  0  0
 26 28  2  0  0  0  0
 26 83  1  0  0  0  0
 27 85  1  0  0  0  0
 28 86  1  0  0  0  0
 29 64  2  0  0  0  0
 30 65  2  0  0  0  0
 30 71  1  0  0  0  0
 31 65  1  0  0  0  0
 31 72  1  0  0  0  0
 32 66  1  0  0  0  0
 32 69  1  0  0  0  0
 33 52  1  0  0  0  0
 33 76  2  0  0  0  0
 34 70  1  0  0  0  0
 34 77  2  0  0  0  0
 35 50  1  0  0  0  0
 35 73  1  0  0  0  0
 35 78  2  0  0  0  0
 36 58  1  0  0  0  0
 36 60  1  0  0  0  0
 36 79  2  0  0  0  0
 37 61  1  0  0  0  0
 37 67  1  0  0  0  0
 37 80  2  0  0  0  0
 38 62  1  0  0  0  0
 38 74  1  0  0  0  0
 38 81  2  0  0  0  0
 39 68  1  0  0  0  0
 39 71  1  0  0  0  0
 39 82  2  0  0  0  0
 40 43  1  0  0  0  0
 41 50  1  0  0  0  0
 42 67  1  0  0  0  0
 43 45  1  0  0  0  0
 44 46  1  0  0  0  0
 44 47  1  0  0  0  0
 45 49  1  0  0  0  0
 46 51  1  0  0  0  0
 47 68  1  0  0  0  0
 48 51  1  0  0  0  0
 48 68  1  0  0  0  0
 49 73  1  0  0  0  0
 50 67  1  0  0  0  0
 51 66  1  0  0  0  0
 53 62  1  0  0  0  0
 54 63  1  0  0  0  0
 55 63  1  0  0  0  0
 56 63  1  0  0  0  0
 57 75  1  0  0  0  0
 58 84  1  0  0  0  0
 59 60  1  0  0  0  0
 59 72  1  0  0  0  0
 60 87  1  0  0  0  0
 61 63  1  0  0  0  0
 61 74  1  0  0  0  0
 62 75  1  0  0  0  0
 64 66  1  0  0  0  0
M  CHG  1  75   1
M  ISO  4  39 100  58 101  71 100  84 101
M  END
> <Batch ID>
0171

> <Smiles>
CNC(C)C(=O)NC(C(=O)N1Cc2cc([101O:1][101CH2:1]C(=O)C(F)CNc3nc([100NH:0][100C:0](=O)N4CCCC(n5nc(-c6ccc(Oc7ccc(F)cc7F)cc6)c(C(N)=O)c5N)C4)ccc3C(C)=O)ccc2CC1C(=O)NC1CCCc2ccccc21)C(C)(C)C

> <Shape>
0.208

> <Color>
0.075

> <Negative vol penalty>
0.000

$$$$

  -OEChem-04052304233D

 84 92  0     1  0  0  0  0  0999 V2000
  -16.7440  -28.4811   23.8740 C   0  0  0  0  0  0  0  0  0  0  0  0
  -17.7488  -28.9088   23.0121 C   0  0  0  0  0  0  0  0  0  0  0  0
  -26.4880  -12.9599   21.5612 C   0  0  0  0  0  0  0  0  0  0  0  0
  -26.1815  -13.8149   19.3224 C   0  0  0  0  0  0  0  0  0  0  0  0
  -17.0272  -27.5343   24.8575 C   0  0  0  0  0  0  0  0  0  0  0  0
  -19.0376  -28.3907   23.1339 C   0  0  0  0  0  0  0  0  0  0  0  0
  -24.7580  -26.6662   19.1816 C   0  0  0  0  0  0  0  0  0  0  0  0
  -25.2207  -12.3792   21.5129 C   0  0  0  0  0  0  0  0  0  0  0  0
  -24.9142  -13.2341   19.2741 C   0  0  0  0  0  0  0  0  0  0  0  0
  -26.1317  -26.8954   19.1177 C   0  0  0  0  0  0  0  0  0  0  0  0
  -23.7932   -9.6228   20.1721 C   0  0  0  0  0  0  0  0  0  0  0  0
  -23.6630   -8.3117   20.6300 C   0  0  0  0  0  0  0  0  0  0  0  0
  -30.4236  -22.6757   18.5464 C   0  0  0  0  0  0  0  0  0  0  0  0
  -26.4858  -25.2059   20.8028 C   0  0  0  0  0  0  0  0  0  0  0  0
  -29.4831  -21.0772   16.9981 C   0  0  0  0  0  0  0  0  0  0  0  0
  -22.0815   -9.0519   22.2998 C   0  0  0  0  0  0  0  0  0  0  0  0
  -26.9684  -13.6778   20.4659 C   0  0  0  0  0  0  0  0  0  0  0  0
  -30.5284  -23.6111   17.5170 C   0  0  0  0  0  0  0  0  0  0  0  0
  -29.4965  -13.6930   20.1248 C   0  0  0  0  0  0  0  0  0  0  0  0
  -18.3179  -26.9972   24.9852 C   0  0  0  0  0  0  0  0  0  0  0  0
  -24.2360  -25.7112   20.0660 C   0  0  0  0  0  0  0  0  0  0  0  0
  -19.3387  -27.4368   24.1209 C   0  0  0  0  0  0  0  0  0  0  0  0
  -25.1053  -24.9647   20.8742 C   0  0  0  0  0  0  0  0  0  0  0  0
  -29.9010  -21.4087   18.2870 C   0  0  0  0  0  0  0  0  0  0  0  0
  -30.1105  -23.2796   16.2282 C   0  0  0  0  0  0  0  0  0  0  0  0
  -24.4338  -12.5163   20.3694 C   0  0  0  0  0  0  0  0  0  0  0  0
  -26.9956  -26.1672   19.9305 C   0  0  0  0  0  0  0  0  0  0  0  0
  -23.0676  -10.6485   20.7781 C   0  0  0  0  0  0  0  0  0  0  0  0
  -22.8072   -8.0263   21.6938 C   0  0  0  0  0  0  0  0  0  0  0  0
  -29.5878  -22.0126   15.9687 C   0  0  0  0  0  0  0  0  0  0  0  0
  -22.2117  -10.3630   21.8419 C   0  0  0  0  0  0  0  0  0  0  0  0
  -28.2772  -14.2784   20.5154 C   0  0  0  0  0  0  0  0  0  0  0  0
  -30.4367  -14.6647   20.3662 C   0  0  0  0  0  0  0  0  0  0  0  0
  -29.0717  -25.6547   18.9829 C   0  0  0  0  0  0  0  0  0  1  0  0
  -31.0884  -24.9441   17.8246 C   0  0  0  0  0  0  0  0  0  0  0  0
  -29.7559  -12.3878   19.5912 C   0  0  0  0  0  0  0  0  0  0  0  0
  -30.3955  -25.7897   18.8398 C   0  0  0  0  0  0  0  0  0  0  0  0
  -22.2562  -25.8008   22.5511 C   0  0  0  0  0  0  0  0  0  0  0  0
  -22.5369  -22.5729   22.3944 C   0  0  0  0  0  0  0  0  0  0  0  0
  -24.3750  -19.8687   21.4171 C   0  0  0  0  0  0  0  0  0  0  0  0
  -30.1621  -20.6261   20.6672 C   0  0  0  0  0  0  0  0  0  0  0  0
  -18.5874  -26.0111   26.0941 C   0  0  0  0  0  0  0  0  0  0  0  0
  -22.7540  -25.4571   20.1036 C   0  0  0  0  0  0  0  0  0  0  0  0
  -24.5970  -23.9138   21.8258 C   0  0  0  0  0  0  0  0  0  0  0  0
  -19.8892  -25.2341   25.9153 C   0  0  0  0  0  0  0  0  0  0  0  0
  -31.2991  -18.4155   23.2162 C   0  0  0  0  0  0  0  0  0  0  0  0
  -21.0268  -26.1781   25.5391 C   0  0  0  0  0  0  0  0  0  0  0  0
  -30.7693  -17.0494   22.7742 C   0  0  0  0  0  0  0  0  0  0  0  0
  -30.3126  -19.5371   22.8957 C   0  0  0  0  0  0  0  0  0  0  0  0
  -29.3337  -18.2224   21.0565 C   0  0  0  0  0  0  0  0  0  0  0  0
  -20.7432  -26.8799   24.2055 C   0  0  1  0  0  0  0  0  0  0  0  0
  -22.2896  -24.8227   21.4110 C   0  0  1  0  0  0  0  0  0  0  0  0
  -30.3209  -17.0691   21.2997 C   0  0  2  0  0  0  0  0  0  0  0  0
  -24.3641  -17.3596   21.4606 C   0  0  0  0  0  0  0  0  0  0  0  0
  -23.3192  -22.6231   25.3432 C   0  0  0  0  0  0  0  0  0  0  0  0
  -24.1978  -20.2937   25.0779 C   0  0  0  0  0  0  0  0  0  0  0  0
  -21.7760  -20.7615   24.7048 C   0  0  0  0  0  0  0  0  0  0  0  0
  -24.3797  -19.7018   18.4622 C   0  0  0  0  0  0  0  0  0  0  0  0
  -23.4678  -21.5501   22.9995 C   0  0  1  0  0  0  0  0  0  0  0  0
  -23.9883  -18.6041   20.6715 C   0  0  2  0  0  0  0  0  0  0  0  0
  -23.1999  -21.3282   24.5149 C   0  0  0  0  0  0  0  0  0  0  0  0
  -28.4263  -15.5252   20.9707 N   0  0  0  0  0  0  0  0  0  0  0  0
  -29.7503  -15.7313   20.8676 N   0  0  0  0  0  0  0  0  0  0  0  0
  -23.1395  -23.7065   21.8307 N   0  0  0  0  0  0  0  0  0  0  0  0
  -29.9361  -19.4959   21.4810 N   0  0  0  0  0  0  0  0  0  0  0  0
  -30.2097  -24.2140   15.1732 N   0  0  0  0  0  0  0  0  0  0  0  0
  -31.7755  -14.7022   20.1965 N   0  0  0  0  0  0  0  0  0  0  0  0
  -28.6753  -11.5146   19.4065 N   0  0  0  0  0  0  0  0  0  0  0  0
  -29.7941  -20.4585   19.3327 N   0  0  0  0  0  0  0  0  0  0  0  0
  -21.0007  -25.9843   23.0983 N   0  0  0  0  0  0  0  0  0  0  0  0
  -23.3352  -20.3460   22.1867 N   0  0  0  0  0  0  0  0  0  0  0  0
  -24.6780  -18.5498   19.3515 N   0  3  0  0  0  0  0  0  0  0  0  0
  -32.1134  -25.3040   17.2546 O   0  0  0  0  0  0  0  0  0  0  0  0
  -30.9138  -12.0012   19.3027 O   0  0  0  0  0  0  0  0  0  0  0  0
  -23.2930  -26.3473   22.9089 O   0  0  0  0  0  0  0  0  0  0  0  0
  -21.3203  -22.3701   22.4145 O   0  0  0  0  0  0  0  0  0  0  0  0
  -25.4892  -20.3797   21.3288 O   0  0  0  0  0  0  0  0  0  0  0  0
  -30.6715  -21.6567   21.1149 O   0  0  0  0  0  0  0  0  0  0  0  0
  -31.1335  -26.6992   19.5668 O   0  0  0  0  0  0  0  0  0  0  0  0
  -23.1973  -11.9495   20.3218 O   0  0  0  0  0  0  0  0  0  0  0  0
  -28.3369  -26.3894   19.8706 O   0  0  0  0  0  0  0  0  0  1  0  0
  -22.6812   -6.7669   22.1324 F   0  0  0  0  0  0  0  0  0  0  0  0
  -29.1827  -21.6827   14.7340 F   0  0  0  0  0  0  0  0  0  0  0  0
  -21.5111  -11.3440   22.4272 F   0  0  0  0  0  0  0  0  0  0  0  0
  1  2  1  0  0  0  0
  1  5  2  0  0  0  0
  2  6  2  0  0  0  0
  3  8  2  0  0  0  0
  3 17  1  0  0  0  0
  4  9  1  0  0  0  0
  4 17  2  0  0  0  0
  5 20  1  0  0  0  0
  6 22  1  0  0  0  0
  7 10  2  0  0  0  0
  7 21  1  0  0  0  0
  8 26  1  0  0  0  0
  9 26  2  0  0  0  0
 10 27  1  0  0  0  0
 11 12  2  0  0  0  0
 11 28  1  0  0  0  0
 12 29  1  0  0  0  0
 13 18  1  0  0  0  0
 13 24  2  0  0  0  0
 14 23  1  0  0  0  0
 14 27  2  0  0  0  0
 15 24  1  0  0  0  0
 15 30  2  0  0  0  0
 16 29  2  0  0  0  0
 16 31  1  0  0  0  0
 17 32  1  0  0  0  0
 18 25  2  0  0  0  0
 18 35  1  0  0  0  0
 19 32  1  0  0  0  0
 19 33  2  0  0  0  0
 19 36  1  0  0  0  0
 20 22  2  0  0  0  0
 20 42  1  0  0  0  0
 21 23  2  0  0  0  0
 21 43  1  0  0  0  0
 22 51  1  0  0  0  0
 23 44  1  0  0  0  0
 24 69  1  0  0  0  0
 25 30  1  0  0  0  0
 25 66  1  0  0  0  0
 26 80  1  0  0  0  0
 27 81  1  0  0  0  0
 28 31  2  0  0  0  0
 28 80  1  0  0  0  0
 29 82  1  0  0  0  0
 30 83  1  0  0  0  0
 31 84  1  0  0  0  0
 32 62  2  0  0  0  0
 33 63  1  0  0  0  0
 33 67  1  0  0  0  0
 34 37  2  0  0  0  0
 34 81  1  0  0  0  0
 35 37  1  0  0  0  0
 35 73  2  0  0  0  0
 36 68  1  0  0  0  0
 36 74  2  0  0  0  0
 37 79  1  0  0  0  0
 38 52  1  0  0  0  0
 38 70  1  0  0  0  0
 38 75  2  0  0  0  0
 39 59  1  0  0  0  0
 39 64  1  0  0  0  0
 39 76  2  0  0  0  0
 40 60  1  0  0  0  0
 40 71  1  0  0  0  0
 40 77  2  0  0  0  0
 41 65  1  0  0  0  0
 41 69  1  0  0  0  0
 41 78  2  0  0  0  0
 42 45  1  0  0  0  0
 43 52  1  0  0  0  0
 44 64  1  0  0  0  0
 45 47  1  0  0  0  0
 46 48  1  0  0  0  0
 46 49  1  0  0  0  0
 47 51  1  0  0  0  0
 48 53  1  0  0  0  0
 49 65  1  0  0  0  0
 50 53  1  0  0  0  0
 50 65  1  0  0  0  0
 51 70  1  0  0  0  0
 52 64  1  0  0  0  0
 53 63  1  0  0  0  0
 54 60  1  0  0  0  0
 55 61  1  0  0  0  0
 56 61  1  0  0  0  0
 57 61  1  0  0  0  0
 58 72  1  0  0  0  0
 59 61  1  0  0  0  0
 59 71  1  0  0  0  0
 60 72  1  0  0  0  0
 62 63  1  0  0  0  0
M  CHG  1  72   1
M  ISO  4  34 101  41 100  69 100  81 101
M  END
> <Batch ID>
0171

> <Smiles>
CNC(C)C(=O)NC(C(=O)N1Cc2cc([101O:1][101CH2:1]C(=O)C(=O)c3cc([100NH:0][100C:0](=O)N4CCCC(n5nc(-c6ccc(Oc7ccc(F)cc7F)cc6)c(C(N)=O)c5N)C4)cc(F)c3N)ccc2CC1C(=O)NC1CCCc2ccccc21)C(C)(C)C

> <Shape>
0.244

> <Color>
0.065

> <Negative vol penalty>
0.000

$$$$

  -OEChem-04052304233D

 84 92  0     1  0  0  0  0  0999 V2000
  -23.5494  -32.8217   28.2505 C   0  0  0  0  0  0  0  0  0  0  0  0
  -24.0587  -31.6543   27.6909 C   0  0  0  0  0  0  0  0  0  0  0  0
  -29.9660  -19.5485   24.4480 C   0  0  0  0  0  0  0  0  0  0  0  0
  -23.1547   -9.7205   20.1970 C   0  0  0  0  0  0  0  0  0  0  0  0
  -23.8450  -10.0354   22.4907 C   0  0  0  0  0  0  0  0  0  0  0  0
  -22.6083  -33.5759   27.5510 C   0  0  0  0  0  0  0  0  0  0  0  0
  -23.6262  -31.2397   26.4317 C   0  0  0  0  0  0  0  0  0  0  0  0
  -26.9506  -28.3867   22.1522 C   0  0  0  0  0  0  0  0  0  0  0  0
  -30.5564  -18.5077   23.7312 C   0  0  0  0  0  0  0  0  0  0  0  0
  -29.0404  -20.3865   23.8261 C   0  0  0  0  0  0  0  0  0  0  0  0
  -22.4486   -8.5758   20.5666 C   0  0  0  0  0  0  0  0  0  0  0  0
  -23.1388   -8.8907   22.8604 C   0  0  0  0  0  0  0  0  0  0  0  0
  -27.0653  -27.0442   21.7940 C   0  0  0  0  0  0  0  0  0  0  0  0
  -19.9272   -8.0372   23.4746 C   0  0  0  0  0  0  0  0  0  0  0  0
  -19.1377   -8.1070   24.6224 C   0  0  0  0  0  0  0  0  0  0  0  0
  -25.4358  -27.3774   20.0468 C   0  0  0  0  0  0  0  0  0  0  0  0
  -20.4301   -6.3259   25.6197 C   0  0  0  0  0  0  0  0  0  0  0  0
  -23.8530  -10.4503   21.1590 C   0  0  0  0  0  0  0  0  0  0  0  0
  -24.1009  -12.9546   20.7415 C   0  0  0  0  0  0  0  0  0  0  0  0
  -22.1712  -33.1755   26.2785 C   0  0  0  0  0  0  0  0  0  0  0  0
  -26.0681  -29.2335   21.4663 C   0  0  0  0  0  0  0  0  0  0  0  0
  -22.6773  -31.9885   25.7151 C   0  0  0  0  0  0  0  0  0  0  0  0
  -25.3136  -28.7309   20.3966 C   0  0  0  0  0  0  0  0  0  0  0  0
  -30.2212  -18.3050   22.3924 C   0  0  0  0  0  0  0  0  0  0  0  0
  -28.7052  -20.1837   22.4874 C   0  0  0  0  0  0  0  0  0  0  0  0
  -22.4406   -8.1609   21.8983 C   0  0  0  0  0  0  0  0  0  0  0  0
  -26.3057  -26.5387   20.7430 C   0  0  0  0  0  0  0  0  0  0  0  0
  -20.9681   -7.1117   23.3993 C   0  0  0  0  0  0  0  0  0  0  0  0
  -19.3892   -7.2514   25.6950 C   0  0  0  0  0  0  0  0  0  0  0  0
  -21.2196   -6.2561   24.4718 C   0  0  0  0  0  0  0  0  0  0  0  0
  -29.2956  -19.1430   21.7705 C   0  0  0  0  0  0  0  0  0  0  0  0
  -24.5831  -11.6325   20.7777 C   0  0  0  0  0  0  0  0  0  0  0  0
  -25.1738  -13.6999   20.3172 C   0  0  0  0  0  0  0  0  0  0  0  0
  -28.2651  -22.0745   21.2943 C   0  0  0  0  0  0  0  0  0  0  0  0
  -22.7996  -13.4637   21.0628 C   0  0  0  0  0  0  0  0  0  0  0  0
  -27.3307  -23.0210   20.6135 C   0  0  0  0  0  0  0  0  0  0  0  0
  -23.5026  -30.9279   22.2731 C   0  0  0  0  0  0  0  0  0  0  0  0
  -30.6268  -14.9089   20.6220 C   0  0  0  0  0  0  0  0  0  0  0  0
  -23.7454  -32.0176   19.2275 C   0  0  0  0  0  0  0  0  0  0  0  0
  -24.8596  -31.4964   16.0441 C   0  0  0  0  0  0  0  0  0  0  0  0
  -21.1172  -33.9982   25.5808 C   0  0  0  0  0  0  0  0  0  0  0  0
  -25.9757  -30.6856   21.8476 C   0  0  0  0  0  0  0  0  0  0  0  0
  -24.3666  -29.6032   19.6151 C   0  0  0  0  0  0  0  0  0  0  0  0
  -20.9902  -33.6891   24.0913 C   0  0  0  0  0  0  0  0  0  0  0  0
  -29.6260  -12.2823   18.3996 C   0  0  0  0  0  0  0  0  0  0  0  0
  -20.9547  -32.1818   23.8600 C   0  0  0  0  0  0  0  0  0  0  0  0
  -28.1961  -11.9672   18.8371 C   0  0  0  0  0  0  0  0  0  0  0  0
  -30.5018  -12.6662   19.5881 C   0  0  0  0  0  0  0  0  0  0  0  0
  -28.5307  -13.4841   20.8402 C   0  0  0  0  0  0  0  0  0  0  0  0
  -22.2513  -31.5191   24.3409 C   0  0  1  0  0  0  0  0  0  0  0  0
  -24.6655  -31.3352   21.4132 C   0  0  1  0  0  0  0  0  0  0  0  0
  -27.6046  -13.1212   19.6658 C   0  0  2  0  0  0  0  0  0  0  0  0
  -24.8739  -32.5471   13.7653 C   0  0  0  0  0  0  0  0  0  0  0  0
  -20.8308  -31.2040   18.8367 C   0  0  0  0  0  0  0  0  0  0  0  0
  -21.1857  -31.3799   16.3646 C   0  0  0  0  0  0  0  0  0  0  0  0
  -21.4485  -33.3979   17.8073 C   0  0  0  0  0  0  0  0  0  0  0  0
  -27.8152  -31.6430   16.0030 C   0  0  0  0  0  0  0  0  0  0  0  0
  -30.8544  -17.1913   21.6288 C   0  0  0  0  0  0  0  0  0  0  0  0
  -27.3279  -24.4289   21.1428 C   0  0  0  0  0  0  0  0  0  1  0  0
  -29.9331  -15.9824   21.4223 C   0  0  0  0  0  0  0  0  0  0  0  0
  -23.2028  -31.5792   17.8887 C   0  0  1  0  0  0  0  0  0  0  0  0
  -25.6179  -32.3937   15.0827 C   0  0  2  0  0  0  0  0  0  0  0  0
  -21.6833  -31.8731   17.7401 C   0  0  0  0  0  0  0  0  0  0  0  0
  -25.8626  -11.5399   20.4059 N   0  0  0  0  0  0  0  0  0  0  0  0
  -27.7728  -21.0297   21.8638 N   0  0  0  0  0  0  0  0  0  0  0  0
  -26.1936  -12.8133   20.1320 N   0  0  0  0  0  0  0  0  0  0  0  0
  -24.3068  -31.0145   20.0302 N   0  0  0  0  0  0  0  0  0  0  0  0
  -29.8947  -13.7502   20.3625 N   0  0  0  0  0  0  0  0  0  0  0  0
  -25.3350  -15.0205   20.0882 N   0  0  0  0  0  0  0  0  0  0  0  0
  -21.8138  -12.5603   21.4827 N   0  0  0  0  0  0  0  0  0  0  0  0
  -23.3135  -31.7316   23.3812 N   0  0  0  0  0  0  0  0  0  0  0  0
  -24.0373  -32.2224   16.8795 N   0  0  0  0  0  0  0  0  0  0  0  0
  -26.9659  -31.8256   14.7979 N   0  3  0  0  0  0  0  0  0  0  0  0
  -22.5147  -14.6813   20.9642 O   0  0  0  0  0  0  0  0  0  0  0  0
  -26.6577  -22.6012   19.6855 O   0  0  0  0  0  0  0  0  0  0  0  0
  -22.8260  -29.9573   21.9541 O   0  0  0  0  0  0  0  0  0  0  0  0
  -31.7838  -15.0977   20.2373 O   0  0  0  0  0  0  0  0  0  0  0  0
  -23.6803  -33.2075   19.5462 O   0  0  0  0  0  0  0  0  0  0  0  0
  -24.9816  -30.2734   16.0506 O   0  0  0  0  0  0  0  0  0  0  0  0
  -21.7514   -7.0441   22.2594 O   0  0  0  0  0  0  0  0  0  0  0  0
  -26.4153  -25.2286   20.3918 O   0  0  0  0  0  0  0  0  0  1  0  0
  -18.6320   -7.3196   26.7978 F   0  0  0  0  0  0  0  0  0  0  0  0
  -22.2189   -5.3657   24.4058 F   0  0  0  0  0  0  0  0  0  0  0  0
  -28.9724  -18.9480   20.4833 F   0  0  0  0  0  0  0  0  0  0  0  0
  1  2  1  0  0  0  0
  1  6  2  0  0  0  0
  2  7  2  0  0  0  0
  3  9  1  0  0  0  0
  3 10  2  0  0  0  0
  4 11  2  0  0  0  0
  4 18  1  0  0  0  0
  5 12  1  0  0  0  0
  5 18  2  0  0  0  0
  6 20  1  0  0  0  0
  7 22  1  0  0  0  0
  8 13  2  0  0  0  0
  8 21  1  0  0  0  0
  9 24  2  0  0  0  0
 10 25  1  0  0  0  0
 11 26  1  0  0  0  0
 12 26  2  0  0  0  0
 13 27  1  0  0  0  0
 14 15  2  0  0  0  0
 14 28  1  0  0  0  0
 15 29  1  0  0  0  0
 16 23  1  0  0  0  0
 16 27  2  0  0  0  0
 17 29  2  0  0  0  0
 17 30  1  0  0  0  0
 18 32  1  0  0  0  0
 19 32  1  0  0  0  0
 19 33  2  0  0  0  0
 19 35  1  0  0  0  0
 20 22  2  0  0  0  0
 20 41  1  0  0  0  0
 21 23  2  0  0  0  0
 21 42  1  0  0  0  0
 22 50  1  0  0  0  0
 23 43  1  0  0  0  0
 24 31  1  0  0  0  0
 24 58  1  0  0  0  0
 25 31  2  0  0  0  0
 25 65  1  0  0  0  0
 26 80  1  0  0  0  0
 27 81  1  0  0  0  0
 28 30  2  0  0  0  0
 28 80  1  0  0  0  0
 29 82  1  0  0  0  0
 30 83  1  0  0  0  0
 31 84  1  0  0  0  0
 32 64  2  0  0  0  0
 33 66  1  0  0  0  0
 33 69  1  0  0  0  0
 34 36  1  0  0  0  0
 34 65  2  0  0  0  0
 35 70  1  0  0  0  0
 35 74  2  0  0  0  0
 36 59  1  0  0  0  0
 36 75  2  0  0  0  0
 37 51  1  0  0  0  0
 37 71  1  0  0  0  0
 37 76  2  0  0  0  0
 38 60  1  0  0  0  0
 38 68  1  0  0  0  0
 38 77  2  0  0  0  0
 39 61  1  0  0  0  0
 39 67  1  0  0  0  0
 39 78  2  0  0  0  0
 40 62  1  0  0  0  0
 40 72  1  0  0  0  0
 40 79  2  0  0  0  0
 41 44  1  0  0  0  0
 42 51  1  0  0  0  0
 43 67  1  0  0  0  0
 44 46  1  0  0  0  0
 45 47  1  0  0  0  0
 45 48  1  0  0  0  0
 46 50  1  0  0  0  0
 47 52  1  0  0  0  0
 48 68  1  0  0  0  0
 49 52  1  0  0  0  0
 49 68  1  0  0  0  0
 50 71  1  0  0  0  0
 51 67  1  0  0  0  0
 52 66  1  0  0  0  0
 53 62  1  0  0  0  0
 54 63  1  0  0  0  0
 55 63  1  0  0  0  0
 56 63  1  0  0  0  0
 57 73  1  0  0  0  0
 58 60  1  0  0  0  0
 59 81  1  0  0  0  0
 61 63  1  0  0  0  0
 61 72  1  0  0  0  0
 62 73  1  0  0  0  0
 64 66  1  0  0  0  0
M  CHG  1  73   1
M  ISO  4  38 100  59 101  60 100  81 101
M  END
> <Batch ID>
0171

> <Smiles>
CNC(C)C(=O)NC(C(=O)N1Cc2cc([101O:1][101CH2:1]C(=O)CNc3cccc(C=[100CH:0][100C:0](=O)N4CCCC(n5nc(-c6ccc(Oc7ccc(F)cc7F)cc6)c(C(N)=O)c5N)C4)c3F)ccc2CC1C(=O)NC1CCCc2ccccc21)C(C)(C)C

> <Shape>
0.278

> <Color>
0.211

> <Negative vol penalty>
0.000

$$$$

  -OEChem-04052304233D

 87 95  0     1  0  0  0  0  0999 V2000
  -18.6493  -32.5580   20.0927 C   0  0  0  0  0  0  0  0  0  0  0  0
  -19.9579  -32.2479   19.7364 C   0  0  0  0  0  0  0  0  0  0  0  0
  -26.5135  -10.6974   21.0266 C   0  0  0  0  0  0  0  0  0  0  0  0
  -25.1292  -12.3724   19.9706 C   0  0  0  0  0  0  0  0  0  0  0  0
  -18.1601  -32.1802   21.3424 C   0  0  0  0  0  0  0  0  0  0  0  0
  -20.7784  -31.5606   20.6302 C   0  0  0  0  0  0  0  0  0  0  0  0
  -25.0946  -27.4427   19.2451 C   0  0  0  0  0  0  0  0  0  0  0  0
  -25.3747   -9.9597   21.3495 C   0  0  0  0  0  0  0  0  0  0  0  0
  -23.9903  -11.6346   20.2935 C   0  0  0  0  0  0  0  0  0  0  0  0
  -26.4798  -27.5413   19.1211 C   0  0  0  0  0  0  0  0  0  0  0  0
  -23.2425   -7.8553   19.7816 C   0  0  0  0  0  0  0  0  0  0  0  0
  -23.2746   -6.4798   19.5524 C   0  0  0  0  0  0  0  0  0  0  0  0
  -29.6780  -20.9760   20.5290 C   0  0  0  0  0  0  0  0  0  0  0  0
  -26.7319  -26.7718   21.3934 C   0  0  0  0  0  0  0  0  0  0  0  0
  -27.5139  -20.2764   19.7140 C   0  0  0  0  0  0  0  0  0  0  0  0
  -22.8892   -6.0790   21.9035 C   0  0  0  0  0  0  0  0  0  0  0  0
  -26.3909  -11.9038   20.3372 C   0  0  0  0  0  0  0  0  0  0  0  0
  -29.6117  -22.1154   19.7271 C   0  0  0  0  0  0  0  0  0  0  0  0
  -28.3406  -12.5674   18.8319 C   0  0  0  0  0  0  0  0  0  0  0  0
  -18.9720  -31.4794   22.2482 C   0  0  0  0  0  0  0  0  0  0  0  0
  -24.5163  -27.0176   20.4498 C   0  0  0  0  0  0  0  0  0  0  0  0
  -20.3000  -31.1742   21.8938 C   0  0  0  0  0  0  0  0  0  0  0  0
  -25.3392  -26.6662   21.5293 C   0  0  0  0  0  0  0  0  0  0  0  0
  -28.4965  -22.3353   18.9187 C   0  0  0  0  0  0  0  0  0  0  0  0
  -28.6292  -20.0564   20.5224 C   0  0  0  0  0  0  0  0  0  0  0  0
  -27.4475  -21.4158   18.9121 C   0  0  0  0  0  0  0  0  0  0  0  0
  -24.1130  -10.4283   20.9829 C   0  0  0  0  0  0  0  0  0  0  0  0
  -27.2985  -27.2086   20.1963 C   0  0  0  0  0  0  0  0  0  0  0  0
  -23.0339   -8.3427   21.0718 C   0  0  0  0  0  0  0  0  0  0  0  0
  -23.0979   -5.5916   20.6133 C   0  0  0  0  0  0  0  0  0  0  0  0
  -22.8572   -7.4545   22.1328 C   0  0  0  0  0  0  0  0  0  0  0  0
  -27.5669  -12.6666   20.0038 C   0  0  0  0  0  0  0  0  0  0  0  0
  -29.3373  -13.4976   18.9987 C   0  0  0  0  0  0  0  0  0  0  0  0
  -30.7500  -23.0808   19.7560 C   0  0  0  0  0  0  0  0  0  0  0  0
  -28.1732  -11.7111   17.6942 C   0  0  0  0  0  0  0  0  0  0  0  0
  -22.5504  -28.3247   22.5783 C   0  0  0  0  0  0  0  0  0  0  0  0
  -30.7484  -26.0948   20.1588 C   0  0  0  0  0  0  0  0  0  0  0  0
  -22.6307  -25.3603   23.8930 C   0  0  0  0  0  0  0  0  0  0  0  0
  -24.2963  -22.4069   24.2803 C   0  0  0  0  0  0  0  0  0  0  0  0
  -29.7310  -18.5300   22.1964 C   0  0  0  0  0  0  0  0  0  0  0  0
  -18.4139  -31.1336   23.6060 C   0  0  0  0  0  0  0  0  0  0  0  0
  -23.0215  -26.8911   20.5587 C   0  0  0  0  0  0  0  0  0  0  0  0
  -24.7688  -26.1850   22.8376 C   0  0  0  0  0  0  0  0  0  0  0  0
  -19.2297  -30.0791   24.3494 C   0  0  0  0  0  0  0  0  0  0  0  0
  -31.8747  -15.6955   22.4141 C   0  0  0  0  0  0  0  0  0  0  0  0
  -20.7177  -30.4069   24.2776 C   0  0  0  0  0  0  0  0  0  0  0  0
  -31.0863  -14.5897   21.7087 C   0  0  0  0  0  0  0  0  0  0  0  0
  -30.9602  -16.6238   23.2114 C   0  0  0  0  0  0  0  0  0  0  0  0
  -29.0530  -16.0900   21.7463 C   0  0  0  0  0  0  0  0  0  0  0  0
  -21.2130  -30.4081   22.8263 C   0  0  1  0  0  0  0  0  0  0  0  0
  -22.5212  -26.9386   21.9991 C   0  0  1  0  0  0  0  0  0  0  0  0
  -29.9244  -15.1683   20.8776 C   0  0  2  0  0  0  0  0  0  0  0  0
  -28.4260  -23.5584   18.0583 C   0  0  0  0  0  0  0  0  0  0  0  0
  -24.6995  -20.0390   25.0069 C   0  0  0  0  0  0  0  0  0  0  0  0
  -23.4202  -26.6856   26.5255 C   0  0  0  0  0  0  0  0  0  0  0  0
  -24.1525  -24.4401   27.3559 C   0  0  0  0  0  0  0  0  0  0  0  0
  -21.7637  -24.8254   26.7496 C   0  0  0  0  0  0  0  0  0  0  0  0
  -25.0103  -21.1419   18.4534 C   0  0  0  0  0  0  0  0  0  0  0  0
  -23.0572  -21.3193   21.8226 C   0  0  0  0  0  0  0  0  0  0  0  0
  -31.1117  -23.7454   21.0782 C   0  0  0  0  0  0  0  0  0  0  0  0
  -31.6831  -25.1518   20.9028 C   0  0  0  0  0  0  0  0  0  0  0  0
  -29.4364  -26.4007   20.8543 C   0  0  0  0  0  0  0  0  0  1  0  0
  -23.4978  -24.6679   24.9166 C   0  0  1  0  0  0  0  0  0  0  0  0
  -23.8308  -20.9661   24.1711 C   0  0  2  0  0  0  0  0  0  0  0  0
  -23.2195  -25.1656   26.3630 C   0  0  0  0  0  0  0  0  0  0  0  0
  -28.0323  -13.5870   20.8526 N   0  0  0  0  0  0  0  0  0  0  0  0
  -29.1091  -14.0746   20.2133 N   0  0  0  0  0  0  0  0  0  0  0  0
  -23.3012  -26.0842   22.8968 N   0  0  0  0  0  0  0  0  0  0  0  0
  -29.8860  -17.1370   22.3585 N   0  0  0  0  0  0  0  0  0  0  0  0
  -30.3779  -13.8699   18.2236 N   0  0  0  0  0  0  0  0  0  0  0  0
  -27.0960  -10.8144   17.6856 N   0  0  0  0  0  0  0  0  0  0  0  0
  -28.6968  -18.8988   21.3367 N   0  0  0  0  0  0  0  0  0  0  0  0
  -26.3098  -21.6204   18.1005 N   0  0  0  0  0  0  0  0  0  0  0  0
  -21.3974  -29.0526   22.3541 N   0  0  0  0  0  0  0  0  0  0  0  0
  -23.2894  -23.2365   24.7268 N   0  0  0  0  0  0  0  0  0  0  0  0
  -23.8855  -20.5102   22.7533 N   0  3  0  0  0  0  0  0  0  0  0  0
  -31.3657  -23.3113   18.7178 O   0  0  0  0  0  0  0  0  0  0  0  0
  -28.9650  -11.7288   16.7215 O   0  0  0  0  0  0  0  0  0  0  0  0
  -23.5449  -28.7051   23.1850 O   0  0  0  0  0  0  0  0  0  0  0  0
  -31.0274  -26.5778   19.0627 O   0  0  0  0  0  0  0  0  0  0  0  0
  -21.4040  -25.2567   23.9701 O   0  0  0  0  0  0  0  0  0  0  0  0
  -25.4398  -22.7604   24.0014 O   0  0  0  0  0  0  0  0  0  0  0  0
  -30.4791  -19.3357   22.7560 O   0  0  0  0  0  0  0  0  0  0  0  0
  -23.0015   -9.7085   21.2976 O   0  0  0  0  0  0  0  0  0  0  0  0
  -28.6508  -27.3046   20.0782 O   0  0  0  0  0  0  0  0  0  1  0  0
  -23.1272   -4.2707   20.3928 F   0  0  0  0  0  0  0  0  0  0  0  0
  -22.6552   -7.9168   23.3742 F   0  0  0  0  0  0  0  0  0  0  0  0
  1  2  1  0  0  0  0
  1  5  2  0  0  0  0
  2  6  2  0  0  0  0
  3  8  2  0  0  0  0
  3 17  1  0  0  0  0
  4  9  1  0  0  0  0
  4 17  2  0  0  0  0
  5 20  1  0  0  0  0
  6 22  1  0  0  0  0
  7 10  2  0  0  0  0
  7 21  1  0  0  0  0
  8 27  1  0  0  0  0
  9 27  2  0  0  0  0
 10 28  1  0  0  0  0
 11 12  2  0  0  0  0
 11 29  1  0  0  0  0
 12 30  1  0  0  0  0
 13 18  2  0  0  0  0
 13 25  1  0  0  0  0
 14 23  1  0  0  0  0
 14 28  2  0  0  0  0
 15 25  2  0  0  0  0
 15 26  1  0  0  0  0
 16 30  2  0  0  0  0
 16 31  1  0  0  0  0
 17 32  1  0  0  0  0
 18 24  1  0  0  0  0
 18 34  1  0  0  0  0
 19 32  1  0  0  0  0
 19 33  2  0  0  0  0
 19 35  1  0  0  0  0
 20 22  2  0  0  0  0
 20 41  1  0  0  0  0
 21 23  2  0  0  0  0
 21 42  1  0  0  0  0
 22 50  1  0  0  0  0
 23 43  1  0  0  0  0
 24 26  2  0  0  0  0
 24 53  1  0  0  0  0
 25 72  1  0  0  0  0
 26 73  1  0  0  0  0
 27 84  1  0  0  0  0
 28 85  1  0  0  0  0
 29 31  2  0  0  0  0
 29 84  1  0  0  0  0
 30 86  1  0  0  0  0
 31 87  1  0  0  0  0
 32 66  2  0  0  0  0
 33 67  1  0  0  0  0
 33 70  1  0  0  0  0
 34 60  1  0  0  0  0
 34 77  2  0  0  0  0
 35 71  1  0  0  0  0
 35 78  2  0  0  0  0
 36 51  1  0  0  0  0
 36 74  1  0  0  0  0
 36 79  2  0  0  0  0
 37 61  1  0  0  0  0
 37 62  1  0  0  0  0
 37 80  2  0  0  0  0
 38 63  1  0  0  0  0
 38 68  1  0  0  0  0
 38 81  2  0  0  0  0
 39 64  1  0  0  0  0
 39 75  1  0  0  0  0
 39 82  2  0  0  0  0
 40 69  1  0  0  0  0
 40 72  1  0  0  0  0
 40 83  2  0  0  0  0
 41 44  1  0  0  0  0
 42 51  1  0  0  0  0
 43 68  1  0  0  0  0
 44 46  1  0  0  0  0
 45 47  1  0  0  0  0
 45 48  1  0  0  0  0
 46 50  1  0  0  0  0
 47 52  1  0  0  0  0
 48 69  1  0  0  0  0
 49 52  1  0  0  0  0
 49 69  1  0  0  0  0
 50 74  1  0  0  0  0
 51 68  1  0  0  0  0
 52 67  1  0  0  0  0
 54 64  1  0  0  0  0
 55 65  1  0  0  0  0
 56 65  1  0  0  0  0
 57 65  1  0  0  0  0
 58 73  1  0  0  0  0
 59 76  1  0  0  0  0
 60 61  1  0  0  0  0
 62 85  1  0  0  0  0
 63 65  1  0  0  0  0
 63 75  1  0  0  0  0
 64 76  1  0  0  0  0
 66 67  1  0  0  0  0
M  CHG  1  76   1
M  ISO  4  40 100  62 101  72 100  85 101
M  END
> <Batch ID>
0171

> <Smiles>
CNc1cc([100NH:0][100C:0](=O)N2CCCC(n3nc(-c4ccc(Oc5ccc(F)cc5F)cc4)c(C(N)=O)c3N)C2)cc(C(=O)CCC(=O)[101CH2:1][101O:1]c2ccc3c(c2)CN(C(=O)C(NC(=O)C(C)NC)C(C)(C)C)C(C(=O)NC2CCCc4ccccc42)C3)c1C

> <Shape>
0.273

> <Color>
0.068

> <Negative vol penalty>
0.000

$$$$

  -OEChem-04052304233D

 85 93  0     1  0  0  0  0  0999 V2000
  -27.2823  -32.6551   27.2700 C   0  0  0  0  0  0  0  0  0  0  0  0
  -27.5619  -31.5675   26.4489 C   0  0  0  0  0  0  0  0  0  0  0  0
  -23.5227   -9.2358   20.3371 C   0  0  0  0  0  0  0  0  0  0  0  0
  -23.0409  -11.1299   21.7575 C   0  0  0  0  0  0  0  0  0  0  0  0
  -25.9600  -33.0360   27.4943 C   0  0  0  0  0  0  0  0  0  0  0  0
  -26.5192  -30.8593   25.8525 C   0  0  0  0  0  0  0  0  0  0  0  0
  -27.4008  -29.8486   20.9692 C   0  0  0  0  0  0  0  0  0  0  0  0
  -22.6766   -8.4408   21.1102 C   0  0  0  0  0  0  0  0  0  0  0  0
  -22.1947  -10.3349   22.5306 C   0  0  0  0  0  0  0  0  0  0  0  0
  -28.2694  -28.7961   20.6836 C   0  0  0  0  0  0  0  0  0  0  0  0
  -22.8017   -6.8200   24.0736 C   0  0  0  0  0  0  0  0  0  0  0  0
  -23.2560   -5.5516   24.4344 C   0  0  0  0  0  0  0  0  0  0  0  0
  -30.4593  -18.4128   19.5058 C   0  0  0  0  0  0  0  0  0  0  0  0
  -26.3789  -27.3596   20.2575 C   0  0  0  0  0  0  0  0  0  0  0  0
  -28.3344  -18.5667   18.3664 C   0  0  0  0  0  0  0  0  0  0  0  0
  -21.3791   -4.5529   23.2867 C   0  0  0  0  0  0  0  0  0  0  0  0
  -23.7049  -10.5803   20.6608 C   0  0  0  0  0  0  0  0  0  0  0  0
  -30.5775  -19.8022   19.4731 C   0  0  0  0  0  0  0  0  0  0  0  0
  -24.2318  -12.1629   18.7306 C   0  0  0  0  0  0  0  0  0  0  0  0
  -24.9009  -32.3381   26.8926 C   0  0  0  0  0  0  0  0  0  0  0  0
  -26.0123  -29.6612   20.9117 C   0  0  0  0  0  0  0  0  0  0  0  0
  -25.1814  -31.2304   26.0700 C   0  0  0  0  0  0  0  0  0  0  0  0
  -25.4949  -28.4120   20.5404 C   0  0  0  0  0  0  0  0  0  0  0  0
  -29.3378  -17.7950   18.9524 C   0  0  0  0  0  0  0  0  0  0  0  0
  -29.5742  -20.5739   18.8870 C   0  0  0  0  0  0  0  0  0  0  0  0
  -22.0126   -8.9903   22.2069 C   0  0  0  0  0  0  0  0  0  0  0  0
  -27.7585  -27.5506   20.3305 C   0  0  0  0  0  0  0  0  0  0  0  0
  -21.6360   -6.9550   23.3194 C   0  0  0  0  0  0  0  0  0  0  0  0
  -22.5447   -4.4180   24.0409 C   0  0  0  0  0  0  0  0  0  0  0  0
  -28.4526  -19.9562   18.3337 C   0  0  0  0  0  0  0  0  0  0  0  0
  -20.9248   -5.8214   22.9260 C   0  0  0  0  0  0  0  0  0  0  0  0
  -24.5792  -11.4019   19.8629 C   0  0  0  0  0  0  0  0  0  0  0  0
  -25.4081  -12.7553   18.3410 C   0  0  0  0  0  0  0  0  0  0  0  0
  -31.7625  -20.4170   20.0581 C   0  0  0  0  0  0  0  0  0  0  0  0
  -22.9596  -12.3202   18.0885 C   0  0  0  0  0  0  0  0  0  0  0  0
  -23.6351  -29.8443   23.0138 C   0  0  0  0  0  0  0  0  0  0  0  0
  -29.0779  -24.2249   19.4398 C   0  0  0  0  0  0  0  0  0  0  0  0
  -21.7940  -29.3649   20.3864 C   0  0  0  0  0  0  0  0  0  0  0  0
  -21.5431  -28.1512   17.2067 C   0  0  0  0  0  0  0  0  0  0  0  0
  -30.1213  -15.4713   19.5295 C   0  0  0  0  0  0  0  0  0  0  0  0
  -23.4859  -32.7579   27.2027 C   0  0  0  0  0  0  0  0  0  0  0  0
  -25.0890  -30.8139   21.1967 C   0  0  0  0  0  0  0  0  0  0  0  0
  -24.0123  -28.1645   20.4443 C   0  0  0  0  0  0  0  0  0  0  0  0
  -22.4546  -32.1856   26.2335 C   0  0  0  0  0  0  0  0  0  0  0  0
  -30.1701  -11.9250   19.8431 C   0  0  0  0  0  0  0  0  0  0  0  0
  -22.7000  -30.6967   26.0106 C   0  0  0  0  0  0  0  0  0  0  0  0
  -28.6913  -11.5354   19.7831 C   0  0  0  0  0  0  0  0  0  0  0  0
  -30.3801  -13.2399   20.5919 C   0  0  0  0  0  0  0  0  0  0  0  0
  -28.0932  -13.9766   20.0474 C   0  0  0  0  0  0  0  0  0  0  0  0
  -24.0787  -30.4523   25.3854 C   0  0  1  0  0  0  0  0  0  0  0  0
  -23.6884  -30.3702   21.6072 C   0  0  1  0  0  0  0  0  0  0  0  0
  -27.8251  -12.6919   19.2466 C   0  0  2  0  0  0  0  0  0  0  0  0
  -19.9016  -27.8690   15.3297 C   0  0  0  0  0  0  0  0  0  0  0  0
  -20.4970  -27.0379   21.8738 C   0  0  0  0  0  0  0  0  0  0  0  0
  -19.5938  -26.2316   19.6824 C   0  0  0  0  0  0  0  0  0  0  0  0
  -18.9054  -28.4591   20.5695 C   0  0  0  0  0  0  0  0  0  0  0  0
  -23.1607  -29.8314   15.3849 C   0  0  0  0  0  0  0  0  0  0  0  0
  -28.5666  -22.8494   19.0671 C   0  0  0  0  0  0  0  0  0  0  0  0
  -28.0121  -25.2724   19.6969 C   0  0  0  0  0  0  0  0  0  1  0  0
  -21.2483  -28.1534   19.6699 C   0  0  1  0  0  0  0  0  0  0  0  0
  -20.9734  -28.7600   15.9382 C   0  0  2  0  0  0  0  0  0  0  0  0
  -20.0891  -27.4743   20.4525 C   0  0  0  0  0  0  0  0  0  0  0  0
  -25.8748  -11.5000   20.1724 N   0  0  0  0  0  0  0  0  0  0  0  0
  -32.7196  -19.7364   20.6114 N   0  0  0  0  0  0  0  0  0  0  0  0
  -26.3519  -12.3295   19.2288 N   0  0  0  0  0  0  0  0  0  0  0  0
  -23.1504  -29.3212   20.7386 N   0  0  0  0  0  0  0  0  0  0  0  0
  -29.5306  -14.2901   20.0260 N   0  0  0  0  0  0  0  0  0  0  0  0
  -25.7169  -13.5937   17.3290 N   0  0  0  0  0  0  0  0  0  0  0  0
  -21.8548  -11.6404   18.6191 N   0  0  0  0  0  0  0  0  0  0  0  0
  -29.2174  -16.3836   18.9860 N   0  0  0  0  0  0  0  0  0  0  0  0
  -29.6754  -21.9571   18.8450 N   0  0  0  0  0  0  0  0  0  0  0  0
  -24.0517  -30.7512   23.9696 N   0  0  0  0  0  0  0  0  0  0  0  0
  -20.8830  -28.6014   18.3305 N   0  0  0  0  0  0  0  0  0  0  0  0
  -22.0514  -28.9553   14.9279 N   0  3  0  0  0  0  0  0  0  0  0  0
  -22.8103  -13.0293   17.0646 O   0  0  0  0  0  0  0  0  0  0  0  0
  -23.2435  -28.7011   23.2170 O   0  0  0  0  0  0  0  0  0  0  0  0
  -30.2766  -24.4869   19.5307 O   0  0  0  0  0  0  0  0  0  0  0  0
  -21.0461  -30.3180   20.6185 O   0  0  0  0  0  0  0  0  0  0  0  0
  -22.4776  -27.3529   17.2010 O   0  0  0  0  0  0  0  0  0  0  0  0
  -31.3419  -15.6480   19.5578 O   0  0  0  0  0  0  0  0  0  0  0  0
  -21.1867   -8.2149   22.9614 O   0  0  0  0  0  0  0  0  0  0  0  0
  -28.6040  -26.5214   20.0518 O   0  0  0  0  0  0  0  0  0  1  0  0
  -22.9820   -3.1999   24.3862 F   0  0  0  0  0  0  0  0  0  0  0  0
  -27.4818  -20.6875   17.7679 F   0  0  0  0  0  0  0  0  0  0  0  0
  -19.8049   -5.9447   22.2003 F   0  0  0  0  0  0  0  0  0  0  0  0
  1  2  1  0  0  0  0
  1  5  2  0  0  0  0
  2  6  2  0  0  0  0
  3  8  2  0  0  0  0
  3 17  1  0  0  0  0
  4  9  1  0  0  0  0
  4 17  2  0  0  0  0
  5 20  1  0  0  0  0
  6 22  1  0  0  0  0
  7 10  2  0  0  0  0
  7 21  1  0  0  0  0
  8 26  1  0  0  0  0
  9 26  2  0  0  0  0
 10 27  1  0  0  0  0
 11 12  2  0  0  0  0
 11 28  1  0  0  0  0
 12 29  1  0  0  0  0
 13 18  1  0  0  0  0
 13 24  2  0  0  0  0
 14 23  1  0  0  0  0
 14 27  2  0  0  0  0
 15 24  1  0  0  0  0
 15 30  2  0  0  0  0
 16 29  2  0  0  0  0
 16 31  1  0  0  0  0
 17 32  1  0  0  0  0
 18 25  2  0  0  0  0
 18 34  1  0  0  0  0
 19 32  1  0  0  0  0
 19 33  2  0  0  0  0
 19 35  1  0  0  0  0
 20 22  2  0  0  0  0
 20 41  1  0  0  0  0
 21 23  2  0  0  0  0
 21 42  1  0  0  0  0
 22 50  1  0  0  0  0
 23 43  1  0  0  0  0
 24 70  1  0  0  0  0
 25 30  1  0  0  0  0
 25 71  1  0  0  0  0
 26 81  1  0  0  0  0
 27 82  1  0  0  0  0
 28 31  2  0  0  0  0
 28 81  1  0  0  0  0
 29 83  1  0  0  0  0
 30 84  1  0  0  0  0
 31 85  1  0  0  0  0
 32 63  2  0  0  0  0
 33 65  1  0  0  0  0
 33 68  1  0  0  0  0
 34 64  2  0  0  0  0
 35 69  1  0  0  0  0
 35 75  2  0  0  0  0
 36 51  1  0  0  0  0
 36 72  1  0  0  0  0
 36 76  2  0  0  0  0
 37 58  1  0  0  0  0
 37 59  1  0  0  0  0
 37 77  2  0  0  0  0
 38 60  1  0  0  0  0
 38 66  1  0  0  0  0
 38 78  2  0  0  0  0
 39 61  1  0  0  0  0
 39 73  1  0  0  0  0
 39 79  2  0  0  0  0
 40 67  1  0  0  0  0
 40 70  1  0  0  0  0
 40 80  2  0  0  0  0
 41 44  1  0  0  0  0
 42 51  1  0  0  0  0
 43 66  1  0  0  0  0
 44 46  1  0  0  0  0
 45 47  1  0  0  0  0
 45 48  1  0  0  0  0
 46 50  1  0  0  0  0
 47 52  1  0  0  0  0
 48 67  1  0  0  0  0
 49 52  1  0  0  0  0
 49 67  1  0  0  0  0
 50 72  1  0  0  0  0
 51 66  1  0  0  0  0
 52 65  1  0  0  0  0
 53 61  1  0  0  0  0
 54 62  1  0  0  0  0
 55 62  1  0  0  0  0
 56 62  1  0  0  0  0
 57 74  1  0  0  0  0
 58 71  1  0  0  0  0
 59 82  1  0  0  0  0
 60 62  1  0  0  0  0
 60 73  1  0  0  0  0
 61 74  1  0  0  0  0
 63 65  1  0  0  0  0
M  CHG  1  74   1
M  ISO  4  40 100  59 101  70 100  82 101
M  END
> <Batch ID>
0171

> <Smiles>
CNC(C)C(=O)NC(C(=O)N1Cc2cc([101O:1][101CH2:1]C(=O)CNc3c(F)cc([100NH:0][100C:0](=O)N4CCCC(n5nc(-c6ccc(Oc7ccc(F)cc7F)cc6)c(C(N)=O)c5N)C4)cc3C=N)ccc2CC1C(=O)NC1CCCc2ccccc21)C(C)(C)C

> <Shape>
0.314

> <Color>
0.127

> <Negative vol penalty>
0.000

$$$$

  -OEChem-04052304233D

 86 94  0     1  0  0  0  0  0999 V2000
  -28.6980  -31.6542   26.4653 C   0  0  0  0  0  0  0  0  0  0  0  0
  -28.7120  -30.6104   25.5458 C   0  0  0  0  0  0  0  0  0  0  0  0
  -22.9890  -10.1461   19.9116 C   0  0  0  0  0  0  0  0  0  0  0  0
  -24.0695   -9.6520   22.0153 C   0  0  0  0  0  0  0  0  0  0  0  0
  -27.4879  -32.0948   26.9997 C   0  0  0  0  0  0  0  0  0  0  0  0
  -27.5159  -30.0057   25.1609 C   0  0  0  0  0  0  0  0  0  0  0  0
  -27.2286  -29.2789   20.1574 C   0  0  0  0  0  0  0  0  0  0  0  0
  -22.2919   -8.9403   19.9864 C   0  0  0  0  0  0  0  0  0  0  0  0
  -23.3723   -8.4462   22.0901 C   0  0  0  0  0  0  0  0  0  0  0  0
  -27.9357  -28.1997   19.6292 C   0  0  0  0  0  0  0  0  0  0  0  0
  -20.2660   -7.4149   22.9315 C   0  0  0  0  0  0  0  0  0  0  0  0
  -19.6847   -7.0790   24.1541 C   0  0  0  0  0  0  0  0  0  0  0  0
  -25.9001  -26.9070   19.5609 C   0  0  0  0  0  0  0  0  0  0  0  0
  -29.0587  -19.9439   21.3373 C   0  0  0  0  0  0  0  0  0  0  0  0
  -21.0242   -5.0702   24.2391 C   0  0  0  0  0  0  0  0  0  0  0  0
  -31.4285  -18.6914   20.8260 C   0  0  0  0  0  0  0  0  0  0  0  0
  -23.8779  -10.5020   20.9260 C   0  0  0  0  0  0  0  0  0  0  0  0
  -24.1918  -12.9975   21.3519 C   0  0  0  0  0  0  0  0  0  0  0  0
  -26.2755  -31.5017   26.6138 C   0  0  0  0  0  0  0  0  0  0  0  0
  -25.8516  -29.1764   20.4020 C   0  0  0  0  0  0  0  0  0  0  0  0
  -26.2886  -30.4379   25.6916 C   0  0  0  0  0  0  0  0  0  0  0  0
  -25.1773  -27.9872   20.0900 C   0  0  0  0  0  0  0  0  0  0  0  0
  -29.3445  -18.7397   21.9711 C   0  0  0  0  0  0  0  0  0  0  0  0
  -30.5498  -18.0951   21.7160 C   0  0  0  0  0  0  0  0  0  0  0  0
  -22.4835   -8.0904   21.0757 C   0  0  0  0  0  0  0  0  0  0  0  0
  -27.2721  -27.0126   19.3335 C   0  0  0  0  0  0  0  0  0  0  0  0
  -21.2264   -6.5785   22.3626 C   0  0  0  0  0  0  0  0  0  0  0  0
  -20.0638   -5.9067   24.8079 C   0  0  0  0  0  0  0  0  0  0  0  0
  -21.6055   -5.4061   23.0164 C   0  0  0  0  0  0  0  0  0  0  0  0
  -24.5987  -11.7472   20.8490 C   0  0  0  0  0  0  0  0  0  0  0  0
  -30.0043  -20.4575   20.4644 C   0  0  0  0  0  0  0  0  0  0  0  0
  -25.2185  -13.8495   21.0257 C   0  0  0  0  0  0  0  0  0  0  0  0
  -27.9677  -24.7877   19.5250 C   0  0  0  0  0  0  0  0  0  1  0  0
  -22.9930  -13.3567   22.0515 C   0  0  0  0  0  0  0  0  0  0  0  0
  -28.6108  -23.6885   19.1130 C   0  0  0  0  0  0  0  0  0  0  0  0
  -28.5571  -22.4533   19.9614 C   0  0  0  0  0  0  0  0  0  0  0  0
  -24.0136  -29.3539   22.9893 C   0  0  0  0  0  0  0  0  0  0  0  0
  -21.6108  -29.1608   20.8186 C   0  0  0  0  0  0  0  0  0  0  0  0
  -20.5814  -28.1818   17.7156 C   0  0  0  0  0  0  0  0  0  0  0  0
  -30.6698  -14.9951   20.6845 C   0  0  0  0  0  0  0  0  0  0  0  0
  -24.9968  -31.9806   27.2544 C   0  0  0  0  0  0  0  0  0  0  0  0
  -25.0982  -30.3586   20.9473 C   0  0  0  0  0  0  0  0  0  0  0  0
  -23.6961  -27.8330   20.3149 C   0  0  0  0  0  0  0  0  0  0  0  0
  -23.7397  -31.5360   26.5114 C   0  0  0  0  0  0  0  0  0  0  0  0
  -29.2089  -13.1851   17.9889 C   0  0  0  0  0  0  0  0  0  0  0  0
  -23.8231  -30.0538   26.1604 C   0  0  0  0  0  0  0  0  0  0  0  0
  -27.8491  -12.7478   18.5363 C   0  0  0  0  0  0  0  0  0  0  0  0
  -30.2879  -13.1563   19.0691 C   0  0  0  0  0  0  0  0  0  0  0  0
  -28.6023  -13.4791   20.8378 C   0  0  0  0  0  0  0  0  0  0  0  0
  -25.0097  -29.7731   25.2305 C   0  0  1  0  0  0  0  0  0  0  0  0
  -23.7940  -29.9698   21.6365 C   0  0  1  0  0  0  0  0  0  0  0  0
  -27.4700  -13.5454   19.7986 C   0  0  2  0  0  0  0  0  0  0  0  0
  -28.3533  -18.8663   24.2707 C   0  0  0  0  0  0  0  0  0  0  0  0
  -18.5518  -28.1228   16.2411 C   0  0  0  0  0  0  0  0  0  0  0  0
  -20.5095  -26.8172   22.4325 C   0  0  0  0  0  0  0  0  0  0  0  0
  -19.0916  -26.2148   20.4588 C   0  0  0  0  0  0  0  0  0  0  0  0
  -18.7758  -28.4132   21.5947 C   0  0  0  0  0  0  0  0  0  0  0  0
  -21.8750  -29.8852   15.6702 C   0  0  0  0  0  0  0  0  0  0  0  0
  -28.3472  -18.1595   22.9183 C   0  0  0  0  0  0  0  0  0  0  0  0
  -30.9060  -16.8038   22.3673 C   0  0  0  0  0  0  0  0  0  0  0  0
  -20.8359  -28.0342   20.1789 C   0  0  1  0  0  0  0  0  0  0  0  0
  -19.7918  -28.9071   16.6409 C   0  0  2  0  0  0  0  0  0  0  0  0
  -19.8315  -27.3718   21.1637 C   0  0  0  0  0  0  0  0  0  0  0  0
  -31.1859  -19.8602   20.1914 N   0  0  0  0  0  0  0  0  0  0  0  0
  -25.7909  -11.7960   20.2488 N   0  0  0  0  0  0  0  0  0  0  0  0
  -26.1419  -13.0874   20.3723 N   0  0  0  0  0  0  0  0  0  0  0  0
  -23.0048  -29.0150   20.8556 N   0  0  0  0  0  0  0  0  0  0  0  0
  -29.8670  -13.9325   20.2380 N   0  0  0  0  0  0  0  0  0  0  0  0
  -25.4125  -15.1686   21.2367 N   0  0  0  0  0  0  0  0  0  0  0  0
  -22.0423  -12.3583   22.3044 N   0  0  0  0  0  0  0  0  0  0  0  0
  -29.7037  -21.6832   19.8227 N   0  0  0  0  0  0  0  0  0  0  0  0
  -24.6937  -30.1682   23.8746 N   0  0  0  0  0  0  0  0  0  0  0  0
  -20.2182  -28.5923   18.9809 N   0  0  0  0  0  0  0  0  0  0  0  0
  -30.1948  -15.6827   21.7946 N   0  0  0  0  0  0  0  0  0  0  0  0
  -20.6327  -29.1078   15.4270 N   0  3  0  0  0  0  0  0  0  0  0  0
  -22.7639  -14.5316   22.4264 O   0  0  0  0  0  0  0  0  0  0  0  0
  -27.5838  -22.2167   20.6689 O   0  0  0  0  0  0  0  0  0  0  0  0
  -23.5956  -28.2240   23.2138 O   0  0  0  0  0  0  0  0  0  0  0  0
  -21.0022  -30.1376   21.2625 O   0  0  0  0  0  0  0  0  0  0  0  0
  -21.4324  -27.3331   17.4586 O   0  0  0  0  0  0  0  0  0  0  0  0
  -31.7286  -15.3113   20.1313 O   0  0  0  0  0  0  0  0  0  0  0  0
  -29.3240  -23.6445   17.9323 O   0  0  0  0  0  0  0  0  0  0  0  0
  -21.8032   -6.9138   21.1491 O   0  0  0  0  0  0  0  0  0  0  0  0
  -27.9600  -25.9575   18.8184 O   0  0  0  0  0  0  0  0  0  1  0  0
  -19.5066   -5.5850   25.9827 F   0  0  0  0  0  0  0  0  0  0  0  0
  -22.5285   -4.5991   22.4754 F   0  0  0  0  0  0  0  0  0  0  0  0
  1  2  1  0  0  0  0
  1  5  2  0  0  0  0
  2  6  2  0  0  0  0
  3  8  2  0  0  0  0
  3 17  1  0  0  0  0
  4  9  1  0  0  0  0
  4 17  2  0  0  0  0
  5 19  1  0  0  0  0
  6 21  1  0  0  0  0
  7 10  2  0  0  0  0
  7 20  1  0  0  0  0
  8 25  1  0  0  0  0
  9 25  2  0  0  0  0
 10 26  1  0  0  0  0
 11 12  2  0  0  0  0
 11 27  1  0  0  0  0
 12 28  1  0  0  0  0
 13 22  1  0  0  0  0
 13 26  2  0  0  0  0
 14 23  1  0  0  0  0
 14 31  2  0  0  0  0
 15 28  2  0  0  0  0
 15 29  1  0  0  0  0
 16 24  1  0  0  0  0
 16 64  2  0  0  0  0
 17 30  1  0  0  0  0
 18 30  1  0  0  0  0
 18 32  2  0  0  0  0
 18 34  1  0  0  0  0
 19 21  2  0  0  0  0
 19 41  1  0  0  0  0
 20 22  2  0  0  0  0
 20 42  1  0  0  0  0
 21 50  1  0  0  0  0
 22 43  1  0  0  0  0
 23 24  2  0  0  0  0
 23 59  1  0  0  0  0
 24 60  1  0  0  0  0
 25 83  1  0  0  0  0
 26 84  1  0  0  0  0
 27 29  2  0  0  0  0
 27 83  1  0  0  0  0
 28 85  1  0  0  0  0
 29 86  1  0  0  0  0
 30 65  2  0  0  0  0
 31 64  1  0  0  0  0
 31 71  1  0  0  0  0
 32 66  1  0  0  0  0
 32 69  1  0  0  0  0
 33 35  2  0  0  0  0
 33 84  1  0  0  0  0
 34 70  1  0  0  0  0
 34 76  2  0  0  0  0
 35 36  1  0  0  0  0
 35 82  1  0  0  0  0
 36 71  1  0  0  0  0
 36 77  2  0  0  0  0
 37 51  1  0  0  0  0
 37 72  1  0  0  0  0
 37 78  2  0  0  0  0
 38 61  1  0  0  0  0
 38 67  1  0  0  0  0
 38 79  2  0  0  0  0
 39 62  1  0  0  0  0
 39 73  1  0  0  0  0
 39 80  2  0  0  0  0
 40 68  1  0  0  0  0
 40 74  1  0  0  0  0
 40 81  2  0  0  0  0
 41 44  1  0  0  0  0
 42 51  1  0  0  0  0
 43 67  1  0  0  0  0
 44 46  1  0  0  0  0
 45 47  1  0  0  0  0
 45 48  1  0  0  0  0
 46 50  1  0  0  0  0
 47 52  1  0  0  0  0
 48 68  1  0  0  0  0
 49 52  1  0  0  0  0
 49 68  1  0  0  0  0
 50 72  1  0  0  0  0
 51 67  1  0  0  0  0
 52 66  1  0  0  0  0
 53 59  1  0  0  0  0
 54 62  1  0  0  0  0
 55 63  1  0  0  0  0
 56 63  1  0  0  0  0
 57 63  1  0  0  0  0
 58 75  1  0  0  0  0
 60 74  1  0  0  0  0
 61 63  1  0  0  0  0
 61 73  1  0  0  0  0
 62 75  1  0  0  0  0
 65 66  1  0  0  0  0
M  CHG  1  75   1
M  ISO  4  33 101  40 100  74 100  84 101
M  END
> <Batch ID>
0171

> <Smiles>
CCc1cc(NC(=O)C(=O)[101CH2:1][101O:1]c2ccc3c(c2)CN(C(=O)C(NC(=O)C(C)NC)C(C)(C)C)C(C(=O)NC2CCCc4ccccc42)C3)ncc1C[100NH:0][100C:0](=O)N1CCCC(n2nc(-c3ccc(Oc4ccc(F)cc4F)cc3)c(C(N)=O)c2N)C1

> <Shape>
0.400

> <Color>
0.175

> <Negative vol penalty>
0.000

$$$$

  -OEChem-04052304233D

 86 94  0     1  0  0  0  0  0999 V2000
  -24.9579   -8.8033   24.5308 C   0  0  0  0  0  0  0  0  0  0  0  0
  -25.9925   -9.6606   24.1701 C   0  0  0  0  0  0  0  0  0  0  0  0
  -20.0460  -28.7652   23.1428 C   0  0  0  0  0  0  0  0  0  0  0  0
  -20.6990  -26.4840   22.6877 C   0  0  0  0  0  0  0  0  0  0  0  0
  -23.7677   -8.8048   23.8046 C   0  0  0  0  0  0  0  0  0  0  0  0
  -25.8379  -10.5191   23.0822 C   0  0  0  0  0  0  0  0  0  0  0  0
  -28.1216  -16.1716   22.4996 C   0  0  0  0  0  0  0  0  0  0  0  0
  -18.7810  -28.5085   22.6143 C   0  0  0  0  0  0  0  0  0  0  0  0
  -19.4338  -26.2273   22.1593 C   0  0  0  0  0  0  0  0  0  0  0  0
  -29.2510  -16.6644   21.8473 C   0  0  0  0  0  0  0  0  0  0  0  0
  -16.3316  -25.5776   23.3316 C   0  0  0  0  0  0  0  0  0  0  0  0
  -15.6986  -24.3951   23.7146 C   0  0  0  0  0  0  0  0  0  0  0  0
  -27.8965  -17.2099   19.9272 C   0  0  0  0  0  0  0  0  0  0  0  0
  -29.4187  -26.2931   18.9820 C   0  0  0  0  0  0  0  0  0  0  0  0
  -15.6252  -23.6866   21.4060 C   0  0  0  0  0  0  0  0  0  0  0  0
  -28.2334  -24.6182   20.1846 C   0  0  0  0  0  0  0  0  0  0  0  0
  -21.0051  -27.7529   23.1794 C   0  0  0  0  0  0  0  0  0  0  0  0
  -22.7214  -27.8675   25.0633 C   0  0  0  0  0  0  0  0  0  0  0  0
  -23.5948   -9.6706   22.7133 C   0  0  0  0  0  0  0  0  0  0  0  0
  -26.8710  -16.1844   21.8653 C   0  0  0  0  0  0  0  0  0  0  0  0
  -24.6447  -10.5312   22.3400 C   0  0  0  0  0  0  0  0  0  0  0  0
  -26.7523  -16.7191   20.5745 C   0  0  0  0  0  0  0  0  0  0  0  0
  -28.5574  -25.9553   20.0199 C   0  0  0  0  0  0  0  0  0  0  0  0
  -18.4748  -27.2396   22.1226 C   0  0  0  0  0  0  0  0  0  0  0  0
  -29.1391  -17.1810   20.5598 C   0  0  0  0  0  0  0  0  0  0  0  0
  -16.6113  -25.8146   21.9857 C   0  0  0  0  0  0  0  0  0  0  0  0
  -15.3454  -23.4496   22.7519 C   0  0  0  0  0  0  0  0  0  0  0  0
  -29.9225  -25.2977   18.1522 C   0  0  0  0  0  0  0  0  0  0  0  0
  -16.2581  -24.8691   21.0230 C   0  0  0  0  0  0  0  0  0  0  0  0
  -22.3123  -28.0176   23.7247 C   0  0  0  0  0  0  0  0  0  0  0  0
  -29.5375  -23.9901   18.4006 C   0  0  0  0  0  0  0  0  0  0  0  0
  -24.0421  -28.2447   25.0631 C   0  0  0  0  0  0  0  0  0  0  0  0
  -21.9743  -27.4265   26.2048 C   0  0  0  0  0  0  0  0  0  0  0  0
  -31.2711  -19.5752   18.9039 C   0  0  0  0  0  0  0  0  0  0  0  0
  -31.2285  -20.7342   17.9516 C   0  0  0  0  0  0  0  0  0  0  0  0
  -24.7909  -13.9568   20.9626 C   0  0  0  0  0  0  0  0  0  0  0  0
  -22.9473  -16.5257   20.2387 C   0  0  0  0  0  0  0  0  0  0  0  0
  -22.7811  -19.8387   19.4366 C   0  0  0  0  0  0  0  0  0  0  0  0
  -28.2651  -28.3205   20.8363 C   0  0  0  0  0  0  0  0  0  0  0  0
  -22.3079   -9.6028   21.9296 C   0  0  0  0  0  0  0  0  0  0  0  0
  -25.6576  -15.6736   22.5928 C   0  0  0  0  0  0  0  0  0  0  0  0
  -25.4289  -16.7743   19.8576 C   0  0  0  0  0  0  0  0  0  0  0  0
  -22.0839  -10.8087   21.0208 C   0  0  0  0  0  0  0  0  0  0  0  0
  -27.1225  -31.0938   22.7549 C   0  0  0  0  0  0  0  0  0  0  0  0
  -23.3530  -11.1303   20.2380 C   0  0  0  0  0  0  0  0  0  0  0  0
  -25.7995  -30.6038   23.3480 C   0  0  0  0  0  0  0  0  0  0  0  0
  -27.3360  -30.5705   21.3356 C   0  0  0  0  0  0  0  0  0  0  0  0
  -25.8914  -28.6248   21.7788 C   0  0  0  0  0  0  0  0  0  0  0  0
  -24.5057  -11.4948   21.1813 C   0  0  1  0  0  0  0  0  0  0  0  0
  -24.5266  -15.2643   21.6543 C   0  0  1  0  0  0  0  0  0  0  0  0
  -25.6623  -29.0730   23.2315 C   0  0  2  0  0  0  0  0  0  0  0  0
  -29.1719  -22.6192   16.3079 C   0  0  0  0  0  0  0  0  0  0  0  0
  -21.1377  -21.6473   18.8660 C   0  0  0  0  0  0  0  0  0  0  0  0
  -22.6355  -15.3554   17.4382 C   0  0  0  0  0  0  0  0  0  0  0  0
  -21.8244  -17.5953   16.6680 C   0  0  0  0  0  0  0  0  0  0  0  0
  -20.5442  -16.3346   18.3984 C   0  0  0  0  0  0  0  0  0  0  0  0
  -23.5703  -21.4574   21.7852 C   0  0  0  0  0  0  0  0  0  0  0  0
  -30.0363  -18.7154   18.9798 C   0  0  0  0  0  0  0  0  0  1  0  0
  -30.0651  -22.8783   17.5195 C   0  0  2  0  0  0  0  0  0  0  0  0
  -22.7546  -17.3936   19.0186 C   0  0  1  0  0  0  0  0  0  0  0  0
  -21.9181  -20.9641   19.9781 C   0  0  2  0  0  0  0  0  0  0  0  0
  -21.9651  -16.6670   17.8933 C   0  0  0  0  0  0  0  0  0  0  0  0
  -28.7029  -23.6234   19.3989 N   0  0  0  0  0  0  0  0  0  0  0  0
  -23.2936  -28.4561   22.9317 N   0  0  0  0  0  0  0  0  0  0  0  0
  -24.3324  -28.5849   23.7746 N   0  0  0  0  0  0  0  0  0  0  0  0
  -24.2729  -16.2570   20.6083 N   0  0  0  0  0  0  0  0  0  0  0  0
  -27.1952  -29.1131   21.3031 N   0  0  0  0  0  0  0  0  0  0  0  0
  -24.9717  -28.3153   26.0394 N   0  0  0  0  0  0  0  0  0  0  0  0
  -20.6285  -27.0772   26.0284 N   0  0  0  0  0  0  0  0  0  0  0  0
  -28.0280  -26.9471   20.8824 N   0  0  0  0  0  0  0  0  0  0  0  0
  -30.2649  -21.6623   18.2730 N   0  0  0  0  0  0  0  0  0  0  0  0
  -24.3535  -12.8502   21.6652 N   0  0  0  0  0  0  0  0  0  0  0  0
  -22.1289  -18.6250   19.4881 N   0  0  0  0  0  0  0  0  0  0  0  0
  -22.7651  -21.9868   20.6546 N   0  3  0  0  0  0  0  0  0  0  0  0
  -22.4807  -27.3601   27.3506 O   0  0  0  0  0  0  0  0  0  0  0  0
  -32.3047  -19.3979   19.5310 O   0  0  0  0  0  0  0  0  0  0  0  0
  -32.0404  -20.7518   17.0399 O   0  0  0  0  0  0  0  0  0  0  0  0
  -25.3490  -13.9524   19.8717 O   0  0  0  0  0  0  0  0  0  0  0  0
  -21.9582  -16.1078   20.8458 O   0  0  0  0  0  0  0  0  0  0  0  0
  -23.9184  -20.0190   19.0072 O   0  0  0  0  0  0  0  0  0  0  0  0
  -29.3246  -28.8220   20.4516 O   0  0  0  0  0  0  0  0  0  0  0  0
  -17.2404  -26.9887   21.6071 O   0  0  0  0  0  0  0  0  0  0  0  0
  -30.2400  -17.6620   19.9206 O   0  0  0  0  0  0  0  0  0  1  0  0
  -14.7390  -22.3134   23.1201 F   0  0  0  0  0  0  0  0  0  0  0  0
  -30.7525  -25.6039   17.1476 F   0  0  0  0  0  0  0  0  0  0  0  0
  -16.5252  -25.0907   19.7286 F   0  0  0  0  0  0  0  0  0  0  0  0
  1  2  1  0  0  0  0
  1  5  2  0  0  0  0
  2  6  2  0  0  0  0
  3  8  2  0  0  0  0
  3 17  1  0  0  0  0
  4  9  1  0  0  0  0
  4 17  2  0  0  0  0
  5 19  1  0  0  0  0
  6 21  1  0  0  0  0
  7 10  2  0  0  0  0
  7 20  1  0  0  0  0
  8 24  1  0  0  0  0
  9 24  2  0  0  0  0
 10 25  1  0  0  0  0
 11 12  2  0  0  0  0
 11 26  1  0  0  0  0
 12 27  1  0  0  0  0
 13 22  1  0  0  0  0
 13 25  2  0  0  0  0
 14 23  2  0  0  0  0
 14 28  1  0  0  0  0
 15 27  2  0  0  0  0
 15 29  1  0  0  0  0
 16 23  1  0  0  0  0
 16 63  2  0  0  0  0
 17 30  1  0  0  0  0
 18 30  1  0  0  0  0
 18 32  2  0  0  0  0
 18 33  1  0  0  0  0
 19 21  2  0  0  0  0
 19 40  1  0  0  0  0
 20 22  2  0  0  0  0
 20 41  1  0  0  0  0
 21 49  1  0  0  0  0
 22 42  1  0  0  0  0
 23 70  1  0  0  0  0
 24 82  1  0  0  0  0
 25 83  1  0  0  0  0
 26 29  2  0  0  0  0
 26 82  1  0  0  0  0
 27 84  1  0  0  0  0
 28 31  2  0  0  0  0
 28 85  1  0  0  0  0
 29 86  1  0  0  0  0
 30 64  2  0  0  0  0
 31 59  1  0  0  0  0
 31 63  1  0  0  0  0
 32 65  1  0  0  0  0
 32 68  1  0  0  0  0
 33 69  1  0  0  0  0
 33 75  2  0  0  0  0
 34 35  1  0  0  0  0
 34 58  1  0  0  0  0
 34 76  2  0  0  0  0
 35 71  1  0  0  0  0
 35 77  2  0  0  0  0
 36 50  1  0  0  0  0
 36 72  1  0  0  0  0
 36 78  2  0  0  0  0
 37 60  1  0  0  0  0
 37 66  1  0  0  0  0
 37 79  2  0  0  0  0
 38 61  1  0  0  0  0
 38 73  1  0  0  0  0
 38 80  2  0  0  0  0
 39 67  1  0  0  0  0
 39 70  1  0  0  0  0
 39 81  2  0  0  0  0
 40 43  1  0  0  0  0
 41 50  1  0  0  0  0
 42 66  1  0  0  0  0
 43 45  1  0  0  0  0
 44 46  1  0  0  0  0
 44 47  1  0  0  0  0
 45 49  1  0  0  0  0
 46 51  1  0  0  0  0
 47 67  1  0  0  0  0
 48 51  1  0  0  0  0
 48 67  1  0  0  0  0
 49 72  1  0  0  0  0
 50 66  1  0  0  0  0
 51 65  1  0  0  0  0
 52 59  1  0  0  0  0
 53 61  1  0  0  0  0
 54 62  1  0  0  0  0
 55 62  1  0  0  0  0
 56 62  1  0  0  0  0
 57 74  1  0  0  0  0
 58 83  1  0  0  0  0
 59 71  1  0  0  0  0
 60 62  1  0  0  0  0
 60 73  1  0  0  0  0
 61 74  1  0  0  0  0
 64 65  1  0  0  0  0
M  CHG  1  74   1
M  ISO  4  39 100  58 101  70 100  83 101
M  END
> <Batch ID>
0171

> <Smiles>
CNC(C)C(=O)NC(C(=O)N1Cc2cc([101O:1][101CH2:1]C(=O)C(=O)NC(C)c3ncc([100NH:0][100C:0](=O)N4CCCC(n5nc(-c6ccc(Oc7ccc(F)cc7F)cc6)c(C(N)=O)c5N)C4)cc3F)ccc2CC1C(=O)NC1CCCc2ccccc21)C(C)(C)C

> <Shape>
0.227

> <Color>
0.063

> <Negative vol penalty>
0.000

$$$$

  -OEChem-04052304233D

 88 97  0     1  0  0  0  0  0999 V2000
  -19.4745  -28.8938   22.7769 C   0  0  0  0  0  0  0  0  0  0  0  0
  -20.7034  -28.2434   22.7322 C   0  0  0  0  0  0  0  0  0  0  0  0
  -22.8137  -10.5685   21.8944 C   0  0  0  0  0  0  0  0  0  0  0  0
  -23.4120  -12.7521   22.7376 C   0  0  0  0  0  0  0  0  0  0  0  0
  -18.2955  -28.1650   22.6265 C   0  0  0  0  0  0  0  0  0  0  0  0
  -20.7540  -26.8635   22.5380 C   0  0  0  0  0  0  0  0  0  0  0  0
  -24.2697  -25.5051   19.1558 C   0  0  0  0  0  0  0  0  0  0  0  0
  -21.9680  -10.3783   22.9871 C   0  0  0  0  0  0  0  0  0  0  0  0
  -22.5662  -12.5619   23.8303 C   0  0  0  0  0  0  0  0  0  0  0  0
  -25.5951  -25.4856   19.5880 C   0  0  0  0  0  0  0  0  0  0  0  0
  -20.2893  -12.7994   26.6548 C   0  0  0  0  0  0  0  0  0  0  0  0
  -19.4530  -13.8543   27.0199 C   0  0  0  0  0  0  0  0  0  0  0  0
  -25.4644  -23.0924   19.8616 C   0  0  0  0  0  0  0  0  0  0  0  0
  -18.4145  -13.7855   24.8396 C   0  0  0  0  0  0  0  0  0  0  0  0
  -28.8350  -18.2569   20.3030 C   0  0  0  0  0  0  0  0  0  0  0  0
  -23.5358  -11.7555   21.7696 C   0  0  0  0  0  0  0  0  0  0  0  0
  -24.0531  -11.9555   19.2796 C   0  0  0  0  0  0  0  0  0  0  0  0
  -18.3320  -26.7768   22.4208 C   0  0  0  0  0  0  0  0  0  0  0  0
  -23.5271  -24.3177   19.0836 C   0  0  0  0  0  0  0  0  0  0  0  0
  -19.5744  -26.1152   22.3861 C   0  0  0  0  0  0  0  0  0  0  0  0
  -24.1306  -23.0992   19.4258 C   0  0  0  0  0  0  0  0  0  0  0  0
  -21.8442  -11.3750   23.9550 C   0  0  0  0  0  0  0  0  0  0  0  0
  -26.1918  -24.2796   19.9437 C   0  0  0  0  0  0  0  0  0  0  0  0
  -20.1883  -12.2375   25.3820 C   0  0  0  0  0  0  0  0  0  0  0  0
  -18.5156  -14.3473   26.1123 C   0  0  0  0  0  0  0  0  0  0  0  0
  -19.2508  -12.7306   24.4744 C   0  0  0  0  0  0  0  0  0  0  0  0
  -24.4101  -11.9523   20.6414 C   0  0  0  0  0  0  0  0  0  0  0  0
  -30.3662  -19.9269   19.9932 C   0  0  0  0  0  0  0  0  0  0  0  0
  -29.8335  -17.3170   20.1724 C   0  0  0  0  0  0  0  0  0  0  0  0
  -31.3650  -18.9871   19.8634 C   0  0  0  0  0  0  0  0  0  0  0  0
  -25.2338  -12.1821   18.6156 C   0  0  0  0  0  0  0  0  0  0  0  0
  -22.7689  -11.7702   18.6695 C   0  0  0  0  0  0  0  0  0  0  0  0
  -20.8948  -23.2291   20.4941 C   0  0  0  0  0  0  0  0  0  0  0  0
  -21.2743  -20.7616   18.4229 C   0  0  0  0  0  0  0  0  0  0  0  0
  -24.0128  -18.7804   17.1608 C   0  0  0  0  0  0  0  0  0  0  0  0
  -30.3474  -14.8508   20.1758 C   0  0  0  0  0  0  0  0  0  0  0  0
  -17.0294  -26.0247   22.3107 C   0  0  0  0  0  0  0  0  0  0  0  0
  -22.1067  -24.3522   18.5899 C   0  0  0  0  0  0  0  0  0  0  0  0
  -23.3829  -21.7941   19.3466 C   0  0  0  0  0  0  0  0  0  0  0  0
  -17.1841  -24.6196   21.7344 C   0  0  0  0  0  0  0  0  0  0  0  0
  -31.4695  -23.4419   21.2998 C   0  0  0  0  0  0  0  0  0  0  0  0
  -29.9557  -11.5013   19.0338 C   0  0  0  0  0  0  0  0  0  0  0  0
  -18.3464  -23.8931   22.4037 C   0  0  0  0  0  0  0  0  0  0  0  0
  -31.1252  -21.9516   21.2606 C   0  0  0  0  0  0  0  0  0  0  0  0
  -29.5027  -22.1807   19.2505 C   0  0  0  0  0  0  0  0  0  0  0  0
  -28.4557  -11.2392   19.1868 C   0  0  0  0  0  0  0  0  0  0  0  0
  -30.2285  -24.3322   21.2217 C   0  0  0  0  0  0  0  0  0  0  0  0
  -29.9050  -23.5717   18.7596 C   0  0  0  0  0  0  0  0  0  0  0  0
  -30.4980  -12.3705   20.1670 C   0  0  0  0  0  0  0  0  0  0  0  0
  -28.2762  -13.3689   20.5356 C   0  0  0  0  0  0  0  0  0  0  0  0
  -19.6713  -24.6231   22.1525 C   0  0  1  0  0  0  0  0  0  0  0  0
  -30.6797  -21.4150   19.8891 C   0  0  2  0  0  0  0  0  0  0  0  0
  -21.2864  -23.1494   19.0457 C   0  0  1  0  0  0  0  0  0  0  0  0
  -27.6714  -12.5515   19.3824 C   0  0  2  0  0  0  0  0  0  0  0  0
  -29.7869  -24.7016   19.7963 C   0  0  1  0  0  0  0  0  0  0  0  0
  -24.2687  -17.5449   14.9916 C   0  0  0  0  0  0  0  0  0  0  0  0
  -20.2324  -18.3655   19.9987 C   0  0  0  0  0  0  0  0  0  0  0  0
  -21.8493  -16.9247   18.7425 C   0  0  0  0  0  0  0  0  0  0  0  0
  -20.0497  -18.1398   17.5147 C   0  0  0  0  0  0  0  0  0  0  0  0
  -26.5306  -20.1966   16.5174 C   0  0  0  0  0  0  0  0  0  0  0  0
  -30.2988  -26.1782   18.0410 C   0  0  0  0  0  0  0  0  0  0  0  0
  -28.3569  -25.2583   19.8417 C   0  0  0  0  0  0  0  0  0  1  0  0
  -22.0028  -19.4398   18.4567 C   0  0  1  0  0  0  0  0  0  0  0  0
  -24.5910  -18.8184   15.7577 C   0  0  2  0  0  0  0  0  0  0  0  0
  -21.0427  -18.2399   18.6931 C   0  0  0  0  0  0  0  0  0  0  0  0
  -29.0834  -19.5787   20.2156 N   0  0  0  0  0  0  0  0  0  0  0  0
  -25.7155  -12.1603   20.8326 N   0  0  0  0  0  0  0  0  0  0  0  0
  -31.1165  -17.6653   19.9503 N   0  0  0  0  0  0  0  0  0  0  0  0
  -26.1892  -12.2962   19.5823 N   0  0  0  0  0  0  0  0  0  0  0  0
  -21.9947  -21.8807   18.8640 N   0  0  0  0  0  0  0  0  0  0  0  0
  -29.7088  -13.5979   20.2904 N   0  0  0  0  0  0  0  0  0  0  0  0
  -25.5377  -12.2929   17.3050 N   0  0  0  0  0  0  0  0  0  0  0  0
  -21.9688  -12.8980   18.4408 N   0  0  0  0  0  0  0  0  0  0  0  0
  -29.4905  -15.9462   20.2776 N   0  0  0  0  0  0  0  0  0  0  0  0
  -20.1534  -24.3499   20.8156 N   0  0  0  0  0  0  0  0  0  0  0  0
  -22.7632  -19.3609   17.2142 N   0  0  0  0  0  0  0  0  0  0  0  0
  -26.0723  -18.9722   15.8118 N   0  3  0  0  0  0  0  0  0  0  0  0
  -22.3367  -10.6362   18.3519 O   0  0  0  0  0  0  0  0  0  0  0  0
  -21.2386  -22.3388   21.2628 O   0  0  0  0  0  0  0  0  0  0  0  0
  -20.1115  -20.8009   18.0132 O   0  0  0  0  0  0  0  0  0  0  0  0
  -24.6084  -18.2820   18.1133 O   0  0  0  0  0  0  0  0  0  0  0  0
  -31.5608  -14.9446   19.9732 O   0  0  0  0  0  0  0  0  0  0  0  0
  -21.0188  -11.1898   25.0213 O   0  0  0  0  0  0  0  0  0  0  0  0
  -27.4851  -24.2578   20.3665 O   0  0  0  0  0  0  0  0  0  1  0  0
  -30.6370  -25.7713   19.3543 O   0  0  0  0  0  0  0  0  0  0  0  0
  -17.7115  -15.3594   26.4636 F   0  0  0  0  0  0  0  0  0  0  0  0
  -19.1483  -12.1942   23.2507 F   0  0  0  0  0  0  0  0  0  0  0  0
  -32.6295  -19.3761   19.6434 F   0  0  0  0  0  0  0  0  0  0  0  0
  1  2  1  0  0  0  0
  1  5  2  0  0  0  0
  2  6  2  0  0  0  0
  3  8  2  0  0  0  0
  3 16  1  0  0  0  0
  4  9  1  0  0  0  0
  4 16  2  0  0  0  0
  5 18  1  0  0  0  0
  6 20  1  0  0  0  0
  7 10  2  0  0  0  0
  7 19  1  0  0  0  0
  8 22  1  0  0  0  0
  9 22  2  0  0  0  0
 10 23  1  0  0  0  0
 11 12  2  0  0  0  0
 11 24  1  0  0  0  0
 12 25  1  0  0  0  0
 13 21  1  0  0  0  0
 13 23  2  0  0  0  0
 14 25  2  0  0  0  0
 14 26  1  0  0  0  0
 15 29  1  0  0  0  0
 15 66  2  0  0  0  0
 16 27  1  0  0  0  0
 17 27  1  0  0  0  0
 17 31  2  0  0  0  0
 17 32  1  0  0  0  0
 18 20  2  0  0  0  0
 18 37  1  0  0  0  0
 19 21  2  0  0  0  0
 19 38  1  0  0  0  0
 20 51  1  0  0  0  0
 21 39  1  0  0  0  0
 22 83  1  0  0  0  0
 23 84  1  0  0  0  0
 24 26  2  0  0  0  0
 24 83  1  0  0  0  0
 25 86  1  0  0  0  0
 26 87  1  0  0  0  0
 27 67  2  0  0  0  0
 28 30  2  0  0  0  0
 28 52  1  0  0  0  0
 28 66  1  0  0  0  0
 29 68  2  0  0  0  0
 29 74  1  0  0  0  0
 30 68  1  0  0  0  0
 30 88  1  0  0  0  0
 31 69  1  0  0  0  0
 31 72  1  0  0  0  0
 32 73  1  0  0  0  0
 32 78  2  0  0  0  0
 33 53  1  0  0  0  0
 33 75  1  0  0  0  0
 33 79  2  0  0  0  0
 34 63  1  0  0  0  0
 34 70  1  0  0  0  0
 34 80  2  0  0  0  0
 35 64  1  0  0  0  0
 35 76  1  0  0  0  0
 35 81  2  0  0  0  0
 36 71  1  0  0  0  0
 36 74  1  0  0  0  0
 36 82  2  0  0  0  0
 37 40  1  0  0  0  0
 38 53  1  0  0  0  0
 39 70  1  0  0  0  0
 40 43  1  0  0  0  0
 41 44  1  0  0  0  0
 41 47  1  0  0  0  0
 42 46  1  0  0  0  0
 42 49  1  0  0  0  0
 43 51  1  0  0  0  0
 44 52  1  0  0  0  0
 45 48  1  0  0  0  0
 45 52  1  0  0  0  0
 46 54  1  0  0  0  0
 47 55  1  0  0  0  0
 48 55  1  0  0  0  0
 49 71  1  0  0  0  0
 50 54  1  0  0  0  0
 50 71  1  0  0  0  0
 51 75  1  0  0  0  0
 53 70  1  0  0  0  0
 54 69  1  0  0  0  0
 55 62  1  0  0  0  0
 55 85  1  0  0  0  0
 56 64  1  0  0  0  0
 57 65  1  0  0  0  0
 58 65  1  0  0  0  0
 59 65  1  0  0  0  0
 60 77  1  0  0  0  0
 61 85  1  0  0  0  0
 62 84  1  0  0  0  0
 63 65  1  0  0  0  0
 63 76  1  0  0  0  0
 64 77  1  0  0  0  0
 67 69  1  0  0  0  0
M  CHG  1  77   1
M  ISO  4  36 100  62 101  74 100  84 101
M  END
> <Batch ID>
0171

> <Smiles>
CNC(C)C(=O)NC(C(=O)N1Cc2cc([101O:1][101CH2:1]C3(OC)CCCC(c4ncc([100NH:0][100C:0](=O)N5CCCC(n6nc(-c7ccc(Oc8ccc(F)cc8F)cc7)c(C(N)=O)c6N)C5)nc4F)CC3)ccc2CC1C(=O)NC1CCCc2ccccc21)C(C)(C)C

> <Shape>
0.199

> <Color>
0.106

> <Negative vol penalty>
0.000

$$$$

  -OEChem-04052304233D

 84 92  0     1  0  0  0  0  0999 V2000
  -27.0344  -34.7763   24.2913 C   0  0  0  0  0  0  0  0  0  0  0  0
  -27.3990  -33.5133   23.8361 C   0  0  0  0  0  0  0  0  0  0  0  0
  -23.8594  -13.4061   20.9624 C   0  0  0  0  0  0  0  0  0  0  0  0
  -26.2506  -13.7249   21.0954 C   0  0  0  0  0  0  0  0  0  0  0  0
  -25.7647  -34.9825   24.8290 C   0  0  0  0  0  0  0  0  0  0  0  0
  -26.4944  -32.4554   23.9194 C   0  0  0  0  0  0  0  0  0  0  0  0
  -26.3330  -29.6983   19.6747 C   0  0  0  0  0  0  0  0  0  0  0  0
  -24.0588  -12.1352   20.4232 C   0  0  0  0  0  0  0  0  0  0  0  0
  -26.4500  -12.4540   20.5563 C   0  0  0  0  0  0  0  0  0  0  0  0
  -27.3679  -28.7875   19.4673 C   0  0  0  0  0  0  0  0  0  0  0  0
  -24.8603   -9.0494   21.5493 C   0  0  0  0  0  0  0  0  0  0  0  0
  -24.0909   -8.0022   22.0561 C   0  0  0  0  0  0  0  0  0  0  0  0
  -25.9433  -27.0015   20.2420 C   0  0  0  0  0  0  0  0  0  0  0  0
  -23.1688   -7.6151   19.8568 C   0  0  0  0  0  0  0  0  0  0  0  0
  -24.9553  -14.2010   21.2984 C   0  0  0  0  0  0  0  0  0  0  0  0
  -24.6295  -15.8511   23.2164 C   0  0  0  0  0  0  0  0  0  0  0  0
  -24.8406  -33.9289   24.9101 C   0  0  0  0  0  0  0  0  0  0  0  0
  -25.0968  -29.2685   20.1784 C   0  0  0  0  0  0  0  0  0  0  0  0
  -25.2116  -32.6474   24.4600 C   0  0  0  0  0  0  0  0  0  0  0  0
  -24.8934  -27.9085   20.4525 C   0  0  0  0  0  0  0  0  0  0  0  0
  -25.3541  -11.6592   20.2202 C   0  0  0  0  0  0  0  0  0  0  0  0
  -27.1742  -27.4393   19.7537 C   0  0  0  0  0  0  0  0  0  0  0  0
  -24.7840   -9.3796   20.1962 C   0  0  0  0  0  0  0  0  0  0  0  0
  -23.2452   -7.2850   21.2099 C   0  0  0  0  0  0  0  0  0  0  0  0
  -23.9383   -8.6624   19.3499 C   0  0  0  0  0  0  0  0  0  0  0  0
  -24.7500  -15.5141   21.8549 C   0  0  0  0  0  0  0  0  0  0  0  0
  -29.9592  -23.4037   19.3873 C   0  0  0  0  0  0  0  0  0  0  0  0
  -24.4487  -17.2127   23.2184 C   0  0  0  0  0  0  0  0  0  0  0  0
  -30.7890  -22.4041   19.8502 C   0  0  0  0  0  0  0  0  0  0  0  0
  -28.4550  -21.8342   19.6773 C   0  0  0  0  0  0  0  0  0  0  0  0
  -24.6768  -15.0088   24.3757 C   0  0  0  0  0  0  0  0  0  0  0  0
  -30.4147  -24.7614   19.0042 C   0  0  0  0  0  0  0  0  0  0  0  0
  -23.4042  -29.8869   22.7969 C   0  0  0  0  0  0  0  0  0  0  0  0
  -21.1697  -28.0638   21.3117 C   0  0  0  0  0  0  0  0  0  0  0  0
  -20.4703  -25.6292   19.0246 C   0  0  0  0  0  0  0  0  0  0  0  0
  -25.9701  -21.5383   19.3870 C   0  0  0  0  0  0  0  0  0  0  0  0
  -23.4965  -34.1892   25.5427 C   0  0  0  0  0  0  0  0  0  0  0  0
  -23.9818  -30.2595   20.3713 C   0  0  0  0  0  0  0  0  0  0  0  0
  -23.5786  -27.3930   20.9758 C   0  0  0  0  0  0  0  0  0  0  0  0
  -22.4652  -33.1021   25.2510 C   0  0  0  0  0  0  0  0  0  0  0  0
  -22.6878  -20.7605   20.5265 C   0  0  0  0  0  0  0  0  0  0  0  0
  -23.0725  -31.7191   25.4643 C   0  0  0  0  0  0  0  0  0  0  0  0
  -22.8345  -19.3600   21.1258 C   0  0  0  0  0  0  0  0  0  0  0  0
  -23.5603  -20.9405   19.2855 C   0  0  0  0  0  0  0  0  0  0  0  0
  -25.1252  -19.2067   20.0693 C   0  0  0  0  0  0  0  0  0  0  0  0
  -24.2494  -31.4804   24.5107 C   0  0  1  0  0  0  0  0  0  0  0  0
  -22.9320  -29.7901   21.3738 C   0  0  1  0  0  0  0  0  0  0  0  0
  -24.3146  -18.9990   21.3591 C   0  0  2  0  0  0  0  0  0  0  0  0
  -31.2024  -24.6141   16.1021 C   0  0  0  0  0  0  0  0  0  0  0  0
  -18.5563  -24.3248   18.0591 C   0  0  0  0  0  0  0  0  0  0  0  0
  -21.0515  -26.3669   23.8448 C   0  0  0  0  0  0  0  0  0  0  0  0
  -19.8891  -24.5908   22.5171 C   0  0  0  0  0  0  0  0  0  0  0  0
  -18.8293  -26.8317   22.7958 C   0  0  0  0  0  0  0  0  0  0  0  0
  -20.9873  -26.6645   16.3007 C   0  0  0  0  0  0  0  0  0  0  0  0
  -30.6188  -25.8610   16.7564 C   0  0  0  0  0  0  0  0  0  0  0  0
  -29.1093  -26.8408   18.5076 C   0  0  0  0  0  0  0  0  0  1  0  0
  -20.8394  -26.5910   21.2814 C   0  0  1  0  0  0  0  0  0  0  0  0
  -19.4367  -25.5564   17.9152 C   0  0  2  0  0  0  0  0  0  0  0  0
  -29.6664  -25.5399   17.9217 C   0  0  2  0  0  0  0  0  0  0  0  0
  -20.1779  -26.1048   22.6018 C   0  0  0  0  0  0  0  0  0  0  0  0
  -24.6537  -16.5760   21.0504 N   0  0  0  0  0  0  0  0  0  0  0  0
  -28.6205  -23.0786   19.2871 N   0  0  0  0  0  0  0  0  0  0  0  0
  -24.4707  -17.5935   21.9090 N   0  0  0  0  0  0  0  0  0  0  0  0
  -22.5212  -28.4019   21.1537 N   0  0  0  0  0  0  0  0  0  0  0  0
  -24.9493  -20.5842   19.5829 N   0  0  0  0  0  0  0  0  0  0  0  0
  -24.2746  -18.1093   24.2125 N   0  0  0  0  0  0  0  0  0  0  0  0
  -32.1302  -22.4481   20.0436 N   0  0  0  0  0  0  0  0  0  0  0  0
  -24.8697  -13.6325   24.1940 N   0  0  0  0  0  0  0  0  0  0  0  0
  -27.2464  -21.0968   19.7346 N   0  0  0  0  0  0  0  0  0  0  0  0
  -23.7681  -31.1627   23.1834 N   0  0  0  0  0  0  0  0  0  0  0  0
  -20.0229  -26.3802   20.0910 N   0  0  0  0  0  0  0  0  0  0  0  0
  -20.1073  -25.5020   16.5854 N   0  3  0  0  0  0  0  0  0  0  0  0
  -24.5354  -15.4609   25.5372 O   0  0  0  0  0  0  0  0  0  0  0  0
  -31.4147  -25.2178   19.5567 O   0  0  0  0  0  0  0  0  0  0  0  0
  -23.4347  -28.8790   23.4933 O   0  0  0  0  0  0  0  0  0  0  0  0
  -20.2611  -28.8843   21.4626 O   0  0  0  0  0  0  0  0  0  0  0  0
  -21.5636  -25.0723   18.9541 O   0  0  0  0  0  0  0  0  0  0  0  0
  -25.7262  -22.6732   18.9692 O   0  0  0  0  0  0  0  0  0  0  0  0
  -25.5491  -10.4190   19.6944 O   0  0  0  0  0  0  0  0  0  0  0  0
  -28.1829  -26.5483   19.5528 O   0  0  0  0  0  0  0  0  0  1  0  0
  -22.5075   -6.2784   21.6964 F   0  0  0  0  0  0  0  0  0  0  0  0
  -23.8616   -8.9742   18.0489 F   0  0  0  0  0  0  0  0  0  0  0  0
  -28.6166  -24.8427   17.3956 F   0  0  0  0  0  0  0  0  0  0  0  0
  -29.8663  -20.9962   20.1783 S   0  0  0  0  0  0  0  0  0  0  0  0
  1  2  1  0  0  0  0
  1  5  2  0  0  0  0
  2  6  2  0  0  0  0
  3  8  2  0  0  0  0
  3 15  1  0  0  0  0
  4  9  1  0  0  0  0
  4 15  2  0  0  0  0
  5 17  1  0  0  0  0
  6 19  1  0  0  0  0
  7 10  2  0  0  0  0
  7 18  1  0  0  0  0
  8 21  1  0  0  0  0
  9 21  2  0  0  0  0
 10 22  1  0  0  0  0
 11 12  2  0  0  0  0
 11 23  1  0  0  0  0
 12 24  1  0  0  0  0
 13 20  1  0  0  0  0
 13 22  2  0  0  0  0
 14 24  2  0  0  0  0
 14 25  1  0  0  0  0
 15 26  1  0  0  0  0
 16 26  1  0  0  0  0
 16 28  2  0  0  0  0
 16 31  1  0  0  0  0
 17 19  2  0  0  0  0
 17 37  1  0  0  0  0
 18 20  2  0  0  0  0
 18 38  1  0  0  0  0
 19 46  1  0  0  0  0
 20 39  1  0  0  0  0
 21 79  1  0  0  0  0
 22 80  1  0  0  0  0
 23 25  2  0  0  0  0
 23 79  1  0  0  0  0
 24 81  1  0  0  0  0
 25 82  1  0  0  0  0
 26 61  2  0  0  0  0
 27 29  2  0  0  0  0
 27 32  1  0  0  0  0
 27 62  1  0  0  0  0
 28 63  1  0  0  0  0
 28 66  1  0  0  0  0
 29 67  1  0  0  0  0
 29 84  1  0  0  0  0
 30 62  2  0  0  0  0
 30 69  1  0  0  0  0
 30 84  1  0  0  0  0
 31 68  1  0  0  0  0
 31 73  2  0  0  0  0
 32 59  1  0  0  0  0
 32 74  2  0  0  0  0
 33 47  1  0  0  0  0
 33 70  1  0  0  0  0
 33 75  2  0  0  0  0
 34 57  1  0  0  0  0
 34 64  1  0  0  0  0
 34 76  2  0  0  0  0
 35 58  1  0  0  0  0
 35 71  1  0  0  0  0
 35 77  2  0  0  0  0
 36 65  1  0  0  0  0
 36 69  1  0  0  0  0
 36 78  2  0  0  0  0
 37 40  1  0  0  0  0
 38 47  1  0  0  0  0
 39 64  1  0  0  0  0
 40 42  1  0  0  0  0
 41 43  1  0  0  0  0
 41 44  1  0  0  0  0
 42 46  1  0  0  0  0
 43 48  1  0  0  0  0
 44 65  1  0  0  0  0
 45 48  1  0  0  0  0
 45 65  1  0  0  0  0
 46 70  1  0  0  0  0
 47 64  1  0  0  0  0
 48 63  1  0  0  0  0
 49 55  1  0  0  0  0
 50 58  1  0  0  0  0
 51 60  1  0  0  0  0
 52 60  1  0  0  0  0
 53 60  1  0  0  0  0
 54 72  1  0  0  0  0
 55 59  1  0  0  0  0
 56 59  1  0  0  0  0
 56 80  1  0  0  0  0
 57 60  1  0  0  0  0
 57 71  1  0  0  0  0
 58 72  1  0  0  0  0
 59 83  1  0  0  0  0
 61 63  1  0  0  0  0
M  CHG  1  72   1
M  ISO  4  36 100  56 101  69 100  80 101
M  END
> <Batch ID>
0171

> <Smiles>
CCC(F)(C(=O)c1nc([100NH:0][100C:0](=O)N2CCCC(n3nc(-c4ccc(Oc5ccc(F)cc5F)cc4)c(C(N)=O)c3N)C2)sc1N)[101CH2:1][101O:1]c1ccc2c(c1)CN(C(=O)C(NC(=O)C(C)NC)C(C)(C)C)C(C(=O)NC1CCCc3ccccc31)C2

> <Shape>
0.264

> <Color>
0.099

> <Negative vol penalty>
0.000

$$$$

  -OEChem-04052304233D

 86 94  0     1  0  0  0  0  0999 V2000
  -19.3336  -24.3954   22.9720 C   0  0  0  0  0  0  0  0  0  0  0  0
  -20.3795  -24.5982   22.0773 C   0  0  0  0  0  0  0  0  0  0  0  0
  -25.2372  -14.5585   19.7920 C   0  0  0  0  0  0  0  0  0  0  0  0
  -25.7494  -14.9029   17.4562 C   0  0  0  0  0  0  0  0  0  0  0  0
  -18.6142  -25.4853   23.4603 C   0  0  0  0  0  0  0  0  0  0  0  0
  -20.7058  -25.8911   21.6694 C   0  0  0  0  0  0  0  0  0  0  0  0
  -26.2942  -28.0506   20.3996 C   0  0  0  0  0  0  0  0  0  0  0  0
  -24.1618  -13.7445   19.4362 C   0  0  0  0  0  0  0  0  0  0  0  0
  -24.6740  -14.0889   17.1003 C   0  0  0  0  0  0  0  0  0  0  0  0
  -26.9757  -28.2406   19.1983 C   0  0  0  0  0  0  0  0  0  0  0  0
  -22.2825  -11.8103   15.5816 C   0  0  0  0  0  0  0  0  0  0  0  0
  -22.4909  -10.8588   14.5832 C   0  0  0  0  0  0  0  0  0  0  0  0
  -26.2765  -30.5492   19.1736 C   0  0  0  0  0  0  0  0  0  0  0  0
  -30.2705  -23.6882   15.8996 C   0  0  0  0  0  0  0  0  0  0  0  0
  -24.2140   -9.8271   15.9263 C   0  0  0  0  0  0  0  0  0  0  0  0
  -31.7551  -22.1711   14.0893 C   0  0  0  0  0  0  0  0  0  0  0  0
  -26.0310  -15.1377   18.8020 C   0  0  0  0  0  0  0  0  0  0  0  0
  -28.4711  -15.5787   19.4011 C   0  0  0  0  0  0  0  0  0  0  0  0
  -18.9381  -26.7930   23.0657 C   0  0  0  0  0  0  0  0  0  0  0  0
  -25.5884  -29.1075   20.9924 C   0  0  0  0  0  0  0  0  0  0  0  0
  -19.9892  -26.9995   22.1518 C   0  0  0  0  0  0  0  0  0  0  0  0
  -25.5889  -30.3707   20.3838 C   0  0  0  0  0  0  0  0  0  0  0  0
  -30.5049  -22.3362   16.1501 C   0  0  0  0  0  0  0  0  0  0  0  0
  -30.7783  -24.2817   14.7439 C   0  0  0  0  0  0  0  0  0  0  0  0
  -23.8803  -13.5097   18.0904 C   0  0  0  0  0  0  0  0  0  0  0  0
  -26.9645  -29.4892   18.5836 C   0  0  0  0  0  0  0  0  0  0  0  0
  -23.0398  -11.7703   16.7523 C   0  0  0  0  0  0  0  0  0  0  0  0
  -23.4566   -9.8672   14.7555 C   0  0  0  0  0  0  0  0  0  0  0  0
  -31.2472  -21.5777   15.2450 C   0  0  0  0  0  0  0  0  0  0  0  0
  -31.5206  -23.5231   13.8388 C   0  0  0  0  0  0  0  0  0  0  0  0
  -24.0055  -10.7787   16.9246 C   0  0  0  0  0  0  0  0  0  0  0  0
  -27.1416  -15.9791   19.1689 C   0  0  0  0  0  0  0  0  0  0  0  0
  -29.1299  -16.7419   19.7163 C   0  0  0  0  0  0  0  0  0  0  0  0
  -29.0580  -14.2721   19.3376 C   0  0  0  0  0  0  0  0  0  0  0  0
  -29.7340  -27.8729   14.7989 C   0  0  0  0  0  0  0  0  0  0  0  0
  -28.9766  -28.9383   15.5670 C   0  0  0  0  0  0  0  0  0  0  0  0
  -22.5414  -29.6373   21.7266 C   0  0  0  0  0  0  0  0  0  0  0  0
  -23.7463  -32.3079   23.1188 C   0  0  0  0  0  0  0  0  0  0  0  0
  -26.2548  -34.6169   23.2690 C   0  0  0  0  0  0  0  0  0  0  0  0
  -29.2311  -22.3464   18.3235 C   0  0  0  0  0  0  0  0  0  0  0  0
  -18.1014  -27.9359   23.5837 C   0  0  0  0  0  0  0  0  0  0  0  0
  -24.8805  -28.8933   22.3021 C   0  0  0  0  0  0  0  0  0  0  0  0
  -24.8632  -31.5432   20.9897 C   0  0  0  0  0  0  0  0  0  0  0  0
  -18.7523  -29.3033   23.3918 C   0  0  0  0  0  0  0  0  0  0  0  0
  -27.7404  -21.2019   21.3476 C   0  0  0  0  0  0  0  0  0  0  0  0
  -19.3041  -29.4378   21.9761 C   0  0  0  0  0  0  0  0  0  0  0  0
  -27.5634  -19.6992   21.1184 C   0  0  0  0  0  0  0  0  0  0  0  0
  -27.4969  -22.0030   20.0698 C   0  0  0  0  0  0  0  0  0  0  0  0
  -28.1001  -20.0634   18.6758 C   0  0  0  0  0  0  0  0  0  0  0  0
  -20.3893  -28.3888   21.7049 C   0  0  1  0  0  0  0  0  0  0  0  0
  -23.7675  -29.9062   22.5524 C   0  0  1  0  0  0  0  0  0  0  0  0
  -28.3986  -19.2097   19.9191 C   0  0  2  0  0  0  0  0  0  0  0  0
  -26.9411  -36.7039   24.4817 C   0  0  0  0  0  0  0  0  0  0  0  0
  -21.7338  -33.9166   21.4841 C   0  0  0  0  0  0  0  0  0  0  0  0
  -23.0694  -35.9723   21.9924 C   0  0  0  0  0  0  0  0  0  0  0  0
  -22.0097  -34.6851   23.8479 C   0  0  0  0  0  0  0  0  0  0  0  0
  -28.7048  -33.3363   24.3258 C   0  0  0  0  0  0  0  0  0  0  0  0
  -29.7892  -26.4828   15.3781 C   0  0  0  0  0  0  0  0  0  0  0  0
  -28.3156  -28.5515   16.8657 C   0  0  0  0  0  0  0  0  0  1  0  0
  -24.0230  -33.7198   22.6618 C   0  0  1  0  0  0  0  0  0  0  0  0
  -27.0308  -35.1863   24.4430 C   0  0  2  0  0  0  0  0  0  0  0  0
  -22.7212  -34.5511   22.4839 C   0  0  0  0  0  0  0  0  0  0  0  0
  -26.9646  -17.2940   19.3234 N   0  0  0  0  0  0  0  0  0  0  0  0
  -28.1915  -17.7298   19.6563 N   0  0  0  0  0  0  0  0  0  0  0  0
  -24.1808  -31.2819   22.2678 N   0  0  0  0  0  0  0  0  0  0  0  0
  -28.3249  -21.4856   18.9783 N   0  0  0  0  0  0  0  0  0  0  0  0
  -30.4146  -17.0058   20.0361 N   0  0  0  0  0  0  0  0  0  0  0  0
  -28.2381  -13.1871   18.9986 N   0  0  0  0  0  0  0  0  0  0  0  0
  -29.9877  -21.7350   17.3243 N   0  0  0  0  0  0  0  0  0  0  0  0
  -30.5442  -25.6260   14.4974 N   0  0  0  0  0  0  0  0  0  0  0  0
  -21.6370  -28.7806   22.3246 N   0  0  0  0  0  0  0  0  0  0  0  0
  -24.9648  -34.2829   23.6233 N   0  0  0  0  0  0  0  0  0  0  0  0
  -28.4677  -34.8026   24.3491 N   0  3  0  0  0  0  0  0  0  0  0  0
  -30.2700  -14.0703   19.5905 O   0  0  0  0  0  0  0  0  0  0  0  0
  -30.2594  -28.2131   13.7463 O   0  0  0  0  0  0  0  0  0  0  0  0
  -28.9413  -30.0633   15.0851 O   0  0  0  0  0  0  0  0  0  0  0  0
  -22.4239  -30.1689   20.6287 O   0  0  0  0  0  0  0  0  0  0  0  0
  -23.1723  -32.1221   24.1947 O   0  0  0  0  0  0  0  0  0  0  0  0
  -26.7430  -34.4852   22.1488 O   0  0  0  0  0  0  0  0  0  0  0  0
  -29.3482  -23.5317   18.6452 O   0  0  0  0  0  0  0  0  0  0  0  0
  -22.8311  -12.7152   17.7428 O   0  0  0  0  0  0  0  0  0  0  0  0
  -27.6284  -29.6772   17.4107 O   0  0  0  0  0  0  0  0  0  1  0  0
  -23.6556   -8.9525   13.7974 F   0  0  0  0  0  0  0  0  0  0  0  0
  -31.4802  -20.2780   15.4768 F   0  0  0  0  0  0  0  0  0  0  0  0
  -32.0121  -24.0832   12.7242 F   0  0  0  0  0  0  0  0  0  0  0  0
  -24.7354  -10.7344   18.0476 F   0  0  0  0  0  0  0  0  0  0  0  0
  1  2  1  0  0  0  0
  1  5  2  0  0  0  0
  2  6  2  0  0  0  0
  3  8  2  0  0  0  0
  3 17  1  0  0  0  0
  4  9  1  0  0  0  0
  4 17  2  0  0  0  0
  5 19  1  0  0  0  0
  6 21  1  0  0  0  0
  7 10  2  0  0  0  0
  7 20  1  0  0  0  0
  8 25  1  0  0  0  0
  9 25  2  0  0  0  0
 10 26  1  0  0  0  0
 11 12  2  0  0  0  0
 11 27  1  0  0  0  0
 12 28  1  0  0  0  0
 13 22  1  0  0  0  0
 13 26  2  0  0  0  0
 14 23  2  0  0  0  0
 14 24  1  0  0  0  0
 15 28  2  0  0  0  0
 15 31  1  0  0  0  0
 16 29  2  0  0  0  0
 16 30  1  0  0  0  0
 17 32  1  0  0  0  0
 18 32  1  0  0  0  0
 18 33  2  0  0  0  0
 18 34  1  0  0  0  0
 19 21  2  0  0  0  0
 19 41  1  0  0  0  0
 20 22  2  0  0  0  0
 20 42  1  0  0  0  0
 21 50  1  0  0  0  0
 22 43  1  0  0  0  0
 23 29  1  0  0  0  0
 23 69  1  0  0  0  0
 24 30  2  0  0  0  0
 24 70  1  0  0  0  0
 25 81  1  0  0  0  0
 26 82  1  0  0  0  0
 27 31  2  0  0  0  0
 27 81  1  0  0  0  0
 28 83  1  0  0  0  0
 29 84  1  0  0  0  0
 30 85  1  0  0  0  0
 31 86  1  0  0  0  0
 32 63  2  0  0  0  0
 33 64  1  0  0  0  0
 33 67  1  0  0  0  0
 34 68  1  0  0  0  0
 34 74  2  0  0  0  0
 35 36  1  0  0  0  0
 35 58  1  0  0  0  0
 35 75  2  0  0  0  0
 36 59  1  0  0  0  0
 36 76  2  0  0  0  0
 37 51  1  0  0  0  0
 37 71  1  0  0  0  0
 37 77  2  0  0  0  0
 38 60  1  0  0  0  0
 38 65  1  0  0  0  0
 38 78  2  0  0  0  0
 39 61  1  0  0  0  0
 39 72  1  0  0  0  0
 39 79  2  0  0  0  0
 40 66  1  0  0  0  0
 40 69  1  0  0  0  0
 40 80  2  0  0  0  0
 41 44  1  0  0  0  0
 42 51  1  0  0  0  0
 43 65  1  0  0  0  0
 44 46  1  0  0  0  0
 45 47  1  0  0  0  0
 45 48  1  0  0  0  0
 46 50  1  0  0  0  0
 47 52  1  0  0  0  0
 48 66  1  0  0  0  0
 49 52  1  0  0  0  0
 49 66  1  0  0  0  0
 50 71  1  0  0  0  0
 51 65  1  0  0  0  0
 52 64  1  0  0  0  0
 53 61  1  0  0  0  0
 54 62  1  0  0  0  0
 55 62  1  0  0  0  0
 56 62  1  0  0  0  0
 57 73  1  0  0  0  0
 58 70  1  0  0  0  0
 59 82  1  0  0  0  0
 60 62  1  0  0  0  0
 60 72  1  0  0  0  0
 61 73  1  0  0  0  0
 63 64  1  0  0  0  0
M  CHG  1  73   1
M  ISO  4  40 100  59 101  69 100  82 101
M  END
> <Batch ID>
0171

> <Smiles>
CNC(C)C(=O)NC(C(=O)N1Cc2cc([101O:1][101CH2:1]C(=O)C(=O)CNc3cc([100NH:0][100C:0](=O)N4CCCC(n5nc(-c6ccc(Oc7ccc(F)cc7F)cc6)c(C(N)=O)c5N)C4)c(F)cc3F)ccc2CC1C(=O)NC1CCCc2ccccc21)C(C)(C)C

> <Shape>
0.230

> <Color>
0.111

> <Negative vol penalty>
0.000

$$$$

  -OEChem-04052304233D

 85 93  0     1  0  0  0  0  0999 V2000
  -18.7199  -26.6749   30.5741 C   0  0  0  0  0  0  0  0  0  0  0  0
  -19.9061  -26.1160   30.1094 C   0  0  0  0  0  0  0  0  0  0  0  0
  -23.0759   -9.8673   19.9405 C   0  0  0  0  0  0  0  0  0  0  0  0
  -23.8344   -9.8748   22.2343 C   0  0  0  0  0  0  0  0  0  0  0  0
  -17.8967  -25.9468   31.4320 C   0  0  0  0  0  0  0  0  0  0  0  0
  -20.2704  -24.8289   30.5033 C   0  0  0  0  0  0  0  0  0  0  0  0
  -21.9466  -22.0164   26.6401 C   0  0  0  0  0  0  0  0  0  0  0  0
  -31.3191  -19.0815   20.6068 C   0  0  0  0  0  0  0  0  0  0  0  0
  -31.1507  -17.6969   20.6000 C   0  0  0  0  0  0  0  0  0  0  0  0
  -22.3318   -8.7143   20.1903 C   0  0  0  0  0  0  0  0  0  0  0  0
  -23.0903   -8.7217   22.4841 C   0  0  0  0  0  0  0  0  0  0  0  0
  -23.2515  -22.2448   26.2053 C   0  0  0  0  0  0  0  0  0  0  0  0
  -19.8618   -7.9241   23.0850 C   0  0  0  0  0  0  0  0  0  0  0  0
  -19.1042   -7.8845   24.2554 C   0  0  0  0  0  0  0  0  0  0  0  0
  -23.9970  -20.3171   27.4492 C   0  0  0  0  0  0  0  0  0  0  0  0
  -29.5187  -17.8865   22.3713 C   0  0  0  0  0  0  0  0  0  0  0  0
  -20.3451   -5.9472   24.9930 C   0  0  0  0  0  0  0  0  0  0  0  0
  -23.8272  -10.4476   20.9625 C   0  0  0  0  0  0  0  0  0  0  0  0
  -24.1692  -12.9727   20.8421 C   0  0  0  0  0  0  0  0  0  0  0  0
  -18.2463  -24.6464   31.8289 C   0  0  0  0  0  0  0  0  0  0  0  0
  -21.6585  -20.9412   27.4929 C   0  0  0  0  0  0  0  0  0  0  0  0
  -19.4517  -24.0832   31.3684 C   0  0  0  0  0  0  0  0  0  0  0  0
  -22.6872  -20.0757   27.8913 C   0  0  0  0  0  0  0  0  0  0  0  0
  -30.5873  -19.8687   21.4960 C   0  0  0  0  0  0  0  0  0  0  0  0
  -30.2505  -17.0994   21.4822 C   0  0  0  0  0  0  0  0  0  0  0  0
  -29.6871  -19.2711   22.3782 C   0  0  0  0  0  0  0  0  0  0  0  0
  -22.3390   -8.1415   21.4621 C   0  0  0  0  0  0  0  0  0  0  0  0
  -24.2773  -21.3968   26.6122 C   0  0  0  0  0  0  0  0  0  0  0  0
  -20.8610   -6.9753   22.8684 C   0  0  0  0  0  0  0  0  0  0  0  0
  -19.3458   -6.8960   25.2095 C   0  0  0  0  0  0  0  0  0  0  0  0
  -21.1027   -5.9868   23.8225 C   0  0  0  0  0  0  0  0  0  0  0  0
  -24.5965  -11.6384   20.7050 C   0  0  0  0  0  0  0  0  0  0  0  0
  -25.2616  -13.7220   20.4793 C   0  0  0  0  0  0  0  0  0  0  0  0
  -26.1705  -20.6351   25.4691 C   0  0  0  0  0  0  0  0  0  1  0  0
  -22.8985  -13.4886   21.2602 C   0  0  0  0  0  0  0  0  0  0  0  0
  -27.4209  -20.7457   25.0045 C   0  0  0  0  0  0  0  0  0  0  0  0
  -28.0094  -19.6097   24.2224 C   0  0  0  0  0  0  0  0  0  0  0  0
  -20.4984  -20.6635   30.4392 C   0  0  0  0  0  0  0  0  0  0  0  0
  -20.5581  -17.4954   29.7453 C   0  0  0  0  0  0  0  0  0  0  0  0
  -21.8918  -14.9605   27.8899 C   0  0  0  0  0  0  0  0  0  0  0  0
  -30.7277  -14.7675   20.6570 C   0  0  0  0  0  0  0  0  0  0  0  0
  -17.3477  -23.9161   32.7953 C   0  0  0  0  0  0  0  0  0  0  0  0
  -20.2413  -20.6927   27.9314 C   0  0  0  0  0  0  0  0  0  0  0  0
  -22.4270  -18.8953   28.7899 C   0  0  0  0  0  0  0  0  0  0  0  0
  -17.6213  -22.4160   32.8667 C   0  0  0  0  0  0  0  0  0  0  0  0
  -29.6146  -12.3532   18.2886 C   0  0  0  0  0  0  0  0  0  0  0  0
  -19.1192  -22.1515   32.9820 C   0  0  0  0  0  0  0  0  0  0  0  0
  -28.1747  -12.0617   18.7174 C   0  0  0  0  0  0  0  0  0  0  0  0
  -30.5291  -12.5822   19.4907 C   0  0  0  0  0  0  0  0  0  0  0  0
  -28.6213  -13.3071   20.8707 C   0  0  0  0  0  0  0  0  0  0  0  0
  -19.8690  -22.6804   31.7534 C   0  0  1  0  0  0  0  0  0  0  0  0
  -20.1479  -19.8697   29.2126 C   0  0  1  0  0  0  0  0  0  0  0  0
  -27.6492  -13.1336   19.6924 C   0  0  2  0  0  0  0  0  0  0  0  0
  -29.6511  -22.0795   20.7733 C   0  0  0  0  0  0  0  0  0  0  0  0
  -21.7678  -12.4740   27.5745 C   0  0  0  0  0  0  0  0  0  0  0  0
  -22.1695  -17.0928   32.3049 C   0  0  0  0  0  0  0  0  0  0  0  0
  -22.8137  -14.8257   31.4600 C   0  0  0  0  0  0  0  0  0  0  0  0
  -20.4155  -15.3584   31.8928 C   0  0  0  0  0  0  0  0  0  0  0  0
  -21.0244  -15.2442   25.0746 C   0  0  0  0  0  0  0  0  0  0  0  0
  -30.7881  -21.3493   21.4812 C   0  0  0  0  0  0  0  0  0  0  0  0
  -21.5725  -16.3873   29.8941 C   0  0  1  0  0  0  0  0  0  0  0  0
  -21.2410  -13.8260   27.1193 C   0  0  2  0  0  0  0  0  0  0  0  0
  -21.7484  -15.9393   31.3726 C   0  0  0  0  0  0  0  0  0  0  0  0
  -25.8616  -11.5424   20.2874 N   0  0  0  0  0  0  0  0  0  0  0  0
  -26.2386  -12.8259   20.1590 N   0  0  0  0  0  0  0  0  0  0  0  0
  -21.0260  -18.6980   29.1970 N   0  0  0  0  0  0  0  0  0  0  0  0
  -29.9696  -13.6133   20.3675 N   0  0  0  0  0  0  0  0  0  0  0  0
  -25.4721  -15.0535   20.4061 N   0  0  0  0  0  0  0  0  0  0  0  0
  -21.8864  -12.5796   21.5971 N   0  0  0  0  0  0  0  0  0  0  0  0
  -28.9355  -20.0531   23.2882 N   0  0  0  0  0  0  0  0  0  0  0  0
  -30.0799  -15.6927   21.4748 N   0  0  0  0  0  0  0  0  0  0  0  0
  -19.7049  -21.7779   30.6340 N   0  0  0  0  0  0  0  0  0  0  0  0
  -21.1477  -15.3213   28.9933 N   0  0  0  0  0  0  0  0  0  0  0  0
  -21.5111  -13.9688   25.6606 N   0  3  0  0  0  0  0  0  0  0  0  0
  -22.6623  -14.7193   21.3171 O   0  0  0  0  0  0  0  0  0  0  0  0
  -27.6659  -18.4523   24.4372 O   0  0  0  0  0  0  0  0  0  0  0  0
  -21.4196  -20.2917   31.1567 O   0  0  0  0  0  0  0  0  0  0  0  0
  -19.3919  -17.2987   30.0959 O   0  0  0  0  0  0  0  0  0  0  0  0
  -22.9559  -15.4727   27.5494 O   0  0  0  0  0  0  0  0  0  0  0  0
  -31.8571  -14.9361   20.1900 O   0  0  0  0  0  0  0  0  0  0  0  0
  -28.1945  -21.8689   25.2156 O   0  0  0  0  0  0  0  0  0  0  0  0
  -21.6129   -7.0164   21.7062 O   0  0  0  0  0  0  0  0  0  0  0  0
  -25.5519  -21.6179   26.1898 O   0  0  0  0  0  0  0  0  0  1  0  0
  -18.6192   -6.8590   26.3341 F   0  0  0  0  0  0  0  0  0  0  0  0
  -22.0621   -5.0732   23.6206 F   0  0  0  0  0  0  0  0  0  0  0  0
  1  2  1  0  0  0  0
  1  5  2  0  0  0  0
  2  6  2  0  0  0  0
  3 10  2  0  0  0  0
  3 18  1  0  0  0  0
  4 11  1  0  0  0  0
  4 18  2  0  0  0  0
  5 20  1  0  0  0  0
  6 22  1  0  0  0  0
  7 12  2  0  0  0  0
  7 21  1  0  0  0  0
  8  9  2  0  0  0  0
  8 24  1  0  0  0  0
  9 25  1  0  0  0  0
 10 27  1  0  0  0  0
 11 27  2  0  0  0  0
 12 28  1  0  0  0  0
 13 14  2  0  0  0  0
 13 29  1  0  0  0  0
 14 30  1  0  0  0  0
 15 23  1  0  0  0  0
 15 28  2  0  0  0  0
 16 25  2  0  0  0  0
 16 26  1  0  0  0  0
 17 30  2  0  0  0  0
 17 31  1  0  0  0  0
 18 32  1  0  0  0  0
 19 32  1  0  0  0  0
 19 33  2  0  0  0  0
 19 35  1  0  0  0  0
 20 22  2  0  0  0  0
 20 42  1  0  0  0  0
 21 23  2  0  0  0  0
 21 43  1  0  0  0  0
 22 51  1  0  0  0  0
 23 44  1  0  0  0  0
 24 26  2  0  0  0  0
 24 60  1  0  0  0  0
 25 71  1  0  0  0  0
 26 70  1  0  0  0  0
 27 82  1  0  0  0  0
 28 83  1  0  0  0  0
 29 31  2  0  0  0  0
 29 82  1  0  0  0  0
 30 84  1  0  0  0  0
 31 85  1  0  0  0  0
 32 64  2  0  0  0  0
 33 65  1  0  0  0  0
 33 68  1  0  0  0  0
 34 36  2  0  0  0  0
 34 83  1  0  0  0  0
 35 69  1  0  0  0  0
 35 75  2  0  0  0  0
 36 37  1  0  0  0  0
 36 81  1  0  0  0  0
 37 70  1  0  0  0  0
 37 76  2  0  0  0  0
 38 52  1  0  0  0  0
 38 72  1  0  0  0  0
 38 77  2  0  0  0  0
 39 61  1  0  0  0  0
 39 66  1  0  0  0  0
 39 78  2  0  0  0  0
 40 62  1  0  0  0  0
 40 73  1  0  0  0  0
 40 79  2  0  0  0  0
 41 67  1  0  0  0  0
 41 71  1  0  0  0  0
 41 80  2  0  0  0  0
 42 45  1  0  0  0  0
 43 52  1  0  0  0  0
 44 66  1  0  0  0  0
 45 47  1  0  0  0  0
 46 48  1  0  0  0  0
 46 49  1  0  0  0  0
 47 51  1  0  0  0  0
 48 53  1  0  0  0  0
 49 67  1  0  0  0  0
 50 53  1  0  0  0  0
 50 67  1  0  0  0  0
 51 72  1  0  0  0  0
 52 66  1  0  0  0  0
 53 65  1  0  0  0  0
 54 60  1  0  0  0  0
 55 62  1  0  0  0  0
 56 63  1  0  0  0  0
 57 63  1  0  0  0  0
 58 63  1  0  0  0  0
 59 74  1  0  0  0  0
 61 63  1  0  0  0  0
 61 73  1  0  0  0  0
 62 74  1  0  0  0  0
 64 65  1  0  0  0  0
M  CHG  1  74   1
M  ISO  4  34 101  41 100  71 100  83 101
M  END
> <Batch ID>
0171

> <Smiles>
CCc1ccc([100NH:0][100C:0](=O)N2CCCC(n3nc(-c4ccc(Oc5ccc(F)cc5F)cc4)c(C(N)=O)c3N)C2)cc1NC(=O)C(=O)[101CH2:1][101O:1]c1ccc2c(c1)CN(C(=O)C(NC(=O)C(C)NC)C(C)(C)C)C(C(=O)NC1CCCc3ccccc31)C2

> <Shape>
0.182

> <Color>
0.184

> <Negative vol penalty>
0.000

$$$$

  -OEChem-04052304233D

 86 94  0     1  0  0  0  0  0999 V2000
  -20.3877  -25.8783   18.3370 C   0  0  0  0  0  0  0  0  0  0  0  0
  -21.2540  -25.5149   19.3632 C   0  0  0  0  0  0  0  0  0  0  0  0
  -22.8533  -10.0305   20.1011 C   0  0  0  0  0  0  0  0  0  0  0  0
  -23.5537  -10.1853   22.4082 C   0  0  0  0  0  0  0  0  0  0  0  0
  -19.9816  -27.2057   18.2063 C   0  0  0  0  0  0  0  0  0  0  0  0
  -21.7155  -26.4791   20.2586 C   0  0  0  0  0  0  0  0  0  0  0  0
  -21.5397  -24.9053   25.0688 C   0  0  0  0  0  0  0  0  0  0  0  0
  -32.2718  -16.2790   22.3963 C   0  0  0  0  0  0  0  0  0  0  0  0
  -22.0155   -8.9639   20.4270 C   0  0  0  0  0  0  0  0  0  0  0  0
  -22.7158   -9.1187   22.7341 C   0  0  0  0  0  0  0  0  0  0  0  0
  -22.5471  -24.0397   25.4927 C   0  0  0  0  0  0  0  0  0  0  0  0
  -22.7600   -5.7477   22.4786 C   0  0  0  0  0  0  0  0  0  0  0  0
  -32.9038  -17.1936   23.2388 C   0  0  0  0  0  0  0  0  0  0  0  0
  -23.2752   -4.7472   23.3027 C   0  0  0  0  0  0  0  0  0  0  0  0
  -23.6943  -25.8918   26.5285 C   0  0  0  0  0  0  0  0  0  0  0  0
  -30.1467  -17.3395   22.8392 C   0  0  0  0  0  0  0  0  0  0  0  0
  -21.5503   -5.2012   24.9323 C   0  0  0  0  0  0  0  0  0  0  0  0
  -23.6224  -10.6411   21.0917 C   0  0  0  0  0  0  0  0  0  0  0  0
  -24.1636  -13.1122   20.7625 C   0  0  0  0  0  0  0  0  0  0  0  0
  -20.4308  -28.1848   19.1064 C   0  0  0  0  0  0  0  0  0  0  0  0
  -21.6077  -26.2748   25.3626 C   0  0  0  0  0  0  0  0  0  0  0  0
  -21.3161  -27.8210   20.1391 C   0  0  0  0  0  0  0  0  0  0  0  0
  -22.6852  -26.7723   26.1093 C   0  0  0  0  0  0  0  0  0  0  0  0
  -30.8933  -16.3520   22.1965 C   0  0  0  0  0  0  0  0  0  0  0  0
  -30.7786  -18.2541   23.6817 C   0  0  0  0  0  0  0  0  0  0  0  0
  -21.9467   -8.5081   21.7434 C   0  0  0  0  0  0  0  0  0  0  0  0
  -23.6261  -24.5334   26.2202 C   0  0  0  0  0  0  0  0  0  0  0  0
  -21.6399   -6.4751   22.8814 C   0  0  0  0  0  0  0  0  0  0  0  0
  -22.6704   -4.4739   24.5295 C   0  0  0  0  0  0  0  0  0  0  0  0
  -32.1572  -18.1811   23.8815 C   0  0  0  0  0  0  0  0  0  0  0  0
  -21.0351   -6.2018   24.1083 C   0  0  0  0  0  0  0  0  0  0  0  0
  -24.4885  -11.7425   20.7556 C   0  0  0  0  0  0  0  0  0  0  0  0
  -25.3198  -13.7414   20.3702 C   0  0  0  0  0  0  0  0  0  0  0  0
  -22.9272  -13.7581   21.0940 C   0  0  0  0  0  0  0  0  0  0  0  0
  -21.7847  -28.9345   23.6310 C   0  0  0  0  0  0  0  0  0  0  0  0
  -26.3346  -22.1528   25.9032 C   0  0  0  0  0  0  0  0  0  0  0  0
  -21.4633  -30.3731   26.5205 C   0  0  0  0  0  0  0  0  0  0  0  0
  -28.6461  -19.4689   24.2462 C   0  0  0  0  0  0  0  0  0  0  0  0
  -21.8269  -30.1822   29.9084 C   0  0  0  0  0  0  0  0  0  0  0  0
  -30.8449  -14.3818   20.6273 C   0  0  0  0  0  0  0  0  0  0  0  0
  -20.0018  -29.6153   18.8965 C   0  0  0  0  0  0  0  0  0  0  0  0
  -20.4995  -27.1909   24.9211 C   0  0  0  0  0  0  0  0  0  0  0  0
  -22.7950  -28.2309   26.4684 C   0  0  0  0  0  0  0  0  0  0  0  0
  -20.2401  -30.5073   20.1122 C   0  0  0  0  0  0  0  0  0  0  0  0
  -29.6049  -11.8569   18.4446 C   0  0  0  0  0  0  0  0  0  0  0  0
  -21.6404  -30.2817   20.6736 C   0  0  0  0  0  0  0  0  0  0  0  0
  -28.1365  -11.7147   18.8518 C   0  0  0  0  0  0  0  0  0  0  0  0
  -30.5046  -12.1225   19.6502 C   0  0  0  0  0  0  0  0  0  0  0  0
  -28.6261  -13.1099   20.9014 C   0  0  0  0  0  0  0  0  0  0  0  0
  -21.8189  -28.8335   21.1451 C   0  0  1  0  0  0  0  0  0  0  0  0
  -20.9306  -28.6517   24.8345 C   0  0  1  0  0  0  0  0  0  0  0  0
  -27.6726  -12.9060   19.7127 C   0  0  2  0  0  0  0  0  0  0  0  0
  -21.5158  -31.5303   32.0021 C   0  0  0  0  0  0  0  0  0  0  0  0
  -23.9889  -31.9578   25.8725 C   0  0  0  0  0  0  0  0  0  0  0  0
  -24.1583  -32.5467   28.3000 C   0  0  0  0  0  0  0  0  0  0  0  0
  -22.1784  -33.2853   26.9745 C   0  0  0  0  0  0  0  0  0  0  0  0
  -19.8657  -28.2522   30.9983 C   0  0  0  0  0  0  0  0  0  0  0  0
  -26.7389  -20.9501   25.0631 C   0  0  0  0  0  0  0  0  0  0  0  0
  -24.8731  -22.5481   25.8212 C   0  0  0  0  0  0  0  0  0  1  0  0
  -28.2353  -20.6566   25.1092 C   0  0  0  0  0  0  0  0  0  0  0  0
  -22.4165  -30.8451   27.5917 C   0  0  1  0  0  0  0  0  0  0  0  0
  -20.8827  -30.5331   31.0442 C   0  0  2  0  0  0  0  0  0  0  0  0
  -23.1847  -32.1315   27.1764 C   0  0  0  0  0  0  0  0  0  0  0  0
  -25.7521  -11.5142   20.3879 N   0  0  0  0  0  0  0  0  0  0  0  0
  -26.2313  -12.7489   20.1600 N   0  0  0  0  0  0  0  0  0  0  0  0
  -21.6895  -29.0876   26.0085 N   0  0  0  0  0  0  0  0  0  0  0  0
  -30.0062  -13.2671   20.4159 N   0  0  0  0  0  0  0  0  0  0  0  0
  -25.6354  -15.0412   20.1880 N   0  0  0  0  0  0  0  0  0  0  0  0
  -21.8392  -12.9620   21.4770 N   0  0  0  0  0  0  0  0  0  0  0  0
  -30.0191  -19.2553   24.3324 N   0  0  0  0  0  0  0  0  0  0  0  0
  -30.2515  -15.4228   21.3407 N   0  0  0  0  0  0  0  0  0  0  0  0
  -21.1761  -28.6364   22.4267 N   0  0  0  0  0  0  0  0  0  0  0  0
  -21.6245  -30.9887   28.8085 N   0  0  0  0  0  0  0  0  0  0  0  0
  -20.5193  -29.3090   31.8126 N   0  3  0  0  0  0  0  0  0  0  0  0
  -22.7865  -15.0033   21.0361 O   0  0  0  0  0  0  0  0  0  0  0  0
  -22.9117  -29.3907   23.7836 O   0  0  0  0  0  0  0  0  0  0  0  0
  -27.1327  -22.7679   26.6084 O   0  0  0  0  0  0  0  0  0  0  0  0
  -20.5472  -31.1148   26.1567 O   0  0  0  0  0  0  0  0  0  0  0  0
  -27.8329  -18.8259   23.5911 O   0  0  0  0  0  0  0  0  0  0  0  0
  -22.6629  -29.2851   29.9903 O   0  0  0  0  0  0  0  0  0  0  0  0
  -31.9951  -14.4221   20.1830 O   0  0  0  0  0  0  0  0  0  0  0  0
  -21.1291   -7.4675   22.0618 O   0  0  0  0  0  0  0  0  0  0  0  0
  -24.6110  -23.6908   26.6347 O   0  0  0  0  0  0  0  0  0  1  0  0
  -23.1643   -3.5120   25.3200 F   0  0  0  0  0  0  0  0  0  0  0  0
  -32.7754  -19.0544   24.6891 F   0  0  0  0  0  0  0  0  0  0  0  0
  -19.9581   -6.8963   24.5001 F   0  0  0  0  0  0  0  0  0  0  0  0
  1  2  1  0  0  0  0
  1  5  2  0  0  0  0
  2  6  2  0  0  0  0
  3  9  2  0  0  0  0
  3 18  1  0  0  0  0
  4 10  1  0  0  0  0
  4 18  2  0  0  0  0
  5 20  1  0  0  0  0
  6 22  1  0  0  0  0
  7 11  2  0  0  0  0
  7 21  1  0  0  0  0
  8 13  2  0  0  0  0
  8 24  1  0  0  0  0
  9 26  1  0  0  0  0
 10 26  2  0  0  0  0
 11 27  1  0  0  0  0
 12 14  2  0  0  0  0
 12 28  1  0  0  0  0
 13 30  1  0  0  0  0
 14 29  1  0  0  0  0
 15 23  1  0  0  0  0
 15 27  2  0  0  0  0
 16 24  2  0  0  0  0
 16 25  1  0  0  0  0
 17 29  2  0  0  0  0
 17 31  1  0  0  0  0
 18 32  1  0  0  0  0
 19 32  1  0  0  0  0
 19 33  2  0  0  0  0
 19 34  1  0  0  0  0
 20 22  2  0  0  0  0
 20 41  1  0  0  0  0
 21 23  2  0  0  0  0
 21 42  1  0  0  0  0
 22 50  1  0  0  0  0
 23 43  1  0  0  0  0
 24 71  1  0  0  0  0
 25 30  2  0  0  0  0
 25 70  1  0  0  0  0
 26 82  1  0  0  0  0
 27 83  1  0  0  0  0
 28 31  2  0  0  0  0
 28 82  1  0  0  0  0
 29 84  1  0  0  0  0
 30 85  1  0  0  0  0
 31 86  1  0  0  0  0
 32 64  2  0  0  0  0
 33 65  1  0  0  0  0
 33 68  1  0  0  0  0
 34 69  1  0  0  0  0
 34 75  2  0  0  0  0
 35 51  1  0  0  0  0
 35 72  1  0  0  0  0
 35 76  2  0  0  0  0
 36 58  1  0  0  0  0
 36 59  1  0  0  0  0
 36 77  2  0  0  0  0
 37 61  1  0  0  0  0
 37 66  1  0  0  0  0
 37 78  2  0  0  0  0
 38 60  1  0  0  0  0
 38 70  1  0  0  0  0
 38 79  2  0  0  0  0
 39 62  1  0  0  0  0
 39 73  1  0  0  0  0
 39 80  2  0  0  0  0
 40 67  1  0  0  0  0
 40 71  1  0  0  0  0
 40 81  2  0  0  0  0
 41 44  1  0  0  0  0
 42 51  1  0  0  0  0
 43 66  1  0  0  0  0
 44 46  1  0  0  0  0
 45 47  1  0  0  0  0
 45 48  1  0  0  0  0
 46 50  1  0  0  0  0
 47 52  1  0  0  0  0
 48 67  1  0  0  0  0
 49 52  1  0  0  0  0
 49 67  1  0  0  0  0
 50 72  1  0  0  0  0
 51 66  1  0  0  0  0
 52 65  1  0  0  0  0
 53 62  1  0  0  0  0
 54 63  1  0  0  0  0
 55 63  1  0  0  0  0
 56 63  1  0  0  0  0
 57 74  1  0  0  0  0
 58 60  1  0  0  0  0
 59 83  1  0  0  0  0
 61 63  1  0  0  0  0
 61 73  1  0  0  0  0
 62 74  1  0  0  0  0
 64 65  1  0  0  0  0
M  CHG  1  74   1
M  ISO  4  40 100  59 101  71 100  83 101
M  END
> <Batch ID>
0171

> <Smiles>
CNC(C)C(=O)NC(C(=O)N1Cc2cc([101O:1][101CH2:1]C(=O)CCC(=O)Nc3cc([100NH:0][100C:0](=O)N4CCCC(n5nc(-c6ccc(Oc7ccc(F)cc7F)cc6)c(C(N)=O)c5N)C4)ccc3F)ccc2CC1C(=O)NC1CCCc2ccccc21)C(C)(C)C

> <Shape>
0.217

> <Color>
0.202

> <Negative vol penalty>
0.000

$$$$

  -OEChem-04052304233D

 87 95  0     1  0  0  0  0  0999 V2000
  -29.2685  -37.1781   23.9876 C   0  0  0  0  0  0  0  0  0  0  0  0
  -29.6036  -35.9582   23.4089 C   0  0  0  0  0  0  0  0  0  0  0  0
  -24.5126   -9.2847   22.6156 C   0  0  0  0  0  0  0  0  0  0  0  0
  -24.3425  -11.4218   23.7297 C   0  0  0  0  0  0  0  0  0  0  0  0
  -28.1757  -37.2628   24.8494 C   0  0  0  0  0  0  0  0  0  0  0  0
  -28.8467  -34.8220   23.6925 C   0  0  0  0  0  0  0  0  0  0  0  0
  -27.5756  -30.1996   19.8815 C   0  0  0  0  0  0  0  0  0  0  0  0
  -28.9507  -19.7898   16.9496 C   0  0  0  0  0  0  0  0  0  0  0  0
  -29.0670  -18.4410   17.2855 C   0  0  0  0  0  0  0  0  0  0  0  0
  -24.1712   -8.6383   23.8035 C   0  0  0  0  0  0  0  0  0  0  0  0
  -24.0010  -10.7754   24.9176 C   0  0  0  0  0  0  0  0  0  0  0  0
  -28.1433  -28.9370   19.7162 C   0  0  0  0  0  0  0  0  0  0  0  0
  -21.3617   -7.9988   25.5729 C   0  0  0  0  0  0  0  0  0  0  0  0
  -20.4185   -6.9735   25.5051 C   0  0  0  0  0  0  0  0  0  0  0  0
  -26.4407  -27.9916   21.1397 C   0  0  0  0  0  0  0  0  0  0  0  0
  -22.0454   -5.4186   26.3840 C   0  0  0  0  0  0  0  0  0  0  0  0
  -24.5983  -10.6765   22.5787 C   0  0  0  0  0  0  0  0  0  0  0  0
  -24.0749  -11.7985   20.3483 C   0  0  0  0  0  0  0  0  0  0  0  0
  -27.3992  -36.1291   25.1361 C   0  0  0  0  0  0  0  0  0  0  0  0
  -26.4406  -30.3697   20.6873 C   0  0  0  0  0  0  0  0  0  0  0  0
  -27.7433  -34.8913   24.5599 C   0  0  0  0  0  0  0  0  0  0  0  0
  -25.8589  -29.2570   21.3115 C   0  0  0  0  0  0  0  0  0  0  0  0
  -27.6934  -20.3411   16.7026 C   0  0  0  0  0  0  0  0  0  0  0  0
  -27.9261  -17.6435   17.3742 C   0  0  0  0  0  0  0  0  0  0  0  0
  -23.9154   -9.3836   24.9545 C   0  0  0  0  0  0  0  0  0  0  0  0
  -27.5776  -27.8332   20.3476 C   0  0  0  0  0  0  0  0  0  0  0  0
  -22.6469   -7.7340   26.0463 C   0  0  0  0  0  0  0  0  0  0  0  0
  -20.7603   -5.6834   25.9106 C   0  0  0  0  0  0  0  0  0  0  0  0
  -22.9887   -6.4439   26.4518 C   0  0  0  0  0  0  0  0  0  0  0  0
  -26.5525  -19.5436   16.7913 C   0  0  0  0  0  0  0  0  0  0  0  0
  -26.6688  -18.1948   17.1272 C   0  0  0  0  0  0  0  0  0  0  0  0
  -24.9515  -11.3448   21.3520 C   0  0  0  0  0  0  0  0  0  0  0  0
  -24.8974  -12.3585   19.4015 C   0  0  0  0  0  0  0  0  0  0  0  0
  -27.6895  -25.8263   19.1516 C   0  0  0  0  0  0  0  0  0  1  0  0
  -22.6449  -11.7208   20.2780 C   0  0  0  0  0  0  0  0  0  0  0  0
  -28.1109  -24.5918   18.8357 C   0  0  0  0  0  0  0  0  0  0  0  0
  -27.4904  -23.9204   17.6490 C   0  0  0  0  0  0  0  0  0  0  0  0
  -25.7971  -31.9965   23.3412 C   0  0  0  0  0  0  0  0  0  0  0  0
  -22.7702  -30.9835   22.7631 C   0  0  0  0  0  0  0  0  0  0  0  0
  -20.7131  -28.6927   21.2910 C   0  0  0  0  0  0  0  0  0  0  0  0
  -29.2203  -15.5721   17.9915 C   0  0  0  0  0  0  0  0  0  0  0  0
  -26.2557  -36.2599   26.1107 C   0  0  0  0  0  0  0  0  0  0  0  0
  -25.8244  -31.7339   20.8339 C   0  0  0  0  0  0  0  0  0  0  0  0
  -24.6283  -29.3830   22.1707 C   0  0  0  0  0  0  0  0  0  0  0  0
  -25.2796  -35.0871   26.0655 C   0  0  0  0  0  0  0  0  0  0  0  0
  -29.9327  -12.2059   18.9071 C   0  0  0  0  0  0  0  0  0  0  0  0
  -26.0362  -33.7626   26.0625 C   0  0  0  0  0  0  0  0  0  0  0  0
  -28.6281  -11.7191   19.5422 C   0  0  0  0  0  0  0  0  0  0  0  0
  -30.2151  -13.6693   19.2424 C   0  0  0  0  0  0  0  0  0  0  0  0
  -27.8145  -14.1116   19.5746 C   0  0  0  0  0  0  0  0  0  0  0  0
  -26.9316  -33.6415   24.8235 C   0  0  1  0  0  0  0  0  0  0  0  0
  -24.9720  -31.8726   22.0915 C   0  0  1  0  0  0  0  0  0  0  0  0
  -27.4543  -12.6617   19.2116 C   0  0  2  0  0  0  0  0  0  0  0  0
  -28.3188  -22.1506   15.0512 C   0  0  0  0  0  0  0  0  0  0  0  0
  -18.2876  -28.1059   21.0267 C   0  0  0  0  0  0  0  0  0  0  0  0
  -22.7293  -29.8815   25.6081 C   0  0  0  0  0  0  0  0  0  0  0  0
  -20.7272  -28.5174   24.9765 C   0  0  0  0  0  0  0  0  0  0  0  0
  -20.6133  -31.0080   24.8952 C   0  0  0  0  0  0  0  0  0  0  0  0
  -20.8373  -29.0091   18.3510 C   0  0  0  0  0  0  0  0  0  0  0  0
  -27.5703  -21.8046   16.3369 C   0  0  2  0  0  0  0  0  0  0  0  0
  -21.9570  -29.7709   23.1469 C   0  0  1  0  0  0  0  0  0  0  0  0
  -19.4699  -28.8580   20.4357 C   0  0  2  0  0  0  0  0  0  0  0  0
  -21.5310  -29.7921   24.6421 C   0  0  0  0  0  0  0  0  0  0  0  0
  -26.2327  -11.5948   21.0692 N   0  0  0  0  0  0  0  0  0  0  0  0
  -26.1672  -12.2116   19.8770 N   0  0  0  0  0  0  0  0  0  0  0  0
  -24.0665  -30.7387   22.2884 N   0  0  0  0  0  0  0  0  0  0  0  0
  -29.0612  -14.5030   18.8984 N   0  0  0  0  0  0  0  0  0  0  0  0
  -24.6511  -12.9572   18.2169 N   0  0  0  0  0  0  0  0  0  0  0  0
  -21.9560  -11.1133   21.3366 N   0  0  0  0  0  0  0  0  0  0  0  0
  -28.0471  -16.2736   17.7157 N   0  0  0  0  0  0  0  0  0  0  0  0
  -28.0040  -22.6550   17.4225 N   0  0  0  0  0  0  0  0  0  0  0  0
  -26.1420  -33.2958   23.6611 N   0  0  0  0  0  0  0  0  0  0  0  0
  -20.8414  -29.7139   22.2085 N   0  0  0  0  0  0  0  0  0  0  0  0
  -19.7153  -28.3413   19.0596 N   0  3  0  0  0  0  0  0  0  0  0  0
  -21.9985  -12.1619   19.2977 O   0  0  0  0  0  0  0  0  0  0  0  0
  -26.6228  -24.4625   16.9698 O   0  0  0  0  0  0  0  0  0  0  0  0
  -26.0973  -30.9881   23.9694 O   0  0  0  0  0  0  0  0  0  0  0  0
  -22.2710  -32.1061   22.8735 O   0  0  0  0  0  0  0  0  0  0  0  0
  -21.4906  -27.7497   21.1608 O   0  0  0  0  0  0  0  0  0  0  0  0
  -30.3110  -15.8283   17.4752 O   0  0  0  0  0  0  0  0  0  0  0  0
  -29.0788  -23.9004   19.5306 O   0  0  0  0  0  0  0  0  0  0  0  0
  -23.5820   -8.7531   26.1138 O   0  0  0  0  0  0  0  0  0  0  0  0
  -28.1302  -26.5999   20.1885 O   0  0  0  0  0  0  0  0  0  1  0  0
  -19.8539   -4.6992   25.8468 F   0  0  0  0  0  0  0  0  0  0  0  0
  -24.2213   -6.1836   26.9085 F   0  0  0  0  0  0  0  0  0  0  0  0
  -25.3403  -20.0646   16.5553 F   0  0  0  0  0  0  0  0  0  0  0  0
  -25.5656  -17.4379   17.2099 F   0  0  0  0  0  0  0  0  0  0  0  0
  1  2  1  0  0  0  0
  1  5  2  0  0  0  0
  2  6  2  0  0  0  0
  3 10  2  0  0  0  0
  3 17  1  0  0  0  0
  4 11  1  0  0  0  0
  4 17  2  0  0  0  0
  5 19  1  0  0  0  0
  6 21  1  0  0  0  0
  7 12  2  0  0  0  0
  7 20  1  0  0  0  0
  8  9  2  0  0  0  0
  8 23  1  0  0  0  0
  9 24  1  0  0  0  0
 10 25  1  0  0  0  0
 11 25  2  0  0  0  0
 12 26  1  0  0  0  0
 13 14  2  0  0  0  0
 13 27  1  0  0  0  0
 14 28  1  0  0  0  0
 15 22  1  0  0  0  0
 15 26  2  0  0  0  0
 16 28  2  0  0  0  0
 16 29  1  0  0  0  0
 17 32  1  0  0  0  0
 18 32  1  0  0  0  0
 18 33  2  0  0  0  0
 18 35  1  0  0  0  0
 19 21  2  0  0  0  0
 19 42  1  0  0  0  0
 20 22  2  0  0  0  0
 20 43  1  0  0  0  0
 21 51  1  0  0  0  0
 22 44  1  0  0  0  0
 23 30  2  0  0  0  0
 23 60  1  0  0  0  0
 24 31  2  0  0  0  0
 24 70  1  0  0  0  0
 25 82  1  0  0  0  0
 26 83  1  0  0  0  0
 27 29  2  0  0  0  0
 27 82  1  0  0  0  0
 28 84  1  0  0  0  0
 29 85  1  0  0  0  0
 30 31  1  0  0  0  0
 30 86  1  0  0  0  0
 31 87  1  0  0  0  0
 32 64  2  0  0  0  0
 33 65  1  0  0  0  0
 33 68  1  0  0  0  0
 34 36  2  0  0  0  0
 34 83  1  0  0  0  0
 35 69  1  0  0  0  0
 35 75  2  0  0  0  0
 36 37  1  0  0  0  0
 36 81  1  0  0  0  0
 37 71  1  0  0  0  0
 37 76  2  0  0  0  0
 38 52  1  0  0  0  0
 38 72  1  0  0  0  0
 38 77  2  0  0  0  0
 39 61  1  0  0  0  0
 39 66  1  0  0  0  0
 39 78  2  0  0  0  0
 40 62  1  0  0  0  0
 40 73  1  0  0  0  0
 40 79  2  0  0  0  0
 41 67  1  0  0  0  0
 41 70  1  0  0  0  0
 41 80  2  0  0  0  0
 42 45  1  0  0  0  0
 43 52  1  0  0  0  0
 44 66  1  0  0  0  0
 45 47  1  0  0  0  0
 46 48  1  0  0  0  0
 46 49  1  0  0  0  0
 47 51  1  0  0  0  0
 48 53  1  0  0  0  0
 49 67  1  0  0  0  0
 50 53  1  0  0  0  0
 50 67  1  0  0  0  0
 51 72  1  0  0  0  0
 52 66  1  0  0  0  0
 53 65  1  0  0  0  0
 54 60  1  0  0  0  0
 55 62  1  0  0  0  0
 56 63  1  0  0  0  0
 57 63  1  0  0  0  0
 58 63  1  0  0  0  0
 59 74  1  0  0  0  0
 60 71  1  0  0  0  0
 61 63  1  0  0  0  0
 61 73  1  0  0  0  0
 62 74  1  0  0  0  0
 64 65  1  0  0  0  0
M  CHG  1  74   1
M  ISO  4  34 101  41 100  70 100  83 101
M  END
> <Batch ID>
0171

> <Smiles>
CNC(C)C(=O)NC(C(=O)N1Cc2cc([101O:1][101CH2:1]C(=O)C(=O)NC(C)c3ccc([100NH:0][100C:0](=O)N4CCCC(n5nc(-c6ccc(Oc7ccc(F)cc7F)cc6)c(C(N)=O)c5N)C4)c(F)c3F)ccc2CC1C(=O)NC1CCCc2ccccc21)C(C)(C)C

> <Shape>
0.251

> <Color>
0.087

> <Negative vol penalty>
0.000

$$$$

  -OEChem-04052304233D

 88 96  0     1  0  0  0  0  0999 V2000
  -16.3707  -28.9914   27.2881 C   0  0  0  0  0  0  0  0  0  0  0  0
  -17.3970  -28.0569   27.1939 C   0  0  0  0  0  0  0  0  0  0  0  0
  -23.1927   -9.9996   22.0606 C   0  0  0  0  0  0  0  0  0  0  0  0
  -23.8064  -11.3879   23.9402 C   0  0  0  0  0  0  0  0  0  0  0  0
  -16.0834  -29.8210   26.2050 C   0  0  0  0  0  0  0  0  0  0  0  0
  -18.1358  -27.9507   26.0161 C   0  0  0  0  0  0  0  0  0  0  0  0
  -24.0879  -26.5994   25.5132 C   0  0  0  0  0  0  0  0  0  0  0  0
  -22.4480   -9.1802   22.9088 C   0  0  0  0  0  0  0  0  0  0  0  0
  -23.0617  -10.5685   24.7885 C   0  0  0  0  0  0  0  0  0  0  0  0
  -24.7592  -25.4112   25.2281 C   0  0  0  0  0  0  0  0  0  0  0  0
  -19.4236   -9.2521   24.4190 C   0  0  0  0  0  0  0  0  0  0  0  0
  -18.1506   -8.8689   23.9971 C   0  0  0  0  0  0  0  0  0  0  0  0
  -24.8948  -26.0520   22.9064 C   0  0  0  0  0  0  0  0  0  0  0  0
  -31.9187  -17.3966   20.5895 C   0  0  0  0  0  0  0  0  0  0  0  0
  -29.6921  -18.3265   20.4686 C   0  0  0  0  0  0  0  0  0  0  0  0
  -18.8150   -6.5483   24.0999 C   0  0  0  0  0  0  0  0  0  0  0  0
  -23.8720  -11.1034   22.5762 C   0  0  0  0  0  0  0  0  0  0  0  0
  -31.5839  -19.7713   20.8815 C   0  0  0  0  0  0  0  0  0  0  0  0
  -24.1913  -13.0889   21.0067 C   0  0  0  0  0  0  0  0  0  0  0  0
  -16.8254  -29.7315   25.0167 C   0  0  0  0  0  0  0  0  0  0  0  0
  -23.8049  -27.5194   24.4934 C   0  0  0  0  0  0  0  0  0  0  0  0
  -17.8573  -28.7790   24.9156 C   0  0  0  0  0  0  0  0  0  0  0  0
  -24.2221  -27.2523   23.1816 C   0  0  0  0  0  0  0  0  0  0  0  0
  -32.4377  -18.6698   20.8244 C   0  0  0  0  0  0  0  0  0  0  0  0
  -30.5459  -17.2249   20.4115 C   0  0  0  0  0  0  0  0  0  0  0  0
  -30.2110  -19.5997   20.7036 C   0  0  0  0  0  0  0  0  0  0  0  0
  -22.3825   -9.4646   24.2728 C   0  0  0  0  0  0  0  0  0  0  0  0
  -25.1602  -25.1360   23.9240 C   0  0  0  0  0  0  0  0  0  0  0  0
  -20.3925   -8.2834   24.6813 C   0  0  0  0  0  0  0  0  0  0  0  0
  -17.8462   -7.5170   23.8376 C   0  0  0  0  0  0  0  0  0  0  0  0
  -20.0881   -6.9315   24.5217 C   0  0  0  0  0  0  0  0  0  0  0  0
  -24.6419  -11.9499   21.7006 C   0  0  0  0  0  0  0  0  0  0  0  0
  -25.2954  -13.5318   20.3202 C   0  0  0  0  0  0  0  0  0  0  0  0
  -32.1316  -21.1027   21.1269 C   0  0  0  0  0  0  0  0  0  0  0  0
  -22.8911  -13.6926   20.9847 C   0  0  0  0  0  0  0  0  0  0  0  0
  -21.1471  -28.7254   23.2343 C   0  0  0  0  0  0  0  0  0  0  0  0
  -26.8923  -22.4217   22.1306 C   0  0  0  0  0  0  0  0  0  0  0  0
  -23.2344  -30.5881   21.5924 C   0  0  0  0  0  0  0  0  0  0  0  0
  -27.9433  -20.6819   20.6063 C   0  0  0  0  0  0  0  0  0  0  0  0
  -26.3865  -31.0098   20.3541 C   0  0  0  0  0  0  0  0  0  0  0  0
  -30.7272  -14.7334   20.0862 C   0  0  0  0  0  0  0  0  0  0  0  0
  -16.4469  -30.6172   23.8561 C   0  0  0  0  0  0  0  0  0  0  0  0
  -23.1036  -28.8088   24.8220 C   0  0  0  0  0  0  0  0  0  0  0  0
  -23.9605  -28.2164   22.0544 C   0  0  0  0  0  0  0  0  0  0  0  0
  -17.5221  -30.6979   22.7755 C   0  0  0  0  0  0  0  0  0  0  0  0
  -29.7925  -11.3402   19.5485 C   0  0  0  0  0  0  0  0  0  0  0  0
  -18.0466  -29.3055   22.4392 C   0  0  0  0  0  0  0  0  0  0  0  0
  -28.3321  -11.2900   20.0034 C   0  0  0  0  0  0  0  0  0  0  0  0
  -30.6273  -12.2735   20.4236 C   0  0  0  0  0  0  0  0  0  0  0  0
  -28.6287  -13.5816   21.0270 C   0  0  0  0  0  0  0  0  0  0  0  0
  -18.6974  -28.6506   23.6635 C   0  0  1  0  0  0  0  0  0  0  0  0
  -22.4137  -29.4381   23.6156 C   0  0  1  0  0  0  0  0  0  0  0  0
  -27.7342  -12.7044   20.1359 C   0  0  2  0  0  0  0  0  0  0  0  0
  -33.9123  -18.8216   21.0119 C   0  0  0  0  0  0  0  0  0  0  0  0
  -32.5358  -21.9108   19.9317 C   0  0  0  0  0  0  0  0  0  0  0  0
  -27.7816  -32.6160   19.0232 C   0  0  0  0  0  0  0  0  0  0  0  0
  -21.8517  -29.6652   19.0338 C   0  0  0  0  0  0  0  0  0  0  0  0
  -23.8257  -30.5088   17.7455 C   0  0  0  0  0  0  0  0  0  0  0  0
  -22.4410  -32.0952   19.0829 C   0  0  0  0  0  0  0  0  0  0  0  0
  -28.2764  -31.4072   22.5967 C   0  0  0  0  0  0  0  0  0  0  0  0
  -27.3365  -22.0666   20.7268 C   0  0  0  0  0  0  0  0  0  0  0  0
  -26.1968  -23.7592   22.2852 C   0  0  0  0  0  0  0  0  0  1  0  0
  -23.9662  -30.4705   20.2772 C   0  0  1  0  0  0  0  0  0  0  0  0
  -27.3435  -32.1866   20.4148 C   0  0  2  0  0  0  0  0  0  0  0  0
  -23.0245  -30.6657   19.0555 C   0  0  0  0  0  0  0  0  0  0  0  0
  -25.9316  -11.6856   21.4754 N   0  0  0  0  0  0  0  0  0  0  0  0
  -26.3009  -12.6647   20.6322 N   0  0  0  0  0  0  0  0  0  0  0  0
  -23.2660  -29.4605   22.4251 N   0  0  0  0  0  0  0  0  0  0  0  0
  -30.0022  -13.5958   20.4994 N   0  0  0  0  0  0  0  0  0  0  0  0
  -25.4946  -14.5744   19.4861 N   0  0  0  0  0  0  0  0  0  0  0  0
  -21.8705  -13.1092   21.7479 N   0  0  0  0  0  0  0  0  0  0  0  0
  -29.3237  -20.7013   20.7562 N   0  0  0  0  0  0  0  0  0  0  0  0
  -30.0189  -15.9315   20.1729 N   0  0  0  0  0  0  0  0  0  0  0  0
  -20.0207  -29.1936   23.8835 N   0  0  0  0  0  0  0  0  0  0  0  0
  -25.0707  -31.4217   20.3383 N   0  0  0  0  0  0  0  0  0  0  0  0
  -28.5581  -31.8266   21.1997 N   0  3  0  0  0  0  0  0  0  0  0  0
  -32.2876  -21.6017   22.2396 O   0  0  0  0  0  0  0  0  0  0  0  0
  -22.6374  -14.7095   20.2955 O   0  0  0  0  0  0  0  0  0  0  0  0
  -21.1884  -27.8188   22.4108 O   0  0  0  0  0  0  0  0  0  0  0  0
  -27.0892  -21.6759   23.0889 O   0  0  0  0  0  0  0  0  0  0  0  0
  -22.6620  -31.6439   21.8737 O   0  0  0  0  0  0  0  0  0  0  0  0
  -27.2220  -19.7042   20.4261 O   0  0  0  0  0  0  0  0  0  0  0  0
  -26.7681  -29.8420   20.3201 O   0  0  0  0  0  0  0  0  0  0  0  0
  -31.8815  -14.6475   19.6593 O   0  0  0  0  0  0  0  0  0  0  0  0
  -21.6557   -8.6654   25.1008 O   0  0  0  0  0  0  0  0  0  0  0  0
  -25.8150  -23.9766   23.6429 O   0  0  0  0  0  0  0  0  0  1  0  0
  -16.6232   -7.1491   23.4339 F   0  0  0  0  0  0  0  0  0  0  0  0
  -21.0144   -5.9963   24.7733 F   0  0  0  0  0  0  0  0  0  0  0  0
  1  2  1  0  0  0  0
  1  5  2  0  0  0  0
  2  6  2  0  0  0  0
  3  8  2  0  0  0  0
  3 17  1  0  0  0  0
  4  9  1  0  0  0  0
  4 17  2  0  0  0  0
  5 20  1  0  0  0  0
  6 22  1  0  0  0  0
  7 10  2  0  0  0  0
  7 21  1  0  0  0  0
  8 27  1  0  0  0  0
  9 27  2  0  0  0  0
 10 28  1  0  0  0  0
 11 12  2  0  0  0  0
 11 29  1  0  0  0  0
 12 30  1  0  0  0  0
 13 23  1  0  0  0  0
 13 28  2  0  0  0  0
 14 24  2  0  0  0  0
 14 25  1  0  0  0  0
 15 25  2  0  0  0  0
 15 26  1  0  0  0  0
 16 30  2  0  0  0  0
 16 31  1  0  0  0  0
 17 32  1  0  0  0  0
 18 24  1  0  0  0  0
 18 26  2  0  0  0  0
 18 34  1  0  0  0  0
 19 32  1  0  0  0  0
 19 33  2  0  0  0  0
 19 35  1  0  0  0  0
 20 22  2  0  0  0  0
 20 42  1  0  0  0  0
 21 23  2  0  0  0  0
 21 43  1  0  0  0  0
 22 51  1  0  0  0  0
 23 44  1  0  0  0  0
 24 54  1  0  0  0  0
 25 73  1  0  0  0  0
 26 72  1  0  0  0  0
 27 85  1  0  0  0  0
 28 86  1  0  0  0  0
 29 31  2  0  0  0  0
 29 85  1  0  0  0  0
 30 87  1  0  0  0  0
 31 88  1  0  0  0  0
 32 66  2  0  0  0  0
 33 67  1  0  0  0  0
 33 70  1  0  0  0  0
 34 55  1  0  0  0  0
 34 77  2  0  0  0  0
 35 71  1  0  0  0  0
 35 78  2  0  0  0  0
 36 52  1  0  0  0  0
 36 74  1  0  0  0  0
 36 79  2  0  0  0  0
 37 61  1  0  0  0  0
 37 62  1  0  0  0  0
 37 80  2  0  0  0  0
 38 63  1  0  0  0  0
 38 68  1  0  0  0  0
 38 81  2  0  0  0  0
 39 61  1  0  0  0  0
 39 72  1  0  0  0  0
 39 82  2  0  0  0  0
 40 64  1  0  0  0  0
 40 75  1  0  0  0  0
 40 83  2  0  0  0  0
 41 69  1  0  0  0  0
 41 73  1  0  0  0  0
 41 84  2  0  0  0  0
 42 45  1  0  0  0  0
 43 52  1  0  0  0  0
 44 68  1  0  0  0  0
 45 47  1  0  0  0  0
 46 48  1  0  0  0  0
 46 49  1  0  0  0  0
 47 51  1  0  0  0  0
 48 53  1  0  0  0  0
 49 69  1  0  0  0  0
 50 53  1  0  0  0  0
 50 69  1  0  0  0  0
 51 74  1  0  0  0  0
 52 68  1  0  0  0  0
 53 67  1  0  0  0  0
 56 64  1  0  0  0  0
 57 65  1  0  0  0  0
 58 65  1  0  0  0  0
 59 65  1  0  0  0  0
 60 76  1  0  0  0  0
 62 86  1  0  0  0  0
 63 65  1  0  0  0  0
 63 75  1  0  0  0  0
 64 76  1  0  0  0  0
 66 67  1  0  0  0  0
M  CHG  1  76   1
M  ISO  4  41 100  62 101  73 100  86 101
M  END
> <Batch ID>
0171

> <Smiles>
CNC(C)C(=O)NC(C(=O)N1Cc2cc([101O:1][101CH2:1]C(=O)CC(=O)Nc3cc([100NH:0][100C:0](=O)N4CCCC(n5nc(-c6ccc(Oc7ccc(F)cc7F)cc6)c(C(N)=O)c5N)C4)cc(C)c3C(C)=O)ccc2CC1C(=O)NC1CCCc2ccccc21)C(C)(C)C

> <Shape>
0.250

> <Color>
0.109

> <Negative vol penalty>
0.000

$$$$

  -OEChem-04052304233D

 86 94  0     1  0  0  0  0  0999 V2000
  -30.3445  -30.5778   35.4316 C   0  0  0  0  0  0  0  0  0  0  0  0
  -30.3183  -29.3390   34.7991 C   0  0  0  0  0  0  0  0  0  0  0  0
  -33.0119  -17.1732   23.2183 C   0  0  0  0  0  0  0  0  0  0  0  0
  -22.9721  -10.0174   20.0481 C   0  0  0  0  0  0  0  0  0  0  0  0
  -23.7953  -10.0009   22.3195 C   0  0  0  0  0  0  0  0  0  0  0  0
  -29.6218  -31.6455   34.9009 C   0  0  0  0  0  0  0  0  0  0  0  0
  -29.5684  -29.1668   33.6362 C   0  0  0  0  0  0  0  0  0  0  0  0
  -30.9471  -25.5862   28.8629 C   0  0  0  0  0  0  0  0  0  0  0  0
  -32.2997  -18.0893   23.9923 C   0  0  0  0  0  0  0  0  0  0  0  0
  -32.3345  -16.3235   22.3436 C   0  0  0  0  0  0  0  0  0  0  0  0
  -22.1824   -8.9018   20.3262 C   0  0  0  0  0  0  0  0  0  0  0  0
  -23.0055   -8.8853   22.5976 C   0  0  0  0  0  0  0  0  0  0  0  0
  -30.5290  -24.3072   28.4981 C   0  0  0  0  0  0  0  0  0  0  0  0
  -20.9330   -6.2514   24.0066 C   0  0  0  0  0  0  0  0  0  0  0  0
  -20.2085   -6.2496   25.1986 C   0  0  0  0  0  0  0  0  0  0  0  0
  -28.8525  -25.2728   27.0572 C   0  0  0  0  0  0  0  0  0  0  0  0
  -19.0359   -8.2392   24.4890 C   0  0  0  0  0  0  0  0  0  0  0  0
  -23.7786  -10.5670   21.0447 C   0  0  0  0  0  0  0  0  0  0  0  0
  -30.2326  -17.3061   23.0171 C   0  0  0  0  0  0  0  0  0  0  0  0
  -24.2346  -13.0726   20.8986 C   0  0  0  0  0  0  0  0  0  0  0  0
  -28.8704  -31.4890   33.7256 C   0  0  0  0  0  0  0  0  0  0  0  0
  -30.3129  -26.7200   28.3350 C   0  0  0  0  0  0  0  0  0  0  0  0
  -28.8339  -30.2331   33.0901 C   0  0  0  0  0  0  0  0  0  0  0  0
  -29.2662  -26.5651   27.4149 C   0  0  0  0  0  0  0  0  0  0  0  0
  -30.9101  -18.1557   23.8917 C   0  0  0  0  0  0  0  0  0  0  0  0
  -30.9449  -16.3900   22.2431 C   0  0  0  0  0  0  0  0  0  0  0  0
  -22.1991   -8.3357   21.6009 C   0  0  0  0  0  0  0  0  0  0  0  0
  -29.4796  -24.1503   27.5974 C   0  0  0  0  0  0  0  0  0  0  0  0
  -20.7090   -7.2472   23.0558 C   0  0  0  0  0  0  0  0  0  0  0  0
  -19.2600   -7.2434   25.4397 C   0  0  0  0  0  0  0  0  0  0  0  0
  -19.7604   -8.2411   23.2970 C   0  0  0  0  0  0  0  0  0  0  0  0
  -24.5950  -11.7191   20.7580 C   0  0  0  0  0  0  0  0  0  0  0  0
  -25.3500  -13.7681   20.5003 C   0  0  0  0  0  0  0  0  0  0  0  0
  -29.9747  -22.0755   26.6379 C   0  0  0  0  0  0  0  0  0  1  0  0
  -28.7764  -17.3734   22.9139 C   0  0  0  0  0  0  0  0  0  0  0  0
  -23.0018  -13.6497   21.3491 C   0  0  0  0  0  0  0  0  0  0  0  0
  -29.6798  -20.8302   26.2456 C   0  0  0  0  0  0  0  0  0  0  0  0
  -30.7458  -20.0010   25.5942 C   0  0  0  0  0  0  0  0  0  0  0  0
  -28.6633  -29.1435   29.5635 C   0  0  0  0  0  0  0  0  0  0  0  0
  -28.7650  -30.2486   26.5155 C   0  0  0  0  0  0  0  0  0  0  0  0
  -29.0906  -29.5519   23.1905 C   0  0  0  0  0  0  0  0  0  0  0  0
  -30.8618  -14.5571   20.5168 C   0  0  0  0  0  0  0  0  0  0  0  0
  -28.0675  -32.6596   33.2159 C   0  0  0  0  0  0  0  0  0  0  0  0
  -30.7934  -28.0929   28.7181 C   0  0  0  0  0  0  0  0  0  0  0  0
  -28.5656  -27.7501   26.8039 C   0  0  0  0  0  0  0  0  0  0  0  0
  -27.5985  -32.4943   31.7726 C   0  0  0  0  0  0  0  0  0  0  0  0
  -29.5700  -12.1857   18.1963 C   0  0  0  0  0  0  0  0  0  0  0  0
  -27.0053  -31.1052   31.5598 C   0  0  0  0  0  0  0  0  0  0  0  0
  -28.1309  -11.9642   18.6675 C   0  0  0  0  0  0  0  0  0  0  0  0
  -30.5281  -12.3777   19.3706 C   0  0  0  0  0  0  0  0  0  0  0  0
  -28.6964  -13.1981   20.7993 C   0  0  0  0  0  0  0  0  0  0  0  0
  -28.0521  -30.0136   31.8130 C   0  0  1  0  0  0  0  0  0  0  0  0
  -29.7372  -29.1744   28.5131 C   0  0  1  0  0  0  0  0  0  0  0  0
  -27.6840  -13.0644   19.6500 C   0  0  2  0  0  0  0  0  0  0  0  0
  -27.9820  -16.4971   23.8330 C   0  0  0  0  0  0  0  0  0  0  0  0
  -29.0937  -30.6569   20.9374 C   0  0  0  0  0  0  0  0  0  0  0  0
  -25.7271  -30.5045   26.6394 C   0  0  0  0  0  0  0  0  0  0  0  0
  -25.7099  -30.6828   24.1422 C   0  0  0  0  0  0  0  0  0  0  0  0
  -26.8888  -32.4071   25.5059 C   0  0  0  0  0  0  0  0  0  0  0  0
  -31.8643  -28.6800   22.6379 C   0  0  0  0  0  0  0  0  0  0  0  0
  -27.8921  -30.0961   25.2933 C   0  0  1  0  0  0  0  0  0  0  0  0
  -29.9440  -30.1865   22.1072 C   0  0  2  0  0  0  0  0  0  0  0  0
  -26.5662  -30.9001   25.4080 C   0  0  0  0  0  0  0  0  0  0  0  0
  -25.8418  -11.5618   20.3055 N   0  0  0  0  0  0  0  0  0  0  0  0
  -26.2745  -12.8256   20.1583 N   0  0  0  0  0  0  0  0  0  0  0  0
  -29.0677  -29.0717   27.2148 N   0  0  0  0  0  0  0  0  0  0  0  0
  -30.0426  -13.4382   20.2563 N   0  0  0  0  0  0  0  0  0  0  0  0
  -25.6203  -15.0879   20.4127 N   0  0  0  0  0  0  0  0  0  0  0  0
  -21.9583  -12.7908   21.7203 N   0  0  0  0  0  0  0  0  0  0  0  0
  -30.2117  -19.0952   24.6880 N   0  0  0  0  0  0  0  0  0  0  0  0
  -30.2815  -15.5158   21.3467 N   0  0  0  0  0  0  0  0  0  0  0  0
  -28.9492  -29.9016   30.6829 N   0  0  0  0  0  0  0  0  0  0  0  0
  -28.7199  -30.4688   24.1513 N   0  0  0  0  0  0  0  0  0  0  0  0
  -30.9453  -29.2078   21.5968 N   0  3  0  0  0  0  0  0  0  0  0  0
  -28.1634  -18.0910   22.1271 O   0  0  0  0  0  0  0  0  0  0  0  0
  -22.8250  -14.8903   21.4048 O   0  0  0  0  0  0  0  0  0  0  0  0
  -31.9283  -20.1595   25.8775 O   0  0  0  0  0  0  0  0  0  0  0  0
  -27.6496  -28.4820   29.3720 O   0  0  0  0  0  0  0  0  0  0  0  0
  -29.1696  -31.3696   26.8336 O   0  0  0  0  0  0  0  0  0  0  0  0
  -28.7805  -28.3627   23.1830 O   0  0  0  0  0  0  0  0  0  0  0  0
  -31.9840  -14.6702   20.0170 O   0  0  0  0  0  0  0  0  0  0  0  0
  -28.4283  -20.2745   26.4181 O   0  0  0  0  0  0  0  0  0  0  0  0
  -21.4285   -7.2472   21.8726 O   0  0  0  0  0  0  0  0  0  0  0  0
  -29.0691  -22.9031   27.2401 O   0  0  0  0  0  0  0  0  0  1  0  0
  -18.5632   -7.2406   26.5837 F   0  0  0  0  0  0  0  0  0  0  0  0
  -19.5400   -9.1996   22.3868 F   0  0  0  0  0  0  0  0  0  0  0  0
  1  2  1  0  0  0  0
  1  6  2  0  0  0  0
  2  7  2  0  0  0  0
  3  9  2  0  0  0  0
  3 10  1  0  0  0  0
  4 11  2  0  0  0  0
  4 18  1  0  0  0  0
  5 12  1  0  0  0  0
  5 18  2  0  0  0  0
  6 21  1  0  0  0  0
  7 23  1  0  0  0  0
  8 13  2  0  0  0  0
  8 22  1  0  0  0  0
  9 25  1  0  0  0  0
 10 26  2  0  0  0  0
 11 27  1  0  0  0  0
 12 27  2  0  0  0  0
 13 28  1  0  0  0  0
 14 15  2  0  0  0  0
 14 29  1  0  0  0  0
 15 30  1  0  0  0  0
 16 24  1  0  0  0  0
 16 28  2  0  0  0  0
 17 30  2  0  0  0  0
 17 31  1  0  0  0  0
 18 32  1  0  0  0  0
 19 25  2  0  0  0  0
 19 26  1  0  0  0  0
 19 35  1  0  0  0  0
 20 32  1  0  0  0  0
 20 33  2  0  0  0  0
 20 36  1  0  0  0  0
 21 23  2  0  0  0  0
 21 43  1  0  0  0  0
 22 24  2  0  0  0  0
 22 44  1  0  0  0  0
 23 52  1  0  0  0  0
 24 45  1  0  0  0  0
 25 70  1  0  0  0  0
 26 71  1  0  0  0  0
 27 83  1  0  0  0  0
 28 84  1  0  0  0  0
 29 31  2  0  0  0  0
 29 83  1  0  0  0  0
 30 85  1  0  0  0  0
 31 86  1  0  0  0  0
 32 64  2  0  0  0  0
 33 65  1  0  0  0  0
 33 68  1  0  0  0  0
 34 37  2  0  0  0  0
 34 84  1  0  0  0  0
 35 55  1  0  0  0  0
 35 75  2  0  0  0  0
 36 69  1  0  0  0  0
 36 76  2  0  0  0  0
 37 38  1  0  0  0  0
 37 82  1  0  0  0  0
 38 70  1  0  0  0  0
 38 77  2  0  0  0  0
 39 53  1  0  0  0  0
 39 72  1  0  0  0  0
 39 78  2  0  0  0  0
 40 61  1  0  0  0  0
 40 66  1  0  0  0  0
 40 79  2  0  0  0  0
 41 62  1  0  0  0  0
 41 73  1  0  0  0  0
 41 80  2  0  0  0  0
 42 67  1  0  0  0  0
 42 71  1  0  0  0  0
 42 81  2  0  0  0  0
 43 46  1  0  0  0  0
 44 53  1  0  0  0  0
 45 66  1  0  0  0  0
 46 48  1  0  0  0  0
 47 49  1  0  0  0  0
 47 50  1  0  0  0  0
 48 52  1  0  0  0  0
 49 54  1  0  0  0  0
 50 67  1  0  0  0  0
 51 54  1  0  0  0  0
 51 67  1  0  0  0  0
 52 72  1  0  0  0  0
 53 66  1  0  0  0  0
 54 65  1  0  0  0  0
 56 62  1  0  0  0  0
 57 63  1  0  0  0  0
 58 63  1  0  0  0  0
 59 63  1  0  0  0  0
 60 74  1  0  0  0  0
 61 63  1  0  0  0  0
 61 73  1  0  0  0  0
 62 74  1  0  0  0  0
 64 65  1  0  0  0  0
M  CHG  1  74   1
M  ISO  4  34 101  42 100  71 100  84 101
M  END
> <Batch ID>
0171

> <Smiles>
CNC(C)C(=O)NC(C(=O)N1Cc2cc([101O:1][101CH2:1]C(=O)C(=O)Nc3cccc([100NH:0][100C:0](=O)N4CCCC(n5nc(-c6ccc(Oc7ccc(F)cc7F)cc6)c(C(N)=O)c5N)C4)c3C(C)=O)ccc2CC1C(=O)NC1CCCc2ccccc21)C(C)(C)C

> <Shape>
0.207

> <Color>
0.194

> <Negative vol penalty>
0.000

$$$$

  -OEChem-04052304233D

 87 95  0     1  0  0  0  0  0999 V2000
  -15.7261  -27.7021   26.4846 C   0  0  0  0  0  0  0  0  0  0  0  0
  -16.2851  -26.5528   25.9351 C   0  0  0  0  0  0  0  0  0  0  0  0
  -30.6997  -22.6090   17.9613 C   0  0  0  0  0  0  0  0  0  0  0  0
  -28.3672  -22.0326   17.7081 C   0  0  0  0  0  0  0  0  0  0  0  0
  -16.0247  -28.9503   25.9398 C   0  0  0  0  0  0  0  0  0  0  0  0
  -17.1423  -26.6510   24.8396 C   0  0  0  0  0  0  0  0  0  0  0  0
  -22.0129  -23.1344   23.6494 C   0  0  0  0  0  0  0  0  0  0  0  0
  -30.7178  -23.1082   16.6590 C   0  0  0  0  0  0  0  0  0  0  0  0
  -28.3852  -22.5318   16.4057 C   0  0  0  0  0  0  0  0  0  0  0  0
  -22.1920  -22.0310   22.8163 C   0  0  0  0  0  0  0  0  0  0  0  0
  -27.9102  -23.3254   12.8908 C   0  0  0  0  0  0  0  0  0  0  0  0
  -27.3011  -22.5617   11.8953 C   0  0  0  0  0  0  0  0  0  0  0  0
  -25.2641  -15.2725   21.0008 C   0  0  0  0  0  0  0  0  0  0  0  0
  -23.0451  -23.4819   21.0882 C   0  0  0  0  0  0  0  0  0  0  0  0
  -26.7790  -13.4181   21.3217 C   0  0  0  0  0  0  0  0  0  0  0  0
  -28.8205  -20.7420   12.3616 C   0  0  0  0  0  0  0  0  0  0  0  0
  -29.5244  -22.0712   18.4859 C   0  0  0  0  0  0  0  0  0  0  0  0
  -24.2589  -14.3850   20.6170 C   0  0  0  0  0  0  0  0  0  0  0  0
  -29.2021  -22.2632   21.0091 C   0  0  0  0  0  0  0  0  0  0  0  0
  -16.8935  -29.0646   24.8431 C   0  0  0  0  0  0  0  0  0  0  0  0
  -22.3388  -24.4233   23.2035 C   0  0  0  0  0  0  0  0  0  0  0  0
  -17.4517  -27.9017   24.2787 C   0  0  0  0  0  0  0  0  0  0  0  0
  -22.8715  -24.5997   21.9185 C   0  0  0  0  0  0  0  0  0  0  0  0
  -26.5242  -14.7891   21.3531 C   0  0  0  0  0  0  0  0  0  0  0  0
  -29.5606  -23.0696   15.8812 C   0  0  0  0  0  0  0  0  0  0  0  0
  -22.7055  -22.2049   21.5344 C   0  0  0  0  0  0  0  0  0  0  0  0
  -28.9746  -22.7976   13.6218 C   0  0  0  0  0  0  0  0  0  0  0  0
  -27.7562  -21.2700   11.6307 C   0  0  0  0  0  0  0  0  0  0  0  0
  -25.7738  -12.5305   20.9378 C   0  0  0  0  0  0  0  0  0  0  0  0
  -29.4297  -21.5058   13.3572 C   0  0  0  0  0  0  0  0  0  0  0  0
  -24.5137  -13.0139   20.5855 C   0  0  0  0  0  0  0  0  0  0  0  0
  -29.5053  -21.5549   19.8309 C   0  0  0  0  0  0  0  0  0  0  0  0
  -29.3228  -21.3311   22.0107 C   0  0  0  0  0  0  0  0  0  0  0  0
  -22.9098  -14.9056   20.2407 C   0  0  0  0  0  0  0  0  0  0  0  0
  -28.8434  -23.6404   21.1827 C   0  0  0  0  0  0  0  0  0  0  0  0
  -20.7094  -27.1103   22.7250 C   0  0  0  0  0  0  0  0  0  0  0  0
  -22.7797  -18.7600   20.2225 C   0  0  0  0  0  0  0  0  0  0  0  0
  -23.6569  -28.3358   22.1486 C   0  0  0  0  0  0  0  0  0  0  0  0
  -26.8924  -27.7832   21.2143 C   0  0  0  0  0  0  0  0  0  0  0  0
  -28.8499  -15.3756   22.1237 C   0  0  0  0  0  0  0  0  0  0  0  0
  -17.1492  -30.4314   24.2589 C   0  0  0  0  0  0  0  0  0  0  0  0
  -22.1647  -25.6001   24.1240 C   0  0  0  0  0  0  0  0  0  0  0  0
  -23.2563  -25.9602   21.3994 C   0  0  0  0  0  0  0  0  0  0  0  0
  -18.3619  -30.4809   23.3330 C   0  0  0  0  0  0  0  0  0  0  0  0
  -31.6709  -17.3069   23.1182 C   0  0  0  0  0  0  0  0  0  0  0  0
  -18.3383  -29.3071   22.3592 C   0  0  0  0  0  0  0  0  0  0  0  0
  -31.4051  -18.6816   22.5004 C   0  0  0  0  0  0  0  0  0  0  0  0
  -31.2013  -16.1749   22.2061 C   0  0  0  0  0  0  0  0  0  0  0  0
  -29.5403  -17.6504   21.1417 C   0  0  0  0  0  0  0  0  0  0  0  0
  -18.4055  -27.9694   23.1058 C   0  0  1  0  0  0  0  0  0  0  0  0
  -22.0486  -26.9276   23.3814 C   0  0  1  0  0  0  0  0  0  0  0  0
  -29.9373  -18.8238   22.0522 C   0  0  2  0  0  0  0  0  0  0  0  0
  -29.3081  -28.2977   20.7703 C   0  0  0  0  0  0  0  0  0  0  0  0
  -22.5742  -29.3574   19.4852 C   0  0  0  0  0  0  0  0  0  0  0  0
  -24.9383  -29.6863   18.7297 C   0  0  0  0  0  0  0  0  0  0  0  0
  -24.0679  -30.9622   20.6886 C   0  0  0  0  0  0  0  0  0  0  0  0
  -27.6558  -27.1741   24.0081 C   0  0  0  0  0  0  0  0  0  0  0  0
  -22.4468  -17.3447   20.6749 C   0  0  0  0  0  0  0  0  0  0  0  0
  -22.5175  -19.8524   21.2412 C   0  0  0  0  0  0  0  0  0  1  0  0
  -22.7789  -16.2923   19.6172 C   0  0  2  0  0  0  0  0  0  0  0  0
  -24.5313  -28.4883   20.9275 C   0  0  1  0  0  0  0  0  0  0  0  0
  -28.2076  -28.2414   21.8183 C   0  0  2  0  0  0  0  0  0  0  0  0
  -24.0189  -29.5980   19.9665 C   0  0  0  0  0  0  0  0  0  0  0  0
  -29.7968  -20.2719   20.0611 N   0  0  0  0  0  0  0  0  0  0  0  0
  -29.6775  -20.1667   21.3956 N   0  0  0  0  0  0  0  0  0  0  0  0
  -23.0614  -27.0803   22.3349 N   0  0  0  0  0  0  0  0  0  0  0  0
  -29.8011  -16.3742   21.8259 N   0  0  0  0  0  0  0  0  0  0  0  0
  -29.1592  -21.4023   23.3489 N   0  0  0  0  0  0  0  0  0  0  0  0
  -28.7652  -24.4587   20.0474 N   0  0  0  0  0  0  0  0  0  0  0  0
  -27.5455  -15.6902   21.7439 N   0  0  0  0  0  0  0  0  0  0  0  0
  -19.7600  -27.6994   23.5381 N   0  0  0  0  0  0  0  0  0  0  0  0
  -25.8872  -28.7042   21.4207 N   0  0  0  0  0  0  0  0  0  0  0  0
  -28.6347  -27.3079   22.8986 N   0  3  0  0  0  0  0  0  0  0  0  0
  -21.9228  -14.1968   20.4332 O   0  0  0  0  0  0  0  0  0  0  0  0
  -28.6154  -24.1349   22.3127 O   0  0  0  0  0  0  0  0  0  0  0  0
  -20.5496  -26.7451   21.5662 O   0  0  0  0  0  0  0  0  0  0  0  0
  -23.2170  -19.0133   19.1012 O   0  0  0  0  0  0  0  0  0  0  0  0
  -23.5135  -29.2933   22.9131 O   0  0  0  0  0  0  0  0  0  0  0  0
  -26.7700  -26.7167   20.6159 O   0  0  0  0  0  0  0  0  0  0  0  0
  -29.1643  -14.3308   22.6994 O   0  0  0  0  0  0  0  0  0  0  0  0
  -21.7024  -16.2582   18.6849 O   0  0  0  0  0  0  0  0  0  0  0  0
  -29.5778  -23.5568   14.6104 O   0  0  0  0  0  0  0  0  0  0  0  0
  -22.8807  -21.1297   20.7189 O   0  0  0  0  0  0  0  0  0  1  0  0
  -27.1701  -20.5361   10.6756 F   0  0  0  0  0  0  0  0  0  0  0  0
  -26.0184  -11.2139   20.9076 F   0  0  0  0  0  0  0  0  0  0  0  0
  -30.4510  -20.9928   14.0569 F   0  0  0  0  0  0  0  0  0  0  0  0
  -23.5553  -12.1520   20.2180 F   0  0  0  0  0  0  0  0  0  0  0  0
  1  2  1  0  0  0  0
  1  5  2  0  0  0  0
  2  6  2  0  0  0  0
  3  8  2  0  0  0  0
  3 17  1  0  0  0  0
  4  9  1  0  0  0  0
  4 17  2  0  0  0  0
  5 20  1  0  0  0  0
  6 22  1  0  0  0  0
  7 10  2  0  0  0  0
  7 21  1  0  0  0  0
  8 25  1  0  0  0  0
  9 25  2  0  0  0  0
 10 26  1  0  0  0  0
 11 12  2  0  0  0  0
 11 27  1  0  0  0  0
 12 28  1  0  0  0  0
 13 18  1  0  0  0  0
 13 24  2  0  0  0  0
 14 23  1  0  0  0  0
 14 26  2  0  0  0  0
 15 24  1  0  0  0  0
 15 29  2  0  0  0  0
 16 28  2  0  0  0  0
 16 30  1  0  0  0  0
 17 32  1  0  0  0  0
 18 31  2  0  0  0  0
 18 34  1  0  0  0  0
 19 32  1  0  0  0  0
 19 33  2  0  0  0  0
 19 35  1  0  0  0  0
 20 22  2  0  0  0  0
 20 41  1  0  0  0  0
 21 23  2  0  0  0  0
 21 42  1  0  0  0  0
 22 50  1  0  0  0  0
 23 43  1  0  0  0  0
 24 70  1  0  0  0  0
 25 82  1  0  0  0  0
 26 83  1  0  0  0  0
 27 30  2  0  0  0  0
 27 82  1  0  0  0  0
 28 84  1  0  0  0  0
 29 31  1  0  0  0  0
 29 85  1  0  0  0  0
 30 86  1  0  0  0  0
 31 87  1  0  0  0  0
 32 64  2  0  0  0  0
 33 65  1  0  0  0  0
 33 68  1  0  0  0  0
 34 60  1  0  0  0  0
 34 74  2  0  0  0  0
 35 69  1  0  0  0  0
 35 75  2  0  0  0  0
 36 51  1  0  0  0  0
 36 71  1  0  0  0  0
 36 76  2  0  0  0  0
 37 58  1  0  0  0  0
 37 59  1  0  0  0  0
 37 77  2  0  0  0  0
 38 61  1  0  0  0  0
 38 66  1  0  0  0  0
 38 78  2  0  0  0  0
 39 62  1  0  0  0  0
 39 72  1  0  0  0  0
 39 79  2  0  0  0  0
 40 67  1  0  0  0  0
 40 70  1  0  0  0  0
 40 80  2  0  0  0  0
 41 44  1  0  0  0  0
 42 51  1  0  0  0  0
 43 66  1  0  0  0  0
 44 46  1  0  0  0  0
 45 47  1  0  0  0  0
 45 48  1  0  0  0  0
 46 50  1  0  0  0  0
 47 52  1  0  0  0  0
 48 67  1  0  0  0  0
 49 52  1  0  0  0  0
 49 67  1  0  0  0  0
 50 71  1  0  0  0  0
 51 66  1  0  0  0  0
 52 65  1  0  0  0  0
 53 62  1  0  0  0  0
 54 63  1  0  0  0  0
 55 63  1  0  0  0  0
 56 63  1  0  0  0  0
 57 73  1  0  0  0  0
 58 60  1  0  0  0  0
 59 83  1  0  0  0  0
 60 81  1  0  0  0  0
 61 63  1  0  0  0  0
 61 72  1  0  0  0  0
 62 73  1  0  0  0  0
 64 65  1  0  0  0  0
M  CHG  1  73   1
M  ISO  4  40 100  59 101  70 100  83 101
M  END
> <Batch ID>
0171

> <Smiles>
CNC(C)C(=O)NC(C(=O)N1Cc2cc([101O:1][101CH2:1]C(=O)CC(O)C(=O)c3cc([100NH:0][100C:0](=O)N4CCCC(n5nc(-c6ccc(Oc7ccc(F)cc7F)cc6)c(C(N)=O)c5N)C4)cc(F)c3F)ccc2CC1C(=O)NC1CCCc2ccccc21)C(C)(C)C

> <Shape>
0.230

> <Color>
0.060

> <Negative vol penalty>
0.000

$$$$

  -OEChem-04052304233D

 85 93  0     1  0  0  0  0  0999 V2000
  -20.4496  -33.6048   15.5894 C   0  0  0  0  0  0  0  0  0  0  0  0
  -21.3183  -32.5200   15.6513 C   0  0  0  0  0  0  0  0  0  0  0  0
  -24.3850   -8.7966   20.5093 C   0  0  0  0  0  0  0  0  0  0  0  0
  -23.1907  -10.7753   21.2132 C   0  0  0  0  0  0  0  0  0  0  0  0
  -20.6260  -34.6877   16.4497 C   0  0  0  0  0  0  0  0  0  0  0  0
  -22.3647  -32.5179   16.5730 C   0  0  0  0  0  0  0  0  0  0  0  0
  -24.6415  -27.6725   19.5470 C   0  0  0  0  0  0  0  0  0  0  0  0
  -23.3105   -8.0043   20.9134 C   0  0  0  0  0  0  0  0  0  0  0  0
  -22.1162   -9.9830   21.6173 C   0  0  0  0  0  0  0  0  0  0  0  0
  -25.7582  -26.8703   19.3166 C   0  0  0  0  0  0  0  0  0  0  0  0
  -21.0268   -5.4313   22.0915 C   0  0  0  0  0  0  0  0  0  0  0  0
  -21.3090   -4.2759   22.8202 C   0  0  0  0  0  0  0  0  0  0  0  0
  -27.0269  -28.1978   20.8811 C   0  0  0  0  0  0  0  0  0  0  0  0
  -30.4226  -18.5682   21.5533 C   0  0  0  0  0  0  0  0  0  0  0  0
  -29.1018  -18.3318   19.5442 C   0  0  0  0  0  0  0  0  0  0  0  0
  -22.3553   -5.6147   24.5378 C   0  0  0  0  0  0  0  0  0  0  0  0
  -24.3251  -10.1821   20.6592 C   0  0  0  0  0  0  0  0  0  0  0  0
  -25.6382  -11.5754   18.9734 C   0  0  0  0  0  0  0  0  0  0  0  0
  -21.6693  -34.6946   17.3889 C   0  0  0  0  0  0  0  0  0  0  0  0
  -24.7123  -28.7518   20.4394 C   0  0  0  0  0  0  0  0  0  0  0  0
  -22.5561  -33.6025   17.4458 C   0  0  0  0  0  0  0  0  0  0  0  0
  -25.9089  -29.0106   21.1229 C   0  0  0  0  0  0  0  0  0  0  0  0
  -29.7356  -17.7601   20.6474 C   0  0  0  0  0  0  0  0  0  0  0  0
  -29.8420  -20.5198   20.2528 C   0  0  0  0  0  0  0  0  0  0  0  0
  -22.1761   -8.5974   21.4674 C   0  0  0  0  0  0  0  0  0  0  0  0
  -26.9520  -27.1346   19.9815 C   0  0  0  0  0  0  0  0  0  0  0  0
  -21.4089   -6.6784   22.5859 C   0  0  0  0  0  0  0  0  0  0  0  0
  -30.4758  -19.9481   21.3560 C   0  0  0  0  0  0  0  0  0  0  0  0
  -21.9732   -4.3676   24.0434 C   0  0  0  0  0  0  0  0  0  0  0  0
  -29.1550  -19.7117   19.3468 C   0  0  0  0  0  0  0  0  0  0  0  0
  -22.0731   -6.7701   23.8090 C   0  0  0  0  0  0  0  0  0  0  0  0
  -25.4350  -11.0010   20.2425 C   0  0  0  0  0  0  0  0  0  0  0  0
  -26.8274  -12.2529   19.0896 C   0  0  0  0  0  0  0  0  0  0  0  0
  -24.8248  -11.5032   17.7949 C   0  0  0  0  0  0  0  0  0  0  0  0
  -24.3622  -31.9008   20.1835 C   0  0  0  0  0  0  0  0  0  0  0  0
  -24.6503  -31.8033   23.4130 C   0  0  0  0  0  0  0  0  0  0  0  0
  -25.7943  -30.1508   26.1711 C   0  0  0  0  0  0  0  0  0  0  0  0
  -30.2553  -15.6310   21.8897 C   0  0  0  0  0  0  0  0  0  0  0  0
  -21.8486  -35.9085   18.2658 C   0  0  0  0  0  0  0  0  0  0  0  0
  -23.4911  -29.5913   20.6970 C   0  0  0  0  0  0  0  0  0  0  0  0
  -26.0312  -30.1448   22.1063 C   0  0  0  0  0  0  0  0  0  0  0  0
  -22.7563  -35.6626   19.4683 C   0  0  0  0  0  0  0  0  0  0  0  0
  -30.3163  -12.1781   22.7562 C   0  0  0  0  0  0  0  0  0  0  0  0
  -24.0222  -34.9271   19.0400 C   0  0  0  0  0  0  0  0  0  0  0  0
  -29.0685  -11.6113   22.0751 C   0  0  0  0  0  0  0  0  0  0  0  0
  -30.0781  -13.5882   23.2934 C   0  0  0  0  0  0  0  0  0  0  0  0
  -28.3015  -13.9782   21.6318 C   0  0  0  0  0  0  0  0  0  0  0  0
  -23.6881  -33.5522   18.4488 C   0  0  1  0  0  0  0  0  0  0  0  0
  -23.8228  -30.9780   21.2396 C   0  0  1  0  0  0  0  0  0  0  0  0
  -28.5125  -12.5848   21.0174 C   0  0  2  0  0  0  0  0  0  0  0  0
  -25.9130  -30.3370   28.6709 C   0  0  0  0  0  0  0  0  0  0  0  0
  -26.8825  -33.8670   23.1509 C   0  0  0  0  0  0  0  0  0  0  0  0
  -27.5802  -33.3066   25.4892 C   0  0  0  0  0  0  0  0  0  0  0  0
  -25.3160  -34.2615   25.0601 C   0  0  0  0  0  0  0  0  0  0  0  0
  -24.2285  -27.6676   26.5465 C   0  0  0  0  0  0  0  0  0  0  0  0
  -30.4109  -21.2257   23.3608 C   0  0  0  0  0  0  0  0  0  0  0  0
  -28.7645  -22.6666   19.5776 C   0  0  0  0  0  0  0  0  0  0  0  0
  -27.8068  -24.9895   19.4126 C   0  0  0  0  0  0  0  0  0  1  0  0
  -25.8022  -31.8737   24.3862 C   0  0  1  0  0  0  0  0  0  0  0  0
  -25.1225  -29.8018   27.4870 C   0  0  2  0  0  0  0  0  0  0  0  0
  -28.9806  -24.1448   19.8961 C   0  0  1  0  0  0  0  0  0  0  0  0
  -26.3938  -33.3069   24.5017 C   0  0  0  0  0  0  0  0  0  0  0  0
  -26.4164  -11.2883   21.1017 N   0  0  0  0  0  0  0  0  0  0  0  0
  -27.2479  -12.0506   20.3712 N   0  0  0  0  0  0  0  0  0  0  0  0
  -24.8113  -30.9409   22.3194 N   0  0  0  0  0  0  0  0  0  0  0  0
  -29.5558  -14.4554   22.2351 N   0  0  0  0  0  0  0  0  0  0  0  0
  -27.5439  -12.9958   18.2195 N   0  0  0  0  0  0  0  0  0  0  0  0
  -23.6347  -10.7649   17.8487 N   0  0  0  0  0  0  0  0  0  0  0  0
  -29.6812  -16.3584   20.8476 N   0  0  0  0  0  0  0  0  0  0  0  0
  -29.8889  -21.8882   20.0467 N   0  0  0  0  0  0  0  0  0  0  0  0
  -23.3888  -32.6077   19.5036 N   0  0  0  0  0  0  0  0  0  0  0  0
  -25.3066  -31.3286   25.6454 N   0  0  0  0  0  0  0  0  0  0  0  0
  -25.0030  -28.3233   27.6314 N   0  3  0  0  0  0  0  0  0  0  0  0
  -25.1521  -12.0628   16.7210 O   0  0  0  0  0  0  0  0  0  0  0  0
  -25.5720  -31.9676   20.0001 O   0  0  0  0  0  0  0  0  0  0  0  0
  -23.6418  -32.4830   23.6195 O   0  0  0  0  0  0  0  0  0  0  0  0
  -26.6671  -29.4508   25.6625 O   0  0  0  0  0  0  0  0  0  0  0  0
  -31.3024  -15.9534   22.4568 O   0  0  0  0  0  0  0  0  0  0  0  0
  -29.0795  -24.3080   21.3124 O   0  0  0  0  0  0  0  0  0  0  0  0
  -21.1273   -7.8246   21.8616 O   0  0  0  0  0  0  0  0  0  0  0  0
  -31.1523  -20.7203   22.2526 O   0  0  0  0  0  0  0  0  0  0  0  0
  -28.0438  -26.3536   19.7580 O   0  0  0  0  0  0  0  0  0  1  0  0
  -22.2427   -3.2581   24.7438 F   0  0  0  0  0  0  0  0  0  0  0  0
  -28.5422  -20.2500   18.2829 F   0  0  0  0  0  0  0  0  0  0  0  0
  -22.4417   -7.9655   24.2896 F   0  0  0  0  0  0  0  0  0  0  0  0
  1  2  1  0  0  0  0
  1  5  2  0  0  0  0
  2  6  2  0  0  0  0
  3  8  2  0  0  0  0
  3 17  1  0  0  0  0
  4  9  1  0  0  0  0
  4 17  2  0  0  0  0
  5 19  1  0  0  0  0
  6 21  1  0  0  0  0
  7 10  2  0  0  0  0
  7 20  1  0  0  0  0
  8 25  1  0  0  0  0
  9 25  2  0  0  0  0
 10 26  1  0  0  0  0
 11 12  2  0  0  0  0
 11 27  1  0  0  0  0
 12 29  1  0  0  0  0
 13 22  1  0  0  0  0
 13 26  2  0  0  0  0
 14 23  2  0  0  0  0
 14 28  1  0  0  0  0
 15 23  1  0  0  0  0
 15 30  2  0  0  0  0
 16 29  2  0  0  0  0
 16 31  1  0  0  0  0
 17 32  1  0  0  0  0
 18 32  1  0  0  0  0
 18 33  2  0  0  0  0
 18 34  1  0  0  0  0
 19 21  2  0  0  0  0
 19 39  1  0  0  0  0
 20 22  2  0  0  0  0
 20 40  1  0  0  0  0
 21 48  1  0  0  0  0
 22 41  1  0  0  0  0
 23 69  1  0  0  0  0
 24 28  2  0  0  0  0
 24 30  1  0  0  0  0
 24 70  1  0  0  0  0
 25 80  1  0  0  0  0
 26 82  1  0  0  0  0
 27 31  2  0  0  0  0
 27 80  1  0  0  0  0
 28 81  1  0  0  0  0
 29 83  1  0  0  0  0
 30 84  1  0  0  0  0
 31 85  1  0  0  0  0
 32 63  2  0  0  0  0
 33 64  1  0  0  0  0
 33 67  1  0  0  0  0
 34 68  1  0  0  0  0
 34 74  2  0  0  0  0
 35 49  1  0  0  0  0
 35 71  1  0  0  0  0
 35 75  2  0  0  0  0
 36 59  1  0  0  0  0
 36 65  1  0  0  0  0
 36 76  2  0  0  0  0
 37 60  1  0  0  0  0
 37 72  1  0  0  0  0
 37 77  2  0  0  0  0
 38 66  1  0  0  0  0
 38 69  1  0  0  0  0
 38 78  2  0  0  0  0
 39 42  1  0  0  0  0
 40 49  1  0  0  0  0
 41 65  1  0  0  0  0
 42 44  1  0  0  0  0
 43 45  1  0  0  0  0
 43 46  1  0  0  0  0
 44 48  1  0  0  0  0
 45 50  1  0  0  0  0
 46 66  1  0  0  0  0
 47 50  1  0  0  0  0
 47 66  1  0  0  0  0
 48 71  1  0  0  0  0
 49 65  1  0  0  0  0
 50 64  1  0  0  0  0
 51 60  1  0  0  0  0
 52 62  1  0  0  0  0
 53 62  1  0  0  0  0
 54 62  1  0  0  0  0
 55 73  1  0  0  0  0
 56 81  1  0  0  0  0
 57 61  1  0  0  0  0
 57 70  1  0  0  0  0
 58 61  1  0  0  0  0
 58 82  1  0  0  0  0
 59 62  1  0  0  0  0
 59 72  1  0  0  0  0
 60 73  1  0  0  0  0
 61 79  1  0  0  0  0
 63 64  1  0  0  0  0
M  CHG  1  73   1
M  ISO  4  38 100  58 101  69 100  82 101
M  END
> <Batch ID>
0171

> <Smiles>
CNC(C)C(=O)NC(C(=O)N1Cc2cc([101O:1][101CH2:1]C(O)CNc3c(F)cc([100NH:0][100C:0](=O)N4CCCC(n5nc(-c6ccc(Oc7ccc(F)cc7F)cc6)c(C(N)=O)c5N)C4)cc3OC)ccc2CC1C(=O)NC1CCCc2ccccc21)C(C)(C)C

> <Shape>
0.328

> <Color>
0.114

> <Negative vol penalty>
0.000

$$$$

  -OEChem-04052304233D

 89 97  0     1  0  0  0  0  0999 V2000
  -32.7268  -25.7196   22.3630 C   0  0  0  0  0  0  0  0  0  0  0  0
  -31.8868  -25.7415   21.2542 C   0  0  0  0  0  0  0  0  0  0  0  0
  -26.5574  -14.0283   21.7063 C   0  0  0  0  0  0  0  0  0  0  0  0
  -26.4178  -13.9000   19.2977 C   0  0  0  0  0  0  0  0  0  0  0  0
  -32.1896  -25.5636   23.6401 C   0  0  0  0  0  0  0  0  0  0  0  0
  -30.5091  -25.6064   21.4219 C   0  0  0  0  0  0  0  0  0  0  0  0
  -27.8795  -28.9298   18.6497 C   0  0  0  0  0  0  0  0  0  0  0  0
  -25.7302  -12.9104   21.8138 C   0  0  0  0  0  0  0  0  0  0  0  0
  -25.5906  -12.7820   19.4052 C   0  0  0  0  0  0  0  0  0  0  0  0
  -27.7341  -28.6518   17.2913 C   0  0  0  0  0  0  0  0  0  0  0  0
  -22.4276  -12.2258   21.5937 C   0  0  0  0  0  0  0  0  0  0  0  0
  -21.3919  -12.2742   22.5268 C   0  0  0  0  0  0  0  0  0  0  0  0
  -30.0405  -23.2221   15.6756 C   0  0  0  0  0  0  0  0  0  0  0  0
  -31.8348  -23.0327   14.0689 C   0  0  0  0  0  0  0  0  0  0  0  0
  -25.5143  -27.8046   17.7083 C   0  0  0  0  0  0  0  0  0  0  0  0
  -31.5920  -21.3749   15.8095 C   0  0  0  0  0  0  0  0  0  0  0  0
  -22.3247  -10.3560   23.6616 C   0  0  0  0  0  0  0  0  0  0  0  0
  -26.9012  -14.5231   20.4483 C   0  0  0  0  0  0  0  0  0  0  0  0
  -30.7195  -23.7116   14.5599 C   0  0  0  0  0  0  0  0  0  0  0  0
  -29.1605  -15.6917   20.2542 C   0  0  0  0  0  0  0  0  0  0  0  0
  -30.8038  -25.4362   23.8243 C   0  0  0  0  0  0  0  0  0  0  0  0
  -26.8457  -28.6367   19.5508 C   0  0  0  0  0  0  0  0  0  0  0  0
  -29.9530  -25.4472   22.7026 C   0  0  0  0  0  0  0  0  0  0  0  0
  -25.6480  -28.0822   19.0773 C   0  0  0  0  0  0  0  0  0  0  0  0
  -30.4768  -22.0538   16.3005 C   0  0  0  0  0  0  0  0  0  0  0  0
  -25.2468  -12.2872   20.6633 C   0  0  0  0  0  0  0  0  0  0  0  0
  -26.5525  -28.0865   16.8207 C   0  0  0  0  0  0  0  0  0  0  0  0
  -23.4118  -11.2424   21.6945 C   0  0  0  0  0  0  0  0  0  0  0  0
  -21.3405  -11.3393   23.5607 C   0  0  0  0  0  0  0  0  0  0  0  0
  -32.2710  -21.8644   14.6937 C   0  0  0  0  0  0  0  0  0  0  0  0
  -23.3603  -10.3076   22.7285 C   0  0  0  0  0  0  0  0  0  0  0  0
  -27.7552  -15.6782   20.3366 C   0  0  0  0  0  0  0  0  0  0  0  0
  -29.4864  -17.0229   20.1636 C   0  0  0  0  0  0  0  0  0  0  0  0
  -30.2590  -24.9491   13.8987 C   0  0  0  0  0  0  0  0  0  0  0  0
  -30.0883  -14.5986   20.2591 C   0  0  0  0  0  0  0  0  0  0  0  0
  -26.5451  -26.7307   22.0768 C   0  0  0  0  0  0  0  0  0  0  0  0
  -29.1840  -25.7733   10.3351 C   0  0  0  0  0  0  0  0  0  0  0  0
  -27.2732  -26.5592   13.6117 C   0  0  0  0  0  0  0  0  0  0  0  0
  -23.6575  -28.1846   22.3415 C   0  0  0  0  0  0  0  0  0  0  0  0
  -21.1157  -29.8777   20.8185 C   0  0  0  0  0  0  0  0  0  0  0  0
  -28.6617  -22.1063   18.0466 C   0  0  0  0  0  0  0  0  0  0  0  0
  -30.2737  -25.2223   25.2200 C   0  0  0  0  0  0  0  0  0  0  0  0
  -27.0079  -28.9672   21.0091 C   0  0  0  0  0  0  0  0  0  0  0  0
  -24.5004  -27.7673   20.0005 C   0  0  0  0  0  0  0  0  0  0  0  0
  -28.7711  -25.4614   25.3441 C   0  0  0  0  0  0  0  0  0  0  0  0
  -26.6486  -21.1615   20.8272 C   0  0  0  0  0  0  0  0  0  0  0  0
  -28.0248  -24.7688   24.2083 C   0  0  0  0  0  0  0  0  0  0  0  0
  -26.8726  -19.6518   20.9407 C   0  0  0  0  0  0  0  0  0  0  0  0
  -26.6156  -21.6221   19.3710 C   0  0  0  0  0  0  0  0  0  0  0  0
  -27.9963  -19.7032   18.6776 C   0  0  0  0  0  0  0  0  0  0  0  0
  -28.4512  -25.3285   22.8458 C   0  0  1  0  0  0  0  0  0  0  0  0
  -26.0874  -28.1524   21.9125 C   0  0  1  0  0  0  0  0  0  0  0  0
  -28.1019  -19.2018   20.1271 C   0  0  2  0  0  0  0  0  0  0  0  0
  -28.8346  -25.4730    8.9004 C   0  0  0  0  0  0  0  0  0  0  0  0
  -18.8722  -30.9005   21.2855 C   0  0  0  0  0  0  0  0  0  0  0  0
  -22.4015  -25.4042   22.3839 C   0  0  0  0  0  0  0  0  0  0  0  0
  -20.1904  -26.4717   21.8940 C   0  0  0  0  0  0  0  0  0  0  0  0
  -21.4008  -27.0257   24.0037 C   0  0  0  0  0  0  0  0  0  0  0  0
  -22.0567  -32.5764   20.0501 C   0  0  0  0  0  0  0  0  0  0  0  0
  -28.0242  -25.7775   11.3182 C   0  0  0  0  0  0  0  0  0  0  0  0
  -27.5918  -27.4915   14.7660 C   0  0  0  0  0  0  0  0  0  1  0  0
  -28.4433  -26.1516   12.7349 C   0  0  2  0  0  0  0  0  0  0  0  0
  -22.2724  -27.9168   21.8041 C   0  0  1  0  0  0  0  0  0  0  0  0
  -20.3717  -31.1421   21.2086 C   0  0  2  0  0  0  0  0  0  0  0  0
  -21.5885  -26.7087   22.5041 C   0  0  0  0  0  0  0  0  0  0  0  0
  -27.2249  -16.9036   20.3015 N   0  0  0  0  0  0  0  0  0  0  0  0
  -28.3027  -17.6995   20.1962 N   0  0  0  0  0  0  0  0  0  0  0  0
  -24.7097  -28.1030   21.4186 N   0  0  0  0  0  0  0  0  0  0  0  0
  -27.8132  -21.1631   18.6640 N   0  0  0  0  0  0  0  0  0  0  0  0
  -30.6672  -17.6689   20.0600 N   0  0  0  0  0  0  0  0  0  0  0  0
  -29.5841  -13.2947   20.3585 N   0  0  0  0  0  0  0  0  0  0  0  0
  -29.7863  -21.5555   17.4331 N   0  0  0  0  0  0  0  0  0  0  0  0
  -29.0167  -24.9823   13.3935 N   0  0  0  0  0  0  0  0  0  0  0  0
  -27.8166  -26.6064   22.6034 N   0  0  0  0  0  0  0  0  0  0  0  0
  -21.5380  -29.1716   21.9250 N   0  0  0  0  0  0  0  0  0  0  0  0
  -31.1040  -25.9780   13.8327 N   0  3  0  0  0  0  0  0  0  0  0  0
  -20.6235  -32.2200   20.2108 N   0  3  0  0  0  0  0  0  0  0  0  0
  -31.3287  -14.7739   20.1943 O   0  0  0  0  0  0  0  0  0  0  0  0
  -25.7993  -25.8144   21.7514 O   0  0  0  0  0  0  0  0  0  0  0  0
  -30.3461  -25.9987   10.6693 O   0  0  0  0  0  0  0  0  0  0  0  0
  -26.1295  -26.1523   13.4080 O   0  0  0  0  0  0  0  0  0  0  0  0
  -23.7997  -28.4632   23.5348 O   0  0  0  0  0  0  0  0  0  0  0  0
  -21.3003  -29.5474   19.6491 O   0  0  0  0  0  0  0  0  0  0  0  0
  -28.4234  -23.3162   18.0845 O   0  0  0  0  0  0  0  0  0  0  0  0
  -24.4398  -11.1962   20.7678 O   0  0  0  0  0  0  0  0  0  0  0  0
  -26.4083  -27.8136   15.4954 O   0  0  0  0  0  0  0  0  0  1  0  0
  -20.3467  -11.3869   24.4576 F   0  0  0  0  0  0  0  0  0  0  0  0
  -33.3420  -21.2126   14.2222 F   0  0  0  0  0  0  0  0  0  0  0  0
  -24.3037   -9.3613   22.8312 F   0  0  0  0  0  0  0  0  0  0  0  0
  1  2  1  0  0  0  0
  1  5  2  0  0  0  0
  2  6  2  0  0  0  0
  3  8  2  0  0  0  0
  3 18  1  0  0  0  0
  4  9  1  0  0  0  0
  4 18  2  0  0  0  0
  5 21  1  0  0  0  0
  6 23  1  0  0  0  0
  7 10  2  0  0  0  0
  7 22  1  0  0  0  0
  8 26  1  0  0  0  0
  9 26  2  0  0  0  0
 10 27  1  0  0  0  0
 11 12  2  0  0  0  0
 11 28  1  0  0  0  0
 12 29  1  0  0  0  0
 13 19  2  0  0  0  0
 13 25  1  0  0  0  0
 14 19  1  0  0  0  0
 14 30  2  0  0  0  0
 15 24  1  0  0  0  0
 15 27  2  0  0  0  0
 16 25  2  0  0  0  0
 16 30  1  0  0  0  0
 17 29  2  0  0  0  0
 17 31  1  0  0  0  0
 18 32  1  0  0  0  0
 19 34  1  0  0  0  0
 20 32  1  0  0  0  0
 20 33  2  0  0  0  0
 20 35  1  0  0  0  0
 21 23  2  0  0  0  0
 21 42  1  0  0  0  0
 22 24  2  0  0  0  0
 22 43  1  0  0  0  0
 23 51  1  0  0  0  0
 24 44  1  0  0  0  0
 25 72  1  0  0  0  0
 26 85  1  0  0  0  0
 27 86  1  0  0  0  0
 28 31  2  0  0  0  0
 28 85  1  0  0  0  0
 29 87  1  0  0  0  0
 30 88  1  0  0  0  0
 31 89  1  0  0  0  0
 32 66  2  0  0  0  0
 33 67  1  0  0  0  0
 33 70  1  0  0  0  0
 34 73  1  0  0  0  0
 34 76  2  0  0  0  0
 35 71  1  0  0  0  0
 35 78  2  0  0  0  0
 36 52  1  0  0  0  0
 36 74  1  0  0  0  0
 36 79  2  0  0  0  0
 37 54  1  0  0  0  0
 37 60  1  0  0  0  0
 37 80  2  0  0  0  0
 38 61  1  0  0  0  0
 38 62  1  0  0  0  0
 38 81  2  0  0  0  0
 39 63  1  0  0  0  0
 39 68  1  0  0  0  0
 39 82  2  0  0  0  0
 40 64  1  0  0  0  0
 40 75  1  0  0  0  0
 40 83  2  0  0  0  0
 41 69  1  0  0  0  0
 41 72  1  0  0  0  0
 41 84  2  0  0  0  0
 42 45  1  0  0  0  0
 43 52  1  0  0  0  0
 44 68  1  0  0  0  0
 45 47  1  0  0  0  0
 46 48  1  0  0  0  0
 46 49  1  0  0  0  0
 47 51  1  0  0  0  0
 48 53  1  0  0  0  0
 49 69  1  0  0  0  0
 50 53  1  0  0  0  0
 50 69  1  0  0  0  0
 51 74  1  0  0  0  0
 52 68  1  0  0  0  0
 53 67  1  0  0  0  0
 55 64  1  0  0  0  0
 56 65  1  0  0  0  0
 57 65  1  0  0  0  0
 58 65  1  0  0  0  0
 59 77  1  0  0  0  0
 60 62  1  0  0  0  0
 61 86  1  0  0  0  0
 62 73  1  0  0  0  0
 63 65  1  0  0  0  0
 63 75  1  0  0  0  0
 64 77  1  0  0  0  0
 66 67  1  0  0  0  0
M  CHG  2  76   1  77   1
M  ISO  4  41 100  61 101  72 100  86 101
M  END
> <Batch ID>
0171

> <Smiles>
CNC(C)C(=O)NC(C(=O)N1Cc2cc([101O:1][101CH2:1]C(=O)C(CC(C)=O)NC(=N)c3cc(F)cc([100NH:0][100C:0](=O)N4CCCC(n5nc(-c6ccc(Oc7ccc(F)cc7F)cc6)c(C(N)=O)c5N)C4)c3)ccc2CC1C(=O)NC1CCCc2ccccc21)C(C)(C)C

> <Shape>
0.188

> <Color>
0.088

> <Negative vol penalty>
0.000

$$$$

  -OEChem-04052304233D

 88 96  0     1  0  0  0  0  0999 V2000
  -17.0434  -20.4924    8.7351 C   0  0  0  0  0  0  0  0  0  0  0  0
  -18.1772  -20.7774    9.4893 C   0  0  0  0  0  0  0  0  0  0  0  0
  -23.0742   -9.8688   19.9415 C   0  0  0  0  0  0  0  0  0  0  0  0
  -23.8387   -9.8740   22.2334 C   0  0  0  0  0  0  0  0  0  0  0  0
  -15.8053  -20.3608    9.3625 C   0  0  0  0  0  0  0  0  0  0  0  0
  -18.0733  -20.9321   10.8712 C   0  0  0  0  0  0  0  0  0  0  0  0
  -22.2227  -19.3230   15.0782 C   0  0  0  0  0  0  0  0  0  0  0  0
  -22.3315   -8.7150   20.1918 C   0  0  0  0  0  0  0  0  0  0  0  0
  -23.0960   -8.7201   22.4837 C   0  0  0  0  0  0  0  0  0  0  0  0
  -23.1949  -20.0506   15.7630 C   0  0  0  0  0  0  0  0  0  0  0  0
  -21.1154   -5.9805   23.8215 C   0  0  0  0  0  0  0  0  0  0  0  0
  -20.3615   -5.9352   24.9942 C   0  0  0  0  0  0  0  0  0  0  0  0
  -21.6799  -20.3139   17.6217 C   0  0  0  0  0  0  0  0  0  0  0  0
  -19.1143   -7.8725   24.2671 C   0  0  0  0  0  0  0  0  0  0  0  0
  -31.5438  -19.2817   19.2005 C   0  0  0  0  0  0  0  0  0  0  0  0
  -23.8279  -10.4483   20.9623 C   0  0  0  0  0  0  0  0  0  0  0  0
  -24.1679  -12.9738   20.8441 C   0  0  0  0  0  0  0  0  0  0  0  0
  -15.6877  -20.5044   10.7540 C   0  0  0  0  0  0  0  0  0  0  0  0
  -20.9658  -19.0942   15.6564 C   0  0  0  0  0  0  0  0  0  0  0  0
  -16.8321  -20.8036   11.5176 C   0  0  0  0  0  0  0  0  0  0  0  0
  -20.6943  -19.5808   16.9431 C   0  0  0  0  0  0  0  0  0  0  0  0
  -29.4026  -18.7030   20.8320 C   0  0  0  0  0  0  0  0  0  0  0  0
  -29.2959  -19.7217   19.8899 C   0  0  0  0  0  0  0  0  0  0  0  0
  -22.3424   -8.1406   21.4629 C   0  0  0  0  0  0  0  0  0  0  0  0
  -22.9226  -20.5487   17.0338 C   0  0  0  0  0  0  0  0  0  0  0  0
  -20.8688   -6.9718   22.8716 C   0  0  0  0  0  0  0  0  0  0  0  0
  -19.3609   -6.8812   25.2170 C   0  0  0  0  0  0  0  0  0  0  0  0
  -19.8682   -7.9177   23.0944 C   0  0  0  0  0  0  0  0  0  0  0  0
  -30.3754  -20.0177   19.0633 C   0  0  0  0  0  0  0  0  0  0  0  0
  -24.5957  -11.6399   20.7042 C   0  0  0  0  0  0  0  0  0  0  0  0
  -30.5955  -18.0002   20.9243 C   0  0  0  0  0  0  0  0  0  0  0  0
  -25.2589  -13.7243   20.4794 C   0  0  0  0  0  0  0  0  0  0  0  0
  -22.8980  -13.4884   21.2661 C   0  0  0  0  0  0  0  0  0  0  0  0
  -17.9762  -19.8687   14.9043 C   0  0  0  0  0  0  0  0  0  0  0  0
  -26.0951  -21.1788   18.6599 C   0  0  0  0  0  0  0  0  0  0  0  0
  -17.2604  -17.9701   17.4352 C   0  0  0  0  0  0  0  0  0  0  0  0
  -18.2663  -16.5620   20.3767 C   0  0  0  0  0  0  0  0  0  0  0  0
  -30.7424  -14.7464   20.6578 C   0  0  0  0  0  0  0  0  0  0  0  0
  -14.3203  -20.4000   11.3816 C   0  0  0  0  0  0  0  0  0  0  0  0
  -19.9373  -18.2845   14.9155 C   0  0  0  0  0  0  0  0  0  0  0  0
  -19.3678  -19.3454   17.6165 C   0  0  0  0  0  0  0  0  0  0  0  0
  -14.3580  -20.2082   12.8955 C   0  0  0  0  0  0  0  0  0  0  0  0
  -29.6014  -12.3636   18.2709 C   0  0  0  0  0  0  0  0  0  0  0  0
  -15.3375  -21.1881   13.5335 C   0  0  0  0  0  0  0  0  0  0  0  0
  -28.1650  -12.0686   18.7064 C   0  0  0  0  0  0  0  0  0  0  0  0
  -30.5208  -12.5838   19.4702 C   0  0  0  0  0  0  0  0  0  0  0  0
  -28.6215  -13.3123   20.8613 C   0  0  0  0  0  0  0  0  0  0  0  0
  -16.7640  -20.9540   13.0219 C   0  0  1  0  0  0  0  0  0  0  0  0
  -18.5120  -18.5514   15.3895 C   0  0  1  0  0  0  0  0  0  0  0  0
  -27.6450  -13.1383   19.6855 C   0  0  2  0  0  0  0  0  0  0  0  0
  -18.1588  -15.1070   22.4184 C   0  0  0  0  0  0  0  0  0  0  0  0
  -15.6448  -20.2987   18.5654 C   0  0  0  0  0  0  0  0  0  0  0  0
  -15.6584  -19.1401   20.7848 C   0  0  0  0  0  0  0  0  0  0  0  0
  -14.5643  -18.0579   18.8215 C   0  0  0  0  0  0  0  0  0  0  0  0
  -19.4417  -14.2579   18.9385 C   0  0  0  0  0  0  0  0  0  0  0  0
  -30.8095  -16.8958   21.8967 C   0  0  0  0  0  0  0  0  0  0  0  0
  -27.5660  -20.8594   18.4974 C   0  0  0  0  0  0  0  0  0  0  0  0
  -25.2338  -20.9399   17.4349 C   0  0  0  0  0  0  0  0  0  1  0  0
  -17.0874  -18.1869   18.9191 C   0  0  1  0  0  0  0  0  0  0  0  0
  -18.1682  -15.1397   20.8980 C   0  0  2  0  0  0  0  0  0  0  0  0
  -28.2583  -18.3666   21.7312 C   0  0  0  0  0  0  0  0  0  0  0  0
  -15.7631  -18.9271   19.2595 C   0  0  0  0  0  0  0  0  0  0  0  0
  -25.8598  -11.5452   20.2833 N   0  0  0  0  0  0  0  0  0  0  0  0
  -26.2357  -12.8292   20.1555 N   0  0  0  0  0  0  0  0  0  0  0  0
  -31.6194  -18.3060   20.1159 N   0  3  0  0  0  0  0  0  0  0  0  0
  -18.3926  -18.5533   16.8489 N   0  0  0  0  0  0  0  0  0  0  0  0
  -29.9715  -13.6111   20.3583 N   0  0  0  0  0  0  0  0  0  0  0  0
  -25.4684  -15.0559   20.4074 N   0  0  0  0  0  0  0  0  0  0  0  0
  -21.8873  -12.5783   21.6045 N   0  0  0  0  0  0  0  0  0  0  0  0
  -28.1220  -20.4504   19.7618 N   0  0  0  0  0  0  0  0  0  0  0  0
  -17.3521  -19.8032   13.6732 N   0  0  0  0  0  0  0  0  0  0  0  0
  -17.2145  -16.8734   19.5411 N   0  0  0  0  0  0  0  0  0  0  0  0
  -30.1444  -15.6740   21.5020 N   0  0  0  0  0  0  0  0  0  0  0  0
  -19.3243  -14.3311   20.4177 N   0  3  0  0  0  0  0  0  0  0  0  0
  -22.6611  -14.7188   21.3252 O   0  0  0  0  0  0  0  0  0  0  0  0
  -18.1171  -20.8701   15.5965 O   0  0  0  0  0  0  0  0  0  0  0  0
  -25.6189  -21.6047   19.7114 O   0  0  0  0  0  0  0  0  0  0  0  0
  -16.4256  -17.3018   16.8203 O   0  0  0  0  0  0  0  0  0  0  0  0
  -19.1821  -17.3222   20.6832 O   0  0  0  0  0  0  0  0  0  0  0  0
  -31.8773  -14.9230   20.2021 O   0  0  0  0  0  0  0  0  0  0  0  0
  -21.6176   -7.0148   21.7075 O   0  0  0  0  0  0  0  0  0  0  0  0
  -23.8695  -21.2598   17.7042 O   0  0  0  0  0  0  0  0  0  1  0  0
  -18.6360   -6.8367   26.3425 F   0  0  0  0  0  0  0  0  0  0  0  0
  -19.6259   -8.8717   22.1850 F   0  0  0  0  0  0  0  0  0  0  0  0
  -30.2997  -20.9919   18.1469 F   0  0  0  0  0  0  0  0  0  0  0  0
  -27.1548  -19.1428   21.5231 F   0  0  0  0  0  0  0  0  0  0  0  0
  -27.8213  -17.0803   21.5984 F   0  0  0  0  0  0  0  0  0  0  0  0
  -28.5692  -18.5153   23.0509 F   0  0  0  0  0  0  0  0  0  0  0  0
  1  2  1  0  0  0  0
  1  5  2  0  0  0  0
  2  6  2  0  0  0  0
  3  8  2  0  0  0  0
  3 16  1  0  0  0  0
  4  9  1  0  0  0  0
  4 16  2  0  0  0  0
  5 18  1  0  0  0  0
  6 20  1  0  0  0  0
  7 10  2  0  0  0  0
  7 19  1  0  0  0  0
  8 24  1  0  0  0  0
  9 24  2  0  0  0  0
 10 25  1  0  0  0  0
 11 12  2  0  0  0  0
 11 26  1  0  0  0  0
 12 27  1  0  0  0  0
 13 21  1  0  0  0  0
 13 25  2  0  0  0  0
 14 27  2  0  0  0  0
 14 28  1  0  0  0  0
 15 29  2  0  0  0  0
 15 65  1  0  0  0  0
 16 30  1  0  0  0  0
 17 30  1  0  0  0  0
 17 32  2  0  0  0  0
 17 33  1  0  0  0  0
 18 20  2  0  0  0  0
 18 39  1  0  0  0  0
 19 21  2  0  0  0  0
 19 40  1  0  0  0  0
 20 48  1  0  0  0  0
 21 41  1  0  0  0  0
 22 23  2  0  0  0  0
 22 31  1  0  0  0  0
 22 61  1  0  0  0  0
 23 29  1  0  0  0  0
 23 70  1  0  0  0  0
 24 81  1  0  0  0  0
 25 82  1  0  0  0  0
 26 28  2  0  0  0  0
 26 81  1  0  0  0  0
 27 83  1  0  0  0  0
 28 84  1  0  0  0  0
 29 85  1  0  0  0  0
 30 63  2  0  0  0  0
 31 56  1  0  0  0  0
 31 65  2  0  0  0  0
 32 64  1  0  0  0  0
 32 68  1  0  0  0  0
 33 69  1  0  0  0  0
 33 75  2  0  0  0  0
 34 49  1  0  0  0  0
 34 71  1  0  0  0  0
 34 76  2  0  0  0  0
 35 57  1  0  0  0  0
 35 58  1  0  0  0  0
 35 77  2  0  0  0  0
 36 59  1  0  0  0  0
 36 66  1  0  0  0  0
 36 78  2  0  0  0  0
 37 60  1  0  0  0  0
 37 72  1  0  0  0  0
 37 79  2  0  0  0  0
 38 67  1  0  0  0  0
 38 73  1  0  0  0  0
 38 80  2  0  0  0  0
 39 42  1  0  0  0  0
 40 49  1  0  0  0  0
 41 66  1  0  0  0  0
 42 44  1  0  0  0  0
 43 45  1  0  0  0  0
 43 46  1  0  0  0  0
 44 48  1  0  0  0  0
 45 50  1  0  0  0  0
 46 67  1  0  0  0  0
 47 50  1  0  0  0  0
 47 67  1  0  0  0  0
 48 71  1  0  0  0  0
 49 66  1  0  0  0  0
 50 64  1  0  0  0  0
 51 60  1  0  0  0  0
 52 62  1  0  0  0  0
 53 62  1  0  0  0  0
 54 62  1  0  0  0  0
 55 74  1  0  0  0  0
 56 73  1  0  0  0  0
 57 70  1  0  0  0  0
 58 82  1  0  0  0  0
 59 62  1  0  0  0  0
 59 72  1  0  0  0  0
 60 74  1  0  0  0  0
 61 86  1  0  0  0  0
 61 87  1  0  0  0  0
 61 88  1  0  0  0  0
 63 64  1  0  0  0  0
M  CHG  2  65   1  74   1
M  ISO  4  38 100  58 101  73 100  82 101
M  END
> <Batch ID>
0171

> <Smiles>
CNC(C)C(=O)NC(C(=O)N1Cc2cc([101O:1][101CH2:1]C(=O)CNc3c(F)cnc(C[100NH:0][100C:0](=O)N4CCCC(n5nc(-c6ccc(Oc7ccc(F)cc7F)cc6)c(C(N)=O)c5N)C4)c3C(F)(F)F)ccc2CC1C(=O)NC1CCCc2ccccc21)C(C)(C)C

> <Shape>
0.195

> <Color>
0.187

> <Negative vol penalty>
0.000

$$$$

  -OEChem-04052304233D

 89 97  0     1  0  0  0  0  0999 V2000
  -15.0765  -27.7194   21.3746 C   0  0  0  0  0  0  0  0  0  0  0  0
  -16.0559  -26.7388   21.2535 C   0  0  0  0  0  0  0  0  0  0  0  0
  -23.0648   -9.8684   20.0633 C   0  0  0  0  0  0  0  0  0  0  0  0
  -23.7291  -10.0686   22.3776 C   0  0  0  0  0  0  0  0  0  0  0  0
  -15.3011  -28.8309   22.1857 C   0  0  0  0  0  0  0  0  0  0  0  0
  -17.2610  -26.8698   21.9427 C   0  0  0  0  0  0  0  0  0  0  0  0
  -20.6230  -22.3625   24.3691 C   0  0  0  0  0  0  0  0  0  0  0  0
  -22.2941   -8.7502   20.3813 C   0  0  0  0  0  0  0  0  0  0  0  0
  -22.9583   -8.9504   22.6956 C   0  0  0  0  0  0  0  0  0  0  0  0
  -21.7527  -21.6849   23.9125 C   0  0  0  0  0  0  0  0  0  0  0  0
  -19.6964   -8.2451   23.2276 C   0  0  0  0  0  0  0  0  0  0  0  0
  -18.8911   -8.3169   24.3642 C   0  0  0  0  0  0  0  0  0  0  0  0
  -31.7891  -18.6009   23.9328 C   0  0  0  0  0  0  0  0  0  0  0  0
  -23.1552  -23.1735   25.1917 C   0  0  0  0  0  0  0  0  0  0  0  0
  -32.0364  -16.7092   22.4506 C   0  0  0  0  0  0  0  0  0  0  0  0
  -20.0719   -6.4379   25.3194 C   0  0  0  0  0  0  0  0  0  0  0  0
  -23.7824  -10.5276   21.0615 C   0  0  0  0  0  0  0  0  0  0  0  0
  -30.4106  -18.5873   23.7202 C   0  0  0  0  0  0  0  0  0  0  0  0
  -24.1667  -13.0284   20.7357 C   0  0  0  0  0  0  0  0  0  0  0  0
  -16.5057  -28.9708   22.8928 C   0  0  0  0  0  0  0  0  0  0  0  0
  -20.7518  -23.4594   25.2332 C   0  0  0  0  0  0  0  0  0  0  0  0
  -17.5025  -27.9849   22.7630 C   0  0  0  0  0  0  0  0  0  0  0  0
  -22.0254  -23.8618   25.6598 C   0  0  0  0  0  0  0  0  0  0  0  0
  -30.6579  -16.6955   22.2380 C   0  0  0  0  0  0  0  0  0  0  0  0
  -22.2408   -8.2912   21.6974 C   0  0  0  0  0  0  0  0  0  0  0  0
  -23.0192  -22.0921   24.3215 C   0  0  0  0  0  0  0  0  0  0  0  0
  -20.6894   -7.2697   23.1368 C   0  0  0  0  0  0  0  0  0  0  0  0
  -19.0789   -7.4133   25.4101 C   0  0  0  0  0  0  0  0  0  0  0  0
  -32.6020  -17.6619   23.2980 C   0  0  0  0  0  0  0  0  0  0  0  0
  -20.8772   -6.3661   24.1828 C   0  0  0  0  0  0  0  0  0  0  0  0
  -29.8450  -17.6346   22.8728 C   0  0  0  0  0  0  0  0  0  0  0  0
  -24.5792  -11.6824   20.7336 C   0  0  0  0  0  0  0  0  0  0  0  0
  -25.2840  -13.7306   20.3551 C   0  0  0  0  0  0  0  0  0  0  0  0
  -29.5529  -19.5826   24.3943 C   0  0  0  0  0  0  0  0  0  0  0  0
  -22.8878  -13.5933   21.0535 C   0  0  0  0  0  0  0  0  0  0  0  0
  -20.0058  -26.5448   25.0679 C   0  0  0  0  0  0  0  0  0  0  0  0
  -26.5110  -21.0486   23.7761 C   0  0  0  0  0  0  0  0  0  0  0  0
  -20.9521  -26.5398   28.1706 C   0  0  0  0  0  0  0  0  0  0  0  0
  -22.8100  -25.0757   30.6306 C   0  0  0  0  0  0  0  0  0  0  0  0
  -30.7533  -14.7259   20.6702 C   0  0  0  0  0  0  0  0  0  0  0  0
  -16.7218  -30.2132   23.7202 C   0  0  0  0  0  0  0  0  0  0  0  0
  -19.5219  -24.1630   25.7378 C   0  0  0  0  0  0  0  0  0  0  0  0
  -22.2166  -25.0206   26.6027 C   0  0  0  0  0  0  0  0  0  0  0  0
  -17.8763  -30.0917   24.7115 C   0  0  0  0  0  0  0  0  0  0  0  0
  -29.7019  -12.1257   18.4768 C   0  0  0  0  0  0  0  0  0  0  0  0
  -19.1034  -29.4932   24.0311 C   0  0  0  0  0  0  0  0  0  0  0  0
  -28.2415  -11.8893   18.8686 C   0  0  0  0  0  0  0  0  0  0  0  0
  -30.5698  -12.4491   19.6917 C   0  0  0  0  0  0  0  0  0  0  0  0
  -28.6184  -13.3137   20.9219 C   0  0  0  0  0  0  0  0  0  0  0  0
  -18.8128  -28.0790   23.5142 C   0  0  1  0  0  0  0  0  0  0  0  0
  -19.7990  -25.5878   26.2076 C   0  0  1  0  0  0  0  0  0  0  0  0
  -27.6926  -13.0484   19.7234 C   0  0  2  0  0  0  0  0  0  0  0  0
  -23.4117  -25.3201   33.0545 C   0  0  0  0  0  0  0  0  0  0  0  0
  -28.2806  -22.9864   22.1896 C   0  0  0  0  0  0  0  0  0  0  0  0
  -29.7473  -23.1745   24.2143 C   0  0  0  0  0  0  0  0  0  0  0  0
  -22.8387  -28.8329   27.4686 C   0  0  0  0  0  0  0  0  0  0  0  0
  -24.0547  -28.3967   29.6132 C   0  0  0  0  0  0  0  0  0  0  0  0
  -21.6579  -29.0867   29.6585 C   0  0  0  0  0  0  0  0  0  0  0  0
  -21.6419  -22.4416   31.3059 C   0  0  0  0  0  0  0  0  0  0  0  0
  -25.3899  -21.9038   24.3361 C   0  0  0  0  0  0  0  0  0  1  0  0
  -27.9238  -21.4267   24.1885 C   0  0  2  0  0  0  0  0  0  0  0  0
  -22.2622  -26.7554   28.8891 C   0  0  1  0  0  0  0  0  0  0  0  0
  -22.4627  -24.6788   32.0541 C   0  0  2  0  0  0  0  0  0  0  0  0
  -28.3433  -22.8259   23.7116 C   0  0  0  0  0  0  0  0  0  0  0  0
  -22.7002  -28.2473   28.8880 C   0  0  0  0  0  0  0  0  0  0  0  0
  -25.8588  -11.5359   20.3795 N   0  0  0  0  0  0  0  0  0  0  0  0
  -26.2598  -12.7989   20.1555 N   0  0  0  0  0  0  0  0  0  0  0  0
  -20.9837  -25.6804   27.0633 N   0  0  0  0  0  0  0  0  0  0  0  0
  -29.9905  -13.5594   20.4510 N   0  0  0  0  0  0  0  0  0  0  0  0
  -25.5171  -15.0480   20.1750 N   0  0  0  0  0  0  0  0  0  0  0  0
  -21.8493  -12.7288   21.4256 N   0  0  0  0  0  0  0  0  0  0  0  0
  -30.0865  -15.7266   21.3763 N   0  0  0  0  0  0  0  0  0  0  0  0
  -28.8228  -20.4135   23.6380 N   0  0  0  0  0  0  0  0  0  0  0  0
  -18.8416  -27.1268   24.6037 N   0  0  0  0  0  0  0  0  0  0  0  0
  -22.0968  -26.1822   30.2204 N   0  0  0  0  0  0  0  0  0  0  0  0
  -29.5484  -19.6081   25.7272 N   0  3  0  0  0  0  0  0  0  0  0  0
  -22.5417  -23.1991   32.2132 N   0  3  0  0  0  0  0  0  0  0  0  0
  -22.6678  -14.8268   20.9929 O   0  0  0  0  0  0  0  0  0  0  0  0
  -21.1379  -26.7419   24.6423 O   0  0  0  0  0  0  0  0  0  0  0  0
  -26.2805  -20.0956   23.0312 O   0  0  0  0  0  0  0  0  0  0  0  0
  -19.9367  -27.1073   28.5812 O   0  0  0  0  0  0  0  0  0  0  0  0
  -23.6344  -24.4673   29.9518 O   0  0  0  0  0  0  0  0  0  0  0  0
  -31.9032  -14.8401   20.2381 O   0  0  0  0  0  0  0  0  0  0  0  0
  -21.4886   -7.2002   22.0081 O   0  0  0  0  0  0  0  0  0  0  0  0
  -24.1235  -21.4329   23.8769 O   0  0  0  0  0  0  0  0  0  1  0  0
  -18.3065   -7.4833   26.5023 F   0  0  0  0  0  0  0  0  0  0  0  0
  -33.9256  -17.6749   23.5023 F   0  0  0  0  0  0  0  0  0  0  0  0
  -21.8303   -5.4276   24.1018 F   0  0  0  0  0  0  0  0  0  0  0  0
  -28.5190  -17.6230   22.6690 F   0  0  0  0  0  0  0  0  0  0  0  0
  1  2  1  0  0  0  0
  1  5  2  0  0  0  0
  2  6  2  0  0  0  0
  3  8  2  0  0  0  0
  3 17  1  0  0  0  0
  4  9  1  0  0  0  0
  4 17  2  0  0  0  0
  5 20  1  0  0  0  0
  6 22  1  0  0  0  0
  7 10  2  0  0  0  0
  7 21  1  0  0  0  0
  8 25  1  0  0  0  0
  9 25  2  0  0  0  0
 10 26  1  0  0  0  0
 11 12  2  0  0  0  0
 11 27  1  0  0  0  0
 12 28  1  0  0  0  0
 13 18  1  0  0  0  0
 13 29  2  0  0  0  0
 14 23  1  0  0  0  0
 14 26  2  0  0  0  0
 15 24  2  0  0  0  0
 15 29  1  0  0  0  0
 16 28  2  0  0  0  0
 16 30  1  0  0  0  0
 17 32  1  0  0  0  0
 18 31  2  0  0  0  0
 18 34  1  0  0  0  0
 19 32  1  0  0  0  0
 19 33  2  0  0  0  0
 19 35  1  0  0  0  0
 20 22  2  0  0  0  0
 20 41  1  0  0  0  0
 21 23  2  0  0  0  0
 21 42  1  0  0  0  0
 22 50  1  0  0  0  0
 23 43  1  0  0  0  0
 24 31  1  0  0  0  0
 24 72  1  0  0  0  0
 25 84  1  0  0  0  0
 26 85  1  0  0  0  0
 27 30  2  0  0  0  0
 27 84  1  0  0  0  0
 28 86  1  0  0  0  0
 29 87  1  0  0  0  0
 30 88  1  0  0  0  0
 31 89  1  0  0  0  0
 32 66  2  0  0  0  0
 33 67  1  0  0  0  0
 33 70  1  0  0  0  0
 34 73  1  0  0  0  0
 34 76  2  0  0  0  0
 35 71  1  0  0  0  0
 35 78  2  0  0  0  0
 36 51  1  0  0  0  0
 36 74  1  0  0  0  0
 36 79  2  0  0  0  0
 37 60  1  0  0  0  0
 37 61  1  0  0  0  0
 37 80  2  0  0  0  0
 38 62  1  0  0  0  0
 38 68  1  0  0  0  0
 38 81  2  0  0  0  0
 39 63  1  0  0  0  0
 39 75  1  0  0  0  0
 39 82  2  0  0  0  0
 40 69  1  0  0  0  0
 40 72  1  0  0  0  0
 40 83  2  0  0  0  0
 41 44  1  0  0  0  0
 42 51  1  0  0  0  0
 43 68  1  0  0  0  0
 44 46  1  0  0  0  0
 45 47  1  0  0  0  0
 45 48  1  0  0  0  0
 46 50  1  0  0  0  0
 47 52  1  0  0  0  0
 48 69  1  0  0  0  0
 49 52  1  0  0  0  0
 49 69  1  0  0  0  0
 50 74  1  0  0  0  0
 51 68  1  0  0  0  0
 52 67  1  0  0  0  0
 53 63  1  0  0  0  0
 54 64  1  0  0  0  0
 55 64  1  0  0  0  0
 56 65  1  0  0  0  0
 57 65  1  0  0  0  0
 58 65  1  0  0  0  0
 59 77  1  0  0  0  0
 60 85  1  0  0  0  0
 61 64  1  0  0  0  0
 61 73  1  0  0  0  0
 62 65  1  0  0  0  0
 62 75  1  0  0  0  0
 63 77  1  0  0  0  0
 66 67  1  0  0  0  0
M  CHG  2  76   1  77   1
M  ISO  4  40 100  60 101  72 100  85 101
M  END
> <Batch ID>
0171

> <Smiles>
CNC(C)C(=O)NC(C(=O)N1Cc2cc([101O:1][101CH2:1]C(=O)C(NC(=N)c3cc(F)cc([100NH:0][100C:0](=O)N4CCCC(n5nc(-c6ccc(Oc7ccc(F)cc7F)cc6)c(C(N)=O)c5N)C4)c3F)C(C)C)ccc2CC1C(=O)NC1CCCc2ccccc21)C(C)(C)C

> <Shape>
0.217

> <Color>
0.193

> <Negative vol penalty>
0.000

$$$$

  -OEChem-04052304233D

 88 96  0     1  0  0  0  0  0999 V2000
  -36.5294  -30.2851   19.9465 C   0  0  0  0  0  0  0  0  0  0  0  0
  -36.0669  -29.4248   20.9371 C   0  0  0  0  0  0  0  0  0  0  0  0
  -23.0017   -9.9069   20.0042 C   0  0  0  0  0  0  0  0  0  0  0  0
  -23.6931  -10.0064   22.3170 C   0  0  0  0  0  0  0  0  0  0  0  0
  -35.8580  -31.4806   19.6939 C   0  0  0  0  0  0  0  0  0  0  0  0
  -34.9332  -29.7600   21.6765 C   0  0  0  0  0  0  0  0  0  0  0  0
  -31.7401  -25.8658   22.2098 C   0  0  0  0  0  0  0  0  0  0  0  0
  -22.2291   -8.7798   20.2836 C   0  0  0  0  0  0  0  0  0  0  0  0
  -22.9204   -8.8792   22.5965 C   0  0  0  0  0  0  0  0  0  0  0  0
  -32.0664  -24.9005   23.1615 C   0  0  0  0  0  0  0  0  0  0  0  0
  -23.1649   -5.5304   22.2002 C   0  0  0  0  0  0  0  0  0  0  0  0
  -23.7393   -4.5287   22.9826 C   0  0  0  0  0  0  0  0  0  0  0  0
  -29.8490  -17.5158   23.0590 C   0  0  0  0  0  0  0  0  0  0  0  0
  -30.5121  -25.9076   24.7072 C   0  0  0  0  0  0  0  0  0  0  0  0
  -32.0333  -16.6034   22.5759 C   0  0  0  0  0  0  0  0  0  0  0  0
  -21.9916   -4.8106   24.6267 C   0  0  0  0  0  0  0  0  0  0  0  0
  -23.7338  -10.5202   21.0209 C   0  0  0  0  0  0  0  0  0  0  0  0
  -30.4259  -18.4306   23.9398 C   0  0  0  0  0  0  0  0  0  0  0  0
  -24.1267  -13.0308   20.7964 C   0  0  0  0  0  0  0  0  0  0  0  0
  -34.7098  -31.8261   20.4240 C   0  0  0  0  0  0  0  0  0  0  0  0
  -30.8038  -26.8674   22.5041 C   0  0  0  0  0  0  0  0  0  0  0  0
  -34.2465  -30.9619   21.4344 C   0  0  0  0  0  0  0  0  0  0  0  0
  -30.1738  -26.8829   23.7567 C   0  0  0  0  0  0  0  0  0  0  0  0
  -30.6527  -16.6021   22.3771 C   0  0  0  0  0  0  0  0  0  0  0  0
  -31.8066  -18.4319   24.1386 C   0  0  0  0  0  0  0  0  0  0  0  0
  -22.1884   -8.2659   21.5797 C   0  0  0  0  0  0  0  0  0  0  0  0
  -31.4546  -24.9230   24.4113 C   0  0  0  0  0  0  0  0  0  0  0  0
  -22.0039   -6.1724   22.6311 C   0  0  0  0  0  0  0  0  0  0  0  0
  -23.1527   -4.1688   24.1959 C   0  0  0  0  0  0  0  0  0  0  0  0
  -32.6103  -17.5182   23.4567 C   0  0  0  0  0  0  0  0  0  0  0  0
  -21.4172   -5.8124   23.8443 C   0  0  0  0  0  0  0  0  0  0  0  0
  -24.5326  -11.6843   20.7328 C   0  0  0  0  0  0  0  0  0  0  0  0
  -25.2432  -13.7434   20.4329 C   0  0  0  0  0  0  0  0  0  0  0  0
  -29.5586  -19.3709   24.6384 C   0  0  0  0  0  0  0  0  0  0  0  0
  -22.8544  -13.5875   21.1524 C   0  0  0  0  0  0  0  0  0  0  0  0
  -30.8949  -30.0394   22.6870 C   0  0  0  0  0  0  0  0  0  0  0  0
  -32.9900  -22.0412   26.1179 C   0  0  0  0  0  0  0  0  0  0  0  0
  -27.6933  -29.7187   23.0980 C   0  0  0  0  0  0  0  0  0  0  0  0
  -25.0793  -27.7488   24.0642 C   0  0  0  0  0  0  0  0  0  0  0  0
  -30.7206  -14.7000   20.7267 C   0  0  0  0  0  0  0  0  0  0  0  0
  -34.0451  -33.1513   20.1473 C   0  0  0  0  0  0  0  0  0  0  0  0
  -30.4430  -27.8855   21.4573 C   0  0  0  0  0  0  0  0  0  0  0  0
  -29.1470  -27.9248   24.1150 C   0  0  0  0  0  0  0  0  0  0  0  0
  -32.6341  -33.2564   20.7202 C   0  0  0  0  0  0  0  0  0  0  0  0
  -29.6316  -12.1994   18.4380 C   0  0  0  0  0  0  0  0  0  0  0  0
  -32.6044  -32.7566   22.1611 C   0  0  0  0  0  0  0  0  0  0  0  0
  -28.1745  -11.9533   18.8362 C   0  0  0  0  0  0  0  0  0  0  0  0
  -30.5147  -12.4673   19.6553 C   0  0  0  0  0  0  0  0  0  0  0  0
  -28.5816  -13.2880   20.9432 C   0  0  0  0  0  0  0  0  0  0  0  0
  -33.0058  -31.2788   22.2408 C   0  0  1  0  0  0  0  0  0  0  0  0
  -29.8554  -29.1646   22.0454 C   0  0  1  0  0  0  0  0  0  0  0  0
  -27.6411  -13.0777   19.7454 C   0  0  2  0  0  0  0  0  0  0  0  0
  -22.5835  -27.7756   24.3244 C   0  0  0  0  0  0  0  0  0  0  0  0
  -27.9783  -31.3875   25.6365 C   0  0  0  0  0  0  0  0  0  0  0  0
  -25.7089  -30.5907   26.3316 C   0  0  0  0  0  0  0  0  0  0  0  0
  -25.9722  -31.9357   24.2474 C   0  0  0  0  0  0  0  0  0  0  0  0
  -24.7363  -25.5485   22.1149 C   0  0  0  0  0  0  0  0  0  0  0  0
  -35.0494  -20.8421   27.9933 C   0  0  0  0  0  0  0  0  0  0  0  0
  -32.7397  -23.0018   24.9711 C   0  0  0  0  0  0  0  0  0  1  0  0
  -33.6490  -20.0029   24.7409 C   0  0  0  0  0  0  0  0  0  0  0  0
  -34.0247  -20.9440   25.8809 C   0  0  2  0  0  0  0  0  0  0  0  0
  -26.7807  -29.5405   24.2872 C   0  0  1  0  0  0  0  0  0  0  0  0
  -23.7471  -27.4468   23.4021 C   0  0  2  0  0  0  0  0  0  0  0  0
  -26.6308  -30.8450   25.1199 C   0  0  0  0  0  0  0  0  0  0  0  0
  -25.8073  -11.5471   20.3582 N   0  0  0  0  0  0  0  0  0  0  0  0
  -28.2700  -19.4026   24.4838 N   0  0  0  0  0  0  0  0  0  0  0  0
  -26.2120  -12.8166   20.1830 N   0  0  0  0  0  0  0  0  0  0  0  0
  -28.8326  -28.9024   23.0600 N   0  0  0  0  0  0  0  0  0  0  0  0
  -29.9495  -13.5472   20.4673 N   0  0  0  0  0  0  0  0  0  0  0  0
  -25.4808  -15.0662   20.3058 N   0  0  0  0  0  0  0  0  0  0  0  0
  -21.8158  -12.7128   21.4997 N   0  0  0  0  0  0  0  0  0  0  0  0
  -30.0668  -15.6730   21.4820 N   0  0  0  0  0  0  0  0  0  0  0  0
  -32.3960  -19.3322   25.0094 N   0  0  0  0  0  0  0  0  0  0  0  0
  -31.9052  -30.4333   21.8305 N   0  0  0  0  0  0  0  0  0  0  0  0
  -25.5234  -29.0189   23.7624 N   0  0  0  0  0  0  0  0  0  0  0  0
  -23.6650  -26.0040   23.0379 N   0  3  0  0  0  0  0  0  0  0  0  0
  -22.6398  -14.8235   21.1464 O   0  0  0  0  0  0  0  0  0  0  0  0
  -30.7876  -30.3363   23.8710 O   0  0  0  0  0  0  0  0  0  0  0  0
  -32.4070  -22.1573   27.1962 O   0  0  0  0  0  0  0  0  0  0  0  0
  -27.4022  -30.5464   22.2309 O   0  0  0  0  0  0  0  0  0  0  0  0
  -25.6655  -26.9404   24.7808 O   0  0  0  0  0  0  0  0  0  0  0  0
  -31.8660  -14.8272   20.2866 O   0  0  0  0  0  0  0  0  0  0  0  0
  -21.4344   -7.1661   21.8528 O   0  0  0  0  0  0  0  0  0  0  0  0
  -31.7718  -23.9825   25.3422 O   0  0  0  0  0  0  0  0  0  1  0  0
  -34.1960  -20.1828   27.0665 O   0  0  0  0  0  0  0  0  0  0  0  0
  -23.7035   -3.2057   24.9464 F   0  0  0  0  0  0  0  0  0  0  0  0
  -33.9384  -17.5101   23.6396 F   0  0  0  0  0  0  0  0  0  0  0  0
  -20.3011   -6.4247   24.2629 F   0  0  0  0  0  0  0  0  0  0  0  0
  1  2  1  0  0  0  0
  1  5  2  0  0  0  0
  2  6  2  0  0  0  0
  3  8  2  0  0  0  0
  3 17  1  0  0  0  0
  4  9  1  0  0  0  0
  4 17  2  0  0  0  0
  5 20  1  0  0  0  0
  6 22  1  0  0  0  0
  7 10  2  0  0  0  0
  7 21  1  0  0  0  0
  8 26  1  0  0  0  0
  9 26  2  0  0  0  0
 10 27  1  0  0  0  0
 11 12  2  0  0  0  0
 11 28  1  0  0  0  0
 12 29  1  0  0  0  0
 13 18  1  0  0  0  0
 13 24  2  0  0  0  0
 14 23  1  0  0  0  0
 14 27  2  0  0  0  0
 15 24  1  0  0  0  0
 15 30  2  0  0  0  0
 16 29  2  0  0  0  0
 16 31  1  0  0  0  0
 17 32  1  0  0  0  0
 18 25  2  0  0  0  0
 18 34  1  0  0  0  0
 19 32  1  0  0  0  0
 19 33  2  0  0  0  0
 19 35  1  0  0  0  0
 20 22  2  0  0  0  0
 20 41  1  0  0  0  0
 21 23  2  0  0  0  0
 21 42  1  0  0  0  0
 22 50  1  0  0  0  0
 23 43  1  0  0  0  0
 24 72  1  0  0  0  0
 25 30  1  0  0  0  0
 25 73  1  0  0  0  0
 26 83  1  0  0  0  0
 27 84  1  0  0  0  0
 28 31  2  0  0  0  0
 28 83  1  0  0  0  0
 29 86  1  0  0  0  0
 30 87  1  0  0  0  0
 31 88  1  0  0  0  0
 32 65  2  0  0  0  0
 33 67  1  0  0  0  0
 33 70  1  0  0  0  0
 34 66  2  0  0  0  0
 35 71  1  0  0  0  0
 35 77  2  0  0  0  0
 36 51  1  0  0  0  0
 36 74  1  0  0  0  0
 36 78  2  0  0  0  0
 37 59  1  0  0  0  0
 37 61  1  0  0  0  0
 37 79  2  0  0  0  0
 38 62  1  0  0  0  0
 38 68  1  0  0  0  0
 38 80  2  0  0  0  0
 39 63  1  0  0  0  0
 39 75  1  0  0  0  0
 39 81  2  0  0  0  0
 40 69  1  0  0  0  0
 40 72  1  0  0  0  0
 40 82  2  0  0  0  0
 41 44  1  0  0  0  0
 42 51  1  0  0  0  0
 43 68  1  0  0  0  0
 44 46  1  0  0  0  0
 45 47  1  0  0  0  0
 45 48  1  0  0  0  0
 46 50  1  0  0  0  0
 47 52  1  0  0  0  0
 48 69  1  0  0  0  0
 49 52  1  0  0  0  0
 49 69  1  0  0  0  0
 50 74  1  0  0  0  0
 51 68  1  0  0  0  0
 52 67  1  0  0  0  0
 53 63  1  0  0  0  0
 54 64  1  0  0  0  0
 55 64  1  0  0  0  0
 56 64  1  0  0  0  0
 57 76  1  0  0  0  0
 58 85  1  0  0  0  0
 59 84  1  0  0  0  0
 60 61  1  0  0  0  0
 60 73  1  0  0  0  0
 61 85  1  0  0  0  0
 62 64  1  0  0  0  0
 62 75  1  0  0  0  0
 63 76  1  0  0  0  0
 65 67  1  0  0  0  0
M  CHG  1  76   1
M  ISO  4  40 100  59 101  72 100  84 101
M  END
> <Batch ID>
0171

> <Smiles>
CNC(C)C(=O)NC(C(=O)N1Cc2cc([101O:1][101CH2:1]C(=O)C(CNc3c(F)cc([100NH:0][100C:0](=O)N4CCCC(n5nc(-c6ccc(Oc7ccc(F)cc7F)cc6)c(C(N)=O)c5N)C4)cc3C=N)OC)ccc2CC1C(=O)NC1CCCc2ccccc21)C(C)(C)C

> <Shape>
0.233

> <Color>
0.208

> <Negative vol penalty>
0.000

$$$$

  -OEChem-04052304233D

 87 95  0     1  0  0  0  0  0999 V2000
  -31.9825  -12.6533   19.8634 C   0  0  0  0  0  0  0  0  0  0  0  0
  -31.4584  -13.9405   19.8006 C   0  0  0  0  0  0  0  0  0  0  0  0
  -28.0506  -26.4958   21.6512 C   0  0  0  0  0  0  0  0  0  0  0  0
  -29.6050  -28.3295   21.4094 C   0  0  0  0  0  0  0  0  0  0  0  0
  -31.1259  -11.5536   19.8903 C   0  0  0  0  0  0  0  0  0  0  0  0
  -30.0772  -14.1286   19.7636 C   0  0  0  0  0  0  0  0  0  0  0  0
  -26.9195  -18.7293   22.2870 C   0  0  0  0  0  0  0  0  0  0  0  0
  -28.8400  -25.7152   20.8067 C   0  0  0  0  0  0  0  0  0  0  0  0
  -30.3944  -27.5489   20.5649 C   0  0  0  0  0  0  0  0  0  0  0  0
  -26.4010  -19.9113   21.7597 C   0  0  0  0  0  0  0  0  0  0  0  0
  -31.6939  -23.9150   21.0242 C   0  0  0  0  0  0  0  0  0  0  0  0
  -31.9509  -22.5994   21.4098 C   0  0  0  0  0  0  0  0  0  0  0  0
  -18.8882  -27.3319   23.5230 C   0  0  0  0  0  0  0  0  0  0  0  0
  -24.2593  -18.8381   21.4759 C   0  0  0  0  0  0  0  0  0  0  0  0
  -19.7409  -25.1056   23.1316 C   0  0  0  0  0  0  0  0  0  0  0  0
  -30.8928  -21.8008   19.3899 C   0  0  0  0  0  0  0  0  0  0  0  0
  -28.4331  -27.8030   21.9525 C   0  0  0  0  0  0  0  0  0  0  0  0
  -19.9089  -27.8617   22.7337 C   0  0  0  0  0  0  0  0  0  0  0  0
  -27.7148  -28.7127   24.2250 C   0  0  0  0  0  0  0  0  0  0  0  0
  -29.7333  -11.7287   19.8633 C   0  0  0  0  0  0  0  0  0  0  0  0
  -26.1133  -17.5878   22.4027 C   0  0  0  0  0  0  0  0  0  0  0  0
  -29.2012  -13.0301   19.7888 C   0  0  0  0  0  0  0  0  0  0  0  0
  -24.7692  -17.6437   22.0073 C   0  0  0  0  0  0  0  0  0  0  0  0
  -20.7616  -25.6353   22.3422 C   0  0  0  0  0  0  0  0  0  0  0  0
  -30.0119  -26.2417   20.2636 C   0  0  0  0  0  0  0  0  0  0  0  0
  -25.0715  -19.9649   21.3514 C   0  0  0  0  0  0  0  0  0  0  0  0
  -31.0363  -24.1735   19.8215 C   0  0  0  0  0  0  0  0  0  0  0  0
  -31.5504  -21.5423   20.5927 C   0  0  0  0  0  0  0  0  0  0  0  0
  -18.8042  -25.9539   23.7220 C   0  0  0  0  0  0  0  0  0  0  0  0
  -30.6358  -23.1164   19.0044 C   0  0  0  0  0  0  0  0  0  0  0  0
  -20.8456  -27.0134   22.1432 C   0  0  0  0  0  0  0  0  0  0  0  0
  -27.6177  -28.6100   22.8243 C   0  0  0  0  0  0  0  0  0  0  0  0
  -26.7250  -29.5988   24.5736 C   0  0  0  0  0  0  0  0  0  0  0  0
  -23.5058  -21.6979   21.4780 C   0  0  0  0  0  0  0  0  0  1  0  0
  -19.9939  -29.3300   22.5248 C   0  0  0  0  0  0  0  0  0  0  0  0
  -28.6189  -28.0651   25.1299 C   0  0  0  0  0  0  0  0  0  0  0  0
  -22.9279  -22.8303   21.0592 C   0  0  0  0  0  0  0  0  0  0  0  0
  -21.7726  -23.3877   21.8356 C   0  0  0  0  0  0  0  0  0  0  0  0
  -26.1876  -14.6557   21.1776 C   0  0  0  0  0  0  0  0  0  0  0  0
  -23.6940  -14.1706   23.1948 C   0  0  0  0  0  0  0  0  0  0  0  0
  -21.1182  -15.5069   24.9909 C   0  0  0  0  0  0  0  0  0  0  0  0
  -21.5723  -31.1801   22.0673 C   0  0  0  0  0  0  0  0  0  0  0  0
  -28.8483  -10.5076   19.8465 C   0  0  0  0  0  0  0  0  0  0  0  0
  -26.6804  -16.3284   22.9984 C   0  0  0  0  0  0  0  0  0  0  0  0
  -23.8565  -16.4518   22.1295 C   0  0  0  0  0  0  0  0  0  0  0  0
  -27.3898  -10.8078   20.1823 C   0  0  0  0  0  0  0  0  0  0  0  0
  -24.2638  -33.3340   22.8506 C   0  0  0  0  0  0  0  0  0  0  0  0
  -26.9020  -12.0248   19.4027 C   0  0  0  0  0  0  0  0  0  0  0  0
  -25.4378  -32.3775   23.0767 C   0  0  0  0  0  0  0  0  0  0  0  0
  -23.3585  -32.8624   21.7136 C   0  0  0  0  0  0  0  0  0  0  0  0
  -24.0563  -30.5265   22.0522 C   0  0  0  0  0  0  0  0  0  0  0  0
  -27.7081  -13.2760   19.7721 C   0  0  1  0  0  0  0  0  0  0  0  0
  -25.9093  -15.0759   22.5931 C   0  0  1  0  0  0  0  0  0  0  0  0
  -24.9582  -30.9204   23.2332 C   0  0  1  0  0  0  0  0  0  0  0  0
  -19.2311  -14.8561   26.5117 C   0  0  0  0  0  0  0  0  0  0  0  0
  -22.1079  -13.1622   20.7911 C   0  0  0  0  0  0  0  0  0  0  0  0
  -20.0188  -13.4332   22.1441 C   0  0  0  0  0  0  0  0  0  0  0  0
  -21.7844  -11.8347   22.8858 C   0  0  0  0  0  0  0  0  0  0  0  0
  -22.2093  -17.1144   27.2235 C   0  0  0  0  0  0  0  0  0  0  0  0
  -22.1950  -14.3204   23.0970 C   0  0  1  0  0  0  0  0  0  0  0  0
  -20.6822  -15.3038   26.4308 C   0  0  2  0  0  0  0  0  0  0  0  0
  -21.5440  -13.2097   22.2253 C   0  0  0  0  0  0  0  0  0  0  0  0
  -26.6431  -29.3700   22.3178 N   0  0  0  0  0  0  0  0  0  0  0  0
  -26.1186  -29.9587   23.4062 N   0  0  0  0  0  0  0  0  0  0  0  0
  -24.4593  -15.2416   22.7121 N   0  0  0  0  0  0  0  0  0  0  0  0
  -22.9405  -31.4781   21.9416 N   0  0  0  0  0  0  0  0  0  0  0  0
  -26.3228  -30.0974   25.7620 N   0  0  0  0  0  0  0  0  0  0  0  0
  -29.5743  -27.1848   24.6040 N   0  0  0  0  0  0  0  0  0  0  0  0
  -21.7107  -24.7715   21.7443 N   0  0  0  0  0  0  0  0  0  0  0  0
  -21.2785  -29.8367   22.3259 N   0  0  0  0  0  0  0  0  0  0  0  0
  -27.2672  -13.8034   21.0457 N   0  0  0  0  0  0  0  0  0  0  0  0
  -21.6995  -14.3711   24.4682 N   0  0  0  0  0  0  0  0  0  0  0  0
  -20.8263  -16.5723   27.1995 N   0  3  0  0  0  0  0  0  0  0  0  0
  -18.9595  -29.9913   22.4994 O   0  0  0  0  0  0  0  0  0  0  0  0
  -28.5699  -28.2486   26.3698 O   0  0  0  0  0  0  0  0  0  0  0  0
  -21.0140  -22.6488   22.4540 O   0  0  0  0  0  0  0  0  0  0  0  0
  -25.4746  -15.0726   20.2723 O   0  0  0  0  0  0  0  0  0  0  0  0
  -24.1682  -13.1442   23.6880 O   0  0  0  0  0  0  0  0  0  0  0  0
  -20.9556  -16.5660   24.3889 O   0  0  0  0  0  0  0  0  0  0  0  0
  -20.6905  -32.0417   21.9940 O   0  0  0  0  0  0  0  0  0  0  0  0
  -23.3549  -23.5104   19.9368 O   0  0  0  0  0  0  0  0  0  0  0  0
  -30.7826  -25.4803   19.4397 O   0  0  0  0  0  0  0  0  0  0  0  0
  -24.5631  -21.1171   20.8358 O   0  0  0  0  0  0  0  0  0  1  0  0
  -31.7986  -20.2790   20.9623 F   0  0  0  0  0  0  0  0  0  0  0  0
  -17.8239  -25.4451   24.4800 F   0  0  0  0  0  0  0  0  0  0  0  0
  -30.0047  -23.3586   17.8473 F   0  0  0  0  0  0  0  0  0  0  0  0
  -21.8273  -27.5232   21.3836 F   0  0  0  0  0  0  0  0  0  0  0  0
  1  2  1  0  0  0  0
  1  5  2  0  0  0  0
  2  6  2  0  0  0  0
  3  8  2  0  0  0  0
  3 17  1  0  0  0  0
  4  9  1  0  0  0  0
  4 17  2  0  0  0  0
  5 20  1  0  0  0  0
  6 22  1  0  0  0  0
  7 10  2  0  0  0  0
  7 21  1  0  0  0  0
  8 25  1  0  0  0  0
  9 25  2  0  0  0  0
 10 26  1  0  0  0  0
 11 12  2  0  0  0  0
 11 27  1  0  0  0  0
 12 28  1  0  0  0  0
 13 18  2  0  0  0  0
 13 29  1  0  0  0  0
 14 23  1  0  0  0  0
 14 26  2  0  0  0  0
 15 24  1  0  0  0  0
 15 29  2  0  0  0  0
 16 28  2  0  0  0  0
 16 30  1  0  0  0  0
 17 32  1  0  0  0  0
 18 31  1  0  0  0  0
 18 35  1  0  0  0  0
 19 32  1  0  0  0  0
 19 33  2  0  0  0  0
 19 36  1  0  0  0  0
 20 22  2  0  0  0  0
 20 43  1  0  0  0  0
 21 23  2  0  0  0  0
 21 44  1  0  0  0  0
 22 52  1  0  0  0  0
 23 45  1  0  0  0  0
 24 31  2  0  0  0  0
 24 69  1  0  0  0  0
 25 82  1  0  0  0  0
 26 83  1  0  0  0  0
 27 30  2  0  0  0  0
 27 82  1  0  0  0  0
 28 84  1  0  0  0  0
 29 85  1  0  0  0  0
 30 86  1  0  0  0  0
 31 87  1  0  0  0  0
 32 63  2  0  0  0  0
 33 64  1  0  0  0  0
 33 67  1  0  0  0  0
 34 37  2  0  0  0  0
 34 83  1  0  0  0  0
 35 70  1  0  0  0  0
 35 74  2  0  0  0  0
 36 68  1  0  0  0  0
 36 75  2  0  0  0  0
 37 38  1  0  0  0  0
 37 81  1  0  0  0  0
 38 69  1  0  0  0  0
 38 76  2  0  0  0  0
 39 53  1  0  0  0  0
 39 71  1  0  0  0  0
 39 77  2  0  0  0  0
 40 60  1  0  0  0  0
 40 65  1  0  0  0  0
 40 78  2  0  0  0  0
 41 61  1  0  0  0  0
 41 72  1  0  0  0  0
 41 79  2  0  0  0  0
 42 66  1  0  0  0  0
 42 70  1  0  0  0  0
 42 80  2  0  0  0  0
 43 46  1  0  0  0  0
 44 53  1  0  0  0  0
 45 65  1  0  0  0  0
 46 48  1  0  0  0  0
 47 49  1  0  0  0  0
 47 50  1  0  0  0  0
 48 52  1  0  0  0  0
 49 54  1  0  0  0  0
 50 66  1  0  0  0  0
 51 54  1  0  0  0  0
 51 66  1  0  0  0  0
 52 71  1  0  0  0  0
 53 65  1  0  0  0  0
 54 64  1  0  0  0  0
 55 61  1  0  0  0  0
 56 62  1  0  0  0  0
 57 62  1  0  0  0  0
 58 62  1  0  0  0  0
 59 73  1  0  0  0  0
 60 62  1  0  0  0  0
 60 72  1  0  0  0  0
 61 73  1  0  0  0  0
 63 64  1  0  0  0  0
M  CHG  1  73   1
M  ISO  4  34 101  42 100  70 100  83 101
M  END
> <Batch ID>
0171

> <Smiles>
CNC(C)C(=O)NC(C(=O)N1Cc2cc([101O:1][101CH2:1]C(=O)C(=O)Nc3cc(F)cc(C(=O)[100NH:0][100C:0](=O)N4CCCC(n5nc(-c6ccc(Oc7ccc(F)cc7F)cc6)c(C(N)=O)c5N)C4)c3F)ccc2CC1C(=O)NC1CCCc2ccccc21)C(C)(C)C

> <Shape>
0.238

> <Color>
0.059

> <Negative vol penalty>
0.000

$$$$

  -OEChem-04052304233D

 83 91  0     1  0  0  0  0  0999 V2000
  -21.6339  -11.7551   20.7201 C   0  0  0  0  0  0  0  0  0  0  0  0
  -21.6641  -13.0047   21.3308 C   0  0  0  0  0  0  0  0  0  0  0  0
  -31.1845  -28.4872   20.5106 C   0  0  0  0  0  0  0  0  0  0  0  0
  -30.0652  -26.3463   20.5328 C   0  0  0  0  0  0  0  0  0  0  0  0
  -22.8194  -11.1641   20.2853 C   0  0  0  0  0  0  0  0  0  0  0  0
  -22.8801  -13.6636   21.5081 C   0  0  0  0  0  0  0  0  0  0  0  0
  -22.6337  -18.5653   20.2601 C   0  0  0  0  0  0  0  0  0  0  0  0
  -32.3104  -27.9047   21.0925 C   0  0  0  0  0  0  0  0  0  0  0  0
  -31.1911  -25.7637   21.1147 C   0  0  0  0  0  0  0  0  0  0  0  0
  -22.0404  -19.4277   21.1809 C   0  0  0  0  0  0  0  0  0  0  0  0
  -33.9038  -23.6393   22.2751 C   0  0  0  0  0  0  0  0  0  0  0  0
  -34.3422  -22.4188   21.7614 C   0  0  0  0  0  0  0  0  0  0  0  0
  -18.4320  -28.4220   23.0590 C   0  0  0  0  0  0  0  0  0  0  0  0
  -18.4761  -27.1582   23.6948 C   0  0  0  0  0  0  0  0  0  0  0  0
  -24.2259  -20.1114   21.9396 C   0  0  0  0  0  0  0  0  0  0  0  0
  -34.6670  -23.4456   19.5987 C   0  0  0  0  0  0  0  0  0  0  0  0
  -30.0619  -27.7080   20.2308 C   0  0  0  0  0  0  0  0  0  0  0  0
  -28.6222  -28.4392   18.2559 C   0  0  0  0  0  0  0  0  0  0  0  0
  -24.0496  -11.8204   20.4486 C   0  0  0  0  0  0  0  0  0  0  0  0
  -24.0298  -18.4612   20.1794 C   0  0  0  0  0  0  0  0  0  0  0  0
  -24.0835  -13.0803   21.0762 C   0  0  0  0  0  0  0  0  0  0  0  0
  -24.8344  -19.2488   21.0151 C   0  0  0  0  0  0  0  0  0  0  0  0
  -32.3137  -26.5430   21.3946 C   0  0  0  0  0  0  0  0  0  0  0  0
  -22.8365  -20.1988   22.0229 C   0  0  0  0  0  0  0  0  0  0  0  0
  -33.8469  -24.7630   21.4505 C   0  0  0  0  0  0  0  0  0  0  0  0
  -34.7238  -22.3220   20.4233 C   0  0  0  0  0  0  0  0  0  0  0  0
  -34.2285  -24.6661   20.1124 C   0  0  0  0  0  0  0  0  0  0  0  0
  -28.8983  -28.3093   19.6301 C   0  0  0  0  0  0  0  0  0  0  0  0
  -19.4856  -28.4419   22.1751 C   0  0  0  0  0  0  0  0  0  0  0  0
  -27.4051  -29.0740   18.2088 C   0  0  0  0  0  0  0  0  0  0  0  0
  -19.5535  -26.4959   23.1538 C   0  0  0  0  0  0  0  0  0  0  0  0
  -21.9983  -22.3230   22.5287 C   0  0  0  0  0  0  0  0  0  1  0  0
  -29.3965  -28.0232   17.1232 C   0  0  0  0  0  0  0  0  0  0  0  0
  -21.4345  -23.2344   23.3307 C   0  0  0  0  0  0  0  0  0  0  0  0
  -21.1878  -24.6156   22.8019 C   0  0  0  0  0  0  0  0  0  0  0  0
  -26.1340  -16.1205   20.6236 C   0  0  0  0  0  0  0  0  0  0  0  0
  -28.2399  -18.3341   19.5336 C   0  0  0  0  0  0  0  0  0  0  0  0
  -29.0027  -21.6289   19.0763 C   0  0  0  0  0  0  0  0  0  0  0  0
  -22.4351  -29.1485   20.9847 C   0  0  0  0  0  0  0  0  0  0  0  0
  -25.3100  -11.1209   20.0051 C   0  0  0  0  0  0  0  0  0  0  0  0
  -24.6546  -17.5460   19.1623 C   0  0  0  0  0  0  0  0  0  0  0  0
  -26.3382  -19.1890   20.9542 C   0  0  0  0  0  0  0  0  0  0  0  0
  -26.5153  -12.0509   19.8926 C   0  0  0  0  0  0  0  0  0  0  0  0
  -24.8029  -31.8599   21.3585 C   0  0  0  0  0  0  0  0  0  0  0  0
  -26.6181  -12.9431   21.1255 C   0  0  0  0  0  0  0  0  0  0  0  0
  -26.0821  -31.2242   20.8111 C   0  0  0  0  0  0  0  0  0  0  0  0
  -23.9739  -30.8469   22.1425 C   0  0  0  0  0  0  0  0  0  0  0  0
  -24.9029  -28.9772   20.8330 C   0  0  0  0  0  0  0  0  0  0  0  0
  -25.3802  -13.8375   21.2640 C   0  0  1  0  0  0  0  0  0  0  0  0
  -26.0807  -17.1394   19.5206 C   0  0  1  0  0  0  0  0  0  0  0  0
  -25.7740  -29.9447   20.0111 C   0  0  2  0  0  0  0  0  0  0  0  0
  -30.8114  -23.1280   18.1940 C   0  0  0  0  0  0  0  0  0  0  0  0
  -29.8881  -17.8223   22.0498 C   0  0  0  0  0  0  0  0  0  0  0  0
  -31.1177  -19.9551   21.5940 C   0  0  0  0  0  0  0  0  0  0  0  0
  -31.2321  -18.0770   19.9562 C   0  0  0  0  0  0  0  0  0  0  0  0
  -27.2099  -22.7744   17.0189 C   0  0  0  0  0  0  0  0  0  0  0  0
  -19.9839  -29.4482   21.2269 C   0  0  0  0  0  0  0  0  0  0  0  0
  -29.0915  -19.4048   20.1718 C   0  0  1  0  0  0  0  0  0  0  0  0
  -29.5263  -22.3832   17.8675 C   0  0  2  0  0  0  0  0  0  0  0  0
  -30.3040  -18.8147   20.9457 C   0  0  0  0  0  0  0  0  0  0  0  0
  -27.9344  -28.8207   20.4004 N   0  0  0  0  0  0  0  0  0  0  0  0
  -27.0406  -29.2781   19.5071 N   0  0  0  0  0  0  0  0  0  0  0  0
  -26.9016  -18.2743   19.9475 N   0  0  0  0  0  0  0  0  0  0  0  0
  -23.6997  -29.6612   21.3185 N   0  0  0  0  0  0  0  0  0  0  0  0
  -26.6219  -29.4721   17.1838 N   0  0  0  0  0  0  0  0  0  0  0  0
  -30.6234  -27.3850   17.3506 N   0  0  0  0  0  0  0  0  0  0  0  0
  -20.0834  -25.2064   23.4003 N   0  0  0  0  0  0  0  0  0  0  0  0
  -25.4550  -14.9504   20.3420 N   0  0  0  0  0  0  0  0  0  0  0  0
  -29.4568  -20.3272   19.1022 N   0  0  0  0  0  0  0  0  0  0  0  0
  -21.3477  -29.8507   21.4898 N   0  0  0  0  0  0  0  0  0  0  0  0
  -28.5162  -23.3727   17.3968 N   0  3  0  0  0  0  0  0  0  0  0  0
  -29.0195  -28.2265   15.9442 O   0  0  0  0  0  0  0  0  0  0  0  0
  -21.9164  -25.1009   21.9431 O   0  0  0  0  0  0  0  0  0  0  0  0
  -26.7471  -16.3764   21.6533 O   0  0  0  0  0  0  0  0  0  0  0  0
  -28.7417  -17.5831   18.6935 O   0  0  0  0  0  0  0  0  0  0  0  0
  -28.2675  -22.1440   19.9158 O   0  0  0  0  0  0  0  0  0  0  0  0
  -22.2858  -28.1420   20.2835 O   0  0  0  0  0  0  0  0  0  0  0  0
  -20.1742  -27.2715   22.2266 O   0  0  0  0  0  0  0  0  0  0  0  0
  -21.0677  -22.9531   24.6311 O   0  0  0  0  0  0  0  0  0  0  0  0
  -33.4123  -25.9741   21.9622 O   0  0  0  0  0  0  0  0  0  0  0  0
  -22.2599  -21.0409   22.9230 O   0  0  0  0  0  0  0  0  0  1  0  0
  -35.1461  -21.1502   19.9306 F   0  0  0  0  0  0  0  0  0  0  0  0
  -34.1772  -25.7425   19.3157 F   0  0  0  0  0  0  0  0  0  0  0  0
  1  2  1  0  0  0  0
  1  5  2  0  0  0  0
  2  6  2  0  0  0  0
  3  8  2  0  0  0  0
  3 17  1  0  0  0  0
  4  9  1  0  0  0  0
  4 17  2  0  0  0  0
  5 19  1  0  0  0  0
  6 21  1  0  0  0  0
  7 10  2  0  0  0  0
  7 20  1  0  0  0  0
  8 23  1  0  0  0  0
  9 23  2  0  0  0  0
 10 24  1  0  0  0  0
 11 12  2  0  0  0  0
 11 25  1  0  0  0  0
 12 26  1  0  0  0  0
 13 14  1  0  0  0  0
 13 29  2  0  0  0  0
 14 31  2  0  0  0  0
 15 22  1  0  0  0  0
 15 24  2  0  0  0  0
 16 26  2  0  0  0  0
 16 27  1  0  0  0  0
 17 28  1  0  0  0  0
 18 28  1  0  0  0  0
 18 30  2  0  0  0  0
 18 33  1  0  0  0  0
 19 21  2  0  0  0  0
 19 40  1  0  0  0  0
 20 22  2  0  0  0  0
 20 41  1  0  0  0  0
 21 49  1  0  0  0  0
 22 42  1  0  0  0  0
 23 80  1  0  0  0  0
 24 81  1  0  0  0  0
 25 27  2  0  0  0  0
 25 80  1  0  0  0  0
 26 82  1  0  0  0  0
 27 83  1  0  0  0  0
 28 61  2  0  0  0  0
 29 57  1  0  0  0  0
 29 78  1  0  0  0  0
 30 62  1  0  0  0  0
 30 65  1  0  0  0  0
 31 67  1  0  0  0  0
 31 78  1  0  0  0  0
 32 34  2  0  0  0  0
 32 81  1  0  0  0  0
 33 66  1  0  0  0  0
 33 72  2  0  0  0  0
 34 35  1  0  0  0  0
 34 79  1  0  0  0  0
 35 67  1  0  0  0  0
 35 73  2  0  0  0  0
 36 50  1  0  0  0  0
 36 68  1  0  0  0  0
 36 74  2  0  0  0  0
 37 58  1  0  0  0  0
 37 63  1  0  0  0  0
 37 75  2  0  0  0  0
 38 59  1  0  0  0  0
 38 69  1  0  0  0  0
 38 76  2  0  0  0  0
 39 64  1  0  0  0  0
 39 70  1  0  0  0  0
 39 77  2  0  0  0  0
 40 43  1  0  0  0  0
 41 50  1  0  0  0  0
 42 63  1  0  0  0  0
 43 45  1  0  0  0  0
 44 46  1  0  0  0  0
 44 47  1  0  0  0  0
 45 49  1  0  0  0  0
 46 51  1  0  0  0  0
 47 64  1  0  0  0  0
 48 51  1  0  0  0  0
 48 64  1  0  0  0  0
 49 68  1  0  0  0  0
 50 63  1  0  0  0  0
 51 62  1  0  0  0  0
 52 59  1  0  0  0  0
 53 60  1  0  0  0  0
 54 60  1  0  0  0  0
 55 60  1  0  0  0  0
 56 71  1  0  0  0  0
 57 70  1  0  0  0  0
 58 60  1  0  0  0  0
 58 69  1  0  0  0  0
 59 71  1  0  0  0  0
 61 62  1  0  0  0  0
M  CHG  1  71   1
M  ISO  4  32 101  39 100  70 100  81 101
M  END
> <Batch ID>
0171

> <Smiles>
CNC(C)C(=O)NC(C(=O)N1Cc2cc([101O:1][101CH2:1]C(=O)C(=O)Nc3ccc(C[100NH:0][100C:0](=O)N4CCCC(n5nc(-c6ccc(Oc7ccc(F)cc7F)cc6)c(C(N)=O)c5N)C4)o3)ccc2CC1C(=O)NC1CCCc2ccccc21)C(C)(C)C

> <Shape>
0.243

> <Color>
0.078

> <Negative vol penalty>
0.000

$$$$

  -OEChem-04052304233D

 85 93  0     1  0  0  0  0  0999 V2000
  -18.0226  -13.5384   18.6812 C   0  0  0  0  0  0  0  0  0  0  0  0
  -19.2370  -14.2147   18.7387 C   0  0  0  0  0  0  0  0  0  0  0  0
  -32.6507  -17.4432   23.4525 C   0  0  0  0  0  0  0  0  0  0  0  0
  -23.0002   -9.8946   19.9814 C   0  0  0  0  0  0  0  0  0  0  0  0
  -23.7251   -9.9459   22.2855 C   0  0  0  0  0  0  0  0  0  0  0  0
  -16.8401  -14.2025   19.0047 C   0  0  0  0  0  0  0  0  0  0  0  0
  -19.2694  -15.5560   19.1187 C   0  0  0  0  0  0  0  0  0  0  0  0
  -23.6608  -18.3669   22.3313 C   0  0  0  0  0  0  0  0  0  0  0  0
  -31.8584  -18.3425   24.1660 C   0  0  0  0  0  0  0  0  0  0  0  0
  -32.0595  -16.5472   22.5617 C   0  0  0  0  0  0  0  0  0  0  0  0
  -22.2332   -8.7604   20.2479 C   0  0  0  0  0  0  0  0  0  0  0  0
  -22.9581   -8.8118   22.5521 C   0  0  0  0  0  0  0  0  0  0  0  0
  -24.7390  -19.1635   21.9485 C   0  0  0  0  0  0  0  0  0  0  0  0
  -23.2013   -5.4726   22.0811 C   0  0  0  0  0  0  0  0  0  0  0  0
  -23.7884   -4.4554   22.8336 C   0  0  0  0  0  0  0  0  0  0  0  0
  -23.4203  -21.1394   22.3676 C   0  0  0  0  0  0  0  0  0  0  0  0
  -22.0644   -4.6994   24.5085 C   0  0  0  0  0  0  0  0  0  0  0  0
  -23.7462  -10.4873   21.0002 C   0  0  0  0  0  0  0  0  0  0  0  0
  -24.1324  -13.0027   20.8235 C   0  0  0  0  0  0  0  0  0  0  0  0
  -16.8592  -15.5499   19.3982 C   0  0  0  0  0  0  0  0  0  0  0  0
  -22.4486  -18.9514   22.7254 C   0  0  0  0  0  0  0  0  0  0  0  0
  -18.0860  -16.2391   19.4465 C   0  0  0  0  0  0  0  0  0  0  0  0
  -22.3290  -20.3481   22.7574 C   0  0  0  0  0  0  0  0  0  0  0  0
  -30.4748  -18.3457   23.9888 C   0  0  0  0  0  0  0  0  0  0  0  0
  -30.6759  -16.5504   22.3846 C   0  0  0  0  0  0  0  0  0  0  0  0
  -22.2121   -8.2190   21.5333 C   0  0  0  0  0  0  0  0  0  0  0  0
  -24.6180  -20.5499   21.9638 C   0  0  0  0  0  0  0  0  0  0  0  0
  -22.0457   -6.1033   22.5424 C   0  0  0  0  0  0  0  0  0  0  0  0
  -23.2199   -4.0688   24.0473 C   0  0  0  0  0  0  0  0  0  0  0  0
  -21.4773   -5.7167   23.7561 C   0  0  0  0  0  0  0  0  0  0  0  0
  -29.8836  -17.4497   23.0982 C   0  0  0  0  0  0  0  0  0  0  0  0
  -24.5391  -11.6585   20.7253 C   0  0  0  0  0  0  0  0  0  0  0  0
  -25.2425  -13.7248   20.4590 C   0  0  0  0  0  0  0  0  0  0  0  0
  -22.8646  -13.5497   21.2097 C   0  0  0  0  0  0  0  0  0  0  0  0
  -19.4640  -18.8789   21.6340 C   0  0  0  0  0  0  0  0  0  0  0  0
  -18.8502  -20.5738   24.3308 C   0  0  0  0  0  0  0  0  0  0  0  0
  -27.8258  -20.7069   23.7414 C   0  0  0  0  0  0  0  0  0  0  0  0
  -20.0180  -22.6414   26.7820 C   0  0  0  0  0  0  0  0  0  0  0  0
  -30.7223  -14.6839   20.6933 C   0  0  0  0  0  0  0  0  0  0  0  0
  -15.5502  -16.2387   19.6928 C   0  0  0  0  0  0  0  0  0  0  0  0
  -21.3036  -18.0787   23.1610 C   0  0  0  0  0  0  0  0  0  0  0  0
  -21.0557  -21.0252   23.1917 C   0  0  0  0  0  0  0  0  0  0  0  0
  -15.7113  -17.5558   20.4476 C   0  0  0  0  0  0  0  0  0  0  0  0
  -29.6034  -12.2308   18.3680 C   0  0  0  0  0  0  0  0  0  0  0  0
  -16.8101  -18.4031   19.8140 C   0  0  0  0  0  0  0  0  0  0  0  0
  -28.1527  -11.9738   18.7820 C   0  0  0  0  0  0  0  0  0  0  0  0
  -30.5039  -12.4742   19.5778 C   0  0  0  0  0  0  0  0  0  0  0  0
  -28.5886  -13.2641   20.9109 C   0  0  0  0  0  0  0  0  0  0  0  0
  -18.1648  -17.6874   19.8781 C   0  0  1  0  0  0  0  0  0  0  0  0
  -19.9489  -18.7718   23.0521 C   0  0  1  0  0  0  0  0  0  0  0  0
  -27.6311  -13.0778   19.7226 C   0  0  2  0  0  0  0  0  0  0  0  0
  -19.2718  -23.8901   28.8269 C   0  0  0  0  0  0  0  0  0  0  0  0
  -26.0256  -23.6589   22.0242 C   0  0  0  0  0  0  0  0  0  0  0  0
  -17.5088  -22.6660   22.5607 C   0  0  0  0  0  0  0  0  0  0  0  0
  -17.6427  -24.2718   24.4769 C   0  0  0  0  0  0  0  0  0  0  0  0
  -16.3032  -22.1790   24.6970 C   0  0  0  0  0  0  0  0  0  0  0  0
  -21.8872  -21.1438   28.5205 C   0  0  0  0  0  0  0  0  0  0  0  0
  -29.6250  -19.3152   24.7583 C   0  0  0  0  0  0  0  0  0  0  0  0
  -27.6466  -21.9064   22.8223 C   0  0  0  0  0  0  0  0  0  0  0  0
  -18.8276  -22.0399   24.6903 C   0  0  1  0  0  0  0  0  0  0  0  0
  -19.8691  -22.5978   28.2921 C   0  0  2  0  0  0  0  0  0  0  0  0
  -26.1784  -22.2421   22.5617 C   0  0  2  0  0  0  0  0  0  1  0  0
  -17.5941  -22.7767   24.0961 C   0  0  0  0  0  0  0  0  0  0  0  0
  -25.8084  -11.5315   20.3293 N   0  0  0  0  0  0  0  0  0  0  0  0
  -26.2089  -12.8050   20.1754 N   0  0  0  0  0  0  0  0  0  0  0  0
  -19.9625  -20.1287   23.6024 N   0  0  0  0  0  0  0  0  0  0  0  0
  -29.9491  -13.5356   20.4207 N   0  0  0  0  0  0  0  0  0  0  0  0
  -25.4765  -15.0504   20.3566 N   0  0  0  0  0  0  0  0  0  0  0  0
  -21.8325  -12.6660   21.5534 N   0  0  0  0  0  0  0  0  0  0  0  0
  -30.0783  -15.6396   21.4786 N   0  0  0  0  0  0  0  0  0  0  0  0
  -18.7282  -17.7900   21.2072 N   0  0  0  0  0  0  0  0  0  0  0  0
  -29.1677  -20.4083   23.9311 N   0  0  0  0  0  0  0  0  0  0  0  0
  -18.9191  -22.1050   26.1448 N   0  0  0  0  0  0  0  0  0  0  0  0
  -21.1963  -22.3911   28.9377 N   0  3  0  0  0  0  0  0  0  0  0  0
  -22.6484  -14.7851   21.2331 O   0  0  0  0  0  0  0  0  0  0  0  0
  -19.7360  -19.8764   20.9762 O   0  0  0  0  0  0  0  0  0  0  0  0
  -17.9190  -19.8488   24.6896 O   0  0  0  0  0  0  0  0  0  0  0  0
  -26.8865  -20.0938   24.2409 O   0  0  0  0  0  0  0  0  0  0  0  0
  -21.0083  -23.1082   26.2235 O   0  0  0  0  0  0  0  0  0  0  0  0
  -31.8611  -14.8223   20.2394 O   0  0  0  0  0  0  0  0  0  0  0  0
  -21.4636   -7.1125   21.7938 O   0  0  0  0  0  0  0  0  0  0  0  0
  -25.6687  -21.3298   21.5900 O   0  0  0  0  0  0  0  0  0  1  0  0
  -23.7829   -3.0909   24.7690 F   0  0  0  0  0  0  0  0  0  0  0  0
  -20.3666   -6.3181   24.2038 F   0  0  0  0  0  0  0  0  0  0  0  0
  -28.5529  -17.4545   22.9274 F   0  0  0  0  0  0  0  0  0  0  0  0
  1  2  1  0  0  0  0
  1  6  2  0  0  0  0
  2  7  2  0  0  0  0
  3  9  2  0  0  0  0
  3 10  1  0  0  0  0
  4 11  2  0  0  0  0
  4 18  1  0  0  0  0
  5 12  1  0  0  0  0
  5 18  2  0  0  0  0
  6 20  1  0  0  0  0
  7 22  1  0  0  0  0
  8 13  2  0  0  0  0
  8 21  1  0  0  0  0
  9 24  1  0  0  0  0
 10 25  2  0  0  0  0
 11 26  1  0  0  0  0
 12 26  2  0  0  0  0
 13 27  1  0  0  0  0
 14 15  2  0  0  0  0
 14 28  1  0  0  0  0
 15 29  1  0  0  0  0
 16 23  1  0  0  0  0
 16 27  2  0  0  0  0
 17 29  2  0  0  0  0
 17 30  1  0  0  0  0
 18 32  1  0  0  0  0
 19 32  1  0  0  0  0
 19 33  2  0  0  0  0
 19 34  1  0  0  0  0
 20 22  2  0  0  0  0
 20 40  1  0  0  0  0
 21 23  2  0  0  0  0
 21 41  1  0  0  0  0
 22 49  1  0  0  0  0
 23 42  1  0  0  0  0
 24 31  2  0  0  0  0
 24 58  1  0  0  0  0
 25 31  1  0  0  0  0
 25 70  1  0  0  0  0
 26 81  1  0  0  0  0
 27 82  1  0  0  0  0
 28 30  2  0  0  0  0
 28 81  1  0  0  0  0
 29 83  1  0  0  0  0
 30 84  1  0  0  0  0
 31 85  1  0  0  0  0
 32 64  2  0  0  0  0
 33 65  1  0  0  0  0
 33 68  1  0  0  0  0
 34 69  1  0  0  0  0
 34 75  2  0  0  0  0
 35 50  1  0  0  0  0
 35 71  1  0  0  0  0
 35 76  2  0  0  0  0
 36 60  1  0  0  0  0
 36 66  1  0  0  0  0
 36 77  2  0  0  0  0
 37 59  1  0  0  0  0
 37 72  1  0  0  0  0
 37 78  2  0  0  0  0
 38 61  1  0  0  0  0
 38 73  1  0  0  0  0
 38 79  2  0  0  0  0
 39 67  1  0  0  0  0
 39 70  1  0  0  0  0
 39 80  2  0  0  0  0
 40 43  1  0  0  0  0
 41 50  1  0  0  0  0
 42 66  1  0  0  0  0
 43 45  1  0  0  0  0
 44 46  1  0  0  0  0
 44 47  1  0  0  0  0
 45 49  1  0  0  0  0
 46 51  1  0  0  0  0
 47 67  1  0  0  0  0
 48 51  1  0  0  0  0
 48 67  1  0  0  0  0
 49 71  1  0  0  0  0
 50 66  1  0  0  0  0
 51 65  1  0  0  0  0
 52 61  1  0  0  0  0
 53 62  1  0  0  0  0
 54 63  1  0  0  0  0
 55 63  1  0  0  0  0
 56 63  1  0  0  0  0
 57 74  1  0  0  0  0
 58 72  1  0  0  0  0
 59 62  1  0  0  0  0
 60 63  1  0  0  0  0
 60 73  1  0  0  0  0
 61 74  1  0  0  0  0
 62 82  1  0  0  0  0
 64 65  1  0  0  0  0
M  CHG  1  74   1
M  ISO  4  39 100  62 101  70 100  82 101
M  END
> <Batch ID>
0171

> <Smiles>
CNC(C)C(=O)NC(C(=O)N1Cc2cc([101O:1][101CH:1](C)CC(=O)NCc3cccc([100NH:0][100C:0](=O)N4CCCC(n5nc(-c6ccc(Oc7ccc(F)cc7F)cc6)c(C(N)=O)c5N)C4)c3F)ccc2CC1C(=O)NC1CCCc2ccccc21)C(C)(C)C

> <Shape>
0.175

> <Color>
0.198

> <Negative vol penalty>
0.000

$$$$

  -OEChem-04052304233D

 87 95  0     1  0  0  0  0  0999 V2000
  -22.1848  -11.6093   19.2664 C   0  0  0  0  0  0  0  0  0  0  0  0
  -21.8754  -12.9567   19.4218 C   0  0  0  0  0  0  0  0  0  0  0  0
  -30.2812  -29.4676   20.8442 C   0  0  0  0  0  0  0  0  0  0  0  0
  -29.4312  -27.4495   21.8649 C   0  0  0  0  0  0  0  0  0  0  0  0
  -23.4104  -11.1203   19.7167 C   0  0  0  0  0  0  0  0  0  0  0  0
  -22.7910  -13.8157   20.0286 C   0  0  0  0  0  0  0  0  0  0  0  0
  -23.2954  -18.1940   17.5343 C   0  0  0  0  0  0  0  0  0  0  0  0
  -31.5119  -29.2651   21.4687 C   0  0  0  0  0  0  0  0  0  0  0  0
  -30.6619  -27.2469   22.4894 C   0  0  0  0  0  0  0  0  0  0  0  0
  -22.2939  -19.1473   17.7125 C   0  0  0  0  0  0  0  0  0  0  0  0
  -32.3166  -28.4473   25.1823 C   0  0  0  0  0  0  0  0  0  0  0  0
  -32.3082  -28.0885   26.5302 C   0  0  0  0  0  0  0  0  0  0  0  0
  -18.7987  -28.0915   22.6161 C   0  0  0  0  0  0  0  0  0  0  0  0
  -23.6934  -20.3132   19.2940 C   0  0  0  0  0  0  0  0  0  0  0  0
  -33.4562  -26.0325   25.9900 C   0  0  0  0  0  0  0  0  0  0  0  0
  -29.2408  -28.5598   21.0424 C   0  0  0  0  0  0  0  0  0  0  0  0
  -18.3749  -27.1313   21.6665 C   0  0  0  0  0  0  0  0  0  0  0  0
  -27.5693  -28.2972   19.1333 C   0  0  0  0  0  0  0  0  0  0  0  0
  -24.3454  -11.9756   20.3206 C   0  0  0  0  0  0  0  0  0  0  0  0
  -24.5012  -18.2872   18.2440 C   0  0  0  0  0  0  0  0  0  0  0  0
  -24.0297  -13.3374   20.4886 C   0  0  0  0  0  0  0  0  0  0  0  0
  -24.7097  -19.3612   19.1211 C   0  0  0  0  0  0  0  0  0  0  0  0
  -31.7023  -28.1548   22.2913 C   0  0  0  0  0  0  0  0  0  0  0  0
  -22.4916  -20.2056   18.5946 C   0  0  0  0  0  0  0  0  0  0  0  0
  -32.8948  -27.5987   24.2383 C   0  0  0  0  0  0  0  0  0  0  0  0
  -32.8780  -26.8811   26.9341 C   0  0  0  0  0  0  0  0  0  0  0  0
  -33.4647  -26.3913   24.6421 C   0  0  0  0  0  0  0  0  0  0  0  0
  -27.9691  -28.7687   20.3980 C   0  0  0  0  0  0  0  0  0  0  0  0
  -20.0677  -27.7199   22.9948 C   0  0  0  0  0  0  0  0  0  0  0  0
  -26.2853  -28.7615   18.9839 C   0  0  0  0  0  0  0  0  0  0  0  0
  -19.4152  -26.2415   21.5325 C   0  0  0  0  0  0  0  0  0  0  0  0
  -17.1248  -27.0691   20.9671 C   0  0  0  0  0  0  0  0  0  0  0  0
  -28.2938  -27.5099   18.1788 C   0  0  0  0  0  0  0  0  0  0  0  0
  -16.0302  -28.1037   21.1811 C   0  0  0  0  0  0  0  0  0  0  0  0
  -25.9972  -16.4629   20.3741 C   0  0  0  0  0  0  0  0  0  0  0  0
  -20.5992  -23.1338   19.7940 C   0  0  0  0  0  0  0  0  0  0  0  0
  -28.3616  -18.6538   20.0107 C   0  0  0  0  0  0  0  0  0  0  0  0
  -29.2613  -21.8269   19.1342 C   0  0  0  0  0  0  0  0  0  0  0  0
  -22.0312  -30.3186   22.8991 C   0  0  0  0  0  0  0  0  0  0  0  0
  -25.6377  -11.3917   20.8342 C   0  0  0  0  0  0  0  0  0  0  0  0
  -25.5822  -17.2655   18.0205 C   0  0  0  0  0  0  0  0  0  0  0  0
  -25.9942  -19.5180   19.8917 C   0  0  0  0  0  0  0  0  0  0  0  0
  -26.7060  -12.4416   21.1284 C   0  0  0  0  0  0  0  0  0  0  0  0
  -23.4215  -32.3509   20.3274 C   0  0  0  0  0  0  0  0  0  0  0  0
  -26.1105  -13.6023   21.9190 C   0  0  0  0  0  0  0  0  0  0  0  0
  -24.7085  -31.6208   19.9398 C   0  0  0  0  0  0  0  0  0  0  0  0
  -23.1466  -32.2530   21.8264 C   0  0  0  0  0  0  0  0  0  0  0  0
  -24.4228  -30.1501   21.9779 C   0  0  0  0  0  0  0  0  0  0  0  0
  -25.0068  -14.3055   21.1196 C   0  0  1  0  0  0  0  0  0  0  0  0
  -26.5684  -17.1754   19.1809 C   0  0  1  0  0  0  0  0  0  0  0  0
  -24.7128  -30.1734   20.4674 C   0  0  2  0  0  0  0  0  0  0  0  0
  -15.0502  -27.8191   22.2774 C   0  0  0  0  0  0  0  0  0  0  0  0
  -31.2608  -23.3352   18.9771 C   0  0  0  0  0  0  0  0  0  0  0  0
  -28.3348  -19.0009   23.0420 C   0  0  0  0  0  0  0  0  0  0  0  0
  -29.6181  -21.1293   22.7397 C   0  0  0  0  0  0  0  0  0  0  0  0
  -30.6155  -18.9602   22.0167 C   0  0  0  0  0  0  0  0  0  0  0  0
  -28.9155  -22.1738   16.2155 C   0  0  0  0  0  0  0  0  0  0  0  0
  -21.0438  -28.2903   23.9335 C   0  0  0  0  0  0  0  0  0  0  0  0
  -20.7646  -24.2922   20.7547 C   0  0  0  0  0  0  0  0  0  0  0  0
  -21.7852  -22.1947   19.6901 C   0  0  0  0  0  0  0  0  0  1  0  0
  -28.7196  -19.9606   20.6762 C   0  0  1  0  0  0  0  0  0  0  0  0
  -30.3703  -22.3483   18.2383 C   0  0  2  0  0  0  0  0  0  0  0  0
  -29.2969  -19.7590   22.1058 C   0  0  0  0  0  0  0  0  0  0  0  0
  -27.0164  -29.4783   21.0086 N   0  0  0  0  0  0  0  0  0  0  0  0
  -26.0052  -29.4561   20.1237 N   0  0  0  0  0  0  0  0  0  0  0  0
  -27.0184  -18.4898   19.6436 N   0  0  0  0  0  0  0  0  0  0  0  0
  -23.1628  -30.8545   22.2624 N   0  0  0  0  0  0  0  0  0  0  0  0
  -25.3799  -28.6393   17.9900 N   0  0  0  0  0  0  0  0  0  0  0  0
  -29.6024  -27.1179   18.4918 N   0  0  0  0  0  0  0  0  0  0  0  0
  -19.5753  -25.1051   20.7527 N   0  0  0  0  0  0  0  0  0  0  0  0
  -25.5845  -15.1702   20.1131 N   0  0  0  0  0  0  0  0  0  0  0  0
  -29.6203  -20.6519   19.7601 N   0  0  0  0  0  0  0  0  0  0  0  0
  -22.1277  -28.9842   23.2745 N   0  0  0  0  0  0  0  0  0  0  0  0
  -29.7945  -23.0351   17.0476 N   0  3  0  0  0  0  0  0  0  0  0  0
  -16.8066  -26.1814   20.1503 O   0  0  0  0  0  0  0  0  0  0  0  0
  -27.8012  -27.1781   17.0739 O   0  0  0  0  0  0  0  0  0  0  0  0
  -16.0195  -29.0891   20.4599 O   0  0  0  0  0  0  0  0  0  0  0  0
  -25.9368  -17.0424   21.4522 O   0  0  0  0  0  0  0  0  0  0  0  0
  -19.5750  -22.9563   19.1358 O   0  0  0  0  0  0  0  0  0  0  0  0
  -29.2426  -17.8124   19.8170 O   0  0  0  0  0  0  0  0  0  0  0  0
  -28.1857  -22.4062   19.2685 O   0  0  0  0  0  0  0  0  0  0  0  0
  -21.0086  -30.9788   23.1122 O   0  0  0  0  0  0  0  0  0  0  0  0
  -20.4509  -26.5932   22.3388 O   0  0  0  0  0  0  0  0  0  0  0  0
  -32.9031  -27.9567   22.9006 O   0  0  0  0  0  0  0  0  0  0  0  0
  -21.5154  -21.1371   18.7708 O   0  0  0  0  0  0  0  0  0  1  0  0
  -32.8712  -26.5374   28.2287 F   0  0  0  0  0  0  0  0  0  0  0  0
  -34.0227  -25.5724   23.7400 F   0  0  0  0  0  0  0  0  0  0  0  0
  1  2  1  0  0  0  0
  1  5  2  0  0  0  0
  2  6  2  0  0  0  0
  3  8  2  0  0  0  0
  3 16  1  0  0  0  0
  4  9  1  0  0  0  0
  4 16  2  0  0  0  0
  5 19  1  0  0  0  0
  6 21  1  0  0  0  0
  7 10  2  0  0  0  0
  7 20  1  0  0  0  0
  8 23  1  0  0  0  0
  9 23  2  0  0  0  0
 10 24  1  0  0  0  0
 11 12  2  0  0  0  0
 11 25  1  0  0  0  0
 12 26  1  0  0  0  0
 13 17  1  0  0  0  0
 13 29  2  0  0  0  0
 14 22  1  0  0  0  0
 14 24  2  0  0  0  0
 15 26  2  0  0  0  0
 15 27  1  0  0  0  0
 16 28  1  0  0  0  0
 17 31  2  0  0  0  0
 17 32  1  0  0  0  0
 18 28  1  0  0  0  0
 18 30  2  0  0  0  0
 18 33  1  0  0  0  0
 19 21  2  0  0  0  0
 19 40  1  0  0  0  0
 20 22  2  0  0  0  0
 20 41  1  0  0  0  0
 21 49  1  0  0  0  0
 22 42  1  0  0  0  0
 23 84  1  0  0  0  0
 24 85  1  0  0  0  0
 25 27  2  0  0  0  0
 25 84  1  0  0  0  0
 26 86  1  0  0  0  0
 27 87  1  0  0  0  0
 28 64  2  0  0  0  0
 29 58  1  0  0  0  0
 29 83  1  0  0  0  0
 30 65  1  0  0  0  0
 30 68  1  0  0  0  0
 31 70  1  0  0  0  0
 31 83  1  0  0  0  0
 32 34  1  0  0  0  0
 32 75  2  0  0  0  0
 33 69  1  0  0  0  0
 33 76  2  0  0  0  0
 34 52  1  0  0  0  0
 34 77  2  0  0  0  0
 35 50  1  0  0  0  0
 35 71  1  0  0  0  0
 35 78  2  0  0  0  0
 36 59  1  0  0  0  0
 36 60  1  0  0  0  0
 36 79  2  0  0  0  0
 37 61  1  0  0  0  0
 37 66  1  0  0  0  0
 37 80  2  0  0  0  0
 38 62  1  0  0  0  0
 38 72  1  0  0  0  0
 38 81  2  0  0  0  0
 39 67  1  0  0  0  0
 39 73  1  0  0  0  0
 39 82  2  0  0  0  0
 40 43  1  0  0  0  0
 41 50  1  0  0  0  0
 42 66  1  0  0  0  0
 43 45  1  0  0  0  0
 44 46  1  0  0  0  0
 44 47  1  0  0  0  0
 45 49  1  0  0  0  0
 46 51  1  0  0  0  0
 47 67  1  0  0  0  0
 48 51  1  0  0  0  0
 48 67  1  0  0  0  0
 49 71  1  0  0  0  0
 50 66  1  0  0  0  0
 51 65  1  0  0  0  0
 53 62  1  0  0  0  0
 54 63  1  0  0  0  0
 55 63  1  0  0  0  0
 56 63  1  0  0  0  0
 57 74  1  0  0  0  0
 58 73  1  0  0  0  0
 59 70  1  0  0  0  0
 60 85  1  0  0  0  0
 61 63  1  0  0  0  0
 61 72  1  0  0  0  0
 62 74  1  0  0  0  0
 64 65  1  0  0  0  0
M  CHG  1  74   1
M  ISO  4  39 100  60 101  73 100  85 101
M  END
> <Batch ID>
0171

> <Smiles>
CNC(C)C(=O)NC(C(=O)N1Cc2cc([101O:1][101CH2:1]C(=O)CNc3oc(C[100NH:0][100C:0](=O)N4CCCC(n5nc(-c6ccc(Oc7ccc(F)cc7F)cc6)c(C(N)=O)c5N)C4)cc3C(=O)C(C)=O)ccc2CC1C(=O)NC1CCCc2ccccc21)C(C)(C)C

> <Shape>
0.235

> <Color>
0.067

> <Negative vol penalty>
0.000

$$$$

  -OEChem-04052304233D

 85 93  0     1  0  0  0  0  0999 V2000
  -24.5252  -33.8431   28.0629 C   0  0  0  0  0  0  0  0  0  0  0  0
  -25.4050  -32.9910   27.4032 C   0  0  0  0  0  0  0  0  0  0  0  0
  -26.1501  -11.8535   21.2839 C   0  0  0  0  0  0  0  0  0  0  0  0
  -25.6804  -13.2054   19.3374 C   0  0  0  0  0  0  0  0  0  0  0  0
  -23.1509  -33.7098   27.8698 C   0  0  0  0  0  0  0  0  0  0  0  0
  -24.9109  -32.0042   26.5508 C   0  0  0  0  0  0  0  0  0  0  0  0
  -27.4978  -29.9668   21.3873 C   0  0  0  0  0  0  0  0  0  0  0  0
  -30.9504  -22.1100   18.7489 C   0  0  0  0  0  0  0  0  0  0  0  0
  -31.2365  -20.8810   19.3433 C   0  0  0  0  0  0  0  0  0  0  0  0
  -24.7824  -11.6665   21.4840 C   0  0  0  0  0  0  0  0  0  0  0  0
  -24.3127  -13.0183   19.5375 C   0  0  0  0  0  0  0  0  0  0  0  0
  -28.2786  -28.8459   21.1082 C   0  0  0  0  0  0  0  0  0  0  0  0
  -22.1914  -13.4154   22.7695 C   0  0  0  0  0  0  0  0  0  0  0  0
  -21.7021  -13.5553   24.0682 C   0  0  0  0  0  0  0  0  0  0  0  0
  -26.3084  -27.6641   20.3727 C   0  0  0  0  0  0  0  0  0  0  0  0
  -30.1600  -19.7414   17.5049 C   0  0  0  0  0  0  0  0  0  0  0  0
  -20.9141  -11.2720   24.0172 C   0  0  0  0  0  0  0  0  0  0  0  0
  -26.5991  -12.6231   20.2107 C   0  0  0  0  0  0  0  0  0  0  0  0
  -28.8769  -12.0138   19.2369 C   0  0  0  0  0  0  0  0  0  0  0  0
  -22.6401  -32.7272   27.0072 C   0  0  0  0  0  0  0  0  0  0  0  0
  -26.1125  -29.9409   21.1710 C   0  0  0  0  0  0  0  0  0  0  0  0
  -23.5283  -31.8568   26.3471 C   0  0  0  0  0  0  0  0  0  0  0  0
  -25.5126  -28.7867   20.6474 C   0  0  0  0  0  0  0  0  0  0  0  0
  -30.2690  -22.1547   17.5325 C   0  0  0  0  0  0  0  0  0  0  0  0
  -30.8414  -19.6967   18.7213 C   0  0  0  0  0  0  0  0  0  0  0  0
  -23.8637  -12.2488   20.6108 C   0  0  0  0  0  0  0  0  0  0  0  0
  -27.6835  -27.6934   20.6036 C   0  0  0  0  0  0  0  0  0  0  0  0
  -22.0420  -12.2038   22.0946 C   0  0  0  0  0  0  0  0  0  0  0  0
  -21.0634  -12.4836   24.6921 C   0  0  0  0  0  0  0  0  0  0  0  0
  -29.8739  -20.9704   16.9106 C   0  0  0  0  0  0  0  0  0  0  0  0
  -21.4034  -11.1321   22.7185 C   0  0  0  0  0  0  0  0  0  0  0  0
  -28.0118  -12.8171   20.0038 C   0  0  0  0  0  0  0  0  0  0  0  0
  -30.1045  -12.6176   19.3590 C   0  0  0  0  0  0  0  0  0  0  0  0
  -27.5790  -23.8547   17.0909 C   0  0  0  0  0  0  0  0  0  0  0  0
  -28.5959  -10.8279   18.4816 C   0  0  0  0  0  0  0  0  0  0  0  0
  -23.5470  -30.2425   23.0234 C   0  0  0  0  0  0  0  0  0  0  0  0
  -21.9716  -30.1576   20.1891 C   0  0  0  0  0  0  0  0  0  0  0  0
  -29.1816  -25.0637   18.6091 C   0  0  0  0  0  0  0  0  0  0  0  0
  -21.9531  -29.2049   16.9121 C   0  0  0  0  0  0  0  0  0  0  0  0
  -31.7961  -18.2274   20.5312 C   0  0  0  0  0  0  0  0  0  0  0  0
  -21.1446  -32.5908   26.8668 C   0  0  0  0  0  0  0  0  0  0  0  0
  -25.2881  -31.1673   21.4520 C   0  0  0  0  0  0  0  0  0  0  0  0
  -24.0325  -28.7146   20.3784 C   0  0  0  0  0  0  0  0  0  0  0  0
  -20.7194  -31.7625   25.6571 C   0  0  0  0  0  0  0  0  0  0  0  0
  -32.6698  -15.3102   22.3762 C   0  0  0  0  0  0  0  0  0  0  0  0
  -21.5407  -30.4798   25.5730 C   0  0  0  0  0  0  0  0  0  0  0  0
  -31.6571  -14.2650   21.9029 C   0  0  0  0  0  0  0  0  0  0  0  0
  -32.0452  -16.7007   22.4760 C   0  0  0  0  0  0  0  0  0  0  0  0
  -30.3479  -16.1174   20.7884 C   0  0  0  0  0  0  0  0  0  0  0  0
  -23.0319  -30.7902   25.3952 C   0  0  1  0  0  0  0  0  0  0  0  0
  -23.8118  -30.8560   21.6776 C   0  0  1  0  0  0  0  0  0  0  0  0
  -30.9474  -14.7129   20.6100 C   0  0  2  0  0  0  0  0  0  0  0  0
  -20.5115  -29.2407   14.8584 C   0  0  0  0  0  0  0  0  0  0  0  0
  -20.2812  -27.8927   21.3392 C   0  0  0  0  0  0  0  0  0  0  0  0
  -19.5499  -27.3481   19.0075 C   0  0  0  0  0  0  0  0  0  0  0  0
  -19.0022  -29.5713   19.9973 C   0  0  0  0  0  0  0  0  0  0  0  0
  -23.9304  -30.8160   15.4110 C   0  0  0  0  0  0  0  0  0  0  0  0
  -29.9647  -23.4796   16.8952 C   0  0  0  0  0  0  0  0  0  0  0  0
  -27.9995  -25.7460   19.2755 C   0  0  0  0  0  0  0  0  0  1  0  0
  -21.3864  -29.0681   19.3235 C   0  0  1  0  0  0  0  0  0  0  0  0
  -21.5953  -29.9610   15.6453 C   0  0  2  0  0  0  0  0  0  0  0  0
  -20.0826  -28.4704   19.9236 C   0  0  0  0  0  0  0  0  0  0  0  0
  -28.6368  -13.8522   20.5712 N   0  0  0  0  0  0  0  0  0  0  0  0
  -29.9078  -13.7034   20.1606 N   0  0  0  0  0  0  0  0  0  0  0  0
  -23.2682  -29.9374   20.6752 N   0  0  0  0  0  0  0  0  0  0  0  0
  -31.3951  -17.0593   21.2136 N   0  0  0  0  0  0  0  0  0  0  0  0
  -31.3222  -12.3203   18.8579 N   0  0  0  0  0  0  0  0  0  0  0  0
  -27.2809  -10.3434   18.4633 N   0  0  0  0  0  0  0  0  0  0  0  0
  -31.1303  -18.4483   19.3260 N   0  0  0  0  0  0  0  0  0  0  0  0
  -23.3104  -31.1644   24.0252 N   0  0  0  0  0  0  0  0  0  0  0  0
  -21.2219  -29.6468   17.9944 N   0  0  0  0  0  0  0  0  0  0  0  0
  -28.8651  -24.1670   17.5632 N   0  0  0  0  0  0  0  0  0  0  0  0
  -22.7940  -30.1042   14.7715 N   0  3  0  0  0  0  0  0  0  0  0  0
  -27.2947  -23.0778   16.1838 O   0  0  0  0  0  0  0  0  0  0  0  0
  -29.4878  -10.2069   17.8553 O   0  0  0  0  0  0  0  0  0  0  0  0
  -23.5553  -29.0230   23.1437 O   0  0  0  0  0  0  0  0  0  0  0  0
  -21.3057  -31.1701   20.4195 O   0  0  0  0  0  0  0  0  0  0  0  0
  -30.3309  -25.3037   18.9869 O   0  0  0  0  0  0  0  0  0  0  0  0
  -22.7942  -28.3092   16.9382 O   0  0  0  0  0  0  0  0  0  0  0  0
  -32.6851  -18.9620   20.9693 O   0  0  0  0  0  0  0  0  0  0  0  0
  -22.5291  -12.0663   20.8056 O   0  0  0  0  0  0  0  0  0  0  0  0
  -28.4432  -26.5978   20.3310 O   0  0  0  0  0  0  0  0  0  1  0  0
  -20.5950  -12.6176   25.9397 F   0  0  0  0  0  0  0  0  0  0  0  0
  -29.2188  -21.0031   15.7417 F   0  0  0  0  0  0  0  0  0  0  0  0
  -21.2579   -9.9654   22.0756 F   0  0  0  0  0  0  0  0  0  0  0  0
  1  2  1  0  0  0  0
  1  5  2  0  0  0  0
  2  6  2  0  0  0  0
  3 10  2  0  0  0  0
  3 18  1  0  0  0  0
  4 11  1  0  0  0  0
  4 18  2  0  0  0  0
  5 20  1  0  0  0  0
  6 22  1  0  0  0  0
  7 12  2  0  0  0  0
  7 21  1  0  0  0  0
  8  9  2  0  0  0  0
  8 24  1  0  0  0  0
  9 25  1  0  0  0  0
 10 26  1  0  0  0  0
 11 26  2  0  0  0  0
 12 27  1  0  0  0  0
 13 14  2  0  0  0  0
 13 28  1  0  0  0  0
 14 29  1  0  0  0  0
 15 23  1  0  0  0  0
 15 27  2  0  0  0  0
 16 25  2  0  0  0  0
 16 30  1  0  0  0  0
 17 29  2  0  0  0  0
 17 31  1  0  0  0  0
 18 32  1  0  0  0  0
 19 32  1  0  0  0  0
 19 33  2  0  0  0  0
 19 35  1  0  0  0  0
 20 22  2  0  0  0  0
 20 41  1  0  0  0  0
 21 23  2  0  0  0  0
 21 42  1  0  0  0  0
 22 50  1  0  0  0  0
 23 43  1  0  0  0  0
 24 30  2  0  0  0  0
 24 58  1  0  0  0  0
 25 69  1  0  0  0  0
 26 81  1  0  0  0  0
 27 82  1  0  0  0  0
 28 31  2  0  0  0  0
 28 81  1  0  0  0  0
 29 83  1  0  0  0  0
 30 84  1  0  0  0  0
 31 85  1  0  0  0  0
 32 63  2  0  0  0  0
 33 64  1  0  0  0  0
 33 67  1  0  0  0  0
 34 72  1  0  0  0  0
 34 74  2  0  0  0  0
 35 68  1  0  0  0  0
 35 75  2  0  0  0  0
 36 51  1  0  0  0  0
 36 70  1  0  0  0  0
 36 76  2  0  0  0  0
 37 60  1  0  0  0  0
 37 65  1  0  0  0  0
 37 77  2  0  0  0  0
 38 59  1  0  0  0  0
 38 72  1  0  0  0  0
 38 78  2  0  0  0  0
 39 61  1  0  0  0  0
 39 71  1  0  0  0  0
 39 79  2  0  0  0  0
 40 66  1  0  0  0  0
 40 69  1  0  0  0  0
 40 80  2  0  0  0  0
 41 44  1  0  0  0  0
 42 51  1  0  0  0  0
 43 65  1  0  0  0  0
 44 46  1  0  0  0  0
 45 47  1  0  0  0  0
 45 48  1  0  0  0  0
 46 50  1  0  0  0  0
 47 52  1  0  0  0  0
 48 66  1  0  0  0  0
 49 52  1  0  0  0  0
 49 66  1  0  0  0  0
 50 70  1  0  0  0  0
 51 65  1  0  0  0  0
 52 64  1  0  0  0  0
 53 61  1  0  0  0  0
 54 62  1  0  0  0  0
 55 62  1  0  0  0  0
 56 62  1  0  0  0  0
 57 73  1  0  0  0  0
 58 72  1  0  0  0  0
 59 82  1  0  0  0  0
 60 62  1  0  0  0  0
 60 71  1  0  0  0  0
 61 73  1  0  0  0  0
 63 64  1  0  0  0  0
M  CHG  1  73   1
M  ISO  4  40 100  59 101  69 100  82 101
M  END
> <Batch ID>
0171

> <Smiles>
CNC(C)C(=O)NC(C(=O)N1Cc2cc([101O:1][101CH2:1]C(=O)N(C=O)Cc3ccc([100NH:0][100C:0](=O)N4CCCC(n5nc(-c6ccc(Oc7ccc(F)cc7F)cc6)c(C(N)=O)c5N)C4)cc3F)ccc2CC1C(=O)NC1CCCc2ccccc21)C(C)(C)C

> <Shape>
0.261

> <Color>
0.107

> <Negative vol penalty>
0.000

$$$$

  -OEChem-04052304233D

 86 94  0     1  0  0  0  0  0999 V2000
  -17.7991  -25.5133   21.4384 C   0  0  0  0  0  0  0  0  0  0  0  0
  -19.0535  -25.5722   20.8397 C   0  0  0  0  0  0  0  0  0  0  0  0
  -23.8160   -9.5345   21.2784 C   0  0  0  0  0  0  0  0  0  0  0  0
  -24.2808  -10.5596   23.4161 C   0  0  0  0  0  0  0  0  0  0  0  0
  -17.4944  -26.3635   22.5007 C   0  0  0  0  0  0  0  0  0  0  0  0
  -20.0036  -26.4821   21.3021 C   0  0  0  0  0  0  0  0  0  0  0  0
  -24.6007  -24.4138   21.7850 C   0  0  0  0  0  0  0  0  0  0  0  0
  -23.2911   -8.4174   21.9281 C   0  0  0  0  0  0  0  0  0  0  0  0
  -23.7559   -9.4425   24.0659 C   0  0  0  0  0  0  0  0  0  0  0  0
  -25.3459  -24.2390   20.6197 C   0  0  0  0  0  0  0  0  0  0  0  0
  -20.4079   -7.5600   23.4725 C   0  0  0  0  0  0  0  0  0  0  0  0
  -19.2034   -7.0406   22.9982 C   0  0  0  0  0  0  0  0  0  0  0  0
  -28.5916  -20.5324   20.9812 C   0  0  0  0  0  0  0  0  0  0  0  0
  -28.4258  -19.1534   21.0451 C   0  0  0  0  0  0  0  0  0  0  0  0
  -26.5976  -26.2377   21.1275 C   0  0  0  0  0  0  0  0  0  0  0  0
  -20.2907   -4.9306   22.5478 C   0  0  0  0  0  0  0  0  0  0  0  0
  -24.3109  -10.6056   22.0223 C   0  0  0  0  0  0  0  0  0  0  0  0
  -24.1571  -12.9149   20.9493 C   0  0  0  0  0  0  0  0  0  0  0  0
  -18.4445  -27.2776   22.9826 C   0  0  0  0  0  0  0  0  0  0  0  0
  -24.8415  -25.5097   22.6261 C   0  0  0  0  0  0  0  0  0  0  0  0
  -19.7108  -27.3462   22.3709 C   0  0  0  0  0  0  0  0  0  0  0  0
  -25.8558  -26.4227   22.3042 C   0  0  0  0  0  0  0  0  0  0  0  0
  -23.2611   -8.3714   23.3219 C   0  0  0  0  0  0  0  0  0  0  0  0
  -26.3425  -25.1526   20.2893 C   0  0  0  0  0  0  0  0  0  0  0  0
  -21.5539   -6.7647   23.4844 C   0  0  0  0  0  0  0  0  0  0  0  0
  -19.1448   -5.7259   22.5359 C   0  0  0  0  0  0  0  0  0  0  0  0
  -21.4952   -5.4500   23.0221 C   0  0  0  0  0  0  0  0  0  0  0  0
  -29.7820  -21.0622   20.4957 C   0  0  0  0  0  0  0  0  0  0  0  0
  -24.8537  -11.7596   21.3517 C   0  0  0  0  0  0  0  0  0  0  0  0
  -30.7679  -20.1772   20.0900 C   0  0  0  0  0  0  0  0  0  0  0  0
  -29.4724  -18.3539   20.6146 C   0  0  0  0  0  0  0  0  0  0  0  0
  -25.1143  -13.7061   20.3627 C   0  0  0  0  0  0  0  0  0  0  0  0
  -22.7689  -13.2434   21.0931 C   0  0  0  0  0  0  0  0  0  0  0  0
  -23.1296  -28.0005   23.6105 C   0  0  0  0  0  0  0  0  0  0  0  0
  -25.7223  -28.5475   25.4816 C   0  0  0  0  0  0  0  0  0  0  0  0
  -29.0672  -28.1091   25.9976 C   0  0  0  0  0  0  0  0  0  0  0  0
  -30.2041  -15.9629   20.3077 C   0  0  0  0  0  0  0  0  0  0  0  0
  -18.0530  -28.2090   24.1024 C   0  0  0  0  0  0  0  0  0  0  0  0
  -24.0469  -25.6693   23.8933 C   0  0  0  0  0  0  0  0  0  0  0  0
  -26.1674  -27.6047   23.1841 C   0  0  0  0  0  0  0  0  0  0  0  0
  -19.2439  -28.8852   24.7768 C   0  0  0  0  0  0  0  0  0  0  0  0
  -29.8806  -12.6604   19.0171 C   0  0  0  0  0  0  0  0  0  0  0  0
  -20.2105  -29.4312   23.7307 C   0  0  0  0  0  0  0  0  0  0  0  0
  -28.4866  -12.2266   19.4763 C   0  0  0  0  0  0  0  0  0  0  0  0
  -30.5824  -13.5186   20.0681 C   0  0  0  0  0  0  0  0  0  0  0  0
  -28.4190  -14.2442   20.9968 C   0  0  0  0  0  0  0  0  0  0  0  0
  -20.7766  -28.3027   22.8603 C   0  0  1  0  0  0  0  0  0  0  0  0
  -24.0308  -27.1041   24.4116 C   0  0  1  0  0  0  0  0  0  0  0  0
  -27.6472  -13.4316   19.9444 C   0  0  2  0  0  0  0  0  0  0  0  0
  -30.9089  -28.7056   27.5943 C   0  0  0  0  0  0  0  0  0  0  0  0
  -25.7974  -31.3742   24.3352 C   0  0  0  0  0  0  0  0  0  0  0  0
  -28.1350  -31.5900   25.2054 C   0  0  0  0  0  0  0  0  0  0  0  0
  -26.2435  -31.2326   26.7919 C   0  0  0  0  0  0  0  0  0  0  0  0
  -28.7886  -24.6191   16.8206 C   0  0  0  0  0  0  0  0  0  0  0  0
  -30.7529  -25.1834   18.2487 C   0  0  0  0  0  0  0  0  0  0  0  0
  -29.5982  -25.2668   26.6287 C   0  0  0  0  0  0  0  0  0  0  0  0
  -28.4122  -25.4716   19.1621 C   0  0  0  0  0  0  0  0  0  1  0  0
  -29.3305  -23.1229   18.7457 C   0  0  0  0  0  0  0  0  0  0  0  0
  -32.0760  -20.6664   19.5570 C   0  0  0  0  0  0  0  0  0  0  0  0
  -27.0094  -29.3208   25.3255 C   0  0  1  0  0  0  0  0  0  0  0  0
  -29.8492  -27.6791   27.2256 C   0  0  2  0  0  0  0  0  0  0  0  0
  -26.7894  -30.8583   25.3967 C   0  0  0  0  0  0  0  0  0  0  0  0
  -29.3258  -24.6002   18.2695 C   0  0  0  0  0  0  0  0  0  0  0  0
  -26.1530  -11.8084   21.0463 N   0  0  0  0  0  0  0  0  0  0  0  0
  -30.6433  -18.8319   20.1371 N   0  0  0  0  0  0  0  0  0  0  0  0
  -26.2805  -13.0039   20.4458 N   0  0  0  0  0  0  0  0  0  0  0  0
  -25.3588  -27.7210   24.4089 N   0  0  0  0  0  0  0  0  0  0  0  0
  -29.7297  -14.6429   20.4602 N   0  0  0  0  0  0  0  0  0  0  0  0
  -25.0637  -14.9271   19.7890 N   0  0  0  0  0  0  0  0  0  0  0  0
  -21.9245  -12.3170   21.7201 N   0  0  0  0  0  0  0  0  0  0  0  0
  -29.2935  -16.9499   20.6832 N   0  0  0  0  0  0  0  0  0  0  0  0
  -21.8121  -27.5856   23.5730 N   0  0  0  0  0  0  0  0  0  0  0  0
  -27.9234  -28.8005   26.3366 N   0  0  0  0  0  0  0  0  0  0  0  0
  -30.5248  -26.3739   26.9788 N   0  3  0  0  0  0  0  0  0  0  0  0
  -22.2882  -14.3193   20.6632 O   0  0  0  0  0  0  0  0  0  0  0  0
  -23.5949  -28.9959   23.0678 O   0  0  0  0  0  0  0  0  0  0  0  0
  -25.0673  -28.6667   26.5201 O   0  0  0  0  0  0  0  0  0  0  0  0
  -29.4363  -27.8600   24.8520 O   0  0  0  0  0  0  0  0  0  0  0  0
  -31.3249  -16.2009   19.8501 O   0  0  0  0  0  0  0  0  0  0  0  0
  -22.7488   -7.2816   23.9563 O   0  0  0  0  0  0  0  0  0  0  0  0
  -27.0709  -24.9847   19.1521 O   0  0  0  0  0  0  0  0  0  1  0  0
  -17.9877   -5.2268   22.0819 F   0  0  0  0  0  0  0  0  0  0  0  0
  -22.5925   -4.6808   23.0321 F   0  0  0  0  0  0  0  0  0  0  0  0
  -32.8881  -19.6237   19.2463 F   0  0  0  0  0  0  0  0  0  0  0  0
  -32.7300  -21.4020   20.4923 F   0  0  0  0  0  0  0  0  0  0  0  0
  -29.9775  -22.8149   20.4216 S   0  0  0  0  0  0  0  0  0  0  0  0
  1  2  1  0  0  0  0
  1  5  2  0  0  0  0
  2  6  2  0  0  0  0
  3  8  2  0  0  0  0
  3 17  1  0  0  0  0
  4  9  1  0  0  0  0
  4 17  2  0  0  0  0
  5 19  1  0  0  0  0
  6 21  1  0  0  0  0
  7 10  2  0  0  0  0
  7 20  1  0  0  0  0
  8 23  1  0  0  0  0
  9 23  2  0  0  0  0
 10 24  1  0  0  0  0
 11 12  2  0  0  0  0
 11 25  1  0  0  0  0
 12 26  1  0  0  0  0
 13 14  2  0  0  0  0
 13 28  1  0  0  0  0
 14 31  1  0  0  0  0
 15 22  1  0  0  0  0
 15 24  2  0  0  0  0
 16 26  2  0  0  0  0
 16 27  1  0  0  0  0
 17 29  1  0  0  0  0
 18 29  1  0  0  0  0
 18 32  2  0  0  0  0
 18 33  1  0  0  0  0
 19 21  2  0  0  0  0
 19 38  1  0  0  0  0
 20 22  2  0  0  0  0
 20 39  1  0  0  0  0
 21 47  1  0  0  0  0
 22 40  1  0  0  0  0
 23 80  1  0  0  0  0
 24 81  1  0  0  0  0
 25 27  2  0  0  0  0
 25 80  1  0  0  0  0
 26 82  1  0  0  0  0
 27 83  1  0  0  0  0
 28 30  2  0  0  0  0
 28 86  1  0  0  0  0
 29 64  2  0  0  0  0
 30 59  1  0  0  0  0
 30 65  1  0  0  0  0
 31 65  2  0  0  0  0
 31 71  1  0  0  0  0
 32 66  1  0  0  0  0
 32 69  1  0  0  0  0
 33 70  1  0  0  0  0
 33 75  2  0  0  0  0
 34 48  1  0  0  0  0
 34 72  1  0  0  0  0
 34 76  2  0  0  0  0
 35 60  1  0  0  0  0
 35 67  1  0  0  0  0
 35 77  2  0  0  0  0
 36 61  1  0  0  0  0
 36 73  1  0  0  0  0
 36 78  2  0  0  0  0
 37 68  1  0  0  0  0
 37 71  1  0  0  0  0
 37 79  2  0  0  0  0
 38 41  1  0  0  0  0
 39 48  1  0  0  0  0
 40 67  1  0  0  0  0
 41 43  1  0  0  0  0
 42 44  1  0  0  0  0
 42 45  1  0  0  0  0
 43 47  1  0  0  0  0
 44 49  1  0  0  0  0
 45 68  1  0  0  0  0
 46 49  1  0  0  0  0
 46 68  1  0  0  0  0
 47 72  1  0  0  0  0
 48 67  1  0  0  0  0
 49 66  1  0  0  0  0
 50 61  1  0  0  0  0
 51 62  1  0  0  0  0
 52 62  1  0  0  0  0
 53 62  1  0  0  0  0
 54 63  1  0  0  0  0
 55 63  1  0  0  0  0
 56 74  1  0  0  0  0
 57 63  1  0  0  0  0
 57 81  1  0  0  0  0
 58 63  1  0  0  0  0
 58 86  1  0  0  0  0
 59 84  1  0  0  0  0
 59 85  1  0  0  0  0
 60 62  1  0  0  0  0
 60 73  1  0  0  0  0
 61 74  1  0  0  0  0
 64 66  1  0  0  0  0
M  CHG  1  74   1
M  ISO  4  37 100  57 101  71 100  81 101
M  END
> <Batch ID>
0171

> <Smiles>
CNC(C)C(=O)NC(C(=O)N1Cc2cc([101O:1][101CH2:1]C(C)(C)CSc3ccc([100NH:0][100C:0](=O)N4CCCC(n5nc(-c6ccc(Oc7ccc(F)cc7F)cc6)c(C(N)=O)c5N)C4)nc3C(F)F)ccc2CC1C(=O)NC1CCCc2ccccc21)C(C)(C)C

> <Shape>
0.321

> <Color>
0.162

> <Negative vol penalty>
0.000

$$$$

  -OEChem-04052304233D

 89 97  0     1  0  0  0  0  0999 V2000
  -32.7504  -18.4908   17.2952 C   0  0  0  0  0  0  0  0  0  0  0  0
  -32.0561  -18.8285   18.4525 C   0  0  0  0  0  0  0  0  0  0  0  0
  -23.1859   -9.8587   19.9609 C   0  0  0  0  0  0  0  0  0  0  0  0
  -23.8921   -9.9419   22.2699 C   0  0  0  0  0  0  0  0  0  0  0  0
  -33.0229  -19.4665   16.3374 C   0  0  0  0  0  0  0  0  0  0  0  0
  -31.6348  -20.1425   18.6531 C   0  0  0  0  0  0  0  0  0  0  0  0
  -26.8681  -20.4183   20.3406 C   0  0  0  0  0  0  0  0  0  0  0  0
  -31.2052  -16.8471   21.9793 C   0  0  0  0  0  0  0  0  0  0  0  0
  -22.4831   -8.6817   20.2182 C   0  0  0  0  0  0  0  0  0  0  0  0
  -23.1892   -8.7649   22.5272 C   0  0  0  0  0  0  0  0  0  0  0  0
  -26.6547  -20.1512   21.6922 C   0  0  0  0  0  0  0  0  0  0  0  0
  -19.5364   -7.7959   21.6201 C   0  0  0  0  0  0  0  0  0  0  0  0
  -31.5607  -18.0655   22.5577 C   0  0  0  0  0  0  0  0  0  0  0  0
  -18.2439   -7.6874   21.1071 C   0  0  0  0  0  0  0  0  0  0  0  0
  -26.5585  -22.5198   22.1389 C   0  0  0  0  0  0  0  0  0  0  0  0
  -18.9108   -5.7426   19.8382 C   0  0  0  0  0  0  0  0  0  0  0  0
  -23.8905  -10.4888   20.9867 C   0  0  0  0  0  0  0  0  0  0  0  0
  -24.1341  -13.0228   20.8218 C   0  0  0  0  0  0  0  0  0  0  0  0
  -32.5963  -20.7912   16.5218 C   0  0  0  0  0  0  0  0  0  0  0  0
  -26.9393  -21.7405   19.8789 C   0  0  0  0  0  0  0  0  0  0  0  0
  -31.9030  -21.1372   17.6974 C   0  0  0  0  0  0  0  0  0  0  0  0
  -26.7703  -22.8010   20.7805 C   0  0  0  0  0  0  0  0  0  0  0  0
  -30.8402  -15.9106   24.1763 C   0  0  0  0  0  0  0  0  0  0  0  0
  -31.1958  -17.1290   24.7548 C   0  0  0  0  0  0  0  0  0  0  0  0
  -30.8449  -15.7696   22.7886 C   0  0  0  0  0  0  0  0  0  0  0  0
  -22.4847   -8.1348   21.5013 C   0  0  0  0  0  0  0  0  0  0  0  0
  -26.5027  -21.2020   22.5921 C   0  0  0  0  0  0  0  0  0  0  0  0
  -20.5162   -6.8778   21.2421 C   0  0  0  0  0  0  0  0  0  0  0  0
  -17.9310   -6.6607   20.2161 C   0  0  0  0  0  0  0  0  0  0  0  0
  -31.5560  -18.2065   23.9455 C   0  0  0  0  0  0  0  0  0  0  0  0
  -20.2033   -5.8511   20.3512 C   0  0  0  0  0  0  0  0  0  0  0  0
  -24.6172  -11.7044   20.7214 C   0  0  0  0  0  0  0  0  0  0  0  0
  -25.2035  -13.8083   20.4674 C   0  0  0  0  0  0  0  0  0  0  0  0
  -22.8348  -13.4952   21.2017 C   0  0  0  0  0  0  0  0  0  0  0  0
  -29.1733  -23.5059   18.4660 C   0  0  0  0  0  0  0  0  0  0  0  0
  -27.1816  -19.9089   25.9096 C   0  0  0  0  0  0  0  0  0  0  0  0
  -26.7741  -25.6796   18.2622 C   0  0  0  0  0  0  0  0  0  0  0  0
  -23.8031  -26.8379   19.4779 C   0  0  0  0  0  0  0  0  0  0  0  0
  -30.9533  -14.0316   20.9682 C   0  0  0  0  0  0  0  0  0  0  0  0
  -32.9555  -21.8212   15.4804 C   0  0  0  0  0  0  0  0  0  0  0  0
  -27.1434  -22.0116   18.4136 C   0  0  0  0  0  0  0  0  0  0  0  0
  -26.8181  -24.2381   20.3324 C   0  0  0  0  0  0  0  0  0  0  0  0
  -32.1474  -23.1112   15.5954 C   0  0  0  0  0  0  0  0  0  0  0  0
  -29.3817  -13.0650   17.9230 C   0  0  0  0  0  0  0  0  0  0  0  0
  -32.0986  -23.5830   17.0451 C   0  0  0  0  0  0  0  0  0  0  0  0
  -27.9453  -12.7442   18.3423 C   0  0  0  0  0  0  0  0  0  0  0  0
  -30.3916  -12.6400   18.9875 C   0  0  0  0  0  0  0  0  0  0  0  0
  -28.6877  -12.8325   20.7564 C   0  0  0  0  0  0  0  0  0  0  0  0
  -31.4079  -22.5466   17.9397 C   0  0  1  0  0  0  0  0  0  0  0  0
  -27.7111  -23.4002   18.1363 C   0  0  1  0  0  0  0  0  0  0  0  0
  -27.6297  -13.3013   19.7443 C   0  0  2  0  0  0  0  0  0  0  0  0
  -30.4568  -14.7564   25.0487 C   0  0  0  0  0  0  0  0  0  0  0  0
  -22.1059  -28.6534   19.1303 C   0  0  0  0  0  0  0  0  0  0  0  0
  -28.6393  -27.6791   19.6161 C   0  0  0  0  0  0  0  0  0  0  0  0
  -26.6427  -29.1118   20.0945 C   0  0  0  0  0  0  0  0  0  0  0  0
  -27.2875  -28.6219   17.7351 C   0  0  0  0  0  0  0  0  0  0  0  0
  -29.8443  -17.1238   28.2226 C   0  0  0  0  0  0  0  0  0  0  0  0
  -21.6656  -24.8832   18.8703 C   0  0  0  0  0  0  0  0  0  0  0  0
  -31.1980  -17.3042   26.2459 C   0  0  0  0  0  0  0  0  0  0  0  0
  -26.8649  -19.7459   24.4372 C   0  0  0  0  0  0  0  0  0  1  0  0
  -29.3013  -18.7497   26.5392 C   0  0  0  0  0  0  0  0  0  0  0  0
  -26.2610  -26.7915   19.1451 C   0  0  1  0  0  0  0  0  0  0  0  0
  -22.5136  -27.2309   18.7799 C   0  0  2  0  0  0  0  0  0  0  0  0
  -27.7832  -18.7141   26.6187 C   0  0  0  0  0  0  0  0  0  0  0  0
  -27.2086  -28.0241   19.1568 C   0  0  0  0  0  0  0  0  0  0  0  0
  -25.8942  -11.6513   20.3333 N   0  0  0  0  0  0  0  0  0  0  0  0
  -26.2225  -12.9462   20.1867 N   0  0  0  0  0  0  0  0  0  0  0  0
  -27.0262  -24.4519   18.8907 N   0  0  0  0  0  0  0  0  0  0  0  0
  -30.0309  -13.2085   20.2881 N   0  0  0  0  0  0  0  0  0  0  0  0
  -25.3623  -15.1455   20.3714 N   0  0  0  0  0  0  0  0  0  0  0  0
  -21.8524  -12.5528   21.5353 N   0  0  0  0  0  0  0  0  0  0  0  0
  -30.4874  -14.5411   22.1797 N   0  0  0  0  0  0  0  0  0  0  0  0
  -29.9716  -22.6141   17.7754 N   0  0  0  0  0  0  0  0  0  0  0  0
  -24.9066  -27.0833   18.6883 N   0  0  0  0  0  0  0  0  0  0  0  0
  -29.8382  -17.4319   26.7864 N   0  0  2  0  0  0  0  0  0  0  0  0
  -21.4087  -26.3136   19.1783 N   0  3  0  0  0  0  0  0  0  0  0  0
  -22.5484  -14.7162   21.2283 O   0  0  0  0  0  0  0  0  0  0  0  0
  -29.5494  -24.3361   19.2851 O   0  0  0  0  0  0  0  0  0  0  0  0
  -26.9867  -20.9672   26.5073 O   0  0  0  0  0  0  0  0  0  0  0  0
  -26.9382  -25.8905   17.0579 O   0  0  0  0  0  0  0  0  0  0  0  0
  -23.8292  -26.3644   20.6118 O   0  0  0  0  0  0  0  0  0  0  0  0
  -32.0638  -14.2892   20.4966 O   0  0  0  0  0  0  0  0  0  0  0  0
  -21.7987   -6.9864   21.7529 O   0  0  0  0  0  0  0  0  0  0  0  0
  -26.2950  -20.9441   23.9120 O   0  0  0  0  0  0  0  0  0  1  0  0
  -16.6894   -6.5557   19.7248 F   0  0  0  0  0  0  0  0  0  0  0  0
  -31.8987  -19.3820   24.4910 F   0  0  0  0  0  0  0  0  0  0  0  0
  -21.1401   -4.9654   19.9853 F   0  0  0  0  0  0  0  0  0  0  0  0
  -27.4056  -18.7025   27.9265 F   0  0  0  0  0  0  0  0  0  0  0  0
  -27.3288  -17.5508   26.0806 F   0  0  0  0  0  0  0  0  0  0  0  0
  1  2  1  0  0  0  0
  1  5  2  0  0  0  0
  2  6  2  0  0  0  0
  3  9  2  0  0  0  0
  3 17  1  0  0  0  0
  4 10  1  0  0  0  0
  4 17  2  0  0  0  0
  5 19  1  0  0  0  0
  6 21  1  0  0  0  0
  7 11  2  0  0  0  0
  7 20  1  0  0  0  0
  8 13  1  0  0  0  0
  8 25  2  0  0  0  0
  9 26  1  0  0  0  0
 10 26  2  0  0  0  0
 11 27  1  0  0  0  0
 12 14  2  0  0  0  0
 12 28  1  0  0  0  0
 13 30  2  0  0  0  0
 14 29  1  0  0  0  0
 15 22  1  0  0  0  0
 15 27  2  0  0  0  0
 16 29  2  0  0  0  0
 16 31  1  0  0  0  0
 17 32  1  0  0  0  0
 18 32  1  0  0  0  0
 18 33  2  0  0  0  0
 18 34  1  0  0  0  0
 19 21  2  0  0  0  0
 19 40  1  0  0  0  0
 20 22  2  0  0  0  0
 20 41  1  0  0  0  0
 21 49  1  0  0  0  0
 22 42  1  0  0  0  0
 23 24  2  0  0  0  0
 23 25  1  0  0  0  0
 23 52  1  0  0  0  0
 24 30  1  0  0  0  0
 24 59  1  0  0  0  0
 25 72  1  0  0  0  0
 26 83  1  0  0  0  0
 27 84  1  0  0  0  0
 28 31  2  0  0  0  0
 28 83  1  0  0  0  0
 29 85  1  0  0  0  0
 30 86  1  0  0  0  0
 31 87  1  0  0  0  0
 32 66  2  0  0  0  0
 33 67  1  0  0  0  0
 33 70  1  0  0  0  0
 34 71  1  0  0  0  0
 34 77  2  0  0  0  0
 35 50  1  0  0  0  0
 35 73  1  0  0  0  0
 35 78  2  0  0  0  0
 36 60  1  0  0  0  0
 36 64  1  0  0  0  0
 36 79  2  0  0  0  0
 37 62  1  0  0  0  0
 37 68  1  0  0  0  0
 37 80  2  0  0  0  0
 38 63  1  0  0  0  0
 38 74  1  0  0  0  0
 38 81  2  0  0  0  0
 39 69  1  0  0  0  0
 39 72  1  0  0  0  0
 39 82  2  0  0  0  0
 40 43  1  0  0  0  0
 41 50  1  0  0  0  0
 42 68  1  0  0  0  0
 43 45  1  0  0  0  0
 44 46  1  0  0  0  0
 44 47  1  0  0  0  0
 45 49  1  0  0  0  0
 46 51  1  0  0  0  0
 47 69  1  0  0  0  0
 48 51  1  0  0  0  0
 48 69  1  0  0  0  0
 49 73  1  0  0  0  0
 50 68  1  0  0  0  0
 51 67  1  0  0  0  0
 53 63  1  0  0  0  0
 54 65  1  0  0  0  0
 55 65  1  0  0  0  0
 56 65  1  0  0  0  0
 57 75  1  0  0  0  0
 58 76  1  0  0  0  0
 59 75  1  0  0  0  0
 60 84  1  0  0  0  0
 61 64  1  0  0  0  0
 61 75  1  0  0  0  0
 62 65  1  0  0  0  0
 62 74  1  0  0  0  0
 63 76  1  0  0  0  0
 64 88  1  0  0  0  0
 64 89  1  0  0  0  0
 66 67  1  0  0  0  0
M  CHG  1  76   1
M  ISO  4  39 100  60 101  72 100  84 101
M  END
> <Batch ID>
0171

> <Smiles>
CNC(C)C(=O)NC(C(=O)N1Cc2cc([101O:1][101CH2:1]C(=O)C(F)(F)CN(C)Cc3c(F)ccc([100NH:0][100C:0](=O)N4CCCC(n5nc(-c6ccc(Oc7ccc(F)cc7F)cc6)c(C(N)=O)c5N)C4)c3C)ccc2CC1C(=O)NC1CCCc2ccccc21)C(C)(C)C

> <Shape>
0.219

> <Color>
0.190

> <Negative vol penalty>
0.000

$$$$

  -OEChem-04052304233D

 86 94  0     1  0  0  0  0  0999 V2000
  -30.9875  -24.6366   17.5450 C   0  0  0  0  0  0  0  0  0  0  0  0
  -29.7691  -24.5197   18.2062 C   0  0  0  0  0  0  0  0  0  0  0  0
  -27.3482  -14.3370   18.6291 C   0  0  0  0  0  0  0  0  0  0  0  0
  -25.5707  -15.2221   20.0054 C   0  0  0  0  0  0  0  0  0  0  0  0
  -31.9375  -25.5533   17.9933 C   0  0  0  0  0  0  0  0  0  0  0  0
  -29.5004  -25.3188   19.3170 C   0  0  0  0  0  0  0  0  0  0  0  0
  -24.8475  -27.3137   19.1953 C   0  0  0  0  0  0  0  0  0  0  0  0
  -27.1121  -13.0624   19.1438 C   0  0  0  0  0  0  0  0  0  0  0  0
  -25.3346  -13.9474   20.5202 C   0  0  0  0  0  0  0  0  0  0  0  0
  -23.7876  -26.4795   19.5482 C   0  0  0  0  0  0  0  0  0  0  0  0
  -23.7709  -11.1168   19.5385 C   0  0  0  0  0  0  0  0  0  0  0  0
  -22.4454  -10.6927   19.6323 C   0  0  0  0  0  0  0  0  0  0  0  0
  -23.7520  -27.4658   21.7493 C   0  0  0  0  0  0  0  0  0  0  0  0
  -26.0355  -24.9977   24.3525 C   0  0  0  0  0  0  0  0  0  0  0  0
  -27.9744  -24.2577   23.1156 C   0  0  0  0  0  0  0  0  0  0  0  0
  -22.6959  -10.4386   22.0219 C   0  0  0  0  0  0  0  0  0  0  0  0
  -26.5775  -15.4170   19.0599 C   0  0  0  0  0  0  0  0  0  0  0  0
  -26.2294  -17.3150   17.3914 C   0  0  0  0  0  0  0  0  0  0  0  0
  -31.6766  -26.3708   19.1042 C   0  0  0  0  0  0  0  0  0  0  0  0
  -25.3756  -28.2242   20.1219 C   0  0  0  0  0  0  0  0  0  0  0  0
  -30.4484  -26.2463   19.7814 C   0  0  0  0  0  0  0  0  0  0  0  0
  -24.8168  -28.3123   21.4049 C   0  0  0  0  0  0  0  0  0  0  0  0
  -25.3425  -23.8564   23.9491 C   0  0  0  0  0  0  0  0  0  0  0  0
  -27.2815  -23.1164   22.7121 C   0  0  0  0  0  0  0  0  0  0  0  0
  -26.1053  -12.8675   20.0894 C   0  0  0  0  0  0  0  0  0  0  0  0
  -23.2416  -26.5534   20.8263 C   0  0  0  0  0  0  0  0  0  0  0  0
  -24.5590  -11.2018   20.6864 C   0  0  0  0  0  0  0  0  0  0  0  0
  -21.9079  -10.3537   20.8740 C   0  0  0  0  0  0  0  0  0  0  0  0
  -27.3515  -25.1984   23.9357 C   0  0  0  0  0  0  0  0  0  0  0  0
  -24.0214  -10.8627   21.9280 C   0  0  0  0  0  0  0  0  0  0  0  0
  -25.9655  -22.9157   23.1289 C   0  0  0  0  0  0  0  0  0  0  0  0
  -26.8213  -16.7341   18.5290 C   0  0  0  0  0  0  0  0  0  0  0  0
  -26.7908  -18.5661   17.3134 C   0  0  0  0  0  0  0  0  0  0  0  0
  -25.2590  -16.7723   16.4862 C   0  0  0  0  0  0  0  0  0  0  0  0
  -28.2105  -28.6316   21.5006 C   0  0  0  0  0  0  0  0  0  0  0  0
  -26.8168  -31.3132   22.6790 C   0  0  0  0  0  0  0  0  0  0  0  0
  -23.9463  -32.9566   23.5192 C   0  0  0  0  0  0  0  0  0  0  0  0
  -22.5183  -22.9182   22.4892 C   0  0  0  0  0  0  0  0  0  0  0  0
  -29.2177  -22.2122   21.3780 C   0  0  0  0  0  0  0  0  0  0  0  0
  -32.7530  -27.3137   19.5805 C   0  0  0  0  0  0  0  0  0  0  0  0
  -26.5014  -29.1358   19.7171 C   0  0  0  0  0  0  0  0  0  0  0  0
  -25.3343  -29.2870   22.4300 C   0  0  0  0  0  0  0  0  0  0  0  0
  -32.2423  -28.3874   20.5378 C   0  0  0  0  0  0  0  0  0  0  0  0
  -30.7859  -20.9548   18.4392 C   0  0  0  0  0  0  0  0  0  0  0  0
  -31.3452  -27.7683   21.6049 C   0  0  0  0  0  0  0  0  0  0  0  0
  -29.8899  -19.7864   18.0217 C   0  0  0  0  0  0  0  0  0  0  0  0
  -30.9037  -21.0646   19.9583 C   0  0  0  0  0  0  0  0  0  0  0  0
  -28.7287  -19.9477   20.2606 C   0  0  0  0  0  0  0  0  0  0  0  0
  -30.1102  -27.1130   20.9749 C   0  0  1  0  0  0  0  0  0  0  0  0
  -27.2976  -29.6660   20.9055 C   0  0  1  0  0  0  0  0  0  0  0  0
  -28.5274  -19.8363   18.7405 C   0  0  2  0  0  0  0  0  0  0  0  0
  -23.1278  -35.1192   24.4942 C   0  0  0  0  0  0  0  0  0  0  0  0
  -27.6400  -30.3677   25.4608 C   0  0  0  0  0  0  0  0  0  0  0  0
  -26.0157  -32.0116   26.4240 C   0  0  0  0  0  0  0  0  0  0  0  0
  -27.9423  -32.8177   25.0598 C   0  0  0  0  0  0  0  0  0  0  0  0
  -22.4469  -33.6326   21.0587 C   0  0  0  0  0  0  0  0  0  0  0  0
  -23.9262  -23.6443   24.3997 C   0  0  0  0  0  0  0  0  0  0  0  0
  -22.1418  -24.4648   20.5360 C   0  0  0  0  0  0  0  0  0  1  0  0
  -26.0161  -31.6473   23.9144 C   0  0  1  0  0  0  0  0  0  0  0  0
  -23.4669  -34.3651   23.2179 C   0  0  2  0  0  0  0  0  0  0  0  0
  -21.5093  -23.4429   21.4731 C   0  0  1  0  0  0  0  0  0  0  0  0
  -26.8948  -31.6913   25.1963 C   0  0  0  0  0  0  0  0  0  0  0  0
  -27.6920  -17.5491   19.1303 N   0  0  0  0  0  0  0  0  0  0  0  0
  -27.6515  -18.6549   18.3676 N   0  0  0  0  0  0  0  0  0  0  0  0
  -26.4403  -30.1525   21.9884 N   0  0  0  0  0  0  0  0  0  0  0  0
  -29.5741  -21.1114   20.5705 N   0  0  0  0  0  0  0  0  0  0  0  0
  -26.6273  -19.5879   16.4464 N   0  0  0  0  0  0  0  0  0  0  0  0
  -24.7879  -15.4719   16.7127 N   0  0  0  0  0  0  0  0  0  0  0  0
  -27.9173  -22.1627   21.8791 N   0  0  0  0  0  0  0  0  0  0  0  0
  -29.1349  -28.1184   20.6108 N   0  0  0  0  0  0  0  0  0  0  0  0
  -22.9778  -23.9083   23.3434 N   0  0  0  0  0  0  0  0  0  0  0  0
  -25.3198  -32.8961   23.6241 N   0  0  0  0  0  0  0  0  0  0  0  0
  -22.2503  -34.3254   22.3581 N   0  3  0  0  0  0  0  0  0  0  0  0
  -24.8347  -17.4152   15.4962 O   0  0  0  0  0  0  0  0  0  0  0  0
  -28.0865  -28.3229   22.6800 O   0  0  0  0  0  0  0  0  0  0  0  0
  -27.7377  -32.0585   22.3353 O   0  0  0  0  0  0  0  0  0  0  0  0
  -23.1788  -32.0060   23.6522 O   0  0  0  0  0  0  0  0  0  0  0  0
  -22.8578  -21.7376   22.5347 O   0  0  0  0  0  0  0  0  0  0  0  0
  -29.9986  -23.1444   21.5857 O   0  0  0  0  0  0  0  0  0  0  0  0
  -21.0587  -22.3471   20.6916 O   0  0  0  0  0  0  0  0  0  0  0  0
  -25.8745  -11.6237   20.5917 O   0  0  0  0  0  0  0  0  0  0  0  0
  -22.2074  -25.7399   21.1735 O   0  0  0  0  0  0  0  0  0  1  0  0
  -20.6346   -9.9479   20.9641 F   0  0  0  0  0  0  0  0  0  0  0  0
  -28.0171  -26.2943   24.3234 F   0  0  0  0  0  0  0  0  0  0  0  0
  -24.7732  -10.9434   23.0344 F   0  0  0  0  0  0  0  0  0  0  0  0
  -25.2972  -21.8187   22.7418 F   0  0  0  0  0  0  0  0  0  0  0  0
  1  2  1  0  0  0  0
  1  5  2  0  0  0  0
  2  6  2  0  0  0  0
  3  8  2  0  0  0  0
  3 17  1  0  0  0  0
  4  9  1  0  0  0  0
  4 17  2  0  0  0  0
  5 19  1  0  0  0  0
  6 21  1  0  0  0  0
  7 10  2  0  0  0  0
  7 20  1  0  0  0  0
  8 25  1  0  0  0  0
  9 25  2  0  0  0  0
 10 26  1  0  0  0  0
 11 12  2  0  0  0  0
 11 27  1  0  0  0  0
 12 28  1  0  0  0  0
 13 22  1  0  0  0  0
 13 26  2  0  0  0  0
 14 23  1  0  0  0  0
 14 29  2  0  0  0  0
 15 24  2  0  0  0  0
 15 29  1  0  0  0  0
 16 28  2  0  0  0  0
 16 30  1  0  0  0  0
 17 32  1  0  0  0  0
 18 32  1  0  0  0  0
 18 33  2  0  0  0  0
 18 34  1  0  0  0  0
 19 21  2  0  0  0  0
 19 40  1  0  0  0  0
 20 22  2  0  0  0  0
 20 41  1  0  0  0  0
 21 49  1  0  0  0  0
 22 42  1  0  0  0  0
 23 31  2  0  0  0  0
 23 57  1  0  0  0  0
 24 31  1  0  0  0  0
 24 69  1  0  0  0  0
 25 81  1  0  0  0  0
 26 82  1  0  0  0  0
 27 30  2  0  0  0  0
 27 81  1  0  0  0  0
 28 83  1  0  0  0  0
 29 84  1  0  0  0  0
 30 85  1  0  0  0  0
 31 86  1  0  0  0  0
 32 63  2  0  0  0  0
 33 64  1  0  0  0  0
 33 67  1  0  0  0  0
 34 68  1  0  0  0  0
 34 74  2  0  0  0  0
 35 50  1  0  0  0  0
 35 70  1  0  0  0  0
 35 75  2  0  0  0  0
 36 59  1  0  0  0  0
 36 65  1  0  0  0  0
 36 76  2  0  0  0  0
 37 60  1  0  0  0  0
 37 72  1  0  0  0  0
 37 77  2  0  0  0  0
 38 61  1  0  0  0  0
 38 71  1  0  0  0  0
 38 78  2  0  0  0  0
 39 66  1  0  0  0  0
 39 69  1  0  0  0  0
 39 79  2  0  0  0  0
 40 43  1  0  0  0  0
 41 50  1  0  0  0  0
 42 65  1  0  0  0  0
 43 45  1  0  0  0  0
 44 46  1  0  0  0  0
 44 47  1  0  0  0  0
 45 49  1  0  0  0  0
 46 51  1  0  0  0  0
 47 66  1  0  0  0  0
 48 51  1  0  0  0  0
 48 66  1  0  0  0  0
 49 70  1  0  0  0  0
 50 65  1  0  0  0  0
 51 64  1  0  0  0  0
 52 60  1  0  0  0  0
 53 62  1  0  0  0  0
 54 62  1  0  0  0  0
 55 62  1  0  0  0  0
 56 73  1  0  0  0  0
 57 71  1  0  0  0  0
 58 61  1  0  0  0  0
 58 82  1  0  0  0  0
 59 62  1  0  0  0  0
 59 72  1  0  0  0  0
 60 73  1  0  0  0  0
 61 80  1  0  0  0  0
 63 64  1  0  0  0  0
M  CHG  1  73   1
M  ISO  4  39 100  58 101  69 100  82 101
M  END
> <Batch ID>
0171

> <Smiles>
CNC(C)C(=O)NC(C(=O)N1Cc2cc([101O:1][101CH2:1]C(O)C(=O)NCc3cc(F)cc([100NH:0][100C:0](=O)N4CCCC(n5nc(-c6ccc(Oc7ccc(F)cc7F)cc6)c(C(N)=O)c5N)C4)c3F)ccc2CC1C(=O)NC1CCCc2ccccc21)C(C)(C)C

> <Shape>
0.260

> <Color>
0.058

> <Negative vol penalty>
0.000

$$$$
