
  -OEChem-04052304263D

 88 96  0     1  0  0  0  0  0999 V2000
  -30.3380  -11.1521   18.8304 C   0  0  0  0  0  0  0  0  0  0  0  0
  -30.1628  -12.5200   18.6473 C   0  0  0  0  0  0  0  0  0  0  0  0
  -19.8029  -28.5284   23.1036 C   0  0  0  0  0  0  0  0  0  0  0  0
  -21.0547  -26.7541   22.0445 C   0  0  0  0  0  0  0  0  0  0  0  0
  -29.3161  -10.3888   19.3934 C   0  0  0  0  0  0  0  0  0  0  0  0
  -28.9650  -13.1252   19.0260 C   0  0  0  0  0  0  0  0  0  0  0  0
  -29.6889  -17.4681   21.5280 C   0  0  0  0  0  0  0  0  0  0  0  0
  -18.7738  -28.3548   22.1782 C   0  0  0  0  0  0  0  0  0  0  0  0
  -20.0256  -26.5804   21.1191 C   0  0  0  0  0  0  0  0  0  0  0  0
  -30.0097  -18.5937   20.7703 C   0  0  0  0  0  0  0  0  0  0  0  0
  -16.9883  -25.1020   21.0224 C   0  0  0  0  0  0  0  0  0  0  0  0
  -16.5854  -23.7966   20.7410 C   0  0  0  0  0  0  0  0  0  0  0  0
  -27.7160  -19.3291   20.9030 C   0  0  0  0  0  0  0  0  0  0  0  0
  -31.0004  -27.5115   19.8253 C   0  0  0  0  0  0  0  0  0  0  0  0
  -30.1471  -29.2906   21.2193 C   0  0  0  0  0  0  0  0  0  0  0  0
  -29.1485  -27.0929   21.3194 C   0  0  0  0  0  0  0  0  0  0  0  0
  -17.1674  -24.1178   18.4182 C   0  0  0  0  0  0  0  0  0  0  0  0
  -20.9434  -27.7281   23.0368 C   0  0  0  0  0  0  0  0  0  0  0  0
  -22.1492  -27.2648   25.2365 C   0  0  0  0  0  0  0  0  0  0  0  0
  -28.1089  -10.9866   19.7881 C   0  0  0  0  0  0  0  0  0  0  0  0
  -28.3748  -17.2588   21.9705 C   0  0  0  0  0  0  0  0  0  0  0  0
  -27.9255  -12.3690   19.5936 C   0  0  0  0  0  0  0  0  0  0  0  0
  -27.3818  -18.2015   21.6684 C   0  0  0  0  0  0  0  0  0  0  0  0
  -31.0488  -28.8371   20.2566 C   0  0  0  0  0  0  0  0  0  0  0  0
  -30.0502  -26.6394   20.3566 C   0  0  0  0  0  0  0  0  0  0  0  0
  -29.1969  -28.4186   21.7507 C   0  0  0  0  0  0  0  0  0  0  0  0
  -18.8851  -27.3807   21.1860 C   0  0  0  0  0  0  0  0  0  0  0  0
  -29.0226  -19.5229   20.4553 C   0  0  0  0  0  0  0  0  0  0  0  0
  -17.4807  -25.9153   20.0017 C   0  0  0  0  0  0  0  0  0  0  0  0
  -16.6750  -23.3045   19.4389 C   0  0  0  0  0  0  0  0  0  0  0  0
  -17.5703  -25.4232   18.6996 C   0  0  0  0  0  0  0  0  0  0  0  0
  -22.0070  -27.9074   23.9921 C   0  0  0  0  0  0  0  0  0  0  0  0
  -23.3138  -27.7755   25.7556 C   0  0  0  0  0  0  0  0  0  0  0  0
  -29.1234  -21.8525   20.2719 C   0  0  0  0  0  0  0  0  0  1  0  0
  -21.3043  -26.2930   25.8668 C   0  0  0  0  0  0  0  0  0  0  0  0
  -29.3926  -22.9987   19.6354 C   0  0  0  0  0  0  0  0  0  0  0  0
  -29.1280  -24.2986   20.3344 C   0  0  0  0  0  0  0  0  0  0  0  0
  -26.1738  -15.0180   21.4823 C   0  0  0  0  0  0  0  0  0  0  0  0
  -24.5341  -16.6904   23.7266 C   0  0  0  0  0  0  0  0  0  0  0  0
  -31.3963  -30.4285   17.3844 C   0  0  0  0  0  0  0  0  0  0  0  0
  -24.0217  -19.6614   25.3257 C   0  0  0  0  0  0  0  0  0  0  0  0
  -28.1915  -30.1639   23.2638 C   0  0  0  0  0  0  0  0  0  0  0  0
  -27.0152  -10.1124   20.3487 C   0  0  0  0  0  0  0  0  0  0  0  0
  -28.0507  -16.0532   22.8095 C   0  0  0  0  0  0  0  0  0  0  0  0
  -25.9601  -18.0334   22.1365 C   0  0  0  0  0  0  0  0  0  0  0  0
  -25.9190  -10.8943   21.0681 C   0  0  0  0  0  0  0  0  0  0  0  0
  -26.0517  -31.7034   25.6571 C   0  0  0  0  0  0  0  0  0  0  0  0
  -25.4840  -12.0946   20.2334 C   0  0  0  0  0  0  0  0  0  0  0  0
  -24.7869  -30.8426   25.6194 C   0  0  0  0  0  0  0  0  0  0  0  0
  -26.6756  -31.8558   24.2710 C   0  0  0  0  0  0  0  0  0  0  0  0
  -25.6693  -29.7338   23.5268 C   0  0  0  0  0  0  0  0  0  0  0  0
  -26.6500  -13.0661   20.0145 C   0  0  1  0  0  0  0  0  0  0  0  0
  -26.5723  -15.6788   22.7716 C   0  0  1  0  0  0  0  0  0  0  0  0
  -25.0413  -29.4980   24.9102 C   0  0  2  0  0  0  0  0  0  0  0  0
  -30.7652  -31.5242   16.5912 C   0  0  0  0  0  0  0  0  0  0  0  0
  -22.5875  -20.7290   27.0866 C   0  0  0  0  0  0  0  0  0  0  0  0
  -22.2114  -16.8208   21.7522 C   0  0  0  0  0  0  0  0  0  0  0  0
  -21.2227  -18.6524   23.1436 C   0  0  0  0  0  0  0  0  0  0  0  0
  -21.5432  -16.3800   24.1215 C   0  0  0  0  0  0  0  0  0  0  0  0
  -26.3648  -20.2775   27.0255 C   0  0  0  0  0  0  0  0  0  0  0  0
  -32.0642  -29.7696   19.6871 C   0  0  0  0  0  0  0  0  0  0  0  0
  -23.5609  -17.8442   23.7010 C   0  0  1  0  0  0  0  0  0  0  0  0
  -23.8925  -20.0031   26.7992 C   0  0  2  0  0  0  0  0  0  0  0  0
  -22.1609  -17.4268   23.1690 C   0  0  0  0  0  0  0  0  0  0  0  0
  -23.0017  -28.7613   23.7361 N   0  0  0  0  0  0  0  0  0  0  0  0
  -23.7800  -28.6589   24.8268 N   0  0  0  0  0  0  0  0  0  0  0  0
  -25.6916  -16.8352   22.9487 N   0  0  0  0  0  0  0  0  0  0  0  0
  -26.8917  -30.5415   23.6621 N   0  0  0  0  0  0  0  0  0  0  0  0
  -23.9743  -27.5507   26.9113 N   0  0  0  0  0  0  0  0  0  0  0  0
  -20.1464  -25.8781   25.1949 N   0  0  0  0  0  0  0  0  0  0  0  0
  -30.0014  -25.2940   19.9184 N   0  0  0  0  0  0  0  0  0  0  0  0
  -28.2800  -28.8796   22.7277 N   0  0  0  0  0  0  0  0  0  0  0  0
  -26.8755  -13.8609   21.2028 N   0  0  0  0  0  0  0  0  0  0  0  0
  -31.4906  -30.6917   18.7402 N   0  0  0  0  0  0  0  0  0  0  0  0
  -23.5468  -18.3963   25.0513 N   0  0  0  0  0  0  0  0  0  0  0  0
  -25.0208  -20.8767   27.2292 N   0  3  0  0  0  0  0  0  0  0  0  0
  -21.5596  -25.8191   26.9999 O   0  0  0  0  0  0  0  0  0  0  0  0
  -28.2298  -24.3966   21.1635 O   0  0  0  0  0  0  0  0  0  0  0  0
  -25.2938  -15.5200   20.7929 O   0  0  0  0  0  0  0  0  0  0  0  0
  -24.2802  -15.7003   24.4171 O   0  0  0  0  0  0  0  0  0  0  0  0
  -31.7733  -29.4107   16.8154 O   0  0  0  0  0  0  0  0  0  0  0  0
  -24.4930  -20.4404   24.5001 O   0  0  0  0  0  0  0  0  0  0  0  0
  -29.1598  -30.9134   23.4141 O   0  0  0  0  0  0  0  0  0  0  0  0
  -29.9078  -23.0336   18.3555 O   0  0  0  0  0  0  0  0  0  0  0  0
  -17.8811  -27.2108   20.2829 O   0  0  0  0  0  0  0  0  0  0  0  0
  -29.3328  -20.6220   19.7153 O   0  0  0  0  0  0  0  0  0  1  0  0
  -16.2895  -22.0504   19.1691 F   0  0  0  0  0  0  0  0  0  0  0  0
  -18.0437  -26.1994   17.7152 F   0  0  0  0  0  0  0  0  0  0  0  0
  1  2  1  0  0  0  0
  1  5  2  0  0  0  0
  2  6  2  0  0  0  0
  3  8  2  0  0  0  0
  3 18  1  0  0  0  0
  4  9  1  0  0  0  0
  4 18  2  0  0  0  0
  5 20  1  0  0  0  0
  6 22  1  0  0  0  0
  7 10  2  0  0  0  0
  7 21  1  0  0  0  0
  8 27  1  0  0  0  0
  9 27  2  0  0  0  0
 10 28  1  0  0  0  0
 11 12  2  0  0  0  0
 11 29  1  0  0  0  0
 12 30  1  0  0  0  0
 13 23  1  0  0  0  0
 13 28  2  0  0  0  0
 14 24  2  0  0  0  0
 14 25  1  0  0  0  0
 15 24  1  0  0  0  0
 15 26  2  0  0  0  0
 16 25  2  0  0  0  0
 16 26  1  0  0  0  0
 17 30  2  0  0  0  0
 17 31  1  0  0  0  0
 18 32  1  0  0  0  0
 19 32  1  0  0  0  0
 19 33  2  0  0  0  0
 19 35  1  0  0  0  0
 20 22  2  0  0  0  0
 20 43  1  0  0  0  0
 21 23  2  0  0  0  0
 21 44  1  0  0  0  0
 22 52  1  0  0  0  0
 23 45  1  0  0  0  0
 24 61  1  0  0  0  0
 25 71  1  0  0  0  0
 26 72  1  0  0  0  0
 27 85  1  0  0  0  0
 28 86  1  0  0  0  0
 29 31  2  0  0  0  0
 29 85  1  0  0  0  0
 30 87  1  0  0  0  0
 31 88  1  0  0  0  0
 32 65  2  0  0  0  0
 33 66  1  0  0  0  0
 33 69  1  0  0  0  0
 34 36  2  0  0  0  0
 34 86  1  0  0  0  0
 35 70  1  0  0  0  0
 35 77  2  0  0  0  0
 36 37  1  0  0  0  0
 36 84  1  0  0  0  0
 37 71  1  0  0  0  0
 37 78  2  0  0  0  0
 38 53  1  0  0  0  0
 38 73  1  0  0  0  0
 38 79  2  0  0  0  0
 39 62  1  0  0  0  0
 39 67  1  0  0  0  0
 39 80  2  0  0  0  0
 40 55  1  0  0  0  0
 40 74  1  0  0  0  0
 40 81  2  0  0  0  0
 41 63  1  0  0  0  0
 41 75  1  0  0  0  0
 41 82  2  0  0  0  0
 42 68  1  0  0  0  0
 42 72  1  0  0  0  0
 42 83  2  0  0  0  0
 43 46  1  0  0  0  0
 44 53  1  0  0  0  0
 45 67  1  0  0  0  0
 46 48  1  0  0  0  0
 47 49  1  0  0  0  0
 47 50  1  0  0  0  0
 48 52  1  0  0  0  0
 49 54  1  0  0  0  0
 50 68  1  0  0  0  0
 51 54  1  0  0  0  0
 51 68  1  0  0  0  0
 52 73  1  0  0  0  0
 53 67  1  0  0  0  0
 54 66  1  0  0  0  0
 56 63  1  0  0  0  0
 57 64  1  0  0  0  0
 58 64  1  0  0  0  0
 59 64  1  0  0  0  0
 60 76  1  0  0  0  0
 61 74  1  0  0  0  0
 62 64  1  0  0  0  0
 62 75  1  0  0  0  0
 63 76  1  0  0  0  0
 65 66  1  0  0  0  0
M  CHG  1  76   1
M  ISO  4  34 101  42 100  72 100  86 101
M  END
> <Batch ID>
0172

> <Smiles>
CNC(C)C(=O)NC(C(=O)N1Cc2cc([101O:1][101CH2:1]C(=O)C(=O)Nc3cc(CNC(C)=O)cc([100NH:0][100C:0](=O)N4CCCC(n5nc(-c6ccc(Oc7ccc(F)cc7F)cc6)c(C(N)=O)c5N)C4)c3)ccc2CC1C(=O)NC1CCCc2ccccc21)C(C)(C)C

> <Shape>
0.239

> <Color>
0.059

> <Negative vol penalty>
0.000

$$$$

  -OEChem-04052304263D

 88 96  0     1  0  0  0  0  0999 V2000
  -29.0434  -37.0394   25.1230 C   0  0  0  0  0  0  0  0  0  0  0  0
  -29.1599  -35.7886   24.5251 C   0  0  0  0  0  0  0  0  0  0  0  0
  -25.0586   -8.0544   21.0015 C   0  0  0  0  0  0  0  0  0  0  0  0
  -23.5742   -9.5411   19.8084 C   0  0  0  0  0  0  0  0  0  0  0  0
  -27.8822  -37.3725   25.8192 C   0  0  0  0  0  0  0  0  0  0  0  0
  -28.1156  -34.8698   24.6239 C   0  0  0  0  0  0  0  0  0  0  0  0
  -26.3785  -30.8013   20.3889 C   0  0  0  0  0  0  0  0  0  0  0  0
  -23.9699   -7.2661   21.3738 C   0  0  0  0  0  0  0  0  0  0  0  0
  -22.4854   -8.7527   20.1807 C   0  0  0  0  0  0  0  0  0  0  0  0
  -26.6426  -29.4415   20.2305 C   0  0  0  0  0  0  0  0  0  0  0  0
  -21.4942   -7.3648   23.6728 C   0  0  0  0  0  0  0  0  0  0  0  0
  -21.4248   -6.9422   25.0003 C   0  0  0  0  0  0  0  0  0  0  0  0
  -24.5599  -28.9154   21.3283 C   0  0  0  0  0  0  0  0  0  0  0  0
  -29.2795  -18.9944   15.5471 C   0  0  0  0  0  0  0  0  0  0  0  0
  -29.1198  -16.6599   16.1481 C   0  0  0  0  0  0  0  0  0  0  0  0
  -29.2155  -18.3478   17.8741 C   0  0  0  0  0  0  0  0  0  0  0  0
  -21.4693   -4.6398   24.2697 C   0  0  0  0  0  0  0  0  0  0  0  0
  -24.8608   -9.1920   20.2188 C   0  0  0  0  0  0  0  0  0  0  0  0
  -26.7777   -9.8716   18.6789 C   0  0  0  0  0  0  0  0  0  0  0  0
  -26.8193  -36.4609   25.9184 C   0  0  0  0  0  0  0  0  0  0  0  0
  -25.2064  -31.2289   21.0290 C   0  0  0  0  0  0  0  0  0  0  0  0
  -26.9397  -35.1906   25.3232 C   0  0  0  0  0  0  0  0  0  0  0  0
  -24.2821  -30.2812   21.4912 C   0  0  0  0  0  0  0  0  0  0  0  0
  -29.1944  -17.6536   15.1721 C   0  0  0  0  0  0  0  0  0  0  0  0
  -29.2901  -19.3415   16.8980 C   0  0  0  0  0  0  0  0  0  0  0  0
  -29.1304  -17.0070   17.4991 C   0  0  0  0  0  0  0  0  0  0  0  0
  -22.6833   -7.6151   20.9634 C   0  0  0  0  0  0  0  0  0  0  0  0
  -25.7346  -28.4983   20.7028 C   0  0  0  0  0  0  0  0  0  0  0  0
  -21.5510   -6.4248   22.6437 C   0  0  0  0  0  0  0  0  0  0  0  0
  -21.4124   -5.5797   25.2988 C   0  0  0  0  0  0  0  0  0  0  0  0
  -21.5387   -5.0623   22.9422 C   0  0  0  0  0  0  0  0  0  0  0  0
  -25.9850  -10.0071   19.8343 C   0  0  0  0  0  0  0  0  0  0  0  0
  -27.7054  -10.8795   18.7787 C   0  0  0  0  0  0  0  0  0  0  0  0
  -26.6837   -8.9198   17.6107 C   0  0  0  0  0  0  0  0  0  0  0  0
  -29.4944  -22.7007   18.5710 C   0  0  0  0  0  0  0  0  0  0  0  0
  -29.3967  -21.2028   18.5614 C   0  0  0  0  0  0  0  0  0  0  0  0
  -24.5671  -32.9007   23.6558 C   0  0  0  0  0  0  0  0  0  0  0  0
  -27.3194  -25.3058   19.8055 C   0  0  0  0  0  0  0  0  0  0  0  0
  -21.5146  -32.6864   22.5795 C   0  0  0  0  0  0  0  0  0  0  0  0
  -19.2218  -31.0149   20.6831 C   0  0  0  0  0  0  0  0  0  0  0  0
  -29.0508  -16.1703   19.8740 C   0  0  0  0  0  0  0  0  0  0  0  0
  -25.6030  -36.8486   26.7215 C   0  0  0  0  0  0  0  0  0  0  0  0
  -24.9236  -32.6997   21.1681 C   0  0  0  0  0  0  0  0  0  0  0  0
  -22.9994  -30.6887   22.1673 C   0  0  0  0  0  0  0  0  0  0  0  0
  -24.3917  -35.9569   26.4613 C   0  0  0  0  0  0  0  0  0  0  0  0
  -28.8356  -13.9449   22.6450 C   0  0  0  0  0  0  0  0  0  0  0  0
  -24.7960  -34.4863   26.4870 C   0  0  0  0  0  0  0  0  0  0  0  0
  -28.1400  -12.7109   22.0657 C   0  0  0  0  0  0  0  0  0  0  0  0
  -28.2859  -15.2387   22.0471 C   0  0  0  0  0  0  0  0  0  0  0  0
  -27.5879  -14.0586   20.0003 C   0  0  0  0  0  0  0  0  0  0  0  0
  -25.8187  -34.1760   25.3873 C   0  0  1  0  0  0  0  0  0  0  0  0
  -23.9434  -33.0158   22.2936 C   0  0  1  0  0  0  0  0  0  0  0  0
  -28.1527  -12.7282   20.5246 C   0  0  2  0  0  0  0  0  0  0  0  0
  -30.7042  -23.3008   17.9146 C   0  0  0  0  0  0  0  0  0  0  0  0
  -16.7990  -31.0562   20.0310 C   0  0  0  0  0  0  0  0  0  0  0  0
  -20.7619  -31.5614   25.3141 C   0  0  0  0  0  0  0  0  0  0  0  0
  -18.6140  -30.7535   24.3130 C   0  0  0  0  0  0  0  0  0  0  0  0
  -19.1205  -33.1954   24.3704 C   0  0  0  0  0  0  0  0  0  0  0  0
  -19.8791  -31.3607   17.8183 C   0  0  0  0  0  0  0  0  0  0  0  0
  -28.5638  -24.7841   19.1211 C   0  0  0  0  0  0  0  0  0  0  0  0
  -27.2078  -26.8143   19.8967 C   0  0  0  0  0  0  0  0  0  1  0  0
  -20.3822  -31.7053   22.7643 C   0  0  1  0  0  0  0  0  0  0  0  0
  -18.2058  -31.5046   19.6671 C   0  0  2  0  0  0  0  0  0  0  0  0
  -19.7446  -31.7959   24.1795 C   0  0  0  0  0  0  0  0  0  0  0  0
  -26.3752  -11.0211   20.6113 N   0  0  0  0  0  0  0  0  0  0  0  0
  -28.5143  -23.3245   19.1211 N   0  0  0  0  0  0  0  0  0  0  0  0
  -27.4233  -11.5318   19.9428 N   0  0  0  0  0  0  0  0  0  0  0  0
  -22.7711  -32.1383   22.2853 N   0  0  0  0  0  0  0  0  0  0  0  0
  -28.3333  -15.1847   20.5843 N   0  0  0  0  0  0  0  0  0  0  0  0
  -29.1838  -17.3025   13.8059 N   0  0  0  0  0  0  0  0  0  0  0  0
  -28.7269  -11.2624   17.9836 N   0  0  0  0  0  0  0  0  0  0  0  0
  -25.6716   -7.9518   17.6654 N   0  0  0  0  0  0  0  0  0  0  0  0
  -29.3754  -20.7010   17.2778 N   0  0  0  0  0  0  0  0  0  0  0  0
  -29.0524  -15.9974   18.4903 N   0  0  0  0  0  0  0  0  0  0  0  0
  -25.1615  -34.0654   24.1026 N   0  0  0  0  0  0  0  0  0  0  0  0
  -19.4477  -31.9499   21.6711 N   0  0  0  0  0  0  0  0  0  0  0  0
  -18.5319  -30.9762   18.3124 N   0  3  0  0  0  0  0  0  0  0  0  0
  -27.4841   -8.9172   16.6448 O   0  0  0  0  0  0  0  0  0  0  0  0
  -29.3390  -20.6475   19.6456 O   0  0  0  0  0  0  0  0  0  0  0  0
  -24.5118  -31.8346   24.2575 O   0  0  0  0  0  0  0  0  0  0  0  0
  -26.4513  -24.5621   20.2605 O   0  0  0  0  0  0  0  0  0  0  0  0
  -21.2909  -33.8949   22.6850 O   0  0  0  0  0  0  0  0  0  0  0  0
  -19.7585  -29.9116   20.6099 O   0  0  0  0  0  0  0  0  0  0  0  0
  -29.6445  -17.0840   20.4525 O   0  0  0  0  0  0  0  0  0  0  0  0
  -21.6207   -6.8459   21.3264 O   0  0  0  0  0  0  0  0  0  0  0  0
  -25.9902  -27.1704   20.5501 O   0  0  0  0  0  0  0  0  0  1  0  0
  -21.3474   -5.1741   26.5737 F   0  0  0  0  0  0  0  0  0  0  0  0
  -21.5943   -4.1546   21.9579 F   0  0  0  0  0  0  0  0  0  0  0  0
  1  2  1  0  0  0  0
  1  5  2  0  0  0  0
  2  6  2  0  0  0  0
  3  8  2  0  0  0  0
  3 18  1  0  0  0  0
  4  9  1  0  0  0  0
  4 18  2  0  0  0  0
  5 20  1  0  0  0  0
  6 22  1  0  0  0  0
  7 10  2  0  0  0  0
  7 21  1  0  0  0  0
  8 27  1  0  0  0  0
  9 27  2  0  0  0  0
 10 28  1  0  0  0  0
 11 12  2  0  0  0  0
 11 29  1  0  0  0  0
 12 30  1  0  0  0  0
 13 23  1  0  0  0  0
 13 28  2  0  0  0  0
 14 24  2  0  0  0  0
 14 25  1  0  0  0  0
 15 24  1  0  0  0  0
 15 26  2  0  0  0  0
 16 25  2  0  0  0  0
 16 26  1  0  0  0  0
 17 30  2  0  0  0  0
 17 31  1  0  0  0  0
 18 32  1  0  0  0  0
 19 32  1  0  0  0  0
 19 33  2  0  0  0  0
 19 34  1  0  0  0  0
 20 22  2  0  0  0  0
 20 42  1  0  0  0  0
 21 23  2  0  0  0  0
 21 43  1  0  0  0  0
 22 51  1  0  0  0  0
 23 44  1  0  0  0  0
 24 70  1  0  0  0  0
 25 73  1  0  0  0  0
 26 74  1  0  0  0  0
 27 85  1  0  0  0  0
 28 86  1  0  0  0  0
 29 31  2  0  0  0  0
 29 85  1  0  0  0  0
 30 87  1  0  0  0  0
 31 88  1  0  0  0  0
 32 65  2  0  0  0  0
 33 67  1  0  0  0  0
 33 71  1  0  0  0  0
 34 72  1  0  0  0  0
 34 78  2  0  0  0  0
 35 36  1  0  0  0  0
 35 54  1  0  0  0  0
 35 66  2  0  0  0  0
 36 73  1  0  0  0  0
 36 79  2  0  0  0  0
 37 52  1  0  0  0  0
 37 75  1  0  0  0  0
 37 80  2  0  0  0  0
 38 60  1  0  0  0  0
 38 61  1  0  0  0  0
 38 81  2  0  0  0  0
 39 62  1  0  0  0  0
 39 68  1  0  0  0  0
 39 82  2  0  0  0  0
 40 63  1  0  0  0  0
 40 76  1  0  0  0  0
 40 83  2  0  0  0  0
 41 69  1  0  0  0  0
 41 74  1  0  0  0  0
 41 84  2  0  0  0  0
 42 45  1  0  0  0  0
 43 52  1  0  0  0  0
 44 68  1  0  0  0  0
 45 47  1  0  0  0  0
 46 48  1  0  0  0  0
 46 49  1  0  0  0  0
 47 51  1  0  0  0  0
 48 53  1  0  0  0  0
 49 69  1  0  0  0  0
 50 53  1  0  0  0  0
 50 69  1  0  0  0  0
 51 75  1  0  0  0  0
 52 68  1  0  0  0  0
 53 67  1  0  0  0  0
 55 63  1  0  0  0  0
 56 64  1  0  0  0  0
 57 64  1  0  0  0  0
 58 64  1  0  0  0  0
 59 77  1  0  0  0  0
 60 66  1  0  0  0  0
 61 86  1  0  0  0  0
 62 64  1  0  0  0  0
 62 76  1  0  0  0  0
 63 77  1  0  0  0  0
 65 67  1  0  0  0  0
M  CHG  1  77   1
M  ISO  4  41 100  61 101  74 100  86 101
M  END
> <Batch ID>
0172

> <Smiles>
CNC(C)C(=O)NC(C(=O)N1Cc2cc([101O:1][101CH2:1]C(=O)CN=C(C)C(=O)Nc3cc(N)cc([100NH:0][100C:0](=O)N4CCCC(n5nc(-c6ccc(Oc7ccc(F)cc7F)cc6)c(C(N)=O)c5N)C4)c3)ccc2CC1C(=O)NC1CCCc2ccccc21)C(C)(C)C

> <Shape>
0.269

> <Color>
0.106

> <Negative vol penalty>
0.000

$$$$

  -OEChem-04052304263D

 90 98  0     1  0  0  0  0  0999 V2000
  -15.1695  -27.5827   21.5899 C   0  0  0  0  0  0  0  0  0  0  0  0
  -16.1324  -26.5816   21.5138 C   0  0  0  0  0  0  0  0  0  0  0  0
  -23.1389   -9.8216   21.2145 C   0  0  0  0  0  0  0  0  0  0  0  0
  -23.8801  -10.5781   23.3860 C   0  0  0  0  0  0  0  0  0  0  0  0
  -15.4612  -28.7810   22.2403 C   0  0  0  0  0  0  0  0  0  0  0  0
  -17.3882  -26.7785   22.0872 C   0  0  0  0  0  0  0  0  0  0  0  0
  -20.9110  -22.5525   24.7772 C   0  0  0  0  0  0  0  0  0  0  0  0
  -22.4298   -8.7832   21.8183 C   0  0  0  0  0  0  0  0  0  0  0  0
  -23.1710   -9.5397   23.9898 C   0  0  0  0  0  0  0  0  0  0  0  0
  -21.9988  -21.8095   24.3208 C   0  0  0  0  0  0  0  0  0  0  0  0
  -20.7165   -5.7183   22.7642 C   0  0  0  0  0  0  0  0  0  0  0  0
  -20.8197   -4.4468   22.2002 C   0  0  0  0  0  0  0  0  0  0  0  0
  -31.6148  -19.5029   22.5463 C   0  0  0  0  0  0  0  0  0  0  0  0
  -23.5029  -23.4227   25.2978 C   0  0  0  0  0  0  0  0  0  0  0  0
  -31.8883  -17.3270   21.5326 C   0  0  0  0  0  0  0  0  0  0  0  0
  -23.2059   -4.4728   22.5780 C   0  0  0  0  0  0  0  0  0  0  0  0
  -23.8640  -10.7190   21.9983 C   0  0  0  0  0  0  0  0  0  0  0  0
  -30.2312  -19.3939   22.4070 C   0  0  0  0  0  0  0  0  0  0  0  0
  -24.1269  -13.0863   21.0848 C   0  0  0  0  0  0  0  0  0  0  0  0
  -16.7179  -28.9890   22.8303 C   0  0  0  0  0  0  0  0  0  0  0  0
  -21.1112  -23.7439   25.4892 C   0  0  0  0  0  0  0  0  0  0  0  0
  -17.6975  -27.9812   22.7449 C   0  0  0  0  0  0  0  0  0  0  0  0
  -22.4159  -24.1776   25.7644 C   0  0  0  0  0  0  0  0  0  0  0  0
  -30.5046  -17.2180   21.3933 C   0  0  0  0  0  0  0  0  0  0  0  0
  -22.4458   -8.6422   23.2059 C   0  0  0  0  0  0  0  0  0  0  0  0
  -23.2950  -22.2460   24.5786 C   0  0  0  0  0  0  0  0  0  0  0  0
  -21.8581   -6.3672   23.2350 C   0  0  0  0  0  0  0  0  0  0  0  0
  -22.0643   -3.8240   22.1071 C   0  0  0  0  0  0  0  0  0  0  0  0
  -32.4433  -18.4694   22.1091 C   0  0  0  0  0  0  0  0  0  0  0  0
  -23.1027   -5.7444   23.1419 C   0  0  0  0  0  0  0  0  0  0  0  0
  -29.6761  -18.2515   21.8305 C   0  0  0  0  0  0  0  0  0  0  0  0
  -24.5972  -11.7916   21.3752 C   0  0  0  0  0  0  0  0  0  0  0  0
  -25.1977  -13.7175   20.5004 C   0  0  0  0  0  0  0  0  0  0  0  0
  -29.3570  -20.4897   22.8715 C   0  0  0  0  0  0  0  0  0  0  0  0
  -22.8375  -13.6667   21.3223 C   0  0  0  0  0  0  0  0  0  0  0  0
  -20.3671  -26.7966   25.0081 C   0  0  0  0  0  0  0  0  0  0  0  0
  -26.3414  -21.5291   22.7440 C   0  0  0  0  0  0  0  0  0  0  0  0
  -21.5528  -27.1537   28.0063 C   0  0  0  0  0  0  0  0  0  0  0  0
  -23.5910  -25.9726   30.4756 C   0  0  0  0  0  0  0  0  0  0  0  0
  -30.6266  -14.9414   20.3216 C   0  0  0  0  0  0  0  0  0  0  0  0
  -17.0029  -30.3192   23.4815 C   0  0  0  0  0  0  0  0  0  0  0  0
  -19.9273  -24.5199   25.9977 C   0  0  0  0  0  0  0  0  0  0  0  0
  -22.6848  -25.4392   26.5419 C   0  0  0  0  0  0  0  0  0  0  0  0
  -18.2307  -30.3028   24.3884 C   0  0  0  0  0  0  0  0  0  0  0  0
  -29.6076  -11.8677   18.8413 C   0  0  0  0  0  0  0  0  0  0  0  0
  -19.3985  -29.6099   23.6933 C   0  0  0  0  0  0  0  0  0  0  0  0
  -28.1746  -11.6804   19.3447 C   0  0  0  0  0  0  0  0  0  0  0  0
  -30.5056  -12.4943   19.9065 C   0  0  0  0  0  0  0  0  0  0  0  0
  -28.5659  -13.5562   20.9925 C   0  0  0  0  0  0  0  0  0  0  0  0
  -19.0628  -28.1477   23.3760 C   0  0  1  0  0  0  0  0  0  0  0  0
  -20.2461  -25.9871   26.2682 C   0  0  1  0  0  0  0  0  0  0  0  0
  -27.6083  -12.9879   19.9324 C   0  0  2  0  0  0  0  0  0  0  0  0
  -24.3810  -26.5000   32.7983 C   0  0  0  0  0  0  0  0  0  0  0  0
  -23.3880  -29.3195   26.8877 C   0  0  0  0  0  0  0  0  0  0  0  0
  -24.7659  -29.1293   28.9694 C   0  0  0  0  0  0  0  0  0  0  0  0
  -22.3828  -29.8519   29.1149 C   0  0  0  0  0  0  0  0  0  0  0  0
  -22.4684  -23.4554   31.5538 C   0  0  0  0  0  0  0  0  0  0  0  0
  -25.5496  -22.2445   23.8217 C   0  0  0  0  0  0  0  0  0  1  0  0
  -27.6429  -22.1794   22.3202 C   0  0  2  0  0  0  0  0  0  0  0  0
  -22.9158  -27.4368   28.5903 C   0  0  1  0  0  0  0  0  0  0  0  0
  -23.3543  -25.7553   31.9592 C   0  0  2  0  0  0  0  0  0  0  0  0
  -23.3584  -28.9116   28.3742 C   0  0  0  0  0  0  0  0  0  0  0  0
  -27.4645  -23.0674   21.1125 C   0  0  0  0  0  0  0  0  0  0  0  0
  -25.8677  -11.6095   21.0055 N   0  0  0  0  0  0  0  0  0  0  0  0
  -26.2049  -12.7981   20.4768 N   0  0  0  0  0  0  0  0  0  0  0  0
  -21.4943  -26.1664   27.0125 N   0  0  0  0  0  0  0  0  0  0  0  0
  -29.9075  -13.7310   20.4142 N   0  0  0  0  0  0  0  0  0  0  0  0
  -25.3665  -14.9636   20.0094 N   0  0  0  0  0  0  0  0  0  0  0  0
  -21.8522  -12.8785   21.9324 N   0  0  0  0  0  0  0  0  0  0  0  0
  -29.9439  -16.0563   20.8070 N   0  0  0  0  0  0  0  0  0  0  0  0
  -28.5621  -21.0981   21.9787 N   0  0  0  0  0  0  0  0  0  0  0  0
  -19.1727  -27.3339   24.5676 N   0  0  0  0  0  0  0  0  0  0  0  0
  -22.8525  -27.0310   29.9901 N   0  0  0  0  0  0  0  0  0  0  0  0
  -29.4013  -20.8251   24.1609 N   0  3  0  0  0  0  0  0  0  0  0  0
  -23.4395  -24.3048   32.2904 N   0  3  0  0  0  0  0  0  0  0  0  0
  -22.5621  -14.8439   20.9880 O   0  0  0  0  0  0  0  0  0  0  0  0
  -21.4634  -26.9254   24.4758 O   0  0  0  0  0  0  0  0  0  0  0  0
  -25.9371  -20.4836   22.2344 O   0  0  0  0  0  0  0  0  0  0  0  0
  -20.5748  -27.7803   28.4218 O   0  0  0  0  0  0  0  0  0  0  0  0
  -24.3575  -25.2756   29.8143 O   0  0  0  0  0  0  0  0  0  0  0  0
  -31.7535  -14.9901   19.8217 O   0  0  0  0  0  0  0  0  0  0  0  0
  -21.7539   -7.6292   23.7954 O   0  0  0  0  0  0  0  0  0  0  0  0
  -24.3586  -21.5230   24.1336 O   0  0  0  0  0  0  0  0  0  1  0  0
  -22.1630   -2.6023   21.5669 F   0  0  0  0  0  0  0  0  0  0  0  0
  -33.7718  -18.5740   22.2430 F   0  0  0  0  0  0  0  0  0  0  0  0
  -24.2027   -6.3623   23.5936 F   0  0  0  0  0  0  0  0  0  0  0  0
  -28.3452  -18.1482   21.6969 F   0  0  0  0  0  0  0  0  0  0  0  0
  -28.6430  -23.5845   20.7031 F   0  0  0  0  0  0  0  0  0  0  0  0
  -26.6271  -24.0956   21.3667 F   0  0  0  0  0  0  0  0  0  0  0  0
  -26.9525  -22.3671   20.0753 F   0  0  0  0  0  0  0  0  0  0  0  0
  1  2  1  0  0  0  0
  1  5  2  0  0  0  0
  2  6  2  0  0  0  0
  3  8  2  0  0  0  0
  3 17  1  0  0  0  0
  4  9  1  0  0  0  0
  4 17  2  0  0  0  0
  5 20  1  0  0  0  0
  6 22  1  0  0  0  0
  7 10  2  0  0  0  0
  7 21  1  0  0  0  0
  8 25  1  0  0  0  0
  9 25  2  0  0  0  0
 10 26  1  0  0  0  0
 11 12  2  0  0  0  0
 11 27  1  0  0  0  0
 12 28  1  0  0  0  0
 13 18  1  0  0  0  0
 13 29  2  0  0  0  0
 14 23  1  0  0  0  0
 14 26  2  0  0  0  0
 15 24  2  0  0  0  0
 15 29  1  0  0  0  0
 16 28  2  0  0  0  0
 16 30  1  0  0  0  0
 17 32  1  0  0  0  0
 18 31  2  0  0  0  0
 18 34  1  0  0  0  0
 19 32  1  0  0  0  0
 19 33  2  0  0  0  0
 19 35  1  0  0  0  0
 20 22  2  0  0  0  0
 20 41  1  0  0  0  0
 21 23  2  0  0  0  0
 21 42  1  0  0  0  0
 22 50  1  0  0  0  0
 23 43  1  0  0  0  0
 24 31  1  0  0  0  0
 24 70  1  0  0  0  0
 25 82  1  0  0  0  0
 26 83  1  0  0  0  0
 27 30  2  0  0  0  0
 27 82  1  0  0  0  0
 28 84  1  0  0  0  0
 29 85  1  0  0  0  0
 30 86  1  0  0  0  0
 31 87  1  0  0  0  0
 32 64  2  0  0  0  0
 33 65  1  0  0  0  0
 33 68  1  0  0  0  0
 34 71  1  0  0  0  0
 34 74  2  0  0  0  0
 35 69  1  0  0  0  0
 35 76  2  0  0  0  0
 36 51  1  0  0  0  0
 36 72  1  0  0  0  0
 36 77  2  0  0  0  0
 37 58  1  0  0  0  0
 37 59  1  0  0  0  0
 37 78  2  0  0  0  0
 38 60  1  0  0  0  0
 38 66  1  0  0  0  0
 38 79  2  0  0  0  0
 39 61  1  0  0  0  0
 39 73  1  0  0  0  0
 39 80  2  0  0  0  0
 40 67  1  0  0  0  0
 40 70  1  0  0  0  0
 40 81  2  0  0  0  0
 41 44  1  0  0  0  0
 42 51  1  0  0  0  0
 43 66  1  0  0  0  0
 44 46  1  0  0  0  0
 45 47  1  0  0  0  0
 45 48  1  0  0  0  0
 46 50  1  0  0  0  0
 47 52  1  0  0  0  0
 48 67  1  0  0  0  0
 49 52  1  0  0  0  0
 49 67  1  0  0  0  0
 50 72  1  0  0  0  0
 51 66  1  0  0  0  0
 52 65  1  0  0  0  0
 53 61  1  0  0  0  0
 54 62  1  0  0  0  0
 55 62  1  0  0  0  0
 56 62  1  0  0  0  0
 57 75  1  0  0  0  0
 58 83  1  0  0  0  0
 59 63  1  0  0  0  0
 59 71  1  0  0  0  0
 60 62  1  0  0  0  0
 60 73  1  0  0  0  0
 61 75  1  0  0  0  0
 63 88  1  0  0  0  0
 63 89  1  0  0  0  0
 63 90  1  0  0  0  0
 64 65  1  0  0  0  0
M  CHG  2  74   1  75   1
M  ISO  4  40 100  58 101  70 100  83 101
M  END
> <Batch ID>
0172

> <Smiles>
CNC(C)C(=O)NC(C(=O)N1Cc2cc([101O:1][101CH2:1]C(=O)C(NC(=N)c3cc(F)cc([100NH:0][100C:0](=O)N4CCCC(n5nc(-c6ccc(Oc7ccc(F)cc7F)cc6)c(C(N)=O)c5N)C4)c3F)C(F)(F)F)ccc2CC1C(=O)NC1CCCc2ccccc21)C(C)(C)C

> <Shape>
0.234

> <Color>
0.168

> <Negative vol penalty>
0.000

$$$$

  -OEChem-04052304263D

 87 95  0     1  0  0  0  0  0999 V2000
  -30.3063  -23.9605   19.6940 C   0  0  0  0  0  0  0  0  0  0  0  0
  -28.9206  -24.0688   19.6343 C   0  0  0  0  0  0  0  0  0  0  0  0
  -27.6339  -14.9131   21.5822 C   0  0  0  0  0  0  0  0  0  0  0  0
  -26.1912  -15.4453   19.7187 C   0  0  0  0  0  0  0  0  0  0  0  0
  -31.0153  -24.6389   20.6845 C   0  0  0  0  0  0  0  0  0  0  0  0
  -28.2430  -24.8547   20.5657 C   0  0  0  0  0  0  0  0  0  0  0  0
  -23.1908  -28.1779   19.5978 C   0  0  0  0  0  0  0  0  0  0  0  0
  -27.2264  -13.5807   21.5171 C   0  0  0  0  0  0  0  0  0  0  0  0
  -25.7838  -14.1129   19.6536 C   0  0  0  0  0  0  0  0  0  0  0  0
  -21.8426  -27.9314   19.8535 C   0  0  0  0  0  0  0  0  0  0  0  0
  -24.0916  -10.9248   19.2263 C   0  0  0  0  0  0  0  0  0  0  0  0
  -22.7286  -10.6703   19.0748 C   0  0  0  0  0  0  0  0  0  0  0  0
  -22.0216  -29.1426   21.9320 C   0  0  0  0  0  0  0  0  0  0  0  0
  -21.5906  -23.5487   21.4354 C   0  0  0  0  0  0  0  0  0  0  0  0
  -22.2828  -11.8221   21.1512 C   0  0  0  0  0  0  0  0  0  0  0  0
  -20.9064  -22.8684   18.8178 C   0  0  0  0  0  0  0  0  0  0  0  0
  -27.1162  -15.8455   20.6830 C   0  0  0  0  0  0  0  0  0  0  0  0
  -28.6227  -17.8131   20.0776 C   0  0  0  0  0  0  0  0  0  0  0  0
  -30.3470  -25.4412   21.6227 C   0  0  0  0  0  0  0  0  0  0  0  0
  -23.9685  -28.9006   20.5140 C   0  0  0  0  0  0  0  0  0  0  0  0
  -28.9437  -25.5434   21.5705 C   0  0  0  0  0  0  0  0  0  0  0  0
  -23.3787  -29.3992   21.6843 C   0  0  0  0  0  0  0  0  0  0  0  0
  -22.4888  -22.8338   20.6431 C   0  0  0  0  0  0  0  0  0  0  0  0
  -20.3501  -23.9233   20.9189 C   0  0  0  0  0  0  0  0  0  0  0  0
  -26.3014  -13.1806   20.5528 C   0  0  0  0  0  0  0  0  0  0  0  0
  -21.2585  -28.4112   21.0221 C   0  0  0  0  0  0  0  0  0  0  0  0
  -24.5503  -11.6279   20.3403 C   0  0  0  0  0  0  0  0  0  0  0  0
  -21.8242  -11.1190   20.0372 C   0  0  0  0  0  0  0  0  0  0  0  0
  -22.1467  -22.4937   19.3343 C   0  0  0  0  0  0  0  0  0  0  0  0
  -20.0081  -23.5832   19.6101 C   0  0  0  0  0  0  0  0  0  0  0  0
  -23.6459  -12.0766   21.3027 C   0  0  0  0  0  0  0  0  0  0  0  0
  -27.5363  -17.2221   20.7501 C   0  0  0  0  0  0  0  0  0  0  0  0
  -28.5965  -19.1284   20.4724 C   0  0  0  0  0  0  0  0  0  0  0  0
  -29.5707  -17.2257   19.1765 C   0  0  0  0  0  0  0  0  0  0  0  0
  -26.5388  -28.2599   22.2708 C   0  0  0  0  0  0  0  0  0  0  0  0
  -18.3865  -27.1034   22.7911 C   0  0  0  0  0  0  0  0  0  0  0  0
  -26.3533  -31.4172   22.9913 C   0  0  0  0  0  0  0  0  0  0  0  0
  -24.4276  -34.2237   23.2404 C   0  0  0  0  0  0  0  0  0  0  0  0
  -24.2418  -22.7114   22.4482 C   0  0  0  0  0  0  0  0  0  0  0  0
  -31.1520  -26.1176   22.7039 C   0  0  0  0  0  0  0  0  0  0  0  0
  -25.4148  -29.1809   20.2107 C   0  0  0  0  0  0  0  0  0  0  0  0
  -24.1651  -30.1978   22.6904 C   0  0  0  0  0  0  0  0  0  0  0  0
  -30.3924  -27.2291   23.4237 C   0  0  0  0  0  0  0  0  0  0  0  0
  -27.2726  -21.9124   24.1373 C   0  0  0  0  0  0  0  0  0  0  0  0
  -28.9895  -26.7614   23.7976 C   0  0  0  0  0  0  0  0  0  0  0  0
  -27.7862  -20.6763   23.3953 C   0  0  0  0  0  0  0  0  0  0  0  0
  -25.7495  -21.9115   24.2543 C   0  0  0  0  0  0  0  0  0  0  0  0
  -25.5430  -20.5021   22.2443 C   0  0  0  0  0  0  0  0  0  0  0  0
  -28.1750  -26.4060   22.5479 C   0  0  1  0  0  0  0  0  0  0  0  0
  -26.2383  -29.4872   21.4578 C   0  0  1  0  0  0  0  0  0  0  0  0
  -27.0673  -20.4908   22.0446 C   0  0  2  0  0  0  0  0  0  0  0  0
  -24.5483  -36.6440   23.8925 C   0  0  0  0  0  0  0  0  0  0  0  0
  -17.2813  -25.0382   23.7508 C   0  0  0  0  0  0  0  0  0  0  0  0
  -18.9404  -26.3183   25.1061 C   0  0  0  0  0  0  0  0  0  0  0  0
  -26.3918  -30.6194   25.9361 C   0  0  0  0  0  0  0  0  0  0  0  0
  -25.5665  -32.9156   26.4970 C   0  0  0  0  0  0  0  0  0  0  0  0
  -27.7782  -32.6254   25.3805 C   0  0  0  0  0  0  0  0  0  0  0  0
  -23.6347  -35.1130   20.5313 C   0  0  0  0  0  0  0  0  0  0  0  0
  -19.5524  -28.0688   22.6432 C   0  0  0  0  0  0  0  0  0  1  0  0
  -19.7346  -25.0263   23.0707 C   0  0  0  0  0  0  0  0  0  0  0  0
  -25.6604  -32.2317   24.0569 C   0  0  1  0  0  0  0  0  0  0  0  0
  -24.6488  -35.6437   22.7514 C   0  0  2  0  0  0  0  0  0  0  0  0
  -18.5827  -25.8532   23.6800 C   0  0  0  0  0  0  0  0  0  0  0  0
  -26.3346  -32.0813   25.4498 C   0  0  0  0  0  0  0  0  0  0  0  0
  -26.8687  -18.0906   21.5143 N   0  0  0  0  0  0  0  0  0  0  0  0
  -27.5375  -19.2407   21.3245 N   0  0  0  0  0  0  0  0  0  0  0  0
  -25.5773  -30.4402   22.3517 N   0  0  0  0  0  0  0  0  0  0  0  0
  -25.1370  -21.7358   22.9357 N   0  0  0  0  0  0  0  0  0  0  0  0
  -29.3763  -20.1881   20.1705 N   0  0  0  0  0  0  0  0  0  0  0  0
  -29.4529  -15.8612   18.8790 N   0  0  0  0  0  0  0  0  0  0  0  0
  -23.7480  -22.4535   21.1698 N   0  0  0  0  0  0  0  0  0  0  0  0
  -19.4602  -24.6336   21.7075 N   0  0  0  0  0  0  0  0  0  0  0  0
  -27.6981  -27.6073   21.8969 N   0  0  0  0  0  0  0  0  0  0  0  0
  -25.6166  -33.6023   23.5590 N   0  0  0  0  0  0  0  0  0  0  0  0
  -23.6321  -36.0013   21.7221 N   0  3  0  0  0  0  0  0  0  0  0  0
  -30.5047  -17.8876   18.6636 O   0  0  0  0  0  0  0  0  0  0  0  0
  -25.7763  -27.9302   23.1716 O   0  0  0  0  0  0  0  0  0  0  0  0
  -17.3047  -27.3434   22.2489 O   0  0  0  0  0  0  0  0  0  0  0  0
  -27.5374  -31.6445   22.7308 O   0  0  0  0  0  0  0  0  0  0  0  0
  -23.3115  -33.7177   23.3343 O   0  0  0  0  0  0  0  0  0  0  0  0
  -23.9569  -23.7164   23.1045 O   0  0  0  0  0  0  0  0  0  0  0  0
  -25.9037  -11.8804   20.4889 O   0  0  0  0  0  0  0  0  0  0  0  0
  -19.9430  -28.1714   21.2745 O   0  0  0  0  0  0  0  0  0  1  0  0
  -20.5151  -10.8759   19.8909 F   0  0  0  0  0  0  0  0  0  0  0  0
  -23.0032  -21.8084   18.5635 F   0  0  0  0  0  0  0  0  0  0  0  0
  -18.8181  -23.9372   19.1042 F   0  0  0  0  0  0  0  0  0  0  0  0
  -24.0804  -12.7536   22.3745 F   0  0  0  0  0  0  0  0  0  0  0  0
  1  2  1  0  0  0  0
  1  5  2  0  0  0  0
  2  6  2  0  0  0  0
  3  8  2  0  0  0  0
  3 17  1  0  0  0  0
  4  9  1  0  0  0  0
  4 17  2  0  0  0  0
  5 19  1  0  0  0  0
  6 21  1  0  0  0  0
  7 10  2  0  0  0  0
  7 20  1  0  0  0  0
  8 25  1  0  0  0  0
  9 25  2  0  0  0  0
 10 26  1  0  0  0  0
 11 12  2  0  0  0  0
 11 27  1  0  0  0  0
 12 28  1  0  0  0  0
 13 22  1  0  0  0  0
 13 26  2  0  0  0  0
 14 23  2  0  0  0  0
 14 24  1  0  0  0  0
 15 28  2  0  0  0  0
 15 31  1  0  0  0  0
 16 29  2  0  0  0  0
 16 30  1  0  0  0  0
 17 32  1  0  0  0  0
 18 32  1  0  0  0  0
 18 33  2  0  0  0  0
 18 34  1  0  0  0  0
 19 21  2  0  0  0  0
 19 40  1  0  0  0  0
 20 22  2  0  0  0  0
 20 41  1  0  0  0  0
 21 49  1  0  0  0  0
 22 42  1  0  0  0  0
 23 29  1  0  0  0  0
 23 71  1  0  0  0  0
 24 30  2  0  0  0  0
 24 72  1  0  0  0  0
 25 82  1  0  0  0  0
 26 83  1  0  0  0  0
 27 31  2  0  0  0  0
 27 82  1  0  0  0  0
 28 84  1  0  0  0  0
 29 85  1  0  0  0  0
 30 86  1  0  0  0  0
 31 87  1  0  0  0  0
 32 65  2  0  0  0  0
 33 66  1  0  0  0  0
 33 69  1  0  0  0  0
 34 70  1  0  0  0  0
 34 76  2  0  0  0  0
 35 50  1  0  0  0  0
 35 73  1  0  0  0  0
 35 77  2  0  0  0  0
 36 59  1  0  0  0  0
 36 63  1  0  0  0  0
 36 78  2  0  0  0  0
 37 61  1  0  0  0  0
 37 67  1  0  0  0  0
 37 79  2  0  0  0  0
 38 62  1  0  0  0  0
 38 74  1  0  0  0  0
 38 80  2  0  0  0  0
 39 68  1  0  0  0  0
 39 71  1  0  0  0  0
 39 81  2  0  0  0  0
 40 43  1  0  0  0  0
 41 50  1  0  0  0  0
 42 67  1  0  0  0  0
 43 45  1  0  0  0  0
 44 46  1  0  0  0  0
 44 47  1  0  0  0  0
 45 49  1  0  0  0  0
 46 51  1  0  0  0  0
 47 68  1  0  0  0  0
 48 51  1  0  0  0  0
 48 68  1  0  0  0  0
 49 73  1  0  0  0  0
 50 67  1  0  0  0  0
 51 66  1  0  0  0  0
 52 62  1  0  0  0  0
 53 63  1  0  0  0  0
 54 63  1  0  0  0  0
 55 64  1  0  0  0  0
 56 64  1  0  0  0  0
 57 64  1  0  0  0  0
 58 75  1  0  0  0  0
 59 83  1  0  0  0  0
 60 63  1  0  0  0  0
 60 72  1  0  0  0  0
 61 64  1  0  0  0  0
 61 74  1  0  0  0  0
 62 75  1  0  0  0  0
 65 66  1  0  0  0  0
M  CHG  1  75   1
M  ISO  4  39 100  59 101  71 100  83 101
M  END
> <Batch ID>
0172

> <Smiles>
CNC(C)C(=O)NC(C(=O)N1Cc2cc([101O:1][101CH2:1]C(=O)C(C)(C)CNc3cc([100NH:0][100C:0](=O)N4CCCC(n5nc(-c6ccc(Oc7ccc(F)cc7F)cc6)c(C(N)=O)c5N)C4)c(F)cc3F)ccc2CC1C(=O)NC1CCCc2ccccc21)C(C)(C)C

> <Shape>
0.275

> <Color>
0.073

> <Negative vol penalty>
0.000

$$$$

  -OEChem-04052304263D

 87 95  0     1  0  0  0  0  0999 V2000
  -25.2485  -32.6831   25.6973 C   0  0  0  0  0  0  0  0  0  0  0  0
  -25.3086  -31.2941   25.7487 C   0  0  0  0  0  0  0  0  0  0  0  0
  -23.0857   -9.7970   19.9397 C   0  0  0  0  0  0  0  0  0  0  0  0
  -23.8448   -9.8117   22.2333 C   0  0  0  0  0  0  0  0  0  0  0  0
  -25.1138  -33.3288   24.4690 C   0  0  0  0  0  0  0  0  0  0  0  0
  -25.2329  -30.5501   24.5719 C   0  0  0  0  0  0  0  0  0  0  0  0
  -28.6714  -26.8365   24.3967 C   0  0  0  0  0  0  0  0  0  0  0  0
  -31.7159  -18.4271   24.2217 C   0  0  0  0  0  0  0  0  0  0  0  0
  -22.3615   -8.6307   20.1868 C   0  0  0  0  0  0  0  0  0  0  0  0
  -23.1206   -8.6455   22.4804 C   0  0  0  0  0  0  0  0  0  0  0  0
  -28.4023  -25.6842   25.1340 C   0  0  0  0  0  0  0  0  0  0  0  0
  -19.9064   -7.7913   23.0802 C   0  0  0  0  0  0  0  0  0  0  0  0
  -32.3440  -17.2124   23.9468 C   0  0  0  0  0  0  0  0  0  0  0  0
  -19.1499   -7.7358   24.2508 C   0  0  0  0  0  0  0  0  0  0  0  0
  -27.6512  -24.5811   23.1245 C   0  0  0  0  0  0  0  0  0  0  0  0
  -20.4240   -5.8182   24.9832 C   0  0  0  0  0  0  0  0  0  0  0  0
  -23.8273  -10.3874   20.9629 C   0  0  0  0  0  0  0  0  0  0  0  0
  -24.1261  -12.9183   20.8487 C   0  0  0  0  0  0  0  0  0  0  0  0
  -25.0461  -32.5927   23.2756 C   0  0  0  0  0  0  0  0  0  0  0  0
  -28.4218  -26.8734   23.0173 C   0  0  0  0  0  0  0  0  0  0  0  0
  -25.0958  -31.1865   23.3265 C   0  0  0  0  0  0  0  0  0  0  0  0
  -27.9204  -25.7342   22.3715 C   0  0  0  0  0  0  0  0  0  0  0  0
  -30.5151  -18.7502   23.5896 C   0  0  0  0  0  0  0  0  0  0  0  0
  -30.5705  -16.6438   22.4078 C   0  0  0  0  0  0  0  0  0  0  0  0
  -22.3789   -8.0550   21.4572 C   0  0  0  0  0  0  0  0  0  0  0  0
  -27.8894  -24.5572   24.4984 C   0  0  0  0  0  0  0  0  0  0  0  0
  -20.9216   -6.8602   22.8611 C   0  0  0  0  0  0  0  0  0  0  0  0
  -19.4087   -6.7493   25.2023 C   0  0  0  0  0  0  0  0  0  0  0  0
  -31.7713  -16.3207   23.0399 C   0  0  0  0  0  0  0  0  0  0  0  0
  -21.1805   -5.8736   23.8126 C   0  0  0  0  0  0  0  0  0  0  0  0
  -29.9425  -17.8585   22.6827 C   0  0  0  0  0  0  0  0  0  0  0  0
  -24.5761  -11.5919   20.7081 C   0  0  0  0  0  0  0  0  0  0  0  0
  -25.2053  -13.6872   20.4874 C   0  0  0  0  0  0  0  0  0  0  0  0
  -28.2819  -22.2824   24.8750 C   0  0  0  0  0  0  0  0  0  1  0  0
  -22.8468  -13.4114   21.2684 C   0  0  0  0  0  0  0  0  0  0  0  0
  -28.0990  -21.1196   25.5118 C   0  0  0  0  0  0  0  0  0  0  0  0
  -28.8700  -19.9192   25.0611 C   0  0  0  0  0  0  0  0  0  0  0  0
  -26.5265  -28.5861   21.1257 C   0  0  0  0  0  0  0  0  0  0  0  0
  -28.1035  -27.0091   18.7702 C   0  0  0  0  0  0  0  0  0  0  0  0
  -29.9074  -24.2722   17.8204 C   0  0  0  0  0  0  0  0  0  0  0  0
  -30.6528  -14.8255   20.6661 C   0  0  0  0  0  0  0  0  0  0  0  0
  -24.8530  -33.3331   21.9759 C   0  0  0  0  0  0  0  0  0  0  0  0
  -28.7426  -28.1152   22.2316 C   0  0  0  0  0  0  0  0  0  0  0  0
  -27.6540  -25.7157   20.8892 C   0  0  0  0  0  0  0  0  0  0  0  0
  -25.1567  -32.4871   20.7421 C   0  0  0  0  0  0  0  0  0  0  0  0
  -29.5804  -12.3984   18.2920 C   0  0  0  0  0  0  0  0  0  0  0  0
  -24.4989  -31.1159   20.8599 C   0  0  0  0  0  0  0  0  0  0  0  0
  -28.1458  -12.0813   18.7205 C   0  0  0  0  0  0  0  0  0  0  0  0
  -30.4912  -12.6401   19.4944 C   0  0  0  0  0  0  0  0  0  0  0  0
  -28.5718  -13.3287   20.8768 C   0  0  0  0  0  0  0  0  0  0  0  0
  -25.0419  -30.3456   22.0695 C   0  0  1  0  0  0  0  0  0  0  0  0
  -27.9669  -28.2104   20.9214 C   0  0  1  0  0  0  0  0  0  0  0  0
  -27.6023  -13.1416   19.6983 C   0  0  2  0  0  0  0  0  0  0  0  0
  -31.0255  -23.2464   15.8217 C   0  0  0  0  0  0  0  0  0  0  0  0
  -25.3799  -26.1691   17.6809 C   0  0  0  0  0  0  0  0  0  0  0  0
  -26.5429  -24.4237   16.3136 C   0  0  0  0  0  0  0  0  0  0  0  0
  -27.0405  -26.8385   15.9348 C   0  0  0  0  0  0  0  0  0  0  0  0
  -32.5642  -24.3484   19.1223 C   0  0  0  0  0  0  0  0  0  0  0  0
  -27.8967  -25.7102   18.0291 C   0  0  1  0  0  0  0  0  0  0  0  0
  -31.2022  -24.1408   17.0389 C   0  0  2  0  0  0  0  0  0  0  0  0
  -29.8362  -20.0687   23.8909 C   0  0  0  0  0  0  0  0  0  0  0  0
  -26.7181  -25.7860   17.0179 C   0  0  0  0  0  0  0  0  0  0  0  0
  -25.8425  -11.5186   20.2899 N   0  0  0  0  0  0  0  0  0  0  0  0
  -26.1974  -12.8087   20.1646 N   0  0  0  0  0  0  0  0  0  0  0  0
  -27.9780  -26.9562   20.1656 N   0  0  0  0  0  0  0  0  0  0  0  0
  -29.9145  -13.6592   20.3740 N   0  0  0  0  0  0  0  0  0  0  0  0
  -25.3930  -15.0222   20.4175 N   0  0  0  0  0  0  0  0  0  0  0  0
  -21.8505  -12.4844   21.6033 N   0  0  0  0  0  0  0  0  0  0  0  0
  -29.9896  -15.7375   21.4864 N   0  0  0  0  0  0  0  0  0  0  0  0
  -26.3464  -29.7935   21.7731 N   0  0  0  0  0  0  0  0  0  0  0  0
  -29.1819  -25.3760   17.4249 N   0  0  0  0  0  0  0  0  0  0  0  0
  -32.2698  -23.5575   17.8996 N   0  3  0  0  0  0  0  0  0  0  0  0
  -22.5896  -14.6377   21.3285 O   0  0  0  0  0  0  0  0  0  0  0  0
  -28.7145  -18.8233   25.6017 O   0  0  0  0  0  0  0  0  0  0  0  0
  -25.6438  -27.8367   20.7244 O   0  0  0  0  0  0  0  0  0  0  0  0
  -28.3736  -28.0314   18.1350 O   0  0  0  0  0  0  0  0  0  0  0  0
  -29.5714  -23.4733   18.6919 O   0  0  0  0  0  0  0  0  0  0  0  0
  -31.7790  -15.0145   20.1991 O   0  0  0  0  0  0  0  0  0  0  0  0
  -27.2292  -20.9832   26.5710 O   0  0  0  0  0  0  0  0  0  0  0  0
  -21.6722   -6.9171   21.6988 O   0  0  0  0  0  0  0  0  0  0  0  0
  -27.6252  -23.4315   25.2158 O   0  0  0  0  0  0  0  0  0  1  0  0
  -18.6833   -6.6970   26.3271 F   0  0  0  0  0  0  0  0  0  0  0  0
  -32.3837  -15.1562   22.7829 F   0  0  0  0  0  0  0  0  0  0  0  0
  -22.1553   -4.9771   23.6082 F   0  0  0  0  0  0  0  0  0  0  0  0
  -28.7874  -18.1711   22.0762 F   0  0  0  0  0  0  0  0  0  0  0  0
  -30.7639  -21.0259   24.2055 F   0  0  0  0  0  0  0  0  0  0  0  0
  -29.1869  -20.5842   22.8037 F   0  0  0  0  0  0  0  0  0  0  0  0
  1  2  1  0  0  0  0
  1  5  2  0  0  0  0
  2  6  2  0  0  0  0
  3  9  2  0  0  0  0
  3 17  1  0  0  0  0
  4 10  1  0  0  0  0
  4 17  2  0  0  0  0
  5 19  1  0  0  0  0
  6 21  1  0  0  0  0
  7 11  2  0  0  0  0
  7 20  1  0  0  0  0
  8 13  2  0  0  0  0
  8 23  1  0  0  0  0
  9 25  1  0  0  0  0
 10 25  2  0  0  0  0
 11 26  1  0  0  0  0
 12 14  2  0  0  0  0
 12 27  1  0  0  0  0
 13 29  1  0  0  0  0
 14 28  1  0  0  0  0
 15 22  1  0  0  0  0
 15 26  2  0  0  0  0
 16 28  2  0  0  0  0
 16 30  1  0  0  0  0
 17 32  1  0  0  0  0
 18 32  1  0  0  0  0
 18 33  2  0  0  0  0
 18 35  1  0  0  0  0
 19 21  2  0  0  0  0
 19 42  1  0  0  0  0
 20 22  2  0  0  0  0
 20 43  1  0  0  0  0
 21 51  1  0  0  0  0
 22 44  1  0  0  0  0
 23 31  2  0  0  0  0
 23 61  1  0  0  0  0
 24 29  2  0  0  0  0
 24 31  1  0  0  0  0
 24 69  1  0  0  0  0
 25 80  1  0  0  0  0
 26 81  1  0  0  0  0
 27 30  2  0  0  0  0
 27 80  1  0  0  0  0
 28 82  1  0  0  0  0
 29 83  1  0  0  0  0
 30 84  1  0  0  0  0
 31 85  1  0  0  0  0
 32 63  2  0  0  0  0
 33 64  1  0  0  0  0
 33 67  1  0  0  0  0
 34 36  2  0  0  0  0
 34 81  1  0  0  0  0
 35 68  1  0  0  0  0
 35 73  2  0  0  0  0
 36 37  1  0  0  0  0
 36 79  1  0  0  0  0
 37 61  1  0  0  0  0
 37 74  2  0  0  0  0
 38 52  1  0  0  0  0
 38 70  1  0  0  0  0
 38 75  2  0  0  0  0
 39 59  1  0  0  0  0
 39 65  1  0  0  0  0
 39 76  2  0  0  0  0
 40 60  1  0  0  0  0
 40 71  1  0  0  0  0
 40 77  2  0  0  0  0
 41 66  1  0  0  0  0
 41 69  1  0  0  0  0
 41 78  2  0  0  0  0
 42 45  1  0  0  0  0
 43 52  1  0  0  0  0
 44 65  1  0  0  0  0
 45 47  1  0  0  0  0
 46 48  1  0  0  0  0
 46 49  1  0  0  0  0
 47 51  1  0  0  0  0
 48 53  1  0  0  0  0
 49 66  1  0  0  0  0
 50 53  1  0  0  0  0
 50 66  1  0  0  0  0
 51 70  1  0  0  0  0
 52 65  1  0  0  0  0
 53 64  1  0  0  0  0
 54 60  1  0  0  0  0
 55 62  1  0  0  0  0
 56 62  1  0  0  0  0
 57 62  1  0  0  0  0
 58 72  1  0  0  0  0
 59 62  1  0  0  0  0
 59 71  1  0  0  0  0
 60 72  1  0  0  0  0
 61 86  1  0  0  0  0
 61 87  1  0  0  0  0
 63 64  1  0  0  0  0
M  CHG  1  72   1
M  ISO  4  34 101  41 100  69 100  81 101
M  END
> <Batch ID>
0172

> <Smiles>
CNC(C)C(=O)NC(C(=O)N1Cc2cc([101O:1][101CH2:1]C(=O)C(=O)C(F)(F)c3ccc(F)c([100NH:0][100C:0](=O)N4CCCC(n5nc(-c6ccc(Oc7ccc(F)cc7F)cc6)c(C(N)=O)c5N)C4)c3F)ccc2CC1C(=O)NC1CCCc2ccccc21)C(C)(C)C

> <Shape>
0.315

> <Color>
0.205

> <Negative vol penalty>
0.000

$$$$

  -OEChem-04052304263D

 87 95  0     1  0  0  0  0  0999 V2000
  -30.2735  -30.8231   25.7983 C   0  0  0  0  0  0  0  0  0  0  0  0
  -29.7931  -29.8238   24.9580 C   0  0  0  0  0  0  0  0  0  0  0  0
  -23.9772   -9.6009   21.7128 C   0  0  0  0  0  0  0  0  0  0  0  0
  -23.5489  -10.4760   19.5020 C   0  0  0  0  0  0  0  0  0  0  0  0
  -29.3800  -31.6386   26.4915 C   0  0  0  0  0  0  0  0  0  0  0  0
  -28.4188  -29.6388   24.8112 C   0  0  0  0  0  0  0  0  0  0  0  0
  -27.0497  -29.0024   19.9774 C   0  0  0  0  0  0  0  0  0  0  0  0
  -22.6192   -9.3219   21.8655 C   0  0  0  0  0  0  0  0  0  0  0  0
  -22.1908  -10.1969   19.6546 C   0  0  0  0  0  0  0  0  0  0  0  0
  -27.2717  -27.7472   19.4127 C   0  0  0  0  0  0  0  0  0  0  0  0
  -20.4360   -6.9446   20.8578 C   0  0  0  0  0  0  0  0  0  0  0  0
  -20.0849   -5.7027   21.3870 C   0  0  0  0  0  0  0  0  0  0  0  0
  -27.5832  -16.9211   16.6126 C   0  0  0  0  0  0  0  0  0  0  0  0
  -24.9506  -27.1881   19.7578 C   0  0  0  0  0  0  0  0  0  0  0  0
  -28.4055  -18.5121   18.2342 C   0  0  0  0  0  0  0  0  0  0  0  0
  -18.9656   -6.8020   23.2243 C   0  0  0  0  0  0  0  0  0  0  0  0
  -24.4421  -10.1781   20.5311 C   0  0  0  0  0  0  0  0  0  0  0  0
  -27.2409  -17.9689   15.7580 C   0  0  0  0  0  0  0  0  0  0  0  0
  -26.8338   -9.6161   19.8443 C   0  0  0  0  0  0  0  0  0  0  0  0
  -27.9940  -31.4698   26.3456 C   0  0  0  0  0  0  0  0  0  0  0  0
  -25.7768  -29.3565   20.4472 C   0  0  0  0  0  0  0  0  0  0  0  0
  -27.5059  -30.4520   25.5041 C   0  0  0  0  0  0  0  0  0  0  0  0
  -24.7145  -28.4494   20.3257 C   0  0  0  0  0  0  0  0  0  0  0  0
  -28.1655  -17.1927   17.8507 C   0  0  0  0  0  0  0  0  0  0  0  0
  -28.0632  -19.5600   17.3795 C   0  0  0  0  0  0  0  0  0  0  0  0
  -27.4809  -19.2884   16.1414 C   0  0  0  0  0  0  0  0  0  0  0  0
  -21.7259   -9.6198   20.8364 C   0  0  0  0  0  0  0  0  0  0  0  0
  -26.2228  -26.8387   19.3055 C   0  0  0  0  0  0  0  0  0  0  0  0
  -20.0520   -8.1152   21.5119 C   0  0  0  0  0  0  0  0  0  0  0  0
  -19.3497   -5.6314   22.5702 C   0  0  0  0  0  0  0  0  0  0  0  0
  -19.3168   -8.0440   22.6951 C   0  0  0  0  0  0  0  0  0  0  0  0
  -25.8448  -10.4671   20.3730 C   0  0  0  0  0  0  0  0  0  0  0  0
  -27.9915  -10.3523   19.9106 C   0  0  0  0  0  0  0  0  0  0  0  0
  -26.6347  -17.6490   14.4713 C   0  0  0  0  0  0  0  0  0  0  0  0
  -26.7166   -8.2797   19.3385 C   0  0  0  0  0  0  0  0  0  0  0  0
  -24.5709  -30.1456   23.2804 C   0  0  0  0  0  0  0  0  0  0  0  0
  -27.6740  -23.5373   18.9230 C   0  0  0  0  0  0  0  0  0  0  0  0
  -21.8940  -30.7277   21.5433 C   0  0  0  0  0  0  0  0  0  0  0  0
  -28.8933  -21.3092   18.9841 C   0  0  0  0  0  0  0  0  0  0  0  0
  -20.0831  -30.1111   18.7171 C   0  0  0  0  0  0  0  0  0  0  0  0
  -29.0964  -16.2242   19.9819 C   0  0  0  0  0  0  0  0  0  0  0  0
  -27.0673  -32.3448   27.1520 C   0  0  0  0  0  0  0  0  0  0  0  0
  -25.5476  -30.7243   21.0294 C   0  0  0  0  0  0  0  0  0  0  0  0
  -23.3245  -28.7883   20.7963 C   0  0  0  0  0  0  0  0  0  0  0  0
  -25.6251  -32.3279   26.6520 C   0  0  0  0  0  0  0  0  0  0  0  0
  -30.0686  -13.8444   22.4453 C   0  0  0  0  0  0  0  0  0  0  0  0
  -25.1681  -30.8966   26.3887 C   0  0  0  0  0  0  0  0  0  0  0  0
  -29.1901  -12.6286   22.1415 C   0  0  0  0  0  0  0  0  0  0  0  0
  -29.3208  -15.1564   22.2145 C   0  0  0  0  0  0  0  0  0  0  0  0
  -27.8191  -14.0755   20.5879 C   0  0  0  0  0  0  0  0  0  0  0  0
  -26.0221  -30.2364   25.2995 C   0  0  1  0  0  0  0  0  0  0  0  0
  -24.3282  -30.7878   21.9439 C   0  0  1  0  0  0  0  0  0  0  0  0
  -28.5494  -12.7316   20.7435 C   0  0  2  0  0  0  0  0  0  0  0  0
  -17.9175  -30.7043   17.5966 C   0  0  0  0  0  0  0  0  0  0  0  0
  -20.3994  -28.8850   23.4618 C   0  0  0  0  0  0  0  0  0  0  0  0
  -18.5433  -28.7608   21.7862 C   0  0  0  0  0  0  0  0  0  0  0  0
  -19.1491  -30.9517   22.8137 C   0  0  0  0  0  0  0  0  0  0  0  0
  -21.4772  -31.2822   16.3839 C   0  0  0  0  0  0  0  0  0  0  0  0
  -29.0002  -22.8198   19.0662 C   0  0  0  0  0  0  0  0  0  0  0  0
  -27.7400  -25.0512   18.9071 C   0  0  0  0  0  0  0  0  0  1  0  0
  -20.7010  -29.9097   21.1113 C   0  0  1  0  0  0  0  0  0  0  0  0
  -19.3928  -31.0449   17.7394 C   0  0  2  0  0  0  0  0  0  0  0  0
  -19.7247  -29.6194   22.2860 C   0  0  0  0  0  0  0  0  0  0  0  0
  -26.3317  -11.6532   20.7476 N   0  0  0  0  0  0  0  0  0  0  0  0
  -26.3959  -16.4352   14.0780 N   0  0  0  0  0  0  0  0  0  0  0  0
  -27.6393  -11.5527   20.4540 N   0  0  0  0  0  0  0  0  0  0  0  0
  -23.1523  -30.1358   21.3641 N   0  0  0  0  0  0  0  0  0  0  0  0
  -28.7445  -15.1845   20.8684 N   0  0  0  0  0  0  0  0  0  0  0  0
  -27.1333  -20.3508   15.2731 N   0  0  0  0  0  0  0  0  0  0  0  0
  -29.2661  -10.0835   19.5565 N   0  0  0  0  0  0  0  0  0  0  0  0
  -25.4537   -7.6718   19.3434 N   0  0  0  0  0  0  0  0  0  0  0  0
  -28.3167  -20.8901   17.7924 N   0  0  0  0  0  0  0  0  0  0  0  0
  -28.5118  -16.1282   18.7195 N   0  0  0  0  0  0  0  0  0  0  0  0
  -25.6185  -30.7013   23.9897 N   0  0  0  0  0  0  0  0  0  0  0  0
  -20.0959  -30.6284   19.9952 N   0  0  0  0  0  0  0  0  0  0  0  0
  -20.0293  -30.9501   16.3952 N   0  3  0  0  0  0  0  0  0  0  0  0
  -27.7054   -7.6373   18.9106 O   0  0  0  0  0  0  0  0  0  0  0  0
  -23.8594  -29.2157   23.6420 O   0  0  0  0  0  0  0  0  0  0  0  0
  -26.6072  -22.9314   18.8325 O   0  0  0  0  0  0  0  0  0  0  0  0
  -21.7164  -31.8533   22.0156 O   0  0  0  0  0  0  0  0  0  0  0  0
  -29.3193  -20.6085   19.8985 O   0  0  0  0  0  0  0  0  0  0  0  0
  -20.5599  -29.0292   18.3814 O   0  0  0  0  0  0  0  0  0  0  0  0
  -29.8815  -17.1179   20.3089 O   0  0  0  0  0  0  0  0  0  0  0  0
  -20.4007   -9.3474   20.9849 O   0  0  0  0  0  0  0  0  0  0  0  0
  -26.4369  -25.6126   18.7553 O   0  0  0  0  0  0  0  0  0  1  0  0
  -19.0113   -4.4388   23.0774 F   0  0  0  0  0  0  0  0  0  0  0  0
  -18.9440   -9.1651   23.3274 F   0  0  0  0  0  0  0  0  0  0  0  0
  1  2  1  0  0  0  0
  1  5  2  0  0  0  0
  2  6  2  0  0  0  0
  3  8  2  0  0  0  0
  3 17  1  0  0  0  0
  4  9  1  0  0  0  0
  4 17  2  0  0  0  0
  5 20  1  0  0  0  0
  6 22  1  0  0  0  0
  7 10  2  0  0  0  0
  7 21  1  0  0  0  0
  8 27  1  0  0  0  0
  9 27  2  0  0  0  0
 10 28  1  0  0  0  0
 11 12  2  0  0  0  0
 11 29  1  0  0  0  0
 12 30  1  0  0  0  0
 13 18  2  0  0  0  0
 13 24  1  0  0  0  0
 14 23  1  0  0  0  0
 14 28  2  0  0  0  0
 15 24  2  0  0  0  0
 15 25  1  0  0  0  0
 16 30  2  0  0  0  0
 16 31  1  0  0  0  0
 17 32  1  0  0  0  0
 18 26  1  0  0  0  0
 18 34  1  0  0  0  0
 19 32  1  0  0  0  0
 19 33  2  0  0  0  0
 19 35  1  0  0  0  0
 20 22  2  0  0  0  0
 20 42  1  0  0  0  0
 21 23  2  0  0  0  0
 21 43  1  0  0  0  0
 22 51  1  0  0  0  0
 23 44  1  0  0  0  0
 24 73  1  0  0  0  0
 25 26  2  0  0  0  0
 25 72  1  0  0  0  0
 26 69  1  0  0  0  0
 27 84  1  0  0  0  0
 28 85  1  0  0  0  0
 29 31  2  0  0  0  0
 29 84  1  0  0  0  0
 30 86  1  0  0  0  0
 31 87  1  0  0  0  0
 32 64  2  0  0  0  0
 33 66  1  0  0  0  0
 33 70  1  0  0  0  0
 34 65  2  0  0  0  0
 35 71  1  0  0  0  0
 35 77  2  0  0  0  0
 36 52  1  0  0  0  0
 36 74  1  0  0  0  0
 36 78  2  0  0  0  0
 37 59  1  0  0  0  0
 37 60  1  0  0  0  0
 37 79  2  0  0  0  0
 38 61  1  0  0  0  0
 38 67  1  0  0  0  0
 38 80  2  0  0  0  0
 39 59  1  0  0  0  0
 39 72  1  0  0  0  0
 39 81  2  0  0  0  0
 40 62  1  0  0  0  0
 40 75  1  0  0  0  0
 40 82  2  0  0  0  0
 41 68  1  0  0  0  0
 41 73  1  0  0  0  0
 41 83  2  0  0  0  0
 42 45  1  0  0  0  0
 43 52  1  0  0  0  0
 44 67  1  0  0  0  0
 45 47  1  0  0  0  0
 46 48  1  0  0  0  0
 46 49  1  0  0  0  0
 47 51  1  0  0  0  0
 48 53  1  0  0  0  0
 49 68  1  0  0  0  0
 50 53  1  0  0  0  0
 50 68  1  0  0  0  0
 51 74  1  0  0  0  0
 52 67  1  0  0  0  0
 53 66  1  0  0  0  0
 54 62  1  0  0  0  0
 55 63  1  0  0  0  0
 56 63  1  0  0  0  0
 57 63  1  0  0  0  0
 58 76  1  0  0  0  0
 60 85  1  0  0  0  0
 61 63  1  0  0  0  0
 61 75  1  0  0  0  0
 62 76  1  0  0  0  0
 64 66  1  0  0  0  0
M  CHG  1  76   1
M  ISO  4  41 100  60 101  73 100  85 101
M  END
> <Batch ID>
0172

> <Smiles>
CNC(C)C(=O)NC(C(=O)N1Cc2cc([101O:1][101CH2:1]C(=O)CC(=O)Nc3cc([100NH:0][100C:0](=O)N4CCCC(n5nc(-c6ccc(Oc7ccc(F)cc7F)cc6)c(C(N)=O)c5N)C4)cc(C=N)c3N)ccc2CC1C(=O)NC1CCCc2ccccc21)C(C)(C)C

> <Shape>
0.256

> <Color>
0.090

> <Negative vol penalty>
0.000

$$$$

  -OEChem-04052304263D

 90 99  0     1  0  0  0  0  0999 V2000
  -20.1275  -28.5757   27.1076 C   0  0  0  0  0  0  0  0  0  0  0  0
  -21.3556  -28.1508   26.6109 C   0  0  0  0  0  0  0  0  0  0  0  0
  -25.1268   -9.8266   21.4859 C   0  0  0  0  0  0  0  0  0  0  0  0
  -25.0180  -10.8880   23.6536 C   0  0  0  0  0  0  0  0  0  0  0  0
  -19.0755  -28.8383   26.2312 C   0  0  0  0  0  0  0  0  0  0  0  0
  -21.5319  -27.9871   25.2374 C   0  0  0  0  0  0  0  0  0  0  0  0
  -26.6410  -29.0435   22.0299 C   0  0  0  0  0  0  0  0  0  0  0  0
  -24.8771   -8.5892   22.0792 C   0  0  0  0  0  0  0  0  0  0  0  0
  -24.7683   -9.6505   24.2469 C   0  0  0  0  0  0  0  0  0  0  0  0
  -27.6465  -28.1985   21.5622 C   0  0  0  0  0  0  0  0  0  0  0  0
  -22.1395   -7.5636   24.6401 C   0  0  0  0  0  0  0  0  0  0  0  0
  -21.1249   -7.4974   25.5950 C   0  0  0  0  0  0  0  0  0  0  0  0
  -26.5431  -28.0810   19.4203 C   0  0  0  0  0  0  0  0  0  0  0  0
  -27.0183  -22.1899   19.8123 C   0  0  0  0  0  0  0  0  0  0  0  0
  -28.6451  -20.4159   20.0201 C   0  0  0  0  0  0  0  0  0  0  0  0
  -22.7266   -6.7577   27.2456 C   0  0  0  0  0  0  0  0  0  0  0  0
  -25.1973  -10.9760   22.2731 C   0  0  0  0  0  0  0  0  0  0  0  0
  -26.5821  -20.3159   21.2735 C   0  0  0  0  0  0  0  0  0  0  0  0
  -24.5054  -13.1677   21.1662 C   0  0  0  0  0  0  0  0  0  0  0  0
  -19.2419  -28.6871   24.8455 C   0  0  0  0  0  0  0  0  0  0  0  0
  -25.5715  -29.4055   21.1983 C   0  0  0  0  0  0  0  0  0  0  0  0
  -20.4807  -28.2466   24.3417 C   0  0  0  0  0  0  0  0  0  0  0  0
  -25.5267  -28.9328   19.8790 C   0  0  0  0  0  0  0  0  0  0  0  0
  -28.2482  -21.6319   19.4638 C   0  0  0  0  0  0  0  0  0  0  0  0
  -26.1852  -21.5319   20.7173 C   0  0  0  0  0  0  0  0  0  0  0  0
  -27.8120  -19.7578   20.9249 C   0  0  0  0  0  0  0  0  0  0  0  0
  -24.6979   -8.5011   23.4597 C   0  0  0  0  0  0  0  0  0  0  0  0
  -27.5961  -27.7148   20.2582 C   0  0  0  0  0  0  0  0  0  0  0  0
  -23.4477   -7.2268   24.9879 C   0  0  0  0  0  0  0  0  0  0  0  0
  -21.4185   -7.0944   26.8977 C   0  0  0  0  0  0  0  0  0  0  0  0
  -23.7413   -6.8239   26.2907 C   0  0  0  0  0  0  0  0  0  0  0  0
  -25.4557  -12.2545   21.6608 C   0  0  0  0  0  0  0  0  0  0  0  0
  -25.2529  -14.2173   20.6907 C   0  0  0  0  0  0  0  0  0  0  0  0
  -30.3683  -21.8678   18.0935 C   0  0  0  0  0  0  0  0  0  0  0  0
  -25.7091  -19.6267   22.2210 C   0  0  0  0  0  0  0  0  0  0  0  0
  -23.0748  -13.0756   21.1390 C   0  0  0  0  0  0  0  0  0  0  0  0
  -29.0510  -24.6839   18.9252 C   0  0  0  0  0  0  0  0  0  0  0  0
  -22.4213  -28.9905   21.2865 C   0  0  0  0  0  0  0  0  0  0  0  0
  -22.4861  -30.9182   18.6784 C   0  0  0  0  0  0  0  0  0  0  0  0
  -24.2521  -32.1549   16.0330 C   0  0  0  0  0  0  0  0  0  0  0  0
  -29.4350  -17.8545   21.2240 C   0  0  0  0  0  0  0  0  0  0  0  0
  -18.0614  -28.9374   23.9409 C   0  0  0  0  0  0  0  0  0  0  0  0
  -24.5089  -30.3393   21.7094 C   0  0  0  0  0  0  0  0  0  0  0  0
  -24.4107  -29.3079   18.9397 C   0  0  0  0  0  0  0  0  0  0  0  0
  -30.9039  -22.9068   17.1364 C   0  0  0  0  0  0  0  0  0  0  0  0
  -18.4432  -29.0996   22.4719 C   0  0  0  0  0  0  0  0  0  0  0  0
  -29.6744  -23.7040   16.7371 C   0  0  0  0  0  0  0  0  0  0  0  0
  -30.2410  -14.6339   19.9373 C   0  0  0  0  0  0  0  0  0  0  0  0
  -19.4168  -28.0039   22.0493 C   0  0  0  0  0  0  0  0  0  0  0  0
  -28.9897  -13.8029   20.2303 C   0  0  0  0  0  0  0  0  0  0  0  0
  -30.5338  -15.6320   21.0562 C   0  0  0  0  0  0  0  0  0  0  0  0
  -28.1593  -15.6748   21.7113 C   0  0  0  0  0  0  0  0  0  0  0  0
  -20.7184  -28.0812   22.8563 C   0  0  1  0  0  0  0  0  0  0  0  0
  -28.7589  -23.5876   17.9425 C   0  0  1  0  0  0  0  0  0  0  0  0
  -23.1965  -30.2299   20.9392 C   0  0  1  0  0  0  0  0  0  0  0  0
  -27.7869  -14.7002   20.5821 C   0  0  2  0  0  0  0  0  0  0  0  0
  -25.8786  -19.9527   23.6732 C   0  0  0  0  0  0  0  0  0  0  0  0
  -24.0258  -33.6818   14.0545 C   0  0  0  0  0  0  0  0  0  0  0  0
  -20.8915  -28.7723   17.2078 C   0  0  0  0  0  0  0  0  0  0  0  0
  -21.5121  -29.8864   15.0533 C   0  0  0  0  0  0  0  0  0  0  0  0
  -20.1563  -31.1178   16.7469 C   0  0  0  0  0  0  0  0  0  0  0  0
  -26.3820  -33.9519   17.0295 C   0  0  0  0  0  0  0  0  0  0  0  0
  -28.2082  -25.9355   18.8037 C   0  0  0  0  0  0  0  0  0  1  0  0
  -22.6100  -30.6991   17.1899 C   0  0  1  0  0  0  0  0  0  0  0  0
  -24.4323  -33.5707   15.5157 C   0  0  2  0  0  0  0  0  0  0  0  0
  -21.3126  -30.1101   16.5676 C   0  0  0  0  0  0  0  0  0  0  0  0
  -26.7111  -12.6859   21.5131 N   0  0  0  0  0  0  0  0  0  0  0  0
  -26.5548  -13.8818   20.9202 N   0  0  0  0  0  0  0  0  0  0  0  0
  -29.1043  -22.3087   18.5369 N   0  0  0  0  0  0  0  0  0  0  0  0
  -23.3921  -30.2185   19.4880 N   0  0  0  0  0  0  0  0  0  0  0  0
  -29.3508  -16.4502   21.3319 N   0  0  0  0  0  0  0  0  0  0  0  0
  -24.9437  -22.1164   21.0548 N   0  0  0  0  0  0  0  0  0  0  0  0
  -24.9170  -15.3852   20.1028 N   0  0  0  0  0  0  0  0  0  0  0  0
  -22.4690  -11.9285   21.6695 N   0  0  0  0  0  0  0  0  0  0  0  0
  -28.2389  -18.5249   21.4777 N   0  0  0  0  0  0  0  0  0  0  0  0
  -21.5606  -29.1466   22.3563 N   0  0  0  0  0  0  0  0  0  0  0  0
  -23.0175  -31.9794   16.6215 N   0  0  0  0  0  0  0  0  0  0  0  0
  -25.8568  -33.9904   15.6404 N   0  3  0  0  0  0  0  0  0  0  0  0
  -31.0094  -20.8728   18.4000 O   0  0  0  0  0  0  0  0  0  0  0  0
  -24.8543  -18.8000   21.9109 O   0  0  0  0  0  0  0  0  0  0  0  0
  -22.3559  -13.9764   20.6437 O   0  0  0  0  0  0  0  0  0  0  0  0
  -29.9294  -24.5607   19.7776 O   0  0  0  0  0  0  0  0  0  0  0  0
  -22.5903  -27.9687   20.6315 O   0  0  0  0  0  0  0  0  0  0  0  0
  -21.6220  -31.6874   19.1066 O   0  0  0  0  0  0  0  0  0  0  0  0
  -25.1184  -31.2901   15.9225 O   0  0  0  0  0  0  0  0  0  0  0  0
  -30.4836  -18.4189   20.9019 O   0  0  0  0  0  0  0  0  0  0  0  0
  -24.4541   -7.2938   24.0390 O   0  0  0  0  0  0  0  0  0  0  0  0
  -28.5759  -26.8893   19.7994 O   0  0  0  0  0  0  0  0  0  1  0  0
  -20.4443   -7.0324   27.8149 F   0  0  0  0  0  0  0  0  0  0  0  0
  -24.9963   -6.5003   26.6311 F   0  0  0  0  0  0  0  0  0  0  0  0
  1  2  1  0  0  0  0
  1  5  2  0  0  0  0
  2  6  2  0  0  0  0
  3  8  2  0  0  0  0
  3 17  1  0  0  0  0
  4  9  1  0  0  0  0
  4 17  2  0  0  0  0
  5 20  1  0  0  0  0
  6 22  1  0  0  0  0
  7 10  2  0  0  0  0
  7 21  1  0  0  0  0
  8 27  1  0  0  0  0
  9 27  2  0  0  0  0
 10 28  1  0  0  0  0
 11 12  2  0  0  0  0
 11 29  1  0  0  0  0
 12 30  1  0  0  0  0
 13 23  1  0  0  0  0
 13 28  2  0  0  0  0
 14 24  1  0  0  0  0
 14 25  2  0  0  0  0
 15 24  2  0  0  0  0
 15 26  1  0  0  0  0
 16 30  2  0  0  0  0
 16 31  1  0  0  0  0
 17 32  1  0  0  0  0
 18 25  1  0  0  0  0
 18 26  2  0  0  0  0
 18 35  1  0  0  0  0
 19 32  1  0  0  0  0
 19 33  2  0  0  0  0
 19 36  1  0  0  0  0
 20 22  2  0  0  0  0
 20 42  1  0  0  0  0
 21 23  2  0  0  0  0
 21 43  1  0  0  0  0
 22 53  1  0  0  0  0
 23 44  1  0  0  0  0
 24 69  1  0  0  0  0
 25 72  1  0  0  0  0
 26 75  1  0  0  0  0
 27 87  1  0  0  0  0
 28 88  1  0  0  0  0
 29 31  2  0  0  0  0
 29 87  1  0  0  0  0
 30 89  1  0  0  0  0
 31 90  1  0  0  0  0
 32 67  2  0  0  0  0
 33 68  1  0  0  0  0
 33 73  1  0  0  0  0
 34 45  1  0  0  0  0
 34 69  1  0  0  0  0
 34 79  2  0  0  0  0
 35 57  1  0  0  0  0
 35 80  2  0  0  0  0
 36 74  1  0  0  0  0
 36 81  2  0  0  0  0
 37 54  1  0  0  0  0
 37 63  1  0  0  0  0
 37 82  2  0  0  0  0
 38 55  1  0  0  0  0
 38 76  1  0  0  0  0
 38 83  2  0  0  0  0
 39 64  1  0  0  0  0
 39 70  1  0  0  0  0
 39 84  2  0  0  0  0
 40 65  1  0  0  0  0
 40 77  1  0  0  0  0
 40 85  2  0  0  0  0
 41 71  1  0  0  0  0
 41 75  1  0  0  0  0
 41 86  2  0  0  0  0
 42 46  1  0  0  0  0
 43 55  1  0  0  0  0
 44 70  1  0  0  0  0
 45 47  1  0  0  0  0
 46 49  1  0  0  0  0
 47 54  1  0  0  0  0
 48 50  1  0  0  0  0
 48 51  1  0  0  0  0
 49 53  1  0  0  0  0
 50 56  1  0  0  0  0
 51 71  1  0  0  0  0
 52 56  1  0  0  0  0
 52 71  1  0  0  0  0
 53 76  1  0  0  0  0
 54 69  1  0  0  0  0
 55 70  1  0  0  0  0
 56 68  1  0  0  0  0
 58 65  1  0  0  0  0
 59 66  1  0  0  0  0
 60 66  1  0  0  0  0
 61 66  1  0  0  0  0
 62 78  1  0  0  0  0
 63 88  1  0  0  0  0
 64 66  1  0  0  0  0
 64 77  1  0  0  0  0
 65 78  1  0  0  0  0
 67 68  1  0  0  0  0
M  CHG  1  78   1
M  ISO  4  41 100  63 101  75 100  88 101
M  END
> <Batch ID>
0172

> <Smiles>
CNC(C)C(=O)NC(C(=O)N1Cc2cc([101O:1][101CH2:1]C(=O)C3CCC(=O)N3c3cc(N)c(C(C)=O)c([100NH:0][100C:0](=O)N4CCCC(n5nc(-c6ccc(Oc7ccc(F)cc7F)cc6)c(C(N)=O)c5N)C4)c3)ccc2CC1C(=O)NC1CCCc2ccccc21)C(C)(C)C

> <Shape>
0.272

> <Color>
0.123

> <Negative vol penalty>
0.000

$$$$

  -OEChem-04052304263D

 85 93  0     1  0  0  0  0  0999 V2000
  -29.7267  -35.8796   20.7607 C   0  0  0  0  0  0  0  0  0  0  0  0
  -29.7588  -34.4905   20.8302 C   0  0  0  0  0  0  0  0  0  0  0  0
  -24.8092   -8.8166   21.1649 C   0  0  0  0  0  0  0  0  0  0  0  0
  -23.1100  -10.1644   20.1005 C   0  0  0  0  0  0  0  0  0  0  0  0
  -28.7379  -36.5878   21.4422 C   0  0  0  0  0  0  0  0  0  0  0  0
  -28.8026  -33.8089   21.5822 C   0  0  0  0  0  0  0  0  0  0  0  0
  -26.9201  -29.7880   19.1462 C   0  0  0  0  0  0  0  0  0  0  0  0
  -23.8305   -7.9181   21.5897 C   0  0  0  0  0  0  0  0  0  0  0  0
  -22.1312   -9.2660   20.5253 C   0  0  0  0  0  0  0  0  0  0  0  0
  -27.7060  -28.6369   19.1154 C   0  0  0  0  0  0  0  0  0  0  0  0
  -22.0229   -5.3902   20.2575 C   0  0  0  0  0  0  0  0  0  0  0  0
  -22.2808   -4.0285   20.1002 C   0  0  0  0  0  0  0  0  0  0  0  0
  -26.3937  -27.7002   20.9097 C   0  0  0  0  0  0  0  0  0  0  0  0
  -27.5609  -20.2006   15.6801 C   0  0  0  0  0  0  0  0  0  0  0  0
  -27.6725  -17.8534   16.2415 C   0  0  0  0  0  0  0  0  0  0  0  0
  -27.7144  -19.5175   17.9925 C   0  0  0  0  0  0  0  0  0  0  0  0
  -22.0789   -3.7145   22.4872 C   0  0  0  0  0  0  0  0  0  0  0  0
  -24.4490   -9.9398   20.4203 C   0  0  0  0  0  0  0  0  0  0  0  0
  -26.1838  -10.8295   18.7752 C   0  0  0  0  0  0  0  0  0  0  0  0
  -27.7633  -35.9140   22.1951 C   0  0  0  0  0  0  0  0  0  0  0  0
  -25.8702  -29.9086   20.0680 C   0  0  0  0  0  0  0  0  0  0  0  0
  -27.8006  -34.5088   22.2755 C   0  0  0  0  0  0  0  0  0  0  0  0
  -25.5943  -28.8528   20.9485 C   0  0  0  0  0  0  0  0  0  0  0  0
  -27.5842  -18.8635   15.2836 C   0  0  0  0  0  0  0  0  0  0  0  0
  -27.6261  -20.5276   17.0346 C   0  0  0  0  0  0  0  0  0  0  0  0
  -27.7376  -18.1804   17.5960 C   0  0  0  0  0  0  0  0  0  0  0  0
  -22.4916   -8.1428   21.2699 C   0  0  0  0  0  0  0  0  0  0  0  0
  -27.4446  -27.5939   19.9991 C   0  0  0  0  0  0  0  0  0  0  0  0
  -21.7930   -5.9141   21.5297 C   0  0  0  0  0  0  0  0  0  0  0  0
  -22.3088   -3.1906   21.2150 C   0  0  0  0  0  0  0  0  0  0  0  0
  -21.8210   -5.0763   22.6445 C   0  0  0  0  0  0  0  0  0  0  0  0
  -25.4594  -10.8686   19.9817 C   0  0  0  0  0  0  0  0  0  0  0  0
  -27.0120  -11.9235   18.8364 C   0  0  0  0  0  0  0  0  0  0  0  0
  -26.1142   -9.8885   17.6957 C   0  0  0  0  0  0  0  0  0  0  0  0
  -27.6127  -23.8664   18.7695 C   0  0  0  0  0  0  0  0  0  0  0  0
  -27.6652  -22.3665   18.7256 C   0  0  0  0  0  0  0  0  0  0  0  0
  -25.2133  -31.8784   22.4747 C   0  0  0  0  0  0  0  0  0  0  0  0
  -22.4036  -30.2579   22.5213 C   0  0  0  0  0  0  0  0  0  0  0  0
  -20.6938  -27.4014   21.7707 C   0  0  0  0  0  0  0  0  0  0  0  0
  -27.8975  -17.3060   19.9531 C   0  0  0  0  0  0  0  0  0  0  0  0
  -26.7424  -36.7251   22.9531 C   0  0  0  0  0  0  0  0  0  0  0  0
  -25.0149  -31.1459   20.0705 C   0  0  0  0  0  0  0  0  0  0  0  0
  -24.4660  -28.9244   21.9436 C   0  0  0  0  0  0  0  0  0  0  0  0
  -25.5420  -35.9075   23.4232 C   0  0  0  0  0  0  0  0  0  0  0  0
  -28.0860  -15.0307   22.6852 C   0  0  0  0  0  0  0  0  0  0  0  0
  -26.0032  -34.6034   24.0661 C   0  0  0  0  0  0  0  0  0  0  0  0
  -27.4791  -13.7418   22.1262 C   0  0  0  0  0  0  0  0  0  0  0  0
  -27.3731  -16.2716   22.1508 C   0  0  0  0  0  0  0  0  0  0  0  0
  -26.6618  -15.0571   20.1289 C   0  0  0  0  0  0  0  0  0  0  0  0
  -26.7660  -33.7322   23.0607 C   0  0  1  0  0  0  0  0  0  0  0  0
  -24.2964  -31.3729   21.3970 C   0  0  1  0  0  0  0  0  0  0  0  0
  -27.3885  -13.7825   20.5881 C   0  0  2  0  0  0  0  0  0  0  0  0
  -18.4195  -26.3584   21.9640 C   0  0  0  0  0  0  0  0  0  0  0  0
  -22.8978  -29.7359   25.4866 C   0  0  0  0  0  0  0  0  0  0  0  0
  -21.1500  -27.9458   25.3913 C   0  0  0  0  0  0  0  0  0  0  0  0
  -20.5344  -30.3146   24.9090 C   0  0  0  0  0  0  0  0  0  0  0  0
  -20.4266  -27.1613   18.8330 C   0  0  0  0  0  0  0  0  0  0  0  0
  -28.9376  -24.5883   18.6576 C   0  0  0  0  0  0  0  0  0  0  0  0
  -28.7768  -26.0999   18.7149 C   0  0  0  0  0  0  0  0  0  1  0  0
  -21.8956  -29.0187   23.2179 C   0  0  1  0  0  0  0  0  0  0  0  0
  -19.3557  -27.1779   21.0895 C   0  0  2  0  0  0  0  0  0  0  0  0
  -21.6420  -29.2529   24.7339 C   0  0  0  0  0  0  0  0  0  0  0  0
  -25.7979  -11.9052   20.7530 N   0  0  0  0  0  0  0  0  0  0  0  0
  -26.7441  -12.5276   20.0295 N   0  0  0  0  0  0  0  0  0  0  0  0
  -23.6622  -30.1574   21.9115 N   0  0  0  0  0  0  0  0  0  0  0  0
  -27.3292  -16.2436   20.6872 N   0  0  0  0  0  0  0  0  0  0  0  0
  -27.5183  -18.5327   13.9138 N   0  0  0  0  0  0  0  0  0  0  0  0
  -27.9361  -12.4179   17.9855 N   0  0  0  0  0  0  0  0  0  0  0  0
  -25.2084   -8.8236   17.7950 N   0  0  0  0  0  0  0  0  0  0  0  0
  -27.6015  -21.8835   17.4363 N   0  0  0  0  0  0  0  0  0  0  0  0
  -27.8251  -17.1540   18.5688 N   0  0  0  0  0  0  0  0  0  0  0  0
  -25.8432  -33.0686   22.1648 N   0  0  0  0  0  0  0  0  0  0  0  0
  -20.7169  -28.5868   22.4746 N   0  0  0  0  0  0  0  0  0  0  0  0
  -19.5453  -26.4565   19.7993 N   0  3  0  0  0  0  0  0  0  0  0  0
  -26.8456   -9.9797   16.6807 O   0  0  0  0  0  0  0  0  0  0  0  0
  -26.5120  -24.3847   18.8799 O   0  0  0  0  0  0  0  0  0  0  0  0
  -27.7798  -21.7924   19.7956 O   0  0  0  0  0  0  0  0  0  0  0  0
  -25.3388  -31.2369   23.5112 O   0  0  0  0  0  0  0  0  0  0  0  0
  -21.7063  -31.2754   22.5122 O   0  0  0  0  0  0  0  0  0  0  0  0
  -21.6241  -26.6024   21.6898 O   0  0  0  0  0  0  0  0  0  0  0  0
  -28.4349  -18.2660   20.5113 O   0  0  0  0  0  0  0  0  0  0  0  0
  -21.5363   -7.2661   21.6841 O   0  0  0  0  0  0  0  0  0  0  0  0
  -28.2106  -26.4694   19.9715 O   0  0  0  0  0  0  0  0  0  1  0  0
  -22.5550   -1.8827   21.0636 F   0  0  0  0  0  0  0  0  0  0  0  0
  -21.5997   -5.5736   23.8690 F   0  0  0  0  0  0  0  0  0  0  0  0
  1  2  1  0  0  0  0
  1  5  2  0  0  0  0
  2  6  2  0  0  0  0
  3  8  2  0  0  0  0
  3 18  1  0  0  0  0
  4  9  1  0  0  0  0
  4 18  2  0  0  0  0
  5 20  1  0  0  0  0
  6 22  1  0  0  0  0
  7 10  2  0  0  0  0
  7 21  1  0  0  0  0
  8 27  1  0  0  0  0
  9 27  2  0  0  0  0
 10 28  1  0  0  0  0
 11 12  2  0  0  0  0
 11 29  1  0  0  0  0
 12 30  1  0  0  0  0
 13 23  1  0  0  0  0
 13 28  2  0  0  0  0
 14 24  2  0  0  0  0
 14 25  1  0  0  0  0
 15 24  1  0  0  0  0
 15 26  2  0  0  0  0
 16 25  2  0  0  0  0
 16 26  1  0  0  0  0
 17 30  2  0  0  0  0
 17 31  1  0  0  0  0
 18 32  1  0  0  0  0
 19 32  1  0  0  0  0
 19 33  2  0  0  0  0
 19 34  1  0  0  0  0
 20 22  2  0  0  0  0
 20 41  1  0  0  0  0
 21 23  2  0  0  0  0
 21 42  1  0  0  0  0
 22 50  1  0  0  0  0
 23 43  1  0  0  0  0
 24 67  1  0  0  0  0
 25 70  1  0  0  0  0
 26 71  1  0  0  0  0
 27 82  1  0  0  0  0
 28 83  1  0  0  0  0
 29 31  2  0  0  0  0
 29 82  1  0  0  0  0
 30 84  1  0  0  0  0
 31 85  1  0  0  0  0
 32 63  2  0  0  0  0
 33 64  1  0  0  0  0
 33 68  1  0  0  0  0
 34 69  1  0  0  0  0
 34 75  2  0  0  0  0
 35 36  1  0  0  0  0
 35 58  1  0  0  0  0
 35 76  2  0  0  0  0
 36 70  1  0  0  0  0
 36 77  2  0  0  0  0
 37 51  1  0  0  0  0
 37 72  1  0  0  0  0
 37 78  2  0  0  0  0
 38 60  1  0  0  0  0
 38 65  1  0  0  0  0
 38 79  2  0  0  0  0
 39 61  1  0  0  0  0
 39 73  1  0  0  0  0
 39 80  2  0  0  0  0
 40 66  1  0  0  0  0
 40 71  1  0  0  0  0
 40 81  2  0  0  0  0
 41 44  1  0  0  0  0
 42 51  1  0  0  0  0
 43 65  1  0  0  0  0
 44 46  1  0  0  0  0
 45 47  1  0  0  0  0
 45 48  1  0  0  0  0
 46 50  1  0  0  0  0
 47 52  1  0  0  0  0
 48 66  1  0  0  0  0
 49 52  1  0  0  0  0
 49 66  1  0  0  0  0
 50 72  1  0  0  0  0
 51 65  1  0  0  0  0
 52 64  1  0  0  0  0
 53 61  1  0  0  0  0
 54 62  1  0  0  0  0
 55 62  1  0  0  0  0
 56 62  1  0  0  0  0
 57 74  1  0  0  0  0
 58 59  1  0  0  0  0
 59 83  1  0  0  0  0
 60 62  1  0  0  0  0
 60 73  1  0  0  0  0
 61 74  1  0  0  0  0
 63 64  1  0  0  0  0
M  CHG  1  74   1
M  ISO  4  40 100  59 101  71 100  83 101
M  END
> <Batch ID>
0172

> <Smiles>
CNC(C)C(=O)NC(C(=O)N1Cc2cc([101O:1][101CH2:1]CC(=O)C(=O)Nc3cc(N)cc([100NH:0][100C:0](=O)N4CCCC(n5nc(-c6ccc(Oc7ccc(F)cc7F)cc6)c(C(N)=O)c5N)C4)c3)ccc2CC1C(=O)NC1CCCc2ccccc21)C(C)(C)C

> <Shape>
0.297

> <Color>
0.101

> <Negative vol penalty>
0.000

$$$$

  -OEChem-04052304263D

 86 94  0     1  0  0  0  0  0999 V2000
  -14.5540  -22.8118   23.8184 C   0  0  0  0  0  0  0  0  0  0  0  0
  -15.8452  -22.4389   24.1781 C   0  0  0  0  0  0  0  0  0  0  0  0
  -23.0880   -9.9216   19.9011 C   0  0  0  0  0  0  0  0  0  0  0  0
  -23.8301   -9.8620   22.1996 C   0  0  0  0  0  0  0  0  0  0  0  0
  -14.3281  -24.0522   23.2234 C   0  0  0  0  0  0  0  0  0  0  0  0
  -16.9114  -23.3060   23.9418 C   0  0  0  0  0  0  0  0  0  0  0  0
  -21.9007  -24.0384   27.4169 C   0  0  0  0  0  0  0  0  0  0  0  0
  -22.3307   -8.7701   20.1157 C   0  0  0  0  0  0  0  0  0  0  0  0
  -23.0727   -8.7105   22.4142 C   0  0  0  0  0  0  0  0  0  0  0  0
  -23.1940  -23.5267   27.3209 C   0  0  0  0  0  0  0  0  0  0  0  0
  -19.8322   -7.9304   22.9717 C   0  0  0  0  0  0  0  0  0  0  0  0
  -19.0658   -7.8682   24.1354 C   0  0  0  0  0  0  0  0  0  0  0  0
  -28.3652  -19.6194   21.9786 C   0  0  0  0  0  0  0  0  0  0  0  0
  -23.9016  -25.5419   26.1995 C   0  0  0  0  0  0  0  0  0  0  0  0
  -20.2820   -5.8999   24.8311 C   0  0  0  0  0  0  0  0  0  0  0  0
  -23.8377  -10.4676   20.9431 C   0  0  0  0  0  0  0  0  0  0  0  0
  -29.1028  -18.5485   21.3962 C   0  0  0  0  0  0  0  0  0  0  0  0
  -24.2057  -12.9913   20.8906 C   0  0  0  0  0  0  0  0  0  0  0  0
  -15.3908  -24.9389   22.9885 C   0  0  0  0  0  0  0  0  0  0  0  0
  -21.5951  -25.3033   26.8943 C   0  0  0  0  0  0  0  0  0  0  0  0
  -16.6997  -24.5590   23.3418 C   0  0  0  0  0  0  0  0  0  0  0  0
  -22.6042  -26.0685   26.2925 C   0  0  0  0  0  0  0  0  0  0  0  0
  -22.3230   -8.1645   21.3722 C   0  0  0  0  0  0  0  0  0  0  0  0
  -24.1940  -24.2773   26.7096 C   0  0  0  0  0  0  0  0  0  0  0  0
  -20.8234   -6.9773   22.7375 C   0  0  0  0  0  0  0  0  0  0  0  0
  -19.2906   -6.8529   25.0651 C   0  0  0  0  0  0  0  0  0  0  0  0
  -21.0483   -5.9621   23.6673 C   0  0  0  0  0  0  0  0  0  0  0  0
  -24.6207  -11.6567   20.7219 C   0  0  0  0  0  0  0  0  0  0  0  0
  -29.9489  -17.9494   22.3033 C   0  0  0  0  0  0  0  0  0  0  0  0
  -25.3081  -13.7387   20.5550 C   0  0  0  0  0  0  0  0  0  0  0  0
  -28.6756  -19.7980   23.3089 C   0  0  0  0  0  0  0  0  0  0  0  0
  -25.7779  -23.0472   25.5059 C   0  0  0  0  0  0  0  0  0  1  0  0
  -28.9951  -18.1220   20.0247 C   0  0  0  0  0  0  0  0  0  0  0  0
  -22.9372  -13.5092   21.3131 C   0  0  0  0  0  0  0  0  0  0  0  0
  -26.9885  -22.5114   25.3085 C   0  0  0  0  0  0  0  0  0  0  0  0
  -27.2404  -21.7242   24.0574 C   0  0  0  0  0  0  0  0  0  0  0  0
  -19.6442  -26.3828   24.6289 C   0  0  0  0  0  0  0  0  0  0  0  0
  -20.6058  -29.2800   25.7260 C   0  0  0  0  0  0  0  0  0  0  0  0
  -22.9768  -31.1228   27.3476 C   0  0  0  0  0  0  0  0  0  0  0  0
  -30.8001  -14.6966   20.8108 C   0  0  0  0  0  0  0  0  0  0  0  0
  -15.1039  -26.2495   22.2995 C   0  0  0  0  0  0  0  0  0  0  0  0
  -20.2012  -25.8522   27.0297 C   0  0  0  0  0  0  0  0  0  0  0  0
  -22.3325  -27.4405   25.7336 C   0  0  0  0  0  0  0  0  0  0  0  0
  -16.2370  -27.2647   22.4254 C   0  0  0  0  0  0  0  0  0  0  0  0
  -29.6574  -12.3859   18.3550 C   0  0  0  0  0  0  0  0  0  0  0  0
  -17.5796  -26.6060   22.1249 C   0  0  0  0  0  0  0  0  0  0  0  0
  -28.2137  -12.0958   18.7694 C   0  0  0  0  0  0  0  0  0  0  0  0
  -30.5673  -12.5665   19.5680 C   0  0  0  0  0  0  0  0  0  0  0  0
  -28.6622  -13.2811   20.9586 C   0  0  0  0  0  0  0  0  0  0  0  0
  -17.8788  -25.4822   23.1244 C   0  0  1  0  0  0  0  0  0  0  0  0
  -19.8840  -26.9368   26.0048 C   0  0  1  0  0  0  0  0  0  0  0  0
  -27.6956  -13.1467   19.7696 C   0  0  2  0  0  0  0  0  0  0  0  0
  -27.6705  -18.3060   19.3285 C   0  0  0  0  0  0  0  0  0  0  0  0
  -23.5007  -33.4719   28.0577 C   0  0  0  0  0  0  0  0  0  0  0  0
  -21.3626  -29.9770   22.8534 C   0  0  0  0  0  0  0  0  0  0  0  0
  -22.7169  -31.8839   23.7466 C   0  0  0  0  0  0  0  0  0  0  0  0
  -20.2507  -31.8265   24.1174 C   0  0  0  0  0  0  0  0  0  0  0  0
  -23.0139  -30.3726   30.2102 C   0  0  0  0  0  0  0  0  0  0  0  0
  -30.8778  -16.8140   22.1031 C   0  0  0  0  0  0  0  0  0  0  0  0
  -21.7339  -30.2274   25.3961 C   0  0  1  0  0  0  0  0  0  0  0  0
  -22.8676  -32.1492   28.4606 C   0  0  2  0  0  0  0  0  0  0  0  0
  -21.5210  -30.9521   24.0371 C   0  0  0  0  0  0  0  0  0  0  0  0
  -25.8877  -11.5588   20.3108 N   0  0  0  0  0  0  0  0  0  0  0  0
  -26.2784  -12.8413   20.2184 N   0  0  0  0  0  0  0  0  0  0  0  0
  -20.9525  -27.9308   25.8846 N   0  0  0  0  0  0  0  0  0  0  0  0
  -30.0202  -13.5775   20.4760 N   0  0  0  0  0  0  0  0  0  0  0  0
  -25.5324  -15.0694   20.5179 N   0  0  0  0  0  0  0  0  0  0  0  0
  -21.9137  -12.6020   21.6192 N   0  0  0  0  0  0  0  0  0  0  0  0
  -28.1884  -20.7300   24.2567 N   0  0  0  0  0  0  0  0  0  0  0  0
  -18.3298  -26.0332   24.3843 N   0  0  0  0  0  0  0  0  0  0  0  0
  -21.8600  -31.1256   26.5389 N   0  0  0  0  0  0  0  0  0  0  0  0
  -30.2038  -15.6096   21.6720 N   0  0  0  0  0  0  0  0  0  0  0  0
  -23.5517  -31.6557   29.6893 N   0  3  0  0  0  0  0  0  0  0  0  0
  -29.9049  -17.6057   19.3571 O   0  0  0  0  0  0  0  0  0  0  0  0
  -22.7129  -14.7402   21.4003 O   0  0  0  0  0  0  0  0  0  0  0  0
  -26.6432  -21.9843   23.0184 O   0  0  0  0  0  0  0  0  0  0  0  0
  -20.5819  -26.2814   23.8464 O   0  0  0  0  0  0  0  0  0  0  0  0
  -19.4604  -29.7219   25.8457 O   0  0  0  0  0  0  0  0  0  0  0  0
  -23.9565  -30.3941   27.2071 O   0  0  0  0  0  0  0  0  0  0  0  0
  -31.9413  -14.8721   20.3705 O   0  0  0  0  0  0  0  0  0  0  0  0
  -28.0204  -22.6555   26.2135 O   0  0  0  0  0  0  0  0  0  0  0  0
  -21.5840   -7.0410   21.5821 O   0  0  0  0  0  0  0  0  0  0  0  0
  -25.4571  -23.7799   26.6140 O   0  0  0  0  0  0  0  0  0  1  0  0
  -18.5556   -6.7942   26.1834 F   0  0  0  0  0  0  0  0  0  0  0  0
  -22.0000   -5.0444   23.4484 F   0  0  0  0  0  0  0  0  0  0  0  0
  -29.8520  -18.6775   23.8502 S   0  0  0  0  0  0  0  0  0  0  0  0
  1  2  1  0  0  0  0
  1  5  2  0  0  0  0
  2  6  2  0  0  0  0
  3  8  2  0  0  0  0
  3 16  1  0  0  0  0
  4  9  1  0  0  0  0
  4 16  2  0  0  0  0
  5 19  1  0  0  0  0
  6 21  1  0  0  0  0
  7 10  2  0  0  0  0
  7 20  1  0  0  0  0
  8 23  1  0  0  0  0
  9 23  2  0  0  0  0
 10 24  1  0  0  0  0
 11 12  2  0  0  0  0
 11 25  1  0  0  0  0
 12 26  1  0  0  0  0
 13 17  1  0  0  0  0
 13 31  2  0  0  0  0
 14 22  1  0  0  0  0
 14 24  2  0  0  0  0
 15 26  2  0  0  0  0
 15 27  1  0  0  0  0
 16 28  1  0  0  0  0
 17 29  2  0  0  0  0
 17 33  1  0  0  0  0
 18 28  1  0  0  0  0
 18 30  2  0  0  0  0
 18 34  1  0  0  0  0
 19 21  2  0  0  0  0
 19 41  1  0  0  0  0
 20 22  2  0  0  0  0
 20 42  1  0  0  0  0
 21 50  1  0  0  0  0
 22 43  1  0  0  0  0
 23 82  1  0  0  0  0
 24 83  1  0  0  0  0
 25 27  2  0  0  0  0
 25 82  1  0  0  0  0
 26 84  1  0  0  0  0
 27 85  1  0  0  0  0
 28 63  2  0  0  0  0
 29 59  1  0  0  0  0
 29 86  1  0  0  0  0
 30 64  1  0  0  0  0
 30 67  1  0  0  0  0
 31 69  1  0  0  0  0
 31 86  1  0  0  0  0
 32 35  2  0  0  0  0
 32 83  1  0  0  0  0
 33 53  1  0  0  0  0
 33 74  2  0  0  0  0
 34 68  1  0  0  0  0
 34 75  2  0  0  0  0
 35 36  1  0  0  0  0
 35 81  1  0  0  0  0
 36 69  1  0  0  0  0
 36 76  2  0  0  0  0
 37 51  1  0  0  0  0
 37 70  1  0  0  0  0
 37 77  2  0  0  0  0
 38 60  1  0  0  0  0
 38 65  1  0  0  0  0
 38 78  2  0  0  0  0
 39 61  1  0  0  0  0
 39 71  1  0  0  0  0
 39 79  2  0  0  0  0
 40 66  1  0  0  0  0
 40 72  1  0  0  0  0
 40 80  2  0  0  0  0
 41 44  1  0  0  0  0
 42 51  1  0  0  0  0
 43 65  1  0  0  0  0
 44 46  1  0  0  0  0
 45 47  1  0  0  0  0
 45 48  1  0  0  0  0
 46 50  1  0  0  0  0
 47 52  1  0  0  0  0
 48 66  1  0  0  0  0
 49 52  1  0  0  0  0
 49 66  1  0  0  0  0
 50 70  1  0  0  0  0
 51 65  1  0  0  0  0
 52 64  1  0  0  0  0
 54 61  1  0  0  0  0
 55 62  1  0  0  0  0
 56 62  1  0  0  0  0
 57 62  1  0  0  0  0
 58 73  1  0  0  0  0
 59 72  1  0  0  0  0
 60 62  1  0  0  0  0
 60 71  1  0  0  0  0
 61 73  1  0  0  0  0
 63 64  1  0  0  0  0
M  CHG  1  73   1
M  ISO  4  32 101  40 100  72 100  83 101
M  END
> <Batch ID>
0172

> <Smiles>
CNC(C)C(=O)NC(C(=O)N1Cc2cc([101O:1][101CH2:1]C(=O)C(=O)Nc3cc(C(C)=O)c(C[100NH:0][100C:0](=O)N4CCCC(n5nc(-c6ccc(Oc7ccc(F)cc7F)cc6)c(C(N)=O)c5N)C4)s3)ccc2CC1C(=O)NC1CCCc2ccccc21)C(C)(C)C

> <Shape>
0.234

> <Color>
0.195

> <Negative vol penalty>
0.000

$$$$

  -OEChem-04052304263D

 90 98  0     1  0  0  0  0  0999 V2000
  -24.2026  -26.8820   19.8855 C   0  0  0  0  0  0  0  0  0  0  0  0
  -25.4431  -26.5200   19.3702 C   0  0  0  0  0  0  0  0  0  0  0  0
  -23.0673   -9.8925   19.9965 C   0  0  0  0  0  0  0  0  0  0  0  0
  -23.7946   -9.9790   22.2988 C   0  0  0  0  0  0  0  0  0  0  0  0
  -24.1287  -27.6540   21.0441 C   0  0  0  0  0  0  0  0  0  0  0  0
  -26.6106  -26.9308   20.0127 C   0  0  0  0  0  0  0  0  0  0  0  0
  -30.0133  -23.2035   20.4295 C   0  0  0  0  0  0  0  0  0  0  0  0
  -22.3068   -8.7580   20.2793 C   0  0  0  0  0  0  0  0  0  0  0  0
  -23.0340   -8.8445   22.5817 C   0  0  0  0  0  0  0  0  0  0  0  0
  -30.7575  -22.8907   19.2928 C   0  0  0  0  0  0  0  0  0  0  0  0
  -19.7886   -8.1058   23.1669 C   0  0  0  0  0  0  0  0  0  0  0  0
  -19.0147   -8.1191   24.3272 C   0  0  0  0  0  0  0  0  0  0  0  0
  -32.6071  -24.1753   20.1577 C   0  0  0  0  0  0  0  0  0  0  0  0
  -31.6607  -19.4196   22.6059 C   0  0  0  0  0  0  0  0  0  0  0  0
  -31.5610  -17.6017   21.0177 C   0  0  0  0  0  0  0  0  0  0  0  0
  -20.2231   -6.1977   25.1551 C   0  0  0  0  0  0  0  0  0  0  0  0
  -23.8113  -10.5030   21.0062 C   0  0  0  0  0  0  0  0  0  0  0  0
  -24.1839  -13.0178   20.7950 C   0  0  0  0  0  0  0  0  0  0  0  0
  -25.2957  -28.0663   21.7066 C   0  0  0  0  0  0  0  0  0  0  0  0
  -30.5573  -24.0148   21.4355 C   0  0  0  0  0  0  0  0  0  0  0  0
  -26.5522  -27.7102   21.1806 C   0  0  0  0  0  0  0  0  0  0  0  0
  -31.8686  -24.4948   21.3074 C   0  0  0  0  0  0  0  0  0  0  0  0
  -30.7283  -18.7666   23.4120 C   0  0  0  0  0  0  0  0  0  0  0  0
  -30.2123  -17.5311   23.0210 C   0  0  0  0  0  0  0  0  0  0  0  0
  -32.0771  -18.8372   21.4087 C   0  0  0  0  0  0  0  0  0  0  0  0
  -30.6286  -16.9486   21.8238 C   0  0  0  0  0  0  0  0  0  0  0  0
  -22.2901   -8.2340   21.5719 C   0  0  0  0  0  0  0  0  0  0  0  0
  -32.0536  -23.3791   19.1554 C   0  0  0  0  0  0  0  0  0  0  0  0
  -20.7798   -7.1385   23.0006 C   0  0  0  0  0  0  0  0  0  0  0  0
  -19.2320   -7.1650   25.3214 C   0  0  0  0  0  0  0  0  0  0  0  0
  -20.9970   -6.1845   23.9947 C   0  0  0  0  0  0  0  0  0  0  0  0
  -24.5977  -11.6746   20.7145 C   0  0  0  0  0  0  0  0  0  0  0  0
  -25.2897  -13.7408   20.4194 C   0  0  0  0  0  0  0  0  0  0  0  0
  -22.9136  -13.5632   21.1753 C   0  0  0  0  0  0  0  0  0  0  0  0
  -34.5160  -20.0256   18.7977 C   0  0  0  0  0  0  0  0  0  0  0  0
  -33.5298  -19.0583   19.3877 C   0  0  0  0  0  0  0  0  0  0  0  0
  -29.8133  -26.8413   22.6850 C   0  0  0  0  0  0  0  0  0  0  0  0
  -32.2063  -26.1204   24.7529 C   0  0  0  0  0  0  0  0  0  0  0  0
  -35.0656  -24.3648   25.3768 C   0  0  0  0  0  0  0  0  0  0  0  0
  -30.7645  -14.7323   20.6341 C   0  0  0  0  0  0  0  0  0  0  0  0
  -25.1662  -28.9395   22.9295 C   0  0  0  0  0  0  0  0  0  0  0  0
  -29.7511  -24.3210   22.6678 C   0  0  0  0  0  0  0  0  0  0  0  0
  -32.5061  -25.3531   22.3682 C   0  0  0  0  0  0  0  0  0  0  0  0
  -26.4449  -29.0187   23.7595 C   0  0  0  0  0  0  0  0  0  0  0  0
  -29.6561  -12.2419   18.3435 C   0  0  0  0  0  0  0  0  0  0  0  0
  -27.6513  -29.2656   22.8593 C   0  0  0  0  0  0  0  0  0  0  0  0
  -28.2073  -11.9828   18.7628 C   0  0  0  0  0  0  0  0  0  0  0  0
  -30.5567  -12.5065   19.5489 C   0  0  0  0  0  0  0  0  0  0  0  0
  -28.6388  -13.3042   20.8734 C   0  0  0  0  0  0  0  0  0  0  0  0
  -27.8407  -28.1156   21.8628 C   0  0  1  0  0  0  0  0  0  0  0  0
  -30.2205  -25.5793   23.3916 C   0  0  1  0  0  0  0  0  0  0  0  0
  -27.6808  -13.0966   19.6890 C   0  0  2  0  0  0  0  0  0  0  0  0
  -29.2121  -16.8346   23.8899 C   0  0  0  0  0  0  0  0  0  0  0  0
  -36.8152  -24.0119   27.1408 C   0  0  0  0  0  0  0  0  0  0  0  0
  -33.4602  -28.8102   24.0440 C   0  0  0  0  0  0  0  0  0  0  0  0
  -35.6005  -28.0018   25.0607 C   0  0  0  0  0  0  0  0  0  0  0  0
  -33.5561  -28.2223   26.4729 C   0  0  0  0  0  0  0  0  0  0  0  0
  -34.4185  -21.4860   25.6070 C   0  0  0  0  0  0  0  0  0  0  0  0
  -34.1848  -20.5811   17.4312 C   0  0  0  0  0  0  0  0  0  0  0  0
  -34.7463  -21.9820   17.2082 C   0  0  0  0  0  0  0  0  0  0  0  0
  -34.1986  -23.0009   18.2006 C   0  0  0  0  0  0  0  0  0  1  0  0
  -33.6984  -26.3477   24.7824 C   0  0  1  0  0  0  0  0  0  0  0  0
  -35.4930  -23.5260   26.5677 C   0  0  2  0  0  0  0  0  0  0  0  0
  -30.2996  -19.4119   24.6894 C   0  0  0  0  0  0  0  0  0  0  0  0
  -34.0664  -27.8310   25.0689 C   0  0  0  0  0  0  0  0  0  0  0  0
  -25.8672  -11.5490   20.3188 N   0  0  0  0  0  0  0  0  0  0  0  0
  -26.2606  -12.8225   20.1471 N   0  0  0  0  0  0  0  0  0  0  0  0
  -31.6751  -25.6299   23.5516 N   0  0  0  0  0  0  0  0  0  0  0  0
  -29.9972  -13.5762   20.3780 N   0  0  0  0  0  0  0  0  0  0  0  0
  -25.5164  -15.0661   20.2988 N   0  0  0  0  0  0  0  0  0  0  0  0
  -21.8866  -12.6787   21.5322 N   0  0  0  0  0  0  0  0  0  0  0  0
  -33.0218  -19.4996   20.5907 N   0  0  0  0  0  0  0  0  0  0  0  0
  -30.1163  -15.6950   21.4071 N   0  0  0  0  0  0  0  0  0  0  0  0
  -28.4485  -26.9760   22.5158 N   0  0  0  0  0  0  0  0  0  0  0  0
  -34.2365  -25.4005   25.7527 N   0  0  0  0  0  0  0  0  0  0  0  0
  -35.6505  -22.0994   26.1666 N   0  3  0  0  0  0  0  0  0  0  0  0
  -22.6908  -14.7976   21.1822 O   0  0  0  0  0  0  0  0  0  0  0  0
  -35.4992  -20.3020   19.4684 O   0  0  0  0  0  0  0  0  0  0  0  0
  -33.3328  -18.0302   18.7612 O   0  0  0  0  0  0  0  0  0  0  0  0
  -30.6735  -27.6348   22.3217 O   0  0  0  0  0  0  0  0  0  0  0  0
  -31.5377  -26.3622   25.7609 O   0  0  0  0  0  0  0  0  0  0  0  0
  -35.4336  -24.1274   24.2284 O   0  0  0  0  0  0  0  0  0  0  0  0
  -31.9020  -14.8706   20.1770 O   0  0  0  0  0  0  0  0  0  0  0  0
  -21.5478   -7.1271   21.8483 O   0  0  0  0  0  0  0  0  0  0  0  0
  -32.7819  -23.0759   18.0466 O   0  0  0  0  0  0  0  0  0  1  0  0
  -18.4897   -7.1788   26.4363 F   0  0  0  0  0  0  0  0  0  0  0  0
  -21.9485   -5.2534   23.8411 F   0  0  0  0  0  0  0  0  0  0  0  0
  -30.9007  -20.6154   24.9205 F   0  0  0  0  0  0  0  0  0  0  0  0
  -28.9595  -19.6634   24.7490 F   0  0  0  0  0  0  0  0  0  0  0  0
  -30.5795  -18.6448   25.7819 F   0  0  0  0  0  0  0  0  0  0  0  0
  1  2  1  0  0  0  0
  1  5  2  0  0  0  0
  2  6  2  0  0  0  0
  3  8  2  0  0  0  0
  3 17  1  0  0  0  0
  4  9  1  0  0  0  0
  4 17  2  0  0  0  0
  5 19  1  0  0  0  0
  6 21  1  0  0  0  0
  7 10  2  0  0  0  0
  7 20  1  0  0  0  0
  8 27  1  0  0  0  0
  9 27  2  0  0  0  0
 10 28  1  0  0  0  0
 11 12  2  0  0  0  0
 11 29  1  0  0  0  0
 12 30  1  0  0  0  0
 13 22  1  0  0  0  0
 13 28  2  0  0  0  0
 14 23  1  0  0  0  0
 14 25  2  0  0  0  0
 15 25  1  0  0  0  0
 15 26  2  0  0  0  0
 16 30  2  0  0  0  0
 16 31  1  0  0  0  0
 17 32  1  0  0  0  0
 18 32  1  0  0  0  0
 18 33  2  0  0  0  0
 18 34  1  0  0  0  0
 19 21  2  0  0  0  0
 19 41  1  0  0  0  0
 20 22  2  0  0  0  0
 20 42  1  0  0  0  0
 21 50  1  0  0  0  0
 22 43  1  0  0  0  0
 23 24  2  0  0  0  0
 23 64  1  0  0  0  0
 24 26  1  0  0  0  0
 24 53  1  0  0  0  0
 25 72  1  0  0  0  0
 26 73  1  0  0  0  0
 27 84  1  0  0  0  0
 28 85  1  0  0  0  0
 29 31  2  0  0  0  0
 29 84  1  0  0  0  0
 30 86  1  0  0  0  0
 31 87  1  0  0  0  0
 32 66  2  0  0  0  0
 33 67  1  0  0  0  0
 33 70  1  0  0  0  0
 34 71  1  0  0  0  0
 34 77  2  0  0  0  0
 35 36  1  0  0  0  0
 35 59  1  0  0  0  0
 35 78  2  0  0  0  0
 36 72  1  0  0  0  0
 36 79  2  0  0  0  0
 37 51  1  0  0  0  0
 37 74  1  0  0  0  0
 37 80  2  0  0  0  0
 38 62  1  0  0  0  0
 38 68  1  0  0  0  0
 38 81  2  0  0  0  0
 39 63  1  0  0  0  0
 39 75  1  0  0  0  0
 39 82  2  0  0  0  0
 40 69  1  0  0  0  0
 40 73  1  0  0  0  0
 40 83  2  0  0  0  0
 41 44  1  0  0  0  0
 42 51  1  0  0  0  0
 43 68  1  0  0  0  0
 44 46  1  0  0  0  0
 45 47  1  0  0  0  0
 45 48  1  0  0  0  0
 46 50  1  0  0  0  0
 47 52  1  0  0  0  0
 48 69  1  0  0  0  0
 49 52  1  0  0  0  0
 49 69  1  0  0  0  0
 50 74  1  0  0  0  0
 51 68  1  0  0  0  0
 52 67  1  0  0  0  0
 54 63  1  0  0  0  0
 55 65  1  0  0  0  0
 56 65  1  0  0  0  0
 57 65  1  0  0  0  0
 58 76  1  0  0  0  0
 59 60  1  0  0  0  0
 60 61  1  0  0  0  0
 61 85  1  0  0  0  0
 62 65  1  0  0  0  0
 62 75  1  0  0  0  0
 63 76  1  0  0  0  0
 64 88  1  0  0  0  0
 64 89  1  0  0  0  0
 64 90  1  0  0  0  0
 66 67  1  0  0  0  0
M  CHG  1  76   1
M  ISO  4  40 100  61 101  73 100  85 101
M  END
> <Batch ID>
0172

> <Smiles>
CNC(C)C(=O)NC(C(=O)N1Cc2cc([101O:1][101CH2:1]CCC(=O)C(=O)Nc3cc([100NH:0][100C:0](=O)N4CCCC(n5nc(-c6ccc(Oc7ccc(F)cc7F)cc6)c(C(N)=O)c5N)C4)c(C)c(C(F)(F)F)c3)ccc2CC1C(=O)NC1CCCc2ccccc21)C(C)(C)C

> <Shape>
0.227

> <Color>
0.191

> <Negative vol penalty>
0.000

$$$$

  -OEChem-04052304263D

 91 99  0     1  0  0  0  0  0999 V2000
  -29.9775  -30.3761   14.1350 C   0  0  0  0  0  0  0  0  0  0  0  0
  -29.9894  -29.5326   15.2413 C   0  0  0  0  0  0  0  0  0  0  0  0
  -24.7601   -8.6324   21.4400 C   0  0  0  0  0  0  0  0  0  0  0  0
  -23.1658  -10.3774   20.9395 C   0  0  0  0  0  0  0  0  0  0  0  0
  -29.2947  -31.5903   14.1930 C   0  0  0  0  0  0  0  0  0  0  0  0
  -29.3193  -29.9034   16.4066 C   0  0  0  0  0  0  0  0  0  0  0  0
  -26.6119  -26.1072   18.3824 C   0  0  0  0  0  0  0  0  0  0  0  0
  -23.8598   -8.0692   22.3443 C   0  0  0  0  0  0  0  0  0  0  0  0
  -22.2655   -9.8141   21.8438 C   0  0  0  0  0  0  0  0  0  0  0  0
  -27.3075  -25.1354   19.1002 C   0  0  0  0  0  0  0  0  0  0  0  0
  -21.0940   -6.1279   22.2237 C   0  0  0  0  0  0  0  0  0  0  0  0
  -20.9144   -4.7452   22.1836 C   0  0  0  0  0  0  0  0  0  0  0  0
  -25.5271  -18.0310   19.5221 C   0  0  0  0  0  0  0  0  0  0  0  0
  -26.6424  -26.1924   21.1641 C   0  0  0  0  0  0  0  0  0  0  0  0
  -27.5839  -18.7512   20.5650 C   0  0  0  0  0  0  0  0  0  0  0  0
  -21.6599   -4.5819   24.4759 C   0  0  0  0  0  0  0  0  0  0  0  0
  -24.4131   -9.7866   20.7376 C   0  0  0  0  0  0  0  0  0  0  0  0
  -24.9596  -19.2789   19.7795 C   0  0  0  0  0  0  0  0  0  0  0  0
  -25.4604  -10.0829   18.4304 C   0  0  0  0  0  0  0  0  0  0  0  0
  -28.6078  -31.9718   15.3563 C   0  0  0  0  0  0  0  0  0  0  0  0
  -25.9342  -27.1370   19.0508 C   0  0  0  0  0  0  0  0  0  0  0  0
  -28.6278  -31.1245   16.4806 C   0  0  0  0  0  0  0  0  0  0  0  0
  -25.9368  -27.1746   20.4525 C   0  0  0  0  0  0  0  0  0  0  0  0
  -25.7042  -20.2630   20.4296 C   0  0  0  0  0  0  0  0  0  0  0  0
  -26.8392  -17.7671   19.9149 C   0  0  0  0  0  0  0  0  0  0  0  0
  -27.0164  -19.9991   20.8224 C   0  0  0  0  0  0  0  0  0  0  0  0
  -22.6125   -8.6600   22.5462 C   0  0  0  0  0  0  0  0  0  0  0  0
  -27.3253  -25.1795   20.4912 C   0  0  0  0  0  0  0  0  0  0  0  0
  -21.5566   -6.7376   23.3899 C   0  0  0  0  0  0  0  0  0  0  0  0
  -21.1973   -3.9723   23.3097 C   0  0  0  0  0  0  0  0  0  0  0  0
  -21.8395   -5.9646   24.5160 C   0  0  0  0  0  0  0  0  0  0  0  0
  -25.3430  -10.3692   19.8038 C   0  0  0  0  0  0  0  0  0  0  0  0
  -26.4816  -10.8927   17.9970 C   0  0  0  0  0  0  0  0  0  0  0  0
  -23.5872  -19.5249   19.3568 C   0  0  0  0  0  0  0  0  0  0  0  0
  -24.7132   -9.1669   17.6191 C   0  0  0  0  0  0  0  0  0  0  0  0
  -26.1781  -30.3054   19.1227 C   0  0  0  0  0  0  0  0  0  0  0  0
  -23.4981  -30.0810   20.9365 C   0  0  0  0  0  0  0  0  0  0  0  0
  -29.0991  -20.8692   21.9323 C   0  0  0  0  0  0  0  0  0  0  0  0
  -21.5511  -28.1923   23.0074 C   0  0  0  0  0  0  0  0  0  0  0  0
  -28.7037  -16.0741   19.9771 C   0  0  0  0  0  0  0  0  0  0  0  0
  -27.9234  -33.3154   15.3876 C   0  0  0  0  0  0  0  0  0  0  0  0
  -25.1663  -28.1624   18.2627 C   0  0  0  0  0  0  0  0  0  0  0  0
  -25.2083  -28.2476   21.2183 C   0  0  0  0  0  0  0  0  0  0  0  0
  -26.9250  -33.4639   16.5328 C   0  0  0  0  0  0  0  0  0  0  0  0
  -30.4843  -13.0221   19.5391 C   0  0  0  0  0  0  0  0  0  0  0  0
  -27.5352  -32.9692   17.8404 C   0  0  0  0  0  0  0  0  0  0  0  0
  -29.3785  -11.9702   19.4262 C   0  0  0  0  0  0  0  0  0  0  0  0
  -30.1257  -14.1164   20.5429 C   0  0  0  0  0  0  0  0  0  0  0  0
  -27.7193  -13.7090   20.2076 C   0  0  0  0  0  0  0  0  0  0  0  0
  -27.8920  -31.4803   17.7542 C   0  0  1  0  0  0  0  0  0  0  0  0
  -24.9392  -29.4601   19.0320 C   0  0  1  0  0  0  0  0  0  0  0  0
  -28.0068  -12.6208   19.1603 C   0  0  2  0  0  0  0  0  0  0  0  0
  -19.4419  -28.2938   24.3632 C   0  0  0  0  0  0  0  0  0  0  0  0
  -24.9383  -31.7476   23.0479 C   0  0  0  0  0  0  0  0  0  0  0  0
  -23.2064  -31.0205   24.7031 C   0  0  0  0  0  0  0  0  0  0  0  0
  -22.5361  -32.3513   22.7025 C   0  0  0  0  0  0  0  0  0  0  0  0
  -30.6245  -24.4145   22.4642 C   0  0  0  0  0  0  0  0  0  0  0  0
  -31.4204  -22.6441   20.8946 C   0  0  0  0  0  0  0  0  0  0  0  0
  -20.3111  -25.9977   21.4566 C   0  0  0  0  0  0  0  0  0  0  0  0
  -29.5901  -22.1481   22.5988 C   0  0  0  0  0  0  0  0  0  0  0  0
  -29.1517  -23.6583   20.5702 C   0  0  0  0  0  0  0  0  0  1  0  0
  -23.2150  -29.9333   22.4120 C   0  0  1  0  0  0  0  0  0  0  0  0
  -20.0563  -27.9281   23.0211 C   0  0  2  0  0  0  0  0  0  0  0  0
  -25.0943  -21.6024   20.7044 C   0  0  0  0  0  0  0  0  0  0  0  0
  -23.4894  -31.2439   23.2022 C   0  0  0  0  0  0  0  0  0  0  0  0
  -30.1829  -23.1970   21.6233 C   0  0  0  0  0  0  0  0  0  0  0  0
  -26.2196  -11.2890   20.2156 N   0  0  0  0  0  0  0  0  0  0  0  0
  -23.1979  -19.4549   18.1199 N   0  0  0  0  0  0  0  0  0  0  0  0
  -26.8977  -11.5876   19.0943 N   0  0  0  0  0  0  0  0  0  0  0  0
  -24.4771  -29.2312   20.4025 N   0  0  0  0  0  0  0  0  0  0  0  0
  -28.8160  -14.6898   20.2257 N   0  0  0  0  0  0  0  0  0  0  0  0
  -27.0552  -11.0711   16.7880 N   0  0  0  0  0  0  0  0  0  0  0  0
  -23.6987   -8.4126   18.2243 N   0  0  0  0  0  0  0  0  0  0  0  0
  -27.7898  -20.9827   21.4835 N   0  0  0  0  0  0  0  0  0  0  0  0
  -27.4155  -16.4992   19.6539 N   0  0  0  0  0  0  0  0  0  0  0  0
  -26.7036  -30.6668   17.8969 N   0  0  0  0  0  0  0  0  0  0  0  0
  -21.8434  -29.4477   22.5179 N   0  0  0  0  0  0  0  0  0  0  0  0
  -19.7825  -26.4874   22.7558 N   0  3  0  0  0  0  0  0  0  0  0  0
  -24.9494   -9.0096   16.3972 O   0  0  0  0  0  0  0  0  0  0  0  0
  -26.6233  -30.6087   20.2234 O   0  0  0  0  0  0  0  0  0  0  0  0
  -22.8685  -30.9146   20.2804 O   0  0  0  0  0  0  0  0  0  0  0  0
  -29.8366  -19.8909   21.8471 O   0  0  0  0  0  0  0  0  0  0  0  0
  -22.3766  -27.3688   23.3960 O   0  0  0  0  0  0  0  0  0  0  0  0
  -29.6835  -16.8225   20.0192 O   0  0  0  0  0  0  0  0  0  0  0  0
  -21.7336   -8.1105   23.4283 O   0  0  0  0  0  0  0  0  0  0  0  0
  -28.0040  -24.2325   21.1943 O   0  0  0  0  0  0  0  0  0  1  0  0
  -21.0233   -2.6447   23.2715 F   0  0  0  0  0  0  0  0  0  0  0  0
  -22.2830   -6.5448   25.6396 F   0  0  0  0  0  0  0  0  0  0  0  0
  -23.8088  -21.7131   20.2630 F   0  0  0  0  0  0  0  0  0  0  0  0
  -25.0487  -21.9141   22.0311 F   0  0  0  0  0  0  0  0  0  0  0  0
  -25.7803  -22.6176   20.1079 F   0  0  0  0  0  0  0  0  0  0  0  0
  1  2  1  0  0  0  0
  1  5  2  0  0  0  0
  2  6  2  0  0  0  0
  3  8  2  0  0  0  0
  3 17  1  0  0  0  0
  4  9  1  0  0  0  0
  4 17  2  0  0  0  0
  5 20  1  0  0  0  0
  6 22  1  0  0  0  0
  7 10  2  0  0  0  0
  7 21  1  0  0  0  0
  8 27  1  0  0  0  0
  9 27  2  0  0  0  0
 10 28  1  0  0  0  0
 11 12  2  0  0  0  0
 11 29  1  0  0  0  0
 12 30  1  0  0  0  0
 13 18  2  0  0  0  0
 13 25  1  0  0  0  0
 14 23  1  0  0  0  0
 14 28  2  0  0  0  0
 15 25  2  0  0  0  0
 15 26  1  0  0  0  0
 16 30  2  0  0  0  0
 16 31  1  0  0  0  0
 17 32  1  0  0  0  0
 18 24  1  0  0  0  0
 18 34  1  0  0  0  0
 19 32  1  0  0  0  0
 19 33  2  0  0  0  0
 19 35  1  0  0  0  0
 20 22  2  0  0  0  0
 20 41  1  0  0  0  0
 21 23  2  0  0  0  0
 21 42  1  0  0  0  0
 22 50  1  0  0  0  0
 23 43  1  0  0  0  0
 24 26  2  0  0  0  0
 24 64  1  0  0  0  0
 25 75  1  0  0  0  0
 26 74  1  0  0  0  0
 27 85  1  0  0  0  0
 28 86  1  0  0  0  0
 29 31  2  0  0  0  0
 29 85  1  0  0  0  0
 30 87  1  0  0  0  0
 31 88  1  0  0  0  0
 32 67  2  0  0  0  0
 33 69  1  0  0  0  0
 33 72  1  0  0  0  0
 34 68  2  0  0  0  0
 35 73  1  0  0  0  0
 35 79  2  0  0  0  0
 36 51  1  0  0  0  0
 36 76  1  0  0  0  0
 36 80  2  0  0  0  0
 37 62  1  0  0  0  0
 37 70  1  0  0  0  0
 37 81  2  0  0  0  0
 38 60  1  0  0  0  0
 38 74  1  0  0  0  0
 38 82  2  0  0  0  0
 39 63  1  0  0  0  0
 39 77  1  0  0  0  0
 39 83  2  0  0  0  0
 40 71  1  0  0  0  0
 40 75  1  0  0  0  0
 40 84  2  0  0  0  0
 41 44  1  0  0  0  0
 42 51  1  0  0  0  0
 43 70  1  0  0  0  0
 44 46  1  0  0  0  0
 45 47  1  0  0  0  0
 45 48  1  0  0  0  0
 46 50  1  0  0  0  0
 47 52  1  0  0  0  0
 48 71  1  0  0  0  0
 49 52  1  0  0  0  0
 49 71  1  0  0  0  0
 50 76  1  0  0  0  0
 51 70  1  0  0  0  0
 52 69  1  0  0  0  0
 53 63  1  0  0  0  0
 54 65  1  0  0  0  0
 55 65  1  0  0  0  0
 56 65  1  0  0  0  0
 57 66  1  0  0  0  0
 58 66  1  0  0  0  0
 59 78  1  0  0  0  0
 60 66  1  0  0  0  0
 61 66  1  0  0  0  0
 61 86  1  0  0  0  0
 62 65  1  0  0  0  0
 62 77  1  0  0  0  0
 63 78  1  0  0  0  0
 64 89  1  0  0  0  0
 64 90  1  0  0  0  0
 64 91  1  0  0  0  0
 67 69  1  0  0  0  0
M  CHG  1  78   1
M  ISO  4  40 100  61 101  75 100  86 101
M  END
> <Batch ID>
0172

> <Smiles>
CNC(C)C(=O)NC(C(=O)N1Cc2cc([101O:1][101CH2:1]C(C)(C)CC(=O)Nc3cc([100NH:0][100C:0](=O)N4CCCC(n5nc(-c6ccc(Oc7ccc(F)cc7F)cc6)c(C(N)=O)c5N)C4)cc(C=N)c3C(F)(F)F)ccc2CC1C(=O)NC1CCCc2ccccc21)C(C)(C)C

> <Shape>
0.270

> <Color>
0.084

> <Negative vol penalty>
0.000

$$$$

  -OEChem-04052304263D

 85 93  0     1  0  0  0  0  0999 V2000
  -18.7219  -28.0452   21.4535 C   0  0  0  0  0  0  0  0  0  0  0  0
  -19.5946  -26.9787   21.6450 C   0  0  0  0  0  0  0  0  0  0  0  0
  -32.3849  -17.7705   23.4948 C   0  0  0  0  0  0  0  0  0  0  0  0
  -23.1643   -9.7418   19.9328 C   0  0  0  0  0  0  0  0  0  0  0  0
  -23.8474   -9.8465   22.2478 C   0  0  0  0  0  0  0  0  0  0  0  0
  -18.5713  -29.0087   22.4499 C   0  0  0  0  0  0  0  0  0  0  0  0
  -20.3179  -26.8759   22.8327 C   0  0  0  0  0  0  0  0  0  0  0  0
  -21.8856  -21.7268   25.7542 C   0  0  0  0  0  0  0  0  0  0  0  0
  -31.5372  -18.6355   24.1866 C   0  0  0  0  0  0  0  0  0  0  0  0
  -31.8540  -16.8397   22.6017 C   0  0  0  0  0  0  0  0  0  0  0  0
  -22.4475   -8.5748   20.1970 C   0  0  0  0  0  0  0  0  0  0  0  0
  -23.1306   -8.6794   22.5121 C   0  0  0  0  0  0  0  0  0  0  0  0
  -23.0651  -20.9838   25.7781 C   0  0  0  0  0  0  0  0  0  0  0  0
  -19.9097   -7.8016   23.0371 C   0  0  0  0  0  0  0  0  0  0  0  0
  -19.1160   -7.7760   24.1839 C   0  0  0  0  0  0  0  0  0  0  0  0
  -23.7318  -22.1184   27.7998 C   0  0  0  0  0  0  0  0  0  0  0  0
  -29.6275  -17.6391   23.0923 C   0  0  0  0  0  0  0  0  0  0  0  0
  -20.3900   -5.9028   25.0238 C   0  0  0  0  0  0  0  0  0  0  0  0
  -23.8643  -10.3776   20.9582 C   0  0  0  0  0  0  0  0  0  0  0  0
  -24.1340  -12.9070   20.7651 C   0  0  0  0  0  0  0  0  0  0  0  0
  -19.2860  -28.9124   23.6543 C   0  0  0  0  0  0  0  0  0  0  0  0
  -21.6250  -22.6805   26.7486 C   0  0  0  0  0  0  0  0  0  0  0  0
  -20.1777  -27.8398   23.8456 C   0  0  0  0  0  0  0  0  0  0  0  0
  -22.5472  -22.8704   27.7877 C   0  0  0  0  0  0  0  0  0  0  0  0
  -30.1584  -18.5698   23.9853 C   0  0  0  0  0  0  0  0  0  0  0  0
  -30.4753  -16.7740   22.4005 C   0  0  0  0  0  0  0  0  0  0  0  0
  -22.4306   -8.0436   21.4867 C   0  0  0  0  0  0  0  0  0  0  0  0
  -23.9897  -21.1816   26.7993 C   0  0  0  0  0  0  0  0  0  0  0  0
  -20.9435   -6.8777   22.8837 C   0  0  0  0  0  0  0  0  0  0  0  0
  -19.3562   -6.8266   25.1772 C   0  0  0  0  0  0  0  0  0  0  0  0
  -21.1837   -5.9284   23.8770 C   0  0  0  0  0  0  0  0  0  0  0  0
  -24.6054  -11.5829   20.6857 C   0  0  0  0  0  0  0  0  0  0  0  0
  -25.2146  -13.6779   20.4123 C   0  0  0  0  0  0  0  0  0  0  0  0
  -22.8354  -13.3963   21.1257 C   0  0  0  0  0  0  0  0  0  0  0  0
  -28.4743  -21.1671   26.1432 C   0  0  0  0  0  0  0  0  0  0  0  0
  -27.5254  -20.4799   26.8098 C   0  0  0  0  0  0  0  0  0  0  0  0
  -29.6607  -20.4293   25.5984 C   0  0  0  0  0  0  0  0  0  0  0  0
  -21.1841  -25.8283   26.7772 C   0  0  0  0  0  0  0  0  0  0  0  0
  -20.5043  -25.3127   29.9068 C   0  0  0  0  0  0  0  0  0  0  0  0
  -20.8708  -23.3344   32.6634 C   0  0  0  0  0  0  0  0  0  0  0  0
  -30.6381  -14.8980   20.7271 C   0  0  0  0  0  0  0  0  0  0  0  0
  -19.1255  -30.0037   24.6829 C   0  0  0  0  0  0  0  0  0  0  0  0
  -20.3357  -23.4549   26.7235 C   0  0  0  0  0  0  0  0  0  0  0  0
  -22.3054  -23.8676   28.8902 C   0  0  0  0  0  0  0  0  0  0  0  0
  -19.6474  -29.6195   26.0650 C   0  0  0  0  0  0  0  0  0  0  0  0
  -29.6755  -12.3754   18.4060 C   0  0  0  0  0  0  0  0  0  0  0  0
  -21.0240  -28.9716   25.9548 C   0  0  0  0  0  0  0  0  0  0  0  0
  -28.2319  -12.0533   18.7987 C   0  0  0  0  0  0  0  0  0  0  0  0
  -30.5432  -12.6713   19.6281 C   0  0  0  0  0  0  0  0  0  0  0  0
  -28.5707  -13.3804   20.9227 C   0  0  0  0  0  0  0  0  0  0  0  0
  -20.9614  -27.6801   25.1303 C   0  0  1  0  0  0  0  0  0  0  0  0
  -20.4099  -24.7644   27.5026 C   0  0  1  0  0  0  0  0  0  0  0  0
  -27.6430  -13.1390   19.7207 C   0  0  2  0  0  0  0  0  0  0  0  0
  -28.4961  -22.6443   25.8919 C   0  0  0  0  0  0  0  0  0  0  0  0
  -20.2300  -23.1925   35.0855 C   0  0  0  0  0  0  0  0  0  0  0  0
  -22.5895  -27.4360   30.5803 C   0  0  0  0  0  0  0  0  0  0  0  0
  -22.5919  -26.5867   32.9355 C   0  0  0  0  0  0  0  0  0  0  0  0
  -20.5061  -27.5454   31.9594 C   0  0  0  0  0  0  0  0  0  0  0  0
  -19.4116  -20.7933   32.2482 C   0  0  0  0  0  0  0  0  0  0  0  0
  -26.2859  -21.0789   27.4101 C   0  0  0  0  0  0  0  0  0  1  0  0
  -21.3088  -25.2769   31.1837 C   0  0  1  0  0  0  0  0  0  0  0  0
  -19.8598  -22.8024   33.6630 C   0  0  2  0  0  0  0  0  0  0  0  0
  -21.7548  -26.6938   31.6431 C   0  0  0  0  0  0  0  0  0  0  0  0
  -25.8857  -11.5129   20.3116 N   0  0  0  0  0  0  0  0  0  0  0  0
  -26.2279  -12.8028   20.1527 N   0  0  0  0  0  0  0  0  0  0  0  0
  -21.0331  -24.6049   28.8181 N   0  0  0  0  0  0  0  0  0  0  0  0
  -29.9248  -13.7120   20.4523 N   0  0  0  0  0  0  0  0  0  0  0  0
  -25.3872  -15.0122   20.3017 N   0  0  0  0  0  0  0  0  0  0  0  0
  -21.8407  -12.4675   21.4605 N   0  0  0  0  0  0  0  0  0  0  0  0
  -29.2989  -19.4482   24.6873 N   0  0  0  0  0  0  0  0  0  0  0  0
  -29.9366  -15.8284   21.4931 N   0  0  0  0  0  0  0  0  0  0  0  0
  -20.4174  -26.5994   25.9245 N   0  0  0  0  0  0  0  0  0  0  0  0
  -20.4939  -24.5614   32.1596 N   0  0  0  0  0  0  0  0  0  0  0  0
  -19.7890  -21.3157   33.5867 N   0  3  0  0  0  0  0  0  0  0  0  0
  -22.5606  -14.6202   21.1345 O   0  0  0  0  0  0  0  0  0  0  0  0
  -30.7864  -20.7672   25.9479 O   0  0  0  0  0  0  0  0  0  0  0  0
  -22.3877  -25.9423   26.9774 O   0  0  0  0  0  0  0  0  0  0  0  0
  -19.4423  -25.9395   29.8785 O   0  0  0  0  0  0  0  0  0  0  0  0
  -21.8945  -22.7245   32.3626 O   0  0  0  0  0  0  0  0  0  0  0  0
  -31.7765  -15.0865   20.2905 O   0  0  0  0  0  0  0  0  0  0  0  0
  -27.6698  -19.1193   27.0399 O   0  0  0  0  0  0  0  0  0  0  0  0
  -21.7311   -6.9049   21.7450 O   0  0  0  0  0  0  0  0  0  0  0  0
  -25.1421  -20.4582   26.8246 O   0  0  0  0  0  0  0  0  0  1  0  0
  -18.5949   -6.8032   26.2791 F   0  0  0  0  0  0  0  0  0  0  0  0
  -22.1761   -5.0391   23.7358 F   0  0  0  0  0  0  0  0  0  0  0  0
  1  2  1  0  0  0  0
  1  6  2  0  0  0  0
  2  7  2  0  0  0  0
  3  9  2  0  0  0  0
  3 10  1  0  0  0  0
  4 11  2  0  0  0  0
  4 19  1  0  0  0  0
  5 12  1  0  0  0  0
  5 19  2  0  0  0  0
  6 21  1  0  0  0  0
  7 23  1  0  0  0  0
  8 13  2  0  0  0  0
  8 22  1  0  0  0  0
  9 25  1  0  0  0  0
 10 26  2  0  0  0  0
 11 27  1  0  0  0  0
 12 27  2  0  0  0  0
 13 28  1  0  0  0  0
 14 15  2  0  0  0  0
 14 29  1  0  0  0  0
 15 30  1  0  0  0  0
 16 24  1  0  0  0  0
 16 28  2  0  0  0  0
 17 25  2  0  0  0  0
 17 26  1  0  0  0  0
 18 30  2  0  0  0  0
 18 31  1  0  0  0  0
 19 32  1  0  0  0  0
 20 32  1  0  0  0  0
 20 33  2  0  0  0  0
 20 34  1  0  0  0  0
 21 23  2  0  0  0  0
 21 42  1  0  0  0  0
 22 24  2  0  0  0  0
 22 43  1  0  0  0  0
 23 51  1  0  0  0  0
 24 44  1  0  0  0  0
 25 70  1  0  0  0  0
 26 71  1  0  0  0  0
 27 82  1  0  0  0  0
 28 83  1  0  0  0  0
 29 31  2  0  0  0  0
 29 82  1  0  0  0  0
 30 84  1  0  0  0  0
 31 85  1  0  0  0  0
 32 64  2  0  0  0  0
 33 65  1  0  0  0  0
 33 68  1  0  0  0  0
 34 69  1  0  0  0  0
 34 75  2  0  0  0  0
 35 36  2  0  0  0  0
 35 37  1  0  0  0  0
 35 54  1  0  0  0  0
 36 60  1  0  0  0  0
 36 81  1  0  0  0  0
 37 70  1  0  0  0  0
 37 76  2  0  0  0  0
 38 52  1  0  0  0  0
 38 72  1  0  0  0  0
 38 77  2  0  0  0  0
 39 61  1  0  0  0  0
 39 66  1  0  0  0  0
 39 78  2  0  0  0  0
 40 62  1  0  0  0  0
 40 73  1  0  0  0  0
 40 79  2  0  0  0  0
 41 67  1  0  0  0  0
 41 71  1  0  0  0  0
 41 80  2  0  0  0  0
 42 45  1  0  0  0  0
 43 52  1  0  0  0  0
 44 66  1  0  0  0  0
 45 47  1  0  0  0  0
 46 48  1  0  0  0  0
 46 49  1  0  0  0  0
 47 51  1  0  0  0  0
 48 53  1  0  0  0  0
 49 67  1  0  0  0  0
 50 53  1  0  0  0  0
 50 67  1  0  0  0  0
 51 72  1  0  0  0  0
 52 66  1  0  0  0  0
 53 65  1  0  0  0  0
 55 62  1  0  0  0  0
 56 63  1  0  0  0  0
 57 63  1  0  0  0  0
 58 63  1  0  0  0  0
 59 74  1  0  0  0  0
 60 83  1  0  0  0  0
 61 63  1  0  0  0  0
 61 73  1  0  0  0  0
 62 74  1  0  0  0  0
 64 65  1  0  0  0  0
M  CHG  1  74   1
M  ISO  4  41 100  60 101  71 100  83 101
M  END
> <Batch ID>
0172

> <Smiles>
CNC(C)C(=O)NC(C(=O)N1Cc2cc([101O:1][101CH2:1]C(=O)C(C)C(=O)Nc3cccc([100NH:0][100C:0](=O)N4CCCC(n5nc(-c6ccc(Oc7ccc(F)cc7F)cc6)c(C(N)=O)c5N)C4)c3)ccc2CC1C(=O)NC1CCCc2ccccc21)C(C)(C)C

> <Shape>
0.212

> <Color>
0.202

> <Negative vol penalty>
0.000

$$$$

  -OEChem-04052304263D

 89 97  0     1  0  0  0  0  0999 V2000
  -18.6410  -25.1538   21.0649 C   0  0  0  0  0  0  0  0  0  0  0  0
  -19.9576  -24.9571   21.4688 C   0  0  0  0  0  0  0  0  0  0  0  0
  -23.3689   -9.6414   19.9986 C   0  0  0  0  0  0  0  0  0  0  0  0
  -23.9019   -9.9219   22.3383 C   0  0  0  0  0  0  0  0  0  0  0  0
  -18.2413  -26.3968   20.5759 C   0  0  0  0  0  0  0  0  0  0  0  0
  -20.8757  -26.0030   21.3828 C   0  0  0  0  0  0  0  0  0  0  0  0
  -23.7305  -26.4290   25.5438 C   0  0  0  0  0  0  0  0  0  0  0  0
  -22.7284   -8.4368   20.2889 C   0  0  0  0  0  0  0  0  0  0  0  0
  -23.2614   -8.7173   22.6286 C   0  0  0  0  0  0  0  0  0  0  0  0
  -24.7832  -25.5265   25.6889 C   0  0  0  0  0  0  0  0  0  0  0  0
  -20.0910   -7.6157   23.0228 C   0  0  0  0  0  0  0  0  0  0  0  0
  -19.2341   -7.5878   24.1230 C   0  0  0  0  0  0  0  0  0  0  0  0
  -29.0105  -18.1817   23.0557 C   0  0  0  0  0  0  0  0  0  0  0  0
  -26.3253  -27.2088   24.9071 C   0  0  0  0  0  0  0  0  0  0  0  0
  -31.3171  -17.5374   22.7373 C   0  0  0  0  0  0  0  0  0  0  0  0
  -20.5943   -5.8685   25.1386 C   0  0  0  0  0  0  0  0  0  0  0  0
  -23.9557  -10.3840   21.0233 C   0  0  0  0  0  0  0  0  0  0  0  0
  -29.4139  -19.1973   23.9226 C   0  0  0  0  0  0  0  0  0  0  0  0
  -24.0432  -12.9130   20.7010 C   0  0  0  0  0  0  0  0  0  0  0  0
  -19.1527  -27.4613   20.4929 C   0  0  0  0  0  0  0  0  0  0  0  0
  -23.9662  -27.7269   25.0681 C   0  0  0  0  0  0  0  0  0  0  0  0
  -20.4883  -27.2611   20.8910 C   0  0  0  0  0  0  0  0  0  0  0  0
  -25.2742  -28.1267   24.7593 C   0  0  0  0  0  0  0  0  0  0  0  0
  -29.9621  -17.3517   22.4631 C   0  0  0  0  0  0  0  0  0  0  0  0
  -31.7205  -18.5530   23.6042 C   0  0  0  0  0  0  0  0  0  0  0  0
  -22.6747   -7.9747   21.6039 C   0  0  0  0  0  0  0  0  0  0  0  0
  -26.0804  -25.9154   25.3678 C   0  0  0  0  0  0  0  0  0  0  0  0
  -21.1994   -6.7700   22.9803 C   0  0  0  0  0  0  0  0  0  0  0  0
  -19.4858   -6.7143   25.1810 C   0  0  0  0  0  0  0  0  0  0  0  0
  -21.4511   -5.8964   24.0382 C   0  0  0  0  0  0  0  0  0  0  0  0
  -30.7688  -19.3829   24.1968 C   0  0  0  0  0  0  0  0  0  0  0  0
  -24.6179  -11.6282   20.7240 C   0  0  0  0  0  0  0  0  0  0  0  0
  -25.0811  -13.7475   20.3654 C   0  0  0  0  0  0  0  0  0  0  0  0
  -28.3972  -20.0792   24.5517 C   0  0  0  0  0  0  0  0  0  0  0  0
  -22.6918  -13.3162   20.9601 C   0  0  0  0  0  0  0  0  0  0  0  0
  -23.0269  -29.3897   22.5272 C   0  0  0  0  0  0  0  0  0  0  0  0
  -28.0327  -22.8664   26.0621 C   0  0  0  0  0  0  0  0  0  0  0  0
  -24.5722  -31.8147   24.0285 C   0  0  0  0  0  0  0  0  0  0  0  0
  -26.9643  -32.7834   26.2615 C   0  0  0  0  0  0  0  0  0  0  0  0
  -30.3674  -15.4088   20.9116 C   0  0  0  0  0  0  0  0  0  0  0  0
  -18.6858  -28.7731   19.9133 C   0  0  0  0  0  0  0  0  0  0  0  0
  -22.8235  -28.6970   24.9427 C   0  0  0  0  0  0  0  0  0  0  0  0
  -25.5831  -29.5151   24.2640 C   0  0  0  0  0  0  0  0  0  0  0  0
  -19.6283  -29.9379   20.2053 C   0  0  0  0  0  0  0  0  0  0  0  0
  -29.7407  -12.6989   18.6888 C   0  0  0  0  0  0  0  0  0  0  0  0
  -21.0740  -29.5367   19.9297 C   0  0  0  0  0  0  0  0  0  0  0  0
  -28.3048  -12.2845   19.0182 C   0  0  0  0  0  0  0  0  0  0  0  0
  -30.5083  -13.1267   19.9383 C   0  0  0  0  0  0  0  0  0  0  0  0
  -28.4135  -13.7445   21.0782 C   0  0  0  0  0  0  0  0  0  0  0  0
  -21.5075  -28.3783   20.8362 C   0  0  1  0  0  0  0  0  0  0  0  0
  -23.1069  -29.8303   23.9614 C   0  0  1  0  0  0  0  0  0  0  0  0
  -27.5807  -13.3672   19.8422 C   0  0  2  0  0  0  0  0  0  0  0  0
  -28.0227  -34.8332   27.2491 C   0  0  0  0  0  0  0  0  0  0  0  0
  -29.3684  -21.7658   28.5793 C   0  0  0  0  0  0  0  0  0  0  0  0
  -27.7177  -19.8806   28.5447 C   0  0  0  0  0  0  0  0  0  0  0  0
  -26.1463  -32.2414   21.4497 C   0  0  0  0  0  0  0  0  0  0  0  0
  -27.7887  -33.6032   22.7598 C   0  0  0  0  0  0  0  0  0  0  0  0
  -25.4137  -34.3459   22.5852 C   0  0  0  0  0  0  0  0  0  0  0  0
  -26.1071  -32.0493   28.9974 C   0  0  0  0  0  0  0  0  0  0  0  0
  -26.7886  -23.7317   25.9889 C   0  0  0  0  0  0  0  0  0  1  0  0
  -27.8294  -21.4348   26.5507 C   0  0  2  0  0  0  0  0  0  0  0  0
  -25.9848  -32.3472   24.0244 C   0  0  1  0  0  0  0  0  0  0  0  0
  -26.9314  -33.7851   27.4016 C   0  0  2  0  0  0  0  0  0  0  0  0
  -27.9936  -21.3131   28.0772 C   0  0  0  0  0  0  0  0  0  0  0  0
  -26.3276  -33.1076   22.7122 C   0  0  0  0  0  0  0  0  0  0  0  0
  -25.9199  -11.6403   20.4264 N   0  0  0  0  0  0  0  0  0  0  0  0
  -26.1719  -12.9431   20.2132 N   0  0  0  0  0  0  0  0  0  0  0  0
  -24.4312  -30.4252   24.1522 N   0  0  0  0  0  0  0  0  0  0  0  0
  -29.7642  -14.1572   20.6658 N   0  0  0  0  0  0  0  0  0  0  0  0
  -33.0916  -18.7389   23.8792 N   0  0  0  0  0  0  0  0  0  0  0  0
  -25.1581  -15.0836   20.1884 N   0  0  0  0  0  0  0  0  0  0  0  0
  -21.7524  -12.3304   21.2915 N   0  0  0  0  0  0  0  0  0  0  0  0
  -29.5524  -16.3198   21.5827 N   0  0  0  0  0  0  0  0  0  0  0  0
  -28.7210  -20.5860   25.8033 N   0  0  0  0  0  0  0  0  0  0  0  0
  -21.8014  -28.8617   22.1683 N   0  0  0  0  0  0  0  0  0  0  0  0
  -26.1215  -33.1512   25.2340 N   0  0  0  0  0  0  0  0  0  0  0  0
  -27.1251  -33.0914   28.7063 N   0  3  0  0  0  0  0  0  0  0  0  0
  -27.3419  -20.2945   23.9613 O   0  0  0  0  0  0  0  0  0  0  0  0
  -22.3246  -14.5132   20.8834 O   0  0  0  0  0  0  0  0  0  0  0  0
  -24.0042  -29.5206   21.7995 O   0  0  0  0  0  0  0  0  0  0  0  0
  -29.1442  -23.3092   25.7715 O   0  0  0  0  0  0  0  0  0  0  0  0
  -23.6284  -32.6032   23.9329 O   0  0  0  0  0  0  0  0  0  0  0  0
  -27.6701  -31.7773   26.2788 O   0  0  0  0  0  0  0  0  0  0  0  0
  -31.5123  -15.6637   20.5290 O   0  0  0  0  0  0  0  0  0  0  0  0
  -22.0496   -6.7994   21.8876 O   0  0  0  0  0  0  0  0  0  0  0  0
  -27.1097  -25.0362   25.5078 O   0  0  0  0  0  0  0  0  0  1  0  0
  -18.6638   -6.6887   26.2382 F   0  0  0  0  0  0  0  0  0  0  0  0
  -22.5150   -5.0824   24.0037 F   0  0  0  0  0  0  0  0  0  0  0  0
  -31.1568  -20.3597   25.0310 F   0  0  0  0  0  0  0  0  0  0  0  0
  1  2  1  0  0  0  0
  1  5  2  0  0  0  0
  2  6  2  0  0  0  0
  3  8  2  0  0  0  0
  3 17  1  0  0  0  0
  4  9  1  0  0  0  0
  4 17  2  0  0  0  0
  5 20  1  0  0  0  0
  6 22  1  0  0  0  0
  7 10  2  0  0  0  0
  7 21  1  0  0  0  0
  8 26  1  0  0  0  0
  9 26  2  0  0  0  0
 10 27  1  0  0  0  0
 11 12  2  0  0  0  0
 11 28  1  0  0  0  0
 12 29  1  0  0  0  0
 13 18  1  0  0  0  0
 13 24  2  0  0  0  0
 14 23  1  0  0  0  0
 14 27  2  0  0  0  0
 15 24  1  0  0  0  0
 15 25  2  0  0  0  0
 16 29  2  0  0  0  0
 16 30  1  0  0  0  0
 17 32  1  0  0  0  0
 18 31  2  0  0  0  0
 18 34  1  0  0  0  0
 19 32  1  0  0  0  0
 19 33  2  0  0  0  0
 19 35  1  0  0  0  0
 20 22  2  0  0  0  0
 20 41  1  0  0  0  0
 21 23  2  0  0  0  0
 21 42  1  0  0  0  0
 22 50  1  0  0  0  0
 23 43  1  0  0  0  0
 24 73  1  0  0  0  0
 25 31  1  0  0  0  0
 25 70  1  0  0  0  0
 26 85  1  0  0  0  0
 27 86  1  0  0  0  0
 28 30  2  0  0  0  0
 28 85  1  0  0  0  0
 29 87  1  0  0  0  0
 30 88  1  0  0  0  0
 31 89  1  0  0  0  0
 32 66  2  0  0  0  0
 33 67  1  0  0  0  0
 33 71  1  0  0  0  0
 34 74  1  0  0  0  0
 34 78  2  0  0  0  0
 35 72  1  0  0  0  0
 35 79  2  0  0  0  0
 36 51  1  0  0  0  0
 36 75  1  0  0  0  0
 36 80  2  0  0  0  0
 37 60  1  0  0  0  0
 37 61  1  0  0  0  0
 37 81  2  0  0  0  0
 38 62  1  0  0  0  0
 38 68  1  0  0  0  0
 38 82  2  0  0  0  0
 39 63  1  0  0  0  0
 39 76  1  0  0  0  0
 39 83  2  0  0  0  0
 40 69  1  0  0  0  0
 40 73  1  0  0  0  0
 40 84  2  0  0  0  0
 41 44  1  0  0  0  0
 42 51  1  0  0  0  0
 43 68  1  0  0  0  0
 44 46  1  0  0  0  0
 45 47  1  0  0  0  0
 45 48  1  0  0  0  0
 46 50  1  0  0  0  0
 47 52  1  0  0  0  0
 48 69  1  0  0  0  0
 49 52  1  0  0  0  0
 49 69  1  0  0  0  0
 50 75  1  0  0  0  0
 51 68  1  0  0  0  0
 52 67  1  0  0  0  0
 53 63  1  0  0  0  0
 54 64  1  0  0  0  0
 55 64  1  0  0  0  0
 56 65  1  0  0  0  0
 57 65  1  0  0  0  0
 58 65  1  0  0  0  0
 59 77  1  0  0  0  0
 60 86  1  0  0  0  0
 61 64  1  0  0  0  0
 61 74  1  0  0  0  0
 62 65  1  0  0  0  0
 62 76  1  0  0  0  0
 63 77  1  0  0  0  0
 66 67  1  0  0  0  0
M  CHG  1  77   1
M  ISO  4  40 100  60 101  73 100  86 101
M  END
> <Batch ID>
0172

> <Smiles>
CNC(C)C(=O)NC(C(=O)N1Cc2cc([101O:1][101CH2:1]C(=O)C(NC(=O)c3cc([100NH:0][100C:0](=O)N4CCCC(n5nc(-c6ccc(Oc7ccc(F)cc7F)cc6)c(C(N)=O)c5N)C4)cc(N)c3F)C(C)C)ccc2CC1C(=O)NC1CCCc2ccccc21)C(C)(C)C

> <Shape>
0.289

> <Color>
0.186

> <Negative vol penalty>
0.000

$$$$

  -OEChem-04052304263D

 84 92  0     1  0  0  0  0  0999 V2000
  -17.9795  -30.9817   25.8520 C   0  0  0  0  0  0  0  0  0  0  0  0
  -19.0815  -30.1881   26.1541 C   0  0  0  0  0  0  0  0  0  0  0  0
  -24.2976  -14.0346   20.6610 C   0  0  0  0  0  0  0  0  0  0  0  0
  -26.6843  -13.6602   20.6336 C   0  0  0  0  0  0  0  0  0  0  0  0
  -17.4482  -30.9732   24.5630 C   0  0  0  0  0  0  0  0  0  0  0  0
  -19.6521  -29.3847   25.1675 C   0  0  0  0  0  0  0  0  0  0  0  0
  -24.7094  -29.6459   25.1341 C   0  0  0  0  0  0  0  0  0  0  0  0
  -24.0832  -12.6907   20.3553 C   0  0  0  0  0  0  0  0  0  0  0  0
  -26.4699  -12.3162   20.3280 C   0  0  0  0  0  0  0  0  0  0  0  0
  -25.3909  -28.9196   26.1097 C   0  0  0  0  0  0  0  0  0  0  0  0
  -24.0913   -9.7319   21.9919 C   0  0  0  0  0  0  0  0  0  0  0  0
  -23.1103   -9.0515   22.7132 C   0  0  0  0  0  0  0  0  0  0  0  0
  -25.8389  -27.1836   24.4957 C   0  0  0  0  0  0  0  0  0  0  0  0
  -21.9174   -8.5968   20.6620 C   0  0  0  0  0  0  0  0  0  0  0  0
  -25.5982  -14.5194   20.8001 C   0  0  0  0  0  0  0  0  0  0  0  0
  -25.9253  -16.4824   22.3961 C   0  0  0  0  0  0  0  0  0  0  0  0
  -18.0185  -30.1766   23.5577 C   0  0  0  0  0  0  0  0  0  0  0  0
  -24.5778  -29.1406   23.8326 C   0  0  0  0  0  0  0  0  0  0  0  0
  -19.1271  -29.3645   23.8642 C   0  0  0  0  0  0  0  0  0  0  0  0
  -25.1574  -27.9066   23.5048 C   0  0  0  0  0  0  0  0  0  0  0  0
  -25.1693  -11.8314   20.1889 C   0  0  0  0  0  0  0  0  0  0  0  0
  -25.9533  -27.6869   25.7913 C   0  0  0  0  0  0  0  0  0  0  0  0
  -23.9853   -9.8448   20.6056 C   0  0  0  0  0  0  0  0  0  0  0  0
  -22.0234   -8.4840   22.0483 C   0  0  0  0  0  0  0  0  0  0  0  0
  -22.8984   -9.2773   19.9407 C   0  0  0  0  0  0  0  0  0  0  0  0
  -25.8203  -15.9077   21.1153 C   0  0  0  0  0  0  0  0  0  0  0  0
  -29.9959  -24.6637   23.2542 C   0  0  0  0  0  0  0  0  0  0  0  0
  -30.3476  -25.0657   21.9826 C   0  0  0  0  0  0  0  0  0  0  0  0
  -26.1331  -17.8188   22.1568 C   0  0  0  0  0  0  0  0  0  0  0  0
  -29.2718  -23.2269   21.4615 C   0  0  0  0  0  0  0  0  0  0  0  0
  -25.8426  -15.8635   23.6868 C   0  0  0  0  0  0  0  0  0  0  0  0
  -30.2631  -25.2864   24.5763 C   0  0  0  0  0  0  0  0  0  0  0  0
  -22.1282  -28.3010   21.9893 C   0  0  0  0  0  0  0  0  0  0  0  0
  -28.7403  -25.9907   27.3713 C   0  0  0  0  0  0  0  0  0  0  0  0
  -24.4440  -27.9365   19.7473 C   0  0  0  0  0  0  0  0  0  0  0  0
  -27.7374  -27.3784   19.0480 C   0  0  0  0  0  0  0  0  0  0  0  0
  -28.6587  -21.9361   19.3869 C   0  0  0  0  0  0  0  0  0  0  0  0
  -17.3802  -30.1647   22.1913 C   0  0  0  0  0  0  0  0  0  0  0  0
  -23.8626  -29.9487   22.7848 C   0  0  0  0  0  0  0  0  0  0  0  0
  -25.0618  -27.3294   22.1169 C   0  0  0  0  0  0  0  0  0  0  0  0
  -18.2742  -29.5695   21.1065 C   0  0  0  0  0  0  0  0  0  0  0  0
  -25.7771  -20.4926   17.8736 C   0  0  0  0  0  0  0  0  0  0  0  0
  -18.9003  -28.2643   21.5874 C   0  0  0  0  0  0  0  0  0  0  0  0
  -25.5401  -19.2183   18.6875 C   0  0  0  0  0  0  0  0  0  0  0  0
  -27.2663  -20.7769   17.6861 C   0  0  0  0  0  0  0  0  0  0  0  0
  -27.8168  -19.5314   19.7391 C   0  0  0  0  0  0  0  0  0  0  0  0
  -19.7893  -28.4983   22.8148 C   0  0  1  0  0  0  0  0  0  0  0  0
  -23.3468  -29.1014   21.6258 C   0  0  1  0  0  0  0  0  0  0  0  0
  -26.3319  -19.2387   20.0097 C   0  0  2  0  0  0  0  0  0  0  0  0
  -29.3219  -27.0953   17.1228 C   0  0  0  0  0  0  0  0  0  0  0  0
  -23.3899  -25.1085   19.2986 C   0  0  0  0  0  0  0  0  0  0  0  0
  -25.5294  -24.5740   18.1133 C   0  0  0  0  0  0  0  0  0  0  0  0
  -24.0107  -26.3342   17.2089 C   0  0  0  0  0  0  0  0  0  0  0  0
  -29.3261  -29.7405   19.8577 C   0  0  0  0  0  0  0  0  0  0  0  0
  -29.9154  -25.1009   27.0259 C   0  0  0  0  0  0  0  0  0  0  0  0
  -27.6803  -26.1321   26.2974 C   0  0  0  0  0  0  0  0  0  1  0  0
  -25.3385  -26.8022   19.3089 C   0  0  1  0  0  0  0  0  0  0  0  0
  -28.6990  -28.0767   18.1035 C   0  0  2  0  0  0  0  0  0  0  0  0
  -24.5674  -25.7145   18.5092 C   0  0  0  0  0  0  0  0  0  0  0  0
  -25.9504  -16.8056   20.1351 N   0  0  0  0  0  0  0  0  0  0  0  0
  -29.9336  -24.2428   20.9534 N   0  0  0  0  0  0  0  0  0  0  0  0
  -26.1393  -17.9580   20.8001 N   0  0  0  0  0  0  0  0  0  0  0  0
  -24.3470  -28.1544   21.1289 N   0  0  0  0  0  0  0  0  0  0  0  0
  -27.9507  -20.7851   18.9809 N   0  0  0  0  0  0  0  0  0  0  0  0
  -31.0532  -26.1905   21.7145 N   0  0  0  0  0  0  0  0  0  0  0  0
  -26.3092  -18.8767   22.9767 N   0  0  0  0  0  0  0  0  0  0  0  0
  -25.6256  -14.4804   23.7519 N   0  0  0  0  0  0  0  0  0  0  0  0
  -28.6726  -22.1482   20.7650 N   0  0  0  0  0  0  0  0  0  0  0  0
  -29.7605  -24.6141   25.6875 N   0  0  0  0  0  0  0  0  0  0  0  0
  -21.0600  -29.0658   22.4177 N   0  0  0  0  0  0  0  0  0  0  0  0
  -26.4423  -27.4128   18.5759 N   0  0  0  0  0  0  0  0  0  0  0  0
  -29.7945  -28.7330   18.8715 N   0  3  0  0  0  0  0  0  0  0  0  0
  -25.9413  -16.5202   24.7510 O   0  0  0  0  0  0  0  0  0  0  0  0
  -30.8802  -26.3472   24.6262 O   0  0  0  0  0  0  0  0  0  0  0  0
  -22.1546  -27.0801   21.8871 O   0  0  0  0  0  0  0  0  0  0  0  0
  -28.6713  -26.6053   28.4353 O   0  0  0  0  0  0  0  0  0  0  0  0
  -23.8586  -28.6091   18.8949 O   0  0  0  0  0  0  0  0  0  0  0  0
  -28.0995  -26.8516   20.0978 O   0  0  0  0  0  0  0  0  0  0  0  0
  -29.1889  -22.6936   18.5701 O   0  0  0  0  0  0  0  0  0  0  0  0
  -24.9605  -10.5199   19.8908 O   0  0  0  0  0  0  0  0  0  0  0  0
  -26.6185  -26.9756   26.7418 O   0  0  0  0  0  0  0  0  0  1  0  0
  -21.0822   -7.8293   22.7410 F   0  0  0  0  0  0  0  0  0  0  0  0
  -22.7918   -9.3815   18.6089 F   0  0  0  0  0  0  0  0  0  0  0  0
  -29.1090  -23.1983   23.1696 S   0  0  0  0  0  0  0  0  0  0  0  0
  1  2  1  0  0  0  0
  1  5  2  0  0  0  0
  2  6  2  0  0  0  0
  3  8  2  0  0  0  0
  3 15  1  0  0  0  0
  4  9  1  0  0  0  0
  4 15  2  0  0  0  0
  5 17  1  0  0  0  0
  6 19  1  0  0  0  0
  7 10  2  0  0  0  0
  7 18  1  0  0  0  0
  8 21  1  0  0  0  0
  9 21  2  0  0  0  0
 10 22  1  0  0  0  0
 11 12  2  0  0  0  0
 11 23  1  0  0  0  0
 12 24  1  0  0  0  0
 13 20  1  0  0  0  0
 13 22  2  0  0  0  0
 14 24  2  0  0  0  0
 14 25  1  0  0  0  0
 15 26  1  0  0  0  0
 16 26  1  0  0  0  0
 16 29  2  0  0  0  0
 16 31  1  0  0  0  0
 17 19  2  0  0  0  0
 17 38  1  0  0  0  0
 18 20  2  0  0  0  0
 18 39  1  0  0  0  0
 19 47  1  0  0  0  0
 20 40  1  0  0  0  0
 21 80  1  0  0  0  0
 22 81  1  0  0  0  0
 23 25  2  0  0  0  0
 23 80  1  0  0  0  0
 24 82  1  0  0  0  0
 25 83  1  0  0  0  0
 26 60  2  0  0  0  0
 27 28  2  0  0  0  0
 27 32  1  0  0  0  0
 27 84  1  0  0  0  0
 28 61  1  0  0  0  0
 28 65  1  0  0  0  0
 29 62  1  0  0  0  0
 29 66  1  0  0  0  0
 30 61  2  0  0  0  0
 30 68  1  0  0  0  0
 30 84  1  0  0  0  0
 31 67  1  0  0  0  0
 31 73  2  0  0  0  0
 32 69  1  0  0  0  0
 32 74  2  0  0  0  0
 33 48  1  0  0  0  0
 33 70  1  0  0  0  0
 33 75  2  0  0  0  0
 34 55  1  0  0  0  0
 34 56  1  0  0  0  0
 34 76  2  0  0  0  0
 35 57  1  0  0  0  0
 35 63  1  0  0  0  0
 35 77  2  0  0  0  0
 36 58  1  0  0  0  0
 36 71  1  0  0  0  0
 36 78  2  0  0  0  0
 37 64  1  0  0  0  0
 37 68  1  0  0  0  0
 37 79  2  0  0  0  0
 38 41  1  0  0  0  0
 39 48  1  0  0  0  0
 40 63  1  0  0  0  0
 41 43  1  0  0  0  0
 42 44  1  0  0  0  0
 42 45  1  0  0  0  0
 43 47  1  0  0  0  0
 44 49  1  0  0  0  0
 45 64  1  0  0  0  0
 46 49  1  0  0  0  0
 46 64  1  0  0  0  0
 47 70  1  0  0  0  0
 48 63  1  0  0  0  0
 49 62  1  0  0  0  0
 50 58  1  0  0  0  0
 51 59  1  0  0  0  0
 52 59  1  0  0  0  0
 53 59  1  0  0  0  0
 54 72  1  0  0  0  0
 55 69  1  0  0  0  0
 56 81  1  0  0  0  0
 57 59  1  0  0  0  0
 57 71  1  0  0  0  0
 58 72  1  0  0  0  0
 60 62  1  0  0  0  0
M  CHG  1  72   1
M  ISO  4  37 100  56 101  68 100  81 101
M  END
> <Batch ID>
0172

> <Smiles>
CNC(C)C(=O)NC(C(=O)N1Cc2cc([101O:1][101CH2:1]C(=O)CNC(=O)c3sc([100NH:0][100C:0](=O)N4CCCC(n5nc(-c6ccc(Oc7ccc(F)cc7F)cc6)c(C(N)=O)c5N)C4)nc3N)ccc2CC1C(=O)NC1CCCc2ccccc21)C(C)(C)C

> <Shape>
0.224

> <Color>
0.084

> <Negative vol penalty>
0.000

$$$$

  -OEChem-04052304263D

 85 93  0     1  0  0  0  0  0999 V2000
  -26.1793  -35.6709   21.9567 C   0  0  0  0  0  0  0  0  0  0  0  0
  -26.6998  -34.3808   21.9463 C   0  0  0  0  0  0  0  0  0  0  0  0
  -25.1295   -8.7275   21.5338 C   0  0  0  0  0  0  0  0  0  0  0  0
  -23.6087  -10.5723   21.1863 C   0  0  0  0  0  0  0  0  0  0  0  0
  -24.8942  -35.8989   22.4469 C   0  0  0  0  0  0  0  0  0  0  0  0
  -25.9358  -33.3180   22.4271 C   0  0  0  0  0  0  0  0  0  0  0  0
  -26.1197  -29.2654   19.3960 C   0  0  0  0  0  0  0  0  0  0  0  0
  -24.0524   -7.8413   21.5430 C   0  0  0  0  0  0  0  0  0  0  0  0
  -22.5315   -9.6861   21.1955 C   0  0  0  0  0  0  0  0  0  0  0  0
  -27.2611  -28.4679   19.4678 C   0  0  0  0  0  0  0  0  0  0  0  0
  -21.6547   -6.8583   23.7131 C   0  0  0  0  0  0  0  0  0  0  0  0
  -21.6289   -5.8812   24.7082 C   0  0  0  0  0  0  0  0  0  0  0  0
  -26.0735  -26.9049   20.8699 C   0  0  0  0  0  0  0  0  0  0  0  0
  -29.0929  -20.0112   20.5734 C   0  0  0  0  0  0  0  0  0  0  0  0
  -29.1995  -19.3621   23.2845 C   0  0  0  0  0  0  0  0  0  0  0  0
  -21.6452   -4.1571   23.0158 C   0  0  0  0  0  0  0  0  0  0  0  0
  -24.9076  -10.0930   21.3555 C   0  0  0  0  0  0  0  0  0  0  0  0
  -26.7733  -11.4203   20.2307 C   0  0  0  0  0  0  0  0  0  0  0  0
  -24.1103  -34.8370   22.9251 C   0  0  0  0  0  0  0  0  0  0  0  0
  -24.9480  -28.8935   20.0708 C   0  0  0  0  0  0  0  0  0  0  0  0
  -24.6395  -33.5322   22.9254 C   0  0  0  0  0  0  0  0  0  0  0  0
  -24.9179  -27.6981   20.8030 C   0  0  0  0  0  0  0  0  0  0  0  0
  -29.0442  -18.6758   20.9732 C   0  0  0  0  0  0  0  0  0  0  0  0
  -29.1950  -21.0221   21.5291 C   0  0  0  0  0  0  0  0  0  0  0  0
  -29.0975  -18.3512   22.3287 C   0  0  0  0  0  0  0  0  0  0  0  0
  -22.7534   -8.3205   21.3739 C   0  0  0  0  0  0  0  0  0  0  0  0
  -27.2389  -27.2889   20.2071 C   0  0  0  0  0  0  0  0  0  0  0  0
  -21.6757   -6.4848   22.3693 C   0  0  0  0  0  0  0  0  0  0  0  0
  -21.6241   -4.5307   24.3596 C   0  0  0  0  0  0  0  0  0  0  0  0
  -29.2483  -20.6975   22.8847 C   0  0  0  0  0  0  0  0  0  0  0  0
  -21.6710   -5.1343   22.0207 C   0  0  0  0  0  0  0  0  0  0  0  0
  -26.0198  -11.0090   21.3464 C   0  0  0  0  0  0  0  0  0  0  0  0
  -27.7056  -12.2871   20.7466 C   0  0  0  0  0  0  0  0  0  0  0  0
  -26.6422  -11.0518   18.8513 C   0  0  0  0  0  0  0  0  0  0  0  0
  -29.2759  -24.3519   19.7783 C   0  0  0  0  0  0  0  0  0  0  0  0
  -29.2011  -22.8533   19.8293 C   0  0  0  0  0  0  0  0  0  0  0  0
  -23.1930  -30.1744   22.3909 C   0  0  0  0  0  0  0  0  0  0  0  0
  -21.2049  -27.7003   21.7210 C   0  0  0  0  0  0  0  0  0  0  0  0
  -20.8161  -24.5610   20.4402 C   0  0  0  0  0  0  0  0  0  0  0  0
  -29.0956  -16.5318   24.0712 C   0  0  0  0  0  0  0  0  0  0  0  0
  -22.7446  -35.1393   23.4889 C   0  0  0  0  0  0  0  0  0  0  0  0
  -23.7172  -29.7511   19.9615 C   0  0  0  0  0  0  0  0  0  0  0  0
  -23.6789  -27.2439   21.5290 C   0  0  0  0  0  0  0  0  0  0  0  0
  -21.8583  -33.9048   23.6334 C   0  0  0  0  0  0  0  0  0  0  0  0
  -28.9690  -13.2926   25.5439 C   0  0  0  0  0  0  0  0  0  0  0  0
  -22.6352  -32.7627   24.2807 C   0  0  0  0  0  0  0  0  0  0  0  0
  -28.2524  -12.4436   24.4914 C   0  0  0  0  0  0  0  0  0  0  0  0
  -28.4019  -14.7095   25.6117 C   0  0  0  0  0  0  0  0  0  0  0  0
  -27.6341  -14.5708   23.2749 C   0  0  0  0  0  0  0  0  0  0  0  0
  -23.8321  -32.3498   23.4156 C   0  0  1  0  0  0  0  0  0  0  0  0
  -22.7357  -29.5367   21.1096 C   0  0  1  0  0  0  0  0  0  0  0  0
  -28.2138  -13.1548   23.1245 C   0  0  2  0  0  0  0  0  0  0  0  0
  -19.0809  -22.7872   20.0660 C   0  0  0  0  0  0  0  0  0  0  0  0
  -21.3034  -26.9820   24.6848 C   0  0  0  0  0  0  0  0  0  0  0  0
  -20.3731  -24.7326   24.0992 C   0  0  0  0  0  0  0  0  0  0  0  0
  -19.0396  -26.7901   23.6396 C   0  0  0  0  0  0  0  0  0  0  0  0
  -21.1963  -24.6445   17.5064 C   0  0  0  0  0  0  0  0  0  0  0  0
  -28.1518  -25.1053   20.4403 C   0  0  0  0  0  0  0  0  0  1  0  0
  -21.0628  -26.2798   22.2120 C   0  0  1  0  0  0  0  0  0  0  0  0
  -19.7990  -23.9878   19.4698 C   0  0  2  0  0  0  0  0  0  0  0  0
  -20.4688  -26.2054   23.6469 C   0  0  0  0  0  0  0  0  0  0  0  0
  -26.4373  -11.5684   22.4852 N   0  0  0  0  0  0  0  0  0  0  0  0
  -27.4634  -12.3399   22.0877 N   0  0  0  0  0  0  0  0  0  0  0  0
  -22.5029  -28.1199   21.3970 N   0  0  0  0  0  0  0  0  0  0  0  0
  -28.4004  -15.3221   24.2814 N   0  0  0  0  0  0  0  0  0  0  0  0
  -28.9421  -17.6678   19.9883 N   0  0  0  0  0  0  0  0  0  0  0  0
  -28.7006  -13.0015   20.1793 N   0  0  0  0  0  0  0  0  0  0  0  0
  -25.6309  -10.1498   18.4939 N   0  0  0  0  0  0  0  0  0  0  0  0
  -29.2437  -22.3756   21.1214 N   0  0  0  0  0  0  0  0  0  0  0  0
  -29.0508  -17.0020   22.7591 N   0  0  0  0  0  0  0  0  0  0  0  0
  -23.3936  -31.5385   22.3002 N   0  0  0  0  0  0  0  0  0  0  0  0
  -20.2784  -25.5758   21.2033 N   0  0  0  0  0  0  0  0  0  0  0  0
  -20.4700  -23.5568   18.2109 N   0  3  0  0  0  0  0  0  0  0  0  0
  -27.4100  -11.4963   17.9644 O   0  0  0  0  0  0  0  0  0  0  0  0
  -30.2241  -24.8511   19.1914 O   0  0  0  0  0  0  0  0  0  0  0  0
  -29.1410  -22.2725   18.7583 O   0  0  0  0  0  0  0  0  0  0  0  0
  -23.3508  -29.4803   23.3885 O   0  0  0  0  0  0  0  0  0  0  0  0
  -20.2003  -28.4091   21.6216 O   0  0  0  0  0  0  0  0  0  0  0  0
  -21.9708  -24.1471   20.5165 O   0  0  0  0  0  0  0  0  0  0  0  0
  -29.7098  -17.0940   24.9815 O   0  0  0  0  0  0  0  0  0  0  0  0
  -21.7022   -7.4561   21.3826 O   0  0  0  0  0  0  0  0  0  0  0  0
  -28.3518  -26.5090   20.2793 O   0  0  0  0  0  0  0  0  0  1  0  0
  -21.6008   -3.5925   25.3153 F   0  0  0  0  0  0  0  0  0  0  0  0
  -29.3466  -21.6608   23.8120 F   0  0  0  0  0  0  0  0  0  0  0  0
  -21.6923   -4.7693   20.7314 F   0  0  0  0  0  0  0  0  0  0  0  0
  1  2  1  0  0  0  0
  1  5  2  0  0  0  0
  2  6  2  0  0  0  0
  3  8  2  0  0  0  0
  3 17  1  0  0  0  0
  4  9  1  0  0  0  0
  4 17  2  0  0  0  0
  5 19  1  0  0  0  0
  6 21  1  0  0  0  0
  7 10  2  0  0  0  0
  7 20  1  0  0  0  0
  8 26  1  0  0  0  0
  9 26  2  0  0  0  0
 10 27  1  0  0  0  0
 11 12  2  0  0  0  0
 11 28  1  0  0  0  0
 12 29  1  0  0  0  0
 13 22  1  0  0  0  0
 13 27  2  0  0  0  0
 14 23  2  0  0  0  0
 14 24  1  0  0  0  0
 15 25  2  0  0  0  0
 15 30  1  0  0  0  0
 16 29  2  0  0  0  0
 16 31  1  0  0  0  0
 17 32  1  0  0  0  0
 18 32  1  0  0  0  0
 18 33  2  0  0  0  0
 18 34  1  0  0  0  0
 19 21  2  0  0  0  0
 19 41  1  0  0  0  0
 20 22  2  0  0  0  0
 20 42  1  0  0  0  0
 21 50  1  0  0  0  0
 22 43  1  0  0  0  0
 23 25  1  0  0  0  0
 23 66  1  0  0  0  0
 24 30  2  0  0  0  0
 24 69  1  0  0  0  0
 25 70  1  0  0  0  0
 26 81  1  0  0  0  0
 27 82  1  0  0  0  0
 28 31  2  0  0  0  0
 28 81  1  0  0  0  0
 29 83  1  0  0  0  0
 30 84  1  0  0  0  0
 31 85  1  0  0  0  0
 32 62  2  0  0  0  0
 33 63  1  0  0  0  0
 33 67  1  0  0  0  0
 34 68  1  0  0  0  0
 34 74  2  0  0  0  0
 35 36  1  0  0  0  0
 35 58  1  0  0  0  0
 35 75  2  0  0  0  0
 36 69  1  0  0  0  0
 36 76  2  0  0  0  0
 37 51  1  0  0  0  0
 37 71  1  0  0  0  0
 37 77  2  0  0  0  0
 38 59  1  0  0  0  0
 38 64  1  0  0  0  0
 38 78  2  0  0  0  0
 39 60  1  0  0  0  0
 39 72  1  0  0  0  0
 39 79  2  0  0  0  0
 40 65  1  0  0  0  0
 40 70  1  0  0  0  0
 40 80  2  0  0  0  0
 41 44  1  0  0  0  0
 42 51  1  0  0  0  0
 43 64  1  0  0  0  0
 44 46  1  0  0  0  0
 45 47  1  0  0  0  0
 45 48  1  0  0  0  0
 46 50  1  0  0  0  0
 47 52  1  0  0  0  0
 48 65  1  0  0  0  0
 49 52  1  0  0  0  0
 49 65  1  0  0  0  0
 50 71  1  0  0  0  0
 51 64  1  0  0  0  0
 52 63  1  0  0  0  0
 53 60  1  0  0  0  0
 54 61  1  0  0  0  0
 55 61  1  0  0  0  0
 56 61  1  0  0  0  0
 57 73  1  0  0  0  0
 58 82  1  0  0  0  0
 59 61  1  0  0  0  0
 59 72  1  0  0  0  0
 60 73  1  0  0  0  0
 62 63  1  0  0  0  0
M  CHG  1  73   1
M  ISO  4  40 100  58 101  70 100  82 101
M  END
> <Batch ID>
0172

> <Smiles>
CNC(C)C(=O)NC(C(=O)N1Cc2cc([101O:1][101CH2:1]C(=O)C(=O)Nc3cc(N)c([100NH:0][100C:0](=O)N4CCCC(n5nc(-c6ccc(Oc7ccc(F)cc7F)cc6)c(C(N)=O)c5N)C4)cc3F)ccc2CC1C(=O)NC1CCCc2ccccc21)C(C)(C)C

> <Shape>
0.310

> <Color>
0.115

> <Negative vol penalty>
0.000

$$$$

  -OEChem-04052304263D

 86 94  0     1  0  0  0  0  0999 V2000
  -27.9668  -33.3305   14.8424 C   0  0  0  0  0  0  0  0  0  0  0  0
  -27.6752  -31.9857   15.0472 C   0  0  0  0  0  0  0  0  0  0  0  0
  -23.0069  -10.1198   19.9217 C   0  0  0  0  0  0  0  0  0  0  0  0
  -23.8634   -9.9414   22.1737 C   0  0  0  0  0  0  0  0  0  0  0  0
  -28.3161  -34.1393   15.9230 C   0  0  0  0  0  0  0  0  0  0  0  0
  -27.7337  -31.4488   16.3328 C   0  0  0  0  0  0  0  0  0  0  0  0
  -24.1452  -27.0646   18.6582 C   0  0  0  0  0  0  0  0  0  0  0  0
  -30.4272  -20.1176   19.4661 C   0  0  0  0  0  0  0  0  0  0  0  0
  -22.2340   -8.9766   20.1251 C   0  0  0  0  0  0  0  0  0  0  0  0
  -23.0905   -8.7983   22.3771 C   0  0  0  0  0  0  0  0  0  0  0  0
  -24.3273  -25.6921   18.8218 C   0  0  0  0  0  0  0  0  0  0  0  0
  -19.8647   -8.0649   23.0678 C   0  0  0  0  0  0  0  0  0  0  0  0
  -31.6297  -19.4135   19.4038 C   0  0  0  0  0  0  0  0  0  0  0  0
  -19.1573   -7.9675   24.2660 C   0  0  0  0  0  0  0  0  0  0  0  0
  -25.0383  -26.0637   21.0968 C   0  0  0  0  0  0  0  0  0  0  0  0
  -20.3596   -5.9441   24.8113 C   0  0  0  0  0  0  0  0  0  0  0  0
  -23.8217  -10.6022   20.9460 C   0  0  0  0  0  0  0  0  0  0  0  0
  -24.2471  -13.1172   20.9843 C   0  0  0  0  0  0  0  0  0  0  0  0
  -28.3695  -33.6143   17.2238 C   0  0  0  0  0  0  0  0  0  0  0  0
  -24.4192  -27.9495   19.7110 C   0  0  0  0  0  0  0  0  0  0  0  0
  -28.0853  -32.2510   17.4316 C   0  0  0  0  0  0  0  0  0  0  0  0
  -24.8565  -27.4468   20.9448 C   0  0  0  0  0  0  0  0  0  0  0  0
  -30.8408  -17.9138   21.1259 C   0  0  0  0  0  0  0  0  0  0  0  0
  -29.4315  -19.7198   20.3583 C   0  0  0  0  0  0  0  0  0  0  0  0
  -22.2758   -8.3159   21.3528 C   0  0  0  0  0  0  0  0  0  0  0  0
  -24.7766  -25.1917   20.0403 C   0  0  0  0  0  0  0  0  0  0  0  0
  -20.8195   -7.1019   22.7413 C   0  0  0  0  0  0  0  0  0  0  0  0
  -19.4048   -6.9071   25.1377 C   0  0  0  0  0  0  0  0  0  0  0  0
  -31.8365  -18.3116   20.2336 C   0  0  0  0  0  0  0  0  0  0  0  0
  -21.0670   -6.0415   23.6130 C   0  0  0  0  0  0  0  0  0  0  0  0
  -29.6383  -18.6179   21.1882 C   0  0  0  0  0  0  0  0  0  0  0  0
  -24.6207  -11.7827   20.7363 C   0  0  0  0  0  0  0  0  0  0  0  0
  -25.3487  -13.8546   20.6247 C   0  0  0  0  0  0  0  0  0  0  0  0
  -26.1809  -23.3263   19.9025 C   0  0  0  0  0  0  0  0  0  1  0  0
  -23.0147  -13.6432   21.4943 C   0  0  0  0  0  0  0  0  0  0  0  0
  -26.4678  -22.0246   20.0246 C   0  0  0  0  0  0  0  0  0  0  0  0
  -27.8441  -21.5466   19.6703 C   0  0  0  0  0  0  0  0  0  0  0  0
  -26.4518  -30.3536   20.1491 C   0  0  0  0  0  0  0  0  0  0  0  0
  -24.8151  -30.7182   22.9259 C   0  0  0  0  0  0  0  0  0  0  0  0
  -22.8539  -29.3119   25.3390 C   0  0  0  0  0  0  0  0  0  0  0  0
  -30.8681  -14.6802   20.6362 C   0  0  0  0  0  0  0  0  0  0  0  0
  -28.7980  -34.5166   18.3538 C   0  0  0  0  0  0  0  0  0  0  0  0
  -24.1921  -29.4249   19.5269 C   0  0  0  0  0  0  0  0  0  0  0  0
  -25.1454  -28.3528   22.1128 C   0  0  0  0  0  0  0  0  0  0  0  0
  -28.4723  -33.9577   19.7365 C   0  0  0  0  0  0  0  0  0  0  0  0
  -29.5464  -12.5069   18.1449 C   0  0  0  0  0  0  0  0  0  0  0  0
  -28.8828  -32.4916   19.8300 C   0  0  0  0  0  0  0  0  0  0  0  0
  -28.1192  -12.2301   18.6207 C   0  0  0  0  0  0  0  0  0  0  0  0
  -30.5210  -12.6132   19.3157 C   0  0  0  0  0  0  0  0  0  0  0  0
  -28.7070  -13.3064   20.8332 C   0  0  0  0  0  0  0  0  0  0  0  0
  -28.1137  -31.6376   18.8147 C   0  0  1  0  0  0  0  0  0  0  0  0
  -24.9937  -30.2793   20.5041 C   0  0  1  0  0  0  0  0  0  0  0  0
  -27.6780  -13.2463   19.6912 C   0  0  2  0  0  0  0  0  0  0  0  0
  -21.7048  -29.8494   27.5042 C   0  0  0  0  0  0  0  0  0  0  0  0
  -27.4961  -30.5927   24.3771 C   0  0  0  0  0  0  0  0  0  0  0  0
  -26.2454  -30.1778   26.5059 C   0  0  0  0  0  0  0  0  0  0  0  0
  -25.9110  -32.3134   25.2609 C   0  0  0  0  0  0  0  0  0  0  0  0
  -20.1867  -28.7088   24.2071 C   0  0  0  0  0  0  0  0  0  0  0  0
  -31.0625  -16.7355   22.0135 C   0  0  0  0  0  0  0  0  0  0  0  0
  -24.9496  -30.1701   24.3260 C   0  0  1  0  0  0  0  0  0  0  0  0
  -21.5664  -29.7823   25.9912 C   0  0  2  0  0  0  0  0  0  0  0  0
  -26.1471  -30.7963   25.0951 C   0  0  0  0  0  0  0  0  0  0  0  0
  -25.8624  -11.6756   20.2561 N   0  0  0  0  0  0  0  0  0  0  0  0
  -26.2787  -12.9522   20.1994 N   0  0  0  0  0  0  0  0  0  0  0  0
  -24.9141  -29.7882   21.8813 N   0  0  0  0  0  0  0  0  0  0  0  0
  -30.0453  -13.5943   20.2940 N   0  0  0  0  0  0  0  0  0  0  0  0
  -25.6027  -15.1804   20.6338 N   0  0  0  0  0  0  0  0  0  0  0  0
  -21.9865  -12.7458   21.8134 N   0  0  0  0  0  0  0  0  0  0  0  0
  -28.2125  -20.4373   20.4191 N   0  0  0  0  0  0  0  0  0  0  0  0
  -26.7685  -31.3836   19.2840 N   0  0  0  0  0  0  0  0  0  0  0  0
  -23.6556  -30.3711   24.9691 N   0  0  0  0  0  0  0  0  0  0  0  0
  -30.3385  -15.5666   21.5660 N   0  0  0  0  0  0  0  0  0  0  0  0
  -20.4493  -28.8523   25.6623 N   0  3  0  0  0  0  0  0  0  0  0  0
  -22.8247  -14.8737   21.6465 O   0  0  0  0  0  0  0  0  0  0  0  0
  -28.5073  -22.1170   18.8109 O   0  0  0  0  0  0  0  0  0  0  0  0
  -27.2321  -29.5379   20.6260 O   0  0  0  0  0  0  0  0  0  0  0  0
  -24.6219  -31.9259   22.7652 O   0  0  0  0  0  0  0  0  0  0  0  0
  -23.1234  -28.1237   25.1774 O   0  0  0  0  0  0  0  0  0  0  0  0
  -31.9892  -14.8502   20.1451 O   0  0  0  0  0  0  0  0  0  0  0  0
  -25.5441  -21.0994   20.4670 O   0  0  0  0  0  0  0  0  0  0  0  0
  -21.5216   -7.2004   21.5517 O   0  0  0  0  0  0  0  0  0  0  0  0
  -24.9558  -23.8525   20.2025 O   0  0  0  0  0  0  0  0  0  1  0  0
  -18.7265   -6.8145   26.2890 F   0  0  0  0  0  0  0  0  0  0  0  0
  -32.9944  -17.6402   20.1651 F   0  0  0  0  0  0  0  0  0  0  0  0
  -21.9839   -5.1139   23.3053 F   0  0  0  0  0  0  0  0  0  0  0  0
  -28.6817  -18.2346   22.0474 F   0  0  0  0  0  0  0  0  0  0  0  0
  1  2  1  0  0  0  0
  1  5  2  0  0  0  0
  2  6  2  0  0  0  0
  3  9  2  0  0  0  0
  3 17  1  0  0  0  0
  4 10  1  0  0  0  0
  4 17  2  0  0  0  0
  5 19  1  0  0  0  0
  6 21  1  0  0  0  0
  7 11  2  0  0  0  0
  7 20  1  0  0  0  0
  8 13  2  0  0  0  0
  8 24  1  0  0  0  0
  9 25  1  0  0  0  0
 10 25  2  0  0  0  0
 11 26  1  0  0  0  0
 12 14  2  0  0  0  0
 12 27  1  0  0  0  0
 13 29  1  0  0  0  0
 14 28  1  0  0  0  0
 15 22  1  0  0  0  0
 15 26  2  0  0  0  0
 16 28  2  0  0  0  0
 16 30  1  0  0  0  0
 17 32  1  0  0  0  0
 18 32  1  0  0  0  0
 18 33  2  0  0  0  0
 18 35  1  0  0  0  0
 19 21  2  0  0  0  0
 19 42  1  0  0  0  0
 20 22  2  0  0  0  0
 20 43  1  0  0  0  0
 21 51  1  0  0  0  0
 22 44  1  0  0  0  0
 23 29  2  0  0  0  0
 23 31  1  0  0  0  0
 23 59  1  0  0  0  0
 24 31  2  0  0  0  0
 24 69  1  0  0  0  0
 25 81  1  0  0  0  0
 26 82  1  0  0  0  0
 27 30  2  0  0  0  0
 27 81  1  0  0  0  0
 28 83  1  0  0  0  0
 29 84  1  0  0  0  0
 30 85  1  0  0  0  0
 31 86  1  0  0  0  0
 32 63  2  0  0  0  0
 33 64  1  0  0  0  0
 33 67  1  0  0  0  0
 34 36  2  0  0  0  0
 34 82  1  0  0  0  0
 35 68  1  0  0  0  0
 35 74  2  0  0  0  0
 36 37  1  0  0  0  0
 36 80  1  0  0  0  0
 37 69  1  0  0  0  0
 37 75  2  0  0  0  0
 38 52  1  0  0  0  0
 38 70  1  0  0  0  0
 38 76  2  0  0  0  0
 39 60  1  0  0  0  0
 39 65  1  0  0  0  0
 39 77  2  0  0  0  0
 40 61  1  0  0  0  0
 40 71  1  0  0  0  0
 40 78  2  0  0  0  0
 41 66  1  0  0  0  0
 41 72  1  0  0  0  0
 41 79  2  0  0  0  0
 42 45  1  0  0  0  0
 43 52  1  0  0  0  0
 44 65  1  0  0  0  0
 45 47  1  0  0  0  0
 46 48  1  0  0  0  0
 46 49  1  0  0  0  0
 47 51  1  0  0  0  0
 48 53  1  0  0  0  0
 49 66  1  0  0  0  0
 50 53  1  0  0  0  0
 50 66  1  0  0  0  0
 51 70  1  0  0  0  0
 52 65  1  0  0  0  0
 53 64  1  0  0  0  0
 54 61  1  0  0  0  0
 55 62  1  0  0  0  0
 56 62  1  0  0  0  0
 57 62  1  0  0  0  0
 58 73  1  0  0  0  0
 59 72  1  0  0  0  0
 60 62  1  0  0  0  0
 60 71  1  0  0  0  0
 61 73  1  0  0  0  0
 63 64  1  0  0  0  0
M  CHG  1  73   1
M  ISO  4  34 101  41 100  72 100  82 101
M  END
> <Batch ID>
0172

> <Smiles>
CNC(C)C(=O)NC(C(=O)N1Cc2cc([101O:1][101CH2:1]C(=O)C(=O)Nc3ccc(F)c(C[100NH:0][100C:0](=O)N4CCCC(n5nc(-c6ccc(Oc7ccc(F)cc7F)cc6)c(C(N)=O)c5N)C4)c3F)ccc2CC1C(=O)NC1CCCc2ccccc21)C(C)(C)C

> <Shape>
0.322

> <Color>
0.219

> <Negative vol penalty>
0.000

$$$$

  -OEChem-04052304263D

 86 94  0     1  0  0  0  0  0999 V2000
  -29.3329  -35.4118   24.9860 C   0  0  0  0  0  0  0  0  0  0  0  0
  -29.4749  -34.0772   24.6199 C   0  0  0  0  0  0  0  0  0  0  0  0
  -23.5029   -9.6287   20.2362 C   0  0  0  0  0  0  0  0  0  0  0  0
  -24.0068  -10.1025   22.5511 C   0  0  0  0  0  0  0  0  0  0  0  0
  -28.0646  -35.9332   25.2379 C   0  0  0  0  0  0  0  0  0  0  0  0
  -28.3486  -33.2628   24.5066 C   0  0  0  0  0  0  0  0  0  0  0  0
  -27.4847  -28.7110   20.5015 C   0  0  0  0  0  0  0  0  0  0  0  0
  -22.9039   -8.4266   20.6126 C   0  0  0  0  0  0  0  0  0  0  0  0
  -23.4078   -8.9003   22.9275 C   0  0  0  0  0  0  0  0  0  0  0  0
  -27.6233  -27.3279   20.6092 C   0  0  0  0  0  0  0  0  0  0  0  0
  -20.2760   -7.7163   23.3864 C   0  0  0  0  0  0  0  0  0  0  0  0
  -19.4121   -7.7394   24.4812 C   0  0  0  0  0  0  0  0  0  0  0  0
  -25.2622  -27.1327   21.0634 C   0  0  0  0  0  0  0  0  0  0  0  0
  -30.8363  -18.7429   21.4107 C   0  0  0  0  0  0  0  0  0  0  0  0
  -20.8250   -6.1515   25.6298 C   0  0  0  0  0  0  0  0  0  0  0  0
  -24.0544  -10.4667   21.2055 C   0  0  0  0  0  0  0  0  0  0  0  0
  -24.0534  -12.9661   20.6951 C   0  0  0  0  0  0  0  0  0  0  0  0
  -26.9214  -35.1274   25.1182 C   0  0  0  0  0  0  0  0  0  0  0  0
  -26.2337  -29.3174   20.6850 C   0  0  0  0  0  0  0  0  0  0  0  0
  -27.0640  -33.7736   24.7584 C   0  0  0  0  0  0  0  0  0  0  0  0
  -25.1099  -28.5235   20.9550 C   0  0  0  0  0  0  0  0  0  0  0  0
  -30.6786  -20.0870   21.8563 C   0  0  0  0  0  0  0  0  0  0  0  0
  -22.8564   -8.0624   21.9583 C   0  0  0  0  0  0  0  0  0  0  0  0
  -26.5126  -26.5388   20.8931 C   0  0  0  0  0  0  0  0  0  0  0  0
  -21.4145   -6.9107   23.4133 C   0  0  0  0  0  0  0  0  0  0  0  0
  -19.6865   -6.9571   25.6029 C   0  0  0  0  0  0  0  0  0  0  0  0
  -21.6890   -6.1284   24.5350 C   0  0  0  0  0  0  0  0  0  0  0  0
  -24.6738  -11.7083   20.8173 C   0  0  0  0  0  0  0  0  0  0  0  0
  -25.0633  -13.8105   20.3034 C   0  0  0  0  0  0  0  0  0  0  0  0
  -29.7053  -17.9883   21.6320 C   0  0  0  0  0  0  0  0  0  0  0  0
  -29.4329  -20.3086   22.4012 C   0  0  0  0  0  0  0  0  0  0  0  0
  -26.9280  -24.6648   22.2296 C   0  0  0  0  0  0  0  0  0  1  0  0
  -22.6864  -13.3379   20.9162 C   0  0  0  0  0  0  0  0  0  0  0  0
  -27.0794  -23.3537   22.4489 C   0  0  0  0  0  0  0  0  0  0  0  0
  -27.3787  -22.8880   23.8343 C   0  0  0  0  0  0  0  0  0  0  0  0
  -28.1646  -21.6771   23.9332 C   0  0  0  0  0  0  0  0  0  0  0  0
  -25.0431  -31.4250   22.7452 C   0  0  0  0  0  0  0  0  0  0  0  0
  -22.4445  -31.2626   20.8105 C   0  0  0  0  0  0  0  0  0  0  0  0
  -20.6394  -29.4811   18.5270 C   0  0  0  0  0  0  0  0  0  0  0  0
  -30.2819  -15.6995   20.7513 C   0  0  0  0  0  0  0  0  0  0  0  0
  -25.5755  -35.7234   25.4467 C   0  0  0  0  0  0  0  0  0  0  0  0
  -26.0960  -30.8081   20.5391 C   0  0  0  0  0  0  0  0  0  0  0  0
  -23.7411  -29.1236   21.1406 C   0  0  0  0  0  0  0  0  0  0  0  0
  -24.4006  -34.8909   24.9398 C   0  0  0  0  0  0  0  0  0  0  0  0
  -29.7707  -12.8103   18.7344 C   0  0  0  0  0  0  0  0  0  0  0  0
  -24.6046  -33.4177   25.2788 C   0  0  0  0  0  0  0  0  0  0  0  0
  -28.3481  -12.3695   19.0864 C   0  0  0  0  0  0  0  0  0  0  0  0
  -30.5126  -13.3578   19.9524 C   0  0  0  0  0  0  0  0  0  0  0  0
  -28.3879  -13.9821   21.0319 C   0  0  0  0  0  0  0  0  0  0  0  0
  -25.8641  -32.8649   24.6008 C   0  0  1  0  0  0  0  0  0  0  0  0
  -24.8698  -31.3676   21.2538 C   0  0  1  0  0  0  0  0  0  0  0  0
  -27.5790  -13.4836   19.8233 C   0  0  2  0  0  0  0  0  0  0  0  0
  -31.7389  -21.1167   21.7414 C   0  0  0  0  0  0  0  0  0  0  0  0
  -18.5415  -29.5924   17.1545 C   0  0  0  0  0  0  0  0  0  0  0  0
  -20.7881  -30.6411   23.2965 C   0  0  0  0  0  0  0  0  0  0  0  0
  -18.9553  -29.8412   21.7901 C   0  0  0  0  0  0  0  0  0  0  0  0
  -19.7032  -32.2188   21.6876 C   0  0  0  0  0  0  0  0  0  0  0  0
  -28.6563  -19.6654   25.3385 C   0  0  0  0  0  0  0  0  0  0  0  0
  -22.1531  -29.3216   15.9888 C   0  0  0  0  0  0  0  0  0  0  0  0
  -21.2020  -30.4068   20.7588 C   0  0  1  0  0  0  0  0  0  0  0  0
  -20.0352  -29.8756   17.1914 C   0  0  2  0  0  0  0  0  0  0  0  0
  -20.1882  -30.7655   21.8817 C   0  0  0  0  0  0  0  0  0  0  0  0
  -25.9769  -11.7457   20.5264 N   0  0  0  0  0  0  0  0  0  0  0  0
  -26.1835  -13.0372   20.2176 N   0  0  0  0  0  0  0  0  0  0  0  0
  -23.6588  -30.5863   20.9944 N   0  0  0  0  0  0  0  0  0  0  0  0
  -29.7261  -14.4119   20.5968 N   0  0  0  0  0  0  0  0  0  0  0  0
  -25.0935  -15.1316   20.0272 N   0  0  0  0  0  0  0  0  0  0  0  0
  -21.7804  -12.3460   21.3156 N   0  0  0  0  0  0  0  0  0  0  0  0
  -29.0085  -21.5091   22.9088 N   0  0  0  0  0  0  0  0  0  0  0  0
  -29.4294  -16.6277   21.3482 N   0  0  0  0  0  0  0  0  0  0  0  0
  -25.6097  -32.6000   23.2010 N   0  0  0  0  0  0  0  0  0  0  0  0
  -20.6693  -30.5419   19.4073 N   0  0  0  0  0  0  0  0  0  0  0  0
  -27.9747  -20.9281   25.0249 N   0  3  0  0  0  0  0  0  0  0  0  0
  -20.6847  -29.1176   16.0849 N   0  3  0  0  0  0  0  0  0  0  0  0
  -22.2770  -14.5116   20.7481 O   0  0  0  0  0  0  0  0  0  0  0  0
  -26.9884  -23.4736   24.8372 O   0  0  0  0  0  0  0  0  0  0  0  0
  -24.6877  -30.4742   23.4318 O   0  0  0  0  0  0  0  0  0  0  0  0
  -22.3422  -32.4855   20.6850 O   0  0  0  0  0  0  0  0  0  0  0  0
  -21.0410  -28.3445   18.7666 O   0  0  0  0  0  0  0  0  0  0  0  0
  -31.4199  -15.9668   20.3568 O   0  0  0  0  0  0  0  0  0  0  0  0
  -26.9558  -22.4097   21.4523 O   0  0  0  0  0  0  0  0  0  0  0  0
  -22.2717   -6.8895   22.3259 O   0  0  0  0  0  0  0  0  0  0  0  0
  -26.6452  -25.1887   20.9994 O   0  0  0  0  0  0  0  0  0  1  0  0
  -18.8576   -6.9805   26.6548 F   0  0  0  0  0  0  0  0  0  0  0  0
  -22.7818   -5.3535   24.5671 F   0  0  0  0  0  0  0  0  0  0  0  0
  -28.4600  -18.8997   22.3742 S   0  0  0  0  0  0  0  0  0  0  0  0
  1  2  1  0  0  0  0
  1  5  2  0  0  0  0
  2  6  2  0  0  0  0
  3  8  2  0  0  0  0
  3 16  1  0  0  0  0
  4  9  1  0  0  0  0
  4 16  2  0  0  0  0
  5 18  1  0  0  0  0
  6 20  1  0  0  0  0
  7 10  2  0  0  0  0
  7 19  1  0  0  0  0
  8 23  1  0  0  0  0
  9 23  2  0  0  0  0
 10 24  1  0  0  0  0
 11 12  2  0  0  0  0
 11 25  1  0  0  0  0
 12 26  1  0  0  0  0
 13 21  1  0  0  0  0
 13 24  2  0  0  0  0
 14 22  1  0  0  0  0
 14 30  2  0  0  0  0
 15 26  2  0  0  0  0
 15 27  1  0  0  0  0
 16 28  1  0  0  0  0
 17 28  1  0  0  0  0
 17 29  2  0  0  0  0
 17 33  1  0  0  0  0
 18 20  2  0  0  0  0
 18 41  1  0  0  0  0
 19 21  2  0  0  0  0
 19 42  1  0  0  0  0
 20 50  1  0  0  0  0
 21 43  1  0  0  0  0
 22 31  2  0  0  0  0
 22 53  1  0  0  0  0
 23 82  1  0  0  0  0
 24 83  1  0  0  0  0
 25 27  2  0  0  0  0
 25 82  1  0  0  0  0
 26 84  1  0  0  0  0
 27 85  1  0  0  0  0
 28 63  2  0  0  0  0
 29 64  1  0  0  0  0
 29 67  1  0  0  0  0
 30 70  1  0  0  0  0
 30 86  1  0  0  0  0
 31 69  1  0  0  0  0
 31 86  1  0  0  0  0
 32 34  2  0  0  0  0
 32 83  1  0  0  0  0
 33 68  1  0  0  0  0
 33 75  2  0  0  0  0
 34 35  1  0  0  0  0
 34 81  1  0  0  0  0
 35 36  1  0  0  0  0
 35 76  2  0  0  0  0
 36 69  1  0  0  0  0
 36 73  2  0  0  0  0
 37 51  1  0  0  0  0
 37 71  1  0  0  0  0
 37 77  2  0  0  0  0
 38 60  1  0  0  0  0
 38 65  1  0  0  0  0
 38 78  2  0  0  0  0
 39 61  1  0  0  0  0
 39 72  1  0  0  0  0
 39 79  2  0  0  0  0
 40 66  1  0  0  0  0
 40 70  1  0  0  0  0
 40 80  2  0  0  0  0
 41 44  1  0  0  0  0
 42 51  1  0  0  0  0
 43 65  1  0  0  0  0
 44 46  1  0  0  0  0
 45 47  1  0  0  0  0
 45 48  1  0  0  0  0
 46 50  1  0  0  0  0
 47 52  1  0  0  0  0
 48 66  1  0  0  0  0
 49 52  1  0  0  0  0
 49 66  1  0  0  0  0
 50 71  1  0  0  0  0
 51 65  1  0  0  0  0
 52 64  1  0  0  0  0
 54 61  1  0  0  0  0
 55 62  1  0  0  0  0
 56 62  1  0  0  0  0
 57 62  1  0  0  0  0
 58 73  1  0  0  0  0
 59 74  1  0  0  0  0
 60 62  1  0  0  0  0
 60 72  1  0  0  0  0
 61 74  1  0  0  0  0
 63 64  1  0  0  0  0
M  CHG  2  73   1  74   1
M  ISO  4  32 101  40 100  70 100  83 101
M  END
> <Batch ID>
0172

> <Smiles>
CN=C(Nc1sc([100NH:0][100C:0](=O)N2CCCC(n3nc(-c4ccc(Oc5ccc(F)cc5F)cc4)c(C(N)=O)c3N)C2)cc1C)C(=O)C(=O)[101CH2:1][101O:1]c1ccc2c(c1)CN(C(=O)C(NC(=O)C(C)NC)C(C)(C)C)C(C(=O)NC1CCCc3ccccc31)C2

> <Shape>
0.312

> <Color>
0.166

> <Negative vol penalty>
0.000

$$$$

  -OEChem-04052304263D

 84 92  0     1  0  0  0  0  0999 V2000
  -22.6007   -8.4204   20.7371 C   0  0  0  0  0  0  0  0  0  0  0  0
  -21.8076   -9.5610   20.8095 C   0  0  0  0  0  0  0  0  0  0  0  0
  -18.3704  -27.9974   23.8304 C   0  0  0  0  0  0  0  0  0  0  0  0
  -29.5085  -26.4214   20.9756 C   0  0  0  0  0  0  0  0  0  0  0  0
  -27.6999  -24.8716   20.5706 C   0  0  0  0  0  0  0  0  0  0  0  0
  -23.9302   -8.4695   21.1542 C   0  0  0  0  0  0  0  0  0  0  0  0
  -22.3432  -10.7513   21.3002 C   0  0  0  0  0  0  0  0  0  0  0  0
  -21.8648  -17.8502   20.4675 C   0  0  0  0  0  0  0  0  0  0  0  0
  -18.0170  -26.7960   23.2161 C   0  0  0  0  0  0  0  0  0  0  0  0
  -19.5049  -28.6898   23.4073 C   0  0  0  0  0  0  0  0  0  0  0  0
  -30.2937  -25.3775   21.4646 C   0  0  0  0  0  0  0  0  0  0  0  0
  -28.4851  -23.8275   21.0596 C   0  0  0  0  0  0  0  0  0  0  0  0
  -21.6699  -19.0115   21.2139 C   0  0  0  0  0  0  0  0  0  0  0  0
  -29.4370  -22.6265   24.0733 C   0  0  0  0  0  0  0  0  0  0  0  0
  -28.8425  -21.7290   24.9602 C   0  0  0  0  0  0  0  0  0  0  0  0
  -24.0017  -18.9986   21.8317 C   0  0  0  0  0  0  0  0  0  0  0  0
  -19.9328  -26.9793   21.7556 C   0  0  0  0  0  0  0  0  0  0  0  0
  -29.2891  -19.9170   23.4258 C   0  0  0  0  0  0  0  0  0  0  0  0
  -28.2116  -26.1685   20.5286 C   0  0  0  0  0  0  0  0  0  0  0  0
  -27.3139  -27.6945   18.6921 C   0  0  0  0  0  0  0  0  0  0  0  0
  -24.4851   -9.6635   21.6412 C   0  0  0  0  0  0  0  0  0  0  0  0
  -23.1294  -17.2473   20.4063 C   0  0  0  0  0  0  0  0  0  0  0  0
  -23.6810  -10.8161   21.7255 C   0  0  0  0  0  0  0  0  0  0  0  0
  -24.2106  -17.8312   21.0817 C   0  0  0  0  0  0  0  0  0  0  0  0
  -18.7982  -26.2870   22.1788 C   0  0  0  0  0  0  0  0  0  0  0  0
  -20.2862  -28.1808   22.3699 C   0  0  0  0  0  0  0  0  0  0  0  0
  -29.7820  -24.0805   21.5066 C   0  0  0  0  0  0  0  0  0  0  0  0
  -22.7377  -19.5843   21.8985 C   0  0  0  0  0  0  0  0  0  0  0  0
  -29.9575  -22.1693   22.8626 C   0  0  0  0  0  0  0  0  0  0  0  0
  -28.7686  -20.3742   24.6365 C   0  0  0  0  0  0  0  0  0  0  0  0
  -29.8835  -20.8146   22.5389 C   0  0  0  0  0  0  0  0  0  0  0  0
  -27.3998  -27.2466   20.0239 C   0  0  0  0  0  0  0  0  0  0  0  0
  -26.4143  -28.7315   18.7359 C   0  0  0  0  0  0  0  0  0  0  0  0
  -19.0570  -23.8209   22.2099 C   0  0  0  0  0  0  0  0  0  0  0  0
  -27.9870  -27.2160   17.5200 C   0  0  0  0  0  0  0  0  0  0  0  0
  -24.3147  -14.4281   21.2730 C   0  0  0  0  0  0  0  0  0  0  0  0
  -20.7406  -22.3044   22.4965 C   0  0  0  0  0  0  0  0  0  0  0  0
  -26.9812  -15.5316   19.7917 C   0  0  0  0  0  0  0  0  0  0  0  0
  -28.8084  -18.2129   18.7338 C   0  0  0  0  0  0  0  0  0  0  0  0
  -21.9282  -30.0900   22.4419 C   0  0  0  0  0  0  0  0  0  0  0  0
  -25.9137   -9.6558   22.1246 C   0  0  0  0  0  0  0  0  0  0  0  0
  -23.3292  -16.0098   19.5750 C   0  0  0  0  0  0  0  0  0  0  0  0
  -25.5926  -17.2344   21.0317 C   0  0  0  0  0  0  0  0  0  0  0  0
  -26.5112  -11.0517   22.2815 C   0  0  0  0  0  0  0  0  0  0  0  0
  -24.7498  -32.1231   21.6789 C   0  0  0  0  0  0  0  0  0  0  0  0
  -25.5387  -11.9692   23.0158 C   0  0  0  0  0  0  0  0  0  0  0  0
  -25.7393  -31.1453   21.0411 C   0  0  0  0  0  0  0  0  0  0  0  0
  -23.9599  -31.4718   22.8128 C   0  0  0  0  0  0  0  0  0  0  0  0
  -24.2745  -29.2390   21.8204 C   0  0  0  0  0  0  0  0  0  0  0  0
  -24.2328  -12.1323   22.2287 C   0  0  1  0  0  0  0  0  0  0  0  0
  -24.5458  -15.1938   20.0010 C   0  0  1  0  0  0  0  0  0  0  0  0
  -25.0473  -29.8307   20.6304 C   0  0  2  0  0  0  0  0  0  0  0  0
  -23.1248  -22.9703   22.0857 C   0  0  0  0  0  0  0  0  0  0  0  0
  -30.9627  -18.8003   17.5887 C   0  0  0  0  0  0  0  0  0  0  0  0
  -28.5114  -14.9122   22.3578 C   0  0  0  0  0  0  0  0  0  0  0  0
  -30.3719  -16.3603   21.5154 C   0  0  0  0  0  0  0  0  0  0  0  0
  -29.7191  -14.3108   20.2521 C   0  0  0  0  0  0  0  0  0  0  0  0
  -27.3934  -19.5451   16.5019 C   0  0  0  0  0  0  0  0  0  0  0  0
  -18.4167  -24.9912   21.5166 C   0  0  0  0  0  0  0  0  0  0  0  0
  -22.0867  -21.8715   21.9285 C   0  0  1  0  0  0  0  0  0  1  0  0
  -28.1917  -16.3252   20.2207 C   0  0  1  0  0  0  0  0  0  0  0  0
  -29.4805  -18.5132   17.4062 C   0  0  2  0  0  0  0  0  0  0  0  0
  -29.1722  -15.4875   21.0892 C   0  0  0  0  0  0  0  0  0  0  0  0
  -26.6173  -27.9422   20.8533 N   0  0  0  0  0  0  0  0  0  0  0  0
  -20.2001  -23.3721   21.8105 N   0  0  0  0  0  0  0  0  0  0  0  0
  -26.0312  -28.8378   20.0406 N   0  0  0  0  0  0  0  0  0  0  0  0
  -25.7358  -16.0208   20.2106 N   0  0  0  0  0  0  0  0  0  0  0  0
  -23.3286  -30.2344   22.3490 N   0  0  0  0  0  0  0  0  0  0  0  0
  -25.9215  -29.5537   17.7854 N   0  0  0  0  0  0  0  0  0  0  0  0
  -28.8782  -26.1425   17.6529 N   0  0  0  0  0  0  0  0  0  0  0  0
  -21.4382  -28.8847   21.9399 N   0  0  0  0  0  0  0  0  0  0  0  0
  -24.4166  -13.0574   21.1310 N   0  0  0  0  0  0  0  0  0  0  0  0
  -28.7832  -16.8600   18.9990 N   0  0  0  0  0  0  0  0  0  0  0  0
  -28.8479  -19.6988   16.7619 N   0  3  0  0  0  0  0  0  0  0  0  0
  -27.8159  -27.7359   16.3913 O   0  0  0  0  0  0  0  0  0  0  0  0
  -24.0641  -15.0361   22.3071 O   0  0  0  0  0  0  0  0  0  0  0  0
  -20.2218  -21.7097   23.4397 O   0  0  0  0  0  0  0  0  0  0  0  0
  -27.1346  -14.5191   19.1041 O   0  0  0  0  0  0  0  0  0  0  0  0
  -28.3548  -19.0909   19.4645 O   0  0  0  0  0  0  0  0  0  0  0  0
  -21.2132  -30.9819   22.9058 O   0  0  0  0  0  0  0  0  0  0  0  0
  -30.5480  -23.0615   21.9835 O   0  0  0  0  0  0  0  0  0  0  0  0
  -22.5500  -20.7174   22.6284 O   0  0  0  0  0  0  0  0  0  1  0  0
  -28.1991  -19.5122   25.4890 F   0  0  0  0  0  0  0  0  0  0  0  0
  -30.3828  -20.3692   21.3778 F   0  0  0  0  0  0  0  0  0  0  0  0
  1  2  1  0  0  0  0
  1  6  2  0  0  0  0
  2  7  2  0  0  0  0
  3  9  2  0  0  0  0
  3 10  1  0  0  0  0
  4 11  2  0  0  0  0
  4 19  1  0  0  0  0
  5 12  1  0  0  0  0
  5 19  2  0  0  0  0
  6 21  1  0  0  0  0
  7 23  1  0  0  0  0
  8 13  2  0  0  0  0
  8 22  1  0  0  0  0
  9 25  1  0  0  0  0
 10 26  2  0  0  0  0
 11 27  1  0  0  0  0
 12 27  2  0  0  0  0
 13 28  1  0  0  0  0
 14 15  2  0  0  0  0
 14 29  1  0  0  0  0
 15 30  1  0  0  0  0
 16 24  1  0  0  0  0
 16 28  2  0  0  0  0
 17 25  2  0  0  0  0
 17 26  1  0  0  0  0
 18 30  2  0  0  0  0
 18 31  1  0  0  0  0
 19 32  1  0  0  0  0
 20 32  1  0  0  0  0
 20 33  2  0  0  0  0
 20 35  1  0  0  0  0
 21 23  2  0  0  0  0
 21 41  1  0  0  0  0
 22 24  2  0  0  0  0
 22 42  1  0  0  0  0
 23 50  1  0  0  0  0
 24 43  1  0  0  0  0
 25 59  1  0  0  0  0
 26 71  1  0  0  0  0
 27 81  1  0  0  0  0
 28 82  1  0  0  0  0
 29 31  2  0  0  0  0
 29 81  1  0  0  0  0
 30 83  1  0  0  0  0
 31 84  1  0  0  0  0
 32 64  2  0  0  0  0
 33 66  1  0  0  0  0
 33 69  1  0  0  0  0
 34 59  1  0  0  0  0
 34 65  2  0  0  0  0
 35 70  1  0  0  0  0
 35 75  2  0  0  0  0
 36 51  1  0  0  0  0
 36 72  1  0  0  0  0
 36 76  2  0  0  0  0
 37 60  1  0  0  0  0
 37 65  1  0  0  0  0
 37 77  2  0  0  0  0
 38 61  1  0  0  0  0
 38 67  1  0  0  0  0
 38 78  2  0  0  0  0
 39 62  1  0  0  0  0
 39 73  1  0  0  0  0
 39 79  2  0  0  0  0
 40 68  1  0  0  0  0
 40 71  1  0  0  0  0
 40 80  2  0  0  0  0
 41 44  1  0  0  0  0
 42 51  1  0  0  0  0
 43 67  1  0  0  0  0
 44 46  1  0  0  0  0
 45 47  1  0  0  0  0
 45 48  1  0  0  0  0
 46 50  1  0  0  0  0
 47 52  1  0  0  0  0
 48 68  1  0  0  0  0
 49 52  1  0  0  0  0
 49 68  1  0  0  0  0
 50 72  1  0  0  0  0
 51 67  1  0  0  0  0
 52 66  1  0  0  0  0
 53 60  1  0  0  0  0
 54 62  1  0  0  0  0
 55 63  1  0  0  0  0
 56 63  1  0  0  0  0
 57 63  1  0  0  0  0
 58 74  1  0  0  0  0
 60 82  1  0  0  0  0
 61 63  1  0  0  0  0
 61 73  1  0  0  0  0
 62 74  1  0  0  0  0
 64 66  1  0  0  0  0
M  CHG  1  74   1
M  ISO  4  40 100  60 101  71 100  82 101
M  END
> <Batch ID>
0172

> <Smiles>
CNC(C)C(=O)NC(C(=O)N1Cc2cc([101O:1][101CH:1](C)C(=O)NC=Cc3cccc([100NH:0][100C:0](=O)N4CCCC(n5nc(-c6ccc(Oc7ccc(F)cc7F)cc6)c(C(N)=O)c5N)C4)c3)ccc2CC1C(=O)NC1CCCc2ccccc21)C(C)(C)C

> <Shape>
0.252

> <Color>
0.064

> <Negative vol penalty>
0.000

$$$$

  -OEChem-04052304263D

 89 97  0     1  0  0  0  0  0999 V2000
  -16.8308  -25.7321   25.2312 C   0  0  0  0  0  0  0  0  0  0  0  0
  -17.6493  -24.6756   24.8445 C   0  0  0  0  0  0  0  0  0  0  0  0
  -24.6100  -14.7917   21.0522 C   0  0  0  0  0  0  0  0  0  0  0  0
  -26.9311  -14.4816   21.6466 C   0  0  0  0  0  0  0  0  0  0  0  0
  -17.0108  -26.9944   24.6672 C   0  0  0  0  0  0  0  0  0  0  0  0
  -18.6475  -24.8807   23.8928 C   0  0  0  0  0  0  0  0  0  0  0  0
  -26.3334  -23.5563   24.3410 C   0  0  0  0  0  0  0  0  0  0  0  0
  -24.5219  -13.4465   20.6943 C   0  0  0  0  0  0  0  0  0  0  0  0
  -26.8430  -13.1363   21.2887 C   0  0  0  0  0  0  0  0  0  0  0  0
  -27.7276  -23.5129   24.3552 C   0  0  0  0  0  0  0  0  0  0  0  0
  -23.5873  -10.0100   19.9650 C   0  0  0  0  0  0  0  0  0  0  0  0
  -22.4707   -9.2953   20.3986 C   0  0  0  0  0  0  0  0  0  0  0  0
  -34.2867  -22.1347   20.0878 C   0  0  0  0  0  0  0  0  0  0  0  0
  -31.9544  -22.7359   19.8985 C   0  0  0  0  0  0  0  0  0  0  0  0
  -27.8099  -25.2727   22.6987 C   0  0  0  0  0  0  0  0  0  0  0  0
  -23.0692   -9.7531   22.6941 C   0  0  0  0  0  0  0  0  0  0  0  0
  -25.8147  -15.3094   21.5282 C   0  0  0  0  0  0  0  0  0  0  0  0
  -33.2946  -23.1107   19.9933 C   0  0  0  0  0  0  0  0  0  0  0  0
  -25.6573  -17.2603   23.1643 C   0  0  0  0  0  0  0  0  0  0  0  0
  -18.0180  -27.2173   23.7152 C   0  0  0  0  0  0  0  0  0  0  0  0
  -25.6715  -24.4698   23.5159 C   0  0  0  0  0  0  0  0  0  0  0  0
  -18.8403  -26.1469   23.3146 C   0  0  0  0  0  0  0  0  0  0  0  0
  -26.4137  -25.3294   22.6894 C   0  0  0  0  0  0  0  0  0  0  0  0
  -32.5983  -20.4092   19.9926 C   0  0  0  0  0  0  0  0  0  0  0  0
  -33.9385  -20.7840   20.0874 C   0  0  0  0  0  0  0  0  0  0  0  0
  -31.6062  -21.3852   19.8981 C   0  0  0  0  0  0  0  0  0  0  0  0
  -25.6384  -12.6187   20.8126 C   0  0  0  0  0  0  0  0  0  0  0  0
  -28.4641  -24.3688   23.5358 C   0  0  0  0  0  0  0  0  0  0  0  0
  -24.4449  -10.5961   20.8959 C   0  0  0  0  0  0  0  0  0  0  0  0
  -22.2116   -9.1669   21.7632 C   0  0  0  0  0  0  0  0  0  0  0  0
  -24.1859  -10.4677   22.2604 C   0  0  0  0  0  0  0  0  0  0  0  0
  -25.9065  -16.6991   21.8975 C   0  0  0  0  0  0  0  0  0  0  0  0
  -25.8813  -18.6047   22.9943 C   0  0  0  0  0  0  0  0  0  0  0  0
  -33.6635  -24.5432   19.9939 C   0  0  0  0  0  0  0  0  0  0  0  0
  -25.2590  -16.6233   24.3855 C   0  0  0  0  0  0  0  0  0  0  0  0
  -32.7238  -25.5694   20.5503 C   0  0  0  0  0  0  0  0  0  0  0  0
  -22.3928  -25.8631   22.3390 C   0  0  0  0  0  0  0  0  0  0  0  0
  -24.3056  -28.2393   22.6640 C   0  0  0  0  0  0  0  0  0  0  0  0
  -26.5872  -30.6153   23.5507 C   0  0  0  0  0  0  0  0  0  0  0  0
  -29.2245  -21.7326   19.1545 C   0  0  0  0  0  0  0  0  0  0  0  0
  -18.1437  -28.5880   23.0987 C   0  0  0  0  0  0  0  0  0  0  0  0
  -24.1703  -24.5093   23.4228 C   0  0  0  0  0  0  0  0  0  0  0  0
  -25.6586  -26.2719   21.7925 C   0  0  0  0  0  0  0  0  0  0  0  0
  -19.4680  -28.8103   22.3727 C   0  0  0  0  0  0  0  0  0  0  0  0
  -25.7130  -22.0368   19.6586 C   0  0  0  0  0  0  0  0  0  0  0  0
  -19.7929  -27.6184   21.4780 C   0  0  0  0  0  0  0  0  0  0  0  0
  -25.3425  -20.7564   20.4106 C   0  0  0  0  0  0  0  0  0  0  0  0
  -26.7996  -21.7868   18.6143 C   0  0  0  0  0  0  0  0  0  0  0  0
  -27.6362  -19.8415   19.8732 C   0  0  0  0  0  0  0  0  0  0  0  0
  -19.9502  -26.3356   22.3034 C   0  0  1  0  0  0  0  0  0  0  0  0
  -23.6163  -25.9288   23.2052 C   0  0  1  0  0  0  0  0  0  0  0  0
  -26.5916  -20.0561   20.9806 C   0  0  2  0  0  0  0  0  0  0  0  0
  -32.2254  -18.9590   19.9938 C   0  0  0  0  0  0  0  0  0  0  0  0
  -26.9183  -33.1020   23.6132 C   0  0  0  0  0  0  0  0  0  0  0  0
  -24.7709  -28.2494   19.6495 C   0  0  0  0  0  0  0  0  0  0  0  0
  -25.9848  -30.4229   19.9156 C   0  0  0  0  0  0  0  0  0  0  0  0
  -23.5717  -30.2609   20.5271 C   0  0  0  0  0  0  0  0  0  0  0  0
  -26.9128  -30.6146   26.4923 C   0  0  0  0  0  0  0  0  0  0  0  0
  -30.5175  -25.2262   22.6958 C   0  0  0  0  0  0  0  0  0  1  0  0
  -25.3018  -29.1604   22.0062 C   0  0  1  0  0  0  0  0  0  0  0  0
  -26.4559  -31.8763   24.3856 C   0  0  2  0  0  0  0  0  0  0  0  0
  -32.0125  -25.0340   22.8973 C   0  0  1  0  0  0  0  0  0  0  0  0
  -32.8708  -25.9215   22.0082 C   0  0  0  0  0  0  0  0  0  0  0  0
  -24.9156  -29.5003   20.5390 C   0  0  0  0  0  0  0  0  0  0  0  0
  -26.2615  -17.6123   20.9898 N   0  0  0  0  0  0  0  0  0  0  0  0
  -26.2369  -18.7609   21.6869 N   0  0  0  0  0  0  0  0  0  0  0  0
  -24.5277  -26.8639   22.5242 N   0  0  0  0  0  0  0  0  0  0  0  0
  -27.9532  -21.1249   19.2273 N   0  0  0  0  0  0  0  0  0  0  0  0
  -34.9578  -19.8111   20.1846 N   0  0  0  0  0  0  0  0  0  0  0  0
  -25.8068  -19.6566   23.8371 N   0  0  0  0  0  0  0  0  0  0  0  0
  -25.0728  -15.2342   24.3847 N   0  0  0  0  0  0  0  0  0  0  0  0
  -30.2387  -21.0272   19.8014 N   0  0  0  0  0  0  0  0  0  0  0  0
  -21.2410  -26.3107   22.9574 N   0  0  0  0  0  0  0  0  0  0  0  0
  -25.4192  -30.3242   22.8782 N   0  0  0  0  0  0  0  0  0  0  0  0
  -27.2760  -31.7647   25.6249 N   0  3  0  0  0  0  0  0  0  0  0  0
  -34.7152  -24.9611   19.5328 O   0  0  0  0  0  0  0  0  0  0  0  0
  -25.0577  -17.2691   25.4419 O   0  0  0  0  0  0  0  0  0  0  0  0
  -31.9021  -26.0580   19.7889 O   0  0  0  0  0  0  0  0  0  0  0  0
  -22.4860  -25.4393   21.1930 O   0  0  0  0  0  0  0  0  0  0  0  0
  -23.3524  -28.7233   23.2808 O   0  0  0  0  0  0  0  0  0  0  0  0
  -27.6234  -29.9566   23.4973 O   0  0  0  0  0  0  0  0  0  0  0  0
  -29.3953  -22.8137   18.5852 O   0  0  0  0  0  0  0  0  0  0  0  0
  -25.5527  -11.3059   20.4637 O   0  0  0  0  0  0  0  0  0  0  0  0
  -29.8250  -24.3243   23.5580 O   0  0  0  0  0  0  0  0  0  1  0  0
  -21.1384   -8.4820   22.1795 F   0  0  0  0  0  0  0  0  0  0  0  0
  -25.0056  -11.0296   23.1595 F   0  0  0  0  0  0  0  0  0  0  0  0
  -32.2939  -25.3713   24.1933 F   0  0  0  0  0  0  0  0  0  0  0  0
  -34.1704  -25.7588   22.3844 F   0  0  0  0  0  0  0  0  0  0  0  0
  -32.5661  -27.2235   22.2562 F   0  0  0  0  0  0  0  0  0  0  0  0
  1  2  1  0  0  0  0
  1  5  2  0  0  0  0
  2  6  2  0  0  0  0
  3  8  2  0  0  0  0
  3 17  1  0  0  0  0
  4  9  1  0  0  0  0
  4 17  2  0  0  0  0
  5 20  1  0  0  0  0
  6 22  1  0  0  0  0
  7 10  2  0  0  0  0
  7 21  1  0  0  0  0
  8 27  1  0  0  0  0
  9 27  2  0  0  0  0
 10 28  1  0  0  0  0
 11 12  2  0  0  0  0
 11 29  1  0  0  0  0
 12 30  1  0  0  0  0
 13 18  1  0  0  0  0
 13 25  2  0  0  0  0
 14 18  2  0  0  0  0
 14 26  1  0  0  0  0
 15 23  1  0  0  0  0
 15 28  2  0  0  0  0
 16 30  2  0  0  0  0
 16 31  1  0  0  0  0
 17 32  1  0  0  0  0
 18 34  1  0  0  0  0
 19 32  1  0  0  0  0
 19 33  2  0  0  0  0
 19 35  1  0  0  0  0
 20 22  2  0  0  0  0
 20 41  1  0  0  0  0
 21 23  2  0  0  0  0
 21 42  1  0  0  0  0
 22 50  1  0  0  0  0
 23 43  1  0  0  0  0
 24 25  1  0  0  0  0
 24 26  2  0  0  0  0
 24 53  1  0  0  0  0
 25 69  1  0  0  0  0
 26 72  1  0  0  0  0
 27 83  1  0  0  0  0
 28 84  1  0  0  0  0
 29 31  2  0  0  0  0
 29 83  1  0  0  0  0
 30 85  1  0  0  0  0
 31 86  1  0  0  0  0
 32 65  2  0  0  0  0
 33 66  1  0  0  0  0
 33 70  1  0  0  0  0
 34 36  1  0  0  0  0
 34 76  2  0  0  0  0
 35 71  1  0  0  0  0
 35 77  2  0  0  0  0
 36 63  1  0  0  0  0
 36 78  2  0  0  0  0
 37 51  1  0  0  0  0
 37 73  1  0  0  0  0
 37 79  2  0  0  0  0
 38 60  1  0  0  0  0
 38 67  1  0  0  0  0
 38 80  2  0  0  0  0
 39 61  1  0  0  0  0
 39 74  1  0  0  0  0
 39 81  2  0  0  0  0
 40 68  1  0  0  0  0
 40 72  1  0  0  0  0
 40 82  2  0  0  0  0
 41 44  1  0  0  0  0
 42 51  1  0  0  0  0
 43 67  1  0  0  0  0
 44 46  1  0  0  0  0
 45 47  1  0  0  0  0
 45 48  1  0  0  0  0
 46 50  1  0  0  0  0
 47 52  1  0  0  0  0
 48 68  1  0  0  0  0
 49 52  1  0  0  0  0
 49 68  1  0  0  0  0
 50 73  1  0  0  0  0
 51 67  1  0  0  0  0
 52 66  1  0  0  0  0
 54 61  1  0  0  0  0
 55 64  1  0  0  0  0
 56 64  1  0  0  0  0
 57 64  1  0  0  0  0
 58 75  1  0  0  0  0
 59 62  1  0  0  0  0
 59 84  1  0  0  0  0
 60 64  1  0  0  0  0
 60 74  1  0  0  0  0
 61 75  1  0  0  0  0
 62 63  1  0  0  0  0
 62 87  1  0  0  0  0
 63 88  1  0  0  0  0
 63 89  1  0  0  0  0
 65 66  1  0  0  0  0
M  CHG  1  75   1
M  ISO  4  40 100  59 101  72 100  84 101
M  END
> <Batch ID>
0172

> <Smiles>
CNC(C)C(=O)NC(C(=O)N1Cc2cc([101O:1][101CH2:1]C(F)C(F)(F)C(=O)C(=O)c3cc(N)c(C)c([100NH:0][100C:0](=O)N4CCCC(n5nc(-c6ccc(Oc7ccc(F)cc7F)cc6)c(C(N)=O)c5N)C4)c3)ccc2CC1C(=O)NC1CCCc2ccccc21)C(C)(C)C

> <Shape>
0.210

> <Color>
0.079

> <Negative vol penalty>
0.000

$$$$

  -OEChem-04052304263D

 86 94  0     1  0  0  0  0  0999 V2000
  -30.0522  -32.3581   24.8218 C   0  0  0  0  0  0  0  0  0  0  0  0
  -29.7605  -31.1630   24.1722 C   0  0  0  0  0  0  0  0  0  0  0  0
  -18.7490  -16.3020   25.2551 C   0  0  0  0  0  0  0  0  0  0  0  0
  -20.3599  -18.0362   24.7706 C   0  0  0  0  0  0  0  0  0  0  0  0
  -29.0403  -33.0597   25.4757 C   0  0  0  0  0  0  0  0  0  0  0  0
  -28.4568  -30.6683   24.1770 C   0  0  0  0  0  0  0  0  0  0  0  0
  -26.9861  -29.0238   19.6188 C   0  0  0  0  0  0  0  0  0  0  0  0
  -18.5334  -16.8550   26.5174 C   0  0  0  0  0  0  0  0  0  0  0  0
  -20.1442  -18.5892   26.0329 C   0  0  0  0  0  0  0  0  0  0  0  0
  -27.4511  -27.7739   19.2122 C   0  0  0  0  0  0  0  0  0  0  0  0
  -19.7526  -20.6663   28.9910 C   0  0  0  0  0  0  0  0  0  0  0  0
  -19.5991  -22.0500   29.0761 C   0  0  0  0  0  0  0  0  0  0  0  0
  -25.3392  -26.7909   19.8390 C   0  0  0  0  0  0  0  0  0  0  0  0
  -27.9683  -14.2664   20.5650 C   0  0  0  0  0  0  0  0  0  0  0  0
  -29.4818  -16.1495   20.5634 C   0  0  0  0  0  0  0  0  0  0  0  0
  -27.0958  -16.5174   20.4699 C   0  0  0  0  0  0  0  0  0  0  0  0
  -17.6747  -21.9259   27.6205 C   0  0  0  0  0  0  0  0  0  0  0  0
  -19.6623  -16.8926   24.3817 C   0  0  0  0  0  0  0  0  0  0  0  0
  -19.1996  -16.6267   21.8871 C   0  0  0  0  0  0  0  0  0  0  0  0
  -27.7216  -32.5783   25.4804 C   0  0  0  0  0  0  0  0  0  0  0  0
  -25.6958  -29.1650   20.1495 C   0  0  0  0  0  0  0  0  0  0  0  0
  -27.4265  -31.3635   24.8327 C   0  0  0  0  0  0  0  0  0  0  0  0
  -24.8592  -28.0441   20.2491 C   0  0  0  0  0  0  0  0  0  0  0  0
  -29.2681  -14.7715   20.5956 C   0  0  0  0  0  0  0  0  0  0  0  0
  -26.8821  -15.1393   20.5021 C   0  0  0  0  0  0  0  0  0  0  0  0
  -28.3957  -17.0225   20.5006 C   0  0  0  0  0  0  0  0  0  0  0  0
  -19.2310  -17.9985   26.9063 C   0  0  0  0  0  0  0  0  0  0  0  0
  -26.6288  -26.6568   19.3250 C   0  0  0  0  0  0  0  0  0  0  0  0
  -18.8673  -19.9123   28.2207 C   0  0  0  0  0  0  0  0  0  0  0  0
  -18.5601  -22.6798   28.3909 C   0  0  0  0  0  0  0  0  0  0  0  0
  -17.8283  -20.5421   27.5355 C   0  0  0  0  0  0  0  0  0  0  0  0
  -19.8859  -16.3216   23.0778 C   0  0  0  0  0  0  0  0  0  0  0  0
  -19.7823  -15.8216   20.9391 C   0  0  0  0  0  0  0  0  0  0  0  0
  -18.1310  -17.5548   21.6585 C   0  0  0  0  0  0  0  0  0  0  0  0
  -24.5108  -30.1010   22.9465 C   0  0  0  0  0  0  0  0  0  0  0  0
  -28.1340  -20.7657   20.3816 C   0  0  0  0  0  0  0  0  0  0  0  0
  -27.5713  -23.1689   19.6328 C   0  0  0  0  0  0  0  0  0  0  0  0
  -21.6749  -29.8253   21.3962 C   0  0  0  0  0  0  0  0  0  0  0  0
  -19.8872  -28.4119   18.8558 C   0  0  0  0  0  0  0  0  0  0  0  0
  -25.1749  -13.2868   20.4922 C   0  0  0  0  0  0  0  0  0  0  0  0
  -26.6706  -33.3476   26.2408 C   0  0  0  0  0  0  0  0  0  0  0  0
  -25.1994  -30.5247   20.5586 C   0  0  0  0  0  0  0  0  0  0  0  0
  -23.4585  -28.1458   20.7933 C   0  0  0  0  0  0  0  0  0  0  0  0
  -25.2424  -32.9466   25.8806 C   0  0  0  0  0  0  0  0  0  0  0  0
  -22.0292  -11.6193   20.4633 C   0  0  0  0  0  0  0  0  0  0  0  0
  -25.1043  -31.4277   25.8568 C   0  0  0  0  0  0  0  0  0  0  0  0
  -21.0591  -12.6658   21.0165 C   0  0  0  0  0  0  0  0  0  0  0  0
  -23.3909  -11.6880   21.1524 C   0  0  0  0  0  0  0  0  0  0  0  0
  -23.0472  -14.0626   21.7115 C   0  0  0  0  0  0  0  0  0  0  0  0
  -26.0197  -30.8071   24.7946 C   0  0  1  0  0  0  0  0  0  0  0  0
  -24.0524  -30.4649   21.5627 C   0  0  1  0  0  0  0  0  0  0  0  0
  -21.6828  -14.0751   21.0032 C   0  0  2  0  0  0  0  0  0  0  0  0
  -17.5821  -28.3503   17.8659 C   0  0  0  0  0  0  0  0  0  0  0  0
  -20.7472  -28.0206   23.6749 C   0  0  0  0  0  0  0  0  0  0  0  0
  -18.8720  -27.2482   22.2068 C   0  0  0  0  0  0  0  0  0  0  0  0
  -19.0288  -29.6485   22.8676 C   0  0  0  0  0  0  0  0  0  0  0  0
  -20.8438  -29.4838   16.2684 C   0  0  0  0  0  0  0  0  0  0  0  0
  -27.1222  -21.8942   20.3189 C   0  0  0  0  0  0  0  0  0  0  0  0
  -27.5494  -19.3677   20.4043 C   0  0  0  0  0  0  0  0  0  0  0  0
  -26.5582  -24.2971   19.6135 C   0  0  0  0  0  0  0  0  0  1  0  0
  -20.6731  -28.7150   21.1892 C   0  0  1  0  0  0  0  0  0  0  0  0
  -18.9488  -29.0161   17.8268 C   0  0  2  0  0  0  0  0  0  0  0  0
  -19.8573  -28.4055   22.4761 C   0  0  0  0  0  0  0  0  0  0  0  0
  -20.8321  -15.3950   22.9047 N   0  0  0  0  0  0  0  0  0  0  0  0
  -20.7445  -15.1108   21.5941 N   0  0  0  0  0  0  0  0  0  0  0  0
  -23.0213  -29.4958   21.1858 N   0  0  0  0  0  0  0  0  0  0  0  0
  -23.9220  -13.0517   21.0969 N   0  0  0  0  0  0  0  0  0  0  0  0
  -30.3664  -13.8886   20.6584 N   0  0  0  0  0  0  0  0  0  0  0  0
  -19.5604  -15.6595   19.6174 N   0  0  0  0  0  0  0  0  0  0  0  0
  -17.6515  -18.3021   22.7430 N   0  0  0  0  0  0  0  0  0  0  0  0
  -25.5617  -14.6264   20.4690 N   0  0  0  0  0  0  0  0  0  0  0  0
  -28.6084  -18.3932   20.4691 N   0  0  0  0  0  0  0  0  0  0  0  0
  -25.4463  -30.9694   23.4759 N   0  0  0  0  0  0  0  0  0  0  0  0
  -19.8579  -29.1088   20.0452 N   0  0  0  0  0  0  0  0  0  0  0  0
  -19.5107  -28.8556   16.4559 N   0  3  0  0  0  0  0  0  0  0  0  0
  -17.6054  -17.7048   20.5294 O   0  0  0  0  0  0  0  0  0  0  0  0
  -24.0489  -29.1068   23.4942 O   0  0  0  0  0  0  0  0  0  0  0  0
  -29.3446  -20.9729   20.4502 O   0  0  0  0  0  0  0  0  0  0  0  0
  -28.6697  -23.2792   19.0907 O   0  0  0  0  0  0  0  0  0  0  0  0
  -21.2767  -30.9455   21.7251 O   0  0  0  0  0  0  0  0  0  0  0  0
  -20.5745  -27.4187   18.6285 O   0  0  0  0  0  0  0  0  0  0  0  0
  -25.8423  -12.3709   20.0047 O   0  0  0  0  0  0  0  0  0  0  0  0
  -19.0207  -18.5385   28.1378 O   0  0  0  0  0  0  0  0  0  0  0  0
  -27.0805  -25.4355   18.9295 O   0  0  0  0  0  0  0  0  0  1  0  0
  -18.4118  -24.0085   28.4739 F   0  0  0  0  0  0  0  0  0  0  0  0
  -16.9739  -19.8229   26.7948 F   0  0  0  0  0  0  0  0  0  0  0  0
  1  2  1  0  0  0  0
  1  5  2  0  0  0  0
  2  6  2  0  0  0  0
  3  8  2  0  0  0  0
  3 18  1  0  0  0  0
  4  9  1  0  0  0  0
  4 18  2  0  0  0  0
  5 20  1  0  0  0  0
  6 22  1  0  0  0  0
  7 10  2  0  0  0  0
  7 21  1  0  0  0  0
  8 27  1  0  0  0  0
  9 27  2  0  0  0  0
 10 28  1  0  0  0  0
 11 12  2  0  0  0  0
 11 29  1  0  0  0  0
 12 30  1  0  0  0  0
 13 23  1  0  0  0  0
 13 28  2  0  0  0  0
 14 24  1  0  0  0  0
 14 25  2  0  0  0  0
 15 24  2  0  0  0  0
 15 26  1  0  0  0  0
 16 25  1  0  0  0  0
 16 26  2  0  0  0  0
 17 30  2  0  0  0  0
 17 31  1  0  0  0  0
 18 32  1  0  0  0  0
 19 32  1  0  0  0  0
 19 33  2  0  0  0  0
 19 34  1  0  0  0  0
 20 22  2  0  0  0  0
 20 41  1  0  0  0  0
 21 23  2  0  0  0  0
 21 42  1  0  0  0  0
 22 50  1  0  0  0  0
 23 43  1  0  0  0  0
 24 68  1  0  0  0  0
 25 71  1  0  0  0  0
 26 72  1  0  0  0  0
 27 83  1  0  0  0  0
 28 84  1  0  0  0  0
 29 31  2  0  0  0  0
 29 83  1  0  0  0  0
 30 85  1  0  0  0  0
 31 86  1  0  0  0  0
 32 64  2  0  0  0  0
 33 65  1  0  0  0  0
 33 69  1  0  0  0  0
 34 70  1  0  0  0  0
 34 76  2  0  0  0  0
 35 51  1  0  0  0  0
 35 73  1  0  0  0  0
 35 77  2  0  0  0  0
 36 58  1  0  0  0  0
 36 59  1  0  0  0  0
 36 78  2  0  0  0  0
 37 58  1  0  0  0  0
 37 60  1  0  0  0  0
 37 79  2  0  0  0  0
 38 61  1  0  0  0  0
 38 66  1  0  0  0  0
 38 80  2  0  0  0  0
 39 62  1  0  0  0  0
 39 74  1  0  0  0  0
 39 81  2  0  0  0  0
 40 67  1  0  0  0  0
 40 71  1  0  0  0  0
 40 82  2  0  0  0  0
 41 44  1  0  0  0  0
 42 51  1  0  0  0  0
 43 66  1  0  0  0  0
 44 46  1  0  0  0  0
 45 47  1  0  0  0  0
 45 48  1  0  0  0  0
 46 50  1  0  0  0  0
 47 52  1  0  0  0  0
 48 67  1  0  0  0  0
 49 52  1  0  0  0  0
 49 67  1  0  0  0  0
 50 73  1  0  0  0  0
 51 66  1  0  0  0  0
 52 65  1  0  0  0  0
 53 62  1  0  0  0  0
 54 63  1  0  0  0  0
 55 63  1  0  0  0  0
 56 63  1  0  0  0  0
 57 75  1  0  0  0  0
 59 72  1  0  0  0  0
 60 84  1  0  0  0  0
 61 63  1  0  0  0  0
 61 74  1  0  0  0  0
 62 75  1  0  0  0  0
 64 65  1  0  0  0  0
M  CHG  1  75   1
M  ISO  4  40 100  60 101  71 100  84 101
M  END
> <Batch ID>
0172

> <Smiles>
CNC(C)C(=O)NC(C(=O)N1Cc2cc([101O:1][101CH2:1]C(=O)CC(=O)CNc3cc(N)cc([100NH:0][100C:0](=O)N4CCCC(n5nc(-c6ccc(Oc7ccc(F)cc7F)cc6)c(C(N)=O)c5N)C4)c3)ccc2CC1C(=O)NC1CCCc2ccccc21)C(C)(C)C

> <Shape>
0.260

> <Color>
0.079

> <Negative vol penalty>
0.000

$$$$

  -OEChem-04052304263D

 87 95  0     1  0  0  0  0  0999 V2000
  -20.6246  -19.3656   17.5032 C   0  0  0  0  0  0  0  0  0  0  0  0
  -21.8345  -19.6528   18.1269 C   0  0  0  0  0  0  0  0  0  0  0  0
  -19.1061  -26.6602   22.0275 C   0  0  0  0  0  0  0  0  0  0  0  0
  -20.7692  -24.9135   22.1695 C   0  0  0  0  0  0  0  0  0  0  0  0
  -20.1261  -18.0636   17.5172 C   0  0  0  0  0  0  0  0  0  0  0  0
  -22.5462  -18.6381   18.7659 C   0  0  0  0  0  0  0  0  0  0  0  0
  -27.4943  -18.7647   17.6955 C   0  0  0  0  0  0  0  0  0  0  0  0
  -18.1634  -25.7275   21.5951 C   0  0  0  0  0  0  0  0  0  0  0  0
  -19.8265  -23.9808   21.7372 C   0  0  0  0  0  0  0  0  0  0  0  0
  -28.2658  -19.7157   18.3619 C   0  0  0  0  0  0  0  0  0  0  0  0
  -17.7622  -21.0761   21.0165 C   0  0  0  0  0  0  0  0  0  0  0  0
  -17.6952  -19.8588   21.6941 C   0  0  0  0  0  0  0  0  0  0  0  0
  -29.0192  -18.0175   19.9006 C   0  0  0  0  0  0  0  0  0  0  0  0
  -31.0479  -26.6502   19.8647 C   0  0  0  0  0  0  0  0  0  0  0  0
  -28.7527  -26.4571   20.5704 C   0  0  0  0  0  0  0  0  0  0  0  0
  -17.1792  -21.0285   23.7442 C   0  0  0  0  0  0  0  0  0  0  0  0
  -20.4091  -26.2533   22.3147 C   0  0  0  0  0  0  0  0  0  0  0  0
  -21.6629  -27.5902   24.0890 C   0  0  0  0  0  0  0  0  0  0  0  0
  -20.8368  -17.0306   18.1484 C   0  0  0  0  0  0  0  0  0  0  0  0
  -27.4709  -17.4329   18.1340 C   0  0  0  0  0  0  0  0  0  0  0  0
  -22.0562  -17.3213   18.7896 C   0  0  0  0  0  0  0  0  0  0  0  0
  -28.2486  -17.0509   19.2365 C   0  0  0  0  0  0  0  0  0  0  0  0
  -30.0245  -25.9065   20.4443 C   0  0  0  0  0  0  0  0  0  0  0  0
  -18.5236  -24.3878   21.4500 C   0  0  0  0  0  0  0  0  0  0  0  0
  -29.0261  -19.3428   19.4664 C   0  0  0  0  0  0  0  0  0  0  0  0
  -17.5378  -22.2696   21.7027 C   0  0  0  0  0  0  0  0  0  0  0  0
  -17.4036  -19.8350   23.0580 C   0  0  0  0  0  0  0  0  0  0  0  0
  -17.2463  -22.2458   23.0665 C   0  0  0  0  0  0  0  0  0  0  0  0
  -21.3835  -27.2164   22.7608 C   0  0  0  0  0  0  0  0  0  0  0  0
  -30.7715  -27.9361   19.4223 C   0  0  0  0  0  0  0  0  0  0  0  0
  -22.6595  -28.5290   23.9790 C   0  0  0  0  0  0  0  0  0  0  0  0
  -28.5345  -27.7479   20.1103 C   0  0  0  0  0  0  0  0  0  0  0  0
  -21.0744  -27.1299   25.3127 C   0  0  0  0  0  0  0  0  0  0  0  0
  -25.2247  -15.4747   19.2402 C   0  0  0  0  0  0  0  0  0  0  0  0
  -29.0611  -24.2282   22.9467 C   0  0  0  0  0  0  0  0  0  0  0  0
  -29.7250  -22.3398   21.3746 C   0  0  0  0  0  0  0  0  0  0  0  0
  -27.6110  -13.2826   19.0895 C   0  0  0  0  0  0  0  0  0  0  0  0
  -30.9640  -12.6468   19.0680 C   0  0  0  0  0  0  0  0  0  0  0  0
  -26.8332  -29.5855   19.8355 C   0  0  0  0  0  0  0  0  0  0  0  0
  -20.2348  -15.6481   18.1781 C   0  0  0  0  0  0  0  0  0  0  0  0
  -26.6543  -16.4136   17.3880 C   0  0  0  0  0  0  0  0  0  0  0  0
  -28.2739  -15.6298   19.7348 C   0  0  0  0  0  0  0  0  0  0  0  0
  -21.2337  -14.5567   18.5542 C   0  0  0  0  0  0  0  0  0  0  0  0
  -24.3496  -31.8629   20.9853 C   0  0  0  0  0  0  0  0  0  0  0  0
  -22.0535  -14.9791   19.7692 C   0  0  0  0  0  0  0  0  0  0  0  0
  -23.3357  -30.9645   21.6973 C   0  0  0  0  0  0  0  0  0  0  0  0
  -24.9351  -31.1868   19.7468 C   0  0  0  0  0  0  0  0  0  0  0  0
  -24.4907  -28.9549   20.6903 C   0  0  0  0  0  0  0  0  0  0  0  0
  -22.8695  -16.2429   19.4719 C   0  0  1  0  0  0  0  0  0  0  0  0
  -26.3044  -15.1931   18.2339 C   0  0  1  0  0  0  0  0  0  0  0  0
  -23.9218  -29.5675   21.9805 C   0  0  2  0  0  0  0  0  0  0  0  0
  -28.0160  -23.4828   23.7387 C   0  0  0  0  0  0  0  0  0  0  0  0
  -32.6096  -10.7547   18.9739 C   0  0  0  0  0  0  0  0  0  0  0  0
  -27.0371  -12.6410   22.0167 C   0  0  0  0  0  0  0  0  0  0  0  0
  -29.2569  -11.4885   22.1271 C   0  0  0  0  0  0  0  0  0  0  0  0
  -27.4908  -10.6444   20.5807 C   0  0  0  0  0  0  0  0  0  0  0  0
  -32.1339  -13.6370   16.5362 C   0  0  0  0  0  0  0  0  0  0  0  0
  -31.8080  -28.7939   18.7932 C   0  0  0  0  0  0  0  0  0  0  0  0
  -29.3062  -21.6154   20.1090 C   0  0  0  0  0  0  0  0  0  1  0  0
  -29.2691  -23.7804   21.5095 C   0  0  2  0  0  0  0  0  0  0  0  0
  -28.6855  -12.8051   20.0364 C   0  0  1  0  0  0  0  0  0  0  0  0
  -31.8176  -11.7722   18.1676 C   0  0  2  0  0  0  0  0  0  0  0  0
  -28.1158  -11.9220   21.1823 C   0  0  0  0  0  0  0  0  0  0  0  0
  -22.1411  -27.8649   21.8723 N   0  0  0  0  0  0  0  0  0  0  0  0
  -22.9065  -28.6557   22.6437 N   0  0  0  0  0  0  0  0  0  0  0  0
  -29.5379  -28.4419   19.5561 N   0  3  0  0  0  0  0  0  0  0  0  0
  -27.4540  -14.6712   18.9757 N   0  0  0  0  0  0  0  0  0  0  0  0
  -25.4754  -29.8702   20.0923 N   0  0  0  0  0  0  0  0  0  0  0  0
  -23.3397  -29.2502   24.8952 N   0  0  0  0  0  0  0  0  0  0  0  0
  -20.0628  -26.1623   25.2450 N   0  0  0  0  0  0  0  0  0  0  0  0
  -32.7372  -29.3360   19.7553 N   0  0  0  0  0  0  0  0  0  0  0  0
  -30.2714  -24.6202   20.8949 N   0  0  0  0  0  0  0  0  0  0  0  0
  -27.2415  -28.3137   20.2361 N   0  0  0  0  0  0  0  0  0  0  0  0
  -24.0389  -15.9158   18.6845 N   0  0  0  0  0  0  0  0  0  0  0  0
  -29.6896  -12.1406   19.2127 N   0  0  0  0  0  0  0  0  0  0  0  0
  -32.7778  -12.6080   17.3927 N   0  3  0  0  0  0  0  0  0  0  0  0
  -21.4234  -27.5759   26.4319 O   0  0  0  0  0  0  0  0  0  0  0  0
  -25.4503  -15.3029   20.4324 O   0  0  0  0  0  0  0  0  0  0  0  0
  -29.7073  -25.1414   23.4604 O   0  0  0  0  0  0  0  0  0  0  0  0
  -30.4094  -21.7909   22.2383 O   0  0  0  0  0  0  0  0  0  0  0  0
  -26.9408  -12.4542   18.4681 O   0  0  0  0  0  0  0  0  0  0  0  0
  -31.3866  -13.6743   19.5937 O   0  0  0  0  0  0  0  0  0  0  0  0
  -27.5856  -30.4189   19.3244 O   0  0  0  0  0  0  0  0  0  0  0  0
  -17.6039  -23.4773   21.0283 O   0  0  0  0  0  0  0  0  0  0  0  0
  -29.7795  -20.2692   20.1191 O   0  0  0  0  0  0  0  0  0  1  0  0
  -17.3378  -18.6658   23.7083 F   0  0  0  0  0  0  0  0  0  0  0  0
  -17.0286  -23.3891   23.7309 F   0  0  0  0  0  0  0  0  0  0  0  0
  1  2  1  0  0  0  0
  1  5  2  0  0  0  0
  2  6  2  0  0  0  0
  3  8  2  0  0  0  0
  3 17  1  0  0  0  0
  4  9  1  0  0  0  0
  4 17  2  0  0  0  0
  5 19  1  0  0  0  0
  6 21  1  0  0  0  0
  7 10  2  0  0  0  0
  7 20  1  0  0  0  0
  8 24  1  0  0  0  0
  9 24  2  0  0  0  0
 10 25  1  0  0  0  0
 11 12  2  0  0  0  0
 11 26  1  0  0  0  0
 12 27  1  0  0  0  0
 13 22  1  0  0  0  0
 13 25  2  0  0  0  0
 14 23  1  0  0  0  0
 14 30  2  0  0  0  0
 15 23  2  0  0  0  0
 15 32  1  0  0  0  0
 16 27  2  0  0  0  0
 16 28  1  0  0  0  0
 17 29  1  0  0  0  0
 18 29  1  0  0  0  0
 18 31  2  0  0  0  0
 18 33  1  0  0  0  0
 19 21  2  0  0  0  0
 19 40  1  0  0  0  0
 20 22  2  0  0  0  0
 20 41  1  0  0  0  0
 21 49  1  0  0  0  0
 22 42  1  0  0  0  0
 23 72  1  0  0  0  0
 24 84  1  0  0  0  0
 25 85  1  0  0  0  0
 26 28  2  0  0  0  0
 26 84  1  0  0  0  0
 27 86  1  0  0  0  0
 28 87  1  0  0  0  0
 29 64  2  0  0  0  0
 30 58  1  0  0  0  0
 30 66  1  0  0  0  0
 31 65  1  0  0  0  0
 31 69  1  0  0  0  0
 32 66  2  0  0  0  0
 32 73  1  0  0  0  0
 33 70  1  0  0  0  0
 33 77  2  0  0  0  0
 34 50  1  0  0  0  0
 34 74  1  0  0  0  0
 34 78  2  0  0  0  0
 35 52  1  0  0  0  0
 35 60  1  0  0  0  0
 35 79  2  0  0  0  0
 36 59  1  0  0  0  0
 36 60  1  0  0  0  0
 36 80  2  0  0  0  0
 37 61  1  0  0  0  0
 37 67  1  0  0  0  0
 37 81  2  0  0  0  0
 38 62  1  0  0  0  0
 38 75  1  0  0  0  0
 38 82  2  0  0  0  0
 39 68  1  0  0  0  0
 39 73  1  0  0  0  0
 39 83  2  0  0  0  0
 40 43  1  0  0  0  0
 41 50  1  0  0  0  0
 42 67  1  0  0  0  0
 43 45  1  0  0  0  0
 44 46  1  0  0  0  0
 44 47  1  0  0  0  0
 45 49  1  0  0  0  0
 46 51  1  0  0  0  0
 47 68  1  0  0  0  0
 48 51  1  0  0  0  0
 48 68  1  0  0  0  0
 49 74  1  0  0  0  0
 50 67  1  0  0  0  0
 51 65  1  0  0  0  0
 53 62  1  0  0  0  0
 54 63  1  0  0  0  0
 55 63  1  0  0  0  0
 56 63  1  0  0  0  0
 57 76  1  0  0  0  0
 58 71  1  0  0  0  0
 59 85  1  0  0  0  0
 60 72  1  0  0  0  0
 61 63  1  0  0  0  0
 61 75  1  0  0  0  0
 62 76  1  0  0  0  0
 64 65  1  0  0  0  0
M  CHG  2  66   1  76   1
M  ISO  4  39 100  59 101  73 100  85 101
M  END
> <Batch ID>
0172

> <Smiles>
CNC(C)C(=O)NC(C(=O)N1Cc2cc([101O:1][101CH2:1]C(=O)C(Nc3cc(CN)nc([100NH:0][100C:0](=O)N4CCCC(n5nc(-c6ccc(Oc7ccc(F)cc7F)cc6)c(C(N)=O)c5N)C4)c3)C(C)=O)ccc2CC1C(=O)NC1CCCc2ccccc21)C(C)(C)C

> <Shape>
0.236

> <Color>
0.051

> <Negative vol penalty>
0.000

$$$$

  -OEChem-04052304263D

 88 96  0     1  0  0  0  0  0999 V2000
  -30.2187  -24.1124   15.7855 C   0  0  0  0  0  0  0  0  0  0  0  0
  -28.8838  -24.3559   16.0924 C   0  0  0  0  0  0  0  0  0  0  0  0
  -26.8652  -15.2616   21.7211 C   0  0  0  0  0  0  0  0  0  0  0  0
  -26.3903  -15.2447   19.3523 C   0  0  0  0  0  0  0  0  0  0  0  0
  -31.1861  -24.1770   16.7874 C   0  0  0  0  0  0  0  0  0  0  0  0
  -28.5153  -24.6630   17.4017 C   0  0  0  0  0  0  0  0  0  0  0  0
  -25.2669  -28.5402   17.6470 C   0  0  0  0  0  0  0  0  0  0  0  0
  -26.4846  -13.9225   21.8070 C   0  0  0  0  0  0  0  0  0  0  0  0
  -26.0097  -13.9055   19.4382 C   0  0  0  0  0  0  0  0  0  0  0  0
  -23.9329  -28.2735   17.3419 C   0  0  0  0  0  0  0  0  0  0  0  0
  -24.5706  -10.5852   19.1000 C   0  0  0  0  0  0  0  0  0  0  0  0
  -23.4006  -10.2005   18.4452 C   0  0  0  0  0  0  0  0  0  0  0  0
  -23.4200  -28.1759   19.6970 C   0  0  0  0  0  0  0  0  0  0  0  0
  -21.7569  -23.1535   16.9507 C   0  0  0  0  0  0  0  0  0  0  0  0
  -23.1372  -21.6919   15.6108 C   0  0  0  0  0  0  0  0  0  0  0  0
  -22.1354  -11.7578   19.7910 C   0  0  0  0  0  0  0  0  0  0  0  0
  -26.8180  -15.9228   20.4938 C   0  0  0  0  0  0  0  0  0  0  0  0
  -28.4991  -17.8091   20.1424 C   0  0  0  0  0  0  0  0  0  0  0  0
  -30.8306  -24.4946   18.1078 C   0  0  0  0  0  0  0  0  0  0  0  0
  -25.6903  -28.6161   18.9817 C   0  0  0  0  0  0  0  0  0  0  0  0
  -29.4787  -24.7306   18.4225 C   0  0  0  0  0  0  0  0  0  0  0  0
  -24.7594  -28.4463   20.0164 C   0  0  0  0  0  0  0  0  0  0  0  0
  -21.1260  -22.6482   14.6740 C   0  0  0  0  0  0  0  0  0  0  0  0
  -22.8874  -22.3476   16.8164 C   0  0  0  0  0  0  0  0  0  0  0  0
  -20.8762  -23.3038   15.8795 C   0  0  0  0  0  0  0  0  0  0  0  0
  -26.0568  -13.2444   20.6656 C   0  0  0  0  0  0  0  0  0  0  0  0
  -23.0098  -28.0884   18.3669 C   0  0  0  0  0  0  0  0  0  0  0  0
  -24.5230  -11.5562   20.1003 C   0  0  0  0  0  0  0  0  0  0  0  0
  -22.1830  -10.7868   18.7907 C   0  0  0  0  0  0  0  0  0  0  0  0
  -22.2565  -21.8422   14.5396 C   0  0  0  0  0  0  0  0  0  0  0  0
  -23.3054  -12.1425   20.4458 C   0  0  0  0  0  0  0  0  0  0  0  0
  -27.2106  -17.3062   20.4045 C   0  0  0  0  0  0  0  0  0  0  0  0
  -28.3457  -19.1738   20.1626 C   0  0  0  0  0  0  0  0  0  0  0  0
  -29.7250  -17.1054   19.9021 C   0  0  0  0  0  0  0  0  0  0  0  0
  -27.7470  -26.9896   20.7785 C   0  0  0  0  0  0  0  0  0  0  0  0
  -20.1738  -26.3071   16.9716 C   0  0  0  0  0  0  0  0  0  0  0  0
  -27.0465  -29.2798   22.9665 C   0  0  0  0  0  0  0  0  0  0  0  0
  -24.8428  -31.6258   24.1007 C   0  0  0  0  0  0  0  0  0  0  0  0
  -23.6801  -22.7725   19.1695 C   0  0  0  0  0  0  0  0  0  0  0  0
  -31.9051  -24.5063   19.1661 C   0  0  0  0  0  0  0  0  0  0  0  0
  -27.1275  -28.9311   19.2942 C   0  0  0  0  0  0  0  0  0  0  0  0
  -25.1590  -28.5378   21.4657 C   0  0  0  0  0  0  0  0  0  0  0  0
  -31.4828  -25.2061   20.4553 C   0  0  0  0  0  0  0  0  0  0  0  0
  -25.6526  -22.6109   22.1293 C   0  0  0  0  0  0  0  0  0  0  0  0
  -30.0952  -24.7409   20.8853 C   0  0  0  0  0  0  0  0  0  0  0  0
  -26.3978  -21.2808   21.9961 C   0  0  0  0  0  0  0  0  0  0  0  0
  -24.2300  -22.5213   21.5798 C   0  0  0  0  0  0  0  0  0  0  0  0
  -24.8708  -20.6798   20.0741 C   0  0  0  0  0  0  0  0  0  0  0  0
  -29.0430  -25.0912   19.8262 C   0  0  1  0  0  0  0  0  0  0  0  0
  -27.5494  -28.4764   20.6880 C   0  0  1  0  0  0  0  0  0  0  0  0
  -26.3300  -20.7387   20.5549 C   0  0  2  0  0  0  0  0  0  0  0  0
  -24.5309  -33.3129   25.9320 C   0  0  0  0  0  0  0  0  0  0  0  0
  -26.3761  -27.0329   24.9189 C   0  0  0  0  0  0  0  0  0  0  0  0
  -25.1956  -28.7184   26.3449 C   0  0  0  0  0  0  0  0  0  0  0  0
  -27.6436  -28.9418   25.9207 C   0  0  0  0  0  0  0  0  0  0  0  0
  -18.4897  -23.5392   16.5197 C   0  0  0  0  0  0  0  0  0  0  0  0
  -24.7180  -33.8677   22.1726 C   0  0  0  0  0  0  0  0  0  0  0  0
  -19.7842  -25.5279   15.7334 C   0  0  0  0  0  0  0  0  0  0  0  0
  -21.4444  -27.1267   16.8568 C   0  0  0  0  0  0  0  0  0  1  0  0
  -26.0119  -29.4383   24.0544 C   0  0  1  0  0  0  0  0  0  0  0  0
  -25.0378  -33.0722   24.5186 C   0  0  2  0  0  0  0  0  0  0  0  0
  -20.1980  -22.7941   13.5118 C   0  0  0  0  0  0  0  0  0  0  0  0
  -26.2993  -28.5291   25.2825 C   0  0  0  0  0  0  0  0  0  0  0  0
  -26.3054  -18.2729   20.5786 N   0  0  0  0  0  0  0  0  0  0  0  0
  -27.0262  -19.3968   20.4256 N   0  0  0  0  0  0  0  0  0  0  0  0
  -26.5770  -28.8415   21.7201 N   0  0  0  0  0  0  0  0  0  0  0  0
  -24.2444  -22.0042   20.2097 N   0  0  0  0  0  0  0  0  0  0  0  0
  -29.2123  -20.1929   19.9808 N   0  0  0  0  0  0  0  0  0  0  0  0
  -29.7050  -15.7041   19.9168 N   0  0  0  0  0  0  0  0  0  0  0  0
  -23.7813  -22.1936   17.9049 N   0  0  0  0  0  0  0  0  0  0  0  0
  -28.6950  -26.4938   19.9040 N   0  0  0  0  0  0  0  0  0  0  0  0
  -25.9607  -30.8629   24.3645 N   0  0  0  0  0  0  0  0  0  0  0  0
  -19.7441  -24.1192   16.0324 N   0  0  3  0  0  0  0  0  0  0  0  0
  -24.3032  -33.9818   23.5945 N   0  3  0  0  0  0  0  0  0  0  0  0
  -30.8093  -17.7018   19.6971 O   0  0  0  0  0  0  0  0  0  0  0  0
  -27.0891  -26.3406   21.5833 O   0  0  0  0  0  0  0  0  0  0  0  0
  -19.5112  -26.2841   18.0081 O   0  0  0  0  0  0  0  0  0  0  0  0
  -28.2267  -29.5422   23.2114 O   0  0  0  0  0  0  0  0  0  0  0  0
  -23.8016  -31.2133   23.5946 O   0  0  0  0  0  0  0  0  0  0  0  0
  -23.1706  -23.8760   19.3808 O   0  0  0  0  0  0  0  0  0  0  0  0
  -25.6855  -11.9376   20.7489 O   0  0  0  0  0  0  0  0  0  0  0  0
  -21.7072  -27.8273   18.0718 O   0  0  0  0  0  0  0  0  0  1  0  0
  -21.0598  -10.4183   18.1607 F   0  0  0  0  0  0  0  0  0  0  0  0
  -22.5062  -21.2085   13.3850 F   0  0  0  0  0  0  0  0  0  0  0  0
  -23.2535  -13.0766   21.4052 F   0  0  0  0  0  0  0  0  0  0  0  0
  -19.1314  -23.6070   13.7654 F   0  0  0  0  0  0  0  0  0  0  0  0
  -20.7941  -23.3203   12.4026 F   0  0  0  0  0  0  0  0  0  0  0  0
  -19.6669  -21.6024   13.1148 F   0  0  0  0  0  0  0  0  0  0  0  0
  1  2  1  0  0  0  0
  1  5  2  0  0  0  0
  2  6  2  0  0  0  0
  3  8  2  0  0  0  0
  3 17  1  0  0  0  0
  4  9  1  0  0  0  0
  4 17  2  0  0  0  0
  5 19  1  0  0  0  0
  6 21  1  0  0  0  0
  7 10  2  0  0  0  0
  7 20  1  0  0  0  0
  8 26  1  0  0  0  0
  9 26  2  0  0  0  0
 10 27  1  0  0  0  0
 11 12  2  0  0  0  0
 11 28  1  0  0  0  0
 12 29  1  0  0  0  0
 13 22  1  0  0  0  0
 13 27  2  0  0  0  0
 14 24  2  0  0  0  0
 14 25  1  0  0  0  0
 15 24  1  0  0  0  0
 15 30  2  0  0  0  0
 16 29  2  0  0  0  0
 16 31  1  0  0  0  0
 17 32  1  0  0  0  0
 18 32  1  0  0  0  0
 18 33  2  0  0  0  0
 18 34  1  0  0  0  0
 19 21  2  0  0  0  0
 19 40  1  0  0  0  0
 20 22  2  0  0  0  0
 20 41  1  0  0  0  0
 21 49  1  0  0  0  0
 22 42  1  0  0  0  0
 23 25  2  0  0  0  0
 23 30  1  0  0  0  0
 23 62  1  0  0  0  0
 24 70  1  0  0  0  0
 25 73  1  0  0  0  0
 26 81  1  0  0  0  0
 27 82  1  0  0  0  0
 28 31  2  0  0  0  0
 28 81  1  0  0  0  0
 29 83  1  0  0  0  0
 30 84  1  0  0  0  0
 31 85  1  0  0  0  0
 32 64  2  0  0  0  0
 33 65  1  0  0  0  0
 33 68  1  0  0  0  0
 34 69  1  0  0  0  0
 34 75  2  0  0  0  0
 35 50  1  0  0  0  0
 35 71  1  0  0  0  0
 35 76  2  0  0  0  0
 36 58  1  0  0  0  0
 36 59  1  0  0  0  0
 36 77  2  0  0  0  0
 37 60  1  0  0  0  0
 37 66  1  0  0  0  0
 37 78  2  0  0  0  0
 38 61  1  0  0  0  0
 38 72  1  0  0  0  0
 38 79  2  0  0  0  0
 39 67  1  0  0  0  0
 39 70  1  0  0  0  0
 39 80  2  0  0  0  0
 40 43  1  0  0  0  0
 41 50  1  0  0  0  0
 42 66  1  0  0  0  0
 43 45  1  0  0  0  0
 44 46  1  0  0  0  0
 44 47  1  0  0  0  0
 45 49  1  0  0  0  0
 46 51  1  0  0  0  0
 47 67  1  0  0  0  0
 48 51  1  0  0  0  0
 48 67  1  0  0  0  0
 49 71  1  0  0  0  0
 50 66  1  0  0  0  0
 51 65  1  0  0  0  0
 52 61  1  0  0  0  0
 53 63  1  0  0  0  0
 54 63  1  0  0  0  0
 55 63  1  0  0  0  0
 56 73  1  0  0  0  0
 57 74  1  0  0  0  0
 58 73  1  0  0  0  0
 59 82  1  0  0  0  0
 60 63  1  0  0  0  0
 60 72  1  0  0  0  0
 61 74  1  0  0  0  0
 62 86  1  0  0  0  0
 62 87  1  0  0  0  0
 62 88  1  0  0  0  0
 64 65  1  0  0  0  0
M  CHG  1  74   1
M  ISO  4  39 100  59 101  70 100  82 101
M  END
> <Batch ID>
0172

> <Smiles>
CNC(C)C(=O)NC(C(=O)N1Cc2cc([101O:1][101CH2:1]C(=O)CN(C)c3cc([100NH:0][100C:0](=O)N4CCCC(n5nc(-c6ccc(Oc7ccc(F)cc7F)cc6)c(C(N)=O)c5N)C4)cc(F)c3C(F)(F)F)ccc2CC1C(=O)NC1CCCc2ccccc21)C(C)(C)C

> <Shape>
0.206

> <Color>
0.076

> <Negative vol penalty>
0.000

$$$$

  -OEChem-04052304263D

 94102  0     1  0  0  0  0  0999 V2000
  -29.3034  -23.6374   17.8136 C   0  0  0  0  0  0  0  0  0  0  0  0
  -28.1033  -23.7706   18.5047 C   0  0  0  0  0  0  0  0  0  0  0  0
  -25.4651  -13.4950   20.2068 C   0  0  0  0  0  0  0  0  0  0  0  0
  -23.6673  -14.8517   21.0808 C   0  0  0  0  0  0  0  0  0  0  0  0
  -30.4153  -24.3848   18.1996 C   0  0  0  0  0  0  0  0  0  0  0  0
  -28.0148  -24.6504   19.5828 C   0  0  0  0  0  0  0  0  0  0  0  0
  -23.7952  -27.4480   19.4660 C   0  0  0  0  0  0  0  0  0  0  0  0
  -24.9864  -12.3985   20.9239 C   0  0  0  0  0  0  0  0  0  0  0  0
  -23.1885  -13.7553   21.7979 C   0  0  0  0  0  0  0  0  0  0  0  0
  -22.6131  -26.8348   19.8786 C   0  0  0  0  0  0  0  0  0  0  0  0
  -24.0288   -9.1483   22.2407 C   0  0  0  0  0  0  0  0  0  0  0  0
  -23.9571   -7.9222   21.5796 C   0  0  0  0  0  0  0  0  0  0  0  0
  -22.8186  -27.9017   22.0324 C   0  0  0  0  0  0  0  0  0  0  0  0
  -24.7823  -22.6720   23.0188 C   0  0  0  0  0  0  0  0  0  0  0  0
  -27.0121  -23.3288   23.6772 C   0  0  0  0  0  0  0  0  0  0  0  0
  -25.0937  -24.2568   24.8156 C   0  0  0  0  0  0  0  0  0  0  0  0
  -22.4429   -8.8837   19.9609 C   0  0  0  0  0  0  0  0  0  0  0  0
  -24.8056  -14.7216   20.2853 C   0  0  0  0  0  0  0  0  0  0  0  0
  -24.9489  -16.2335   18.2356 C   0  0  0  0  0  0  0  0  0  0  0  0
  -30.3377  -25.2814   19.2770 C   0  0  0  0  0  0  0  0  0  0  0  0
  -24.5049  -28.2854   20.3386 C   0  0  0  0  0  0  0  0  0  0  0  0
  -29.1271  -25.4095   19.9844 C   0  0  0  0  0  0  0  0  0  0  0  0
  -24.0081  -28.5263   21.6275 C   0  0  0  0  0  0  0  0  0  0  0  0
  -26.1650  -22.5816   22.8588 C   0  0  0  0  0  0  0  0  0  0  0  0
  -24.2467  -23.5096   23.9971 C   0  0  0  0  0  0  0  0  0  0  0  0
  -26.4765  -24.1664   24.6557 C   0  0  0  0  0  0  0  0  0  0  0  0
  -23.8480  -12.5287   21.7194 C   0  0  0  0  0  0  0  0  0  0  0  0
  -22.1261  -27.0593   21.1630 C   0  0  0  0  0  0  0  0  0  0  0  0
  -23.3076  -10.2421   21.7621 C   0  0  0  0  0  0  0  0  0  0  0  0
  -23.1642   -7.7899   20.4397 C   0  0  0  0  0  0  0  0  0  0  0  0
  -22.5146  -10.1098   20.6221 C   0  0  0  0  0  0  0  0  0  0  0  0
  -25.3000  -15.8547   19.5452 C   0  0  0  0  0  0  0  0  0  0  0  0
  -25.6869  -17.3670   17.9965 C   0  0  0  0  0  0  0  0  0  0  0  0
  -24.0371  -15.6161   17.3173 C   0  0  0  0  0  0  0  0  0  0  0  0
  -27.4052  -28.2296   21.6381 C   0  0  0  0  0  0  0  0  0  0  0  0
  -29.2518  -23.6041   26.0401 C   0  0  0  0  0  0  0  0  0  0  0  0
  -20.6636  -24.0619   23.2690 C   0  0  0  0  0  0  0  0  0  0  0  0
  -26.5511  -31.1657   22.7207 C   0  0  0  0  0  0  0  0  0  0  0  0
  -24.0485  -33.3351   23.5437 C   0  0  0  0  0  0  0  0  0  0  0  0
  -28.0569  -21.5251   21.5739 C   0  0  0  0  0  0  0  0  0  0  0  0
  -31.5795  -26.0327   19.6870 C   0  0  0  0  0  0  0  0  0  0  0  0
  -25.7644  -28.9606   19.8691 C   0  0  0  0  0  0  0  0  0  0  0  0
  -24.7217  -29.4329   22.5958 C   0  0  0  0  0  0  0  0  0  0  0  0
  -31.2980  -27.2199   20.6044 C   0  0  0  0  0  0  0  0  0  0  0  0
  -29.7995  -19.4875   19.2311 C   0  0  0  0  0  0  0  0  0  0  0  0
  -30.3350  -26.8182   21.7171 C   0  0  0  0  0  0  0  0  0  0  0  0
  -28.8091  -18.3625   18.9220 C   0  0  0  0  0  0  0  0  0  0  0  0
  -29.7334  -19.9145   20.6964 C   0  0  0  0  0  0  0  0  0  0  0  0
  -27.4018  -19.1389   20.8723 C   0  0  0  0  0  0  0  0  0  0  0  0
  -28.9847  -26.3718   21.1436 C   0  0  1  0  0  0  0  0  0  0  0  0
  -26.6767  -29.3867   21.0152 C   0  0  1  0  0  0  0  0  0  0  0  0
  -27.3857  -18.7194   19.3933 C   0  0  2  0  0  0  0  0  0  0  0  0
  -30.4839  -22.9624   25.4545 C   0  0  0  0  0  0  0  0  0  0  0  0
  -23.6608  -35.6487   24.4351 C   0  0  0  0  0  0  0  0  0  0  0  0
  -19.3856  -23.0509   21.3387 C   0  0  0  0  0  0  0  0  0  0  0  0
  -27.2701  -30.2031   25.5254 C   0  0  0  0  0  0  0  0  0  0  0  0
  -25.9964  -32.1523   26.4455 C   0  0  0  0  0  0  0  0  0  0  0  0
  -27.9967  -32.5390   25.0060 C   0  0  0  0  0  0  0  0  0  0  0  0
  -22.6254  -34.1688   21.0864 C   0  0  0  0  0  0  0  0  0  0  0  0
  -21.9212  -23.2198   23.1404 C   0  0  0  0  0  0  0  0  0  0  0  0
  -20.6606  -25.1941   20.9918 C   0  0  0  0  0  0  0  0  0  1  0  0
  -28.7581  -24.8775   25.3725 C   0  0  2  0  0  0  0  0  0  0  0  0
  -25.8593  -31.6903   23.9557 C   0  0  1  0  0  0  0  0  0  0  0  0
  -23.8220  -34.7934   23.1880 C   0  0  2  0  0  0  0  0  0  0  0  0
  -19.8637  -24.3489   21.9870 C   0  0  2  0  0  0  0  0  0  0  0  0
  -26.7680  -31.6275   25.2158 C   0  0  0  0  0  0  0  0  0  0  0  0
  -29.3667  -26.1011   26.0242 C   0  0  0  0  0  0  0  0  0  0  0  0
  -26.1918  -16.6804   20.0992 N   0  0  0  0  0  0  0  0  0  0  0  0
  -26.4073  -17.5893   19.1330 N   0  0  0  0  0  0  0  0  0  0  0  0
  -25.9523  -30.0648   22.0921 N   0  0  0  0  0  0  0  0  0  0  0  0
  -28.3557  -20.2414   21.0705 N   0  0  0  0  0  0  0  0  0  0  0  0
  -25.7834  -18.1851   16.9271 N   0  0  0  0  0  0  0  0  0  0  0  0
  -23.3615  -14.4574   17.7240 N   0  0  0  0  0  0  0  0  0  0  0  0
  -26.7086  -21.7310   21.8645 N   0  0  0  0  0  0  0  0  0  0  0  0
  -22.8726  -23.5992   24.1567 N   0  0  0  0  0  0  0  0  0  0  0  0
  -27.3330  -24.9230   25.4824 N   0  0  0  0  0  0  0  0  0  0  0  0
  -28.1963  -27.5211   20.7540 N   0  0  0  0  0  0  0  0  0  0  0  0
  -25.3911  -33.0313   23.6229 N   0  0  0  0  0  0  0  0  0  0  0  0
  -22.5939  -34.9390   22.3563 N   0  3  0  0  0  0  0  0  0  0  0  0
  -23.8401  -16.0688   16.1642 O   0  0  0  0  0  0  0  0  0  0  0  0
  -27.2615  -27.9977   22.8328 O   0  0  0  0  0  0  0  0  0  0  0  0
  -28.6992  -23.1200   27.0285 O   0  0  0  0  0  0  0  0  0  0  0  0
  -20.2903  -24.5018   24.3590 O   0  0  0  0  0  0  0  0  0  0  0  0
  -27.5809  -31.7171   22.3242 O   0  0  0  0  0  0  0  0  0  0  0  0
  -23.1266  -32.5455   23.7361 O   0  0  0  0  0  0  0  0  0  0  0  0
  -28.9282  -22.3879   21.7098 O   0  0  0  0  0  0  0  0  0  0  0  0
  -18.7103  -25.1027   22.3598 O   0  0  0  0  0  0  0  0  0  0  0  0
  -23.3805  -11.4589   22.4191 O   0  0  0  0  0  0  0  0  0  0  0  0
  -20.9729  -26.4615   21.5685 O   0  0  0  0  0  0  0  0  0  1  0  0
  -23.0966   -6.6128   19.8040 F   0  0  0  0  0  0  0  0  0  0  0  0
  -21.8204  -11.1573   20.1568 F   0  0  0  0  0  0  0  0  0  0  0  0
  -28.9301  -27.2443   25.4531 F   0  0  0  0  0  0  0  0  0  0  0  0
  -29.0661  -26.1563   27.3403 F   0  0  0  0  0  0  0  0  0  0  0  0
  -30.7153  -26.0803   25.9239 F   0  0  0  0  0  0  0  0  0  0  0  0
  1  2  1  0  0  0  0
  1  5  2  0  0  0  0
  2  6  2  0  0  0  0
  3  8  2  0  0  0  0
  3 18  1  0  0  0  0
  4  9  1  0  0  0  0
  4 18  2  0  0  0  0
  5 20  1  0  0  0  0
  6 22  1  0  0  0  0
  7 10  2  0  0  0  0
  7 21  1  0  0  0  0
  8 27  1  0  0  0  0
  9 27  2  0  0  0  0
 10 28  1  0  0  0  0
 11 12  2  0  0  0  0
 11 29  1  0  0  0  0
 12 30  1  0  0  0  0
 13 23  1  0  0  0  0
 13 28  2  0  0  0  0
 14 24  1  0  0  0  0
 14 25  2  0  0  0  0
 15 24  2  0  0  0  0
 15 26  1  0  0  0  0
 16 25  1  0  0  0  0
 16 26  2  0  0  0  0
 17 30  2  0  0  0  0
 17 31  1  0  0  0  0
 18 32  1  0  0  0  0
 19 32  1  0  0  0  0
 19 33  2  0  0  0  0
 19 34  1  0  0  0  0
 20 22  2  0  0  0  0
 20 41  1  0  0  0  0
 21 23  2  0  0  0  0
 21 42  1  0  0  0  0
 22 50  1  0  0  0  0
 23 43  1  0  0  0  0
 24 74  1  0  0  0  0
 25 75  1  0  0  0  0
 26 76  1  0  0  0  0
 27 88  1  0  0  0  0
 28 89  1  0  0  0  0
 29 31  2  0  0  0  0
 29 88  1  0  0  0  0
 30 90  1  0  0  0  0
 31 91  1  0  0  0  0
 32 68  2  0  0  0  0
 33 69  1  0  0  0  0
 33 72  1  0  0  0  0
 34 73  1  0  0  0  0
 34 80  2  0  0  0  0
 35 51  1  0  0  0  0
 35 77  1  0  0  0  0
 35 81  2  0  0  0  0
 36 53  1  0  0  0  0
 36 62  1  0  0  0  0
 36 82  2  0  0  0  0
 37 60  1  0  0  0  0
 37 65  1  0  0  0  0
 37 83  2  0  0  0  0
 38 63  1  0  0  0  0
 38 70  1  0  0  0  0
 38 84  2  0  0  0  0
 39 64  1  0  0  0  0
 39 78  1  0  0  0  0
 39 85  2  0  0  0  0
 40 71  1  0  0  0  0
 40 74  1  0  0  0  0
 40 86  2  0  0  0  0
 41 44  1  0  0  0  0
 42 51  1  0  0  0  0
 43 70  1  0  0  0  0
 44 46  1  0  0  0  0
 45 47  1  0  0  0  0
 45 48  1  0  0  0  0
 46 50  1  0  0  0  0
 47 52  1  0  0  0  0
 48 71  1  0  0  0  0
 49 52  1  0  0  0  0
 49 71  1  0  0  0  0
 50 77  1  0  0  0  0
 51 70  1  0  0  0  0
 52 69  1  0  0  0  0
 54 64  1  0  0  0  0
 55 65  1  0  0  0  0
 56 66  1  0  0  0  0
 57 66  1  0  0  0  0
 58 66  1  0  0  0  0
 59 79  1  0  0  0  0
 60 75  1  0  0  0  0
 61 65  1  0  0  0  0
 61 89  1  0  0  0  0
 62 67  1  0  0  0  0
 62 76  1  0  0  0  0
 63 66  1  0  0  0  0
 63 78  1  0  0  0  0
 64 79  1  0  0  0  0
 65 87  1  0  0  0  0
 67 92  1  0  0  0  0
 67 93  1  0  0  0  0
 67 94  1  0  0  0  0
 68 69  1  0  0  0  0
M  CHG  1  79   1
M  ISO  4  40 100  61 101  74 100  89 101
M  END
> <Batch ID>
0172

> <Smiles>
CNC(C)C(=O)NC(C(=O)N1Cc2cc([101O:1][101CH2:1]C(C)(O)C(=O)CNc3cc(NC(C(C)=O)C(F)(F)F)cc([100NH:0][100C:0](=O)N4CCCC(n5nc(-c6ccc(Oc7ccc(F)cc7F)cc6)c(C(N)=O)c5N)C4)c3)ccc2CC1C(=O)NC1CCCc2ccccc21)C(C)(C)C

> <Shape>
0.285

> <Color>
0.058

> <Negative vol penalty>
0.000

$$$$

  -OEChem-04052304263D

 84 92  0     1  0  0  0  0  0999 V2000
  -24.6709  -37.1973   18.7994 C   0  0  0  0  0  0  0  0  0  0  0  0
  -25.3806  -36.0335   18.5212 C   0  0  0  0  0  0  0  0  0  0  0  0
  -23.8285   -8.9561   19.9868 C   0  0  0  0  0  0  0  0  0  0  0  0
  -23.1828  -10.7346   21.4891 C   0  0  0  0  0  0  0  0  0  0  0  0
  -24.1792  -37.4222   20.0846 C   0  0  0  0  0  0  0  0  0  0  0  0
  -25.6000  -35.0944   19.5284 C   0  0  0  0  0  0  0  0  0  0  0  0
  -25.8242  -29.0066   18.9003 C   0  0  0  0  0  0  0  0  0  0  0  0
  -30.4756  -19.8151   20.2272 C   0  0  0  0  0  0  0  0  0  0  0  0
  -30.4110  -18.4231   20.1651 C   0  0  0  0  0  0  0  0  0  0  0  0
  -22.9717   -8.0810   20.6544 C   0  0  0  0  0  0  0  0  0  0  0  0
  -22.3259   -9.8595   22.1567 C   0  0  0  0  0  0  0  0  0  0  0  0
  -26.8891  -28.1139   18.7871 C   0  0  0  0  0  0  0  0  0  0  0  0
  -19.6571   -7.4178   20.7353 C   0  0  0  0  0  0  0  0  0  0  0  0
  -18.8424   -6.5916   19.9611 C   0  0  0  0  0  0  0  0  0  0  0  0
  -26.7718  -27.6828   21.1577 C   0  0  0  0  0  0  0  0  0  0  0  0
  -28.4193  -19.9667   18.9679 C   0  0  0  0  0  0  0  0  0  0  0  0
  -19.8661   -4.6451   20.9612 C   0  0  0  0  0  0  0  0  0  0  0  0
  -23.9341  -10.2828   20.4042 C   0  0  0  0  0  0  0  0  0  0  0  0
  -24.5091  -12.0058   18.6130 C   0  0  0  0  0  0  0  0  0  0  0  0
  -24.3844  -36.4809   21.1056 C   0  0  0  0  0  0  0  0  0  0  0  0
  -25.2312  -29.2528   20.1470 C   0  0  0  0  0  0  0  0  0  0  0  0
  -25.1118  -35.3076   20.8288 C   0  0  0  0  0  0  0  0  0  0  0  0
  -25.6978  -28.5772   21.2836 C   0  0  0  0  0  0  0  0  0  0  0  0
  -29.4797  -20.5869   19.6286 C   0  0  0  0  0  0  0  0  0  0  0  0
  -29.3506  -17.8029   19.5044 C   0  0  0  0  0  0  0  0  0  0  0  0
  -22.2203   -8.5327   21.7393 C   0  0  0  0  0  0  0  0  0  0  0  0
  -27.3650  -27.4541   19.9164 C   0  0  0  0  0  0  0  0  0  0  0  0
  -20.5764   -6.8576   21.6224 C   0  0  0  0  0  0  0  0  0  0  0  0
  -18.9469   -5.2053   20.0741 C   0  0  0  0  0  0  0  0  0  0  0  0
  -28.3547  -18.5747   18.9058 C   0  0  0  0  0  0  0  0  0  0  0  0
  -20.6809   -5.4713   21.7353 C   0  0  0  0  0  0  0  0  0  0  0  0
  -24.8195  -11.1871   19.7154 C   0  0  0  0  0  0  0  0  0  0  0  0
  -25.6807  -12.6668   18.3355 C   0  0  0  0  0  0  0  0  0  0  0  0
  -28.1204  -25.2696   19.5583 C   0  0  0  0  0  0  0  0  0  1  0  0
  -23.2723  -12.1556   17.9034 C   0  0  0  0  0  0  0  0  0  0  0  0
  -29.0635  -24.3280   19.4334 C   0  0  0  0  0  0  0  0  0  0  0  0
  -28.6476  -22.9141   19.1573 C   0  0  0  0  0  0  0  0  0  0  0  0
  -24.8891  -31.8110   22.0023 C   0  0  0  0  0  0  0  0  0  0  0  0
  -23.0670  -29.7978   23.7770 C   0  0  0  0  0  0  0  0  0  0  0  0
  -22.3186  -26.5883   24.6634 C   0  0  0  0  0  0  0  0  0  0  0  0
  -30.1952  -15.4785   19.9839 C   0  0  0  0  0  0  0  0  0  0  0  0
  -23.8746  -36.7899   22.4910 C   0  0  0  0  0  0  0  0  0  0  0  0
  -24.0659  -30.1985   20.2479 C   0  0  0  0  0  0  0  0  0  0  0  0
  -25.0826  -28.7910   22.6416 C   0  0  0  0  0  0  0  0  0  0  0  0
  -23.8273  -35.5709   23.4086 C   0  0  0  0  0  0  0  0  0  0  0  0
  -30.3744  -11.9237   20.0789 C   0  0  0  0  0  0  0  0  0  0  0  0
  -25.1275  -34.7792   23.3120 C   0  0  0  0  0  0  0  0  0  0  0  0
  -28.9196  -11.4826   19.9021 C   0  0  0  0  0  0  0  0  0  0  0  0
  -30.4834  -13.1946   20.9197 C   0  0  0  0  0  0  0  0  0  0  0  0
  -28.2044  -13.8769   20.2796 C   0  0  0  0  0  0  0  0  0  0  0  0
  -25.3489  -34.2536   21.8885 C   0  0  1  0  0  0  0  0  0  0  0  0
  -23.8727  -30.7610   21.6527 C   0  0  1  0  0  0  0  0  0  0  0  0
  -28.0394  -12.6374   19.3852 C   0  0  2  0  0  0  0  0  0  0  0  0
  -20.8086  -25.2604   26.1647 C   0  0  0  0  0  0  0  0  0  0  0  0
  -24.7954  -30.5496   26.1765 C   0  0  0  0  0  0  0  0  0  0  0  0
  -23.8889  -28.5439   27.3697 C   0  0  0  0  0  0  0  0  0  0  0  0
  -22.3491  -30.3762   26.6664 C   0  0  0  0  0  0  0  0  0  0  0  0
  -21.0621  -25.2045   22.3688 C   0  0  0  0  0  0  0  0  0  0  0  0
  -23.3294  -28.8400   24.9140 C   0  0  1  0  0  0  0  0  0  0  0  0
  -20.9927  -25.8582   24.7785 C   0  0  2  0  0  0  0  0  0  0  0  0
  -23.6038  -29.5746   26.2565 C   0  0  0  0  0  0  0  0  0  0  0  0
  -26.0888  -11.3145   20.1110 N   0  0  0  0  0  0  0  0  0  0  0  0
  -26.5864  -12.2209   19.2526 N   0  0  0  0  0  0  0  0  0  0  0  0
  -23.9498  -29.7301   22.6899 N   0  0  0  0  0  0  0  0  0  0  0  0
  -29.6260  -14.2459   20.3679 N   0  0  0  0  0  0  0  0  0  0  0  0
  -26.0142  -13.5800   17.3989 N   0  0  0  0  0  0  0  0  0  0  0  0
  -22.1672  -11.4011   18.3203 N   0  0  0  0  0  0  0  0  0  0  0  0
  -29.5455  -21.9998   19.6910 N   0  0  0  0  0  0  0  0  0  0  0  0
  -29.2880  -16.3887   19.4425 N   0  0  0  0  0  0  0  0  0  0  0  0
  -24.5195  -33.0932   21.6435 N   0  0  0  0  0  0  0  0  0  0  0  0
  -22.1895  -27.9303   24.9527 N   0  0  0  0  0  0  0  0  0  0  0  0
  -20.9196  -24.7562   23.7780 N   0  3  0  0  0  0  0  0  0  0  0  0
  -23.1552  -12.9231   16.9182 O   0  0  0  0  0  0  0  0  0  0  0  0
  -27.6235  -22.6700   18.5285 O   0  0  0  0  0  0  0  0  0  0  0  0
  -25.9307  -31.4824   22.5579 O   0  0  0  0  0  0  0  0  0  0  0  0
  -22.1097  -30.5725   23.8477 O   0  0  0  0  0  0  0  0  0  0  0  0
  -23.3650  -26.0238   24.3520 O   0  0  0  0  0  0  0  0  0  0  0  0
  -31.4034  -15.6995   20.0996 O   0  0  0  0  0  0  0  0  0  0  0  0
  -30.4103  -24.6067   19.5476 O   0  0  0  0  0  0  0  0  0  0  0  0
  -21.3839   -7.6792   22.3908 O   0  0  0  0  0  0  0  0  0  0  0  0
  -28.4047  -26.5827   19.8088 O   0  0  0  0  0  0  0  0  0  1  0  0
  -18.1634   -4.4120   19.3317 F   0  0  0  0  0  0  0  0  0  0  0  0
  -27.3316  -17.9895   18.2667 F   0  0  0  0  0  0  0  0  0  0  0  0
  -21.5613   -4.9273   22.5866 F   0  0  0  0  0  0  0  0  0  0  0  0
  1  2  1  0  0  0  0
  1  5  2  0  0  0  0
  2  6  2  0  0  0  0
  3 10  2  0  0  0  0
  3 18  1  0  0  0  0
  4 11  1  0  0  0  0
  4 18  2  0  0  0  0
  5 20  1  0  0  0  0
  6 22  1  0  0  0  0
  7 12  2  0  0  0  0
  7 21  1  0  0  0  0
  8  9  2  0  0  0  0
  8 24  1  0  0  0  0
  9 25  1  0  0  0  0
 10 26  1  0  0  0  0
 11 26  2  0  0  0  0
 12 27  1  0  0  0  0
 13 14  2  0  0  0  0
 13 28  1  0  0  0  0
 14 29  1  0  0  0  0
 15 23  1  0  0  0  0
 15 27  2  0  0  0  0
 16 24  2  0  0  0  0
 16 30  1  0  0  0  0
 17 29  2  0  0  0  0
 17 31  1  0  0  0  0
 18 32  1  0  0  0  0
 19 32  1  0  0  0  0
 19 33  2  0  0  0  0
 19 35  1  0  0  0  0
 20 22  2  0  0  0  0
 20 42  1  0  0  0  0
 21 23  2  0  0  0  0
 21 43  1  0  0  0  0
 22 51  1  0  0  0  0
 23 44  1  0  0  0  0
 24 68  1  0  0  0  0
 25 30  2  0  0  0  0
 25 69  1  0  0  0  0
 26 80  1  0  0  0  0
 27 81  1  0  0  0  0
 28 31  2  0  0  0  0
 28 80  1  0  0  0  0
 29 82  1  0  0  0  0
 30 83  1  0  0  0  0
 31 84  1  0  0  0  0
 32 62  2  0  0  0  0
 33 63  1  0  0  0  0
 33 66  1  0  0  0  0
 34 36  2  0  0  0  0
 34 81  1  0  0  0  0
 35 67  1  0  0  0  0
 35 73  2  0  0  0  0
 36 37  1  0  0  0  0
 36 79  1  0  0  0  0
 37 68  1  0  0  0  0
 37 74  2  0  0  0  0
 38 52  1  0  0  0  0
 38 70  1  0  0  0  0
 38 75  2  0  0  0  0
 39 59  1  0  0  0  0
 39 64  1  0  0  0  0
 39 76  2  0  0  0  0
 40 60  1  0  0  0  0
 40 71  1  0  0  0  0
 40 77  2  0  0  0  0
 41 65  1  0  0  0  0
 41 69  1  0  0  0  0
 41 78  2  0  0  0  0
 42 45  1  0  0  0  0
 43 52  1  0  0  0  0
 44 64  1  0  0  0  0
 45 47  1  0  0  0  0
 46 48  1  0  0  0  0
 46 49  1  0  0  0  0
 47 51  1  0  0  0  0
 48 53  1  0  0  0  0
 49 65  1  0  0  0  0
 50 53  1  0  0  0  0
 50 65  1  0  0  0  0
 51 70  1  0  0  0  0
 52 64  1  0  0  0  0
 53 63  1  0  0  0  0
 54 60  1  0  0  0  0
 55 61  1  0  0  0  0
 56 61  1  0  0  0  0
 57 61  1  0  0  0  0
 58 72  1  0  0  0  0
 59 61  1  0  0  0  0
 59 71  1  0  0  0  0
 60 72  1  0  0  0  0
 62 63  1  0  0  0  0
M  CHG  1  72   1
M  ISO  4  34 101  41 100  69 100  81 101
M  END
> <Batch ID>
0172

> <Smiles>
CNC(C)C(=O)NC(C(=O)N1Cc2cc([101O:1][101CH2:1]C(=O)C(=O)Nc3ccc([100NH:0][100C:0](=O)N4CCCC(n5nc(-c6ccc(Oc7ccc(F)cc7F)cc6)c(C(N)=O)c5N)C4)c(F)c3)ccc2CC1C(=O)NC1CCCc2ccccc21)C(C)(C)C

> <Shape>
0.275

> <Color>
0.106

> <Negative vol penalty>
0.000

$$$$

  -OEChem-04052304263D

 85 93  0     1  0  0  0  0  0999 V2000
  -20.4949  -34.1843   23.3300 C   0  0  0  0  0  0  0  0  0  0  0  0
  -21.7451  -33.7093   22.9468 C   0  0  0  0  0  0  0  0  0  0  0  0
  -29.9768  -18.9113   19.0367 C   0  0  0  0  0  0  0  0  0  0  0  0
  -23.2555   -9.9818   23.3169 C   0  0  0  0  0  0  0  0  0  0  0  0
  -23.6299  -10.2522   20.9454 C   0  0  0  0  0  0  0  0  0  0  0  0
  -29.6327  -20.1634   18.5276 C   0  0  0  0  0  0  0  0  0  0  0  0
  -19.5492  -33.3069   23.8589 C   0  0  0  0  0  0  0  0  0  0  0  0
  -22.0507  -32.3567   23.0934 C   0  0  0  0  0  0  0  0  0  0  0  0
  -25.5616  -28.9549   19.4046 C   0  0  0  0  0  0  0  0  0  0  0  0
  -29.0991  -18.2390   19.8873 C   0  0  0  0  0  0  0  0  0  0  0  0
  -22.4724   -8.8554   23.0648 C   0  0  0  0  0  0  0  0  0  0  0  0
  -22.8468   -9.1258   20.6933 C   0  0  0  0  0  0  0  0  0  0  0  0
  -26.8953  -28.5566   19.4840 C   0  0  0  0  0  0  0  0  0  0  0  0
  -20.6710   -5.6979   23.0685 C   0  0  0  0  0  0  0  0  0  0  0  0
  -20.8803   -4.5713   23.8638 C   0  0  0  0  0  0  0  0  0  0  0  0
  -27.5333  -20.0712   19.7198 C   0  0  0  0  0  0  0  0  0  0  0  0
  -26.2051  -26.4608   20.4591 C   0  0  0  0  0  0  0  0  0  0  0  0
  -23.1742   -4.4673   23.1127 C   0  0  0  0  0  0  0  0  0  0  0  0
  -23.8343  -10.6802   22.2572 C   0  0  0  0  0  0  0  0  0  0  0  0
  -28.4109  -20.7434   18.8692 C   0  0  0  0  0  0  0  0  0  0  0  0
  -26.0323  -11.8814   22.7403 C   0  0  0  0  0  0  0  0  0  0  0  0
  -19.8399  -31.9411   24.0030 C   0  0  0  0  0  0  0  0  0  0  0  0
  -24.5386  -28.1122   19.8626 C   0  0  0  0  0  0  0  0  0  0  0  0
  -21.1085  -31.4604   23.6260 C   0  0  0  0  0  0  0  0  0  0  0  0
  -24.8590  -26.8497   20.3819 C   0  0  0  0  0  0  0  0  0  0  0  0
  -27.8774  -18.8189   20.2289 C   0  0  0  0  0  0  0  0  0  0  0  0
  -22.2680   -8.4274   21.7530 C   0  0  0  0  0  0  0  0  0  0  0  0
  -27.2174  -27.3106   20.0140 C   0  0  0  0  0  0  0  0  0  0  0  0
  -21.7133   -6.2092   22.2952 C   0  0  0  0  0  0  0  0  0  0  0  0
  -22.1319   -3.9560   23.8860 C   0  0  0  0  0  0  0  0  0  0  0  0
  -22.9649   -5.5939   22.3174 C   0  0  0  0  0  0  0  0  0  0  0  0
  -24.6429  -11.8442   22.5169 C   0  0  0  0  0  0  0  0  0  0  0  0
  -26.3132  -13.2117   22.9355 C   0  0  0  0  0  0  0  0  0  0  0  0
  -28.0453  -22.0694   18.3301 C   0  0  0  0  0  0  0  0  0  0  0  0
  -26.9840  -10.8094   22.7687 C   0  0  0  0  0  0  0  0  0  0  0  0
  -22.3186  -28.3063   22.1293 C   0  0  0  0  0  0  0  0  0  0  0  0
  -21.3037  -25.5127   20.8301 C   0  0  0  0  0  0  0  0  0  0  0  0
  -28.6476  -24.4770   18.1928 C   0  0  0  0  0  0  0  0  0  0  0  0
  -22.0527  -22.7187   19.0191 C   0  0  0  0  0  0  0  0  0  0  0  0
  -25.7359  -18.5688   21.5317 C   0  0  0  0  0  0  0  0  0  0  0  0
  -18.8023  -31.0396   24.6237 C   0  0  0  0  0  0  0  0  0  0  0  0
  -23.1031  -28.5456   19.7453 C   0  0  0  0  0  0  0  0  0  0  0  0
  -23.7966  -25.8995   20.8686 C   0  0  0  0  0  0  0  0  0  0  0  0
  -19.0724  -29.5543   24.3979 C   0  0  0  0  0  0  0  0  0  0  0  0
  -23.2262  -17.1627   23.6296 C   0  0  0  0  0  0  0  0  0  0  0  0
  -20.5338  -29.2273   24.6882 C   0  0  0  0  0  0  0  0  0  0  0  0
  -23.4853  -15.6567   23.5455 C   0  0  0  0  0  0  0  0  0  0  0  0
  -23.4799  -17.8573   22.2929 C   0  0  0  0  0  0  0  0  0  0  0  0
  -25.0556  -16.0897   21.6132 C   0  0  0  0  0  0  0  0  0  0  0  0
  -21.4687  -29.9956   23.7464 C   0  0  1  0  0  0  0  0  0  0  0  0
  -22.1779  -27.8175   20.7154 C   0  0  1  0  0  0  0  0  0  0  0  0
  -24.8759  -15.3564   22.9525 C   0  0  2  0  0  0  0  0  0  0  0  0
  -21.0266  -20.5983   18.1539 C   0  0  0  0  0  0  0  0  0  0  0  0
  -30.4173  -27.8124   18.9363 C   0  0  0  0  0  0  0  0  0  0  0  0
  -21.4492  -24.3036   23.6278 C   0  0  0  0  0  0  0  0  0  0  0  0
  -21.3513  -22.0336   22.5762 C   0  0  0  0  0  0  0  0  0  0  0  0
  -19.4450  -23.6183   22.2981 C   0  0  0  0  0  0  0  0  0  0  0  0
  -22.5658  -23.4815   16.2060 C   0  0  0  0  0  0  0  0  0  0  0  0
  -29.7369  -25.4028   18.6874 C   0  0  0  0  0  0  0  0  0  0  0  0
  -21.6080  -24.0525   21.0631 C   0  0  1  0  0  0  0  0  0  0  0  0
  -21.3441  -22.0547   17.8523 C   0  0  2  0  0  0  0  0  0  0  0  0
  -29.2481  -26.8388   18.8696 C   0  0  1  0  0  0  0  0  0  1  0  0
  -20.9837  -23.5205   22.3840 C   0  0  0  0  0  0  0  0  0  0  0  0
  -24.0802  -13.0546   22.5656 N   0  0  0  0  0  0  0  0  0  0  0  0
  -25.1213  -13.8648   22.8219 N   0  0  0  0  0  0  0  0  0  0  0  0
  -22.4081  -26.3716   20.7387 N   0  0  0  0  0  0  0  0  0  0  0  0
  -24.8176  -17.5303   21.7944 N   0  0  0  0  0  0  0  0  0  0  0  0
  -27.4609  -13.8746   23.1916 N   0  0  0  0  0  0  0  0  0  0  0  0
  -26.5260   -9.5033   22.5482 N   0  0  0  0  0  0  0  0  0  0  0  0
  -26.9865  -18.1353   21.0930 N   0  0  0  0  0  0  0  0  0  0  0  0
  -28.8418  -23.1088   18.6156 N   0  0  0  0  0  0  0  0  0  0  0  0
  -21.4953  -29.3715   22.4409 N   0  0  0  0  0  0  0  0  0  0  0  0
  -21.1640  -23.3470   19.8658 N   0  0  0  0  0  0  0  0  0  0  0  0
  -26.9425  -22.1542   17.5868 N   0  3  0  0  0  0  0  0  0  0  0  0
  -22.1966  -22.1067   16.6311 N   0  3  0  0  0  0  0  0  0  0  0  0
  -28.2018  -11.0022   22.9996 O   0  0  0  0  0  0  0  0  0  0  0  0
  -23.1142  -27.7568   22.8822 O   0  0  0  0  0  0  0  0  0  0  0  0
  -20.1297  -25.8766   20.7258 O   0  0  0  0  0  0  0  0  0  0  0  0
  -27.6909  -24.8050   17.5064 O   0  0  0  0  0  0  0  0  0  0  0  0
  -23.2722  -22.6805   19.1669 O   0  0  0  0  0  0  0  0  0  0  0  0
  -25.4438  -19.7540   21.7107 O   0  0  0  0  0  0  0  0  0  0  0  0
  -21.5041   -7.3282   21.5067 O   0  0  0  0  0  0  0  0  0  0  0  0
  -28.5185  -26.9196   20.0933 O   0  0  0  0  0  0  0  0  0  1  0  0
  -22.3332   -2.8750   24.6509 F   0  0  0  0  0  0  0  0  0  0  0  0
  -23.9704   -6.0812   21.5775 F   0  0  0  0  0  0  0  0  0  0  0  0
  1  2  1  0  0  0  0
  1  7  2  0  0  0  0
  2  8  2  0  0  0  0
  3  6  2  0  0  0  0
  3 10  1  0  0  0  0
  4 11  2  0  0  0  0
  4 19  1  0  0  0  0
  5 12  1  0  0  0  0
  5 19  2  0  0  0  0
  6 20  1  0  0  0  0
  7 22  1  0  0  0  0
  8 24  1  0  0  0  0
  9 13  2  0  0  0  0
  9 23  1  0  0  0  0
 10 26  2  0  0  0  0
 11 27  1  0  0  0  0
 12 27  2  0  0  0  0
 13 28  1  0  0  0  0
 14 15  2  0  0  0  0
 14 29  1  0  0  0  0
 15 30  1  0  0  0  0
 16 20  2  0  0  0  0
 16 26  1  0  0  0  0
 17 25  1  0  0  0  0
 17 28  2  0  0  0  0
 18 30  2  0  0  0  0
 18 31  1  0  0  0  0
 19 32  1  0  0  0  0
 20 34  1  0  0  0  0
 21 32  1  0  0  0  0
 21 33  2  0  0  0  0
 21 35  1  0  0  0  0
 22 24  2  0  0  0  0
 22 41  1  0  0  0  0
 23 25  2  0  0  0  0
 23 42  1  0  0  0  0
 24 50  1  0  0  0  0
 25 43  1  0  0  0  0
 26 70  1  0  0  0  0
 27 82  1  0  0  0  0
 28 83  1  0  0  0  0
 29 31  2  0  0  0  0
 29 82  1  0  0  0  0
 30 84  1  0  0  0  0
 31 85  1  0  0  0  0
 32 64  2  0  0  0  0
 33 65  1  0  0  0  0
 33 68  1  0  0  0  0
 34 71  1  0  0  0  0
 34 74  2  0  0  0  0
 35 69  1  0  0  0  0
 35 76  2  0  0  0  0
 36 51  1  0  0  0  0
 36 72  1  0  0  0  0
 36 77  2  0  0  0  0
 37 60  1  0  0  0  0
 37 66  1  0  0  0  0
 37 78  2  0  0  0  0
 38 59  1  0  0  0  0
 38 71  1  0  0  0  0
 38 79  2  0  0  0  0
 39 61  1  0  0  0  0
 39 73  1  0  0  0  0
 39 80  2  0  0  0  0
 40 67  1  0  0  0  0
 40 70  1  0  0  0  0
 40 81  2  0  0  0  0
 41 44  1  0  0  0  0
 42 51  1  0  0  0  0
 43 66  1  0  0  0  0
 44 46  1  0  0  0  0
 45 47  1  0  0  0  0
 45 48  1  0  0  0  0
 46 50  1  0  0  0  0
 47 52  1  0  0  0  0
 48 67  1  0  0  0  0
 49 52  1  0  0  0  0
 49 67  1  0  0  0  0
 50 72  1  0  0  0  0
 51 66  1  0  0  0  0
 52 65  1  0  0  0  0
 53 61  1  0  0  0  0
 54 62  1  0  0  0  0
 55 63  1  0  0  0  0
 56 63  1  0  0  0  0
 57 63  1  0  0  0  0
 58 75  1  0  0  0  0
 59 62  1  0  0  0  0
 60 63  1  0  0  0  0
 60 73  1  0  0  0  0
 61 75  1  0  0  0  0
 62 83  1  0  0  0  0
 64 65  1  0  0  0  0
M  CHG  2  74   1  75   1
M  ISO  4  40 100  62 101  70 100  83 101
M  END
> <Batch ID>
0172

> <Smiles>
CNC(C)C(=O)NC(C(=O)N1Cc2cc([101O:1][101CH:1](C)CC(=O)NC(=N)c3cccc([100NH:0][100C:0](=O)N4CCCC(n5nc(-c6ccc(Oc7ccc(F)cc7F)cc6)c(C(N)=O)c5N)C4)c3)ccc2CC1C(=O)NC1CCCc2ccccc21)C(C)(C)C

> <Shape>
0.210

> <Color>
0.093

> <Negative vol penalty>
0.000

$$$$

  -OEChem-04052304263D

 90 98  0     1  0  0  0  0  0999 V2000
  -25.8764  -29.5958   20.6976 C   0  0  0  0  0  0  0  0  0  0  0  0
  -25.4156  -28.5555   21.4982 C   0  0  0  0  0  0  0  0  0  0  0  0
  -23.4425  -12.4973   19.3324 C   0  0  0  0  0  0  0  0  0  0  0  0
  -24.5738  -14.0916   20.7521 C   0  0  0  0  0  0  0  0  0  0  0  0
  -26.4300  -29.3197   19.4481 C   0  0  0  0  0  0  0  0  0  0  0  0
  -25.5071  -27.2385   21.0492 C   0  0  0  0  0  0  0  0  0  0  0  0
  -27.2163  -24.0824   24.6217 C   0  0  0  0  0  0  0  0  0  0  0  0
  -24.5398  -11.6407   19.4199 C   0  0  0  0  0  0  0  0  0  0  0  0
  -25.6712  -13.2349   20.8397 C   0  0  0  0  0  0  0  0  0  0  0  0
  -26.3098  -23.6781   25.6007 C   0  0  0  0  0  0  0  0  0  0  0  0
  -28.3235  -12.3801   18.9252 C   0  0  0  0  0  0  0  0  0  0  0  0
  -29.5935  -12.9362   18.7728 C   0  0  0  0  0  0  0  0  0  0  0  0
  -25.9889  -21.5916   24.4332 C   0  0  0  0  0  0  0  0  0  0  0  0
  -20.9513  -22.4363   21.1610 C   0  0  0  0  0  0  0  0  0  0  0  0
  -20.3485  -23.4536   19.0543 C   0  0  0  0  0  0  0  0  0  0  0  0
  -30.1890  -12.1838   20.9901 C   0  0  0  0  0  0  0  0  0  0  0  0
  -23.4596  -13.7228   19.9985 C   0  0  0  0  0  0  0  0  0  0  0  0
  -21.2063  -14.6453   20.7596 C   0  0  0  0  0  0  0  0  0  0  0  0
  -26.5371  -27.9979   18.9876 C   0  0  0  0  0  0  0  0  0  0  0  0
  -27.5082  -23.2475   23.5335 C   0  0  0  0  0  0  0  0  0  0  0  0
  -26.0614  -26.9446   19.7918 C   0  0  0  0  0  0  0  0  0  0  0  0
  -26.9014  -21.9867   23.4431 C   0  0  0  0  0  0  0  0  0  0  0  0
  -20.2982  -24.7611   21.0853 C   0  0  0  0  0  0  0  0  0  0  0  0
  -20.7671  -22.3396   19.7818 C   0  0  0  0  0  0  0  0  0  0  0  0
  -20.7168  -23.6471   21.8128 C   0  0  0  0  0  0  0  0  0  0  0  0
  -25.6541  -12.0094   20.1736 C   0  0  0  0  0  0  0  0  0  0  0  0
  -25.6938  -22.4337   25.5051 C   0  0  0  0  0  0  0  0  0  0  0  0
  -27.9861  -11.7259   20.1100 C   0  0  0  0  0  0  0  0  0  0  0  0
  -30.5263  -12.8380   19.8053 C   0  0  0  0  0  0  0  0  0  0  0  0
  -20.1140  -24.6644   19.7060 C   0  0  0  0  0  0  0  0  0  0  0  0
  -28.9188  -11.6277   21.1425 C   0  0  0  0  0  0  0  0  0  0  0  0
  -22.3266  -14.6084   19.9080 C   0  0  0  0  0  0  0  0  0  0  0  0
  -20.4230  -15.6535   20.2531 C   0  0  0  0  0  0  0  0  0  0  0  0
  -20.9010  -13.8403   21.9061 C   0  0  0  0  0  0  0  0  0  0  0  0
  -27.1594  -23.4662   20.3816 C   0  0  0  0  0  0  0  0  0  0  0  0
  -21.4431  -23.0523   25.4474 C   0  0  0  0  0  0  0  0  0  0  0  0
  -28.8033  -20.6698   20.3973 C   0  0  0  0  0  0  0  0  0  0  0  0
  -29.7267  -17.8614   22.1023 C   0  0  0  0  0  0  0  0  0  0  0  0
  -20.8687  -20.8433   17.7576 C   0  0  0  0  0  0  0  0  0  0  0  0
  -27.0996  -27.7524   17.6100 C   0  0  0  0  0  0  0  0  0  0  0  0
  -28.5085  -23.6873   22.4999 C   0  0  0  0  0  0  0  0  0  0  0  0
  -27.1959  -21.0446   22.3054 C   0  0  0  0  0  0  0  0  0  0  0  0
  -27.5027  -26.3004   17.3664 C   0  0  0  0  0  0  0  0  0  0  0  0
  -20.0732  -17.9290   15.8732 C   0  0  0  0  0  0  0  0  0  0  0  0
  -26.4048  -25.3545   17.8426 C   0  0  0  0  0  0  0  0  0  0  0  0
  -20.4630  -16.7781   16.8036 C   0  0  0  0  0  0  0  0  0  0  0  0
  -21.0409  -19.1053   15.9900 C   0  0  0  0  0  0  0  0  0  0  0  0
  -21.6449  -18.4488   18.2864 C   0  0  0  0  0  0  0  0  0  0  0  0
  -26.1660  -25.5009   19.3502 C   0  0  1  0  0  0  0  0  0  0  0  0
  -28.3422  -22.9696   21.1640 C   0  0  1  0  0  0  0  0  0  0  0  0
  -20.6624  -17.2668   18.2517 C   0  0  2  0  0  0  0  0  0  0  0  0
  -31.0428  -15.7409   21.8397 C   0  0  0  0  0  0  0  0  0  0  0  0
  -26.5439  -19.4768   18.7295 C   0  0  0  0  0  0  0  0  0  0  0  0
  -27.4164  -17.2011   19.3023 C   0  0  0  0  0  0  0  0  0  0  0  0
  -28.8410  -18.7934   18.0148 C   0  0  0  0  0  0  0  0  0  0  0  0
  -31.5806  -18.6048   24.2862 C   0  0  0  0  0  0  0  0  0  0  0  0
  -21.8850  -21.9684   26.4234 C   0  0  0  0  0  0  0  0  0  0  0  0
  -21.3367  -22.6180   23.9997 C   0  0  0  0  0  0  0  0  0  0  0  0
  -24.0591  -23.0589   27.1154 C   0  0  0  0  0  0  0  0  0  1  0  0
  -28.4282  -19.2095   20.4742 C   0  0  1  0  0  0  0  0  0  0  0  0
  -31.0775  -17.1939   22.2875 C   0  0  2  0  0  0  0  0  0  0  0  0
  -22.7256  -22.4889   27.5893 C   0  0  2  0  0  0  0  0  0  0  0  0
  -20.0414  -26.0692   21.7605 C   0  0  0  0  0  0  0  0  0  0  0  0
  -27.8001  -18.6885   19.1507 C   0  0  0  0  0  0  0  0  0  0  0  0
  -22.2643  -15.5205   18.9342 N   0  0  0  0  0  0  0  0  0  0  0  0
  -21.0954  -16.1400   19.1708 N   0  0  0  0  0  0  0  0  0  0  0  0
  -28.1762  -21.5227   21.3166 N   0  0  0  0  0  0  0  0  0  0  0  0
  -21.1767  -19.5166   17.3890 N   0  0  0  0  0  0  0  0  0  0  0  0
  -19.2315  -16.1623   20.6323 N   0  0  0  0  0  0  0  0  0  0  0  0
  -21.8150  -12.8493   22.2892 N   0  0  0  0  0  0  0  0  0  0  0  0
  -21.0038  -21.1093   19.1198 N   0  0  0  0  0  0  0  0  0  0  0  0
  -20.9057  -23.7253   23.1851 N   0  0  0  0  0  0  0  0  0  0  0  0
  -27.2017  -24.8172   20.0947 N   0  0  0  0  0  0  0  0  0  0  0  0
  -29.6350  -18.4991   20.8832 N   0  0  0  0  0  0  0  0  0  0  0  0
  -23.0138  -21.3526   28.5178 N   0  3  0  0  0  0  0  0  0  0  0  0
  -31.4832  -17.2344   23.7209 N   0  3  0  0  0  0  0  0  0  0  0  0
  -19.8410  -13.9842   22.5613 O   0  0  0  0  0  0  0  0  0  0  0  0
  -26.2747  -22.6814   20.0606 O   0  0  0  0  0  0  0  0  0  0  0  0
  -21.2081  -24.2045   25.8088 O   0  0  0  0  0  0  0  0  0  0  0  0
  -29.6279  -21.0389   19.5574 O   0  0  0  0  0  0  0  0  0  0  0  0
  -28.8402  -17.8181   22.9524 O   0  0  0  0  0  0  0  0  0  0  0  0
  -20.4852  -21.6743   16.9304 O   0  0  0  0  0  0  0  0  0  0  0  0
  -26.7250  -11.1737   20.2595 O   0  0  0  0  0  0  0  0  0  0  0  0
  -24.8081  -22.0368   26.4590 O   0  0  0  0  0  0  0  0  0  1  0  0
  -31.7465  -13.3707   19.6582 F   0  0  0  0  0  0  0  0  0  0  0  0
  -19.7128  -25.7293   18.9975 F   0  0  0  0  0  0  0  0  0  0  0  0
  -28.6009  -10.9994   22.2826 F   0  0  0  0  0  0  0  0  0  0  0  0
  -20.2568  -26.0381   23.1079 F   0  0  0  0  0  0  0  0  0  0  0  0
  -20.8258  -27.0845   21.2954 F   0  0  0  0  0  0  0  0  0  0  0  0
  -18.7554  -26.4948   21.6026 F   0  0  0  0  0  0  0  0  0  0  0  0
  1  2  1  0  0  0  0
  1  5  2  0  0  0  0
  2  6  2  0  0  0  0
  3  8  2  0  0  0  0
  3 17  1  0  0  0  0
  4  9  1  0  0  0  0
  4 17  2  0  0  0  0
  5 19  1  0  0  0  0
  6 21  1  0  0  0  0
  7 10  2  0  0  0  0
  7 20  1  0  0  0  0
  8 26  1  0  0  0  0
  9 26  2  0  0  0  0
 10 27  1  0  0  0  0
 11 12  2  0  0  0  0
 11 28  1  0  0  0  0
 12 29  1  0  0  0  0
 13 22  1  0  0  0  0
 13 27  2  0  0  0  0
 14 24  2  0  0  0  0
 14 25  1  0  0  0  0
 15 24  1  0  0  0  0
 15 30  2  0  0  0  0
 16 29  2  0  0  0  0
 16 31  1  0  0  0  0
 17 32  1  0  0  0  0
 18 32  1  0  0  0  0
 18 33  2  0  0  0  0
 18 34  1  0  0  0  0
 19 21  2  0  0  0  0
 19 40  1  0  0  0  0
 20 22  2  0  0  0  0
 20 41  1  0  0  0  0
 21 49  1  0  0  0  0
 22 42  1  0  0  0  0
 23 25  2  0  0  0  0
 23 30  1  0  0  0  0
 23 63  1  0  0  0  0
 24 71  1  0  0  0  0
 25 72  1  0  0  0  0
 26 83  1  0  0  0  0
 27 84  1  0  0  0  0
 28 31  2  0  0  0  0
 28 83  1  0  0  0  0
 29 85  1  0  0  0  0
 30 86  1  0  0  0  0
 31 87  1  0  0  0  0
 32 65  2  0  0  0  0
 33 66  1  0  0  0  0
 33 69  1  0  0  0  0
 34 70  1  0  0  0  0
 34 77  2  0  0  0  0
 35 50  1  0  0  0  0
 35 73  1  0  0  0  0
 35 78  2  0  0  0  0
 36 57  1  0  0  0  0
 36 58  1  0  0  0  0
 36 79  2  0  0  0  0
 37 60  1  0  0  0  0
 37 67  1  0  0  0  0
 37 80  2  0  0  0  0
 38 61  1  0  0  0  0
 38 74  1  0  0  0  0
 38 81  2  0  0  0  0
 39 68  1  0  0  0  0
 39 71  1  0  0  0  0
 39 82  2  0  0  0  0
 40 43  1  0  0  0  0
 41 50  1  0  0  0  0
 42 67  1  0  0  0  0
 43 45  1  0  0  0  0
 44 46  1  0  0  0  0
 44 47  1  0  0  0  0
 45 49  1  0  0  0  0
 46 51  1  0  0  0  0
 47 68  1  0  0  0  0
 48 51  1  0  0  0  0
 48 68  1  0  0  0  0
 49 73  1  0  0  0  0
 50 67  1  0  0  0  0
 51 66  1  0  0  0  0
 52 61  1  0  0  0  0
 53 64  1  0  0  0  0
 54 64  1  0  0  0  0
 55 64  1  0  0  0  0
 56 76  1  0  0  0  0
 57 62  1  0  0  0  0
 58 72  1  0  0  0  0
 59 62  1  0  0  0  0
 59 84  1  0  0  0  0
 60 64  1  0  0  0  0
 60 74  1  0  0  0  0
 61 76  1  0  0  0  0
 62 75  1  0  0  0  0
 63 88  1  0  0  0  0
 63 89  1  0  0  0  0
 63 90  1  0  0  0  0
 65 66  1  0  0  0  0
M  CHG  2  75   1  76   1
M  ISO  4  39 100  59 101  71 100  84 101
M  END
> <Batch ID>
0172

> <Smiles>
CNC(C)C(=O)NC(C(=O)N1Cc2cc([101O:1][101CH2:1]C(N)CC(=O)CNc3cc([100NH:0][100C:0](=O)N4CCCC(n5nc(-c6ccc(Oc7ccc(F)cc7F)cc6)c(C(N)=O)c5N)C4)cc(F)c3C(F)(F)F)ccc2CC1C(=O)NC1CCCc2ccccc21)C(C)(C)C

> <Shape>
0.204

> <Color>
0.072

> <Negative vol penalty>
0.000

$$$$

  -OEChem-04052304263D

 86 94  0     1  0  0  0  0  0999 V2000
  -18.8195  -32.5819   20.0332 C   0  0  0  0  0  0  0  0  0  0  0  0
  -20.0819  -32.1548   19.6341 C   0  0  0  0  0  0  0  0  0  0  0  0
  -25.6054  -14.1138   21.4639 C   0  0  0  0  0  0  0  0  0  0  0  0
  -26.5579  -13.9436   19.2501 C   0  0  0  0  0  0  0  0  0  0  0  0
  -18.3760  -32.3263   21.3301 C   0  0  0  0  0  0  0  0  0  0  0  0
  -20.9021  -31.4727   20.5321 C   0  0  0  0  0  0  0  0  0  0  0  0
  -24.8430  -26.9697   19.2290 C   0  0  0  0  0  0  0  0  0  0  0  0
  -24.6395  -13.1677   21.1210 C   0  0  0  0  0  0  0  0  0  0  0  0
  -25.5919  -12.9974   18.9072 C   0  0  0  0  0  0  0  0  0  0  0  0
  -26.2226  -26.9596   19.0281 C   0  0  0  0  0  0  0  0  0  0  0  0
  -24.4458   -9.8066   20.8072 C   0  0  0  0  0  0  0  0  0  0  0  0
  -24.1818   -8.7885   21.7233 C   0  0  0  0  0  0  0  0  0  0  0  0
  -26.5479  -26.3306   21.3341 C   0  0  0  0  0  0  0  0  0  0  0  0
  -30.6377  -20.9481   14.4309 C   0  0  0  0  0  0  0  0  0  0  0  0
  -21.8800   -9.5096   21.8614 C   0  0  0  0  0  0  0  0  0  0  0  0
  -26.5646  -14.5018   20.5284 C   0  0  0  0  0  0  0  0  0  0  0  0
  -28.8291  -15.2358   21.4453 C   0  0  0  0  0  0  0  0  0  0  0  0
  -19.1874  -31.6323   22.2415 C   0  0  0  0  0  0  0  0  0  0  0  0
  -24.3051  -26.6705   20.4890 C   0  0  0  0  0  0  0  0  0  0  0  0
  -20.4696  -31.2088   21.8428 C   0  0  0  0  0  0  0  0  0  0  0  0
  -25.1610  -26.3351   21.5478 C   0  0  0  0  0  0  0  0  0  0  0  0
  -30.8501  -22.3120   14.2642 C   0  0  0  0  0  0  0  0  0  0  0  0
  -24.6327  -12.6095   19.8428 C   0  0  0  0  0  0  0  0  0  0  0  0
  -27.0754  -26.6428   20.0814 C   0  0  0  0  0  0  0  0  0  0  0  0
  -23.4270  -10.6763   20.4182 C   0  0  0  0  0  0  0  0  0  0  0  0
  -22.8989   -8.6400   22.2504 C   0  0  0  0  0  0  0  0  0  0  0  0
  -30.0152  -20.4829   15.5839 C   0  0  0  0  0  0  0  0  0  0  0  0
  -22.1441  -10.5278   20.9452 C   0  0  0  0  0  0  0  0  0  0  0  0
  -27.5622  -15.4795   20.8817 C   0  0  0  0  0  0  0  0  0  0  0  0
  -30.4246  -23.1625   15.2718 C   0  0  0  0  0  0  0  0  0  0  0  0
  -29.6273  -21.4152   16.5326 C   0  0  0  0  0  0  0  0  0  0  0  0
  -29.3867  -16.4828   21.5884 C   0  0  0  0  0  0  0  0  0  0  0  0
  -29.4466  -13.9934   21.8070 C   0  0  0  0  0  0  0  0  0  0  0  0
  -30.9403  -25.2420   17.3908 C   0  0  0  0  0  0  0  0  0  0  0  0
  -30.2436  -25.6448   18.6759 C   0  0  0  0  0  0  0  0  0  0  0  0
  -22.5548  -28.2578   22.6152 C   0  0  0  0  0  0  0  0  0  0  0  0
  -22.5056  -25.3918   24.1338 C   0  0  0  0  0  0  0  0  0  0  0  0
  -23.9845  -22.3594   24.6473 C   0  0  0  0  0  0  0  0  0  0  0  0
  -28.5246  -21.6869   18.7813 C   0  0  0  0  0  0  0  0  0  0  0  0
  -18.6835  -31.4209   23.6472 C   0  0  0  0  0  0  0  0  0  0  0  0
  -22.8135  -26.6597   20.6826 C   0  0  0  0  0  0  0  0  0  0  0  0
  -24.6328  -25.9865   22.9145 C   0  0  0  0  0  0  0  0  0  0  0  0
  -19.4656  -30.3635   24.4220 C   0  0  0  0  0  0  0  0  0  0  0  0
  -28.1828  -21.0675   22.2708 C   0  0  0  0  0  0  0  0  0  0  0  0
  -20.9662  -30.5776   24.2513 C   0  0  0  0  0  0  0  0  0  0  0  0
  -28.1063  -19.5418   22.3624 C   0  0  0  0  0  0  0  0  0  0  0  0
  -27.4685  -21.5976   21.0288 C   0  0  0  0  0  0  0  0  0  0  0  0
  -27.8127  -19.4600   19.8536 C   0  0  0  0  0  0  0  0  0  0  0  0
  -21.3787  -30.4442   22.7804 C   0  0  1  0  0  0  0  0  0  0  0  0
  -22.3987  -26.8411   22.1394 C   0  0  1  0  0  0  0  0  0  0  0  0
  -28.5740  -18.8745   21.0541 C   0  0  2  0  0  0  0  0  0  0  0  0
  -23.7327  -20.2444   25.9743 C   0  0  0  0  0  0  0  0  0  0  0  0
  -23.5293  -26.8331   26.6207 C   0  0  0  0  0  0  0  0  0  0  0  0
  -24.1517  -24.6024   27.5721 C   0  0  0  0  0  0  0  0  0  0  0  0
  -21.7647  -25.1167   27.0619 C   0  0  0  0  0  0  0  0  0  0  0  0
  -23.7296  -20.7165   22.1989 C   0  0  0  0  0  0  0  0  0  0  0  0
  -30.2375  -25.5137   16.0858 C   0  0  0  0  0  0  0  0  0  0  0  0
  -28.8886  -26.2991   18.5813 C   0  0  0  0  0  0  0  0  0  1  0  0
  -23.3791  -24.7101   25.1591 C   0  0  1  0  0  0  0  0  0  0  0  0
  -23.4164  -20.9518   24.6657 C   0  0  2  0  0  0  0  0  0  0  0  0
  -23.2165  -25.3240   26.5783 C   0  0  0  0  0  0  0  0  0  0  0  0
  -27.3286  -16.7791   20.6807 N   0  0  0  0  0  0  0  0  0  0  0  0
  -29.8166  -22.7478   16.4058 N   0  0  0  0  0  0  0  0  0  0  0  0
  -28.4561  -17.3633   21.1204 N   0  0  0  0  0  0  0  0  0  0  0  0
  -23.1674  -25.9959   23.0554 N   0  0  0  0  0  0  0  0  0  0  0  0
  -27.9659  -20.9231   19.8278 N   0  0  0  0  0  0  0  0  0  0  0  0
  -31.4786  -22.7852   13.0971 N   0  0  0  0  0  0  0  0  0  0  0  0
  -30.5774  -16.9011   22.0677 N   0  0  0  0  0  0  0  0  0  0  0  0
  -28.7340  -12.8058   21.5925 N   0  0  0  0  0  0  0  0  0  0  0  0
  -28.9935  -20.9342   17.7050 N   0  0  0  0  0  0  0  0  0  0  0  0
  -30.6321  -24.5244   15.1136 N   0  0  0  0  0  0  0  0  0  0  0  0
  -21.4435  -29.0499   22.3982 N   0  0  0  0  0  0  0  0  0  0  0  0
  -23.0631  -23.2878   25.0836 N   0  0  0  0  0  0  0  0  0  0  0  0
  -23.9864  -20.1484   23.5474 N   0  3  0  0  0  0  0  0  0  0  0  0
  -30.5896  -13.9393   22.3207 O   0  0  0  0  0  0  0  0  0  0  0  0
  -32.0406  -24.7147   17.4958 O   0  0  0  0  0  0  0  0  0  0  0  0
  -30.8259  -25.4168   19.7285 O   0  0  0  0  0  0  0  0  0  0  0  0
  -23.6052  -28.6061   23.1417 O   0  0  0  0  0  0  0  0  0  0  0  0
  -21.2808  -25.3824   24.2805 O   0  0  0  0  0  0  0  0  0  0  0  0
  -25.1322  -22.6097   24.2859 O   0  0  0  0  0  0  0  0  0  0  0  0
  -28.6076  -22.9160   18.8476 O   0  0  0  0  0  0  0  0  0  0  0  0
  -23.6905  -11.6861   19.5080 O   0  0  0  0  0  0  0  0  0  0  0  0
  -28.4224  -26.6328   19.8881 O   0  0  0  0  0  0  0  0  0  1  0  0
  -22.6452   -7.6612   23.1290 F   0  0  0  0  0  0  0  0  0  0  0  0
  -29.8046  -19.1718   15.7580 F   0  0  0  0  0  0  0  0  0  0  0  0
  -21.1609  -11.3594   20.5744 F   0  0  0  0  0  0  0  0  0  0  0  0
  1  2  1  0  0  0  0
  1  5  2  0  0  0  0
  2  6  2  0  0  0  0
  3  8  2  0  0  0  0
  3 16  1  0  0  0  0
  4  9  1  0  0  0  0
  4 16  2  0  0  0  0
  5 18  1  0  0  0  0
  6 20  1  0  0  0  0
  7 10  2  0  0  0  0
  7 19  1  0  0  0  0
  8 23  1  0  0  0  0
  9 23  2  0  0  0  0
 10 24  1  0  0  0  0
 11 12  2  0  0  0  0
 11 25  1  0  0  0  0
 12 26  1  0  0  0  0
 13 21  1  0  0  0  0
 13 24  2  0  0  0  0
 14 22  1  0  0  0  0
 14 27  2  0  0  0  0
 15 26  2  0  0  0  0
 15 28  1  0  0  0  0
 16 29  1  0  0  0  0
 17 29  1  0  0  0  0
 17 32  2  0  0  0  0
 17 33  1  0  0  0  0
 18 20  2  0  0  0  0
 18 40  1  0  0  0  0
 19 21  2  0  0  0  0
 19 41  1  0  0  0  0
 20 49  1  0  0  0  0
 21 42  1  0  0  0  0
 22 30  2  0  0  0  0
 22 67  1  0  0  0  0
 23 82  1  0  0  0  0
 24 83  1  0  0  0  0
 25 28  2  0  0  0  0
 25 82  1  0  0  0  0
 26 84  1  0  0  0  0
 27 31  1  0  0  0  0
 27 85  1  0  0  0  0
 28 86  1  0  0  0  0
 29 62  2  0  0  0  0
 30 63  1  0  0  0  0
 30 71  1  0  0  0  0
 31 63  2  0  0  0  0
 31 70  1  0  0  0  0
 32 64  1  0  0  0  0
 32 68  1  0  0  0  0
 33 69  1  0  0  0  0
 33 75  2  0  0  0  0
 34 35  1  0  0  0  0
 34 57  1  0  0  0  0
 34 76  2  0  0  0  0
 35 58  1  0  0  0  0
 35 77  2  0  0  0  0
 36 50  1  0  0  0  0
 36 72  1  0  0  0  0
 36 78  2  0  0  0  0
 37 59  1  0  0  0  0
 37 65  1  0  0  0  0
 37 79  2  0  0  0  0
 38 60  1  0  0  0  0
 38 73  1  0  0  0  0
 38 80  2  0  0  0  0
 39 66  1  0  0  0  0
 39 70  1  0  0  0  0
 39 81  2  0  0  0  0
 40 43  1  0  0  0  0
 41 50  1  0  0  0  0
 42 65  1  0  0  0  0
 43 45  1  0  0  0  0
 44 46  1  0  0  0  0
 44 47  1  0  0  0  0
 45 49  1  0  0  0  0
 46 51  1  0  0  0  0
 47 66  1  0  0  0  0
 48 51  1  0  0  0  0
 48 66  1  0  0  0  0
 49 72  1  0  0  0  0
 50 65  1  0  0  0  0
 51 64  1  0  0  0  0
 52 60  1  0  0  0  0
 53 61  1  0  0  0  0
 54 61  1  0  0  0  0
 55 61  1  0  0  0  0
 56 74  1  0  0  0  0
 57 71  1  0  0  0  0
 58 83  1  0  0  0  0
 59 61  1  0  0  0  0
 59 73  1  0  0  0  0
 60 74  1  0  0  0  0
 62 64  1  0  0  0  0
M  CHG  1  74   1
M  ISO  4  39 100  58 101  70 100  83 101
M  END
> <Batch ID>
0172

> <Smiles>
CNC(C)C(=O)NC(C(=O)N1Cc2cc([101O:1][101CH2:1]C(=O)C(=O)CNc3nc([100NH:0][100C:0](=O)N4CCCC(n5nc(-c6ccc(Oc7ccc(F)cc7F)cc6)c(C(N)=O)c5N)C4)c(F)cc3N)ccc2CC1C(=O)NC1CCCc2ccccc21)C(C)(C)C

> <Shape>
0.223

> <Color>
0.106

> <Negative vol penalty>
0.000

$$$$

  -OEChem-04052304263D

 88 96  0     1  0  0  0  0  0999 V2000
  -30.7966  -35.8983   21.1767 C   0  0  0  0  0  0  0  0  0  0  0  0
  -30.6869  -34.6156   20.6494 C   0  0  0  0  0  0  0  0  0  0  0  0
  -31.8599  -19.1922   21.4565 C   0  0  0  0  0  0  0  0  0  0  0  0
  -23.2708   -9.7919   21.5755 C   0  0  0  0  0  0  0  0  0  0  0  0
  -23.8088  -10.9625   23.6194 C   0  0  0  0  0  0  0  0  0  0  0  0
  -30.9334  -20.2143   21.6624 C   0  0  0  0  0  0  0  0  0  0  0  0
  -30.2243  -36.1937   22.4133 C   0  0  0  0  0  0  0  0  0  0  0  0
  -30.0057  -33.6272   21.3590 C   0  0  0  0  0  0  0  0  0  0  0  0
  -26.6146  -29.0938   19.0235 C   0  0  0  0  0  0  0  0  0  0  0  0
  -31.4264  -17.9278   21.0577 C   0  0  0  0  0  0  0  0  0  0  0  0
  -22.5980   -8.8164   22.3113 C   0  0  0  0  0  0  0  0  0  0  0  0
  -23.1359   -9.9870   24.3552 C   0  0  0  0  0  0  0  0  0  0  0  0
  -26.8910  -27.7512   18.7687 C   0  0  0  0  0  0  0  0  0  0  0  0
  -23.3947   -6.1134   24.1776 C   0  0  0  0  0  0  0  0  0  0  0  0
  -23.6288   -4.7782   23.8488 C   0  0  0  0  0  0  0  0  0  0  0  0
  -25.9052  -27.1524   20.8874 C   0  0  0  0  0  0  0  0  0  0  0  0
  -21.2823   -4.4893   23.3512 C   0  0  0  0  0  0  0  0  0  0  0  0
  -23.8763  -10.8649   22.2296 C   0  0  0  0  0  0  0  0  0  0  0  0
  -29.5734  -19.9721   21.4696 C   0  0  0  0  0  0  0  0  0  0  0  0
  -24.0320  -13.0570   20.9342 C   0  0  0  0  0  0  0  0  0  0  0  0
  -29.5275  -35.2109   23.1340 C   0  0  0  0  0  0  0  0  0  0  0  0
  -25.9903  -29.4775   20.2191 C   0  0  0  0  0  0  0  0  0  0  0  0
  -29.4248  -33.9094   22.6070 C   0  0  0  0  0  0  0  0  0  0  0  0
  -25.6197  -28.5002   21.1538 C   0  0  0  0  0  0  0  0  0  0  0  0
  -30.0663  -17.6855   20.8650 C   0  0  0  0  0  0  0  0  0  0  0  0
  -22.5304   -8.9140   23.7011 C   0  0  0  0  0  0  0  0  0  0  0  0
  -26.5389  -26.7806   19.7019 C   0  0  0  0  0  0  0  0  0  0  0  0
  -22.1044   -6.6365   24.0933 C   0  0  0  0  0  0  0  0  0  0  0  0
  -22.5727   -3.9662   23.4356 C   0  0  0  0  0  0  0  0  0  0  0  0
  -21.0482   -5.8245   23.6801 C   0  0  0  0  0  0  0  0  0  0  0  0
  -29.1398  -18.7077   21.0709 C   0  0  0  0  0  0  0  0  0  0  0  0
  -24.5720  -11.8725   21.4702 C   0  0  0  0  0  0  0  0  0  0  0  0
  -25.0924  -13.6650   20.3078 C   0  0  0  0  0  0  0  0  0  0  0  0
  -28.5906  -21.0643   21.6899 C   0  0  0  0  0  0  0  0  0  0  0  0
  -22.6918  -13.5624   20.9969 C   0  0  0  0  0  0  0  0  0  0  0  0
  -26.8048  -31.3052   22.6888 C   0  0  0  0  0  0  0  0  0  0  0  0
  -25.0209  -21.4328   20.7365 C   0  0  0  0  0  0  0  0  0  0  0  0
  -26.7780  -23.1174   20.0320 C   0  0  0  0  0  0  0  0  0  0  0  0
  -23.7417  -30.7571   23.6049 C   0  0  0  0  0  0  0  0  0  0  0  0
  -20.9830  -28.7545   23.4417 C   0  0  0  0  0  0  0  0  0  0  0  0
  -30.4209  -15.2780   20.2134 C   0  0  0  0  0  0  0  0  0  0  0  0
  -28.9665  -35.5650   24.4884 C   0  0  0  0  0  0  0  0  0  0  0  0
  -25.6750  -30.9272   20.4670 C   0  0  0  0  0  0  0  0  0  0  0  0
  -24.9292  -28.8580   22.4437 C   0  0  0  0  0  0  0  0  0  0  0  0
  -27.9395  -34.5601   25.0039 C   0  0  0  0  0  0  0  0  0  0  0  0
  -29.7238  -11.9258   19.2369 C   0  0  0  0  0  0  0  0  0  0  0  0
  -28.4483  -33.1341   24.8186 C   0  0  0  0  0  0  0  0  0  0  0  0
  -28.2769  -11.7105   19.6868 C   0  0  0  0  0  0  0  0  0  0  0  0
  -30.5014  -12.7944   20.2241 C   0  0  0  0  0  0  0  0  0  0  0  0
  -28.4228  -13.8635   21.0023 C   0  0  0  0  0  0  0  0  0  0  0  0
  -28.6725  -32.8167   23.3352 C   0  0  1  0  0  0  0  0  0  0  0  0
  -25.4994  -31.2559   21.9464 C   0  0  1  0  0  0  0  0  0  0  0  0
  -27.5813  -13.0482   20.0068 C   0  0  2  0  0  0  0  0  0  0  0  0
  -23.8304  -22.0139   21.4564 C   0  0  0  0  0  0  0  0  0  0  0  0
  -18.6447  -28.5463   24.3285 C   0  0  0  0  0  0  0  0  0  0  0  0
  -24.8455  -29.8067   26.2860 C   0  0  0  0  0  0  0  0  0  0  0  0
  -22.6240  -28.7480   26.7464 C   0  0  0  0  0  0  0  0  0  0  0  0
  -22.7879  -31.2190   26.4466 C   0  0  0  0  0  0  0  0  0  0  0  0
  -19.8154  -28.9126   20.7269 C   0  0  0  0  0  0  0  0  0  0  0  0
  -26.4198  -24.5281   20.4557 C   0  0  0  0  0  0  0  0  0  1  0  0
  -26.4029  -22.0095   20.9997 C   0  0  2  0  0  0  0  0  0  0  0  0
  -23.0463  -29.7068   24.4370 C   0  0  1  0  0  0  0  0  0  0  0  0
  -19.5187  -29.0747   23.2016 C   0  0  2  0  0  0  0  0  0  0  0  0
  -23.3407  -29.8633   25.9557 C   0  0  0  0  0  0  0  0  0  0  0  0
  -25.8742  -11.7343   21.2072 N   0  0  0  0  0  0  0  0  0  0  0  0
  -26.1614  -12.8398   20.4990 N   0  0  0  0  0  0  0  0  0  0  0  0
  -24.6482  -30.2894   22.6430 N   0  0  0  0  0  0  0  0  0  0  0  0
  -29.7845  -14.0464   20.4759 N   0  0  0  0  0  0  0  0  0  0  0  0
  -25.2054  -14.8197   19.6176 N   0  0  0  0  0  0  0  0  0  0  0  0
  -21.7258  -12.8114   21.6804 N   0  0  0  0  0  0  0  0  0  0  0  0
  -29.6299  -16.3997   20.4600 N   0  0  0  0  0  0  0  0  0  0  0  0
  -27.4345  -21.0134   20.9188 N   0  0  0  0  0  0  0  0  0  0  0  0
  -27.4107  -32.5470   22.6798 N   0  0  0  0  0  0  0  0  0  0  0  0
  -21.6309  -29.7836   24.0917 N   0  0  0  0  0  0  0  0  0  0  0  0
  -19.0577  -28.4633   21.9231 N   0  3  0  0  0  0  0  0  0  0  0  0
  -28.8472  -21.9470   22.5045 O   0  0  0  0  0  0  0  0  0  0  0  0
  -22.3569  -14.6398   20.4487 O   0  0  0  0  0  0  0  0  0  0  0  0
  -27.2300  -30.2919   23.2312 O   0  0  0  0  0  0  0  0  0  0  0  0
  -24.8672  -20.5284   19.9116 O   0  0  0  0  0  0  0  0  0  0  0  0
  -27.3130  -22.8810   18.9484 O   0  0  0  0  0  0  0  0  0  0  0  0
  -23.4845  -31.9482   23.7964 O   0  0  0  0  0  0  0  0  0  0  0  0
  -21.4996  -27.6958   23.0913 O   0  0  0  0  0  0  0  0  0  0  0  0
  -31.5725  -15.3329   19.7745 O   0  0  0  0  0  0  0  0  0  0  0  0
  -21.8737   -7.9625   24.4193 O   0  0  0  0  0  0  0  0  0  0  0  0
  -26.8080  -25.4695   19.4560 O   0  0  0  0  0  0  0  0  0  1  0  0
  -22.7979   -2.6845   23.1184 F   0  0  0  0  0  0  0  0  0  0  0  0
  -19.8066   -6.3217   23.5960 F   0  0  0  0  0  0  0  0  0  0  0  0
  -27.8313  -18.4742   20.8868 F   0  0  0  0  0  0  0  0  0  0  0  0
  1  2  1  0  0  0  0
  1  7  2  0  0  0  0
  2  8  2  0  0  0  0
  3  6  2  0  0  0  0
  3 10  1  0  0  0  0
  4 11  2  0  0  0  0
  4 18  1  0  0  0  0
  5 12  1  0  0  0  0
  5 18  2  0  0  0  0
  6 19  1  0  0  0  0
  7 21  1  0  0  0  0
  8 23  1  0  0  0  0
  9 13  2  0  0  0  0
  9 22  1  0  0  0  0
 10 25  2  0  0  0  0
 11 26  1  0  0  0  0
 12 26  2  0  0  0  0
 13 27  1  0  0  0  0
 14 15  2  0  0  0  0
 14 28  1  0  0  0  0
 15 29  1  0  0  0  0
 16 24  1  0  0  0  0
 16 27  2  0  0  0  0
 17 29  2  0  0  0  0
 17 30  1  0  0  0  0
 18 32  1  0  0  0  0
 19 31  2  0  0  0  0
 19 34  1  0  0  0  0
 20 32  1  0  0  0  0
 20 33  2  0  0  0  0
 20 35  1  0  0  0  0
 21 23  2  0  0  0  0
 21 42  1  0  0  0  0
 22 24  2  0  0  0  0
 22 43  1  0  0  0  0
 23 51  1  0  0  0  0
 24 44  1  0  0  0  0
 25 31  1  0  0  0  0
 25 71  1  0  0  0  0
 26 84  1  0  0  0  0
 27 85  1  0  0  0  0
 28 30  2  0  0  0  0
 28 84  1  0  0  0  0
 29 86  1  0  0  0  0
 30 87  1  0  0  0  0
 31 88  1  0  0  0  0
 32 65  2  0  0  0  0
 33 66  1  0  0  0  0
 33 69  1  0  0  0  0
 34 72  1  0  0  0  0
 34 76  2  0  0  0  0
 35 70  1  0  0  0  0
 35 77  2  0  0  0  0
 36 52  1  0  0  0  0
 36 73  1  0  0  0  0
 36 78  2  0  0  0  0
 37 54  1  0  0  0  0
 37 61  1  0  0  0  0
 37 79  2  0  0  0  0
 38 60  1  0  0  0  0
 38 61  1  0  0  0  0
 38 80  2  0  0  0  0
 39 62  1  0  0  0  0
 39 67  1  0  0  0  0
 39 81  2  0  0  0  0
 40 63  1  0  0  0  0
 40 74  1  0  0  0  0
 40 82  2  0  0  0  0
 41 68  1  0  0  0  0
 41 71  1  0  0  0  0
 41 83  2  0  0  0  0
 42 45  1  0  0  0  0
 43 52  1  0  0  0  0
 44 67  1  0  0  0  0
 45 47  1  0  0  0  0
 46 48  1  0  0  0  0
 46 49  1  0  0  0  0
 47 51  1  0  0  0  0
 48 53  1  0  0  0  0
 49 68  1  0  0  0  0
 50 53  1  0  0  0  0
 50 68  1  0  0  0  0
 51 73  1  0  0  0  0
 52 67  1  0  0  0  0
 53 66  1  0  0  0  0
 55 63  1  0  0  0  0
 56 64  1  0  0  0  0
 57 64  1  0  0  0  0
 58 64  1  0  0  0  0
 59 75  1  0  0  0  0
 60 85  1  0  0  0  0
 61 72  1  0  0  0  0
 62 64  1  0  0  0  0
 62 74  1  0  0  0  0
 63 75  1  0  0  0  0
 65 66  1  0  0  0  0
M  CHG  1  75   1
M  ISO  4  41 100  60 101  71 100  85 101
M  END
> <Batch ID>
0172

> <Smiles>
CNC(C)C(=O)NC(C(=O)N1Cc2cc([101O:1][101CH2:1]C(=O)C(NC(=O)c3cccc([100NH:0][100C:0](=O)N4CCCC(n5nc(-c6ccc(Oc7ccc(F)cc7F)cc6)c(C(N)=O)c5N)C4)c3F)C(C)=O)ccc2CC1C(=O)NC1CCCc2ccccc21)C(C)(C)C

> <Shape>
0.313

> <Color>
0.173

> <Negative vol penalty>
0.000

$$$$

  -OEChem-04052304263D

 87 95  0     1  0  0  0  0  0999 V2000
  -29.6184  -35.8028   20.9172 C   0  0  0  0  0  0  0  0  0  0  0  0
  -29.6561  -34.4133   20.9747 C   0  0  0  0  0  0  0  0  0  0  0  0
  -24.8564   -8.7259   21.0603 C   0  0  0  0  0  0  0  0  0  0  0  0
  -23.1625  -10.0648   19.9761 C   0  0  0  0  0  0  0  0  0  0  0  0
  -28.6160  -36.5003   21.5900 C   0  0  0  0  0  0  0  0  0  0  0  0
  -28.6918  -33.7205   21.7059 C   0  0  0  0  0  0  0  0  0  0  0  0
  -26.8655  -29.7133   19.2054 C   0  0  0  0  0  0  0  0  0  0  0  0
  -23.8785   -7.8183   21.4672 C   0  0  0  0  0  0  0  0  0  0  0  0
  -22.1846   -9.1571   20.3830 C   0  0  0  0  0  0  0  0  0  0  0  0
  -27.6572  -28.5661   19.1762 C   0  0  0  0  0  0  0  0  0  0  0  0
  -21.5274   -7.6088   23.8865 C   0  0  0  0  0  0  0  0  0  0  0  0
  -21.5716   -7.1578   25.2056 C   0  0  0  0  0  0  0  0  0  0  0  0
  -26.3223  -27.6072   20.9418 C   0  0  0  0  0  0  0  0  0  0  0  0
  -27.7270  -19.4604   17.9745 C   0  0  0  0  0  0  0  0  0  0  0  0
  -21.8243   -4.8869   24.4207 C   0  0  0  0  0  0  0  0  0  0  0  0
  -24.4984   -9.8492   20.3147 C   0  0  0  0  0  0  0  0  0  0  0  0
  -26.2503  -10.7586   18.6988 C   0  0  0  0  0  0  0  0  0  0  0  0
  -27.6333  -35.8152   22.3218 C   0  0  0  0  0  0  0  0  0  0  0  0
  -25.8012  -29.8207   20.1121 C   0  0  0  0  0  0  0  0  0  0  0  0
  -27.6761  -34.4095   22.3901 C   0  0  0  0  0  0  0  0  0  0  0  0
  -25.5170  -28.7557   20.9788 C   0  0  0  0  0  0  0  0  0  0  0  0
  -27.6474  -20.4758   17.0215 C   0  0  0  0  0  0  0  0  0  0  0  0
  -27.7641  -18.1259   17.5703 C   0  0  0  0  0  0  0  0  0  0  0  0
  -22.5427   -8.0339   21.1286 C   0  0  0  0  0  0  0  0  0  0  0  0
  -27.3875  -27.5140   20.0464 C   0  0  0  0  0  0  0  0  0  0  0  0
  -21.6315   -6.6989   22.8344 C   0  0  0  0  0  0  0  0  0  0  0  0
  -21.7201   -5.7969   25.4728 C   0  0  0  0  0  0  0  0  0  0  0  0
  -21.7800   -5.3379   23.1015 C   0  0  0  0  0  0  0  0  0  0  0  0
  -27.6048  -20.1567   15.6643 C   0  0  0  0  0  0  0  0  0  0  0  0
  -27.7215  -17.8068   16.2131 C   0  0  0  0  0  0  0  0  0  0  0  0
  -27.6419  -18.8222   15.2601 C   0  0  0  0  0  0  0  0  0  0  0  0
  -25.5079  -10.7875   19.8946 C   0  0  0  0  0  0  0  0  0  0  0  0
  -27.0690  -11.8587   18.7763 C   0  0  0  0  0  0  0  0  0  0  0  0
  -26.2039   -9.8213   17.6148 C   0  0  0  0  0  0  0  0  0  0  0  0
  -27.5919  -23.7986   18.7860 C   0  0  0  0  0  0  0  0  0  0  0  0
  -27.6521  -22.2994   18.7294 C   0  0  0  0  0  0  0  0  0  0  0  0
  -25.0985  -31.7655   22.5262 C   0  0  0  0  0  0  0  0  0  0  0  0
  -22.2962  -30.1318   22.5154 C   0  0  0  0  0  0  0  0  0  0  0  0
  -20.6115  -27.2743   21.7132 C   0  0  0  0  0  0  0  0  0  0  0  0
  -27.8961  -17.2436   19.9263 C   0  0  0  0  0  0  0  0  0  0  0  0
  -26.5972  -36.6147   23.0714 C   0  0  0  0  0  0  0  0  0  0  0  0
  -24.9401  -31.0540   20.1128 C   0  0  0  0  0  0  0  0  0  0  0  0
  -24.3734  -28.8131   21.9573 C   0  0  0  0  0  0  0  0  0  0  0  0
  -25.3937  -35.7874   23.5158 C   0  0  0  0  0  0  0  0  0  0  0  0
  -28.0620  -14.9592   22.6523 C   0  0  0  0  0  0  0  0  0  0  0  0
  -25.8512  -34.4796   24.1539 C   0  0  0  0  0  0  0  0  0  0  0  0
  -27.4734  -13.6678   22.0795 C   0  0  0  0  0  0  0  0  0  0  0  0
  -27.3474  -16.1966   22.1121 C   0  0  0  0  0  0  0  0  0  0  0  0
  -26.6754  -14.9845   20.0753 C   0  0  0  0  0  0  0  0  0  0  0  0
  -26.6333  -33.6211   23.1524 C   0  0  1  0  0  0  0  0  0  0  0  0
  -24.2005  -31.2656   21.4302 C   0  0  1  0  0  0  0  0  0  0  0  0
  -27.4052  -13.7138   20.5404 C   0  0  2  0  0  0  0  0  0  0  0  0
  -18.3395  -26.2192   21.8625 C   0  0  0  0  0  0  0  0  0  0  0  0
  -22.7478  -29.5852   25.4831 C   0  0  0  0  0  0  0  0  0  0  0  0
  -21.0101  -27.7880   25.3451 C   0  0  0  0  0  0  0  0  0  0  0  0
  -20.3906  -30.1582   24.8748 C   0  0  0  0  0  0  0  0  0  0  0  0
  -20.3900  -27.0597   18.7698 C   0  0  0  0  0  0  0  0  0  0  0  0
  -28.9149  -24.5276   18.7008 C   0  0  0  0  0  0  0  0  0  0  0  0
  -28.7461  -26.0379   18.7692 C   0  0  0  0  0  0  0  0  0  1  0  0
  -21.7835  -28.8840   23.1930 C   0  0  1  0  0  0  0  0  0  0  0  0
  -19.2850  -27.0509   21.0097 C   0  0  2  0  0  0  0  0  0  0  0  0
  -21.5058  -29.1032   24.7070 C   0  0  0  0  0  0  0  0  0  0  0  0
  -25.8269  -11.8237   20.6747 N   0  0  0  0  0  0  0  0  0  0  0  0
  -26.7788  -12.4561   19.9676 N   0  0  0  0  0  0  0  0  0  0  0  0
  -23.5643  -30.0426   21.9240 N   0  0  0  0  0  0  0  0  0  0  0  0
  -27.3252  -16.1739   20.6479 N   0  0  0  0  0  0  0  0  0  0  0  0
  -28.0017  -12.3636   17.9411 N   0  0  0  0  0  0  0  0  0  0  0  0
  -25.3051   -8.7491   17.6967 N   0  0  0  0  0  0  0  0  0  0  0  0
  -27.6103  -21.8278   17.4351 N   0  0  0  0  0  0  0  0  0  0  0  0
  -27.8453  -17.0963   18.5405 N   0  0  0  0  0  0  0  0  0  0  0  0
  -25.7274  -32.9614   22.2367 N   0  0  0  0  0  0  0  0  0  0  0  0
  -20.6183  -28.4534   22.4280 N   0  0  0  0  0  0  0  0  0  0  0  0
  -19.4976  -26.3421   19.7161 N   0  3  0  0  0  0  0  0  0  0  0  0
  -26.9495   -9.9222   16.6111 O   0  0  0  0  0  0  0  0  0  0  0  0
  -26.4871  -24.3109   18.8843 O   0  0  0  0  0  0  0  0  0  0  0  0
  -27.7532  -21.7162   19.7959 O   0  0  0  0  0  0  0  0  0  0  0  0
  -25.2113  -31.1152   23.5587 O   0  0  0  0  0  0  0  0  0  0  0  0
  -21.5942  -31.1461   22.5049 O   0  0  0  0  0  0  0  0  0  0  0  0
  -21.5467  -26.4804   21.6393 O   0  0  0  0  0  0  0  0  0  0  0  0
  -28.4177  -18.2056   20.4960 O   0  0  0  0  0  0  0  0  0  0  0  0
  -21.5882   -7.1483   21.5253 O   0  0  0  0  0  0  0  0  0  0  0  0
  -28.1591  -26.3933   20.0204 O   0  0  0  0  0  0  0  0  0  1  0  0
  -21.7641   -5.3640   26.7396 F   0  0  0  0  0  0  0  0  0  0  0  0
  -21.8818   -4.4591   22.0950 F   0  0  0  0  0  0  0  0  0  0  0  0
  -27.5282  -21.1369   14.7508 F   0  0  0  0  0  0  0  0  0  0  0  0
  -27.7576  -16.5217   15.8283 F   0  0  0  0  0  0  0  0  0  0  0  0
  -27.5883  -18.4290   13.5842 Cl  0  0  0  0  0  0  0  0  0  0  0  0
  1  2  1  0  0  0  0
  1  5  2  0  0  0  0
  2  6  2  0  0  0  0
  3  8  2  0  0  0  0
  3 16  1  0  0  0  0
  4  9  1  0  0  0  0
  4 16  2  0  0  0  0
  5 18  1  0  0  0  0
  6 20  1  0  0  0  0
  7 10  2  0  0  0  0
  7 19  1  0  0  0  0
  8 24  1  0  0  0  0
  9 24  2  0  0  0  0
 10 25  1  0  0  0  0
 11 12  2  0  0  0  0
 11 26  1  0  0  0  0
 12 27  1  0  0  0  0
 13 21  1  0  0  0  0
 13 25  2  0  0  0  0
 14 22  1  0  0  0  0
 14 23  2  0  0  0  0
 15 27  2  0  0  0  0
 15 28  1  0  0  0  0
 16 32  1  0  0  0  0
 17 32  1  0  0  0  0
 17 33  2  0  0  0  0
 17 34  1  0  0  0  0
 18 20  2  0  0  0  0
 18 41  1  0  0  0  0
 19 21  2  0  0  0  0
 19 42  1  0  0  0  0
 20 50  1  0  0  0  0
 21 43  1  0  0  0  0
 22 29  2  0  0  0  0
 22 69  1  0  0  0  0
 23 30  1  0  0  0  0
 23 70  1  0  0  0  0
 24 81  1  0  0  0  0
 25 82  1  0  0  0  0
 26 28  2  0  0  0  0
 26 81  1  0  0  0  0
 27 83  1  0  0  0  0
 28 84  1  0  0  0  0
 29 31  1  0  0  0  0
 29 85  1  0  0  0  0
 30 31  2  0  0  0  0
 30 86  1  0  0  0  0
 31 87  1  0  0  0  0
 32 63  2  0  0  0  0
 33 64  1  0  0  0  0
 33 67  1  0  0  0  0
 34 68  1  0  0  0  0
 34 74  2  0  0  0  0
 35 36  1  0  0  0  0
 35 58  1  0  0  0  0
 35 75  2  0  0  0  0
 36 69  1  0  0  0  0
 36 76  2  0  0  0  0
 37 51  1  0  0  0  0
 37 71  1  0  0  0  0
 37 77  2  0  0  0  0
 38 60  1  0  0  0  0
 38 65  1  0  0  0  0
 38 78  2  0  0  0  0
 39 61  1  0  0  0  0
 39 72  1  0  0  0  0
 39 79  2  0  0  0  0
 40 66  1  0  0  0  0
 40 70  1  0  0  0  0
 40 80  2  0  0  0  0
 41 44  1  0  0  0  0
 42 51  1  0  0  0  0
 43 65  1  0  0  0  0
 44 46  1  0  0  0  0
 45 47  1  0  0  0  0
 45 48  1  0  0  0  0
 46 50  1  0  0  0  0
 47 52  1  0  0  0  0
 48 66  1  0  0  0  0
 49 52  1  0  0  0  0
 49 66  1  0  0  0  0
 50 71  1  0  0  0  0
 51 65  1  0  0  0  0
 52 64  1  0  0  0  0
 53 61  1  0  0  0  0
 54 62  1  0  0  0  0
 55 62  1  0  0  0  0
 56 62  1  0  0  0  0
 57 73  1  0  0  0  0
 58 59  1  0  0  0  0
 59 82  1  0  0  0  0
 60 62  1  0  0  0  0
 60 72  1  0  0  0  0
 61 73  1  0  0  0  0
 63 64  1  0  0  0  0
M  CHG  1  73   1
M  ISO  4  40 100  59 101  70 100  82 101
M  END
> <Batch ID>
0172

> <Smiles>
CNC(C)C(=O)NC(C(=O)N1Cc2cc([101O:1][101CH2:1]CC(=O)C(=O)Nc3cc([100NH:0][100C:0](=O)N4CCCC(n5nc(-c6ccc(Oc7ccc(F)cc7F)cc6)c(C(N)=O)c5N)C4)c(F)c(Cl)c3F)ccc2CC1C(=O)NC1CCCc2ccccc21)C(C)(C)C

> <Shape>
0.307

> <Color>
0.109

> <Negative vol penalty>
0.000

$$$$

  -OEChem-04052304263D

 88 96  0     1  0  0  0  0  0999 V2000
  -16.3707  -28.9914   27.2881 C   0  0  0  0  0  0  0  0  0  0  0  0
  -17.3970  -28.0569   27.1939 C   0  0  0  0  0  0  0  0  0  0  0  0
  -23.1927   -9.9996   22.0606 C   0  0  0  0  0  0  0  0  0  0  0  0
  -23.8064  -11.3879   23.9402 C   0  0  0  0  0  0  0  0  0  0  0  0
  -16.0834  -29.8210   26.2050 C   0  0  0  0  0  0  0  0  0  0  0  0
  -18.1358  -27.9507   26.0161 C   0  0  0  0  0  0  0  0  0  0  0  0
  -24.0879  -26.5994   25.5132 C   0  0  0  0  0  0  0  0  0  0  0  0
  -22.4480   -9.1802   22.9088 C   0  0  0  0  0  0  0  0  0  0  0  0
  -23.0617  -10.5685   24.7885 C   0  0  0  0  0  0  0  0  0  0  0  0
  -24.7592  -25.4112   25.2281 C   0  0  0  0  0  0  0  0  0  0  0  0
  -19.4236   -9.2521   24.4190 C   0  0  0  0  0  0  0  0  0  0  0  0
  -18.1506   -8.8689   23.9971 C   0  0  0  0  0  0  0  0  0  0  0  0
  -24.8948  -26.0520   22.9064 C   0  0  0  0  0  0  0  0  0  0  0  0
  -31.9187  -17.3966   20.5895 C   0  0  0  0  0  0  0  0  0  0  0  0
  -29.6921  -18.3265   20.4686 C   0  0  0  0  0  0  0  0  0  0  0  0
  -18.8150   -6.5483   24.0999 C   0  0  0  0  0  0  0  0  0  0  0  0
  -23.8720  -11.1034   22.5762 C   0  0  0  0  0  0  0  0  0  0  0  0
  -31.5839  -19.7713   20.8815 C   0  0  0  0  0  0  0  0  0  0  0  0
  -24.1913  -13.0889   21.0067 C   0  0  0  0  0  0  0  0  0  0  0  0
  -16.8254  -29.7315   25.0167 C   0  0  0  0  0  0  0  0  0  0  0  0
  -23.8049  -27.5194   24.4934 C   0  0  0  0  0  0  0  0  0  0  0  0
  -17.8573  -28.7790   24.9156 C   0  0  0  0  0  0  0  0  0  0  0  0
  -24.2221  -27.2523   23.1816 C   0  0  0  0  0  0  0  0  0  0  0  0
  -32.4377  -18.6698   20.8244 C   0  0  0  0  0  0  0  0  0  0  0  0
  -30.5459  -17.2249   20.4115 C   0  0  0  0  0  0  0  0  0  0  0  0
  -30.2110  -19.5997   20.7036 C   0  0  0  0  0  0  0  0  0  0  0  0
  -22.3825   -9.4646   24.2728 C   0  0  0  0  0  0  0  0  0  0  0  0
  -25.1602  -25.1360   23.9240 C   0  0  0  0  0  0  0  0  0  0  0  0
  -20.3925   -8.2834   24.6813 C   0  0  0  0  0  0  0  0  0  0  0  0
  -17.8462   -7.5170   23.8376 C   0  0  0  0  0  0  0  0  0  0  0  0
  -20.0881   -6.9315   24.5217 C   0  0  0  0  0  0  0  0  0  0  0  0
  -24.6419  -11.9499   21.7006 C   0  0  0  0  0  0  0  0  0  0  0  0
  -25.2954  -13.5318   20.3202 C   0  0  0  0  0  0  0  0  0  0  0  0
  -32.1316  -21.1027   21.1269 C   0  0  0  0  0  0  0  0  0  0  0  0
  -22.8911  -13.6926   20.9847 C   0  0  0  0  0  0  0  0  0  0  0  0
  -21.1471  -28.7254   23.2343 C   0  0  0  0  0  0  0  0  0  0  0  0
  -26.8923  -22.4217   22.1306 C   0  0  0  0  0  0  0  0  0  0  0  0
  -23.2344  -30.5881   21.5924 C   0  0  0  0  0  0  0  0  0  0  0  0
  -27.9433  -20.6819   20.6063 C   0  0  0  0  0  0  0  0  0  0  0  0
  -26.3865  -31.0098   20.3541 C   0  0  0  0  0  0  0  0  0  0  0  0
  -30.7272  -14.7334   20.0862 C   0  0  0  0  0  0  0  0  0  0  0  0
  -16.4469  -30.6172   23.8561 C   0  0  0  0  0  0  0  0  0  0  0  0
  -23.1036  -28.8088   24.8220 C   0  0  0  0  0  0  0  0  0  0  0  0
  -23.9605  -28.2164   22.0544 C   0  0  0  0  0  0  0  0  0  0  0  0
  -17.5221  -30.6979   22.7755 C   0  0  0  0  0  0  0  0  0  0  0  0
  -29.7925  -11.3402   19.5485 C   0  0  0  0  0  0  0  0  0  0  0  0
  -18.0466  -29.3055   22.4392 C   0  0  0  0  0  0  0  0  0  0  0  0
  -28.3321  -11.2900   20.0034 C   0  0  0  0  0  0  0  0  0  0  0  0
  -30.6273  -12.2735   20.4236 C   0  0  0  0  0  0  0  0  0  0  0  0
  -28.6287  -13.5816   21.0270 C   0  0  0  0  0  0  0  0  0  0  0  0
  -18.6974  -28.6506   23.6635 C   0  0  1  0  0  0  0  0  0  0  0  0
  -22.4137  -29.4381   23.6156 C   0  0  1  0  0  0  0  0  0  0  0  0
  -27.7342  -12.7044   20.1359 C   0  0  2  0  0  0  0  0  0  0  0  0
  -33.9123  -18.8216   21.0119 C   0  0  0  0  0  0  0  0  0  0  0  0
  -32.5358  -21.9108   19.9317 C   0  0  0  0  0  0  0  0  0  0  0  0
  -27.7816  -32.6160   19.0232 C   0  0  0  0  0  0  0  0  0  0  0  0
  -21.8517  -29.6652   19.0338 C   0  0  0  0  0  0  0  0  0  0  0  0
  -23.8257  -30.5088   17.7455 C   0  0  0  0  0  0  0  0  0  0  0  0
  -22.4410  -32.0952   19.0829 C   0  0  0  0  0  0  0  0  0  0  0  0
  -28.2764  -31.4072   22.5967 C   0  0  0  0  0  0  0  0  0  0  0  0
  -27.3365  -22.0666   20.7268 C   0  0  0  0  0  0  0  0  0  0  0  0
  -26.1968  -23.7592   22.2852 C   0  0  0  0  0  0  0  0  0  1  0  0
  -23.9662  -30.4705   20.2772 C   0  0  1  0  0  0  0  0  0  0  0  0
  -27.3435  -32.1866   20.4148 C   0  0  2  0  0  0  0  0  0  0  0  0
  -23.0245  -30.6657   19.0555 C   0  0  0  0  0  0  0  0  0  0  0  0
  -25.9316  -11.6856   21.4754 N   0  0  0  0  0  0  0  0  0  0  0  0
  -26.3009  -12.6647   20.6322 N   0  0  0  0  0  0  0  0  0  0  0  0
  -23.2660  -29.4605   22.4251 N   0  0  0  0  0  0  0  0  0  0  0  0
  -30.0022  -13.5958   20.4994 N   0  0  0  0  0  0  0  0  0  0  0  0
  -25.4946  -14.5744   19.4861 N   0  0  0  0  0  0  0  0  0  0  0  0
  -21.8705  -13.1092   21.7479 N   0  0  0  0  0  0  0  0  0  0  0  0
  -29.3237  -20.7013   20.7562 N   0  0  0  0  0  0  0  0  0  0  0  0
  -30.0189  -15.9315   20.1729 N   0  0  0  0  0  0  0  0  0  0  0  0
  -20.0207  -29.1936   23.8835 N   0  0  0  0  0  0  0  0  0  0  0  0
  -25.0707  -31.4217   20.3383 N   0  0  0  0  0  0  0  0  0  0  0  0
  -28.5581  -31.8266   21.1997 N   0  3  0  0  0  0  0  0  0  0  0  0
  -32.2876  -21.6017   22.2396 O   0  0  0  0  0  0  0  0  0  0  0  0
  -22.6374  -14.7095   20.2955 O   0  0  0  0  0  0  0  0  0  0  0  0
  -21.1884  -27.8188   22.4108 O   0  0  0  0  0  0  0  0  0  0  0  0
  -27.0892  -21.6759   23.0889 O   0  0  0  0  0  0  0  0  0  0  0  0
  -22.6620  -31.6439   21.8737 O   0  0  0  0  0  0  0  0  0  0  0  0
  -27.2220  -19.7042   20.4261 O   0  0  0  0  0  0  0  0  0  0  0  0
  -26.7681  -29.8420   20.3201 O   0  0  0  0  0  0  0  0  0  0  0  0
  -31.8815  -14.6475   19.6593 O   0  0  0  0  0  0  0  0  0  0  0  0
  -21.6557   -8.6654   25.1008 O   0  0  0  0  0  0  0  0  0  0  0  0
  -25.8150  -23.9766   23.6429 O   0  0  0  0  0  0  0  0  0  1  0  0
  -16.6232   -7.1491   23.4339 F   0  0  0  0  0  0  0  0  0  0  0  0
  -21.0144   -5.9963   24.7733 F   0  0  0  0  0  0  0  0  0  0  0  0
  1  2  1  0  0  0  0
  1  5  2  0  0  0  0
  2  6  2  0  0  0  0
  3  8  2  0  0  0  0
  3 17  1  0  0  0  0
  4  9  1  0  0  0  0
  4 17  2  0  0  0  0
  5 20  1  0  0  0  0
  6 22  1  0  0  0  0
  7 10  2  0  0  0  0
  7 21  1  0  0  0  0
  8 27  1  0  0  0  0
  9 27  2  0  0  0  0
 10 28  1  0  0  0  0
 11 12  2  0  0  0  0
 11 29  1  0  0  0  0
 12 30  1  0  0  0  0
 13 23  1  0  0  0  0
 13 28  2  0  0  0  0
 14 24  2  0  0  0  0
 14 25  1  0  0  0  0
 15 25  2  0  0  0  0
 15 26  1  0  0  0  0
 16 30  2  0  0  0  0
 16 31  1  0  0  0  0
 17 32  1  0  0  0  0
 18 24  1  0  0  0  0
 18 26  2  0  0  0  0
 18 34  1  0  0  0  0
 19 32  1  0  0  0  0
 19 33  2  0  0  0  0
 19 35  1  0  0  0  0
 20 22  2  0  0  0  0
 20 42  1  0  0  0  0
 21 23  2  0  0  0  0
 21 43  1  0  0  0  0
 22 51  1  0  0  0  0
 23 44  1  0  0  0  0
 24 54  1  0  0  0  0
 25 73  1  0  0  0  0
 26 72  1  0  0  0  0
 27 85  1  0  0  0  0
 28 86  1  0  0  0  0
 29 31  2  0  0  0  0
 29 85  1  0  0  0  0
 30 87  1  0  0  0  0
 31 88  1  0  0  0  0
 32 66  2  0  0  0  0
 33 67  1  0  0  0  0
 33 70  1  0  0  0  0
 34 55  1  0  0  0  0
 34 77  2  0  0  0  0
 35 71  1  0  0  0  0
 35 78  2  0  0  0  0
 36 52  1  0  0  0  0
 36 74  1  0  0  0  0
 36 79  2  0  0  0  0
 37 61  1  0  0  0  0
 37 62  1  0  0  0  0
 37 80  2  0  0  0  0
 38 63  1  0  0  0  0
 38 68  1  0  0  0  0
 38 81  2  0  0  0  0
 39 61  1  0  0  0  0
 39 72  1  0  0  0  0
 39 82  2  0  0  0  0
 40 64  1  0  0  0  0
 40 75  1  0  0  0  0
 40 83  2  0  0  0  0
 41 69  1  0  0  0  0
 41 73  1  0  0  0  0
 41 84  2  0  0  0  0
 42 45  1  0  0  0  0
 43 52  1  0  0  0  0
 44 68  1  0  0  0  0
 45 47  1  0  0  0  0
 46 48  1  0  0  0  0
 46 49  1  0  0  0  0
 47 51  1  0  0  0  0
 48 53  1  0  0  0  0
 49 69  1  0  0  0  0
 50 53  1  0  0  0  0
 50 69  1  0  0  0  0
 51 74  1  0  0  0  0
 52 68  1  0  0  0  0
 53 67  1  0  0  0  0
 56 64  1  0  0  0  0
 57 65  1  0  0  0  0
 58 65  1  0  0  0  0
 59 65  1  0  0  0  0
 60 76  1  0  0  0  0
 62 86  1  0  0  0  0
 63 65  1  0  0  0  0
 63 75  1  0  0  0  0
 64 76  1  0  0  0  0
 66 67  1  0  0  0  0
M  CHG  1  76   1
M  ISO  4  41 100  62 101  73 100  86 101
M  END
> <Batch ID>
0172

> <Smiles>
CNC(C)C(=O)NC(C(=O)N1Cc2cc([101O:1][101CH2:1]C(=O)CC(=O)Nc3cc([100NH:0][100C:0](=O)N4CCCC(n5nc(-c6ccc(Oc7ccc(F)cc7F)cc6)c(C(N)=O)c5N)C4)cc(C)c3C(C)=O)ccc2CC1C(=O)NC1CCCc2ccccc21)C(C)(C)C

> <Shape>
0.250

> <Color>
0.109

> <Negative vol penalty>
0.000

$$$$

  -OEChem-04052304263D

 89 97  0     1  0  0  0  0  0999 V2000
  -31.4940  -19.1592   28.1464 C   0  0  0  0  0  0  0  0  0  0  0  0
  -30.5257  -19.8852   27.4604 C   0  0  0  0  0  0  0  0  0  0  0  0
  -29.7035  -28.4719   20.6622 C   0  0  0  0  0  0  0  0  0  0  0  0
  -28.0137  -27.5492   19.2027 C   0  0  0  0  0  0  0  0  0  0  0  0
  -31.9547  -17.9499   27.6275 C   0  0  0  0  0  0  0  0  0  0  0  0
  -30.0183  -19.4029   26.2544 C   0  0  0  0  0  0  0  0  0  0  0  0
  -24.2946  -20.0106   24.1626 C   0  0  0  0  0  0  0  0  0  0  0  0
  -30.4932  -27.3393   20.4639 C   0  0  0  0  0  0  0  0  0  0  0  0
  -28.8034  -26.4167   19.0043 C   0  0  0  0  0  0  0  0  0  0  0  0
  -23.7164  -20.8984   23.2564 C   0  0  0  0  0  0  0  0  0  0  0  0
  -29.5489  -23.5750   20.6776 C   0  0  0  0  0  0  0  0  0  0  0  0
  -28.9243  -22.3297   20.7443 C   0  0  0  0  0  0  0  0  0  0  0  0
  -23.9933  -19.2724   21.4961 C   0  0  0  0  0  0  0  0  0  0  0  0
  -18.5598  -28.1565   23.3229 C   0  0  0  0  0  0  0  0  0  0  0  0
  -18.8361  -25.7683   23.1689 C   0  0  0  0  0  0  0  0  0  0  0  0
  -29.5886  -21.8745   18.4665 C   0  0  0  0  0  0  0  0  0  0  0  0
  -28.4637  -28.5768   20.0317 C   0  0  0  0  0  0  0  0  0  0  0  0
  -27.6549  -30.9320   19.4779 C   0  0  0  0  0  0  0  0  0  0  0  0
  -31.4458  -17.4477   26.4195 C   0  0  0  0  0  0  0  0  0  0  0  0
  -24.7372  -18.7490   23.7394 C   0  0  0  0  0  0  0  0  0  0  0  0
  -30.4737  -18.1863   25.7182 C   0  0  0  0  0  0  0  0  0  0  0  0
  -24.5744  -18.3695   22.3994 C   0  0  0  0  0  0  0  0  0  0  0  0
  -18.1842  -26.8732   23.7083 C   0  0  0  0  0  0  0  0  0  0  0  0
  -30.0432  -26.3118   19.6349 C   0  0  0  0  0  0  0  0  0  0  0  0
  -23.5684  -20.5305   21.9223 C   0  0  0  0  0  0  0  0  0  0  0  0
  -30.1933  -23.9702   19.5053 C   0  0  0  0  0  0  0  0  0  0  0  0
  -28.9442  -21.4794   19.6388 C   0  0  0  0  0  0  0  0  0  0  0  0
  -30.2132  -23.1199   18.3998 C   0  0  0  0  0  0  0  0  0  0  0  0
  -27.6472  -29.7462   20.2366 C   0  0  0  0  0  0  0  0  0  0  0  0
  -19.5860  -28.3038   22.4006 C   0  0  0  0  0  0  0  0  0  0  0  0
  -26.7057  -31.7266   20.0731 C   0  0  0  0  0  0  0  0  0  0  0  0
  -19.8553  -25.9761   22.2504 C   0  0  0  0  0  0  0  0  0  0  0  0
  -28.4489  -31.2837   18.3371 C   0  0  0  0  0  0  0  0  0  0  0  0
  -22.0100  -23.4912   20.4223 C   0  0  0  0  0  0  0  0  0  0  0  0
  -21.5489  -24.8743   20.7805 C   0  0  0  0  0  0  0  0  0  0  0  0
  -27.5504  -17.2721   23.6514 C   0  0  0  0  0  0  0  0  0  0  0  0
  -15.3558  -27.3304   26.1985 C   0  0  0  0  0  0  0  0  0  0  0  0
  -25.7546  -14.7438   22.6999 C   0  0  0  0  0  0  0  0  0  0  0  0
  -22.8738  -13.6147   21.2601 C   0  0  0  0  0  0  0  0  0  0  0  0
  -21.8648  -30.5139   23.3816 C   0  0  0  0  0  0  0  0  0  0  0  0
  -32.0088  -16.1591   25.8744 C   0  0  0  0  0  0  0  0  0  0  0  0
  -25.3344  -17.7926   24.7349 C   0  0  0  0  0  0  0  0  0  0  0  0
  -25.0146  -17.0189   21.8988 C   0  0  0  0  0  0  0  0  0  0  0  0
  -31.1484  -15.5333   24.7796 C   0  0  0  0  0  0  0  0  0  0  0  0
  -24.6332  -32.5533   24.3054 C   0  0  0  0  0  0  0  0  0  0  0  0
  -30.7290  -16.5889   23.7615 C   0  0  0  0  0  0  0  0  0  0  0  0
  -25.7203  -32.1721   23.2989 C   0  0  0  0  0  0  0  0  0  0  0  0
  -23.7860  -31.3472   24.7048 C   0  0  0  0  0  0  0  0  0  0  0  0
  -24.2838  -30.2219   22.5695 C   0  0  0  0  0  0  0  0  0  0  0  0
  -29.8809  -17.6839   24.4196 C   0  0  1  0  0  0  0  0  0  0  0  0
  -26.2182  -16.7310   24.0875 C   0  0  1  0  0  0  0  0  0  0  0  0
  -25.1287  -31.4162   22.0939 C   0  0  2  0  0  0  0  0  0  0  0  0
  -14.5164  -28.3584   26.9124 C   0  0  0  0  0  0  0  0  0  0  0  0
  -21.7076  -11.4979   20.5844 C   0  0  0  0  0  0  0  0  0  0  0  0
  -27.6056  -14.4972   20.2868 C   0  0  0  0  0  0  0  0  0  0  0  0
  -25.8813  -13.0429   19.2005 C   0  0  0  0  0  0  0  0  0  0  0  0
  -26.9577  -12.3193   21.3314 C   0  0  0  0  0  0  0  0  0  0  0  0
  -20.5954  -14.1552   23.0700 C   0  0  0  0  0  0  0  0  0  0  0  0
  -20.0458  -29.6383   21.9381 C   0  0  0  0  0  0  0  0  0  0  0  0
  -22.5880  -22.6633   21.5404 C   0  0  0  0  0  0  0  0  0  1  0  0
  -16.4341  -27.7837   25.2359 C   0  0  0  0  0  0  0  0  0  0  0  0
  -25.2796  -14.2100   21.3701 C   0  0  1  0  0  0  0  0  0  0  0  0
  -21.8934  -12.5349   21.6812 C   0  0  2  0  0  0  0  0  0  0  0  0
  -26.4244  -13.5436   20.5559 C   0  0  0  0  0  0  0  0  0  0  0  0
  -26.7634  -29.7802   21.2375 N   0  0  0  0  0  0  0  0  0  0  0  0
  -26.2069  -30.9970   21.1119 N   0  0  0  0  0  0  0  0  0  0  0  0
  -20.1969  -27.2227   21.8969 N   0  3  0  0  0  0  0  0  0  0  0  0
  -25.5985  -16.1214   22.9092 N   0  0  0  0  0  0  0  0  0  0  0  0
  -23.2535  -30.6759   23.5167 N   0  0  0  0  0  0  0  0  0  0  0  0
  -26.2575  -32.9712   19.8040 N   0  0  0  0  0  0  0  0  0  0  0  0
  -29.3762  -30.3499   17.8549 N   0  0  0  0  0  0  0  0  0  0  0  0
  -17.1446  -26.6927   24.6437 N   0  0  0  0  0  0  0  0  0  0  0  0
  -20.5214  -24.8569   21.6989 N   0  0  0  0  0  0  0  0  0  0  0  0
  -28.5267  -17.2177   24.6278 N   0  0  0  0  0  0  0  0  0  0  0  0
  -24.1597  -13.3222   21.6631 N   0  0  0  0  0  0  0  0  0  0  0  0
  -21.4439  -29.8730   22.2228 N   0  0  0  0  0  0  0  0  0  0  0  0
  -20.5646  -13.1342   21.9913 N   0  3  0  0  0  0  0  0  0  0  0  0
  -28.3509  -32.3995   17.7723 O   0  0  0  0  0  0  0  0  0  0  0  0
  -21.9039  -23.1442   19.2558 O   0  0  0  0  0  0  0  0  0  0  0  0
  -22.1053  -25.7998   20.2132 O   0  0  0  0  0  0  0  0  0  0  0  0
  -27.6832  -17.7053   22.5128 O   0  0  0  0  0  0  0  0  0  0  0  0
  -15.1688  -26.1266   26.3916 O   0  0  0  0  0  0  0  0  0  0  0  0
  -26.2396  -13.9660   23.5254 O   0  0  0  0  0  0  0  0  0  0  0  0
  -22.5337  -14.6155   20.6331 O   0  0  0  0  0  0  0  0  0  0  0  0
  -21.0594  -30.9158   24.2282 O   0  0  0  0  0  0  0  0  0  0  0  0
  -30.8136  -25.2066   19.4409 O   0  0  0  0  0  0  0  0  0  0  0  0
  -23.0050  -21.3954   21.0355 O   0  0  0  0  0  0  0  0  0  1  0  0
  -28.3456  -20.2828   19.7035 F   0  0  0  0  0  0  0  0  0  0  0  0
  -30.8317  -23.4935   17.2712 F   0  0  0  0  0  0  0  0  0  0  0  0
  1  2  1  0  0  0  0
  1  5  2  0  0  0  0
  2  6  2  0  0  0  0
  3  8  2  0  0  0  0
  3 17  1  0  0  0  0
  4  9  1  0  0  0  0
  4 17  2  0  0  0  0
  5 19  1  0  0  0  0
  6 21  1  0  0  0  0
  7 10  2  0  0  0  0
  7 20  1  0  0  0  0
  8 24  1  0  0  0  0
  9 24  2  0  0  0  0
 10 25  1  0  0  0  0
 11 12  2  0  0  0  0
 11 26  1  0  0  0  0
 12 27  1  0  0  0  0
 13 22  1  0  0  0  0
 13 25  2  0  0  0  0
 14 23  1  0  0  0  0
 14 30  2  0  0  0  0
 15 23  2  0  0  0  0
 15 32  1  0  0  0  0
 16 27  2  0  0  0  0
 16 28  1  0  0  0  0
 17 29  1  0  0  0  0
 18 29  1  0  0  0  0
 18 31  2  0  0  0  0
 18 33  1  0  0  0  0
 19 21  2  0  0  0  0
 19 41  1  0  0  0  0
 20 22  2  0  0  0  0
 20 42  1  0  0  0  0
 21 50  1  0  0  0  0
 22 43  1  0  0  0  0
 23 72  1  0  0  0  0
 24 86  1  0  0  0  0
 25 87  1  0  0  0  0
 26 28  2  0  0  0  0
 26 86  1  0  0  0  0
 27 88  1  0  0  0  0
 28 89  1  0  0  0  0
 29 65  2  0  0  0  0
 30 59  1  0  0  0  0
 30 67  1  0  0  0  0
 31 66  1  0  0  0  0
 31 70  1  0  0  0  0
 32 67  2  0  0  0  0
 32 73  1  0  0  0  0
 33 71  1  0  0  0  0
 33 78  2  0  0  0  0
 34 35  1  0  0  0  0
 34 60  1  0  0  0  0
 34 79  2  0  0  0  0
 35 73  1  0  0  0  0
 35 80  2  0  0  0  0
 36 51  1  0  0  0  0
 36 74  1  0  0  0  0
 36 81  2  0  0  0  0
 37 53  1  0  0  0  0
 37 61  1  0  0  0  0
 37 82  2  0  0  0  0
 38 62  1  0  0  0  0
 38 68  1  0  0  0  0
 38 83  2  0  0  0  0
 39 63  1  0  0  0  0
 39 75  1  0  0  0  0
 39 84  2  0  0  0  0
 40 69  1  0  0  0  0
 40 76  1  0  0  0  0
 40 85  2  0  0  0  0
 41 44  1  0  0  0  0
 42 51  1  0  0  0  0
 43 68  1  0  0  0  0
 44 46  1  0  0  0  0
 45 47  1  0  0  0  0
 45 48  1  0  0  0  0
 46 50  1  0  0  0  0
 47 52  1  0  0  0  0
 48 69  1  0  0  0  0
 49 52  1  0  0  0  0
 49 69  1  0  0  0  0
 50 74  1  0  0  0  0
 51 68  1  0  0  0  0
 52 66  1  0  0  0  0
 54 63  1  0  0  0  0
 55 64  1  0  0  0  0
 56 64  1  0  0  0  0
 57 64  1  0  0  0  0
 58 77  1  0  0  0  0
 59 76  1  0  0  0  0
 60 87  1  0  0  0  0
 61 72  1  0  0  0  0
 62 64  1  0  0  0  0
 62 75  1  0  0  0  0
 63 77  1  0  0  0  0
 65 66  1  0  0  0  0
M  CHG  2  67   1  77   1
M  ISO  4  40 100  60 101  76 100  87 101
M  END
> <Batch ID>
0172

> <Smiles>
CNC(C)C(=O)NC(C(=O)N1Cc2cc([101O:1][101CH2:1]C(=O)C(=O)Nc3cc(NCC(C)=O)cc(C[100NH:0][100C:0](=O)N4CCCC(n5nc(-c6ccc(Oc7ccc(F)cc7F)cc6)c(C(N)=O)c5N)C4)n3)ccc2CC1C(=O)NC1CCCc2ccccc21)C(C)(C)C

> <Shape>
0.235

> <Color>
0.062

> <Negative vol penalty>
0.000

$$$$

  -OEChem-04052304263D

 85 93  0     1  0  0  0  0  0999 V2000
  -29.7718  -24.5930   18.2745 C   0  0  0  0  0  0  0  0  0  0  0  0
  -28.3934  -24.7819   18.2769 C   0  0  0  0  0  0  0  0  0  0  0  0
  -27.9371  -14.4717   20.5558 C   0  0  0  0  0  0  0  0  0  0  0  0
  -26.1094  -14.7250   18.9962 C   0  0  0  0  0  0  0  0  0  0  0  0
  -30.5400  -25.0596   19.3403 C   0  0  0  0  0  0  0  0  0  0  0  0
  -27.7825  -25.4365   19.3459 C   0  0  0  0  0  0  0  0  0  0  0  0
  -22.9062  -29.1333   19.0972 C   0  0  0  0  0  0  0  0  0  0  0  0
  -20.1973  -23.0571   18.6513 C   0  0  0  0  0  0  0  0  0  0  0  0
  -27.5051  -13.1790   20.8521 C   0  0  0  0  0  0  0  0  0  0  0  0
  -25.6774  -13.4322   19.2924 C   0  0  0  0  0  0  0  0  0  0  0  0
  -21.5523  -28.9184   19.3512 C   0  0  0  0  0  0  0  0  0  0  0  0
  -23.9530  -11.8847   21.7546 C   0  0  0  0  0  0  0  0  0  0  0  0
  -20.8754  -22.1502   17.8369 C   0  0  0  0  0  0  0  0  0  0  0  0
  -22.5887  -11.6909   21.9708 C   0  0  0  0  0  0  0  0  0  0  0  0
  -21.8461  -29.7568   21.5940 C   0  0  0  0  0  0  0  0  0  0  0  0
  -22.1596  -23.2735   20.0441 C   0  0  0  0  0  0  0  0  0  0  0  0
  -22.5164  -10.1371   20.1221 C   0  0  0  0  0  0  0  0  0  0  0  0
  -27.2392  -15.2448   19.6279 C   0  0  0  0  0  0  0  0  0  0  0  0
  -28.5940  -16.9642   18.3181 C   0  0  0  0  0  0  0  0  0  0  0  0
  -29.9393  -25.7288   20.4183 C   0  0  0  0  0  0  0  0  0  0  0  0
  -23.7439  -29.6523   20.0950 C   0  0  0  0  0  0  0  0  0  0  0  0
  -28.5433  -25.9113   20.4278 C   0  0  0  0  0  0  0  0  0  0  0  0
  -23.2097  -29.9798   21.3493 C   0  0  0  0  0  0  0  0  0  0  0  0
  -20.8395  -23.6188   19.7549 C   0  0  0  0  0  0  0  0  0  0  0  0
  -22.8377  -22.3665   19.2296 C   0  0  0  0  0  0  0  0  0  0  0  0
  -26.3753  -12.6592   20.2204 C   0  0  0  0  0  0  0  0  0  0  0  0
  -21.0226  -29.2275   20.6006 C   0  0  0  0  0  0  0  0  0  0  0  0
  -24.5990  -11.2048   20.7221 C   0  0  0  0  0  0  0  0  0  0  0  0
  -21.8704  -10.8171   21.1546 C   0  0  0  0  0  0  0  0  0  0  0  0
  -22.1955  -21.8049   18.1260 C   0  0  0  0  0  0  0  0  0  0  0  0
  -23.8807  -10.3310   19.9058 C   0  0  0  0  0  0  0  0  0  0  0  0
  -27.6846  -16.5804   19.3218 C   0  0  0  0  0  0  0  0  0  0  0  0
  -28.6806  -18.3298   18.4371 C   0  0  0  0  0  0  0  0  0  0  0  0
  -29.2976  -16.1584   17.3635 C   0  0  0  0  0  0  0  0  0  0  0  0
  -26.3125  -28.5955   21.6407 C   0  0  0  0  0  0  0  0  0  0  0  0
  -26.3223  -31.5948   22.8764 C   0  0  0  0  0  0  0  0  0  0  0  0
  -20.6923  -25.5953   21.3087 C   0  0  0  0  0  0  0  0  0  0  0  0
  -24.5648  -34.4176   23.6444 C   0  0  0  0  0  0  0  0  0  0  0  0
  -24.9600  -22.4846   20.5818 C   0  0  0  0  0  0  0  0  0  0  0  0
  -30.8054  -26.1734   21.5702 C   0  0  0  0  0  0  0  0  0  0  0  0
  -25.1967  -29.9033   19.7966 C   0  0  0  0  0  0  0  0  0  0  0  0
  -24.0624  -30.5582   22.4479 C   0  0  0  0  0  0  0  0  0  0  0  0
  -30.1263  -27.1880   22.4866 C   0  0  0  0  0  0  0  0  0  0  0  0
  -28.2875  -21.8392   21.6718 C   0  0  0  0  0  0  0  0  0  0  0  0
  -28.7078  -26.7386   22.8224 C   0  0  0  0  0  0  0  0  0  0  0  0
  -28.5955  -20.4550   21.0964 C   0  0  0  0  0  0  0  0  0  0  0  0
  -26.8334  -21.9541   22.1258 C   0  0  0  0  0  0  0  0  0  0  0  0
  -26.1438  -20.2016   20.5375 C   0  0  0  0  0  0  0  0  0  0  0  0
  -27.8468  -26.6386   21.5574 C   0  0  1  0  0  0  0  0  0  0  0  0
  -26.0639  -29.9548   21.0506 C   0  0  1  0  0  0  0  0  0  0  0  0
  -27.5797  -20.0588   20.0070 C   0  0  2  0  0  0  0  0  0  0  0  0
  -24.8370  -36.6864   24.6817 C   0  0  0  0  0  0  0  0  0  0  0  0
  -17.9515  -28.5240   19.2859 C   0  0  0  0  0  0  0  0  0  0  0  0
  -26.3815  -30.3182   25.6471 C   0  0  0  0  0  0  0  0  0  0  0  0
  -25.7002  -32.5293   26.6039 C   0  0  0  0  0  0  0  0  0  0  0  0
  -27.8665  -32.3135   25.3859 C   0  0  0  0  0  0  0  0  0  0  0  0
  -23.7631  -35.7844   21.1448 C   0  0  0  0  0  0  0  0  0  0  0  0
  -19.5993  -26.3395   22.0661 C   0  0  0  0  0  0  0  0  0  0  0  0
  -18.5189  -26.9378   21.1611 C   0  0  0  0  0  0  0  0  0  0  0  0
  -25.7007  -32.2561   24.0827 C   0  0  1  0  0  0  0  0  0  0  0  0
  -24.8551  -35.8856   23.3889 C   0  0  2  0  0  0  0  0  0  0  0  0
  -19.0684  -27.9498   20.1482 C   0  0  2  0  0  0  0  0  0  1  0  0
  -26.3963  -31.8416   25.4100 C   0  0  0  0  0  0  0  0  0  0  0  0
  -27.2263  -17.6183   20.0266 N   0  0  0  0  0  0  0  0  0  0  0  0
  -27.8504  -18.6677   19.4650 N   0  0  0  0  0  0  0  0  0  0  0  0
  -25.4781  -30.7793   22.1095 N   0  0  0  0  0  0  0  0  0  0  0  0
  -25.9287  -21.5672   21.0410 N   0  0  0  0  0  0  0  0  0  0  0  0
  -29.3852  -19.2624   17.7617 N   0  0  0  0  0  0  0  0  0  0  0  0
  -29.0928  -14.7719   17.3794 N   0  0  0  0  0  0  0  0  0  0  0  0
  -20.1512  -24.5389   20.5812 N   0  0  0  0  0  0  0  0  0  0  0  0
  -24.1788  -22.0176   19.5253 N   0  0  0  0  0  0  0  0  0  0  0  0
  -27.4242  -27.9545   21.1283 N   0  0  0  0  0  0  0  0  0  0  0  0
  -25.7235  -33.6907   23.8188 N   0  0  0  0  0  0  0  0  0  0  0  0
  -23.8375  -36.4616   22.4650 N   0  3  0  0  0  0  0  0  0  0  0  0
  -30.0970  -16.6513   16.5320 O   0  0  0  0  0  0  0  0  0  0  0  0
  -25.5528  -28.1611   22.4986 O   0  0  0  0  0  0  0  0  0  0  0  0
  -27.5113  -31.8000   22.6198 O   0  0  0  0  0  0  0  0  0  0  0  0
  -21.8680  -25.9418   21.3539 O   0  0  0  0  0  0  0  0  0  0  0  0
  -23.4242  -33.9620   23.6887 O   0  0  0  0  0  0  0  0  0  0  0  0
  -24.8508  -23.6121   21.0704 O   0  0  0  0  0  0  0  0  0  0  0  0
  -25.9536  -11.3977   20.5092 O   0  0  0  0  0  0  0  0  0  0  0  0
  -19.7016  -29.0181   20.8513 O   0  0  0  0  0  0  0  0  0  1  0  0
  -20.5606  -10.6299   21.3634 F   0  0  0  0  0  0  0  0  0  0  0  0
  -22.8370  -20.9319   17.3364 F   0  0  0  0  0  0  0  0  0  0  0  0
  -24.4961   -9.6741   18.9131 F   0  0  0  0  0  0  0  0  0  0  0  0
  1  2  1  0  0  0  0
  1  5  2  0  0  0  0
  2  6  2  0  0  0  0
  3  9  2  0  0  0  0
  3 18  1  0  0  0  0
  4 10  1  0  0  0  0
  4 18  2  0  0  0  0
  5 20  1  0  0  0  0
  6 22  1  0  0  0  0
  7 11  2  0  0  0  0
  7 21  1  0  0  0  0
  8 13  2  0  0  0  0
  8 24  1  0  0  0  0
  9 26  1  0  0  0  0
 10 26  2  0  0  0  0
 11 27  1  0  0  0  0
 12 14  2  0  0  0  0
 12 28  1  0  0  0  0
 13 30  1  0  0  0  0
 14 29  1  0  0  0  0
 15 23  1  0  0  0  0
 15 27  2  0  0  0  0
 16 24  2  0  0  0  0
 16 25  1  0  0  0  0
 17 29  2  0  0  0  0
 17 31  1  0  0  0  0
 18 32  1  0  0  0  0
 19 32  1  0  0  0  0
 19 33  2  0  0  0  0
 19 34  1  0  0  0  0
 20 22  2  0  0  0  0
 20 40  1  0  0  0  0
 21 23  2  0  0  0  0
 21 41  1  0  0  0  0
 22 49  1  0  0  0  0
 23 42  1  0  0  0  0
 24 70  1  0  0  0  0
 25 30  2  0  0  0  0
 25 71  1  0  0  0  0
 26 81  1  0  0  0  0
 27 82  1  0  0  0  0
 28 31  2  0  0  0  0
 28 81  1  0  0  0  0
 29 83  1  0  0  0  0
 30 84  1  0  0  0  0
 31 85  1  0  0  0  0
 32 64  2  0  0  0  0
 33 65  1  0  0  0  0
 33 68  1  0  0  0  0
 34 69  1  0  0  0  0
 34 75  2  0  0  0  0
 35 50  1  0  0  0  0
 35 72  1  0  0  0  0
 35 76  2  0  0  0  0
 36 60  1  0  0  0  0
 36 66  1  0  0  0  0
 36 77  2  0  0  0  0
 37 58  1  0  0  0  0
 37 70  1  0  0  0  0
 37 78  2  0  0  0  0
 38 61  1  0  0  0  0
 38 73  1  0  0  0  0
 38 79  2  0  0  0  0
 39 67  1  0  0  0  0
 39 71  1  0  0  0  0
 39 80  2  0  0  0  0
 40 43  1  0  0  0  0
 41 50  1  0  0  0  0
 42 66  1  0  0  0  0
 43 45  1  0  0  0  0
 44 46  1  0  0  0  0
 44 47  1  0  0  0  0
 45 49  1  0  0  0  0
 46 51  1  0  0  0  0
 47 67  1  0  0  0  0
 48 51  1  0  0  0  0
 48 67  1  0  0  0  0
 49 72  1  0  0  0  0
 50 66  1  0  0  0  0
 51 65  1  0  0  0  0
 52 61  1  0  0  0  0
 53 62  1  0  0  0  0
 54 63  1  0  0  0  0
 55 63  1  0  0  0  0
 56 63  1  0  0  0  0
 57 74  1  0  0  0  0
 58 59  1  0  0  0  0
 59 62  1  0  0  0  0
 60 63  1  0  0  0  0
 60 73  1  0  0  0  0
 61 74  1  0  0  0  0
 62 82  1  0  0  0  0
 64 65  1  0  0  0  0
M  CHG  1  74   1
M  ISO  4  39 100  62 101  71 100  82 101
M  END
> <Batch ID>
0172

> <Smiles>
CNC(C)C(=O)NC(C(=O)N1Cc2cc([101O:1][101CH:1](C)CCC(=O)Nc3ccc(F)c([100NH:0][100C:0](=O)N4CCCC(n5nc(-c6ccc(Oc7ccc(F)cc7F)cc6)c(C(N)=O)c5N)C4)c3)ccc2CC1C(=O)NC1CCCc2ccccc21)C(C)(C)C

> <Shape>
0.314

> <Color>
0.068

> <Negative vol penalty>
0.000

$$$$

  -OEChem-04052304263D

 87 95  0     1  0  0  0  0  0999 V2000
  -27.6930  -21.8860   18.9748 C   0  0  0  0  0  0  0  0  0  0  0  0
  -26.5305  -22.3376   19.5914 C   0  0  0  0  0  0  0  0  0  0  0  0
  -26.7640  -12.8895   20.4823 C   0  0  0  0  0  0  0  0  0  0  0  0
  -25.1724  -14.5865   19.8308 C   0  0  0  0  0  0  0  0  0  0  0  0
  -28.9246  -22.4405   19.3206 C   0  0  0  0  0  0  0  0  0  0  0  0
  -26.5991  -23.3432   20.5550 C   0  0  0  0  0  0  0  0  0  0  0  0
  -23.0334  -26.8835   19.9255 C   0  0  0  0  0  0  0  0  0  0  0  0
  -25.8147  -11.9004   20.2250 C   0  0  0  0  0  0  0  0  0  0  0  0
  -24.2232  -13.5974   19.5735 C   0  0  0  0  0  0  0  0  0  0  0  0
  -21.7437  -26.5714   20.3535 C   0  0  0  0  0  0  0  0  0  0  0  0
  -23.6925   -8.9510   20.0825 C   0  0  0  0  0  0  0  0  0  0  0  0
  -23.5458   -7.9306   21.0222 C   0  0  0  0  0  0  0  0  0  0  0  0
  -22.1160  -27.8329   22.3757 C   0  0  0  0  0  0  0  0  0  0  0  0
  -25.4848  -21.8226   25.9402 C   0  0  0  0  0  0  0  0  0  0  0  0
  -22.9594   -9.5634   22.7036 C   0  0  0  0  0  0  0  0  0  0  0  0
  -26.4428  -14.2326   20.2852 C   0  0  0  0  0  0  0  0  0  0  0  0
  -28.3613  -15.7885   19.6480 C   0  0  0  0  0  0  0  0  0  0  0  0
  -29.0073  -23.4602   20.2819 C   0  0  0  0  0  0  0  0  0  0  0  0
  -23.8793  -27.6649   20.7257 C   0  0  0  0  0  0  0  0  0  0  0  0
  -27.8332  -23.9109   20.9149 C   0  0  0  0  0  0  0  0  0  0  0  0
  -23.4150  -28.1556   21.9545 C   0  0  0  0  0  0  0  0  0  0  0  0
  -25.6666  -21.3483   24.6458 C   0  0  0  0  0  0  0  0  0  0  0  0
  -24.5443  -12.2543   19.7706 C   0  0  0  0  0  0  0  0  0  0  0  0
  -21.2858  -27.0437   21.5800 C   0  0  0  0  0  0  0  0  0  0  0  0
  -23.4726  -10.2776   20.4534 C   0  0  0  0  0  0  0  0  0  0  0  0
  -23.1792   -8.2368   22.3327 C   0  0  0  0  0  0  0  0  0  0  0  0
  -24.4396  -22.6978   26.2136 C   0  0  0  0  0  0  0  0  0  0  0  0
  -23.1061  -10.5838   21.7640 C   0  0  0  0  0  0  0  0  0  0  0  0
  -27.4227  -15.2548   20.5514 C   0  0  0  0  0  0  0  0  0  0  0  0
  -23.6107  -23.0655   25.1659 C   0  0  0  0  0  0  0  0  0  0  0  0
  -24.7826  -21.7762   23.6684 C   0  0  0  0  0  0  0  0  0  0  0  0
  -29.0531  -16.7205   20.3823 C   0  0  0  0  0  0  0  0  0  0  0  0
  -28.5874  -15.4704   18.2684 C   0  0  0  0  0  0  0  0  0  0  0  0
  -22.4828  -23.9931   25.3947 C   0  0  0  0  0  0  0  0  0  0  0  0
  -21.2995  -23.8821   24.5760 C   0  0  0  0  0  0  0  0  0  0  0  0
  -26.6816  -27.1970   22.1511 C   0  0  0  0  0  0  0  0  0  0  0  0
  -26.4149  -30.3543   22.8460 C   0  0  0  0  0  0  0  0  0  0  0  0
  -24.3846  -33.0598   23.2988 C   0  0  0  0  0  0  0  0  0  0  0  0
  -27.6777  -19.9446   25.2215 C   0  0  0  0  0  0  0  0  0  0  0  0
  -30.3664  -23.9958   20.6569 C   0  0  0  0  0  0  0  0  0  0  0  0
  -25.2583  -28.0149   20.2377 C   0  0  0  0  0  0  0  0  0  0  0  0
  -24.2766  -29.0152   22.8417 C   0  0  0  0  0  0  0  0  0  0  0  0
  -30.3113  -25.3187   21.4167 C   0  0  0  0  0  0  0  0  0  0  0  0
  -30.4138  -17.6936   24.8696 C   0  0  0  0  0  0  0  0  0  0  0  0
  -29.2645  -25.2550   22.5244 C   0  0  0  0  0  0  0  0  0  0  0  0
  -30.0456  -16.8654   23.6365 C   0  0  0  0  0  0  0  0  0  0  0  0
  -29.1858  -18.0318   25.7131 C   0  0  0  0  0  0  0  0  0  0  0  0
  -27.7157  -17.8385   23.7456 C   0  0  0  0  0  0  0  0  0  0  0  0
  -27.8639  -25.0173   21.9469 C   0  0  1  0  0  0  0  0  0  0  0  0
  -26.2142  -28.3898   21.3661 C   0  0  1  0  0  0  0  0  0  0  0  0
  -28.9115  -17.5285   22.8304 C   0  0  2  0  0  0  0  0  0  0  0  0
  -24.4531  -35.4959   23.8970 C   0  0  0  0  0  0  0  0  0  0  0  0
  -18.5765  -24.9806   21.2185 C   0  0  0  0  0  0  0  0  0  0  0  0
  -26.8676  -29.6203   25.7728 C   0  0  0  0  0  0  0  0  0  0  0  0
  -25.9944  -31.8807   26.4023 C   0  0  0  0  0  0  0  0  0  0  0  0
  -28.0606  -31.6848   25.0185 C   0  0  0  0  0  0  0  0  0  0  0  0
  -23.2094  -33.8500   20.7001 C   0  0  0  0  0  0  0  0  0  0  0  0
  -19.3871  -25.0939   23.6244 C   0  0  0  0  0  0  0  0  0  0  0  0
  -25.8179  -31.1528   23.9795 C   0  0  1  0  0  0  0  0  0  0  0  0
  -24.4641  -34.4791   22.7662 C   0  0  2  0  0  0  0  0  0  0  0  0
  -19.7122  -25.3575   22.1599 C   0  0  2  0  0  0  0  0  0  1  0  0
  -26.6693  -31.0669   25.2777 C   0  0  0  0  0  0  0  0  0  0  0  0
  -27.5080  -15.8021   21.7668 N   0  0  0  0  0  0  0  0  0  0  0  0
  -23.7558  -22.6256   23.8958 N   0  0  0  0  0  0  0  0  0  0  0  0
  -28.5084  -16.6894   21.6323 N   0  0  0  0  0  0  0  0  0  0  0  0
  -25.6195  -29.3247   22.3234 N   0  0  0  0  0  0  0  0  0  0  0  0
  -28.1554  -18.6607   24.8839 N   0  0  0  0  0  0  0  0  0  0  0  0
  -30.0683  -17.5554   20.0743 N   0  0  0  0  0  0  0  0  0  0  0  0
  -27.7868  -14.4884   17.6692 N   0  0  0  0  0  0  0  0  0  0  0  0
  -20.9750  -22.6848   24.1023 N   0  0  0  0  0  0  0  0  0  0  0  0
  -26.7232  -20.4544   24.3420 N   0  0  0  0  0  0  0  0  0  0  0  0
  -27.3315  -26.2430   21.3915 N   0  0  0  0  0  0  0  0  0  0  0  0
  -25.6366  -32.5087   23.4725 N   0  0  0  0  0  0  0  0  0  0  0  0
  -20.6235  -25.0166   24.4073 N   0  3  0  0  0  0  0  0  0  0  0  0
  -23.3078  -34.7613   21.8693 N   0  3  0  0  0  0  0  0  0  0  0  0
  -29.4842  -16.0283   17.5916 O   0  0  0  0  0  0  0  0  0  0  0  0
  -22.5782  -24.8562   26.2606 O   0  0  0  0  0  0  0  0  0  0  0  0
  -26.4697  -27.1466   23.3571 O   0  0  0  0  0  0  0  0  0  0  0  0
  -27.5426  -30.6383   22.4344 O   0  0  0  0  0  0  0  0  0  0  0  0
  -23.3187  -32.4976   23.5402 O   0  0  0  0  0  0  0  0  0  0  0  0
  -28.1052  -20.5589   26.2023 O   0  0  0  0  0  0  0  0  0  0  0  0
  -23.6179  -11.2894   19.5192 O   0  0  0  0  0  0  0  0  0  0  0  0
  -20.0277  -26.7400   22.0004 O   0  0  0  0  0  0  0  0  0  1  0  0
  -23.0369   -7.2567   23.2346 F   0  0  0  0  0  0  0  0  0  0  0  0
  -24.2519  -23.1665   27.4537 F   0  0  0  0  0  0  0  0  0  0  0  0
  -22.8924  -11.8562   22.1259 F   0  0  0  0  0  0  0  0  0  0  0  0
  -24.9376  -21.3319   22.4103 F   0  0  0  0  0  0  0  0  0  0  0  0
  1  2  1  0  0  0  0
  1  5  2  0  0  0  0
  2  6  2  0  0  0  0
  3  8  2  0  0  0  0
  3 16  1  0  0  0  0
  4  9  1  0  0  0  0
  4 16  2  0  0  0  0
  5 18  1  0  0  0  0
  6 20  1  0  0  0  0
  7 10  2  0  0  0  0
  7 19  1  0  0  0  0
  8 23  1  0  0  0  0
  9 23  2  0  0  0  0
 10 24  1  0  0  0  0
 11 12  2  0  0  0  0
 11 25  1  0  0  0  0
 12 26  1  0  0  0  0
 13 21  1  0  0  0  0
 13 24  2  0  0  0  0
 14 22  2  0  0  0  0
 14 27  1  0  0  0  0
 15 26  2  0  0  0  0
 15 28  1  0  0  0  0
 16 29  1  0  0  0  0
 17 29  1  0  0  0  0
 17 32  2  0  0  0  0
 17 33  1  0  0  0  0
 18 20  2  0  0  0  0
 18 40  1  0  0  0  0
 19 21  2  0  0  0  0
 19 41  1  0  0  0  0
 20 49  1  0  0  0  0
 21 42  1  0  0  0  0
 22 31  1  0  0  0  0
 22 71  1  0  0  0  0
 23 82  1  0  0  0  0
 24 83  1  0  0  0  0
 25 28  2  0  0  0  0
 25 82  1  0  0  0  0
 26 84  1  0  0  0  0
 27 30  2  0  0  0  0
 27 85  1  0  0  0  0
 28 86  1  0  0  0  0
 29 63  2  0  0  0  0
 30 34  1  0  0  0  0
 30 64  1  0  0  0  0
 31 64  2  0  0  0  0
 31 87  1  0  0  0  0
 32 65  1  0  0  0  0
 32 68  1  0  0  0  0
 33 69  1  0  0  0  0
 33 76  2  0  0  0  0
 34 35  1  0  0  0  0
 34 77  2  0  0  0  0
 35 70  1  0  0  0  0
 35 74  2  0  0  0  0
 36 50  1  0  0  0  0
 36 72  1  0  0  0  0
 36 78  2  0  0  0  0
 37 59  1  0  0  0  0
 37 66  1  0  0  0  0
 37 79  2  0  0  0  0
 38 60  1  0  0  0  0
 38 73  1  0  0  0  0
 38 80  2  0  0  0  0
 39 67  1  0  0  0  0
 39 71  1  0  0  0  0
 39 81  2  0  0  0  0
 40 43  1  0  0  0  0
 41 50  1  0  0  0  0
 42 66  1  0  0  0  0
 43 45  1  0  0  0  0
 44 46  1  0  0  0  0
 44 47  1  0  0  0  0
 45 49  1  0  0  0  0
 46 51  1  0  0  0  0
 47 67  1  0  0  0  0
 48 51  1  0  0  0  0
 48 67  1  0  0  0  0
 49 72  1  0  0  0  0
 50 66  1  0  0  0  0
 51 65  1  0  0  0  0
 52 60  1  0  0  0  0
 53 61  1  0  0  0  0
 54 62  1  0  0  0  0
 55 62  1  0  0  0  0
 56 62  1  0  0  0  0
 57 75  1  0  0  0  0
 58 61  1  0  0  0  0
 58 74  1  0  0  0  0
 59 62  1  0  0  0  0
 59 73  1  0  0  0  0
 60 75  1  0  0  0  0
 61 83  1  0  0  0  0
 63 65  1  0  0  0  0
M  CHG  2  74   1  75   1
M  ISO  4  39 100  61 101  71 100  83 101
M  END
> <Batch ID>
0172

> <Smiles>
CNC(C)C(=O)NC(C(=O)N1Cc2cc([101O:1][101CH:1](C)CNC(=N)C(=O)c3nc(F)c([100NH:0][100C:0](=O)N4CCCC(n5nc(-c6ccc(Oc7ccc(F)cc7F)cc6)c(C(N)=O)c5N)C4)cc3F)ccc2CC1C(=O)NC1CCCc2ccccc21)C(C)(C)C

> <Shape>
0.238

> <Color>
0.072

> <Negative vol penalty>
0.000

$$$$

  -OEChem-04052304263D

 87 95  0     1  0  0  0  0  0999 V2000
  -28.6466  -23.9433   17.4641 C   0  0  0  0  0  0  0  0  0  0  0  0
  -27.4518  -24.1237   18.1536 C   0  0  0  0  0  0  0  0  0  0  0  0
  -26.0698  -16.9309   17.7496 C   0  0  0  0  0  0  0  0  0  0  0  0
  -27.2370  -16.5273   19.8261 C   0  0  0  0  0  0  0  0  0  0  0  0
  -29.8043  -24.5883   17.8973 C   0  0  0  0  0  0  0  0  0  0  0  0
  -27.4143  -24.9483   19.2774 C   0  0  0  0  0  0  0  0  0  0  0  0
  -23.4032  -28.0396   19.2856 C   0  0  0  0  0  0  0  0  0  0  0  0
  -27.1650  -16.4404   17.0386 C   0  0  0  0  0  0  0  0  0  0  0  0
  -28.3322  -16.0367   19.1151 C   0  0  0  0  0  0  0  0  0  0  0  0
  -22.1768  -27.4902   19.6568 C   0  0  0  0  0  0  0  0  0  0  0  0
  -31.2946  -14.3425   17.8613 C   0  0  0  0  0  0  0  0  0  0  0  0
  -31.8886  -13.1649   18.3152 C   0  0  0  0  0  0  0  0  0  0  0  0
  -22.4347  -28.4226   21.8666 C   0  0  0  0  0  0  0  0  0  0  0  0
  -19.7164  -21.8095   23.0205 C   0  0  0  0  0  0  0  0  0  0  0  0
  -29.7998  -11.9913   18.0043 C   0  0  0  0  0  0  0  0  0  0  0  0
  -26.1058  -16.9744   19.1433 C   0  0  0  0  0  0  0  0  0  0  0  0
  -23.8727  -16.7474   20.3554 C   0  0  0  0  0  0  0  0  0  0  0  0
  -29.7789  -25.4289   19.0213 C   0  0  0  0  0  0  0  0  0  0  0  0
  -24.1610  -28.7766   20.2071 C   0  0  0  0  0  0  0  0  0  0  0  0
  -28.5731  -25.6041   19.7268 C   0  0  0  0  0  0  0  0  0  0  0  0
  -23.6692  -28.9824   21.5039 C   0  0  0  0  0  0  0  0  0  0  0  0
  -19.8814  -20.8552   24.0655 C   0  0  0  0  0  0  0  0  0  0  0  0
  -28.2962  -15.9932   17.7213 C   0  0  0  0  0  0  0  0  0  0  0  0
  -21.6936  -27.6792   20.9483 C   0  0  0  0  0  0  0  0  0  0  0  0
  -29.9531  -14.3445   17.4790 C   0  0  0  0  0  0  0  0  0  0  0  0
  -31.1412  -11.9893   18.3866 C   0  0  0  0  0  0  0  0  0  0  0  0
  -29.2057  -13.1690   17.5505 C   0  0  0  0  0  0  0  0  0  0  0  0
  -24.9750  -17.4816   19.8783 C   0  0  0  0  0  0  0  0  0  0  0  0
  -18.6867  -20.5463   24.6777 C   0  0  0  0  0  0  0  0  0  0  0  0
  -23.0834  -17.6810   20.9815 C   0  0  0  0  0  0  0  0  0  0  0  0
  -18.4016  -22.1936   22.8735 C   0  0  0  0  0  0  0  0  0  0  0  0
  -23.5877  -15.3468   20.2428 C   0  0  0  0  0  0  0  0  0  0  0  0
  -27.0368  -28.4460   21.5203 C   0  0  0  0  0  0  0  0  0  0  0  0
  -18.4481  -18.1358   25.3958 C   0  0  0  0  0  0  0  0  0  0  0  0
  -19.2187  -25.1014   21.5746 C   0  0  0  0  0  0  0  0  0  0  0  0
  -26.3801  -31.3727   22.7554 C   0  0  0  0  0  0  0  0  0  0  0  0
  -24.0278  -33.6663   23.6789 C   0  0  0  0  0  0  0  0  0  0  0  0
  -22.9847  -22.0461   24.6219 C   0  0  0  0  0  0  0  0  0  0  0  0
  -31.0661  -26.0674   19.4796 C   0  0  0  0  0  0  0  0  0  0  0  0
  -25.4696  -29.3852   19.7831 C   0  0  0  0  0  0  0  0  0  0  0  0
  -24.4347  -29.7828   22.5246 C   0  0  0  0  0  0  0  0  0  0  0  0
  -30.8593  -27.2205   20.4583 C   0  0  0  0  0  0  0  0  0  0  0  0
  -23.3023  -22.7255   20.9971 C   0  0  0  0  0  0  0  0  0  0  0  0
  -29.8591  -26.8286   21.5413 C   0  0  0  0  0  0  0  0  0  0  0  0
  -23.7447  -21.3725   20.4422 C   0  0  0  0  0  0  0  0  0  0  0  0
  -23.7485  -22.9187   22.4432 C   0  0  0  0  0  0  0  0  0  0  0  0
  -23.7622  -20.4722   22.8022 C   0  0  0  0  0  0  0  0  0  0  0  0
  -28.4868  -26.5104   20.9357 C   0  0  1  0  0  0  0  0  0  0  0  0
  -26.3978  -29.6835   20.9565 C   0  0  1  0  0  0  0  0  0  0  0  0
  -23.2883  -20.2266   21.3619 C   0  0  2  0  0  0  0  0  0  0  0  0
  -18.1186  -17.1338   26.4720 C   0  0  0  0  0  0  0  0  0  0  0  0
  -23.7946  -35.9502   24.6922 C   0  0  0  0  0  0  0  0  0  0  0  0
  -27.0008  -30.2121   25.5081 C   0  0  0  0  0  0  0  0  0  0  0  0
  -25.8579  -32.1943   26.5246 C   0  0  0  0  0  0  0  0  0  0  0  0
  -27.8951  -32.5154   25.1212 C   0  0  0  0  0  0  0  0  0  0  0  0
  -21.6172  -21.4272   26.5781 C   0  0  0  0  0  0  0  0  0  0  0  0
  -22.6921  -34.7294   21.2614 C   0  0  0  0  0  0  0  0  0  0  0  0
  -21.1909  -20.2707   24.4412 C   0  0  0  0  0  0  0  0  0  0  0  0
  -18.4298  -19.6095   25.7951 C   0  0  0  0  0  0  0  0  0  0  0  0
  -18.7247  -23.7959   20.9883 C   0  0  0  0  0  0  0  0  0  0  0  0
  -20.1025  -25.9343   20.6666 C   0  0  0  0  0  0  0  0  0  1  0  0
  -25.7142  -31.8777   24.0126 C   0  0  1  0  0  0  0  0  0  0  0  0
  -23.9080  -35.1539   23.4015 C   0  0  2  0  0  0  0  0  0  0  0  0
  -26.6033  -31.6831   25.2732 C   0  0  0  0  0  0  0  0  0  0  0  0
  -24.8965  -18.7813   20.1756 N   0  0  0  0  0  0  0  0  0  0  0  0
  -23.7354  -18.8713   20.8463 N   0  0  0  0  0  0  0  0  0  0  0  0
  -25.7118  -30.3523   22.0640 N   0  0  0  0  0  0  0  0  0  0  0  0
  -23.3391  -21.7949   23.2862 N   0  0  0  0  0  0  0  0  0  0  0  0
  -21.9022  -17.5916   21.6289 N   0  0  0  0  0  0  0  0  0  0  0  0
  -24.5052  -14.5304   19.5676 N   0  0  0  0  0  0  0  0  0  0  0  0
  -17.9063  -23.1040   21.9510 N   0  0  0  0  0  0  0  0  0  0  0  0
  -27.7851  -27.7319   20.6040 N   0  0  0  0  0  0  0  0  0  0  0  0
  -25.3449  -33.2644   23.7501 N   0  0  0  0  0  0  0  0  0  0  0  0
  -22.0260  -21.1998   25.1993 N   0  0  0  0  0  0  0  0  0  0  0  0
  -22.7018  -35.4305   22.5712 N   0  3  0  0  0  0  0  0  0  0  0  0
  -22.5421  -14.8371   20.7125 O   0  0  0  0  0  0  0  0  0  0  0  0
  -26.8648  -28.1609   22.6996 O   0  0  0  0  0  0  0  0  0  0  0  0
  -18.7175  -17.7687   24.2528 O   0  0  0  0  0  0  0  0  0  0  0  0
  -18.9289  -25.4721   22.7114 O   0  0  0  0  0  0  0  0  0  0  0  0
  -27.4500  -31.8704   22.3960 O   0  0  0  0  0  0  0  0  0  0  0  0
  -23.0507  -32.9346   23.8222 O   0  0  0  0  0  0  0  0  0  0  0  0
  -23.4889  -22.9799   25.2589 O   0  0  0  0  0  0  0  0  0  0  0  0
  -29.3650  -15.5143   17.0279 O   0  0  0  0  0  0  0  0  0  0  0  0
  -20.4971  -27.1436   21.3133 O   0  0  0  0  0  0  0  0  0  1  0  0
  -31.7122  -10.8582   18.8210 F   0  0  0  0  0  0  0  0  0  0  0  0
  -27.9169  -13.1645   17.1834 F   0  0  0  0  0  0  0  0  0  0  0  0
  -17.3730  -21.4051   23.9927 S   0  0  0  0  0  0  0  0  0  0  0  0
  1  2  1  0  0  0  0
  1  5  2  0  0  0  0
  2  6  2  0  0  0  0
  3  8  2  0  0  0  0
  3 16  1  0  0  0  0
  4  9  1  0  0  0  0
  4 16  2  0  0  0  0
  5 18  1  0  0  0  0
  6 20  1  0  0  0  0
  7 10  2  0  0  0  0
  7 19  1  0  0  0  0
  8 23  1  0  0  0  0
  9 23  2  0  0  0  0
 10 24  1  0  0  0  0
 11 12  2  0  0  0  0
 11 25  1  0  0  0  0
 12 26  1  0  0  0  0
 13 21  1  0  0  0  0
 13 24  2  0  0  0  0
 14 22  1  0  0  0  0
 14 31  2  0  0  0  0
 15 26  2  0  0  0  0
 15 27  1  0  0  0  0
 16 28  1  0  0  0  0
 17 28  1  0  0  0  0
 17 30  2  0  0  0  0
 17 32  1  0  0  0  0
 18 20  2  0  0  0  0
 18 39  1  0  0  0  0
 19 21  2  0  0  0  0
 19 40  1  0  0  0  0
 20 48  1  0  0  0  0
 21 41  1  0  0  0  0
 22 29  2  0  0  0  0
 22 58  1  0  0  0  0
 23 83  1  0  0  0  0
 24 84  1  0  0  0  0
 25 27  2  0  0  0  0
 25 83  1  0  0  0  0
 26 85  1  0  0  0  0
 27 86  1  0  0  0  0
 28 65  2  0  0  0  0
 29 59  1  0  0  0  0
 29 87  1  0  0  0  0
 30 66  1  0  0  0  0
 30 69  1  0  0  0  0
 31 71  1  0  0  0  0
 31 87  1  0  0  0  0
 32 70  1  0  0  0  0
 32 76  2  0  0  0  0
 33 49  1  0  0  0  0
 33 72  1  0  0  0  0
 33 77  2  0  0  0  0
 34 51  1  0  0  0  0
 34 59  1  0  0  0  0
 34 78  2  0  0  0  0
 35 60  1  0  0  0  0
 35 61  1  0  0  0  0
 35 79  2  0  0  0  0
 36 62  1  0  0  0  0
 36 67  1  0  0  0  0
 36 80  2  0  0  0  0
 37 63  1  0  0  0  0
 37 73  1  0  0  0  0
 37 81  2  0  0  0  0
 38 68  1  0  0  0  0
 38 74  1  0  0  0  0
 38 82  2  0  0  0  0
 39 42  1  0  0  0  0
 40 49  1  0  0  0  0
 41 67  1  0  0  0  0
 42 44  1  0  0  0  0
 43 45  1  0  0  0  0
 43 46  1  0  0  0  0
 44 48  1  0  0  0  0
 45 50  1  0  0  0  0
 46 68  1  0  0  0  0
 47 50  1  0  0  0  0
 47 68  1  0  0  0  0
 48 72  1  0  0  0  0
 49 67  1  0  0  0  0
 50 66  1  0  0  0  0
 52 63  1  0  0  0  0
 53 64  1  0  0  0  0
 54 64  1  0  0  0  0
 55 64  1  0  0  0  0
 56 74  1  0  0  0  0
 57 75  1  0  0  0  0
 58 74  1  0  0  0  0
 60 71  1  0  0  0  0
 61 84  1  0  0  0  0
 62 64  1  0  0  0  0
 62 73  1  0  0  0  0
 63 75  1  0  0  0  0
 65 66  1  0  0  0  0
M  CHG  1  75   1
M  ISO  4  38 100  61 101  74 100  84 101
M  END
> <Batch ID>
0172

> <Smiles>
CNC(C)C(=O)NC(C(=O)N1Cc2cc([101O:1][101CH2:1]C(=O)CNc3cc(C[100N:0](C)[100C:0](=O)N4CCCC(n5nc(-c6ccc(Oc7ccc(F)cc7F)cc6)c(C(N)=O)c5N)C4)c(CC(C)=O)s3)ccc2CC1C(=O)NC1CCCc2ccccc21)C(C)(C)C

> <Shape>
0.224

> <Color>
0.066

> <Negative vol penalty>
0.000

$$$$

  -OEChem-04052304263D

 89 98  0     1  0  0  0  0  0999 V2000
  -22.2263  -38.3671   20.0680 C   0  0  0  0  0  0  0  0  0  0  0  0
  -23.4151  -37.8253   20.5464 C   0  0  0  0  0  0  0  0  0  0  0  0
  -24.1629   -8.8672   19.8769 C   0  0  0  0  0  0  0  0  0  0  0  0
  -24.3577   -9.1282   22.2709 C   0  0  0  0  0  0  0  0  0  0  0  0
  -21.0098  -37.7633   20.3832 C   0  0  0  0  0  0  0  0  0  0  0  0
  -23.3878  -36.6800   21.3413 C   0  0  0  0  0  0  0  0  0  0  0  0
  -26.8898  -30.7055   19.3583 C   0  0  0  0  0  0  0  0  0  0  0  0
  -23.9090   -7.5062   20.0460 C   0  0  0  0  0  0  0  0  0  0  0  0
  -24.1037   -7.7671   22.4399 C   0  0  0  0  0  0  0  0  0  0  0  0
  -27.7060  -29.5931   19.1521 C   0  0  0  0  0  0  0  0  0  0  0  0
  -21.4176   -5.7165   22.4323 C   0  0  0  0  0  0  0  0  0  0  0  0
  -20.5132   -5.3463   23.4275 C   0  0  0  0  0  0  0  0  0  0  0  0
  -26.7854  -28.5387   21.1240 C   0  0  0  0  0  0  0  0  0  0  0  0
  -26.4744  -18.8863   20.8793 C   0  0  0  0  0  0  0  0  0  0  0  0
  -26.5602  -21.0497   19.8071 C   0  0  0  0  0  0  0  0  0  0  0  0
  -22.2424   -4.0612   24.5209 C   0  0  0  0  0  0  0  0  0  0  0  0
  -24.3874   -9.6783   20.9894 C   0  0  0  0  0  0  0  0  0  0  0  0
  -23.7059  -12.1275   20.7787 C   0  0  0  0  0  0  0  0  0  0  0  0
  -20.9683  -36.6044   21.1744 C   0  0  0  0  0  0  0  0  0  0  0  0
  -26.0062  -30.7322   20.4408 C   0  0  0  0  0  0  0  0  0  0  0  0
  -22.1695  -36.0609   21.6686 C   0  0  0  0  0  0  0  0  0  0  0  0
  -25.9564  -29.6449   21.3286 C   0  0  0  0  0  0  0  0  0  0  0  0
  -27.9077  -20.6177   21.7653 C   0  0  0  0  0  0  0  0  0  0  0  0
  -27.4014  -19.3194   21.8273 C   0  0  0  0  0  0  0  0  0  0  0  0
  -27.4871  -21.4828   20.7552 C   0  0  0  0  0  0  0  0  0  0  0  0
  -23.8793   -6.9561   21.3275 C   0  0  0  0  0  0  0  0  0  0  0  0
  -27.6540  -28.5125   20.0329 C   0  0  0  0  0  0  0  0  0  0  0  0
  -22.7344   -5.2590   22.4812 C   0  0  0  0  0  0  0  0  0  0  0  0
  -20.9256   -4.5186   24.4718 C   0  0  0  0  0  0  0  0  0  0  0  0
  -26.0539  -19.7515   19.8691 C   0  0  0  0  0  0  0  0  0  0  0  0
  -23.1468   -4.4314   23.5255 C   0  0  0  0  0  0  0  0  0  0  0  0
  -24.6503  -11.0842   20.8154 C   0  0  0  0  0  0  0  0  0  0  0  0
  -24.4559  -13.2633   20.5947 C   0  0  0  0  0  0  0  0  0  0  0  0
  -27.8482  -26.2153   19.6353 C   0  0  0  0  0  0  0  0  0  1  0  0
  -22.2782  -12.0747   20.9001 C   0  0  0  0  0  0  0  0  0  0  0  0
  -28.4142  -25.0549   19.9886 C   0  0  0  0  0  0  0  0  0  0  0  0
  -27.6708  -23.7770   19.7387 C   0  0  0  0  0  0  0  0  0  0  0  0
  -23.3594  -32.6223   22.3111 C   0  0  0  0  0  0  0  0  0  0  0  0
  -22.4857  -29.6822   22.2586 C   0  0  0  0  0  0  0  0  0  0  0  0
  -23.0528  -26.4431   23.1663 C   0  0  0  0  0  0  0  0  0  0  0  0
  -28.8998  -16.4114   21.8140 C   0  0  0  0  0  0  0  0  0  0  0  0
  -19.6261  -36.0144   21.5279 C   0  0  0  0  0  0  0  0  0  0  0  0
  -25.1528  -31.9355   20.7367 C   0  0  0  0  0  0  0  0  0  0  0  0
  -25.0156  -29.7322   22.4991 C   0  0  0  0  0  0  0  0  0  0  0  0
  -19.7102  -34.5882   22.0655 C   0  0  0  0  0  0  0  0  0  0  0  0
  -29.3830  -22.0163   24.7350 C   0  0  0  0  0  0  0  0  0  0  0  0
  -29.3401  -13.8265   19.4055 C   0  0  0  0  0  0  0  0  0  0  0  0
  -28.8645  -22.5602   23.3902 C   0  0  0  0  0  0  0  0  0  0  0  0
  -28.7875  -20.6556   24.3250 C   0  0  0  0  0  0  0  0  0  0  0  0
  -20.8112  -34.4775   23.1154 C   0  0  0  0  0  0  0  0  0  0  0  0
  -28.0849  -12.9658   19.5590 C   0  0  0  0  0  0  0  0  0  0  0  0
  -29.8182  -14.3720   20.7493 C   0  0  0  0  0  0  0  0  0  0  0  0
  -27.5386  -14.2378   21.6762 C   0  0  0  0  0  0  0  0  0  0  0  0
  -28.9620  -21.1042   22.8425 C   0  0  0  0  0  0  0  0  0  0  0  0
  -22.1828  -34.8053   22.5132 C   0  0  1  0  0  0  0  0  0  0  0  0
  -23.7787  -31.5706   21.3265 C   0  0  1  0  0  0  0  0  0  0  0  0
  -26.9862  -13.7110   20.3407 C   0  0  2  0  0  0  0  0  0  0  0  0
  -22.5476  -24.0230   23.5967 C   0  0  0  0  0  0  0  0  0  0  0  0
  -21.4756  -30.7450   24.9333 C   0  0  0  0  0  0  0  0  0  0  0  0
  -21.1576  -28.3748   25.6744 C   0  0  0  0  0  0  0  0  0  0  0  0
  -19.8687  -29.2549   23.7284 C   0  0  0  0  0  0  0  0  0  0  0  0
  -23.6489  -25.7004   20.3642 C   0  0  0  0  0  0  0  0  0  0  0  0
  -27.8380  -18.3751   22.8984 C   0  0  0  0  0  0  0  0  0  0  0  0
  -22.3425  -28.8002   23.4730 C   0  0  1  0  0  0  0  0  0  0  0  0
  -22.5950  -25.1308   22.5559 C   0  0  2  0  0  0  0  0  0  0  0  0
  -21.2366  -29.3028   24.4434 C   0  0  0  0  0  0  0  0  0  0  0  0
  -25.9046  -11.5186   20.6665 N   0  0  0  0  0  0  0  0  0  0  0  0
  -25.7535  -12.8475   20.5344 N   0  0  0  0  0  0  0  0  0  0  0  0
  -23.7282  -30.2989   22.0676 N   0  0  0  0  0  0  0  0  0  0  0  0
  -28.7296  -15.0685   21.4389 N   0  0  0  0  0  0  0  0  0  0  0  0
  -24.1255  -14.5672   20.4801 N   0  0  0  0  0  0  0  0  0  0  0  0
  -21.6692  -10.8260   21.0851 N   0  0  0  0  0  0  0  0  0  0  0  0
  -27.9901  -22.8038   20.6756 N   0  0  0  0  0  0  0  0  0  0  0  0
  -22.6788  -33.6834   21.7453 N   0  0  0  0  0  0  0  0  0  0  0  0
  -22.1278  -27.4470   22.9718 N   0  0  0  0  0  0  0  0  0  0  0  0
  -27.8169  -16.9982   22.4573 N   0  0  0  0  0  0  0  0  0  0  0  0
  -23.5240  -24.7137   21.4677 N   0  3  0  0  0  0  0  0  0  0  0  0
  -21.5625  -13.1025   20.8298 O   0  0  0  0  0  0  0  0  0  0  0  0
  -26.8893  -23.6762   18.7989 O   0  0  0  0  0  0  0  0  0  0  0  0
  -23.6314  -32.4818   23.4977 O   0  0  0  0  0  0  0  0  0  0  0  0
  -21.5220  -29.8267   21.5011 O   0  0  0  0  0  0  0  0  0  0  0  0
  -24.1222  -26.5645   23.7599 O   0  0  0  0  0  0  0  0  0  0  0  0
  -29.9378  -17.0424   21.5873 O   0  0  0  0  0  0  0  0  0  0  0  0
  -29.6614  -24.9859   20.5756 O   0  0  0  0  0  0  0  0  0  0  0  0
  -23.6313   -5.6281   21.4928 O   0  0  0  0  0  0  0  0  0  0  0  0
  -28.4503  -27.4277   19.8231 O   0  0  0  0  0  0  0  0  0  1  0  0
  -20.0574   -4.1645   25.4283 F   0  0  0  0  0  0  0  0  0  0  0  0
  -25.1637  -19.3346   18.9590 F   0  0  0  0  0  0  0  0  0  0  0  0
  -24.4109   -3.9897   23.5786 F   0  0  0  0  0  0  0  0  0  0  0  0
  1  2  1  0  0  0  0
  1  5  2  0  0  0  0
  2  6  2  0  0  0  0
  3  8  2  0  0  0  0
  3 17  1  0  0  0  0
  4  9  1  0  0  0  0
  4 17  2  0  0  0  0
  5 19  1  0  0  0  0
  6 21  1  0  0  0  0
  7 10  2  0  0  0  0
  7 20  1  0  0  0  0
  8 26  1  0  0  0  0
  9 26  2  0  0  0  0
 10 27  1  0  0  0  0
 11 12  2  0  0  0  0
 11 28  1  0  0  0  0
 12 29  1  0  0  0  0
 13 22  1  0  0  0  0
 13 27  2  0  0  0  0
 14 24  2  0  0  0  0
 14 30  1  0  0  0  0
 15 25  1  0  0  0  0
 15 30  2  0  0  0  0
 16 29  2  0  0  0  0
 16 31  1  0  0  0  0
 17 32  1  0  0  0  0
 18 32  1  0  0  0  0
 18 33  2  0  0  0  0
 18 35  1  0  0  0  0
 19 21  2  0  0  0  0
 19 42  1  0  0  0  0
 20 22  2  0  0  0  0
 20 43  1  0  0  0  0
 21 55  1  0  0  0  0
 22 44  1  0  0  0  0
 23 24  1  0  0  0  0
 23 25  2  0  0  0  0
 23 54  1  0  0  0  0
 24 63  1  0  0  0  0
 25 73  1  0  0  0  0
 26 85  1  0  0  0  0
 27 86  1  0  0  0  0
 28 31  2  0  0  0  0
 28 85  1  0  0  0  0
 29 87  1  0  0  0  0
 30 88  1  0  0  0  0
 31 89  1  0  0  0  0
 32 67  2  0  0  0  0
 33 68  1  0  0  0  0
 33 71  1  0  0  0  0
 34 36  2  0  0  0  0
 34 86  1  0  0  0  0
 35 72  1  0  0  0  0
 35 78  2  0  0  0  0
 36 37  1  0  0  0  0
 36 84  1  0  0  0  0
 37 73  1  0  0  0  0
 37 79  2  0  0  0  0
 38 56  1  0  0  0  0
 38 74  1  0  0  0  0
 38 80  2  0  0  0  0
 39 64  1  0  0  0  0
 39 69  1  0  0  0  0
 39 81  2  0  0  0  0
 40 65  1  0  0  0  0
 40 75  1  0  0  0  0
 40 82  2  0  0  0  0
 41 70  1  0  0  0  0
 41 76  1  0  0  0  0
 41 83  2  0  0  0  0
 42 45  1  0  0  0  0
 43 56  1  0  0  0  0
 44 69  1  0  0  0  0
 45 50  1  0  0  0  0
 46 48  1  0  0  0  0
 46 49  1  0  0  0  0
 47 51  1  0  0  0  0
 47 52  1  0  0  0  0
 48 54  1  0  0  0  0
 49 54  1  0  0  0  0
 50 55  1  0  0  0  0
 51 57  1  0  0  0  0
 52 70  1  0  0  0  0
 53 57  1  0  0  0  0
 53 70  1  0  0  0  0
 55 74  1  0  0  0  0
 56 69  1  0  0  0  0
 57 68  1  0  0  0  0
 58 65  1  0  0  0  0
 59 66  1  0  0  0  0
 60 66  1  0  0  0  0
 61 66  1  0  0  0  0
 62 77  1  0  0  0  0
 63 76  1  0  0  0  0
 64 66  1  0  0  0  0
 64 75  1  0  0  0  0
 65 77  1  0  0  0  0
 67 68  1  0  0  0  0
M  CHG  1  77   1
M  ISO  4  34 101  41 100  76 100  86 101
M  END
> <Batch ID>
0172

> <Smiles>
CNC(C)C(=O)NC(C(=O)N1Cc2cc([101O:1][101CH2:1]C(=O)C(=O)Nc3cc(F)cc(C[100NH:0][100C:0](=O)N4CCCC(n5nc(-c6ccc(Oc7ccc(F)cc7F)cc6)c(C(N)=O)c5N)C4)c3C3CCC3)ccc2CC1C(=O)NC1CCCc2ccccc21)C(C)(C)C

> <Shape>
0.265

> <Color>
0.101

> <Negative vol penalty>
0.000

$$$$

  -OEChem-04052304263D

 85 93  0     1  0  0  0  0  0999 V2000
  -18.2314  -29.5768   25.9350 C   0  0  0  0  0  0  0  0  0  0  0  0
  -19.5763  -29.2685   26.1132 C   0  0  0  0  0  0  0  0  0  0  0  0
  -24.5353   -9.7380   21.4832 C   0  0  0  0  0  0  0  0  0  0  0  0
  -24.8917  -10.8255   23.6110 C   0  0  0  0  0  0  0  0  0  0  0  0
  -17.6261  -29.3613   24.6976 C   0  0  0  0  0  0  0  0  0  0  0  0
  -20.3163  -28.7434   25.0545 C   0  0  0  0  0  0  0  0  0  0  0  0
  -26.2293  -29.7664   23.8314 C   0  0  0  0  0  0  0  0  0  0  0  0
  -29.9966  -19.8814   21.4095 C   0  0  0  0  0  0  0  0  0  0  0  0
  -30.1089  -21.1751   21.9187 C   0  0  0  0  0  0  0  0  0  0  0  0
  -24.2300   -8.5475   22.1427 C   0  0  0  0  0  0  0  0  0  0  0  0
  -24.5864   -9.6349   24.2705 C   0  0  0  0  0  0  0  0  0  0  0  0
  -27.3832  -29.0307   24.0980 C   0  0  0  0  0  0  0  0  0  0  0  0
  -23.0053   -5.3178   23.2761 C   0  0  0  0  0  0  0  0  0  0  0  0
  -21.8932   -4.5997   22.8366 C   0  0  0  0  0  0  0  0  0  0  0  0
  -27.2783  -28.0757   21.8852 C   0  0  0  0  0  0  0  0  0  0  0  0
  -20.4750   -6.4911   23.3350 C   0  0  0  0  0  0  0  0  0  0  0  0
  -24.8662  -10.8770   22.2173 C   0  0  0  0  0  0  0  0  0  0  0  0
  -24.2864  -13.1275   21.1652 C   0  0  0  0  0  0  0  0  0  0  0  0
  -18.3615  -28.8423   23.6204 C   0  0  0  0  0  0  0  0  0  0  0  0
  -25.5840  -29.6538   22.5915 C   0  0  0  0  0  0  0  0  0  0  0  0
  -19.7199  -28.5194   23.8019 C   0  0  0  0  0  0  0  0  0  0  0  0
  -26.1178  -28.8130   21.6045 C   0  0  0  0  0  0  0  0  0  0  0  0
  -28.7397  -19.2917   21.2744 C   0  0  0  0  0  0  0  0  0  0  0  0
  -28.9644  -21.8791   22.2929 C   0  0  0  0  0  0  0  0  0  0  0  0
  -27.5952  -19.9957   21.6486 C   0  0  0  0  0  0  0  0  0  0  0  0
  -24.2555   -8.4959   23.5364 C   0  0  0  0  0  0  0  0  0  0  0  0
  -27.9063  -28.1831   23.1259 C   0  0  0  0  0  0  0  0  0  0  0  0
  -22.8523   -6.6226   23.7451 C   0  0  0  0  0  0  0  0  0  0  0  0
  -20.6281   -5.1863   22.8661 C   0  0  0  0  0  0  0  0  0  0  0  0
  -21.5871   -7.2092   23.7746 C   0  0  0  0  0  0  0  0  0  0  0  0
  -27.7075  -21.2894   22.1579 C   0  0  0  0  0  0  0  0  0  0  0  0
  -25.1822  -12.1070   21.5365 C   0  0  0  0  0  0  0  0  0  0  0  0
  -25.0750  -14.0703   20.5522 C   0  0  0  0  0  0  0  0  0  0  0  0
  -22.8683  -13.2154   21.3573 C   0  0  0  0  0  0  0  0  0  0  0  0
  -29.9834  -25.2684   23.5710 C   0  0  0  0  0  0  0  0  0  0  0  0
  -30.2450  -23.9037   23.0025 C   0  0  0  0  0  0  0  0  0  0  0  0
  -22.7104  -28.6859   21.6381 C   0  0  0  0  0  0  0  0  0  0  0  0
  -23.7466  -29.7315   18.7476 C   0  0  0  0  0  0  0  0  0  0  0  0
  -26.3811  -30.4467   16.6994 C   0  0  0  0  0  0  0  0  0  0  0  0
  -29.7032  -17.1587   20.3424 C   0  0  0  0  0  0  0  0  0  0  0  0
  -17.6519  -28.5823   22.3152 C   0  0  0  0  0  0  0  0  0  0  0  0
  -24.3552  -30.4744   22.3100 C   0  0  0  0  0  0  0  0  0  0  0  0
  -25.4744  -28.6719   20.2501 C   0  0  0  0  0  0  0  0  0  0  0  0
  -18.6002  -28.3734   21.1374 C   0  0  0  0  0  0  0  0  0  0  0  0
  -29.9011  -13.8503   19.0416 C   0  0  0  0  0  0  0  0  0  0  0  0
  -19.7202  -27.4104   21.5181 C   0  0  0  0  0  0  0  0  0  0  0  0
  -28.6174  -13.1857   19.5442 C   0  0  0  0  0  0  0  0  0  0  0  0
  -30.4824  -14.8144   20.0742 C   0  0  0  0  0  0  0  0  0  0  0  0
  -28.2601  -15.1613   21.0793 C   0  0  0  0  0  0  0  0  0  0  0  0
  -20.5622  -27.9714   22.6704 C   0  0  1  0  0  0  0  0  0  0  0  0
  -23.4900  -29.8921   21.1966 C   0  0  1  0  0  0  0  0  0  0  0  0
  -27.6021  -14.2302   20.0479 C   0  0  2  0  0  0  0  0  0  0  0  0
  -26.9136  -31.2474   14.3815 C   0  0  0  0  0  0  0  0  0  0  0  0
  -23.0289  -26.9823   17.6356 C   0  0  0  0  0  0  0  0  0  0  0  0
  -24.4262  -27.5075   15.6256 C   0  0  0  0  0  0  0  0  0  0  0  0
  -22.4234  -28.8997   16.1485 C   0  0  0  0  0  0  0  0  0  0  0  0
  -27.8012  -32.8323   17.7246 C   0  0  0  0  0  0  0  0  0  0  0  0
  -29.1648  -26.2059   22.7223 C   0  0  0  0  0  0  0  0  0  1  0  0
  -24.4899  -29.1105   17.5896 C   0  0  1  0  0  0  0  0  0  0  0  0
  -26.6814  -31.6533   15.8286 C   0  0  2  0  0  0  0  0  0  0  0  0
  -23.6034  -28.1260   16.7759 C   0  0  0  0  0  0  0  0  0  0  0  0
  -26.4433  -12.3760   21.1883 N   0  0  0  0  0  0  0  0  0  0  0  0
  -26.3456  -13.5763   20.5918 N   0  0  0  0  0  0  0  0  0  0  0  0
  -24.2713  -29.4902   20.0252 N   0  0  0  0  0  0  0  0  0  0  0  0
  -29.4651  -15.7772   20.5020 N   0  0  0  0  0  0  0  0  0  0  0  0
  -26.3136  -19.4144   21.5205 N   0  0  0  0  0  0  0  0  0  0  0  0
  -24.7985  -15.2654   19.9886 N   0  0  0  0  0  0  0  0  0  0  0  0
  -22.2152  -12.1586   22.0060 N   0  0  0  0  0  0  0  0  0  0  0  0
  -29.0816  -23.1905   22.8097 N   0  0  0  0  0  0  0  0  0  0  0  0
  -28.6515  -17.9765   20.7546 N   0  0  0  0  0  0  0  0  0  0  0  0
  -21.4758  -28.9825   22.1832 N   0  0  0  0  0  0  0  0  0  0  0  0
  -25.0254  -30.2190   16.8067 N   0  0  0  0  0  0  0  0  0  0  0  0
  -27.8996  -32.3568   16.3206 N   0  3  0  0  0  0  0  0  0  0  0  0
  -22.1977  -14.1944   20.9508 O   0  0  0  0  0  0  0  0  0  0  0  0
  -30.4653  -25.5278   24.6633 O   0  0  0  0  0  0  0  0  0  0  0  0
  -31.4127  -23.6040   22.8164 O   0  0  0  0  0  0  0  0  0  0  0  0
  -23.1925  -27.5686   21.4934 O   0  0  0  0  0  0  0  0  0  0  0  0
  -22.7417  -30.4118   18.5261 O   0  0  0  0  0  0  0  0  0  0  0  0
  -27.2613  -29.7713   17.2283 O   0  0  0  0  0  0  0  0  0  0  0  0
  -30.7511  -17.5840   19.8493 O   0  0  0  0  0  0  0  0  0  0  0  0
  -23.9575   -7.3345   24.1803 O   0  0  0  0  0  0  0  0  0  0  0  0
  -29.0321  -27.4634   23.3837 O   0  0  0  0  0  0  0  0  0  1  0  0
  -19.5604   -4.4972   22.4426 F   0  0  0  0  0  0  0  0  0  0  0  0
  -21.4340   -8.4627   24.2230 F   0  0  0  0  0  0  0  0  0  0  0  0
  -26.6068  -21.9667   22.5195 F   0  0  0  0  0  0  0  0  0  0  0  0
  1  2  1  0  0  0  0
  1  5  2  0  0  0  0
  2  6  2  0  0  0  0
  3 10  2  0  0  0  0
  3 17  1  0  0  0  0
  4 11  1  0  0  0  0
  4 17  2  0  0  0  0
  5 19  1  0  0  0  0
  6 21  1  0  0  0  0
  7 12  2  0  0  0  0
  7 20  1  0  0  0  0
  8  9  2  0  0  0  0
  8 23  1  0  0  0  0
  9 24  1  0  0  0  0
 10 26  1  0  0  0  0
 11 26  2  0  0  0  0
 12 27  1  0  0  0  0
 13 14  2  0  0  0  0
 13 28  1  0  0  0  0
 14 29  1  0  0  0  0
 15 22  1  0  0  0  0
 15 27  2  0  0  0  0
 16 29  2  0  0  0  0
 16 30  1  0  0  0  0
 17 32  1  0  0  0  0
 18 32  1  0  0  0  0
 18 33  2  0  0  0  0
 18 34  1  0  0  0  0
 19 21  2  0  0  0  0
 19 41  1  0  0  0  0
 20 22  2  0  0  0  0
 20 42  1  0  0  0  0
 21 50  1  0  0  0  0
 22 43  1  0  0  0  0
 23 25  2  0  0  0  0
 23 70  1  0  0  0  0
 24 31  2  0  0  0  0
 24 69  1  0  0  0  0
 25 31  1  0  0  0  0
 25 66  1  0  0  0  0
 26 81  1  0  0  0  0
 27 82  1  0  0  0  0
 28 30  2  0  0  0  0
 28 81  1  0  0  0  0
 29 83  1  0  0  0  0
 30 84  1  0  0  0  0
 31 85  1  0  0  0  0
 32 62  2  0  0  0  0
 33 63  1  0  0  0  0
 33 67  1  0  0  0  0
 34 68  1  0  0  0  0
 34 74  2  0  0  0  0
 35 36  1  0  0  0  0
 35 58  1  0  0  0  0
 35 75  2  0  0  0  0
 36 69  1  0  0  0  0
 36 76  2  0  0  0  0
 37 51  1  0  0  0  0
 37 71  1  0  0  0  0
 37 77  2  0  0  0  0
 38 59  1  0  0  0  0
 38 64  1  0  0  0  0
 38 78  2  0  0  0  0
 39 60  1  0  0  0  0
 39 72  1  0  0  0  0
 39 79  2  0  0  0  0
 40 65  1  0  0  0  0
 40 70  1  0  0  0  0
 40 80  2  0  0  0  0
 41 44  1  0  0  0  0
 42 51  1  0  0  0  0
 43 64  1  0  0  0  0
 44 46  1  0  0  0  0
 45 47  1  0  0  0  0
 45 48  1  0  0  0  0
 46 50  1  0  0  0  0
 47 52  1  0  0  0  0
 48 65  1  0  0  0  0
 49 52  1  0  0  0  0
 49 65  1  0  0  0  0
 50 71  1  0  0  0  0
 51 64  1  0  0  0  0
 52 63  1  0  0  0  0
 53 60  1  0  0  0  0
 54 61  1  0  0  0  0
 55 61  1  0  0  0  0
 56 61  1  0  0  0  0
 57 73  1  0  0  0  0
 58 82  1  0  0  0  0
 59 61  1  0  0  0  0
 59 72  1  0  0  0  0
 60 73  1  0  0  0  0
 62 63  1  0  0  0  0
M  CHG  1  73   1
M  ISO  4  40 100  58 101  70 100  82 101
M  END
> <Batch ID>
0172

> <Smiles>
CNC(C)C(=O)NC(C(=O)N1Cc2cc([101O:1][101CH2:1]C(=O)C(=O)Nc3ccc([100NH:0][100C:0](=O)N4CCCC(n5nc(-c6ccc(Oc7ccc(F)cc7F)cc6)c(C(N)=O)c5N)C4)c(N)c3F)ccc2CC1C(=O)NC1CCCc2ccccc21)C(C)(C)C

> <Shape>
0.271

> <Color>
0.138

> <Negative vol penalty>
0.000

$$$$

  -OEChem-04052304263D

 87 95  0     1  0  0  0  0  0999 V2000
  -22.1013   -8.6915   21.0440 C   0  0  0  0  0  0  0  0  0  0  0  0
  -22.0288   -9.9403   21.6528 C   0  0  0  0  0  0  0  0  0  0  0  0
  -27.4828  -31.1869   21.1295 C   0  0  0  0  0  0  0  0  0  0  0  0
  -26.6679  -29.9617   23.0457 C   0  0  0  0  0  0  0  0  0  0  0  0
  -23.3234   -8.2197   20.5668 C   0  0  0  0  0  0  0  0  0  0  0  0
  -23.1788  -10.7176   21.7858 C   0  0  0  0  0  0  0  0  0  0  0  0
  -22.4008  -15.5656   20.5458 C   0  0  0  0  0  0  0  0  0  0  0  0
  -28.0204  -32.1553   21.9774 C   0  0  0  0  0  0  0  0  0  0  0  0
  -27.2055  -30.9300   23.8935 C   0  0  0  0  0  0  0  0  0  0  0  0
  -21.7581  -16.3683   21.4872 C   0  0  0  0  0  0  0  0  0  0  0  0
  -26.3915  -34.0311   24.9666 C   0  0  0  0  0  0  0  0  0  0  0  0
  -25.5960  -34.4854   26.0184 C   0  0  0  0  0  0  0  0  0  0  0  0
  -23.8904  -17.2690   22.1662 C   0  0  0  0  0  0  0  0  0  0  0  0
  -19.7558  -24.3097   22.7831 C   0  0  0  0  0  0  0  0  0  0  0  0
  -20.1945  -24.6159   25.1391 C   0  0  0  0  0  0  0  0  0  0  0  0
  -27.2525  -33.7200   27.6018 C   0  0  0  0  0  0  0  0  0  0  0  0
  -26.8064  -30.0901   21.6637 C   0  0  0  0  0  0  0  0  0  0  0  0
  -26.8859  -27.9263   20.3149 C   0  0  0  0  0  0  0  0  0  0  0  0
  -24.4872   -8.9958   20.6854 C   0  0  0  0  0  0  0  0  0  0  0  0
  -23.7966  -15.6006   20.4148 C   0  0  0  0  0  0  0  0  0  0  0  0
  -24.4179  -10.2552   21.3109 C   0  0  0  0  0  0  0  0  0  0  0  0
  -24.5483  -16.4676   21.2206 C   0  0  0  0  0  0  0  0  0  0  0  0
  -19.4394  -25.6631   22.6661 C   0  0  0  0  0  0  0  0  0  0  0  0
  -19.5007  -26.4930   23.7856 C   0  0  0  0  0  0  0  0  0  0  0  0
  -20.1333  -23.7860   24.0197 C   0  0  0  0  0  0  0  0  0  0  0  0
  -19.8782  -25.9694   25.0221 C   0  0  0  0  0  0  0  0  0  0  0  0
  -27.8818  -32.0268   23.3594 C   0  0  0  0  0  0  0  0  0  0  0  0
  -22.5031  -17.2181   22.2996 C   0  0  0  0  0  0  0  0  0  0  0  0
  -27.6175  -33.4212   25.2324 C   0  0  0  0  0  0  0  0  0  0  0  0
  -26.0264  -34.3299   27.3360 C   0  0  0  0  0  0  0  0  0  0  0  0
  -28.0480  -33.2657   26.5500 C   0  0  0  0  0  0  0  0  0  0  0  0
  -26.2503  -29.0898   20.7884 C   0  0  0  0  0  0  0  0  0  0  0  0
  -25.9421  -27.3168   19.5248 C   0  0  0  0  0  0  0  0  0  0  0  0
  -21.4763  -19.2503   22.8346 C   0  0  0  0  0  0  0  0  0  1  0  0
  -28.2109  -27.4399   20.5668 C   0  0  0  0  0  0  0  0  0  0  0  0
  -20.8537  -20.1042   23.6562 C   0  0  0  0  0  0  0  0  0  0  0  0
  -20.4519  -21.4519   23.1361 C   0  0  0  0  0  0  0  0  0  0  0  0
  -26.1380  -13.4827   20.7835 C   0  0  0  0  0  0  0  0  0  0  0  0
  -27.9724  -15.8904   19.6173 C   0  0  0  0  0  0  0  0  0  0  0  0
  -28.3864  -19.2429   19.1316 C   0  0  0  0  0  0  0  0  0  0  0  0
  -19.9583  -27.5096   19.4360 C   0  0  0  0  0  0  0  0  0  0  0  0
  -25.7943   -8.4235   20.1968 C   0  0  0  0  0  0  0  0  0  0  0  0
  -24.4724  -14.7480   19.3761 C   0  0  0  0  0  0  0  0  0  0  0  0
  -26.0473  -16.5575   21.1054 C   0  0  0  0  0  0  0  0  0  0  0  0
  -26.8962   -9.4683   20.0405 C   0  0  0  0  0  0  0  0  0  0  0  0
  -22.1660  -28.3103   16.7599 C   0  0  0  0  0  0  0  0  0  0  0  0
  -26.9538  -10.3712   21.2687 C   0  0  0  0  0  0  0  0  0  0  0  0
  -23.5204  -28.4959   17.4462 C   0  0  0  0  0  0  0  0  0  0  0  0
  -21.0191  -28.8267   17.6259 C   0  0  0  0  0  0  0  0  0  0  0  0
  -22.3321  -28.4595   19.6789 C   0  0  0  0  0  0  0  0  0  0  0  0
  -25.6387  -11.1385   21.4515 C   0  0  1  0  0  0  0  0  0  0  0  0
  -25.9438  -14.4868   19.6827 C   0  0  1  0  0  0  0  0  0  0  0  0
  -23.5146  -27.9027   18.8679 C   0  0  2  0  0  0  0  0  0  0  0  0
  -17.7711  -28.2607   24.1982 C   0  0  0  0  0  0  0  0  0  0  0  0
  -30.0040  -20.9112   18.1840 C   0  0  0  0  0  0  0  0  0  0  0  0
  -29.7528  -15.5552   22.0725 C   0  0  0  0  0  0  0  0  0  0  0  0
  -30.7467  -17.7978   21.5718 C   0  0  0  0  0  0  0  0  0  0  0  0
  -30.9886  -15.9340   19.9316 C   0  0  0  0  0  0  0  0  0  0  0  0
  -26.4158  -20.1963   17.1399 C   0  0  0  0  0  0  0  0  0  0  0  0
  -19.1605  -27.9446   23.6561 C   0  0  0  0  0  0  0  0  0  0  0  0
  -19.0369  -26.1983   21.3310 C   0  0  0  0  0  0  0  0  0  0  0  0
  -28.7355  -17.0431   20.2239 C   0  0  1  0  0  0  0  0  0  0  0  0
  -28.7886  -20.0408   17.9044 C   0  0  2  0  0  0  0  0  0  0  0  0
  -30.0279  -16.5796   20.9537 C   0  0  0  0  0  0  0  0  0  0  0  0
  -24.9995  -29.2143   20.3366 N   0  0  0  0  0  0  0  0  0  0  0  0
  -24.8416  -28.1211   19.5710 N   0  0  0  0  0  0  0  0  0  0  0  0
  -26.6625  -15.6994   20.0793 N   0  0  0  0  0  0  0  0  0  0  0  0
  -21.0700  -28.2243   18.9602 N   0  0  0  0  0  0  0  0  0  0  0  0
  -19.9463  -26.7934   26.1673 N   0  0  0  0  0  0  0  0  0  0  0  0
  -25.9545  -26.1767   18.8020 N   0  0  0  0  0  0  0  0  0  0  0  0
  -29.0502  -28.1896   21.4022 N   0  0  0  0  0  0  0  0  0  0  0  0
  -20.4558  -22.4126   24.1381 N   0  0  0  0  0  0  0  0  0  0  0  0
  -25.5692  -12.2497   20.5270 N   0  0  0  0  0  0  0  0  0  0  0  0
  -28.9686  -17.9930   19.1415 N   0  0  0  0  0  0  0  0  0  0  0  0
  -20.0921  -26.9656   20.7076 N   0  0  0  0  0  0  0  0  0  0  0  0
  -27.6687  -20.9230   17.4702 N   0  3  0  0  0  0  0  0  0  0  0  0
  -28.6435  -26.3806   20.0528 O   0  0  0  0  0  0  0  0  0  0  0  0
  -20.1672  -21.6118   21.9540 O   0  0  0  0  0  0  0  0  0  0  0  0
  -26.7592  -13.8023   21.7903 O   0  0  0  0  0  0  0  0  0  0  0  0
  -28.5160  -15.1898   18.7598 O   0  0  0  0  0  0  0  0  0  0  0  0
  -27.6343  -19.6857   19.9969 O   0  0  0  0  0  0  0  0  0  0  0  0
  -18.9251  -27.3623   18.7743 O   0  0  0  0  0  0  0  0  0  0  0  0
  -20.5637  -19.7930   24.9691 O   0  0  0  0  0  0  0  0  0  0  0  0
  -28.4066  -32.9714   24.1870 O   0  0  0  0  0  0  0  0  0  0  0  0
  -21.8783  -18.0022   23.2197 O   0  0  0  0  0  0  0  0  0  1  0  0
  -25.2631  -34.7676   28.3459 F   0  0  0  0  0  0  0  0  0  0  0  0
  -29.2254  -32.6816   26.8115 F   0  0  0  0  0  0  0  0  0  0  0  0
  1  2  1  0  0  0  0
  1  5  2  0  0  0  0
  2  6  2  0  0  0  0
  3  8  2  0  0  0  0
  3 17  1  0  0  0  0
  4  9  1  0  0  0  0
  4 17  2  0  0  0  0
  5 19  1  0  0  0  0
  6 21  1  0  0  0  0
  7 10  2  0  0  0  0
  7 20  1  0  0  0  0
  8 27  1  0  0  0  0
  9 27  2  0  0  0  0
 10 28  1  0  0  0  0
 11 12  2  0  0  0  0
 11 29  1  0  0  0  0
 12 30  1  0  0  0  0
 13 22  1  0  0  0  0
 13 28  2  0  0  0  0
 14 23  1  0  0  0  0
 14 25  2  0  0  0  0
 15 25  1  0  0  0  0
 15 26  2  0  0  0  0
 16 30  2  0  0  0  0
 16 31  1  0  0  0  0
 17 32  1  0  0  0  0
 18 32  1  0  0  0  0
 18 33  2  0  0  0  0
 18 35  1  0  0  0  0
 19 21  2  0  0  0  0
 19 42  1  0  0  0  0
 20 22  2  0  0  0  0
 20 43  1  0  0  0  0
 21 51  1  0  0  0  0
 22 44  1  0  0  0  0
 23 24  2  0  0  0  0
 23 61  1  0  0  0  0
 24 26  1  0  0  0  0
 24 60  1  0  0  0  0
 25 72  1  0  0  0  0
 26 69  1  0  0  0  0
 27 84  1  0  0  0  0
 28 85  1  0  0  0  0
 29 31  2  0  0  0  0
 29 84  1  0  0  0  0
 30 86  1  0  0  0  0
 31 87  1  0  0  0  0
 32 65  2  0  0  0  0
 33 66  1  0  0  0  0
 33 70  1  0  0  0  0
 34 36  2  0  0  0  0
 34 85  1  0  0  0  0
 35 71  1  0  0  0  0
 35 77  2  0  0  0  0
 36 37  1  0  0  0  0
 36 83  1  0  0  0  0
 37 72  1  0  0  0  0
 37 78  2  0  0  0  0
 38 52  1  0  0  0  0
 38 73  1  0  0  0  0
 38 79  2  0  0  0  0
 39 62  1  0  0  0  0
 39 67  1  0  0  0  0
 39 80  2  0  0  0  0
 40 63  1  0  0  0  0
 40 74  1  0  0  0  0
 40 81  2  0  0  0  0
 41 68  1  0  0  0  0
 41 75  1  0  0  0  0
 41 82  2  0  0  0  0
 42 45  1  0  0  0  0
 43 52  1  0  0  0  0
 44 67  1  0  0  0  0
 45 47  1  0  0  0  0
 46 48  1  0  0  0  0
 46 49  1  0  0  0  0
 47 51  1  0  0  0  0
 48 53  1  0  0  0  0
 49 68  1  0  0  0  0
 50 53  1  0  0  0  0
 50 68  1  0  0  0  0
 51 73  1  0  0  0  0
 52 67  1  0  0  0  0
 53 66  1  0  0  0  0
 54 60  1  0  0  0  0
 55 63  1  0  0  0  0
 56 64  1  0  0  0  0
 57 64  1  0  0  0  0
 58 64  1  0  0  0  0
 59 76  1  0  0  0  0
 61 75  1  0  0  0  0
 62 64  1  0  0  0  0
 62 74  1  0  0  0  0
 63 76  1  0  0  0  0
 65 66  1  0  0  0  0
M  CHG  1  76   1
M  ISO  4  34 101  41 100  75 100  85 101
M  END
> <Batch ID>
0172

> <Smiles>
CCc1c(N)cc(NC(=O)C(=O)[101CH2:1][101O:1]c2ccc3c(c2)CN(C(=O)C(NC(=O)C(C)NC)C(C)(C)C)C(C(=O)NC2CCCc4ccccc42)C3)cc1C[100NH:0][100C:0](=O)N1CCCC(n2nc(-c3ccc(Oc4ccc(F)cc4F)cc3)c(C(N)=O)c2N)C1

> <Shape>
0.261

> <Color>
0.048

> <Negative vol penalty>
0.000

$$$$

  -OEChem-04052304263D

 85 93  0     1  0  0  0  0  0999 V2000
  -18.9732  -24.5943   22.9474 C   0  0  0  0  0  0  0  0  0  0  0  0
  -20.0460  -24.7211   22.0707 C   0  0  0  0  0  0  0  0  0  0  0  0
  -24.3260  -14.5719   18.6002 C   0  0  0  0  0  0  0  0  0  0  0  0
  -25.9717  -14.5551   16.8315 C   0  0  0  0  0  0  0  0  0  0  0  0
  -18.3178  -25.7328   23.4144 C   0  0  0  0  0  0  0  0  0  0  0  0
  -20.4631  -25.9865   21.6596 C   0  0  0  0  0  0  0  0  0  0  0  0
  -26.2023  -27.7671   20.4775 C   0  0  0  0  0  0  0  0  0  0  0  0
  -23.4461  -13.8562   17.7883 C   0  0  0  0  0  0  0  0  0  0  0  0
  -25.0919  -13.8394   16.0196 C   0  0  0  0  0  0  0  0  0  0  0  0
  -26.9162  -27.9022   19.2876 C   0  0  0  0  0  0  0  0  0  0  0  0
  -23.4147  -11.6951   13.6098 C   0  0  0  0  0  0  0  0  0  0  0  0
  -23.9244  -10.6074   12.9008 C   0  0  0  0  0  0  0  0  0  0  0  0
  -26.3695  -30.2511   19.2332 C   0  0  0  0  0  0  0  0  0  0  0  0
  -29.9671  -23.1145   16.0827 C   0  0  0  0  0  0  0  0  0  0  0  0
  -30.8171  -20.9414   15.4566 C   0  0  0  0  0  0  0  0  0  0  0  0
  -31.2395  -22.8563   14.0453 C   0  0  0  0  0  0  0  0  0  0  0  0
  -24.5608   -9.5514   14.9786 C   0  0  0  0  0  0  0  0  0  0  0  0
  -25.5888  -14.9214   18.1218 C   0  0  0  0  0  0  0  0  0  0  0  0
  -27.4514  -15.1348   19.8517 C   0  0  0  0  0  0  0  0  0  0  0  0
  -18.7332  -27.0133   23.0163 C   0  0  0  0  0  0  0  0  0  0  0  0
  -25.5564  -28.8726   21.0494 C   0  0  0  0  0  0  0  0  0  0  0  0
  -19.8117  -27.1432   22.1205 C   0  0  0  0  0  0  0  0  0  0  0  0
  -25.6502  -30.1280   20.4317 C   0  0  0  0  0  0  0  0  0  0  0  0
  -30.1096  -21.7518   16.3444 C   0  0  0  0  0  0  0  0  0  0  0  0
  -30.5320  -23.6667   14.9331 C   0  0  0  0  0  0  0  0  0  0  0  0
  -23.8291  -13.4899   16.4980 C   0  0  0  0  0  0  0  0  0  0  0  0
  -26.9975  -29.1436   18.6637 C   0  0  0  0  0  0  0  0  0  0  0  0
  -23.4780  -11.7110   15.0031 C   0  0  0  0  0  0  0  0  0  0  0  0
  -24.4974   -9.5355   13.5852 C   0  0  0  0  0  0  0  0  0  0  0  0
  -31.3821  -21.4936   14.3070 C   0  0  0  0  0  0  0  0  0  0  0  0
  -24.0511  -10.6391   15.6875 C   0  0  0  0  0  0  0  0  0  0  0  0
  -26.4979  -15.6612   18.9598 C   0  0  0  0  0  0  0  0  0  0  0  0
  -28.0544  -16.2398   20.4012 C   0  0  0  0  0  0  0  0  0  0  0  0
  -27.7642  -13.7691   20.1563 C   0  0  0  0  0  0  0  0  0  0  0  0
  -29.7233  -27.3186   14.9427 C   0  0  0  0  0  0  0  0  0  0  0  0
  -29.0233  -28.4375   15.6889 C   0  0  0  0  0  0  0  0  0  0  0  0
  -22.5378  -29.6057   21.7233 C   0  0  0  0  0  0  0  0  0  0  0  0
  -23.8889  -32.2040   23.1181 C   0  0  0  0  0  0  0  0  0  0  0  0
  -26.5396  -34.3461   23.2978 C   0  0  0  0  0  0  0  0  0  0  0  0
  -28.8021  -21.8535   18.4954 C   0  0  0  0  0  0  0  0  0  0  0  0
  -17.9636  -28.2125   23.5105 C   0  0  0  0  0  0  0  0  0  0  0  0
  -24.8126  -28.7160   22.3473 C   0  0  0  0  0  0  0  0  0  0  0  0
  -24.9917  -31.3502   21.0156 C   0  0  0  0  0  0  0  0  0  0  0  0
  -18.7057  -29.5330   23.3206 C   0  0  0  0  0  0  0  0  0  0  0  0
  -27.1904  -20.8209   21.4975 C   0  0  0  0  0  0  0  0  0  0  0  0
  -19.2904  -29.6193   21.9144 C   0  0  0  0  0  0  0  0  0  0  0  0
  -26.9221  -19.3313   21.2711 C   0  0  0  0  0  0  0  0  0  0  0  0
  -27.0201  -21.6295   20.2127 C   0  0  0  0  0  0  0  0  0  0  0  0
  -27.5224  -19.6487   18.8368 C   0  0  0  0  0  0  0  0  0  0  0  0
  -20.3095  -28.4997   21.6710 C   0  0  1  0  0  0  0  0  0  0  0  0
  -23.7638  -29.8013   22.5697 C   0  0  1  0  0  0  0  0  0  0  0  0
  -27.7449  -18.7839   20.0883 C   0  0  2  0  0  0  0  0  0  0  0  0
  -27.3386  -36.3943   24.5077 C   0  0  0  0  0  0  0  0  0  0  0  0
  -22.0153  -33.9263   21.4348 C   0  0  0  0  0  0  0  0  0  0  0  0
  -23.4728  -35.8950   21.9527 C   0  0  0  0  0  0  0  0  0  0  0  0
  -22.2982  -34.6952   23.7977 C   0  0  0  0  0  0  0  0  0  0  0  0
  -28.8815  -32.9178   24.4089 C   0  0  0  0  0  0  0  0  0  0  0  0
  -29.6773  -25.9328   15.5329 C   0  0  0  0  0  0  0  0  0  0  0  0
  -28.3152  -28.1055   16.9779 C   0  0  0  0  0  0  0  0  0  1  0  0
  -24.2653  -33.5910   22.6560 C   0  0  1  0  0  0  0  0  0  0  0  0
  -27.3298  -34.8738   24.4817 C   0  0  2  0  0  0  0  0  0  0  0  0
  -23.0238  -34.5036   22.4480 C   0  0  0  0  0  0  0  0  0  0  0  0
  -26.4917  -16.9967   18.9407 N   0  0  0  0  0  0  0  0  0  0  0  0
  -27.4488  -17.3189   19.8276 N   0  0  0  0  0  0  0  0  0  0  0  0
  -24.2708  -31.1447   22.2827 N   0  0  0  0  0  0  0  0  0  0  0  0
  -27.8321  -21.0552   19.1376 N   0  0  0  0  0  0  0  0  0  0  0  0
  -29.0382  -16.3840   21.3143 N   0  0  0  0  0  0  0  0  0  0  0  0
  -27.0486  -12.7577   19.5010 N   0  0  0  0  0  0  0  0  0  0  0  0
  -29.5352  -21.1905   17.5118 N   0  0  0  0  0  0  0  0  0  0  0  0
  -30.3905  -25.0213   14.6726 N   0  0  0  0  0  0  0  0  0  0  0  0
  -21.5689  -28.8147   22.3108 N   0  0  0  0  0  0  0  0  0  0  0  0
  -25.2244  -34.0997   23.6306 N   0  0  0  0  0  0  0  0  0  0  0  0
  -28.7402  -34.3966   24.4171 N   0  3  0  0  0  0  0  0  0  0  0  0
  -28.6406  -13.4552   20.9970 O   0  0  0  0  0  0  0  0  0  0  0  0
  -30.2886  -27.6149   13.8975 O   0  0  0  0  0  0  0  0  0  0  0  0
  -29.0700  -29.5582   15.1982 O   0  0  0  0  0  0  0  0  0  0  0  0
  -22.4748  -30.1345   20.6196 O   0  0  0  0  0  0  0  0  0  0  0  0
  -23.2848  -32.0650   24.1845 O   0  0  0  0  0  0  0  0  0  0  0  0
  -27.0382  -34.1735   22.1878 O   0  0  0  0  0  0  0  0  0  0  0  0
  -28.9887  -23.0305   18.8145 O   0  0  0  0  0  0  0  0  0  0  0  0
  -22.9708  -12.7913   15.7056 O   0  0  0  0  0  0  0  0  0  0  0  0
  -27.6932  -29.2781   17.5019 O   0  0  0  0  0  0  0  0  0  1  0  0
  -24.9855   -8.4904   12.9043 F   0  0  0  0  0  0  0  0  0  0  0  0
  -32.0612  -20.7155   13.4539 F   0  0  0  0  0  0  0  0  0  0  0  0
  -24.1137  -10.6482   17.0261 F   0  0  0  0  0  0  0  0  0  0  0  0
  1  2  1  0  0  0  0
  1  5  2  0  0  0  0
  2  6  2  0  0  0  0
  3  8  2  0  0  0  0
  3 18  1  0  0  0  0
  4  9  1  0  0  0  0
  4 18  2  0  0  0  0
  5 20  1  0  0  0  0
  6 22  1  0  0  0  0
  7 10  2  0  0  0  0
  7 21  1  0  0  0  0
  8 26  1  0  0  0  0
  9 26  2  0  0  0  0
 10 27  1  0  0  0  0
 11 12  2  0  0  0  0
 11 28  1  0  0  0  0
 12 29  1  0  0  0  0
 13 23  1  0  0  0  0
 13 27  2  0  0  0  0
 14 24  1  0  0  0  0
 14 25  2  0  0  0  0
 15 24  2  0  0  0  0
 15 30  1  0  0  0  0
 16 25  1  0  0  0  0
 16 30  2  0  0  0  0
 17 29  2  0  0  0  0
 17 31  1  0  0  0  0
 18 32  1  0  0  0  0
 19 32  1  0  0  0  0
 19 33  2  0  0  0  0
 19 34  1  0  0  0  0
 20 22  2  0  0  0  0
 20 41  1  0  0  0  0
 21 23  2  0  0  0  0
 21 42  1  0  0  0  0
 22 50  1  0  0  0  0
 23 43  1  0  0  0  0
 24 69  1  0  0  0  0
 25 70  1  0  0  0  0
 26 81  1  0  0  0  0
 27 82  1  0  0  0  0
 28 31  2  0  0  0  0
 28 81  1  0  0  0  0
 29 83  1  0  0  0  0
 30 84  1  0  0  0  0
 31 85  1  0  0  0  0
 32 63  2  0  0  0  0
 33 64  1  0  0  0  0
 33 67  1  0  0  0  0
 34 68  1  0  0  0  0
 34 74  2  0  0  0  0
 35 36  1  0  0  0  0
 35 58  1  0  0  0  0
 35 75  2  0  0  0  0
 36 59  1  0  0  0  0
 36 76  2  0  0  0  0
 37 51  1  0  0  0  0
 37 71  1  0  0  0  0
 37 77  2  0  0  0  0
 38 60  1  0  0  0  0
 38 65  1  0  0  0  0
 38 78  2  0  0  0  0
 39 61  1  0  0  0  0
 39 72  1  0  0  0  0
 39 79  2  0  0  0  0
 40 66  1  0  0  0  0
 40 69  1  0  0  0  0
 40 80  2  0  0  0  0
 41 44  1  0  0  0  0
 42 51  1  0  0  0  0
 43 65  1  0  0  0  0
 44 46  1  0  0  0  0
 45 47  1  0  0  0  0
 45 48  1  0  0  0  0
 46 50  1  0  0  0  0
 47 52  1  0  0  0  0
 48 66  1  0  0  0  0
 49 52  1  0  0  0  0
 49 66  1  0  0  0  0
 50 71  1  0  0  0  0
 51 65  1  0  0  0  0
 52 64  1  0  0  0  0
 53 61  1  0  0  0  0
 54 62  1  0  0  0  0
 55 62  1  0  0  0  0
 56 62  1  0  0  0  0
 57 73  1  0  0  0  0
 58 70  1  0  0  0  0
 59 82  1  0  0  0  0
 60 62  1  0  0  0  0
 60 72  1  0  0  0  0
 61 73  1  0  0  0  0
 63 64  1  0  0  0  0
M  CHG  1  73   1
M  ISO  4  40 100  59 101  69 100  82 101
M  END
> <Batch ID>
0172

> <Smiles>
CNC(C)C(=O)NC(C(=O)N1Cc2cc([101O:1][101CH2:1]C(=O)C(=O)CNc3cc(F)cc([100NH:0][100C:0](=O)N4CCCC(n5nc(-c6ccc(Oc7ccc(F)cc7F)cc6)c(C(N)=O)c5N)C4)c3)ccc2CC1C(=O)NC1CCCc2ccccc21)C(C)(C)C

> <Shape>
0.214

> <Color>
0.104

> <Negative vol penalty>
0.000

$$$$

  -OEChem-04052304263D

 86 94  0     1  0  0  0  0  0999 V2000
  -28.3754  -39.7125   23.5327 C   0  0  0  0  0  0  0  0  0  0  0  0
  -29.0287  -38.6284   22.9553 C   0  0  0  0  0  0  0  0  0  0  0  0
  -24.5802   -9.4202   21.5687 C   0  0  0  0  0  0  0  0  0  0  0  0
  -24.6593  -10.6407   23.6523 C   0  0  0  0  0  0  0  0  0  0  0  0
  -27.4726  -39.5065   24.5749 C   0  0  0  0  0  0  0  0  0  0  0  0
  -28.7803  -37.3376   23.4207 C   0  0  0  0  0  0  0  0  0  0  0  0
  -28.6629  -32.1884   20.1074 C   0  0  0  0  0  0  0  0  0  0  0  0
  -24.3080   -8.2444   22.2678 C   0  0  0  0  0  0  0  0  0  0  0  0
  -24.3871   -9.4648   24.3514 C   0  0  0  0  0  0  0  0  0  0  0  0
  -29.6101  -31.1876   19.8955 C   0  0  0  0  0  0  0  0  0  0  0  0
  -23.2351   -4.9887   23.4779 C   0  0  0  0  0  0  0  0  0  0  0  0
  -22.2250   -4.1614   22.9870 C   0  0  0  0  0  0  0  0  0  0  0  0
  -28.5998  -29.8694   21.6450 C   0  0  0  0  0  0  0  0  0  0  0  0
  -28.8381  -20.2924   20.1897 C   0  0  0  0  0  0  0  0  0  0  0  0
  -20.6279   -5.9549   23.2506 C   0  0  0  0  0  0  0  0  0  0  0  0
  -24.7559  -10.6185   22.2609 C   0  0  0  0  0  0  0  0  0  0  0  0
  -24.1041  -12.7577   21.0336 C   0  0  0  0  0  0  0  0  0  0  0  0
  -27.2057  -38.2116   25.0469 C   0  0  0  0  0  0  0  0  0  0  0  0
  -27.6820  -32.0418   21.0987 C   0  0  0  0  0  0  0  0  0  0  0  0
  -27.8740  -37.1142   24.4712 C   0  0  0  0  0  0  0  0  0  0  0  0
  -27.6397  -30.8687   21.8658 C   0  0  0  0  0  0  0  0  0  0  0  0
  -28.2544  -21.5920   20.2141 C   0  0  0  0  0  0  0  0  0  0  0  0
  -24.2114   -8.2666   23.6592 C   0  0  0  0  0  0  0  0  0  0  0  0
  -29.5804  -30.0291   20.6663 C   0  0  0  0  0  0  0  0  0  0  0  0
  -22.9415   -6.2991   23.8552 C   0  0  0  0  0  0  0  0  0  0  0  0
  -20.9214   -4.6445   22.8734 C   0  0  0  0  0  0  0  0  0  0  0  0
  -21.6380   -6.7822   23.7416 C   0  0  0  0  0  0  0  0  0  0  0  0
  -25.0377  -11.8334   21.5394 C   0  0  0  0  0  0  0  0  0  0  0  0
  -24.8708  -13.7285   20.4368 C   0  0  0  0  0  0  0  0  0  0  0  0
  -27.9510  -19.3191   20.5938 C   0  0  0  0  0  0  0  0  0  0  0  0
  -26.9432  -21.5624   20.6357 C   0  0  0  0  0  0  0  0  0  0  0  0
  -30.5288  -25.2959   20.0629 C   0  0  0  0  0  0  0  0  0  0  0  0
  -22.6718  -12.7404   21.0976 C   0  0  0  0  0  0  0  0  0  0  0  0
  -30.5857  -24.3351   19.1266 C   0  0  0  0  0  0  0  0  0  0  0  0
  -30.8614  -26.7386   19.8588 C   0  0  0  0  0  0  0  0  0  0  0  0
  -30.2349  -22.9127   19.4158 C   0  0  0  0  0  0  0  0  0  0  0  0
  -26.9226  -33.6167   23.7533 C   0  0  0  0  0  0  0  0  0  0  0  0
  -24.4048  -31.5717   23.7813 C   0  0  0  0  0  0  0  0  0  0  0  0
  -23.0966  -28.5734   22.8089 C   0  0  0  0  0  0  0  0  0  0  0  0
  -29.2509  -17.1662   20.4462 C   0  0  0  0  0  0  0  0  0  0  0  0
  -26.2572  -38.0430   26.2073 C   0  0  0  0  0  0  0  0  0  0  0  0
  -26.6511  -33.1190   21.2967 C   0  0  0  0  0  0  0  0  0  0  0  0
  -26.5948  -30.6537   22.9289 C   0  0  0  0  0  0  0  0  0  0  0  0
  -25.7687  -36.6086   26.3913 C   0  0  0  0  0  0  0  0  0  0  0  0
  -29.8163  -13.8223   19.3620 C   0  0  0  0  0  0  0  0  0  0  0  0
  -26.9372  -35.6317   26.3070 C   0  0  0  0  0  0  0  0  0  0  0  0
  -28.5467  -13.0828   19.7902 C   0  0  0  0  0  0  0  0  0  0  0  0
  -30.2270  -14.8819   20.3829 C   0  0  0  0  0  0  0  0  0  0  0  0
  -27.9032  -15.0990   21.1714 C   0  0  0  0  0  0  0  0  0  0  0  0
  -27.6125  -35.6966   24.9318 C   0  0  1  0  0  0  0  0  0  0  0  0
  -26.0121  -33.0872   22.6817 C   0  0  1  0  0  0  0  0  0  0  0  0
  -27.4136  -14.0662   20.1432 C   0  0  2  0  0  0  0  0  0  0  0  0
  -31.0160  -24.6032   17.7161 C   0  0  0  0  0  0  0  0  0  0  0  0
  -21.0298  -27.1655   23.0171 C   0  0  0  0  0  0  0  0  0  0  0  0
  -25.2024  -30.8264   26.6306 C   0  0  0  0  0  0  0  0  0  0  0  0
  -23.7456  -28.7998   26.4340 C   0  0  0  0  0  0  0  0  0  0  0  0
  -22.7407  -31.0769   26.2681 C   0  0  0  0  0  0  0  0  0  0  0  0
  -22.6408  -28.6041   19.8848 C   0  0  0  0  0  0  0  0  0  0  0  0
  -30.1020  -27.7099   20.7382 C   0  0  0  0  0  0  0  0  0  1  0  0
  -24.1473  -30.2008   24.3587 C   0  0  1  0  0  0  0  0  0  0  0  0
  -21.7591  -28.2116   22.1886 C   0  0  2  0  0  0  0  0  0  0  0  0
  -23.9800  -30.2306   25.9042 C   0  0  0  0  0  0  0  0  0  0  0  0
  -26.3010  -12.1853   21.2858 N   0  0  0  0  0  0  0  0  0  0  0  0
  -26.1665  -13.3415   20.6141 N   0  0  0  0  0  0  0  0  0  0  0  0
  -25.6125  -31.7386   23.0889 N   0  0  0  0  0  0  0  0  0  0  0  0
  -29.1051  -15.7800   20.6649 N   0  0  0  0  0  0  0  0  0  0  0  0
  -24.5563  -14.8668   19.7828 N   0  0  0  0  0  0  0  0  0  0  0  0
  -22.0450  -11.6688   21.7482 N   0  0  0  0  0  0  0  0  0  0  0  0
  -28.9243  -22.7846   19.8513 N   0  0  0  0  0  0  0  0  0  0  0  0
  -28.1072  -17.9163   20.7181 N   0  0  0  0  0  0  0  0  0  0  0  0
  -26.8272  -34.9813   23.9489 N   0  0  0  0  0  0  0  0  0  0  0  0
  -22.9937  -29.6665   23.6430 N   0  0  0  0  0  0  0  0  0  0  0  0
  -21.9552  -27.6697   20.8142 N   0  3  0  0  0  0  0  0  0  0  0  0
  -21.9682  -13.6398   20.5786 O   0  0  0  0  0  0  0  0  0  0  0  0
  -31.6814  -27.1128   19.0257 O   0  0  0  0  0  0  0  0  0  0  0  0
  -31.0674  -22.0350   19.2202 O   0  0  0  0  0  0  0  0  0  0  0  0
  -27.6562  -32.8442   24.3589 O   0  0  0  0  0  0  0  0  0  0  0  0
  -23.5620  -32.4597   23.9327 O   0  0  0  0  0  0  0  0  0  0  0  0
  -24.1286  -27.9465   22.5795 O   0  0  0  0  0  0  0  0  0  0  0  0
  -30.3036  -17.6489   20.0211 O   0  0  0  0  0  0  0  0  0  0  0  0
  -23.9456   -7.1194   24.3417 O   0  0  0  0  0  0  0  0  0  0  0  0
  -30.5042  -29.0509   20.4620 O   0  0  0  0  0  0  0  0  0  1  0  0
  -19.9519   -3.8504   22.4005 F   0  0  0  0  0  0  0  0  0  0  0  0
  -21.3501   -8.0406   24.1014 F   0  0  0  0  0  0  0  0  0  0  0  0
  -26.1631  -22.6433   20.7487 F   0  0  0  0  0  0  0  0  0  0  0  0
  -26.4213  -19.9727   21.0001 S   0  0  0  0  0  0  0  0  0  0  0  0
  1  2  1  0  0  0  0
  1  5  2  0  0  0  0
  2  6  2  0  0  0  0
  3  8  2  0  0  0  0
  3 16  1  0  0  0  0
  4  9  1  0  0  0  0
  4 16  2  0  0  0  0
  5 18  1  0  0  0  0
  6 20  1  0  0  0  0
  7 10  2  0  0  0  0
  7 19  1  0  0  0  0
  8 23  1  0  0  0  0
  9 23  2  0  0  0  0
 10 24  1  0  0  0  0
 11 12  2  0  0  0  0
 11 25  1  0  0  0  0
 12 26  1  0  0  0  0
 13 21  1  0  0  0  0
 13 24  2  0  0  0  0
 14 22  1  0  0  0  0
 14 30  2  0  0  0  0
 15 26  2  0  0  0  0
 15 27  1  0  0  0  0
 16 28  1  0  0  0  0
 17 28  1  0  0  0  0
 17 29  2  0  0  0  0
 17 33  1  0  0  0  0
 18 20  2  0  0  0  0
 18 41  1  0  0  0  0
 19 21  2  0  0  0  0
 19 42  1  0  0  0  0
 20 50  1  0  0  0  0
 21 43  1  0  0  0  0
 22 31  2  0  0  0  0
 22 69  1  0  0  0  0
 23 81  1  0  0  0  0
 24 82  1  0  0  0  0
 25 27  2  0  0  0  0
 25 81  1  0  0  0  0
 26 83  1  0  0  0  0
 27 84  1  0  0  0  0
 28 63  2  0  0  0  0
 29 64  1  0  0  0  0
 29 67  1  0  0  0  0
 30 70  1  0  0  0  0
 30 86  1  0  0  0  0
 31 85  1  0  0  0  0
 31 86  1  0  0  0  0
 32 34  2  0  0  0  0
 32 35  1  0  0  0  0
 33 68  1  0  0  0  0
 33 74  2  0  0  0  0
 34 36  1  0  0  0  0
 34 53  1  0  0  0  0
 35 59  1  0  0  0  0
 35 75  2  0  0  0  0
 36 69  1  0  0  0  0
 36 76  2  0  0  0  0
 37 51  1  0  0  0  0
 37 71  1  0  0  0  0
 37 77  2  0  0  0  0
 38 60  1  0  0  0  0
 38 65  1  0  0  0  0
 38 78  2  0  0  0  0
 39 61  1  0  0  0  0
 39 72  1  0  0  0  0
 39 79  2  0  0  0  0
 40 66  1  0  0  0  0
 40 70  1  0  0  0  0
 40 80  2  0  0  0  0
 41 44  1  0  0  0  0
 42 51  1  0  0  0  0
 43 65  1  0  0  0  0
 44 46  1  0  0  0  0
 45 47  1  0  0  0  0
 45 48  1  0  0  0  0
 46 50  1  0  0  0  0
 47 52  1  0  0  0  0
 48 66  1  0  0  0  0
 49 52  1  0  0  0  0
 49 66  1  0  0  0  0
 50 71  1  0  0  0  0
 51 65  1  0  0  0  0
 52 64  1  0  0  0  0
 54 61  1  0  0  0  0
 55 62  1  0  0  0  0
 56 62  1  0  0  0  0
 57 62  1  0  0  0  0
 58 73  1  0  0  0  0
 59 82  1  0  0  0  0
 60 62  1  0  0  0  0
 60 72  1  0  0  0  0
 61 73  1  0  0  0  0
 63 64  1  0  0  0  0
M  CHG  1  73   1
M  ISO  4  40 100  59 101  70 100  82 101
M  END
> <Batch ID>
0172

> <Smiles>
CNC(C)C(=O)NC(C(=O)N1Cc2cc([101O:1][101CH2:1]C(=O)C=C(C)C(=O)Nc3cc([100NH:0][100C:0](=O)N4CCCC(n5nc(-c6ccc(Oc7ccc(F)cc7F)cc6)c(C(N)=O)c5N)C4)sc3F)ccc2CC1C(=O)NC1CCCc2ccccc21)C(C)(C)C

> <Shape>
0.355

> <Color>
0.104

> <Negative vol penalty>
0.000

$$$$

  -OEChem-04052304263D

 89 97  0     1  0  0  0  0  0999 V2000
  -16.5935  -28.9883   23.4743 C   0  0  0  0  0  0  0  0  0  0  0  0
  -17.2542  -28.5563   22.3287 C   0  0  0  0  0  0  0  0  0  0  0  0
  -26.3873  -12.3383   19.8788 C   0  0  0  0  0  0  0  0  0  0  0  0
  -25.0400  -14.1880   20.6536 C   0  0  0  0  0  0  0  0  0  0  0  0
  -17.2049  -29.9081   24.3252 C   0  0  0  0  0  0  0  0  0  0  0  0
  -18.5263  -29.0448   22.0328 C   0  0  0  0  0  0  0  0  0  0  0  0
  -21.7189  -25.3939   20.5756 C   0  0  0  0  0  0  0  0  0  0  0  0
  -25.6648  -11.4695   20.6966 C   0  0  0  0  0  0  0  0  0  0  0  0
  -24.3175  -13.3192   21.4714 C   0  0  0  0  0  0  0  0  0  0  0  0
  -21.6004  -24.9297   19.2663 C   0  0  0  0  0  0  0  0  0  0  0  0
  -23.9390   -8.7061   22.3091 C   0  0  0  0  0  0  0  0  0  0  0  0
  -23.5250   -7.4925   21.7602 C   0  0  0  0  0  0  0  0  0  0  0  0
  -28.9062  -24.5442   16.4128 C   0  0  0  0  0  0  0  0  0  0  0  0
  -23.4672  -26.3114   18.6141 C   0  0  0  0  0  0  0  0  0  0  0  0
  -30.2283  -22.9932   17.7104 C   0  0  0  0  0  0  0  0  0  0  0  0
  -22.2571   -8.6834   20.0834 C   0  0  0  0  0  0  0  0  0  0  0  0
  -26.0749  -13.6976   19.8573 C   0  0  0  0  0  0  0  0  0  0  0  0
  -28.1825  -23.4790   15.8770 C   0  0  0  0  0  0  0  0  0  0  0  0
  -26.5340  -14.9451   17.6800 C   0  0  0  0  0  0  0  0  0  0  0  0
  -18.4891  -30.4008   24.0446 C   0  0  0  0  0  0  0  0  0  0  0  0
  -22.7071  -26.3301   20.9122 C   0  0  0  0  0  0  0  0  0  0  0  0
  -19.1549  -29.9731   22.8800 C   0  0  0  0  0  0  0  0  0  0  0  0
  -23.5977  -26.7839   19.9289 C   0  0  0  0  0  0  0  0  0  0  0  0
  -29.5046  -21.9280   17.1745 C   0  0  0  0  0  0  0  0  0  0  0  0
  -24.6299  -11.9599   21.4929 C   0  0  0  0  0  0  0  0  0  0  0  0
  -22.4728  -25.3906   18.2847 C   0  0  0  0  0  0  0  0  0  0  0  0
  -23.5121   -9.9084   21.7452 C   0  0  0  0  0  0  0  0  0  0  0  0
  -22.6841   -7.4811   20.6473 C   0  0  0  0  0  0  0  0  0  0  0  0
  -29.9292  -24.3013   17.3295 C   0  0  0  0  0  0  0  0  0  0  0  0
  -22.6712   -9.8970   20.6324 C   0  0  0  0  0  0  0  0  0  0  0  0
  -28.4816  -22.1709   16.2578 C   0  0  0  0  0  0  0  0  0  0  0  0
  -26.8212  -14.5956   19.0131 C   0  0  0  0  0  0  0  0  0  0  0  0
  -27.5335  -15.8202   17.3315 C   0  0  0  0  0  0  0  0  0  0  0  0
  -27.0999  -23.7398   14.9072 C   0  0  0  0  0  0  0  0  0  0  0  0
  -25.4596  -14.5170   16.8325 C   0  0  0  0  0  0  0  0  0  0  0  0
  -22.6905  -29.3006   22.0435 C   0  0  0  0  0  0  0  0  0  0  0  0
  -24.6561  -22.3590   13.4347 C   0  0  0  0  0  0  0  0  0  0  0  0
  -23.4871  -23.7440   15.2266 C   0  0  0  0  0  0  0  0  0  0  0  0
  -25.9007  -28.8531   22.1746 C   0  0  0  0  0  0  0  0  0  0  0  0
  -28.6432  -27.1859   21.0146 C   0  0  0  0  0  0  0  0  0  0  0  0
  -30.7956  -20.1890   18.4612 C   0  0  0  0  0  0  0  0  0  0  0  0
  -19.0899  -31.4297   24.9693 C   0  0  0  0  0  0  0  0  0  0  0  0
  -22.8387  -26.8008   22.3348 C   0  0  0  0  0  0  0  0  0  0  0  0
  -24.6887  -27.7736   20.2429 C   0  0  0  0  0  0  0  0  0  0  0  0
  -20.5935  -31.6141   24.7807 C   0  0  0  0  0  0  0  0  0  0  0  0
  -31.8373  -17.0215   19.7099 C   0  0  0  0  0  0  0  0  0  0  0  0
  -20.9348  -31.7344   23.2988 C   0  0  0  0  0  0  0  0  0  0  0  0
  -30.6015  -16.1368   19.5302 C   0  0  0  0  0  0  0  0  0  0  0  0
  -31.4607  -18.4483   20.1052 C   0  0  0  0  0  0  0  0  0  0  0  0
  -29.2507  -18.2161   19.0415 C   0  0  0  0  0  0  0  0  0  0  0  0
  -20.5459  -30.4611   22.5379 C   0  0  1  0  0  0  0  0  0  0  0  0
  -23.5543  -28.1426   22.4564 C   0  0  1  0  0  0  0  0  0  0  0  0
  -29.5767  -16.7863   18.5797 C   0  0  2  0  0  0  0  0  0  0  0  0
  -24.1379  -22.5839   12.0371 C   0  0  0  0  0  0  0  0  0  0  0  0
  -31.1352  -27.0648   21.2847 C   0  0  0  0  0  0  0  0  0  0  0  0
  -26.1988  -31.4198   20.5520 C   0  0  0  0  0  0  0  0  0  0  0  0
  -28.5573  -30.7463   20.0504 C   0  0  0  0  0  0  0  0  0  0  0  0
  -27.8550  -31.1606   22.4078 C   0  0  0  0  0  0  0  0  0  0  0  0
  -28.5261  -24.3659   21.9050 C   0  0  0  0  0  0  0  0  0  0  0  0
  -23.5546  -24.8808   16.2291 C   0  0  0  0  0  0  0  0  0  1  0  0
  -24.7019  -23.5614   14.3460 C   0  0  1  0  0  0  0  0  0  0  0  0
  -27.0510  -29.0769   21.2230 C   0  0  1  0  0  0  0  0  0  0  0  0
  -29.7937  -26.5118   21.7401 C   0  0  2  0  0  0  0  0  0  0  0  0
  -27.3938  -30.5837   21.0516 C   0  0  0  0  0  0  0  0  0  0  0  0
  -27.9175  -15.1994   19.4797 N   0  0  0  0  0  0  0  0  0  0  0  0
  -28.3280  -15.9369   18.4339 N   0  0  0  0  0  0  0  0  0  0  0  0
  -24.7727  -28.2088   21.6469 N   0  0  0  0  0  0  0  0  0  0  0  0
  -30.4901  -19.0004   19.1575 N   0  0  0  0  0  0  0  0  0  0  0  0
  -27.8017  -16.4935   16.1925 N   0  0  0  0  0  0  0  0  0  0  0  0
  -24.5197  -13.6150   17.3494 N   0  0  0  0  0  0  0  0  0  0  0  0
  -29.8111  -20.6004   17.5633 N   0  0  0  0  0  0  0  0  0  0  0  0
  -25.8520  -23.3448   15.2110 N   0  0  0  0  0  0  0  0  0  0  0  0
  -21.5204  -29.4165   22.7694 N   0  0  0  0  0  0  0  0  0  0  0  0
  -28.1565  -28.2654   21.7209 N   0  0  0  0  0  0  0  0  0  0  0  0
  -27.4125  -24.3564   13.7673 N   0  3  0  0  0  0  0  0  0  0  0  0
  -29.7790  -25.0438   21.4834 N   0  3  0  0  0  0  0  0  0  0  0  0
  -25.3460  -14.9097   15.6466 O   0  0  0  0  0  0  0  0  0  0  0  0
  -23.0591  -30.0354   21.1348 O   0  0  0  0  0  0  0  0  0  0  0  0
  -25.0354  -21.2456   13.7974 O   0  0  0  0  0  0  0  0  0  0  0  0
  -22.4959  -23.0197   15.1384 O   0  0  0  0  0  0  0  0  0  0  0  0
  -26.0020  -29.2295   23.3449 O   0  0  0  0  0  0  0  0  0  0  0  0
  -28.2211  -26.7962   19.9281 O   0  0  0  0  0  0  0  0  0  0  0  0
  -31.8643  -20.7823   18.6278 O   0  0  0  0  0  0  0  0  0  0  0  0
  -23.9246  -11.1124   22.2909 O   0  0  0  0  0  0  0  0  0  0  0  0
  -22.3590  -24.9397   17.0058 O   0  0  0  0  0  0  0  0  0  1  0  0
  -22.2878   -6.3156   20.1194 F   0  0  0  0  0  0  0  0  0  0  0  0
  -30.6239  -25.3242   17.8441 F   0  0  0  0  0  0  0  0  0  0  0  0
  -22.2586  -11.0488   20.0856 F   0  0  0  0  0  0  0  0  0  0  0  0
  -27.7849  -21.1473   15.7413 F   0  0  0  0  0  0  0  0  0  0  0  0
  1  2  1  0  0  0  0
  1  5  2  0  0  0  0
  2  6  2  0  0  0  0
  3  8  2  0  0  0  0
  3 17  1  0  0  0  0
  4  9  1  0  0  0  0
  4 17  2  0  0  0  0
  5 20  1  0  0  0  0
  6 22  1  0  0  0  0
  7 10  2  0  0  0  0
  7 21  1  0  0  0  0
  8 25  1  0  0  0  0
  9 25  2  0  0  0  0
 10 26  1  0  0  0  0
 11 12  2  0  0  0  0
 11 27  1  0  0  0  0
 12 28  1  0  0  0  0
 13 18  1  0  0  0  0
 13 29  2  0  0  0  0
 14 23  1  0  0  0  0
 14 26  2  0  0  0  0
 15 24  2  0  0  0  0
 15 29  1  0  0  0  0
 16 28  2  0  0  0  0
 16 30  1  0  0  0  0
 17 32  1  0  0  0  0
 18 31  2  0  0  0  0
 18 34  1  0  0  0  0
 19 32  1  0  0  0  0
 19 33  2  0  0  0  0
 19 35  1  0  0  0  0
 20 22  2  0  0  0  0
 20 42  1  0  0  0  0
 21 23  2  0  0  0  0
 21 43  1  0  0  0  0
 22 51  1  0  0  0  0
 23 44  1  0  0  0  0
 24 31  1  0  0  0  0
 24 71  1  0  0  0  0
 25 84  1  0  0  0  0
 26 85  1  0  0  0  0
 27 30  2  0  0  0  0
 27 84  1  0  0  0  0
 28 86  1  0  0  0  0
 29 87  1  0  0  0  0
 30 88  1  0  0  0  0
 31 89  1  0  0  0  0
 32 65  2  0  0  0  0
 33 66  1  0  0  0  0
 33 69  1  0  0  0  0
 34 72  1  0  0  0  0
 34 75  2  0  0  0  0
 35 70  1  0  0  0  0
 35 77  2  0  0  0  0
 36 52  1  0  0  0  0
 36 73  1  0  0  0  0
 36 78  2  0  0  0  0
 37 54  1  0  0  0  0
 37 61  1  0  0  0  0
 37 79  2  0  0  0  0
 38 60  1  0  0  0  0
 38 61  1  0  0  0  0
 38 80  2  0  0  0  0
 39 62  1  0  0  0  0
 39 67  1  0  0  0  0
 39 81  2  0  0  0  0
 40 63  1  0  0  0  0
 40 74  1  0  0  0  0
 40 82  2  0  0  0  0
 41 68  1  0  0  0  0
 41 71  1  0  0  0  0
 41 83  2  0  0  0  0
 42 45  1  0  0  0  0
 43 52  1  0  0  0  0
 44 67  1  0  0  0  0
 45 47  1  0  0  0  0
 46 48  1  0  0  0  0
 46 49  1  0  0  0  0
 47 51  1  0  0  0  0
 48 53  1  0  0  0  0
 49 68  1  0  0  0  0
 50 53  1  0  0  0  0
 50 68  1  0  0  0  0
 51 73  1  0  0  0  0
 52 67  1  0  0  0  0
 53 66  1  0  0  0  0
 55 63  1  0  0  0  0
 56 64  1  0  0  0  0
 57 64  1  0  0  0  0
 58 64  1  0  0  0  0
 59 76  1  0  0  0  0
 60 85  1  0  0  0  0
 61 72  1  0  0  0  0
 62 64  1  0  0  0  0
 62 74  1  0  0  0  0
 63 76  1  0  0  0  0
 65 66  1  0  0  0  0
M  CHG  2  75   1  76   1
M  ISO  4  41 100  60 101  71 100  85 101
M  END
> <Batch ID>
0172

> <Smiles>
CNC(C)C(=O)NC(C(=O)N1Cc2cc([101O:1][101CH2:1]C(=O)C(NC(=N)c3cc(F)cc([100NH:0][100C:0](=O)N4CCCC(n5nc(-c6ccc(Oc7ccc(F)cc7F)cc6)c(C(N)=O)c5N)C4)c3F)C(C)=O)ccc2CC1C(=O)NC1CCCc2ccccc21)C(C)(C)C

> <Shape>
0.251

> <Color>
0.080

> <Negative vol penalty>
0.000

$$$$

  -OEChem-04052304263D

 90 98  0     1  0  0  0  0  0999 V2000
  -26.4060  -35.5845   27.2793 C   0  0  0  0  0  0  0  0  0  0  0  0
  -27.0806  -34.5421   26.6517 C   0  0  0  0  0  0  0  0  0  0  0  0
  -23.4997   -9.5236   21.6285 C   0  0  0  0  0  0  0  0  0  0  0  0
  -24.1347  -10.6749   23.6554 C   0  0  0  0  0  0  0  0  0  0  0  0
  -25.0121  -35.6142   27.2745 C   0  0  0  0  0  0  0  0  0  0  0  0
  -26.3615  -33.5282   26.0199 C   0  0  0  0  0  0  0  0  0  0  0  0
  -27.9548  -30.5004   20.9405 C   0  0  0  0  0  0  0  0  0  0  0  0
  -22.9105   -8.5124   22.3873 C   0  0  0  0  0  0  0  0  0  0  0  0
  -23.5454   -9.6637   24.4143 C   0  0  0  0  0  0  0  0  0  0  0  0
  -28.5530  -29.2575   20.7381 C   0  0  0  0  0  0  0  0  0  0  0  0
  -20.0311   -8.0353   24.0944 C   0  0  0  0  0  0  0  0  0  0  0  0
  -18.7693   -7.5850   23.7063 C   0  0  0  0  0  0  0  0  0  0  0  0
  -28.8810  -18.6579   20.4306 C   0  0  0  0  0  0  0  0  0  0  0  0
  -26.3756  -28.2668   20.4272 C   0  0  0  0  0  0  0  0  0  0  0  0
  -19.6579   -5.3595   23.3991 C   0  0  0  0  0  0  0  0  0  0  0  0
  -24.1119  -10.6048   22.2625 C   0  0  0  0  0  0  0  0  0  0  0  0
  -29.1583  -20.0078   20.2460 C   0  0  0  0  0  0  0  0  0  0  0  0
  -24.1074  -12.8241   21.0045 C   0  0  0  0  0  0  0  0  0  0  0  0
  -24.2757  -34.6052   26.6340 C   0  0  0  0  0  0  0  0  0  0  0  0
  -26.5595  -30.6341   20.8985 C   0  0  0  0  0  0  0  0  0  0  0  0
  -24.9563  -33.5437   26.0077 C   0  0  0  0  0  0  0  0  0  0  0  0
  -25.7622  -29.5131   20.6268 C   0  0  0  0  0  0  0  0  0  0  0  0
  -22.9334   -8.5824   23.7803 C   0  0  0  0  0  0  0  0  0  0  0  0
  -27.7633  -28.1399   20.4843 C   0  0  0  0  0  0  0  0  0  0  0  0
  -21.1064   -7.1476   24.1348 C   0  0  0  0  0  0  0  0  0  0  0  0
  -18.5826   -6.2471   23.3586 C   0  0  0  0  0  0  0  0  0  0  0  0
  -20.9197   -5.8098   23.7872 C   0  0  0  0  0  0  0  0  0  0  0  0
  -30.3682  -20.3919   19.6785 C   0  0  0  0  0  0  0  0  0  0  0  0
  -24.7212  -11.6494   21.4791 C   0  0  0  0  0  0  0  0  0  0  0  0
  -29.8390  -17.7388   20.0341 C   0  0  0  0  0  0  0  0  0  0  0  0
  -31.2597  -19.3952   19.3158 C   0  0  0  0  0  0  0  0  0  0  0  0
  -25.1025  -13.4795   20.3214 C   0  0  0  0  0  0  0  0  0  0  0  0
  -28.1641  -21.0331   20.6551 C   0  0  0  0  0  0  0  0  0  0  0  0
  -22.7583  -13.2818   21.1665 C   0  0  0  0  0  0  0  0  0  0  0  0
  -24.3273  -31.5201   22.9807 C   0  0  0  0  0  0  0  0  0  0  0  0
  -28.5196  -24.6413   21.0741 C   0  0  0  0  0  0  0  0  0  0  0  0
  -22.3769  -31.2784   20.4001 C   0  0  0  0  0  0  0  0  0  0  0  0
  -21.7950  -29.9157   17.3258 C   0  0  0  0  0  0  0  0  0  0  0  0
  -30.3561  -15.2766   19.9055 C   0  0  0  0  0  0  0  0  0  0  0  0
  -22.7696  -34.6551   26.6960 C   0  0  0  0  0  0  0  0  0  0  0  0
  -25.9311  -31.9868   21.0924 C   0  0  0  0  0  0  0  0  0  0  0  0
  -24.2609  -29.6072   20.5512 C   0  0  0  0  0  0  0  0  0  0  0  0
  -22.0876  -33.7406   25.6817 C   0  0  0  0  0  0  0  0  0  0  0  0
  -29.7066  -11.9205   18.9094 C   0  0  0  0  0  0  0  0  0  0  0  0
  -22.7336  -32.3587   25.6898 C   0  0  0  0  0  0  0  0  0  0  0  0
  -28.3012  -11.6475   19.4501 C   0  0  0  0  0  0  0  0  0  0  0  0
  -30.5195  -12.7974   19.8602 C   0  0  0  0  0  0  0  0  0  0  0  0
  -28.4636  -13.7800   20.7966 C   0  0  0  0  0  0  0  0  0  0  0  0
  -24.2119  -32.4385   25.2903 C   0  0  1  0  0  0  0  0  0  0  0  0
  -24.4738  -31.9104   21.5372 C   0  0  1  0  0  0  0  0  0  0  0  0
  -27.5847  -12.9543   19.8429 C   0  0  2  0  0  0  0  0  0  0  0  0
  -20.0981  -29.8766   15.4775 C   0  0  0  0  0  0  0  0  0  0  0  0
  -20.6080  -29.4334   22.0664 C   0  0  0  0  0  0  0  0  0  0  0  0
  -19.5033  -28.6918   19.9456 C   0  0  0  0  0  0  0  0  0  0  0  0
  -19.3613  -31.0791   20.6551 C   0  0  0  0  0  0  0  0  0  0  0  0
  -23.7212  -31.0337   15.3767 C   0  0  0  0  0  0  0  0  0  0  0  0
  -27.5948  -25.7755   20.6768 C   0  0  0  0  0  0  0  0  0  1  0  0
  -27.8473  -23.3443   21.5000 C   0  0  2  0  0  0  0  0  0  0  0  0
  -21.5544  -30.1740   19.7813 C   0  0  1  0  0  0  0  0  0  0  0  0
  -21.3569  -30.5405   16.0135 C   0  0  2  0  0  0  0  0  0  0  0  0
  -20.2849  -29.8421   20.6154 C   0  0  0  0  0  0  0  0  0  0  0  0
  -27.6399  -23.3148   22.9980 C   0  0  0  0  0  0  0  0  0  0  0  0
  -26.0066  -11.5610   21.1273 N   0  0  0  0  0  0  0  0  0  0  0  0
  -31.0255  -18.0739   19.4795 N   0  0  0  0  0  0  0  0  0  0  0  0
  -26.2087  -12.6883   20.4242 N   0  0  0  0  0  0  0  0  0  0  0  0
  -23.6933  -30.9504   20.7540 N   0  0  0  0  0  0  0  0  0  0  0  0
  -29.7800  -14.0192   20.1846 N   0  0  0  0  0  0  0  0  0  0  0  0
  -25.1305  -14.6497   19.6489 N   0  0  0  0  0  0  0  0  0  0  0  0
  -21.8659  -12.4857   21.8974 N   0  0  0  0  0  0  0  0  0  0  0  0
  -29.5468  -16.3658   20.2269 N   0  0  0  0  0  0  0  0  0  0  0  0
  -28.6809  -22.2594   21.0529 N   0  0  0  0  0  0  0  0  0  0  0  0
  -24.3407  -32.5888   23.8567 N   0  0  0  0  0  0  0  0  0  0  0  0
  -21.2770  -30.5904   18.4109 N   0  0  0  0  0  0  0  0  0  0  0  0
  -22.4320  -30.4045   14.9905 N   0  3  0  0  0  0  0  0  0  0  0  0
  -26.9692  -20.7489   20.6423 O   0  0  0  0  0  0  0  0  0  0  0  0
  -22.3518  -14.3568   20.6639 O   0  0  0  0  0  0  0  0  0  0  0  0
  -24.2092  -30.3371   23.2778 O   0  0  0  0  0  0  0  0  0  0  0  0
  -29.7435  -24.7756   21.0802 O   0  0  0  0  0  0  0  0  0  0  0  0
  -21.8723  -32.3930   20.5568 O   0  0  0  0  0  0  0  0  0  0  0  0
  -22.5210  -28.9256   17.3825 O   0  0  0  0  0  0  0  0  0  0  0  0
  -31.4733  -15.3790   19.3921 O   0  0  0  0  0  0  0  0  0  0  0  0
  -22.3583   -7.5960   24.5211 O   0  0  0  0  0  0  0  0  0  0  0  0
  -28.3446  -26.9254   20.2871 O   0  0  0  0  0  0  0  0  0  1  0  0
  -17.3705   -5.8146   22.9874 F   0  0  0  0  0  0  0  0  0  0  0  0
  -21.9487   -4.9521   23.8252 F   0  0  0  0  0  0  0  0  0  0  0  0
  -30.6720  -21.6812   19.4847 F   0  0  0  0  0  0  0  0  0  0  0  0
  -32.4313  -19.7527   18.7677 F   0  0  0  0  0  0  0  0  0  0  0  0
  -27.0744  -22.1513   23.3885 F   0  0  0  0  0  0  0  0  0  0  0  0
  -26.8434  -24.3218   23.4160 F   0  0  0  0  0  0  0  0  0  0  0  0
  -28.8197  -23.4259   23.6493 F   0  0  0  0  0  0  0  0  0  0  0  0
  1  2  1  0  0  0  0
  1  5  2  0  0  0  0
  2  6  2  0  0  0  0
  3  8  2  0  0  0  0
  3 16  1  0  0  0  0
  4  9  1  0  0  0  0
  4 16  2  0  0  0  0
  5 19  1  0  0  0  0
  6 21  1  0  0  0  0
  7 10  2  0  0  0  0
  7 20  1  0  0  0  0
  8 23  1  0  0  0  0
  9 23  2  0  0  0  0
 10 24  1  0  0  0  0
 11 12  2  0  0  0  0
 11 25  1  0  0  0  0
 12 26  1  0  0  0  0
 13 17  1  0  0  0  0
 13 30  2  0  0  0  0
 14 22  1  0  0  0  0
 14 24  2  0  0  0  0
 15 26  2  0  0  0  0
 15 27  1  0  0  0  0
 16 29  1  0  0  0  0
 17 28  2  0  0  0  0
 17 33  1  0  0  0  0
 18 29  1  0  0  0  0
 18 32  2  0  0  0  0
 18 34  1  0  0  0  0
 19 21  2  0  0  0  0
 19 40  1  0  0  0  0
 20 22  2  0  0  0  0
 20 41  1  0  0  0  0
 21 49  1  0  0  0  0
 22 42  1  0  0  0  0
 23 82  1  0  0  0  0
 24 83  1  0  0  0  0
 25 27  2  0  0  0  0
 25 82  1  0  0  0  0
 26 84  1  0  0  0  0
 27 85  1  0  0  0  0
 28 31  1  0  0  0  0
 28 86  1  0  0  0  0
 29 63  2  0  0  0  0
 30 64  1  0  0  0  0
 30 70  1  0  0  0  0
 31 64  2  0  0  0  0
 31 87  1  0  0  0  0
 32 65  1  0  0  0  0
 32 68  1  0  0  0  0
 33 71  1  0  0  0  0
 33 75  2  0  0  0  0
 34 69  1  0  0  0  0
 34 76  2  0  0  0  0
 35 50  1  0  0  0  0
 35 72  1  0  0  0  0
 35 77  2  0  0  0  0
 36 57  1  0  0  0  0
 36 58  1  0  0  0  0
 36 78  2  0  0  0  0
 37 59  1  0  0  0  0
 37 66  1  0  0  0  0
 37 79  2  0  0  0  0
 38 60  1  0  0  0  0
 38 73  1  0  0  0  0
 38 80  2  0  0  0  0
 39 67  1  0  0  0  0
 39 70  1  0  0  0  0
 39 81  2  0  0  0  0
 40 43  1  0  0  0  0
 41 50  1  0  0  0  0
 42 66  1  0  0  0  0
 43 45  1  0  0  0  0
 44 46  1  0  0  0  0
 44 47  1  0  0  0  0
 45 49  1  0  0  0  0
 46 51  1  0  0  0  0
 47 67  1  0  0  0  0
 48 51  1  0  0  0  0
 48 67  1  0  0  0  0
 49 72  1  0  0  0  0
 50 66  1  0  0  0  0
 51 65  1  0  0  0  0
 52 60  1  0  0  0  0
 53 61  1  0  0  0  0
 54 61  1  0  0  0  0
 55 61  1  0  0  0  0
 56 74  1  0  0  0  0
 57 83  1  0  0  0  0
 58 62  1  0  0  0  0
 58 71  1  0  0  0  0
 59 61  1  0  0  0  0
 59 73  1  0  0  0  0
 60 74  1  0  0  0  0
 62 88  1  0  0  0  0
 62 89  1  0  0  0  0
 62 90  1  0  0  0  0
 63 65  1  0  0  0  0
M  CHG  1  74   1
M  ISO  4  39 100  57 101  70 100  83 101
M  END
> <Batch ID>
0172

> <Smiles>
CNC(C)C(=O)NC(C(=O)N1Cc2cc([101O:1][101CH2:1]C(=O)C(NC(=O)c3cc([100NH:0][100C:0](=O)N4CCCC(n5nc(-c6ccc(Oc7ccc(F)cc7F)cc6)c(C(N)=O)c5N)C4)nc(F)c3F)C(F)(F)F)ccc2CC1C(=O)NC1CCCc2ccccc21)C(C)(C)C

> <Shape>
0.302

> <Color>
0.152

> <Negative vol penalty>
0.000

$$$$

  -OEChem-04052304263D

 89 97  0     1  0  0  0  0  0999 V2000
  -29.4290  -35.8415   18.4845 C   0  0  0  0  0  0  0  0  0  0  0  0
  -29.5238  -34.5059   18.8619 C   0  0  0  0  0  0  0  0  0  0  0  0
  -23.3473  -10.2771   21.8180 C   0  0  0  0  0  0  0  0  0  0  0  0
  -22.8827  -12.6454   21.7059 C   0  0  0  0  0  0  0  0  0  0  0  0
  -28.5150  -36.6811   19.1199 C   0  0  0  0  0  0  0  0  0  0  0  0
  -28.7055  -34.0093   19.8759 C   0  0  0  0  0  0  0  0  0  0  0  0
  -26.6668  -29.5239   18.7052 C   0  0  0  0  0  0  0  0  0  0  0  0
  -22.3941  -10.1378   22.8267 C   0  0  0  0  0  0  0  0  0  0  0  0
  -21.9294  -12.5060   22.7147 C   0  0  0  0  0  0  0  0  0  0  0  0
  -27.4851  -28.4016   18.8259 C   0  0  0  0  0  0  0  0  0  0  0  0
  -19.0266   -9.9452   23.0623 C   0  0  0  0  0  0  0  0  0  0  0  0
  -18.1352   -8.8765   22.9687 C   0  0  0  0  0  0  0  0  0  0  0  0
  -30.2184  -19.7522   21.3768 C   0  0  0  0  0  0  0  0  0  0  0  0
  -28.7791  -18.0886   20.3780 C   0  0  0  0  0  0  0  0  0  0  0  0
  -26.4653  -27.8942   20.9523 C   0  0  0  0  0  0  0  0  0  0  0  0
  -31.0057  -17.4854   21.0957 C   0  0  0  0  0  0  0  0  0  0  0  0
  -18.9321   -8.0264   25.0852 C   0  0  0  0  0  0  0  0  0  0  0  0
  -23.5917  -11.5309   21.2576 C   0  0  0  0  0  0  0  0  0  0  0  0
  -28.9965  -19.3987   20.8046 C   0  0  0  0  0  0  0  0  0  0  0  0
  -24.3678  -11.5691   18.8279 C   0  0  0  0  0  0  0  0  0  0  0  0
  -27.6783  -36.1922   20.1355 C   0  0  0  0  0  0  0  0  0  0  0  0
  -25.7477  -29.8464   19.7140 C   0  0  0  0  0  0  0  0  0  0  0  0
  -27.7804  -34.8434   20.5264 C   0  0  0  0  0  0  0  0  0  0  0  0
  -25.6347  -29.0197   20.8408 C   0  0  0  0  0  0  0  0  0  0  0  0
  -31.2231  -18.7955   21.5223 C   0  0  0  0  0  0  0  0  0  0  0  0
  -29.7837  -17.1319   20.5235 C   0  0  0  0  0  0  0  0  0  0  0  0
  -21.6851  -11.2522   23.2751 C   0  0  0  0  0  0  0  0  0  0  0  0
  -27.3865  -27.5882   19.9509 C   0  0  0  0  0  0  0  0  0  0  0  0
  -19.8708  -10.0545   24.1673 C   0  0  0  0  0  0  0  0  0  0  0  0
  -18.0879   -7.9171   23.9801 C   0  0  0  0  0  0  0  0  0  0  0  0
  -19.8235   -9.0952   25.1787 C   0  0  0  0  0  0  0  0  0  0  0  0
  -24.5766  -11.6756   20.2160 C   0  0  0  0  0  0  0  0  0  0  0  0
  -25.6068  -11.7870   18.2766 C   0  0  0  0  0  0  0  0  0  0  0  0
  -27.5854  -25.2688   20.1783 C   0  0  0  0  0  0  0  0  0  1  0  0
  -27.9267  -20.4173   20.6499 C   0  0  0  0  0  0  0  0  0  0  0  0
  -23.1617  -11.2977   18.1017 C   0  0  0  0  0  0  0  0  0  0  0  0
  -28.2719  -24.1265   20.3013 C   0  0  0  0  0  0  0  0  0  0  0  0
  -27.5192  -22.8395   20.4116 C   0  0  0  0  0  0  0  0  0  0  0  0
  -25.3475  -32.3125   21.6791 C   0  0  0  0  0  0  0  0  0  0  0  0
  -22.6348  -30.7280   22.4871 C   0  0  0  0  0  0  0  0  0  0  0  0
  -33.5626  -18.3339   22.3212 C   0  0  0  0  0  0  0  0  0  0  0  0
  -20.9506  -27.7644   22.6523 C   0  0  0  0  0  0  0  0  0  0  0  0
  -30.4532  -14.7305   20.1616 C   0  0  0  0  0  0  0  0  0  0  0  0
  -26.7389  -37.1492   20.8257 C   0  0  0  0  0  0  0  0  0  0  0  0
  -24.8534  -31.0455   19.5563 C   0  0  0  0  0  0  0  0  0  0  0  0
  -24.6498  -29.3108   21.9425 C   0  0  0  0  0  0  0  0  0  0  0  0
  -25.6459  -36.4539   21.6332 C   0  0  0  0  0  0  0  0  0  0  0  0
  -30.2724  -11.2964   19.2386 C   0  0  0  0  0  0  0  0  0  0  0  0
  -26.2400  -35.3355   22.4836 C   0  0  0  0  0  0  0  0  0  0  0  0
  -28.7719  -10.9959   19.2523 C   0  0  0  0  0  0  0  0  0  0  0  0
  -30.6675  -12.2623   20.3543 C   0  0  0  0  0  0  0  0  0  0  0  0
  -28.3941  -13.2096   20.4115 C   0  0  0  0  0  0  0  0  0  0  0  0
  -26.8925  -34.2615   21.6049 C   0  0  1  0  0  0  0  0  0  0  0  0
  -24.3132  -31.5668   20.8843 C   0  0  1  0  0  0  0  0  0  0  0  0
  -27.9377  -12.2918   19.2656 C   0  0  2  0  0  0  0  0  0  0  0  0
  -34.6918  -19.0992   22.9642 C   0  0  0  0  0  0  0  0  0  0  0  0
  -18.7655  -26.7792   23.3954 C   0  0  0  0  0  0  0  0  0  0  0  0
  -23.5462  -30.9051   25.3937 C   0  0  0  0  0  0  0  0  0  0  0  0
  -21.8721  -29.1298   25.9539 C   0  0  0  0  0  0  0  0  0  0  0  0
  -21.1057  -31.3201   25.0385 C   0  0  0  0  0  0  0  0  0  0  0  0
  -20.2971  -26.8535   19.9133 C   0  0  0  0  0  0  0  0  0  0  0  0
  -22.2741  -29.6789   23.5110 C   0  0  1  0  0  0  0  0  0  0  0  0
  -19.5422  -27.3816   22.2350 C   0  0  2  0  0  0  0  0  0  0  0  0
  -22.2195  -30.2538   24.9546 C   0  0  0  0  0  0  0  0  0  0  0  0
  -25.8482  -11.9403   20.5273 N   0  0  0  0  0  0  0  0  0  0  0  0
  -26.4496  -12.0020   19.3271 N   0  0  0  0  0  0  0  0  0  0  0  0
  -23.8020  -30.4982   21.7451 N   0  0  0  0  0  0  0  0  0  0  0  0
  -29.8384  -13.4683   20.3018 N   0  0  0  0  0  0  0  0  0  0  0  0
  -26.0466  -11.8137   17.0005 N   0  0  0  0  0  0  0  0  0  0  0  0
  -21.9773  -11.0987   18.8241 N   0  0  0  0  0  0  0  0  0  0  0  0
  -32.4456  -19.1490   22.0947 N   0  0  0  0  0  0  0  0  0  0  0  0
  -29.5625  -15.8010   20.0904 N   0  0  0  0  0  0  0  0  0  0  0  0
  -28.3622  -21.7366   20.5337 N   0  0  0  0  0  0  0  0  0  0  0  0
  -25.8832  -33.4037   21.0219 N   0  0  0  0  0  0  0  0  0  0  0  0
  -21.0231  -29.0801   23.0586 N   0  0  0  0  0  0  0  0  0  0  0  0
  -19.5829  -26.3841   21.1285 N   0  3  0  0  0  0  0  0  0  0  0  0
  -26.7526  -20.0575   20.6597 O   0  0  0  0  0  0  0  0  0  0  0  0
  -23.1383  -11.2172   16.8501 O   0  0  0  0  0  0  0  0  0  0  0  0
  -26.2925  -22.7972   20.3902 O   0  0  0  0  0  0  0  0  0  0  0  0
  -25.6371  -31.9274   22.8059 O   0  0  0  0  0  0  0  0  0  0  0  0
  -21.9039  -31.7116   22.3459 O   0  0  0  0  0  0  0  0  0  0  0  0
  -33.6829  -17.1426   22.0546 O   0  0  0  0  0  0  0  0  0  0  0  0
  -21.8915  -26.9742   22.6246 O   0  0  0  0  0  0  0  0  0  0  0  0
  -31.6785  -14.8501   20.0812 O   0  0  0  0  0  0  0  0  0  0  0  0
  -29.6505  -24.0855   20.3306 O   0  0  0  0  0  0  0  0  0  0  0  0
  -20.7547  -11.1166   24.2592 O   0  0  0  0  0  0  0  0  0  0  0  0
  -28.1845  -26.4925   20.0715 O   0  0  0  0  0  0  0  0  0  1  0  0
  -17.2307   -6.8917   23.8908 F   0  0  0  0  0  0  0  0  0  0  0  0
  -20.6313   -9.1955   26.2433 F   0  0  0  0  0  0  0  0  0  0  0  0
  1  2  1  0  0  0  0
  1  5  2  0  0  0  0
  2  6  2  0  0  0  0
  3  8  2  0  0  0  0
  3 18  1  0  0  0  0
  4  9  1  0  0  0  0
  4 18  2  0  0  0  0
  5 21  1  0  0  0  0
  6 23  1  0  0  0  0
  7 10  2  0  0  0  0
  7 22  1  0  0  0  0
  8 27  1  0  0  0  0
  9 27  2  0  0  0  0
 10 28  1  0  0  0  0
 11 12  2  0  0  0  0
 11 29  1  0  0  0  0
 12 30  1  0  0  0  0
 13 19  1  0  0  0  0
 13 25  2  0  0  0  0
 14 19  2  0  0  0  0
 14 26  1  0  0  0  0
 15 24  1  0  0  0  0
 15 28  2  0  0  0  0
 16 25  1  0  0  0  0
 16 26  2  0  0  0  0
 17 30  2  0  0  0  0
 17 31  1  0  0  0  0
 18 32  1  0  0  0  0
 19 35  1  0  0  0  0
 20 32  1  0  0  0  0
 20 33  2  0  0  0  0
 20 36  1  0  0  0  0
 21 23  2  0  0  0  0
 21 44  1  0  0  0  0
 22 24  2  0  0  0  0
 22 45  1  0  0  0  0
 23 53  1  0  0  0  0
 24 46  1  0  0  0  0
 25 71  1  0  0  0  0
 26 72  1  0  0  0  0
 27 86  1  0  0  0  0
 28 87  1  0  0  0  0
 29 31  2  0  0  0  0
 29 86  1  0  0  0  0
 30 88  1  0  0  0  0
 31 89  1  0  0  0  0
 32 65  2  0  0  0  0
 33 66  1  0  0  0  0
 33 69  1  0  0  0  0
 34 37  2  0  0  0  0
 34 87  1  0  0  0  0
 35 73  1  0  0  0  0
 35 77  2  0  0  0  0
 36 70  1  0  0  0  0
 36 78  2  0  0  0  0
 37 38  1  0  0  0  0
 37 85  1  0  0  0  0
 38 73  1  0  0  0  0
 38 79  2  0  0  0  0
 39 54  1  0  0  0  0
 39 74  1  0  0  0  0
 39 80  2  0  0  0  0
 40 62  1  0  0  0  0
 40 67  1  0  0  0  0
 40 81  2  0  0  0  0
 41 56  1  0  0  0  0
 41 71  1  0  0  0  0
 41 82  2  0  0  0  0
 42 63  1  0  0  0  0
 42 75  1  0  0  0  0
 42 83  2  0  0  0  0
 43 68  1  0  0  0  0
 43 72  1  0  0  0  0
 43 84  2  0  0  0  0
 44 47  1  0  0  0  0
 45 54  1  0  0  0  0
 46 67  1  0  0  0  0
 47 49  1  0  0  0  0
 48 50  1  0  0  0  0
 48 51  1  0  0  0  0
 49 53  1  0  0  0  0
 50 55  1  0  0  0  0
 51 68  1  0  0  0  0
 52 55  1  0  0  0  0
 52 68  1  0  0  0  0
 53 74  1  0  0  0  0
 54 67  1  0  0  0  0
 55 66  1  0  0  0  0
 57 63  1  0  0  0  0
 58 64  1  0  0  0  0
 59 64  1  0  0  0  0
 60 64  1  0  0  0  0
 61 76  1  0  0  0  0
 62 64  1  0  0  0  0
 62 75  1  0  0  0  0
 63 76  1  0  0  0  0
 65 66  1  0  0  0  0
M  CHG  1  76   1
M  ISO  4  34 101  43 100  72 100  87 101
M  END
> <Batch ID>
0172

> <Smiles>
CNC(C)C(=O)NC(C(=O)N1Cc2cc([101O:1][101CH2:1]C(=O)C(=O)NC(=O)c3cc(NC(C)=O)cc([100NH:0][100C:0](=O)N4CCCC(n5nc(-c6ccc(Oc7ccc(F)cc7F)cc6)c(C(N)=O)c5N)C4)c3)ccc2CC1C(=O)NC1CCCc2ccccc21)C(C)(C)C

> <Shape>
0.276

> <Color>
0.103

> <Negative vol penalty>
0.000

$$$$

  -OEChem-04052304263D

 83 91  0     1  0  0  0  0  0999 V2000
  -17.5682  -23.2466   26.8185 C   0  0  0  0  0  0  0  0  0  0  0  0
  -18.9077  -22.9030   26.9704 C   0  0  0  0  0  0  0  0  0  0  0  0
  -22.8968   -9.9789   20.0400 C   0  0  0  0  0  0  0  0  0  0  0  0
  -23.6585  -10.0043   22.3327 C   0  0  0  0  0  0  0  0  0  0  0  0
  -17.1684  -24.0259   25.7337 C   0  0  0  0  0  0  0  0  0  0  0  0
  -19.8481  -23.3376   26.0370 C   0  0  0  0  0  0  0  0  0  0  0  0
  -25.6655  -24.9090   27.1295 C   0  0  0  0  0  0  0  0  0  0  0  0
  -22.0858   -8.8795   20.3217 C   0  0  0  0  0  0  0  0  0  0  0  0
  -22.8475   -8.9049   22.6143 C   0  0  0  0  0  0  0  0  0  0  0  0
  -26.8666  -24.2150   26.9900 C   0  0  0  0  0  0  0  0  0  0  0  0
  -22.9392   -5.5573   22.1498 C   0  0  0  0  0  0  0  0  0  0  0  0
  -23.4933   -4.5175   22.8963 C   0  0  0  0  0  0  0  0  0  0  0  0
  -27.1915  -25.2246   24.8234 C   0  0  0  0  0  0  0  0  0  0  0  0
  -21.8074   -4.8396   24.5965 C   0  0  0  0  0  0  0  0  0  0  0  0
  -23.6832  -10.5412   21.0455 C   0  0  0  0  0  0  0  0  0  0  0  0
  -24.1748  -13.0372   20.8554 C   0  0  0  0  0  0  0  0  0  0  0  0
  -18.1058  -24.4783   24.7917 C   0  0  0  0  0  0  0  0  0  0  0  0
  -25.2122  -25.7591   26.1105 C   0  0  0  0  0  0  0  0  0  0  0  0
  -19.4602  -24.1225   24.9378 C   0  0  0  0  0  0  0  0  0  0  0  0
  -25.9856  -25.9302   24.9535 C   0  0  0  0  0  0  0  0  0  0  0  0
  -22.0611   -8.3426   21.6088 C   0  0  0  0  0  0  0  0  0  0  0  0
  -27.6284  -24.3705   25.8357 C   0  0  0  0  0  0  0  0  0  0  0  0
  -21.8191   -6.2384   22.6267 C   0  0  0  0  0  0  0  0  0  0  0  0
  -22.9274   -4.1586   24.1196 C   0  0  0  0  0  0  0  0  0  0  0  0
  -21.2532   -5.8795   23.8500 C   0  0  0  0  0  0  0  0  0  0  0  0
  -24.5216  -11.6765   20.7551 C   0  0  0  0  0  0  0  0  0  0  0  0
  -32.1483  -18.3609   22.1062 C   0  0  0  0  0  0  0  0  0  0  0  0
  -25.3093  -13.7098   20.4719 C   0  0  0  0  0  0  0  0  0  0  0  0
  -31.0715  -18.8137   22.8395 C   0  0  0  0  0  0  0  0  0  0  0  0
  -30.8057  -16.6522   21.8099 C   0  0  0  0  0  0  0  0  0  0  0  0
  -28.7647  -22.4563   25.1178 C   0  0  0  0  0  0  0  0  0  1  0  0
  -22.9379  -13.6393   21.2593 C   0  0  0  0  0  0  0  0  0  0  0  0
  -29.8558  -21.7037   24.9316 C   0  0  0  0  0  0  0  0  0  0  0  0
  -29.7102  -20.3586   24.2853 C   0  0  0  0  0  0  0  0  0  0  0  0
  -22.6563  -25.8331   24.2223 C   0  0  0  0  0  0  0  0  0  0  0  0
  -23.9066  -28.6790   23.2950 C   0  0  0  0  0  0  0  0  0  0  0  0
  -26.6603  -30.6712   22.9872 C   0  0  0  0  0  0  0  0  0  0  0  0
  -30.8283  -14.4319   20.6199 C   0  0  0  0  0  0  0  0  0  0  0  0
  -17.6189  -25.2788   23.6099 C   0  0  0  0  0  0  0  0  0  0  0  0
  -23.9276  -26.5212   26.2878 C   0  0  0  0  0  0  0  0  0  0  0  0
  -25.5532  -26.8465   23.8390 C   0  0  0  0  0  0  0  0  0  0  0  0
  -18.7345  -26.0124   22.8699 C   0  0  0  0  0  0  0  0  0  0  0  0
  -29.5690  -12.0241   18.3191 C   0  0  0  0  0  0  0  0  0  0  0  0
  -19.9195  -25.0818   22.6325 C   0  0  0  0  0  0  0  0  0  0  0  0
  -28.1151  -11.8310   18.7560 C   0  0  0  0  0  0  0  0  0  0  0  0
  -30.4977  -12.2312   19.5144 C   0  0  0  0  0  0  0  0  0  0  0  0
  -28.6390  -13.1061   20.8742 C   0  0  0  0  0  0  0  0  0  0  0  0
  -20.5137  -24.5956   23.9599 C   0  0  1  0  0  0  0  0  0  0  0  0
  -23.3085  -26.9643   24.9658 C   0  0  1  0  0  0  0  0  0  0  0  0
  -27.6561  -12.9586   19.7012 C   0  0  2  0  0  0  0  0  0  0  0  0
  -33.4246  -19.0769   21.9035 C   0  0  0  0  0  0  0  0  0  0  0  0
  -27.3754  -32.9292   22.1581 C   0  0  0  0  0  0  0  0  0  0  0  0
  -23.7391  -27.6734   20.4191 C   0  0  0  0  0  0  0  0  0  0  0  0
  -25.3010  -29.5149   19.7578 C   0  0  0  0  0  0  0  0  0  0  0  0
  -23.0697  -30.0629   20.7293 C   0  0  0  0  0  0  0  0  0  0  0  0
  -27.5799  -31.4960   25.6767 C   0  0  0  0  0  0  0  0  0  0  0  0
  -24.8768  -29.1234   22.2272 C   0  0  1  0  0  0  0  0  0  0  0  0
  -26.8990  -32.1240   23.3570 C   0  0  2  0  0  0  0  0  0  0  0  0
  -24.2541  -29.0748   20.8033 C   0  0  0  0  0  0  0  0  0  0  0  0
  -25.7780  -11.4938   20.3402 N   0  0  0  0  0  0  0  0  0  0  0  0
  -31.9978  -17.1215   21.5155 N   0  0  0  0  0  0  0  0  0  0  0  0
  -26.2306  -12.7486   20.1764 N   0  0  0  0  0  0  0  0  0  0  0  0
  -24.2867  -27.5649   24.0567 N   0  0  0  0  0  0  0  0  0  0  0  0
  -30.0022  -13.3174   20.3625 N   0  0  0  0  0  0  0  0  0  0  0  0
  -25.5986  -15.0238   20.3620 N   0  0  0  0  0  0  0  0  0  0  0  0
  -21.8740  -12.8018   21.6213 N   0  0  0  0  0  0  0  0  0  0  0  0
  -30.8477  -20.0035   23.5734 N   0  0  0  0  0  0  0  0  0  0  0  0
  -30.2383  -15.4163   21.4121 N   0  0  0  0  0  0  0  0  0  0  0  0
  -21.3310  -25.6301   24.5568 N   0  0  0  0  0  0  0  0  0  0  0  0
  -25.3485  -30.4443   22.6284 N   0  0  0  0  0  0  0  0  0  0  0  0
  -27.9293  -32.2231   24.4292 N   0  3  0  0  0  0  0  0  0  0  0  0
  -22.7755  -14.8829   21.2823 O   0  0  0  0  0  0  0  0  0  0  0  0
  -28.6798  -19.7062   24.4137 O   0  0  0  0  0  0  0  0  0  0  0  0
  -23.3068  -25.1929   23.4047 O   0  0  0  0  0  0  0  0  0  0  0  0
  -22.8535  -29.3019   23.4524 O   0  0  0  0  0  0  0  0  0  0  0  0
  -27.5497  -29.8232   23.0105 O   0  0  0  0  0  0  0  0  0  0  0  0
  -31.9649  -14.5200   20.1483 O   0  0  0  0  0  0  0  0  0  0  0  0
  -31.1166  -22.1177   25.3109 O   0  0  0  0  0  0  0  0  0  0  0  0
  -21.2697   -7.2700   21.8840 O   0  0  0  0  0  0  0  0  0  0  0  0
  -28.8008  -23.6937   25.6967 O   0  0  0  0  0  0  0  0  0  1  0  0
  -23.4587   -3.1590   24.8356 F   0  0  0  0  0  0  0  0  0  0  0  0
  -20.1765   -6.5293   24.3128 F   0  0  0  0  0  0  0  0  0  0  0  0
  -29.8132  -17.6493   22.7927 S   0  0  0  0  0  0  0  0  0  0  0  0
  1  2  1  0  0  0  0
  1  5  2  0  0  0  0
  2  6  2  0  0  0  0
  3  8  2  0  0  0  0
  3 15  1  0  0  0  0
  4  9  1  0  0  0  0
  4 15  2  0  0  0  0
  5 17  1  0  0  0  0
  6 19  1  0  0  0  0
  7 10  2  0  0  0  0
  7 18  1  0  0  0  0
  8 21  1  0  0  0  0
  9 21  2  0  0  0  0
 10 22  1  0  0  0  0
 11 12  2  0  0  0  0
 11 23  1  0  0  0  0
 12 24  1  0  0  0  0
 13 20  1  0  0  0  0
 13 22  2  0  0  0  0
 14 24  2  0  0  0  0
 14 25  1  0  0  0  0
 15 26  1  0  0  0  0
 16 26  1  0  0  0  0
 16 28  2  0  0  0  0
 16 32  1  0  0  0  0
 17 19  2  0  0  0  0
 17 39  1  0  0  0  0
 18 20  2  0  0  0  0
 18 40  1  0  0  0  0
 19 48  1  0  0  0  0
 20 41  1  0  0  0  0
 21 79  1  0  0  0  0
 22 80  1  0  0  0  0
 23 25  2  0  0  0  0
 23 79  1  0  0  0  0
 24 81  1  0  0  0  0
 25 82  1  0  0  0  0
 26 60  2  0  0  0  0
 27 29  2  0  0  0  0
 27 51  1  0  0  0  0
 27 61  1  0  0  0  0
 28 62  1  0  0  0  0
 28 65  1  0  0  0  0
 29 67  1  0  0  0  0
 29 83  1  0  0  0  0
 30 61  2  0  0  0  0
 30 68  1  0  0  0  0
 30 83  1  0  0  0  0
 31 33  2  0  0  0  0
 31 80  1  0  0  0  0
 32 66  1  0  0  0  0
 32 72  2  0  0  0  0
 33 34  1  0  0  0  0
 33 78  1  0  0  0  0
 34 67  1  0  0  0  0
 34 73  2  0  0  0  0
 35 49  1  0  0  0  0
 35 69  1  0  0  0  0
 35 74  2  0  0  0  0
 36 57  1  0  0  0  0
 36 63  1  0  0  0  0
 36 75  2  0  0  0  0
 37 58  1  0  0  0  0
 37 70  1  0  0  0  0
 37 76  2  0  0  0  0
 38 64  1  0  0  0  0
 38 68  1  0  0  0  0
 38 77  2  0  0  0  0
 39 42  1  0  0  0  0
 40 49  1  0  0  0  0
 41 63  1  0  0  0  0
 42 44  1  0  0  0  0
 43 45  1  0  0  0  0
 43 46  1  0  0  0  0
 44 48  1  0  0  0  0
 45 50  1  0  0  0  0
 46 64  1  0  0  0  0
 47 50  1  0  0  0  0
 47 64  1  0  0  0  0
 48 69  1  0  0  0  0
 49 63  1  0  0  0  0
 50 62  1  0  0  0  0
 52 58  1  0  0  0  0
 53 59  1  0  0  0  0
 54 59  1  0  0  0  0
 55 59  1  0  0  0  0
 56 71  1  0  0  0  0
 57 59  1  0  0  0  0
 57 70  1  0  0  0  0
 58 71  1  0  0  0  0
 60 62  1  0  0  0  0
M  CHG  1  71   1
M  ISO  4  31 101  38 100  68 100  80 101
M  END
> <Batch ID>
0172

> <Smiles>
CNC(C)C(=O)NC(C(=O)N1Cc2cc([101O:1][101CH2:1]C(=O)C(=O)Nc3sc([100NH:0][100C:0](=O)N4CCCC(n5nc(-c6ccc(Oc7ccc(F)cc7F)cc6)c(C(N)=O)c5N)C4)nc3C)ccc2CC1C(=O)NC1CCCc2ccccc21)C(C)(C)C

> <Shape>
0.273

> <Color>
0.198

> <Negative vol penalty>
0.000

$$$$

  -OEChem-04052304263D

 86 94  0     1  0  0  0  0  0999 V2000
  -19.2994  -34.2330   24.3982 C   0  0  0  0  0  0  0  0  0  0  0  0
  -20.6704  -34.0365   24.5293 C   0  0  0  0  0  0  0  0  0  0  0  0
  -25.5190  -13.7307   21.7022 C   0  0  0  0  0  0  0  0  0  0  0  0
  -24.5791  -14.6185   19.6613 C   0  0  0  0  0  0  0  0  0  0  0  0
  -18.4707  -33.1605   24.0716 C   0  0  0  0  0  0  0  0  0  0  0  0
  -21.2134  -32.7670   24.3349 C   0  0  0  0  0  0  0  0  0  0  0  0
  -26.6667  -31.4302   21.8894 C   0  0  0  0  0  0  0  0  0  0  0  0
  -24.5990  -12.6828   21.6701 C   0  0  0  0  0  0  0  0  0  0  0  0
  -23.6590  -13.5706   19.6292 C   0  0  0  0  0  0  0  0  0  0  0  0
  -27.8989  -31.1152   22.4604 C   0  0  0  0  0  0  0  0  0  0  0  0
  -24.2237   -9.7468   20.0355 C   0  0  0  0  0  0  0  0  0  0  0  0
  -24.6979   -8.4599   20.2892 C   0  0  0  0  0  0  0  0  0  0  0  0
  -29.3524  -24.5166   19.5103 C   0  0  0  0  0  0  0  0  0  0  0  0
  -27.4111  -28.7668   22.2028 C   0  0  0  0  0  0  0  0  0  0  0  0
  -29.9024  -22.7727   17.9312 C   0  0  0  0  0  0  0  0  0  0  0  0
  -23.2080   -8.2844   22.1831 C   0  0  0  0  0  0  0  0  0  0  0  0
  -25.5090  -14.6986   20.6979 C   0  0  0  0  0  0  0  0  0  0  0  0
  -30.1797  -25.4025   18.8202 C   0  0  0  0  0  0  0  0  0  0  0  0
  -27.7411  -15.8058   20.1505 C   0  0  0  0  0  0  0  0  0  0  0  0
  -19.0050  -31.8791   23.8636 C   0  0  0  0  0  0  0  0  0  0  0  0
  -25.7913  -30.4140   21.4800 C   0  0  0  0  0  0  0  0  0  0  0  0
  -20.3909  -31.6759   24.0065 C   0  0  0  0  0  0  0  0  0  0  0  0
  -26.1695  -29.0716   21.6245 C   0  0  0  0  0  0  0  0  0  0  0  0
  -29.2138  -23.2017   19.0658 C   0  0  0  0  0  0  0  0  0  0  0  0
  -23.6690  -12.6027   20.6336 C   0  0  0  0  0  0  0  0  0  0  0  0
  -28.2701  -29.7833   22.6199 C   0  0  0  0  0  0  0  0  0  0  0  0
  -23.2416  -10.3026   20.8555 C   0  0  0  0  0  0  0  0  0  0  0  0
  -24.1901   -7.7286   21.3630 C   0  0  0  0  0  0  0  0  0  0  0  0
  -30.7297  -23.6587   17.2410 C   0  0  0  0  0  0  0  0  0  0  0  0
  -22.7338   -9.5714   21.9293 C   0  0  0  0  0  0  0  0  0  0  0  0
  -30.8684  -24.9736   17.6855 C   0  0  0  0  0  0  0  0  0  0  0  0
  -26.4587  -15.7817   20.7308 C   0  0  0  0  0  0  0  0  0  0  0  0
  -28.2358  -17.0486   20.4623 C   0  0  0  0  0  0  0  0  0  0  0  0
  -30.3249  -26.7945   19.2930 C   0  0  0  0  0  0  0  0  0  0  0  0
  -28.4240  -14.7951   19.3969 C   0  0  0  0  0  0  0  0  0  0  0  0
  -22.8578  -29.5122   22.3077 C   0  0  0  0  0  0  0  0  0  0  0  0
  -23.2071  -27.4606   19.8196 C   0  0  0  0  0  0  0  0  0  0  0  0
  -25.3120  -25.7272   17.7673 C   0  0  0  0  0  0  0  0  0  0  0  0
  -30.3092  -28.3173   21.2569 C   0  0  0  0  0  0  0  0  0  0  0  0
  -27.6203  -22.5643   20.9100 C   0  0  0  0  0  0  0  0  0  0  0  0
  -18.0637  -30.7409   23.5585 C   0  0  0  0  0  0  0  0  0  0  0  0
  -24.4770  -30.7707   20.8413 C   0  0  0  0  0  0  0  0  0  0  0  0
  -25.2744  -27.9436   21.1828 C   0  0  0  0  0  0  0  0  0  0  0  0
  -18.7638  -29.5042   23.0011 C   0  0  0  0  0  0  0  0  0  0  0  0
  -26.5014  -20.5804   23.6467 C   0  0  0  0  0  0  0  0  0  0  0  0
  -20.0020  -29.1734   23.8282 C   0  0  0  0  0  0  0  0  0  0  0  0
  -26.4961  -19.1571   23.0843 C   0  0  0  0  0  0  0  0  0  0  0  0
  -26.0704  -21.6056   22.5993 C   0  0  0  0  0  0  0  0  0  0  0  0
  -26.8087  -20.1276   20.7718 C   0  0  0  0  0  0  0  0  0  0  0  0
  -21.0205  -30.3187   23.7790 C   0  0  1  0  0  0  0  0  0  0  0  0
  -23.4453  -29.6505   20.9317 C   0  0  1  0  0  0  0  0  0  0  0  0
  -27.2982  -19.0669   21.7713 C   0  0  2  0  0  0  0  0  0  0  0  0
  -25.3032  -24.1044   15.8532 C   0  0  0  0  0  0  0  0  0  0  0  0
  -31.4129  -28.1149   23.4858 C   0  0  0  0  0  0  0  0  0  0  0  0
  -22.4701  -25.2054   21.7381 C   0  0  0  0  0  0  0  0  0  0  0  0
  -23.3878  -23.5799   20.0696 C   0  0  0  0  0  0  0  0  0  0  0  0
  -21.4422  -25.0196   19.4658 C   0  0  0  0  0  0  0  0  0  0  0  0
  -26.7424  -27.6233   16.0016 C   0  0  0  0  0  0  0  0  0  0  0  0
  -23.7397  -26.0573   19.6576 C   0  0  1  0  0  0  0  0  0  0  0  0
  -25.3438  -25.5698   16.2578 C   0  0  2  0  0  0  0  0  0  0  0  0
  -30.0912  -28.2595   22.7528 C   0  0  1  0  0  0  0  0  0  1  0  0
  -22.7762  -24.9866   20.2430 C   0  0  0  0  0  0  0  0  0  0  0  0
  -26.1577  -16.9188   21.3635 N   0  0  0  0  0  0  0  0  0  0  0  0
  -27.2579  -17.6690   21.1827 N   0  0  0  0  0  0  0  0  0  0  0  0
  -23.9970  -28.3433   20.5697 N   0  0  0  0  0  0  0  0  0  0  0  0
  -26.8766  -21.4634   21.3849 N   0  0  0  0  0  0  0  0  0  0  0  0
  -29.4075  -17.6602   20.1879 N   0  0  0  0  0  0  0  0  0  0  0  0
  -27.7709  -13.5763   19.1684 N   0  0  0  0  0  0  0  0  0  0  0  0
  -28.3739  -22.3010   19.7666 N   0  0  0  0  0  0  0  0  0  0  0  0
  -30.2009  -27.0315   20.6061 N   0  0  0  0  0  0  0  0  0  0  0  0
  -21.7429  -30.2991   22.5252 N   0  0  0  0  0  0  0  0  0  0  0  0
  -24.0259  -25.8907   18.2368 N   0  0  0  0  0  0  0  0  0  0  0  0
  -30.5705  -27.7364   18.3826 N   0  3  0  0  0  0  0  0  0  0  0  0
  -26.5849  -26.1773   15.6997 N   0  3  0  0  0  0  0  0  0  0  0  0
  -29.5856  -14.9617   18.9537 O   0  0  0  0  0  0  0  0  0  0  0  0
  -23.3766  -28.7471   23.1121 O   0  0  0  0  0  0  0  0  0  0  0  0
  -22.1334  -27.7644   19.2937 O   0  0  0  0  0  0  0  0  0  0  0  0
  -26.3263  -25.7034   18.4610 O   0  0  0  0  0  0  0  0  0  0  0  0
  -30.5342  -29.3387   20.6225 O   0  0  0  0  0  0  0  0  0  0  0  0
  -27.6122  -23.6523   21.4915 O   0  0  0  0  0  0  0  0  0  0  0  0
  -22.7713  -11.5801   20.6018 O   0  0  0  0  0  0  0  0  0  0  0  0
  -29.4720  -29.4730   23.1776 O   0  0  0  0  0  0  0  0  0  1  0  0
  -24.6444   -6.4922   21.6057 F   0  0  0  0  0  0  0  0  0  0  0  0
  -31.3912  -23.2471   16.1516 F   0  0  0  0  0  0  0  0  0  0  0  0
  -21.7895  -10.0995   22.7199 F   0  0  0  0  0  0  0  0  0  0  0  0
  -31.6660  -25.8173   17.0158 F   0  0  0  0  0  0  0  0  0  0  0  0
  1  2  1  0  0  0  0
  1  5  2  0  0  0  0
  2  6  2  0  0  0  0
  3  8  2  0  0  0  0
  3 17  1  0  0  0  0
  4  9  1  0  0  0  0
  4 17  2  0  0  0  0
  5 20  1  0  0  0  0
  6 22  1  0  0  0  0
  7 10  2  0  0  0  0
  7 21  1  0  0  0  0
  8 25  1  0  0  0  0
  9 25  2  0  0  0  0
 10 26  1  0  0  0  0
 11 12  2  0  0  0  0
 11 27  1  0  0  0  0
 12 28  1  0  0  0  0
 13 18  1  0  0  0  0
 13 24  2  0  0  0  0
 14 23  1  0  0  0  0
 14 26  2  0  0  0  0
 15 24  1  0  0  0  0
 15 29  2  0  0  0  0
 16 28  2  0  0  0  0
 16 30  1  0  0  0  0
 17 32  1  0  0  0  0
 18 31  2  0  0  0  0
 18 34  1  0  0  0  0
 19 32  1  0  0  0  0
 19 33  2  0  0  0  0
 19 35  1  0  0  0  0
 20 22  2  0  0  0  0
 20 41  1  0  0  0  0
 21 23  2  0  0  0  0
 21 42  1  0  0  0  0
 22 50  1  0  0  0  0
 23 43  1  0  0  0  0
 24 69  1  0  0  0  0
 25 81  1  0  0  0  0
 26 82  1  0  0  0  0
 27 30  2  0  0  0  0
 27 81  1  0  0  0  0
 28 83  1  0  0  0  0
 29 31  1  0  0  0  0
 29 84  1  0  0  0  0
 30 85  1  0  0  0  0
 31 86  1  0  0  0  0
 32 63  2  0  0  0  0
 33 64  1  0  0  0  0
 33 67  1  0  0  0  0
 34 70  1  0  0  0  0
 34 73  2  0  0  0  0
 35 68  1  0  0  0  0
 35 75  2  0  0  0  0
 36 51  1  0  0  0  0
 36 71  1  0  0  0  0
 36 76  2  0  0  0  0
 37 59  1  0  0  0  0
 37 65  1  0  0  0  0
 37 77  2  0  0  0  0
 38 60  1  0  0  0  0
 38 72  1  0  0  0  0
 38 78  2  0  0  0  0
 39 61  1  0  0  0  0
 39 70  1  0  0  0  0
 39 79  2  0  0  0  0
 40 66  1  0  0  0  0
 40 69  1  0  0  0  0
 40 80  2  0  0  0  0
 41 44  1  0  0  0  0
 42 51  1  0  0  0  0
 43 65  1  0  0  0  0
 44 46  1  0  0  0  0
 45 47  1  0  0  0  0
 45 48  1  0  0  0  0
 46 50  1  0  0  0  0
 47 52  1  0  0  0  0
 48 66  1  0  0  0  0
 49 52  1  0  0  0  0
 49 66  1  0  0  0  0
 50 71  1  0  0  0  0
 51 65  1  0  0  0  0
 52 64  1  0  0  0  0
 53 60  1  0  0  0  0
 54 61  1  0  0  0  0
 55 62  1  0  0  0  0
 56 62  1  0  0  0  0
 57 62  1  0  0  0  0
 58 74  1  0  0  0  0
 59 62  1  0  0  0  0
 59 72  1  0  0  0  0
 60 74  1  0  0  0  0
 61 82  1  0  0  0  0
 63 64  1  0  0  0  0
M  CHG  2  73   1  74   1
M  ISO  4  40 100  61 101  69 100  82 101
M  END
> <Batch ID>
0172

> <Smiles>
CNC(C)C(=O)NC(C(=O)N1Cc2cc([101O:1][101CH:1](C)C(=O)NC(=N)c3cc([100NH:0][100C:0](=O)N4CCCC(n5nc(-c6ccc(Oc7ccc(F)cc7F)cc6)c(C(N)=O)c5N)C4)cc(F)c3F)ccc2CC1C(=O)NC1CCCc2ccccc21)C(C)(C)C

> <Shape>
0.268

> <Color>
0.060

> <Negative vol penalty>
0.000

$$$$

  -OEChem-04052304263D

 89 97  0     1  0  0  0  0  0999 V2000
  -17.6361  -32.9120   21.8564 C   0  0  0  0  0  0  0  0  0  0  0  0
  -18.9638  -33.0067   22.2608 C   0  0  0  0  0  0  0  0  0  0  0  0
  -22.5026  -14.0238   21.1452 C   0  0  0  0  0  0  0  0  0  0  0  0
  -24.3147  -12.9665   22.3433 C   0  0  0  0  0  0  0  0  0  0  0  0
  -16.9431  -31.7131   22.0182 C   0  0  0  0  0  0  0  0  0  0  0  0
  -19.5990  -31.9026   22.8283 C   0  0  0  0  0  0  0  0  0  0  0  0
  -25.5547  -29.1275   19.8752 C   0  0  0  0  0  0  0  0  0  0  0  0
  -21.7082  -12.8960   21.3513 C   0  0  0  0  0  0  0  0  0  0  0  0
  -23.5203  -11.8386   22.5494 C   0  0  0  0  0  0  0  0  0  0  0  0
  -26.8148  -28.6693   19.4902 C   0  0  0  0  0  0  0  0  0  0  0  0
  -22.5199   -9.1384   20.7778 C   0  0  0  0  0  0  0  0  0  0  0  0
  -23.0990   -7.8887   20.5576 C   0  0  0  0  0  0  0  0  0  0  0  0
  -31.5582  -20.5568   19.6386 C   0  0  0  0  0  0  0  0  0  0  0  0
  -26.7307  -26.9656   21.2044 C   0  0  0  0  0  0  0  0  0  0  0  0
  -31.2279  -19.9346   21.9496 C   0  0  0  0  0  0  0  0  0  0  0  0
  -22.6734   -7.2861   22.8582 C   0  0  0  0  0  0  0  0  0  0  0  0
  -23.8059  -14.0590   21.6411 C   0  0  0  0  0  0  0  0  0  0  0  0
  -32.0906  -21.7805   20.0441 C   0  0  0  0  0  0  0  0  0  0  0  0
  -24.7345  -16.3524   22.2624 C   0  0  0  0  0  0  0  0  0  0  0  0
  -17.5730  -30.5909   22.5791 C   0  0  0  0  0  0  0  0  0  0  0  0
  -24.8703  -28.4959   20.9174 C   0  0  0  0  0  0  0  0  0  0  0  0
  -18.9134  -30.6879   22.9990 C   0  0  0  0  0  0  0  0  0  0  0  0
  -25.4628  -27.4122   21.5862 C   0  0  0  0  0  0  0  0  0  0  0  0
  -31.1268  -19.6338   20.5913 C   0  0  0  0  0  0  0  0  0  0  0  0
  -22.2170  -11.8034   22.0534 C   0  0  0  0  0  0  0  0  0  0  0  0
  -27.4015  -27.5912   20.1534 C   0  0  0  0  0  0  0  0  0  0  0  0
  -22.0175   -9.4620   22.0382 C   0  0  0  0  0  0  0  0  0  0  0  0
  -23.1758   -6.9626   21.5978 C   0  0  0  0  0  0  0  0  0  0  0  0
  -31.7604  -21.1584   22.3551 C   0  0  0  0  0  0  0  0  0  0  0  0
  -22.0942   -8.5358   23.0784 C   0  0  0  0  0  0  0  0  0  0  0  0
  -32.1917  -22.0814   21.4023 C   0  0  0  0  0  0  0  0  0  0  0  0
  -24.6272  -15.2236   21.4281 C   0  0  0  0  0  0  0  0  0  0  0  0
  -25.6349  -17.1683   21.6221 C   0  0  0  0  0  0  0  0  0  0  0  0
  -24.0788  -16.6379   23.5051 C   0  0  0  0  0  0  0  0  0  0  0  0
  -32.5458  -22.7529   19.0359 C   0  0  0  0  0  0  0  0  0  0  0  0
  -21.7715  -28.3463   23.0272 C   0  0  0  0  0  0  0  0  0  0  0  0
  -29.3200  -22.9010   18.1474 C   0  0  0  0  0  0  0  0  0  0  0  0
  -29.8719  -25.2556   18.9043 C   0  0  0  0  0  0  0  0  0  0  0  0
  -22.5662  -25.4496   22.4043 C   0  0  0  0  0  0  0  0  0  0  0  0
  -23.5364  -22.4316   21.1443 C   0  0  0  0  0  0  0  0  0  0  0  0
  -30.4163  -17.9338   18.8733 C   0  0  0  0  0  0  0  0  0  0  0  0
  -16.7689  -29.3305   22.7773 C   0  0  0  0  0  0  0  0  0  0  0  0
  -23.5375  -28.9946   21.4062 C   0  0  0  0  0  0  0  0  0  0  0  0
  -24.7046  -26.7856   22.7243 C   0  0  0  0  0  0  0  0  0  0  0  0
  -17.6268  -28.0961   23.0432 C   0  0  0  0  0  0  0  0  0  0  0  0
  -27.5970  -16.8925   16.9642 C   0  0  0  0  0  0  0  0  0  0  0  0
  -18.6963  -28.4040   24.0863 C   0  0  0  0  0  0  0  0  0  0  0  0
  -26.5819  -16.4584   18.0240 C   0  0  0  0  0  0  0  0  0  0  0  0
  -29.0259  -16.5307   17.3657 C   0  0  0  0  0  0  0  0  0  0  0  0
  -28.4212  -16.5698   19.7535 C   0  0  0  0  0  0  0  0  0  0  0  0
  -19.6444  -29.5050   23.5960 C   0  0  1  0  0  0  0  0  0  0  0  0
  -22.6059  -27.8636   21.8773 C   0  0  1  0  0  0  0  0  0  0  0  0
  -26.9742  -16.9710   19.4236 C   0  0  2  0  0  0  0  0  0  0  0  0
  -28.1030  -22.2900   18.7948 C   0  0  0  0  0  0  0  0  0  0  0  0
  -23.4373  -19.9725   20.6542 C   0  0  0  0  0  0  0  0  0  0  0  0
  -23.8099  -25.2166   25.1797 C   0  0  0  0  0  0  0  0  0  0  0  0
  -24.0653  -22.7582   24.7812 C   0  0  0  0  0  0  0  0  0  0  0  0
  -21.7920  -23.7845   24.8168 C   0  0  0  0  0  0  0  0  0  0  0  0
  -21.9208  -22.8653   18.7029 C   0  0  0  0  0  0  0  0  0  0  0  0
  -28.9051  -25.7586   19.9580 C   0  0  0  0  0  0  0  0  0  1  0  0
  -30.2386  -23.7841   18.9766 C   0  0  2  0  0  0  0  0  0  0  0  0
  -23.3182  -24.2207   22.8490 C   0  0  1  0  0  0  0  0  0  0  0  0
  -22.7487  -21.3171   20.4795 C   0  0  2  0  0  0  0  0  0  0  0  0
  -23.2579  -24.0139   24.3888 C   0  0  0  0  0  0  0  0  0  0  0  0
  -25.3978  -15.3110   20.3406 N   0  0  0  0  0  0  0  0  0  0  0  0
  -25.9979  -16.5046   20.4872 N   0  0  0  0  0  0  0  0  0  0  0  0
  -23.2835  -26.6515   22.3678 N   0  0  0  0  0  0  0  0  0  0  0  0
  -29.3280  -17.0526   18.7003 N   0  0  0  0  0  0  0  0  0  0  0  0
  -26.1437  -18.3815   21.9247 N   0  0  0  0  0  0  0  0  0  0  0  0
  -23.1839  -15.6908   24.0214 N   0  0  0  0  0  0  0  0  0  0  0  0
  -30.5865  -18.3901   20.1800 N   0  0  0  0  0  0  0  0  0  0  0  0
  -31.6127  -23.6730   18.5736 N   0  0  0  0  0  0  0  0  0  0  0  0
  -20.5965  -28.9670   22.6482 N   0  0  0  0  0  0  0  0  0  0  0  0
  -22.7771  -23.1087   22.0750 N   0  0  0  0  0  0  0  0  0  0  0  0
  -22.6033  -21.5846   19.0206 N   0  3  0  0  0  0  0  0  0  0  0  0
  -24.2682  -17.7085   24.1307 O   0  0  0  0  0  0  0  0  0  0  0  0
  -22.1632  -28.1681   24.1746 O   0  0  0  0  0  0  0  0  0  0  0  0
  -29.5421  -22.7197   16.9475 O   0  0  0  0  0  0  0  0  0  0  0  0
  -30.3087  -25.9919   18.0194 O   0  0  0  0  0  0  0  0  0  0  0  0
  -21.3735  -25.3506   22.1025 O   0  0  0  0  0  0  0  0  0  0  0  0
  -24.7091  -22.6746   20.8684 O   0  0  0  0  0  0  0  0  0  0  0  0
  -31.1270  -18.2810   17.9266 O   0  0  0  0  0  0  0  0  0  0  0  0
  -21.4421  -10.7027   22.2550 O   0  0  0  0  0  0  0  0  0  0  0  0
  -28.6300  -27.1461   19.7695 O   0  0  0  0  0  0  0  0  0  1  0  0
  -23.7306   -5.7620   21.3858 F   0  0  0  0  0  0  0  0  0  0  0  0
  -31.8576  -21.4474   23.6594 F   0  0  0  0  0  0  0  0  0  0  0  0
  -21.6122   -8.8405   24.2911 F   0  0  0  0  0  0  0  0  0  0  0  0
  -32.7015  -23.2544   21.8033 F   0  0  0  0  0  0  0  0  0  0  0  0
  -34.1240  -22.7491   18.4627 S   0  0  0  0  0  0  0  0  0  0  0  0
  1  2  1  0  0  0  0
  1  5  2  0  0  0  0
  2  6  2  0  0  0  0
  3  8  2  0  0  0  0
  3 17  1  0  0  0  0
  4  9  1  0  0  0  0
  4 17  2  0  0  0  0
  5 20  1  0  0  0  0
  6 22  1  0  0  0  0
  7 10  2  0  0  0  0
  7 21  1  0  0  0  0
  8 25  1  0  0  0  0
  9 25  2  0  0  0  0
 10 26  1  0  0  0  0
 11 12  2  0  0  0  0
 11 27  1  0  0  0  0
 12 28  1  0  0  0  0
 13 18  1  0  0  0  0
 13 24  2  0  0  0  0
 14 23  1  0  0  0  0
 14 26  2  0  0  0  0
 15 24  1  0  0  0  0
 15 29  2  0  0  0  0
 16 28  2  0  0  0  0
 16 30  1  0  0  0  0
 17 32  1  0  0  0  0
 18 31  2  0  0  0  0
 18 35  1  0  0  0  0
 19 32  1  0  0  0  0
 19 33  2  0  0  0  0
 19 34  1  0  0  0  0
 20 22  2  0  0  0  0
 20 42  1  0  0  0  0
 21 23  2  0  0  0  0
 21 43  1  0  0  0  0
 22 51  1  0  0  0  0
 23 44  1  0  0  0  0
 24 71  1  0  0  0  0
 25 83  1  0  0  0  0
 26 84  1  0  0  0  0
 27 30  2  0  0  0  0
 27 83  1  0  0  0  0
 28 85  1  0  0  0  0
 29 31  1  0  0  0  0
 29 86  1  0  0  0  0
 30 87  1  0  0  0  0
 31 88  1  0  0  0  0
 32 65  2  0  0  0  0
 33 66  1  0  0  0  0
 33 69  1  0  0  0  0
 34 70  1  0  0  0  0
 34 76  2  0  0  0  0
 35 72  1  0  0  0  0
 35 89  2  0  0  0  0
 36 52  1  0  0  0  0
 36 73  1  0  0  0  0
 36 77  2  0  0  0  0
 37 54  1  0  0  0  0
 37 61  1  0  0  0  0
 37 78  2  0  0  0  0
 38 60  1  0  0  0  0
 38 61  1  0  0  0  0
 38 79  2  0  0  0  0
 39 62  1  0  0  0  0
 39 67  1  0  0  0  0
 39 80  2  0  0  0  0
 40 63  1  0  0  0  0
 40 74  1  0  0  0  0
 40 81  2  0  0  0  0
 41 68  1  0  0  0  0
 41 71  1  0  0  0  0
 41 82  2  0  0  0  0
 42 45  1  0  0  0  0
 43 52  1  0  0  0  0
 44 67  1  0  0  0  0
 45 47  1  0  0  0  0
 46 48  1  0  0  0  0
 46 49  1  0  0  0  0
 47 51  1  0  0  0  0
 48 53  1  0  0  0  0
 49 68  1  0  0  0  0
 50 53  1  0  0  0  0
 50 68  1  0  0  0  0
 51 73  1  0  0  0  0
 52 67  1  0  0  0  0
 53 66  1  0  0  0  0
 55 63  1  0  0  0  0
 56 64  1  0  0  0  0
 57 64  1  0  0  0  0
 58 64  1  0  0  0  0
 59 75  1  0  0  0  0
 60 84  1  0  0  0  0
 61 72  1  0  0  0  0
 62 64  1  0  0  0  0
 62 74  1  0  0  0  0
 63 75  1  0  0  0  0
 65 66  1  0  0  0  0
M  CHG  1  75   1
M  ISO  4  41 100  60 101  71 100  84 101
M  END
> <Batch ID>
0172

> <Smiles>
CNC(C)C(=O)NC(C(=O)N1Cc2cc([101O:1][101CH2:1]C(=O)C(NC(=S)c3cc([100NH:0][100C:0](=O)N4CCCC(n5nc(-c6ccc(Oc7ccc(F)cc7F)cc6)c(C(N)=O)c5N)C4)cc(F)c3F)C(C)=O)ccc2CC1C(=O)NC1CCCc2ccccc21)C(C)(C)C

> <Shape>
0.213

> <Color>
0.076

> <Negative vol penalty>
0.000

$$$$

  -OEChem-04052304263D

 86 94  0     1  0  0  0  0  0999 V2000
  -21.4008  -30.3238   14.5786 C   0  0  0  0  0  0  0  0  0  0  0  0
  -22.6062  -29.8682   15.1030 C   0  0  0  0  0  0  0  0  0  0  0  0
  -23.6806  -10.5739   22.5593 C   0  0  0  0  0  0  0  0  0  0  0  0
  -23.3752  -10.9939   20.1998 C   0  0  0  0  0  0  0  0  0  0  0  0
  -20.7726  -31.4342   15.1410 C   0  0  0  0  0  0  0  0  0  0  0  0
  -23.1847  -30.5236   16.1894 C   0  0  0  0  0  0  0  0  0  0  0  0
  -24.8782  -27.3112   19.7189 C   0  0  0  0  0  0  0  0  0  0  0  0
  -29.3778  -20.2189   19.0152 C   0  0  0  0  0  0  0  0  0  0  0  0
  -28.1964  -19.4824   19.1007 C   0  0  0  0  0  0  0  0  0  0  0  0
  -22.9565   -9.3875   22.4419 C   0  0  0  0  0  0  0  0  0  0  0  0
  -22.6511   -9.8075   20.0824 C   0  0  0  0  0  0  0  0  0  0  0  0
  -26.0913  -26.6714   19.4681 C   0  0  0  0  0  0  0  0  0  0  0  0
  -23.5018   -6.2338   21.3512 C   0  0  0  0  0  0  0  0  0  0  0  0
  -24.0150   -5.0967   21.9751 C   0  0  0  0  0  0  0  0  0  0  0  0
  -27.2155  -28.2552   20.8988 C   0  0  0  0  0  0  0  0  0  0  0  0
  -27.3214  -21.0714   20.6965 C   0  0  0  0  0  0  0  0  0  0  0  0
  -22.0117   -4.9278   23.3150 C   0  0  0  0  0  0  0  0  0  0  0  0
  -23.8900  -11.3771   21.4383 C   0  0  0  0  0  0  0  0  0  0  0  0
  -26.0272  -12.7695   21.4086 C   0  0  0  0  0  0  0  0  0  0  0  0
  -21.3389  -32.0977   16.2409 C   0  0  0  0  0  0  0  0  0  0  0  0
  -24.8263  -28.4363   20.5543 C   0  0  0  0  0  0  0  0  0  0  0  0
  -22.5642  -31.6447   16.7661 C   0  0  0  0  0  0  0  0  0  0  0  0
  -26.0001  -28.9059   21.1607 C   0  0  0  0  0  0  0  0  0  0  0  0
  -29.5311  -21.3816   19.7704 C   0  0  0  0  0  0  0  0  0  0  0  0
  -27.1681  -19.9086   19.9413 C   0  0  0  0  0  0  0  0  0  0  0  0
  -22.4417   -9.0043   21.2035 C   0  0  0  0  0  0  0  0  0  0  0  0
  -27.2606  -27.1451   20.0558 C   0  0  0  0  0  0  0  0  0  0  0  0
  -22.2436   -6.7180   21.7093 C   0  0  0  0  0  0  0  0  0  0  0  0
  -23.2699   -4.4436   22.9569 C   0  0  0  0  0  0  0  0  0  0  0  0
  -28.5029  -21.8079   20.6110 C   0  0  0  0  0  0  0  0  0  0  0  0
  -21.4985   -6.0650   22.6912 C   0  0  0  0  0  0  0  0  0  0  0  0
  -24.6375  -12.6030   21.5590 C   0  0  0  0  0  0  0  0  0  0  0  0
  -26.2371  -14.1105   21.6192 C   0  0  0  0  0  0  0  0  0  0  0  0
  -27.0380  -11.7990   21.1054 C   0  0  0  0  0  0  0  0  0  0  0  0
  -23.9958  -31.4802   20.1685 C   0  0  0  0  0  0  0  0  0  0  0  0
  -29.8158  -24.8307   18.7506 C   0  0  0  0  0  0  0  0  0  0  0  0
  -24.4408  -31.6031   23.3793 C   0  0  0  0  0  0  0  0  0  0  0  0
  -25.9434  -30.2909   26.1483 C   0  0  0  0  0  0  0  0  0  0  0  0
  -24.8515  -19.4429   20.8145 C   0  0  0  0  0  0  0  0  0  0  0  0
  -20.6468  -33.3223   16.7850 C   0  0  0  0  0  0  0  0  0  0  0  0
  -23.5057  -29.0989   20.8360 C   0  0  0  0  0  0  0  0  0  0  0  0
  -25.9949  -30.0978   22.0814 C   0  0  0  0  0  0  0  0  0  0  0  0
  -21.1364  -33.7333   18.1712 C   0  0  0  0  0  0  0  0  0  0  0  0
  -23.1310  -17.6919   23.3934 C   0  0  0  0  0  0  0  0  0  0  0  0
  -22.6608  -33.7208   18.2244 C   0  0  0  0  0  0  0  0  0  0  0  0
  -23.4839  -16.2255   23.1337 C   0  0  0  0  0  0  0  0  0  0  0  0
  -22.9540  -18.4717   22.0918 C   0  0  0  0  0  0  0  0  0  0  0  0
  -24.4304  -16.9068   20.8916 C   0  0  0  0  0  0  0  0  0  0  0  0
  -23.2106  -32.3139   17.9597 C   0  0  1  0  0  0  0  0  0  0  0  0
  -23.6495  -30.5470   21.2941 C   0  0  1  0  0  0  0  0  0  0  0  0
  -24.6823  -16.0959   22.1732 C   0  0  2  0  0  0  0  0  0  0  0  0
  -32.0434  -21.3598   20.0547 C   0  0  0  0  0  0  0  0  0  0  0  0
  -30.2316  -24.0128   16.3938 C   0  0  0  0  0  0  0  0  0  0  0  0
  -26.1456  -30.6289   28.6266 C   0  0  0  0  0  0  0  0  0  0  0  0
  -26.3234  -33.9564   22.9024 C   0  0  0  0  0  0  0  0  0  0  0  0
  -27.2023  -33.6339   25.2244 C   0  0  0  0  0  0  0  0  0  0  0  0
  -24.8032  -34.2189   24.8708 C   0  0  0  0  0  0  0  0  0  0  0  0
  -24.7872  -27.6279   26.7228 C   0  0  0  0  0  0  0  0  0  0  0  0
  -28.4189  -25.3903   18.9445 C   0  0  0  0  0  0  0  0  0  1  0  0
  -30.8121  -22.1777   19.6733 C   0  0  1  0  0  0  0  0  0  0  0  0
  -29.9376  -23.6242   17.8343 C   0  0  1  0  0  0  0  0  0  0  0  0
  -25.6118  -31.8959   24.2859 C   0  0  1  0  0  0  0  0  0  0  0  0
  -25.3919  -29.9189   27.5128 C   0  0  2  0  0  0  0  0  0  0  0  0
  -25.9859  -33.4050   24.3020 C   0  0  0  0  0  0  0  0  0  0  0  0
  -24.0088  -13.7466   21.8435 N   0  0  0  0  0  0  0  0  0  0  0  0
  -25.0082  -14.6447   21.8735 N   0  0  0  0  0  0  0  0  0  0  0  0
  -24.6800  -30.7154   22.3207 N   0  0  0  0  0  0  0  0  0  0  0  0
  -24.1296  -18.3056   21.2343 N   0  0  0  0  0  0  0  0  0  0  0  0
  -27.3511  -14.8729   21.6100 N   0  0  0  0  0  0  0  0  0  0  0  0
  -26.6494  -10.4654   20.9191 N   0  0  0  0  0  0  0  0  0  0  0  0
  -25.9687  -19.1594   20.0297 N   0  0  0  0  0  0  0  0  0  0  0  0
  -23.0734  -31.4874   19.1397 N   0  0  0  0  0  0  0  0  0  0  0  0
  -25.2612  -31.3532   25.5939 N   0  0  0  0  0  0  0  0  0  0  0  0
  -25.5026  -28.4492   27.7331 N   0  3  0  0  0  0  0  0  0  0  0  0
  -31.0350  -22.7425   18.3164 N   0  3  0  0  0  0  0  0  0  0  0  0
  -28.2521  -12.1024   21.0190 O   0  0  0  0  0  0  0  0  0  0  0  0
  -25.0230  -32.1455   20.2296 O   0  0  0  0  0  0  0  0  0  0  0  0
  -30.7914  -25.3202   19.3196 O   0  0  0  0  0  0  0  0  0  0  0  0
  -23.3520  -32.1365   23.6064 O   0  0  0  0  0  0  0  0  0  0  0  0
  -26.8877  -29.7008   25.6280 O   0  0  0  0  0  0  0  0  0  0  0  0
  -24.5198  -20.5827   21.1507 O   0  0  0  0  0  0  0  0  0  0  0  0
  -21.7352   -7.8466   21.0885 O   0  0  0  0  0  0  0  0  0  0  0  0
  -28.4461  -26.5229   19.8121 O   0  0  0  0  0  0  0  0  0  1  0  0
  -23.7621   -3.3508   23.5548 F   0  0  0  0  0  0  0  0  0  0  0  0
  -28.6408  -22.9238   21.3404 F   0  0  0  0  0  0  0  0  0  0  0  0
  -20.2887   -6.5247   23.0385 F   0  0  0  0  0  0  0  0  0  0  0  0
  1  2  1  0  0  0  0
  1  5  2  0  0  0  0
  2  6  2  0  0  0  0
  3 10  2  0  0  0  0
  3 18  1  0  0  0  0
  4 11  1  0  0  0  0
  4 18  2  0  0  0  0
  5 20  1  0  0  0  0
  6 22  1  0  0  0  0
  7 12  2  0  0  0  0
  7 21  1  0  0  0  0
  8  9  2  0  0  0  0
  8 24  1  0  0  0  0
  9 25  1  0  0  0  0
 10 26  1  0  0  0  0
 11 26  2  0  0  0  0
 12 27  1  0  0  0  0
 13 14  2  0  0  0  0
 13 28  1  0  0  0  0
 14 29  1  0  0  0  0
 15 23  1  0  0  0  0
 15 27  2  0  0  0  0
 16 25  2  0  0  0  0
 16 30  1  0  0  0  0
 17 29  2  0  0  0  0
 17 31  1  0  0  0  0
 18 32  1  0  0  0  0
 19 32  1  0  0  0  0
 19 33  2  0  0  0  0
 19 34  1  0  0  0  0
 20 22  2  0  0  0  0
 20 40  1  0  0  0  0
 21 23  2  0  0  0  0
 21 41  1  0  0  0  0
 22 49  1  0  0  0  0
 23 42  1  0  0  0  0
 24 30  2  0  0  0  0
 24 60  1  0  0  0  0
 25 71  1  0  0  0  0
 26 82  1  0  0  0  0
 27 83  1  0  0  0  0
 28 31  2  0  0  0  0
 28 82  1  0  0  0  0
 29 84  1  0  0  0  0
 30 85  1  0  0  0  0
 31 86  1  0  0  0  0
 32 65  2  0  0  0  0
 33 66  1  0  0  0  0
 33 69  1  0  0  0  0
 34 70  1  0  0  0  0
 34 76  2  0  0  0  0
 35 50  1  0  0  0  0
 35 72  1  0  0  0  0
 35 77  2  0  0  0  0
 36 59  1  0  0  0  0
 36 61  1  0  0  0  0
 36 78  2  0  0  0  0
 37 62  1  0  0  0  0
 37 67  1  0  0  0  0
 37 79  2  0  0  0  0
 38 63  1  0  0  0  0
 38 73  1  0  0  0  0
 38 80  2  0  0  0  0
 39 68  1  0  0  0  0
 39 71  1  0  0  0  0
 39 81  2  0  0  0  0
 40 43  1  0  0  0  0
 41 50  1  0  0  0  0
 42 67  1  0  0  0  0
 43 45  1  0  0  0  0
 44 46  1  0  0  0  0
 44 47  1  0  0  0  0
 45 49  1  0  0  0  0
 46 51  1  0  0  0  0
 47 68  1  0  0  0  0
 48 51  1  0  0  0  0
 48 68  1  0  0  0  0
 49 72  1  0  0  0  0
 50 67  1  0  0  0  0
 51 66  1  0  0  0  0
 52 60  1  0  0  0  0
 53 61  1  0  0  0  0
 54 63  1  0  0  0  0
 55 64  1  0  0  0  0
 56 64  1  0  0  0  0
 57 64  1  0  0  0  0
 58 74  1  0  0  0  0
 59 83  1  0  0  0  0
 60 75  1  0  0  0  0
 61 75  1  0  0  0  0
 62 64  1  0  0  0  0
 62 73  1  0  0  0  0
 63 74  1  0  0  0  0
 65 66  1  0  0  0  0
M  CHG  2  74   1  75   1
M  ISO  4  39 100  59 101  71 100  83 101
M  END
> <Batch ID>
0172

> <Smiles>
CNC(C)C(=O)NC(C(=O)N1Cc2cc([101O:1][101CH2:1]C(=O)C(C)NC(C)c3ccc([100NH:0][100C:0](=O)N4CCCC(n5nc(-c6ccc(Oc7ccc(F)cc7F)cc6)c(C(N)=O)c5N)C4)cc3F)ccc2CC1C(=O)NC1CCCc2ccccc21)C(C)(C)C

> <Shape>
0.306

> <Color>
0.102

> <Negative vol penalty>
0.000

$$$$

  -OEChem-04052304263D

 85 93  0     1  0  0  0  0  0999 V2000
  -25.9565  -18.5482   23.3576 C   0  0  0  0  0  0  0  0  0  0  0  0
  -26.4247  -19.6215   22.6065 C   0  0  0  0  0  0  0  0  0  0  0  0
  -26.3863  -11.5338   21.4657 C   0  0  0  0  0  0  0  0  0  0  0  0
  -25.2464  -12.7067   19.6875 C   0  0  0  0  0  0  0  0  0  0  0  0
  -24.5933  -18.4274   23.6244 C   0  0  0  0  0  0  0  0  0  0  0  0
  -25.5298  -20.5742   22.1207 C   0  0  0  0  0  0  0  0  0  0  0  0
  -27.1828  -25.3134   22.7931 C   0  0  0  0  0  0  0  0  0  0  0  0
  -25.1674  -11.0198   21.9081 C   0  0  0  0  0  0  0  0  0  0  0  0
  -24.0275  -12.1926   20.1298 C   0  0  0  0  0  0  0  0  0  0  0  0
  -28.1515  -25.7817   21.9064 C   0  0  0  0  0  0  0  0  0  0  0  0
  -21.7985  -12.8344   22.5896 C   0  0  0  0  0  0  0  0  0  0  0  0
  -20.7180  -13.7123   22.6763 C   0  0  0  0  0  0  0  0  0  0  0  0
  -26.4429  -26.9475   20.6651 C   0  0  0  0  0  0  0  0  0  0  0  0
  -28.0352  -20.3384   16.9178 C   0  0  0  0  0  0  0  0  0  0  0  0
  -19.4912  -12.3586   21.0953 C   0  0  0  0  0  0  0  0  0  0  0  0
  -26.4258  -12.3774   20.3555 C   0  0  0  0  0  0  0  0  0  0  0  0
  -28.5593  -12.3334   18.9576 C   0  0  0  0  0  0  0  0  0  0  0  0
  -23.6824  -19.3843   23.1498 C   0  0  0  0  0  0  0  0  0  0  0  0
  -25.8332  -25.6503   22.6158 C   0  0  0  0  0  0  0  0  0  0  0  0
  -24.1530  -20.4654   22.3803 C   0  0  0  0  0  0  0  0  0  0  0  0
  -25.4594  -26.4842   21.5524 C   0  0  0  0  0  0  0  0  0  0  0  0
  -28.2212  -21.6489   16.4166 C   0  0  0  0  0  0  0  0  0  0  0  0
  -23.9880  -11.3491   21.2401 C   0  0  0  0  0  0  0  0  0  0  0  0
  -27.7812  -26.5965   20.8406 C   0  0  0  0  0  0  0  0  0  0  0  0
  -21.7253  -11.7186   21.7557 C   0  0  0  0  0  0  0  0  0  0  0  0
  -19.5644  -13.4744   21.9292 C   0  0  0  0  0  0  0  0  0  0  0  0
  -20.5717  -11.4807   21.0086 C   0  0  0  0  0  0  0  0  0  0  0  0
  -27.6845  -12.9092   19.8984 C   0  0  0  0  0  0  0  0  0  0  0  0
  -29.6040  -13.2209   18.8721 C   0  0  0  0  0  0  0  0  0  0  0  0
  -28.9057  -20.2065   17.9746 C   0  0  0  0  0  0  0  0  0  0  0  0
  -29.1919  -22.2245   17.2030 C   0  0  0  0  0  0  0  0  0  0  0  0
  -29.4584  -26.1356   19.2768 C   0  0  0  0  0  0  0  0  0  1  0  0
  -28.4382  -11.1061   18.2263 C   0  0  0  0  0  0  0  0  0  0  0  0
  -30.4101  -26.4729   18.3996 C   0  0  0  0  0  0  0  0  0  0  0  0
  -31.1461  -25.3931   17.6977 C   0  0  0  0  0  0  0  0  0  0  0  0
  -30.7631  -23.9828   18.0283 C   0  0  0  0  0  0  0  0  0  0  0  0
  -23.1665  -24.0119   22.0607 C   0  0  0  0  0  0  0  0  0  0  0  0
  -21.7664  -26.9118   22.4508 C   0  0  0  0  0  0  0  0  0  0  0  0
  -22.0652  -30.3101   22.3527 C   0  0  0  0  0  0  0  0  0  0  0  0
  -30.0719  -19.0873   19.9069 C   0  0  0  0  0  0  0  0  0  0  0  0
  -22.2126  -19.1859   23.4237 C   0  0  0  0  0  0  0  0  0  0  0  0
  -24.8041  -25.1588   23.5966 C   0  0  0  0  0  0  0  0  0  0  0  0
  -24.0266  -26.8916   21.3299 C   0  0  0  0  0  0  0  0  0  0  0  0
  -21.3747  -20.4402   23.1896 C   0  0  0  0  0  0  0  0  0  0  0  0
  -31.9576  -16.4947   21.4561 C   0  0  0  0  0  0  0  0  0  0  0  0
  -21.7478  -21.0913   21.8615 C   0  0  0  0  0  0  0  0  0  0  0  0
  -31.1586  -15.2279   21.1416 C   0  0  0  0  0  0  0  0  0  0  0  0
  -31.0441  -17.6909   21.7179 C   0  0  0  0  0  0  0  0  0  0  0  0
  -29.2540  -16.6900   20.3531 C   0  0  0  0  0  0  0  0  0  0  0  0
  -23.2164  -21.5326   21.8569 C   0  0  1  0  0  0  0  0  0  0  0  0
  -23.3907  -25.1443   23.0225 C   0  0  1  0  0  0  0  0  0  0  0  0
  -30.1321  -15.4732   20.0183 C   0  0  2  0  0  0  0  0  0  0  0  0
  -27.5116  -22.2651   15.2802 C   0  0  0  0  0  0  0  0  0  0  0  0
  -20.7390  -32.4146   22.6838 C   0  0  0  0  0  0  0  0  0  0  0  0
  -20.4217  -26.4872   19.7450 C   0  0  0  0  0  0  0  0  0  0  0  0
  -19.9049  -28.9364   19.6957 C   0  0  0  0  0  0  0  0  0  0  0  0
  -18.9483  -27.4976   21.4950 C   0  0  0  0  0  0  0  0  0  0  0  0
  -23.8181  -31.2048   24.5631 C   0  0  0  0  0  0  0  0  0  0  0  0
  -21.4129  -28.0600   21.5366 C   0  0  1  0  0  0  0  0  0  0  0  0
  -21.6488  -31.3867   23.3385 C   0  0  2  0  0  0  0  0  0  0  0  0
  -20.1988  -27.7362   20.6209 C   0  0  0  0  0  0  0  0  0  0  0  0
  -28.1345  -14.0723   20.3765 N   0  0  0  0  0  0  0  0  0  0  0  0
  -29.3035  -14.2346   19.7336 N   0  0  0  0  0  0  0  0  0  0  0  0
  -23.0564  -26.3804   22.3122 N   0  0  0  0  0  0  0  0  0  0  0  0
  -30.1017  -17.8647   20.6104 N   0  0  0  0  0  0  0  0  0  0  0  0
  -30.7414  -13.2251   18.1449 N   0  0  0  0  0  0  0  0  0  0  0  0
  -27.3008  -10.3140   18.4341 N   0  0  0  0  0  0  0  0  0  0  0  0
  -29.7859  -23.5076   17.1801 N   0  0  0  0  0  0  0  0  0  0  0  0
  -29.1587  -19.1244   18.8537 N   0  0  0  0  0  0  0  0  0  0  0  0
  -23.3777  -22.7601   22.6064 N   0  0  0  0  0  0  0  0  0  0  0  0
  -21.2192  -29.2222   22.3970 N   0  0  0  0  0  0  0  0  0  0  0  0
  -22.8480  -32.0926   23.8719 N   0  3  0  0  0  0  0  0  0  0  0  0
  -29.3206  -10.7151   17.4250 O   0  0  0  0  0  0  0  0  0  0  0  0
  -32.0453  -25.5574   16.8881 O   0  0  0  0  0  0  0  0  0  0  0  0
  -31.3519  -23.4568   18.9578 O   0  0  0  0  0  0  0  0  0  0  0  0
  -22.8257  -24.2558   20.9091 O   0  0  0  0  0  0  0  0  0  0  0  0
  -20.9313  -26.5063   23.2631 O   0  0  0  0  0  0  0  0  0  0  0  0
  -23.0411  -30.4244   21.6144 O   0  0  0  0  0  0  0  0  0  0  0  0
  -30.8219  -20.0224   20.1987 O   0  0  0  0  0  0  0  0  0  0  0  0
  -29.6144  -21.3518   18.1551 O   0  0  0  0  0  0  0  0  0  0  0  0
  -30.7419  -27.7787   18.1136 O   0  0  0  0  0  0  0  0  0  0  0  0
  -22.7985  -10.8475   21.6713 O   0  0  0  0  0  0  0  0  0  0  0  0
  -28.7246  -27.0544   19.9732 O   0  0  0  0  0  0  0  0  0  1  0  0
  -18.5264  -14.3167   22.0137 F   0  0  0  0  0  0  0  0  0  0  0  0
  -20.4950  -10.4098   20.2067 F   0  0  0  0  0  0  0  0  0  0  0  0
  1  2  1  0  0  0  0
  1  5  2  0  0  0  0
  2  6  2  0  0  0  0
  3  8  2  0  0  0  0
  3 16  1  0  0  0  0
  4  9  1  0  0  0  0
  4 16  2  0  0  0  0
  5 18  1  0  0  0  0
  6 20  1  0  0  0  0
  7 10  2  0  0  0  0
  7 19  1  0  0  0  0
  8 23  1  0  0  0  0
  9 23  2  0  0  0  0
 10 24  1  0  0  0  0
 11 12  2  0  0  0  0
 11 25  1  0  0  0  0
 12 26  1  0  0  0  0
 13 21  1  0  0  0  0
 13 24  2  0  0  0  0
 14 22  1  0  0  0  0
 14 30  2  0  0  0  0
 15 26  2  0  0  0  0
 15 27  1  0  0  0  0
 16 28  1  0  0  0  0
 17 28  1  0  0  0  0
 17 29  2  0  0  0  0
 17 33  1  0  0  0  0
 18 20  2  0  0  0  0
 18 41  1  0  0  0  0
 19 21  2  0  0  0  0
 19 42  1  0  0  0  0
 20 50  1  0  0  0  0
 21 43  1  0  0  0  0
 22 31  2  0  0  0  0
 22 53  1  0  0  0  0
 23 82  1  0  0  0  0
 24 83  1  0  0  0  0
 25 27  2  0  0  0  0
 25 82  1  0  0  0  0
 26 84  1  0  0  0  0
 27 85  1  0  0  0  0
 28 62  2  0  0  0  0
 29 63  1  0  0  0  0
 29 66  1  0  0  0  0
 30 69  1  0  0  0  0
 30 80  1  0  0  0  0
 31 68  1  0  0  0  0
 31 80  1  0  0  0  0
 32 34  2  0  0  0  0
 32 83  1  0  0  0  0
 33 67  1  0  0  0  0
 33 73  2  0  0  0  0
 34 35  1  0  0  0  0
 34 81  1  0  0  0  0
 35 36  1  0  0  0  0
 35 74  2  0  0  0  0
 36 68  1  0  0  0  0
 36 75  2  0  0  0  0
 37 51  1  0  0  0  0
 37 70  1  0  0  0  0
 37 76  2  0  0  0  0
 38 59  1  0  0  0  0
 38 64  1  0  0  0  0
 38 77  2  0  0  0  0
 39 60  1  0  0  0  0
 39 71  1  0  0  0  0
 39 78  2  0  0  0  0
 40 65  1  0  0  0  0
 40 69  1  0  0  0  0
 40 79  2  0  0  0  0
 41 44  1  0  0  0  0
 42 51  1  0  0  0  0
 43 64  1  0  0  0  0
 44 46  1  0  0  0  0
 45 47  1  0  0  0  0
 45 48  1  0  0  0  0
 46 50  1  0  0  0  0
 47 52  1  0  0  0  0
 48 65  1  0  0  0  0
 49 52  1  0  0  0  0
 49 65  1  0  0  0  0
 50 70  1  0  0  0  0
 51 64  1  0  0  0  0
 52 63  1  0  0  0  0
 54 60  1  0  0  0  0
 55 61  1  0  0  0  0
 56 61  1  0  0  0  0
 57 61  1  0  0  0  0
 58 72  1  0  0  0  0
 59 61  1  0  0  0  0
 59 71  1  0  0  0  0
 60 72  1  0  0  0  0
 62 63  1  0  0  0  0
M  CHG  1  72   1
M  ISO  4  32 101  40 100  69 100  83 101
M  END
> <Batch ID>
0172

> <Smiles>
CNC(C)C(=O)NC(C(=O)N1Cc2cc([101O:1][101CH2:1]C(=O)C(=O)C(=O)Nc3oc([100NH:0][100C:0](=O)N4CCCC(n5nc(-c6ccc(Oc7ccc(F)cc7F)cc6)c(C(N)=O)c5N)C4)cc3C)ccc2CC1C(=O)NC1CCCc2ccccc21)C(C)(C)C

> <Shape>
0.249

> <Color>
0.055

> <Negative vol penalty>
0.000

$$$$

  -OEChem-04052304263D

 84 92  0     1  0  0  0  0  0999 V2000
  -20.5960  -23.2318   21.1394 C   0  0  0  0  0  0  0  0  0  0  0  0
  -21.9414  -22.9866   20.8843 C   0  0  0  0  0  0  0  0  0  0  0  0
  -22.0559  -27.7145   21.1321 C   0  0  0  0  0  0  0  0  0  0  0  0
  -23.3680  -27.5686   23.1556 C   0  0  0  0  0  0  0  0  0  0  0  0
  -19.8558  -22.3279   21.9003 C   0  0  0  0  0  0  0  0  0  0  0  0
  -22.5478  -21.8377   21.3911 C   0  0  0  0  0  0  0  0  0  0  0  0
  -26.9518  -18.5190   18.7271 C   0  0  0  0  0  0  0  0  0  0  0  0
  -20.8862  -27.7310   21.8917 C   0  0  0  0  0  0  0  0  0  0  0  0
  -22.1982  -27.5851   23.9152 C   0  0  0  0  0  0  0  0  0  0  0  0
  -28.3355  -18.4896   18.8949 C   0  0  0  0  0  0  0  0  0  0  0  0
  -19.1365  -29.9713   23.7228 C   0  0  0  0  0  0  0  0  0  0  0  0
  -18.1569  -30.9048   23.3843 C   0  0  0  0  0  0  0  0  0  0  0  0
  -28.1056  -16.6303   20.4146 C   0  0  0  0  0  0  0  0  0  0  0  0
  -30.4870  -23.3964   23.3252 C   0  0  0  0  0  0  0  0  0  0  0  0
  -16.5896  -29.1120   22.9761 C   0  0  0  0  0  0  0  0  0  0  0  0
  -23.2968  -27.6333   21.7640 C   0  0  0  0  0  0  0  0  0  0  0  0
  -25.2669  -28.7252   20.5665 C   0  0  0  0  0  0  0  0  0  0  0  0
  -20.4510  -21.1625   22.4085 C   0  0  0  0  0  0  0  0  0  0  0  0
  -26.1323  -17.6098   19.4114 C   0  0  0  0  0  0  0  0  0  0  0  0
  -21.8153  -20.9180   22.1606 C   0  0  0  0  0  0  0  0  0  0  0  0
  -26.7120  -16.6486   20.2518 C   0  0  0  0  0  0  0  0  0  0  0  0
  -31.5502  -22.9884   24.1230 C   0  0  0  0  0  0  0  0  0  0  0  0
  -32.4536  -22.0482   23.6401 C   0  0  0  0  0  0  0  0  0  0  0  0
  -20.9573  -27.6663   23.2833 C   0  0  0  0  0  0  0  0  0  0  0  0
  -28.9124  -17.5470   19.7410 C   0  0  0  0  0  0  0  0  0  0  0  0
  -18.8427  -28.6081   23.6878 C   0  0  0  0  0  0  0  0  0  0  0  0
  -16.8835  -30.4752   23.0111 C   0  0  0  0  0  0  0  0  0  0  0  0
  -17.5692  -28.1785   23.3145 C   0  0  0  0  0  0  0  0  0  0  0  0
  -24.5055  -27.6156   20.9799 C   0  0  0  0  0  0  0  0  0  0  0  0
  -30.3725  -22.8386   22.0621 C   0  0  0  0  0  0  0  0  0  0  0  0
  -32.2510  -21.5505   22.3630 C   0  0  0  0  0  0  0  0  0  0  0  0
  -26.3073  -28.1813   19.8536 C   0  0  0  0  0  0  0  0  0  0  0  0
  -25.0529  -30.1226   20.8055 C   0  0  0  0  0  0  0  0  0  0  0  0
  -23.8107  -17.8653   21.5674 C   0  0  0  0  0  0  0  0  0  0  0  0
  -32.2154  -18.7567   20.6299 C   0  0  0  0  0  0  0  0  0  0  0  0
  -23.5514  -14.6666   21.0949 C   0  0  0  0  0  0  0  0  0  0  0  0
  -25.0315  -11.7545   20.1070 C   0  0  0  0  0  0  0  0  0  0  0  0
  -28.9781  -22.8372   19.9640 C   0  0  0  0  0  0  0  0  0  0  0  0
  -19.6224  -20.2386   23.2655 C   0  0  0  0  0  0  0  0  0  0  0  0
  -24.6435  -17.6373   19.1988 C   0  0  0  0  0  0  0  0  0  0  0  0
  -25.8779  -15.6373   20.9935 C   0  0  0  0  0  0  0  0  0  0  0  0
  -20.2456  -18.8574   23.4508 C   0  0  0  0  0  0  0  0  0  0  0  0
  -27.4186  -24.3808   17.1601 C   0  0  0  0  0  0  0  0  0  0  0  0
  -21.7251  -18.9818   23.8003 C   0  0  0  0  0  0  0  0  0  0  0  0
  -26.5686  -25.4904   17.7833 C   0  0  0  0  0  0  0  0  0  0  0  0
  -27.4422  -23.1267   18.0322 C   0  0  0  0  0  0  0  0  0  0  0  0
  -26.9841  -24.4593   20.0530 C   0  0  0  0  0  0  0  0  0  0  0  0
  -22.5025  -19.6705   22.6722 C   0  0  1  0  0  0  0  0  0  0  0  0
  -23.8646  -16.9960   20.3431 C   0  0  1  0  0  0  0  0  0  0  0  0
  -26.9829  -25.7656   19.2421 C   0  0  2  0  0  0  0  0  0  0  0  0
  -31.6963  -23.5749   25.4891 C   0  0  0  0  0  0  0  0  0  0  0  0
  -24.5800   -9.2976   19.8678 C   0  0  0  0  0  0  0  0  0  0  0  0
  -23.8267  -14.3246   24.1143 C   0  0  0  0  0  0  0  0  0  0  0  0
  -24.3212  -11.9014   23.7246 C   0  0  0  0  0  0  0  0  0  0  0  0
  -22.1137  -12.8464   23.0489 C   0  0  0  0  0  0  0  0  0  0  0  0
  -25.5010  -11.8344   17.1860 C   0  0  0  0  0  0  0  0  0  0  0  0
  -33.0492  -20.0185   20.5626 C   0  0  0  0  0  0  0  0  0  0  0  0
  -30.9611  -18.7542   19.7778 C   0  0  0  0  0  0  0  0  0  1  0  0
  -24.1771  -13.4402   21.7141 C   0  0  1  0  0  0  0  0  0  0  0  0
  -24.5622  -10.6515   19.1755 C   0  0  2  0  0  0  0  0  0  0  0  0
  -23.6255  -13.1483   23.1382 C   0  0  0  0  0  0  0  0  0  0  0  0
  -25.0184  -26.4546   20.5641 N   0  0  0  0  0  0  0  0  0  0  0  0
  -31.2302  -21.9228   21.5586 N   0  0  0  0  0  0  0  0  0  0  0  0
  -26.1133  -26.8316   19.8820 N   0  0  0  0  0  0  0  0  0  0  0  0
  -24.4265  -15.7089   20.7576 N   0  0  0  0  0  0  0  0  0  0  0  0
  -27.8474  -23.4637   19.3986 N   0  0  0  0  0  0  0  0  0  0  0  0
  -33.5382  -21.6231   24.4335 N   0  0  0  0  0  0  0  0  0  0  0  0
  -27.3601  -28.7307   19.2115 N   0  0  0  0  0  0  0  0  0  0  0  0
  -23.9347  -30.5082   21.5574 N   0  0  0  0  0  0  0  0  0  0  0  0
  -29.2863  -23.2611   21.2563 N   0  0  0  0  0  0  0  0  0  0  0  0
  -33.1473  -20.6124   21.8714 N   0  0  0  0  0  0  0  0  0  0  0  0
  -22.7448  -18.7445   21.5868 N   0  0  0  0  0  0  0  0  0  0  0  0
  -23.9761  -12.3540   20.7612 N   0  0  0  0  0  0  0  0  0  0  0  0
  -25.4428  -10.5773   17.9755 N   0  3  0  0  0  0  0  0  0  0  0  0
  -25.8211  -31.0042   20.3515 O   0  0  0  0  0  0  0  0  0  0  0  0
  -24.6716  -17.7461   22.4314 O   0  0  0  0  0  0  0  0  0  0  0  0
  -32.5249  -17.7910   21.3267 O   0  0  0  0  0  0  0  0  0  0  0  0
  -22.3321  -14.6957   20.9104 O   0  0  0  0  0  0  0  0  0  0  0  0
  -26.2161  -12.0518   20.2436 O   0  0  0  0  0  0  0  0  0  0  0  0
  -29.6414  -22.0070   19.3372 O   0  0  0  0  0  0  0  0  0  0  0  0
  -19.8161  -27.6826   24.0248 O   0  0  0  0  0  0  0  0  0  0  0  0
  -30.2627  -17.5166   19.9072 O   0  0  0  0  0  0  0  0  0  1  0  0
  -15.9424  -31.3718   22.6876 F   0  0  0  0  0  0  0  0  0  0  0  0
  -17.2807  -26.8703   23.2803 F   0  0  0  0  0  0  0  0  0  0  0  0
  1  2  1  0  0  0  0
  1  5  2  0  0  0  0
  2  6  2  0  0  0  0
  3  8  2  0  0  0  0
  3 16  1  0  0  0  0
  4  9  1  0  0  0  0
  4 16  2  0  0  0  0
  5 18  1  0  0  0  0
  6 20  1  0  0  0  0
  7 10  2  0  0  0  0
  7 19  1  0  0  0  0
  8 24  1  0  0  0  0
  9 24  2  0  0  0  0
 10 25  1  0  0  0  0
 11 12  2  0  0  0  0
 11 26  1  0  0  0  0
 12 27  1  0  0  0  0
 13 21  1  0  0  0  0
 13 25  2  0  0  0  0
 14 22  2  0  0  0  0
 14 30  1  0  0  0  0
 15 27  2  0  0  0  0
 15 28  1  0  0  0  0
 16 29  1  0  0  0  0
 17 29  1  0  0  0  0
 17 32  2  0  0  0  0
 17 33  1  0  0  0  0
 18 20  2  0  0  0  0
 18 39  1  0  0  0  0
 19 21  2  0  0  0  0
 19 40  1  0  0  0  0
 20 48  1  0  0  0  0
 21 41  1  0  0  0  0
 22 23  1  0  0  0  0
 22 51  1  0  0  0  0
 23 31  2  0  0  0  0
 23 67  1  0  0  0  0
 24 81  1  0  0  0  0
 25 82  1  0  0  0  0
 26 28  2  0  0  0  0
 26 81  1  0  0  0  0
 27 83  1  0  0  0  0
 28 84  1  0  0  0  0
 29 62  2  0  0  0  0
 30 63  2  0  0  0  0
 30 70  1  0  0  0  0
 31 63  1  0  0  0  0
 31 71  1  0  0  0  0
 32 64  1  0  0  0  0
 32 68  1  0  0  0  0
 33 69  1  0  0  0  0
 33 75  2  0  0  0  0
 34 49  1  0  0  0  0
 34 72  1  0  0  0  0
 34 76  2  0  0  0  0
 35 57  1  0  0  0  0
 35 58  1  0  0  0  0
 35 77  2  0  0  0  0
 36 59  1  0  0  0  0
 36 65  1  0  0  0  0
 36 78  2  0  0  0  0
 37 60  1  0  0  0  0
 37 73  1  0  0  0  0
 37 79  2  0  0  0  0
 38 66  1  0  0  0  0
 38 70  1  0  0  0  0
 38 80  2  0  0  0  0
 39 42  1  0  0  0  0
 40 49  1  0  0  0  0
 41 65  1  0  0  0  0
 42 44  1  0  0  0  0
 43 45  1  0  0  0  0
 43 46  1  0  0  0  0
 44 48  1  0  0  0  0
 45 50  1  0  0  0  0
 46 66  1  0  0  0  0
 47 50  1  0  0  0  0
 47 66  1  0  0  0  0
 48 72  1  0  0  0  0
 49 65  1  0  0  0  0
 50 64  1  0  0  0  0
 52 60  1  0  0  0  0
 53 61  1  0  0  0  0
 54 61  1  0  0  0  0
 55 61  1  0  0  0  0
 56 74  1  0  0  0  0
 57 71  1  0  0  0  0
 58 82  1  0  0  0  0
 59 61  1  0  0  0  0
 59 73  1  0  0  0  0
 60 74  1  0  0  0  0
 62 64  1  0  0  0  0
M  CHG  1  74   1
M  ISO  4  38 100  58 101  70 100  82 101
M  END
> <Batch ID>
0172

> <Smiles>
CNC(C)C(=O)NC(C(=O)N1Cc2cc([101O:1][101CH2:1]C(=O)CNc3nc([100NH:0][100C:0](=O)N4CCCC(n5nc(-c6ccc(Oc7ccc(F)cc7F)cc6)c(C(N)=O)c5N)C4)cc(C)c3N)ccc2CC1C(=O)NC1CCCc2ccccc21)C(C)(C)C

> <Shape>
0.209

> <Color>
0.077

> <Negative vol penalty>
0.000

$$$$

  -OEChem-04052304263D

 84 92  0     1  0  0  0  0  0999 V2000
  -19.0656  -21.6971   24.0067 C   0  0  0  0  0  0  0  0  0  0  0  0
  -20.4510  -21.8227   24.0007 C   0  0  0  0  0  0  0  0  0  0  0  0
  -22.9859   -9.9026   20.0005 C   0  0  0  0  0  0  0  0  0  0  0  0
  -23.6989   -9.9827   22.3076 C   0  0  0  0  0  0  0  0  0  0  0  0
  -18.2693  -22.7498   23.5576 C   0  0  0  0  0  0  0  0  0  0  0  0
  -21.0412  -23.0008   23.5444 C   0  0  0  0  0  0  0  0  0  0  0  0
  -24.7748  -24.6012   26.5683 C   0  0  0  0  0  0  0  0  0  0  0  0
  -22.2129   -8.7753   20.2786 C   0  0  0  0  0  0  0  0  0  0  0  0
  -22.9257   -8.8555   22.5856 C   0  0  0  0  0  0  0  0  0  0  0  0
  -26.0040  -23.9522   26.4604 C   0  0  0  0  0  0  0  0  0  0  0  0
  -23.1575   -5.5092   22.1620 C   0  0  0  0  0  0  0  0  0  0  0  0
  -23.7363   -4.5001   22.9315 C   0  0  0  0  0  0  0  0  0  0  0  0
  -26.8327  -25.7613   25.0968 C   0  0  0  0  0  0  0  0  0  0  0  0
  -22.0045   -4.7742   24.5937 C   0  0  0  0  0  0  0  0  0  0  0  0
  -23.7290  -10.5062   21.0150 C   0  0  0  0  0  0  0  0  0  0  0  0
  -24.1266  -13.0173   20.8058 C   0  0  0  0  0  0  0  0  0  0  0  0
  -18.8497  -23.9451   23.1046 C   0  0  0  0  0  0  0  0  0  0  0  0
  -24.5614  -25.8320   25.9312 C   0  0  0  0  0  0  0  0  0  0  0  0
  -20.2520  -24.0700   23.0875 C   0  0  0  0  0  0  0  0  0  0  0  0
  -25.6007  -26.4251   25.2003 C   0  0  0  0  0  0  0  0  0  0  0  0
  -22.1827   -8.2518   21.5711 C   0  0  0  0  0  0  0  0  0  0  0  0
  -27.0322  -24.5308   25.7222 C   0  0  0  0  0  0  0  0  0  0  0  0
  -22.0022   -6.1509   22.6083 C   0  0  0  0  0  0  0  0  0  0  0  0
  -23.1599   -4.1326   24.1474 C   0  0  0  0  0  0  0  0  0  0  0  0
  -21.4257   -5.7834   23.8242 C   0  0  0  0  0  0  0  0  0  0  0  0
  -24.5283  -11.6703   20.7283 C   0  0  0  0  0  0  0  0  0  0  0  0
  -31.8589  -18.6632   22.1546 C   0  0  0  0  0  0  0  0  0  0  0  0
  -25.2416  -13.7298   20.4374 C   0  0  0  0  0  0  0  0  0  0  0  0
  -30.7504  -19.0813   22.8607 C   0  0  0  0  0  0  0  0  0  0  0  0
  -30.5903  -16.9000   21.8513 C   0  0  0  0  0  0  0  0  0  0  0  0
  -28.2569  -22.6550   25.0497 C   0  0  0  0  0  0  0  0  0  1  0  0
  -22.8591  -13.5748   21.1777 C   0  0  0  0  0  0  0  0  0  0  0  0
  -29.3801  -21.9439   24.8943 C   0  0  0  0  0  0  0  0  0  0  0  0
  -29.3004  -20.5872   24.2608 C   0  0  0  0  0  0  0  0  0  0  0  0
  -22.5877  -26.8738   23.6678 C   0  0  0  0  0  0  0  0  0  0  0  0
  -23.8918  -29.7521   24.4006 C   0  0  0  0  0  0  0  0  0  0  0  0
  -26.5262  -31.4945   25.6933 C   0  0  0  0  0  0  0  0  0  0  0  0
  -30.7241  -14.6696   20.6879 C   0  0  0  0  0  0  0  0  0  0  0  0
  -17.9495  -25.0376   22.5844 C   0  0  0  0  0  0  0  0  0  0  0  0
  -23.2384  -26.5321   26.0794 C   0  0  0  0  0  0  0  0  0  0  0  0
  -25.4292  -27.7548   24.5140 C   0  0  0  0  0  0  0  0  0  0  0  0
  -18.6416  -26.3933   22.4681 C   0  0  0  0  0  0  0  0  0  0  0  0
  -29.6073  -12.1894   18.3904 C   0  0  0  0  0  0  0  0  0  0  0  0
  -20.0028  -26.2419   21.7966 C   0  0  0  0  0  0  0  0  0  0  0  0
  -28.1533  -11.9440   18.8002 C   0  0  0  0  0  0  0  0  0  0  0  0
  -30.5023  -12.4457   19.6016 C   0  0  0  0  0  0  0  0  0  0  0  0
  -28.5834  -13.2617   20.9135 C   0  0  0  0  0  0  0  0  0  0  0  0
  -20.9287  -25.3415   22.6233 C   0  0  1  0  0  0  0  0  0  0  0  0
  -22.9649  -27.5353   24.9631 C   0  0  1  0  0  0  0  0  0  0  0  0
  -27.6313  -13.0630   19.7228 C   0  0  2  0  0  0  0  0  0  0  0  0
  -32.9791  -20.5385   20.9238 C   0  0  0  0  0  0  0  0  0  0  0  0
  -27.3183  -33.8366   26.1225 C   0  0  0  0  0  0  0  0  0  0  0  0
  -24.5330  -30.0761   21.4352 C   0  0  0  0  0  0  0  0  0  0  0  0
  -26.1185  -31.9135   22.0502 C   0  0  0  0  0  0  0  0  0  0  0  0
  -23.6862  -32.1474   22.5518 C   0  0  0  0  0  0  0  0  0  0  0  0
  -26.6677  -31.0352   28.6136 C   0  0  0  0  0  0  0  0  0  0  0  0
  -33.1102  -19.4265   21.9692 C   0  0  0  0  0  0  0  0  0  0  0  0
  -25.0838  -30.5406   23.9145 C   0  0  1  0  0  0  0  0  0  0  0  0
  -26.5862  -32.6331   26.6955 C   0  0  2  0  0  0  0  0  0  0  0  0
  -24.8583  -31.1434   22.4991 C   0  0  0  0  0  0  0  0  0  0  0  0
  -25.7991  -11.5326   20.3409 N   0  0  0  0  0  0  0  0  0  0  0  0
  -31.7691  -17.4125   21.5754 N   0  0  0  0  0  0  0  0  0  0  0  0
  -26.2056  -12.8023   20.1716 N   0  0  0  0  0  0  0  0  0  0  0  0
  -24.1152  -28.3971   24.6832 N   0  0  0  0  0  0  0  0  0  0  0  0
  -29.9476  -13.5208   20.4269 N   0  0  0  0  0  0  0  0  0  0  0  0
  -25.4816  -15.0529   20.3180 N   0  0  0  0  0  0  0  0  0  0  0  0
  -21.8215  -12.7001   21.5279 N   0  0  0  0  0  0  0  0  0  0  0  0
  -30.4653  -20.2693   23.5762 N   0  0  0  0  0  0  0  0  0  0  0  0
  -30.0799  -15.6385   21.4565 N   0  0  0  0  0  0  0  0  0  0  0  0
  -21.4666  -26.0702   23.7520 N   0  0  0  0  0  0  0  0  0  0  0  0
  -25.3669  -31.5310   24.9476 N   0  0  0  0  0  0  0  0  0  0  0  0
  -27.2940  -32.1975   27.9325 N   0  3  0  0  0  0  0  0  0  0  0  0
  -22.6479  -14.8113   21.1829 O   0  0  0  0  0  0  0  0  0  0  0  0
  -28.2938  -19.8963   24.3760 O   0  0  0  0  0  0  0  0  0  0  0  0
  -23.2628  -27.0784   22.6658 O   0  0  0  0  0  0  0  0  0  0  0  0
  -22.8042  -30.3192   24.5318 O   0  0  0  0  0  0  0  0  0  0  0  0
  -27.4201  -30.6586   25.5804 O   0  0  0  0  0  0  0  0  0  0  0  0
  -31.8658  -14.7970   20.2382 O   0  0  0  0  0  0  0  0  0  0  0  0
  -30.6157  -22.4111   25.2940 O   0  0  0  0  0  0  0  0  0  0  0  0
  -21.4283   -7.1520   21.8428 O   0  0  0  0  0  0  0  0  0  0  0  0
  -28.2328  -23.8991   25.6148 O   0  0  0  0  0  0  0  0  0  1  0  0
  -23.7150   -3.1624   24.8855 F   0  0  0  0  0  0  0  0  0  0  0  0
  -20.3151   -6.3954   24.2576 F   0  0  0  0  0  0  0  0  0  0  0  0
  -29.5397  -17.8680   22.8023 S   0  0  0  0  0  0  0  0  0  0  0  0
  1  2  1  0  0  0  0
  1  5  2  0  0  0  0
  2  6  2  0  0  0  0
  3  8  2  0  0  0  0
  3 15  1  0  0  0  0
  4  9  1  0  0  0  0
  4 15  2  0  0  0  0
  5 17  1  0  0  0  0
  6 19  1  0  0  0  0
  7 10  2  0  0  0  0
  7 18  1  0  0  0  0
  8 21  1  0  0  0  0
  9 21  2  0  0  0  0
 10 22  1  0  0  0  0
 11 12  2  0  0  0  0
 11 23  1  0  0  0  0
 12 24  1  0  0  0  0
 13 20  1  0  0  0  0
 13 22  2  0  0  0  0
 14 24  2  0  0  0  0
 14 25  1  0  0  0  0
 15 26  1  0  0  0  0
 16 26  1  0  0  0  0
 16 28  2  0  0  0  0
 16 32  1  0  0  0  0
 17 19  2  0  0  0  0
 17 39  1  0  0  0  0
 18 20  2  0  0  0  0
 18 40  1  0  0  0  0
 19 48  1  0  0  0  0
 20 41  1  0  0  0  0
 21 80  1  0  0  0  0
 22 81  1  0  0  0  0
 23 25  2  0  0  0  0
 23 80  1  0  0  0  0
 24 82  1  0  0  0  0
 25 83  1  0  0  0  0
 26 61  2  0  0  0  0
 27 29  2  0  0  0  0
 27 57  1  0  0  0  0
 27 62  1  0  0  0  0
 28 63  1  0  0  0  0
 28 66  1  0  0  0  0
 29 68  1  0  0  0  0
 29 84  1  0  0  0  0
 30 62  2  0  0  0  0
 30 69  1  0  0  0  0
 30 84  1  0  0  0  0
 31 33  2  0  0  0  0
 31 81  1  0  0  0  0
 32 67  1  0  0  0  0
 32 73  2  0  0  0  0
 33 34  1  0  0  0  0
 33 79  1  0  0  0  0
 34 68  1  0  0  0  0
 34 74  2  0  0  0  0
 35 49  1  0  0  0  0
 35 70  1  0  0  0  0
 35 75  2  0  0  0  0
 36 58  1  0  0  0  0
 36 64  1  0  0  0  0
 36 76  2  0  0  0  0
 37 59  1  0  0  0  0
 37 71  1  0  0  0  0
 37 77  2  0  0  0  0
 38 65  1  0  0  0  0
 38 69  1  0  0  0  0
 38 78  2  0  0  0  0
 39 42  1  0  0  0  0
 40 49  1  0  0  0  0
 41 64  1  0  0  0  0
 42 44  1  0  0  0  0
 43 45  1  0  0  0  0
 43 46  1  0  0  0  0
 44 48  1  0  0  0  0
 45 50  1  0  0  0  0
 46 65  1  0  0  0  0
 47 50  1  0  0  0  0
 47 65  1  0  0  0  0
 48 70  1  0  0  0  0
 49 64  1  0  0  0  0
 50 63  1  0  0  0  0
 51 57  1  0  0  0  0
 52 59  1  0  0  0  0
 53 60  1  0  0  0  0
 54 60  1  0  0  0  0
 55 60  1  0  0  0  0
 56 72  1  0  0  0  0
 58 60  1  0  0  0  0
 58 71  1  0  0  0  0
 59 72  1  0  0  0  0
 61 63  1  0  0  0  0
M  CHG  1  72   1
M  ISO  4  31 101  38 100  69 100  81 101
M  END
> <Batch ID>
0172

> <Smiles>
CCc1nc([100NH:0][100C:0](=O)N2CCCC(n3nc(-c4ccc(Oc5ccc(F)cc5F)cc4)c(C(N)=O)c3N)C2)sc1NC(=O)C(=O)[101CH2:1][101O:1]c1ccc2c(c1)CN(C(=O)C(NC(=O)C(C)NC)C(C)(C)C)C(C(=O)NC1CCCc3ccccc31)C2

> <Shape>
0.285

> <Color>
0.187

> <Negative vol penalty>
0.000

$$$$

  -OEChem-04052304263D

 87 95  0     1  0  0  0  0  0999 V2000
  -22.0964  -10.7383   19.7489 C   0  0  0  0  0  0  0  0  0  0  0  0
  -21.7132  -11.9494   20.3161 C   0  0  0  0  0  0  0  0  0  0  0  0
  -30.4874  -31.3727   22.6508 C   0  0  0  0  0  0  0  0  0  0  0  0
  -29.7160  -29.9115   24.4135 C   0  0  0  0  0  0  0  0  0  0  0  0
  -23.4481  -10.4085   19.6592 C   0  0  0  0  0  0  0  0  0  0  0  0
  -22.6816  -12.8310   20.7952 C   0  0  0  0  0  0  0  0  0  0  0  0
  -21.8013  -17.6224   19.4121 C   0  0  0  0  0  0  0  0  0  0  0  0
  -31.6986  -31.5424   23.3215 C   0  0  0  0  0  0  0  0  0  0  0  0
  -30.9273  -30.0811   25.0841 C   0  0  0  0  0  0  0  0  0  0  0  0
  -20.8251  -18.3207   20.1214 C   0  0  0  0  0  0  0  0  0  0  0  0
  -33.9544  -29.8424   27.0835 C   0  0  0  0  0  0  0  0  0  0  0  0
  -34.5702  -28.7065   27.6089 C   0  0  0  0  0  0  0  0  0  0  0  0
  -22.5487  -19.4011   21.4180 C   0  0  0  0  0  0  0  0  0  0  0  0
  -18.3912  -26.7502   22.8860 C   0  0  0  0  0  0  0  0  0  0  0  0
  -19.2188  -29.0151   23.0363 C   0  0  0  0  0  0  0  0  0  0  0  0
  -34.6997  -27.7517   25.3934 C   0  0  0  0  0  0  0  0  0  0  0  0
  -29.4960  -30.5574   23.1969 C   0  0  0  0  0  0  0  0  0  0  0  0
  -20.6071  -27.2823   22.0838 C   0  0  0  0  0  0  0  0  0  0  0  0
  -27.9315  -29.3958   21.5505 C   0  0  0  0  0  0  0  0  0  0  0  0
  -24.4340  -11.2907   20.1286 C   0  0  0  0  0  0  0  0  0  0  0  0
  -23.1604  -17.8003   19.7084 C   0  0  0  0  0  0  0  0  0  0  0  0
  -24.0477  -12.5121   20.7129 C   0  0  0  0  0  0  0  0  0  0  0  0
  -23.5403  -18.7057   20.7093 C   0  0  0  0  0  0  0  0  0  0  0  0
  -19.5926  -26.3500   22.3011 C   0  0  0  0  0  0  0  0  0  0  0  0
  -20.4202  -28.6149   22.4514 C   0  0  0  0  0  0  0  0  0  0  0  0
  -31.9186  -30.8966   24.5381 C   0  0  0  0  0  0  0  0  0  0  0  0
  -21.1986  -19.2081   21.1265 C   0  0  0  0  0  0  0  0  0  0  0  0
  -33.7112  -29.9329   25.7129 C   0  0  0  0  0  0  0  0  0  0  0  0
  -34.9429  -27.6612   26.7639 C   0  0  0  0  0  0  0  0  0  0  0  0
  -18.2043  -28.0828   23.2535 C   0  0  0  0  0  0  0  0  0  0  0  0
  -34.0838  -28.8876   24.8679 C   0  0  0  0  0  0  0  0  0  0  0  0
  -28.2444  -30.3822   22.5049 C   0  0  0  0  0  0  0  0  0  0  0  0
  -26.6298  -29.6582   21.1996 C   0  0  0  0  0  0  0  0  0  0  0  0
  -21.8660  -26.8630   21.4713 C   0  0  0  0  0  0  0  0  0  0  0  0
  -28.7447  -28.3369   21.0280 C   0  0  0  0  0  0  0  0  0  0  0  0
  -25.4948  -15.9117   20.7513 C   0  0  0  0  0  0  0  0  0  0  0  0
  -27.3282  -18.5323   20.2095 C   0  0  0  0  0  0  0  0  0  0  0  0
  -18.8401  -23.9560   22.0891 C   0  0  0  0  0  0  0  0  0  0  0  0
  -27.5110  -21.9255   19.8946 C   0  0  0  0  0  0  0  0  0  0  0  0
  -21.3835  -30.9403   22.5546 C   0  0  0  0  0  0  0  0  0  0  0  0
  -25.8803  -10.8697   20.0531 C   0  0  0  0  0  0  0  0  0  0  0  0
  -24.2024  -17.0595   18.9160 C   0  0  0  0  0  0  0  0  0  0  0  0
  -24.9868  -18.9478   21.0522 C   0  0  0  0  0  0  0  0  0  0  0  0
  -26.8613  -12.0237   20.2436 C   0  0  0  0  0  0  0  0  0  0  0  0
  -23.6802  -33.6413   22.2274 C   0  0  0  0  0  0  0  0  0  0  0  0
  -26.4528  -12.8798   21.4382 C   0  0  0  0  0  0  0  0  0  0  0  0
  -25.0466  -32.9531   22.1919 C   0  0  0  0  0  0  0  0  0  0  0  0
  -22.7169  -32.9406   23.1838 C   0  0  0  0  0  0  0  0  0  0  0  0
  -23.9256  -30.8097   22.9242 C   0  0  0  0  0  0  0  0  0  0  0  0
  -25.0698  -13.5056   21.2213 C   0  0  1  0  0  0  0  0  0  0  0  0
  -25.5337  -16.9334   19.6502 C   0  0  1  0  0  0  0  0  0  0  0  0
  -24.9093  -31.4412   21.9256 C   0  0  2  0  0  0  0  0  0  0  0  0
  -22.9565  -26.4037   22.3896 C   0  0  0  0  0  0  0  0  0  0  0  0
  -29.1517  -23.7808   19.4905 C   0  0  0  0  0  0  0  0  0  0  0  0
  -28.3174  -18.2804   23.0849 C   0  0  0  0  0  0  0  0  0  0  0  0
  -29.1722  -20.6280   22.9228 C   0  0  0  0  0  0  0  0  0  0  0  0
  -30.0898  -18.8618   21.4191 C   0  0  0  0  0  0  0  0  0  0  0  0
  -26.1372  -22.7554   17.4080 C   0  0  0  0  0  0  0  0  0  0  0  0
  -19.4192  -22.6497   21.5638 C   0  0  0  0  0  0  0  0  0  0  0  0
  -18.4531  -21.4789   21.7078 C   0  0  0  0  0  0  0  0  0  0  0  0
  -19.0351  -20.1957   21.1331 C   0  0  0  0  0  0  0  0  0  1  0  0
  -27.7483  -19.7305   21.0260 C   0  0  1  0  0  0  0  0  0  0  0  0
  -28.1751  -22.8060   18.8514 C   0  0  2  0  0  0  0  0  0  0  0  0
  -28.8045  -19.3694   22.1083 C   0  0  0  0  0  0  0  0  0  0  0  0
  -27.2238  -31.2097   22.7449 N   0  0  0  0  0  0  0  0  0  0  0  0
  -26.2568  -30.7438   21.9361 N   0  0  0  0  0  0  0  0  0  0  0  0
  -25.9680  -18.1950   20.2535 N   0  0  0  0  0  0  0  0  0  0  0  0
  -22.6343  -31.5128   22.8687 N   0  0  0  0  0  0  0  0  0  0  0  0
  -25.7793  -29.0640   20.3358 N   0  0  0  0  0  0  0  0  0  0  0  0
  -30.0593  -28.2102   21.4972 N   0  0  0  0  0  0  0  0  0  0  0  0
  -19.7566  -24.9926   21.9363 N   0  0  0  0  0  0  0  0  0  0  0  0
  -21.4335  -29.5826   22.2403 N   0  0  0  0  0  0  0  0  0  0  0  0
  -25.1627  -14.6394   20.3266 N   0  0  0  0  0  0  0  0  0  0  0  0
  -28.1925  -20.7399   20.0709 N   0  0  0  0  0  0  0  0  0  0  0  0
  -27.1495  -23.5892   18.1058 N   0  3  0  0  0  0  0  0  0  0  0  0
  -22.0911  -26.8659   20.2633 O   0  0  0  0  0  0  0  0  0  0  0  0
  -28.3236  -27.5370   20.1582 O   0  0  0  0  0  0  0  0  0  0  0  0
  -25.7488  -16.2522   21.9007 O   0  0  0  0  0  0  0  0  0  0  0  0
  -28.1745  -17.9224   19.5510 O   0  0  0  0  0  0  0  0  0  0  0  0
  -17.7139  -24.0221   22.5703 O   0  0  0  0  0  0  0  0  0  0  0  0
  -26.4919  -22.2580   20.4958 O   0  0  0  0  0  0  0  0  0  0  0  0
  -20.3486  -31.6116   22.5372 O   0  0  0  0  0  0  0  0  0  0  0  0
  -33.1004  -31.0616   25.1927 O   0  0  0  0  0  0  0  0  0  0  0  0
  -20.2477  -19.8905   21.8208 O   0  0  0  0  0  0  0  0  0  1  0  0
  -35.5356  -26.5711   27.2685 F   0  0  0  0  0  0  0  0  0  0  0  0
  -17.0508  -28.4674   23.8153 F   0  0  0  0  0  0  0  0  0  0  0  0
  -33.8538  -28.9694   23.5502 F   0  0  0  0  0  0  0  0  0  0  0  0
  1  2  1  0  0  0  0
  1  5  2  0  0  0  0
  2  6  2  0  0  0  0
  3  8  2  0  0  0  0
  3 17  1  0  0  0  0
  4  9  1  0  0  0  0
  4 17  2  0  0  0  0
  5 20  1  0  0  0  0
  6 22  1  0  0  0  0
  7 10  2  0  0  0  0
  7 21  1  0  0  0  0
  8 26  1  0  0  0  0
  9 26  2  0  0  0  0
 10 27  1  0  0  0  0
 11 12  2  0  0  0  0
 11 28  1  0  0  0  0
 12 29  1  0  0  0  0
 13 23  1  0  0  0  0
 13 27  2  0  0  0  0
 14 24  1  0  0  0  0
 14 30  2  0  0  0  0
 15 25  2  0  0  0  0
 15 30  1  0  0  0  0
 16 29  2  0  0  0  0
 16 31  1  0  0  0  0
 17 32  1  0  0  0  0
 18 24  2  0  0  0  0
 18 25  1  0  0  0  0
 18 34  1  0  0  0  0
 19 32  1  0  0  0  0
 19 33  2  0  0  0  0
 19 35  1  0  0  0  0
 20 22  2  0  0  0  0
 20 41  1  0  0  0  0
 21 23  2  0  0  0  0
 21 42  1  0  0  0  0
 22 50  1  0  0  0  0
 23 43  1  0  0  0  0
 24 71  1  0  0  0  0
 25 72  1  0  0  0  0
 26 83  1  0  0  0  0
 27 84  1  0  0  0  0
 28 31  2  0  0  0  0
 28 83  1  0  0  0  0
 29 85  1  0  0  0  0
 30 86  1  0  0  0  0
 31 87  1  0  0  0  0
 32 65  2  0  0  0  0
 33 66  1  0  0  0  0
 33 69  1  0  0  0  0
 34 53  1  0  0  0  0
 34 76  2  0  0  0  0
 35 70  1  0  0  0  0
 35 77  2  0  0  0  0
 36 51  1  0  0  0  0
 36 73  1  0  0  0  0
 36 78  2  0  0  0  0
 37 62  1  0  0  0  0
 37 67  1  0  0  0  0
 37 79  2  0  0  0  0
 38 59  1  0  0  0  0
 38 71  1  0  0  0  0
 38 80  2  0  0  0  0
 39 63  1  0  0  0  0
 39 74  1  0  0  0  0
 39 81  2  0  0  0  0
 40 68  1  0  0  0  0
 40 72  1  0  0  0  0
 40 82  2  0  0  0  0
 41 44  1  0  0  0  0
 42 51  1  0  0  0  0
 43 67  1  0  0  0  0
 44 46  1  0  0  0  0
 45 47  1  0  0  0  0
 45 48  1  0  0  0  0
 46 50  1  0  0  0  0
 47 52  1  0  0  0  0
 48 68  1  0  0  0  0
 49 52  1  0  0  0  0
 49 68  1  0  0  0  0
 50 73  1  0  0  0  0
 51 67  1  0  0  0  0
 52 66  1  0  0  0  0
 54 63  1  0  0  0  0
 55 64  1  0  0  0  0
 56 64  1  0  0  0  0
 57 64  1  0  0  0  0
 58 75  1  0  0  0  0
 59 60  1  0  0  0  0
 60 61  1  0  0  0  0
 61 84  1  0  0  0  0
 62 64  1  0  0  0  0
 62 74  1  0  0  0  0
 63 75  1  0  0  0  0
 65 66  1  0  0  0  0
M  CHG  1  75   1
M  ISO  4  40 100  61 101  72 100  84 101
M  END
> <Batch ID>
0172

> <Smiles>
CNC(C)C(=O)NC(C(=O)N1Cc2cc([101O:1][101CH2:1]CCC(=O)Nc3cc(F)cc([100NH:0][100C:0](=O)N4CCCC(n5nc(-c6ccc(Oc7ccc(F)cc7F)cc6)c(C(N)=O)c5N)C4)c3C(C)=O)ccc2CC1C(=O)NC1CCCc2ccccc21)C(C)(C)C

> <Shape>
0.229

> <Color>
0.074

> <Negative vol penalty>
0.000

$$$$

  -OEChem-04052304263D

 90 98  0     1  0  0  0  0  0999 V2000
  -22.4832  -32.5987   14.3677 C   0  0  0  0  0  0  0  0  0  0  0  0
  -23.5127  -31.8356   14.9092 C   0  0  0  0  0  0  0  0  0  0  0  0
  -24.9212   -8.1970   21.5043 C   0  0  0  0  0  0  0  0  0  0  0  0
  -23.3346   -9.6156   20.3609 C   0  0  0  0  0  0  0  0  0  0  0  0
  -22.0870  -33.7786   14.9959 C   0  0  0  0  0  0  0  0  0  0  0  0
  -24.1474  -32.2526   16.0787 C   0  0  0  0  0  0  0  0  0  0  0  0
  -24.8098  -28.4731   19.3834 C   0  0  0  0  0  0  0  0  0  0  0  0
  -23.9048   -7.7335   22.3397 C   0  0  0  0  0  0  0  0  0  0  0  0
  -22.3182   -9.1520   21.1963 C   0  0  0  0  0  0  0  0  0  0  0  0
  -25.8594  -27.5890   19.1376 C   0  0  0  0  0  0  0  0  0  0  0  0
  -21.3597   -5.5138   22.1708 C   0  0  0  0  0  0  0  0  0  0  0  0
  -21.2899   -4.1408   22.4064 C   0  0  0  0  0  0  0  0  0  0  0  0
  -27.2115  -28.7523   20.7617 C   0  0  0  0  0  0  0  0  0  0  0  0
  -27.1356  -18.1752   18.9211 C   0  0  0  0  0  0  0  0  0  0  0  0
  -25.3765  -17.0324   17.7225 C   0  0  0  0  0  0  0  0  0  0  0  0
  -21.5862   -4.5317   24.7721 C   0  0  0  0  0  0  0  0  0  0  0  0
  -24.6361   -9.1381   20.5150 C   0  0  0  0  0  0  0  0  0  0  0  0
  -26.0872   -9.0724   18.4180 C   0  0  0  0  0  0  0  0  0  0  0  0
  -22.7106  -34.2054   16.1790 C   0  0  0  0  0  0  0  0  0  0  0  0
  -24.9571  -29.5118   20.3138 C   0  0  0  0  0  0  0  0  0  0  0  0
  -23.7600  -33.4401   16.7226 C   0  0  0  0  0  0  0  0  0  0  0  0
  -26.1613  -29.6467   21.0193 C   0  0  0  0  0  0  0  0  0  0  0  0
  -26.6034  -17.0023   18.3856 C   0  0  0  0  0  0  0  0  0  0  0  0
  -26.4409  -19.3781   18.7937 C   0  0  0  0  0  0  0  0  0  0  0  0
  -25.2141  -19.4081   18.1307 C   0  0  0  0  0  0  0  0  0  0  0  0
  -22.6033   -8.2110   22.1856 C   0  0  0  0  0  0  0  0  0  0  0  0
  -27.0615  -27.7303   19.8247 C   0  0  0  0  0  0  0  0  0  0  0  0
  -21.5429   -6.3958   23.2359 C   0  0  0  0  0  0  0  0  0  0  0  0
  -21.4031   -3.6497   23.7071 C   0  0  0  0  0  0  0  0  0  0  0  0
  -24.6819  -18.2353   17.5951 C   0  0  0  0  0  0  0  0  0  0  0  0
  -21.6561   -5.9047   24.5365 C   0  0  0  0  0  0  0  0  0  0  0  0
  -25.6856   -9.6177   19.6521 C   0  0  0  0  0  0  0  0  0  0  0  0
  -27.1130   -9.8851   18.0010 C   0  0  0  0  0  0  0  0  0  0  0  0
  -25.5784   -7.9332   17.7115 C   0  0  0  0  0  0  0  0  0  0  0  0
  -24.8725  -32.6858   20.1644 C   0  0  0  0  0  0  0  0  0  0  0  0
  -28.8152  -24.5593   19.6252 C   0  0  0  0  0  0  0  0  0  0  0  0
  -25.1061  -32.4551   23.3916 C   0  0  0  0  0  0  0  0  0  0  0  0
  -26.0704  -30.6204   26.1028 C   0  0  0  0  0  0  0  0  0  0  0  0
  -28.2051  -20.6873   20.0309 C   0  0  0  0  0  0  0  0  0  0  0  0
  -28.5356  -15.5750   19.1440 C   0  0  0  0  0  0  0  0  0  0  0  0
  -22.2796  -35.5123   16.7961 C   0  0  0  0  0  0  0  0  0  0  0  0
  -23.8061  -30.4408   20.5870 C   0  0  0  0  0  0  0  0  0  0  0  0
  -26.3633  -30.7327   22.0431 C   0  0  0  0  0  0  0  0  0  0  0  0
  -22.7510  -35.6902   18.2371 C   0  0  0  0  0  0  0  0  0  0  0  0
  -30.5793  -12.7145   19.7079 C   0  0  0  0  0  0  0  0  0  0  0  0
  -24.2247  -35.3183   18.3665 C   0  0  0  0  0  0  0  0  0  0  0  0
  -29.5938  -11.5456   19.6392 C   0  0  0  0  0  0  0  0  0  0  0  0
  -29.9562  -13.9437   20.3671 C   0  0  0  0  0  0  0  0  0  0  0  0
  -27.6956  -13.2122   19.7161 C   0  0  0  0  0  0  0  0  0  0  0  0
  -24.4561  -33.8465   18.0033 C   0  0  1  0  0  0  0  0  0  0  0  0
  -24.2439  -31.7758   21.1814 C   0  0  1  0  0  0  0  0  0  0  0  0
  -28.2571  -11.9722   19.0015 C   0  0  2  0  0  0  0  0  0  0  0  0
  -29.6549  -22.6813   18.2318 C   0  0  0  0  0  0  0  0  0  0  0  0
  -26.1689  -30.7110   28.6087 C   0  0  0  0  0  0  0  0  0  0  0  0
  -27.3656  -22.5825   21.4514 C   0  0  0  0  0  0  0  0  0  0  0  0
  -29.8073  -22.1368   21.3177 C   0  0  0  0  0  0  0  0  0  0  0  0
  -27.5049  -34.3335   23.2269 C   0  0  0  0  0  0  0  0  0  0  0  0
  -28.1209  -33.6379   25.5518 C   0  0  0  0  0  0  0  0  0  0  0  0
  -25.9497  -34.7919   25.1310 C   0  0  0  0  0  0  0  0  0  0  0  0
  -24.2994  -28.2647   26.3733 C   0  0  0  0  0  0  0  0  0  0  0  0
  -27.7437  -25.5420   19.1906 C   0  0  0  0  0  0  0  0  0  1  0  0
  -28.5868  -23.0901   19.2528 C   0  0  1  0  0  0  0  0  0  0  0  0
  -26.2461  -32.3963   24.3794 C   0  0  1  0  0  0  0  0  0  0  0  0
  -25.3537  -30.2840   27.3980 C   0  0  2  0  0  0  0  0  0  0  0  0
  -28.4982  -22.1451   20.4963 C   0  0  0  0  0  0  0  0  0  0  0  0
  -26.9526  -33.7705   24.5517 C   0  0  0  0  0  0  0  0  0  0  0  0
  -26.3983  -10.6935   19.9969 N   0  0  0  0  0  0  0  0  0  0  0  0
  -27.2580  -10.8307   18.9731 N   0  0  0  0  0  0  0  0  0  0  0  0
  -25.2105  -31.6199   22.2703 N   0  0  0  0  0  0  0  0  0  0  0  0
  -28.6955  -14.2915   19.7079 N   0  0  0  0  0  0  0  0  0  0  0  0
  -24.4946  -20.6166   17.9920 N   0  0  0  0  0  0  0  0  0  0  0  0
  -27.8961   -9.8759   16.9014 N   0  0  0  0  0  0  0  0  0  0  0  0
  -24.5220   -7.2103   18.2821 N   0  0  0  0  0  0  0  0  0  0  0  0
  -27.0005  -20.5560   19.3460 N   0  0  0  0  0  0  0  0  0  0  0  0
  -27.3077  -15.7798   18.5156 N   0  0  0  0  0  0  0  0  0  0  0  0
  -24.0510  -32.9869   19.0948 N   0  0  0  0  0  0  0  0  0  0  0  0
  -25.6894  -31.8518   25.6132 N   0  0  0  0  0  0  0  0  0  0  0  0
  -25.1102  -28.8165   27.4892 N   0  3  0  0  0  0  0  0  0  0  0  0
  -26.0577   -7.5575   16.6148 O   0  0  0  0  0  0  0  0  0  0  0  0
  -26.0176  -33.0864   20.3380 O   0  0  0  0  0  0  0  0  0  0  0  0
  -29.8197  -24.9296   20.2330 O   0  0  0  0  0  0  0  0  0  0  0  0
  -24.1545  -33.2089   23.6104 O   0  0  0  0  0  0  0  0  0  0  0  0
  -26.8894  -29.8678   25.5798 O   0  0  0  0  0  0  0  0  0  0  0  0
  -29.0017  -19.7789   20.2621 O   0  0  0  0  0  0  0  0  0  0  0  0
  -29.4331  -16.4202   19.1897 O   0  0  0  0  0  0  0  0  0  0  0  0
  -21.6113   -7.7587   23.0004 O   0  0  0  0  0  0  0  0  0  0  0  0
  -28.0879  -26.8692   19.5862 O   0  0  0  0  0  0  0  0  0  1  0  0
  -21.3344   -2.3313   23.9333 F   0  0  0  0  0  0  0  0  0  0  0  0
  -23.5030  -18.2516   16.9567 F   0  0  0  0  0  0  0  0  0  0  0  0
  -21.8310   -6.7472   25.5638 F   0  0  0  0  0  0  0  0  0  0  0  0
  1  2  1  0  0  0  0
  1  5  2  0  0  0  0
  2  6  2  0  0  0  0
  3  8  2  0  0  0  0
  3 17  1  0  0  0  0
  4  9  1  0  0  0  0
  4 17  2  0  0  0  0
  5 19  1  0  0  0  0
  6 21  1  0  0  0  0
  7 10  2  0  0  0  0
  7 20  1  0  0  0  0
  8 26  1  0  0  0  0
  9 26  2  0  0  0  0
 10 27  1  0  0  0  0
 11 12  2  0  0  0  0
 11 28  1  0  0  0  0
 12 29  1  0  0  0  0
 13 22  1  0  0  0  0
 13 27  2  0  0  0  0
 14 23  2  0  0  0  0
 14 24  1  0  0  0  0
 15 23  1  0  0  0  0
 15 30  2  0  0  0  0
 16 29  2  0  0  0  0
 16 31  1  0  0  0  0
 17 32  1  0  0  0  0
 18 32  1  0  0  0  0
 18 33  2  0  0  0  0
 18 34  1  0  0  0  0
 19 21  2  0  0  0  0
 19 41  1  0  0  0  0
 20 22  2  0  0  0  0
 20 42  1  0  0  0  0
 21 50  1  0  0  0  0
 22 43  1  0  0  0  0
 23 75  1  0  0  0  0
 24 25  2  0  0  0  0
 24 74  1  0  0  0  0
 25 30  1  0  0  0  0
 25 71  1  0  0  0  0
 26 86  1  0  0  0  0
 27 87  1  0  0  0  0
 28 31  2  0  0  0  0
 28 86  1  0  0  0  0
 29 88  1  0  0  0  0
 30 89  1  0  0  0  0
 31 90  1  0  0  0  0
 32 67  2  0  0  0  0
 33 68  1  0  0  0  0
 33 72  1  0  0  0  0
 34 73  1  0  0  0  0
 34 79  2  0  0  0  0
 35 51  1  0  0  0  0
 35 76  1  0  0  0  0
 35 80  2  0  0  0  0
 36 61  1  0  0  0  0
 36 62  1  0  0  0  0
 36 81  2  0  0  0  0
 37 63  1  0  0  0  0
 37 69  1  0  0  0  0
 37 82  2  0  0  0  0
 38 64  1  0  0  0  0
 38 77  1  0  0  0  0
 38 83  2  0  0  0  0
 39 65  1  0  0  0  0
 39 74  1  0  0  0  0
 39 84  2  0  0  0  0
 40 70  1  0  0  0  0
 40 75  1  0  0  0  0
 40 85  2  0  0  0  0
 41 44  1  0  0  0  0
 42 51  1  0  0  0  0
 43 69  1  0  0  0  0
 44 46  1  0  0  0  0
 45 47  1  0  0  0  0
 45 48  1  0  0  0  0
 46 50  1  0  0  0  0
 47 52  1  0  0  0  0
 48 70  1  0  0  0  0
 49 52  1  0  0  0  0
 49 70  1  0  0  0  0
 50 76  1  0  0  0  0
 51 69  1  0  0  0  0
 52 68  1  0  0  0  0
 53 62  1  0  0  0  0
 54 64  1  0  0  0  0
 55 65  1  0  0  0  0
 56 65  1  0  0  0  0
 57 66  1  0  0  0  0
 58 66  1  0  0  0  0
 59 66  1  0  0  0  0
 60 78  1  0  0  0  0
 61 87  1  0  0  0  0
 62 65  1  0  0  0  0
 63 66  1  0  0  0  0
 63 77  1  0  0  0  0
 64 78  1  0  0  0  0
 67 68  1  0  0  0  0
M  CHG  1  78   1
M  ISO  4  40 100  61 101  75 100  87 101
M  END
> <Batch ID>
0172

> <Smiles>
CNC(C)C(=O)NC(C(=O)N1Cc2cc([101O:1][101CH2:1]C(=O)C(C)C(C)(C)C(=O)Nc3cc([100NH:0][100C:0](=O)N4CCCC(n5nc(-c6ccc(Oc7ccc(F)cc7F)cc6)c(C(N)=O)c5N)C4)cc(F)c3N)ccc2CC1C(=O)NC1CCCc2ccccc21)C(C)(C)C

> <Shape>
0.303

> <Color>
0.108

> <Negative vol penalty>
0.000

$$$$

  -OEChem-04052304263D

 86 94  0     1  0  0  0  0  0999 V2000
  -21.6883  -23.3367   19.7996 C   0  0  0  0  0  0  0  0  0  0  0  0
  -22.8876  -22.7253   20.1509 C   0  0  0  0  0  0  0  0  0  0  0  0
  -22.3767  -29.2296   20.6127 C   0  0  0  0  0  0  0  0  0  0  0  0
  -23.4883  -27.4194   21.7636 C   0  0  0  0  0  0  0  0  0  0  0  0
  -20.4776  -22.6996   20.0682 C   0  0  0  0  0  0  0  0  0  0  0  0
  -22.8767  -21.4769   20.7720 C   0  0  0  0  0  0  0  0  0  0  0  0
  -26.2981  -18.3008   18.8096 C   0  0  0  0  0  0  0  0  0  0  0  0
  -21.1510  -28.8008   21.1221 C   0  0  0  0  0  0  0  0  0  0  0  0
  -22.2626  -26.9906   22.2730 C   0  0  0  0  0  0  0  0  0  0  0  0
  -27.6255  -18.4749   19.1990 C   0  0  0  0  0  0  0  0  0  0  0  0
  -17.7760  -28.3966   22.4108 C   0  0  0  0  0  0  0  0  0  0  0  0
  -16.9147  -29.3639   22.9287 C   0  0  0  0  0  0  0  0  0  0  0  0
  -27.3942  -16.6640   20.7758 C   0  0  0  0  0  0  0  0  0  0  0  0
  -18.5896  -29.9840   24.5557 C   0  0  0  0  0  0  0  0  0  0  0  0
  -23.5453  -28.5389   20.9334 C   0  0  0  0  0  0  0  0  0  0  0  0
  -25.7018  -29.9004   20.9939 C   0  0  0  0  0  0  0  0  0  0  0  0
  -20.4522  -21.4384   20.6842 C   0  0  0  0  0  0  0  0  0  0  0  0
  -25.5043  -17.3124   19.4092 C   0  0  0  0  0  0  0  0  0  0  0  0
  -21.6644  -20.8230   21.0503 C   0  0  0  0  0  0  0  0  0  0  0  0
  -26.0578  -16.4777   20.3905 C   0  0  0  0  0  0  0  0  0  0  0  0
  -31.7765  -22.8299   17.0095 C   0  0  0  0  0  0  0  0  0  0  0  0
  -21.0940  -27.6813   21.9522 C   0  0  0  0  0  0  0  0  0  0  0  0
  -28.1729  -17.6583   20.1842 C   0  0  0  0  0  0  0  0  0  0  0  0
  -19.0440  -28.2229   22.9654 C   0  0  0  0  0  0  0  0  0  0  0  0
  -17.3216  -30.1576   24.0011 C   0  0  0  0  0  0  0  0  0  0  0  0
  -19.4508  -29.0167   24.0378 C   0  0  0  0  0  0  0  0  0  0  0  0
  -31.0129  -23.8814   16.4252 C   0  0  0  0  0  0  0  0  0  0  0  0
  -24.8117  -28.9810   20.4071 C   0  0  0  0  0  0  0  0  0  0  0  0
  -31.4121  -22.5903   18.3162 C   0  0  0  0  0  0  0  0  0  0  0  0
  -26.7483  -29.9785   20.1077 C   0  0  0  0  0  0  0  0  0  0  0  0
  -30.0937  -24.4053   17.3076 C   0  0  0  0  0  0  0  0  0  0  0  0
  -25.5925  -30.6194   22.2295 C   0  0  0  0  0  0  0  0  0  0  0  0
  -31.9494  -21.5940   19.2784 C   0  0  0  0  0  0  0  0  0  0  0  0
  -22.8410  -17.3216   21.1442 C   0  0  0  0  0  0  0  0  0  0  0  0
  -31.0890  -19.3519   21.5177 C   0  0  0  0  0  0  0  0  0  0  0  0
  -23.0939  -14.1021   20.8380 C   0  0  0  0  0  0  0  0  0  0  0  0
  -25.0939  -11.3926   20.2855 C   0  0  0  0  0  0  0  0  0  0  0  0
  -28.9141  -26.2112   16.0062 C   0  0  0  0  0  0  0  0  0  0  0  0
  -19.1173  -20.8101   20.9971 C   0  0  0  0  0  0  0  0  0  0  0  0
  -24.0821  -17.1198   18.9591 C   0  0  0  0  0  0  0  0  0  0  0  0
  -25.2538  -15.3886   21.0507 C   0  0  0  0  0  0  0  0  0  0  0  0
  -19.2057  -19.3205   21.3190 C   0  0  0  0  0  0  0  0  0  0  0  0
  -27.7494  -29.5289   15.4462 C   0  0  0  0  0  0  0  0  0  0  0  0
  -20.3419  -19.0531   22.3010 C   0  0  0  0  0  0  0  0  0  0  0  0
  -26.9500  -29.8508   16.7109 C   0  0  0  0  0  0  0  0  0  0  0  0
  -27.5851  -28.0689   15.0276 C   0  0  0  0  0  0  0  0  0  0  0  0
  -27.0719  -27.4073   17.3445 C   0  0  0  0  0  0  0  0  0  0  0  0
  -21.6947  -19.4580   21.7031 C   0  0  1  0  0  0  0  0  0  0  0  0
  -23.2150  -16.4205   20.0015 C   0  0  1  0  0  0  0  0  0  0  0  0
  -27.2577  -28.8501   17.8420 C   0  0  2  0  0  0  0  0  0  0  0  0
  -31.5985  -21.3516   22.9508 C   0  0  0  0  0  0  0  0  0  0  0  0
  -25.0209   -8.8890   20.1318 C   0  0  0  0  0  0  0  0  0  0  0  0
  -22.9020  -13.9235   23.8780 C   0  0  0  0  0  0  0  0  0  0  0  0
  -23.7738  -11.5815   23.7257 C   0  0  0  0  0  0  0  0  0  0  0  0
  -21.6048  -12.1758   22.6464 C   0  0  0  0  0  0  0  0  0  0  0  0
  -26.0317  -11.4217   17.4786 C   0  0  0  0  0  0  0  0  0  0  0  0
  -30.0067  -19.1447   20.4735 C   0  0  0  0  0  0  0  0  0  1  0  0
  -31.7996  -20.7035   21.5894 C   0  0  2  0  0  0  0  0  0  0  0  0
  -23.7649  -13.0028   21.6255 C   0  0  1  0  0  0  0  0  0  0  0  0
  -24.9389  -10.1979   19.3619 C   0  0  2  0  0  0  0  0  0  0  0  0
  -23.0262  -12.6926   22.9580 C   0  0  0  0  0  0  0  0  0  0  0  0
  -25.2540  -28.5090   19.2385 N   0  0  0  0  0  0  0  0  0  0  0  0
  -26.4334  -29.1343   19.0837 N   0  0  0  0  0  0  0  0  0  0  0  0
  -23.8660  -15.2438   20.5809 N   0  0  0  0  0  0  0  0  0  0  0  0
  -27.8974  -27.1791   16.1482 N   0  0  0  0  0  0  0  0  0  0  0  0
  -32.7449  -22.1510   16.3498 N   0  0  0  0  0  0  0  0  0  0  0  0
  -27.8978  -30.6863   20.1122 N   0  0  0  0  0  0  0  0  0  0  0  0
  -24.4515  -30.4216   23.0189 N   0  0  0  0  0  0  0  0  0  0  0  0
  -29.1443  -25.4450   17.1484 N   0  0  0  0  0  0  0  0  0  0  0  0
  -31.3715  -21.5920   20.5417 N   0  0  0  0  0  0  0  0  0  0  0  0
  -22.1517  -18.4570   20.7632 N   0  0  0  0  0  0  0  0  0  0  0  0
  -23.8733  -11.8618   20.7228 N   0  0  0  0  0  0  0  0  0  0  0  0
  -26.0102  -10.2017   18.3259 N   0  3  0  0  0  0  0  0  0  0  0  0
  -26.4728  -31.4261   22.6140 O   0  0  0  0  0  0  0  0  0  0  0  0
  -32.8661  -20.8553   18.9281 O   0  0  0  0  0  0  0  0  0  0  0  0
  -23.1533  -17.0090   22.2873 O   0  0  0  0  0  0  0  0  0  0  0  0
  -31.4303  -18.4308   22.2649 O   0  0  0  0  0  0  0  0  0  0  0  0
  -21.9299  -13.9504   20.4587 O   0  0  0  0  0  0  0  0  0  0  0  0
  -26.1884  -11.8604   20.5916 O   0  0  0  0  0  0  0  0  0  0  0  0
  -29.5534  -26.0905   14.9581 O   0  0  0  0  0  0  0  0  0  0  0  0
  -19.8982  -27.2627   22.4496 O   0  0  0  0  0  0  0  0  0  0  0  0
  -29.4680  -17.8266   20.5666 O   0  0  0  0  0  0  0  0  0  1  0  0
  -16.4950  -31.0875   24.4973 F   0  0  0  0  0  0  0  0  0  0  0  0
  -20.6683  -28.8552   24.5741 F   0  0  0  0  0  0  0  0  0  0  0  0
  -31.1662  -24.3087   15.1695 F   0  0  0  0  0  0  0  0  0  0  0  0
  -30.1541  -23.6304   18.8335 S   0  0  0  0  0  0  0  0  0  0  0  0
  1  2  1  0  0  0  0
  1  5  2  0  0  0  0
  2  6  2  0  0  0  0
  3  8  2  0  0  0  0
  3 15  1  0  0  0  0
  4  9  1  0  0  0  0
  4 15  2  0  0  0  0
  5 17  1  0  0  0  0
  6 19  1  0  0  0  0
  7 10  2  0  0  0  0
  7 18  1  0  0  0  0
  8 22  1  0  0  0  0
  9 22  2  0  0  0  0
 10 23  1  0  0  0  0
 11 12  2  0  0  0  0
 11 24  1  0  0  0  0
 12 25  1  0  0  0  0
 13 20  1  0  0  0  0
 13 23  2  0  0  0  0
 14 25  2  0  0  0  0
 14 26  1  0  0  0  0
 15 28  1  0  0  0  0
 16 28  1  0  0  0  0
 16 30  2  0  0  0  0
 16 32  1  0  0  0  0
 17 19  2  0  0  0  0
 17 39  1  0  0  0  0
 18 20  2  0  0  0  0
 18 40  1  0  0  0  0
 19 48  1  0  0  0  0
 20 41  1  0  0  0  0
 21 27  1  0  0  0  0
 21 29  2  0  0  0  0
 21 66  1  0  0  0  0
 22 81  1  0  0  0  0
 23 82  1  0  0  0  0
 24 26  2  0  0  0  0
 24 81  1  0  0  0  0
 25 83  1  0  0  0  0
 26 84  1  0  0  0  0
 27 31  2  0  0  0  0
 27 85  1  0  0  0  0
 28 62  2  0  0  0  0
 29 33  1  0  0  0  0
 29 86  1  0  0  0  0
 30 63  1  0  0  0  0
 30 67  1  0  0  0  0
 31 69  1  0  0  0  0
 31 86  1  0  0  0  0
 32 68  1  0  0  0  0
 32 74  2  0  0  0  0
 33 70  1  0  0  0  0
 33 75  2  0  0  0  0
 34 49  1  0  0  0  0
 34 71  1  0  0  0  0
 34 76  2  0  0  0  0
 35 57  1  0  0  0  0
 35 58  1  0  0  0  0
 35 77  2  0  0  0  0
 36 59  1  0  0  0  0
 36 64  1  0  0  0  0
 36 78  2  0  0  0  0
 37 60  1  0  0  0  0
 37 72  1  0  0  0  0
 37 79  2  0  0  0  0
 38 65  1  0  0  0  0
 38 69  1  0  0  0  0
 38 80  2  0  0  0  0
 39 42  1  0  0  0  0
 40 49  1  0  0  0  0
 41 64  1  0  0  0  0
 42 44  1  0  0  0  0
 43 45  1  0  0  0  0
 43 46  1  0  0  0  0
 44 48  1  0  0  0  0
 45 50  1  0  0  0  0
 46 65  1  0  0  0  0
 47 50  1  0  0  0  0
 47 65  1  0  0  0  0
 48 71  1  0  0  0  0
 49 64  1  0  0  0  0
 50 63  1  0  0  0  0
 51 58  1  0  0  0  0
 52 60  1  0  0  0  0
 53 61  1  0  0  0  0
 54 61  1  0  0  0  0
 55 61  1  0  0  0  0
 56 73  1  0  0  0  0
 57 82  1  0  0  0  0
 58 70  1  0  0  0  0
 59 61  1  0  0  0  0
 59 72  1  0  0  0  0
 60 73  1  0  0  0  0
 62 63  1  0  0  0  0
M  CHG  1  73   1
M  ISO  4  38 100  57 101  69 100  82 101
M  END
> <Batch ID>
0172

> <Smiles>
CNC(C)C(=O)NC(C(=O)N1Cc2cc([101O:1][101CH2:1]C(=O)C(C)NC(=O)c3sc([100NH:0][100C:0](=O)N4CCCC(n5nc(-c6ccc(Oc7ccc(F)cc7F)cc6)c(C(N)=O)c5N)C4)c(F)c3N)ccc2CC1C(=O)NC1CCCc2ccccc21)C(C)(C)C

> <Shape>
0.221

> <Color>
0.053

> <Negative vol penalty>
0.000

$$$$

  -OEChem-04052304263D

 86 94  0     1  0  0  0  0  0999 V2000
  -27.2731  -22.8595   18.6959 C   0  0  0  0  0  0  0  0  0  0  0  0
  -26.1087  -23.3596   19.2699 C   0  0  0  0  0  0  0  0  0  0  0  0
  -26.5588  -13.7268   21.1186 C   0  0  0  0  0  0  0  0  0  0  0  0
  -24.8193  -13.4963   19.4579 C   0  0  0  0  0  0  0  0  0  0  0  0
  -28.5159  -23.3183   19.1305 C   0  0  0  0  0  0  0  0  0  0  0  0
  -26.1865  -24.3181   20.2797 C   0  0  0  0  0  0  0  0  0  0  0  0
  -22.8893  -28.1051   19.6218 C   0  0  0  0  0  0  0  0  0  0  0  0
  -26.4851  -12.3598   21.3856 C   0  0  0  0  0  0  0  0  0  0  0  0
  -24.7456  -12.1292   19.7249 C   0  0  0  0  0  0  0  0  0  0  0  0
  -21.5609  -27.8599   19.9668 C   0  0  0  0  0  0  0  0  0  0  0  0
  -23.8468   -8.6429   20.2226 C   0  0  0  0  0  0  0  0  0  0  0  0
  -22.5795   -8.0758   20.3563 C   0  0  0  0  0  0  0  0  0  0  0  0
  -19.7586  -22.4859   23.1458 C   0  0  0  0  0  0  0  0  0  0  0  0
  -21.8986  -29.0103   22.0601 C   0  0  0  0  0  0  0  0  0  0  0  0
  -22.1148   -9.5519   22.2116 C   0  0  0  0  0  0  0  0  0  0  0  0
  -20.5303  -21.4048   22.7861 C   0  0  0  0  0  0  0  0  0  0  0  0
  -25.7259  -14.2951   20.1547 C   0  0  0  0  0  0  0  0  0  0  0  0
  -26.6223  -16.3455   18.9300 C   0  0  0  0  0  0  0  0  0  0  0  0
  -28.6087  -24.2900   20.1394 C   0  0  0  0  0  0  0  0  0  0  0  0
  -23.7367  -28.7964   20.4995 C   0  0  0  0  0  0  0  0  0  0  0  0
  -27.4317  -24.7894   20.7291 C   0  0  0  0  0  0  0  0  0  0  0  0
  -23.2366  -29.2652   21.7227 C   0  0  0  0  0  0  0  0  0  0  0  0
  -19.6146  -23.2949   22.0009 C   0  0  0  0  0  0  0  0  0  0  0  0
  -25.5785  -11.5609   20.6888 C   0  0  0  0  0  0  0  0  0  0  0  0
  -21.0662  -28.3100   21.1873 C   0  0  0  0  0  0  0  0  0  0  0  0
  -24.2482   -9.6644   21.0834 C   0  0  0  0  0  0  0  0  0  0  0  0
  -21.7134   -8.5304   21.3508 C   0  0  0  0  0  0  0  0  0  0  0  0
  -23.3822  -10.1189   22.0779 C   0  0  0  0  0  0  0  0  0  0  0  0
  -25.8012  -15.7073   19.8788 C   0  0  0  0  0  0  0  0  0  0  0  0
  -20.3016  -22.6820   20.9767 C   0  0  0  0  0  0  0  0  0  0  0  0
  -26.3220  -17.6796   19.0580 C   0  0  0  0  0  0  0  0  0  0  0  0
  -27.5714  -15.7827   18.0145 C   0  0  0  0  0  0  0  0  0  0  0  0
  -17.5367  -26.4035   22.4255 C   0  0  0  0  0  0  0  0  0  0  0  0
  -18.1843  -25.1353   22.9018 C   0  0  0  0  0  0  0  0  0  0  0  0
  -26.4210  -28.0895   22.0484 C   0  0  0  0  0  0  0  0  0  0  0  0
  -26.3141  -31.2261   22.8684 C   0  0  0  0  0  0  0  0  0  0  0  0
  -24.4348  -34.0366   23.3338 C   0  0  0  0  0  0  0  0  0  0  0  0
  -21.6387  -20.5613   20.7533 C   0  0  0  0  0  0  0  0  0  0  0  0
  -29.9757  -24.7205   20.6091 C   0  0  0  0  0  0  0  0  0  0  0  0
  -25.1599  -29.0761   20.1010 C   0  0  0  0  0  0  0  0  0  0  0  0
  -24.0998  -30.0298   22.6916 C   0  0  0  0  0  0  0  0  0  0  0  0
  -29.9613  -26.0118   21.4231 C   0  0  0  0  0  0  0  0  0  0  0  0
  -24.8013  -20.8960   22.2442 C   0  0  0  0  0  0  0  0  0  0  0  0
  -28.8528  -25.9704   22.4702 C   0  0  0  0  0  0  0  0  0  0  0  0
  -25.5072  -19.6498   21.7124 C   0  0  0  0  0  0  0  0  0  0  0  0
  -23.3481  -20.6129   22.6309 C   0  0  0  0  0  0  0  0  0  0  0  0
  -23.2601  -18.7382   21.0196 C   0  0  0  0  0  0  0  0  0  0  0  0
  -27.4743  -25.8480   21.8097 C   0  0  1  0  0  0  0  0  0  0  0  0
  -26.0733  -29.3415   21.2938 C   0  0  1  0  0  0  0  0  0  0  0  0
  -24.7034  -19.0088   20.5679 C   0  0  2  0  0  0  0  0  0  0  0  0
  -24.6222  -36.4365   24.0430 C   0  0  0  0  0  0  0  0  0  0  0  0
  -26.5569  -30.3445   25.7793 C   0  0  0  0  0  0  0  0  0  0  0  0
  -25.7932  -32.6289   26.4622 C   0  0  0  0  0  0  0  0  0  0  0  0
  -27.9166  -32.3566   25.1818 C   0  0  0  0  0  0  0  0  0  0  0  0
  -23.4572  -35.0078   20.7147 C   0  0  0  0  0  0  0  0  0  0  0  0
  -17.9884  -27.6816   23.0975 C   0  0  0  0  0  0  0  0  0  0  0  0
  -19.4778  -27.9324   22.9166 C   0  0  0  0  0  0  0  0  0  1  0  0
  -25.7062  -32.0143   24.0034 C   0  0  1  0  0  0  0  0  0  0  0  0
  -24.6322  -35.4685   22.8700 C   0  0  2  0  0  0  0  0  0  0  0  0
  -20.5284  -23.1928   19.6026 C   0  0  0  0  0  0  0  0  0  0  0  0
  -26.4772  -31.8200   25.3395 C   0  0  0  0  0  0  0  0  0  0  0  0
  -25.0369  -16.5654   20.5596 N   0  0  0  0  0  0  0  0  0  0  0  0
  -20.8283  -21.4864   21.4351 N   0  0  0  0  0  0  0  0  0  0  0  0
  -25.3764  -17.7565   20.0379 N   0  0  0  0  0  0  0  0  0  0  0  0
  -25.4860  -30.2727   22.2592 N   0  0  0  0  0  0  0  0  0  0  0  0
  -22.6297  -19.9583   21.5258 N   0  0  0  0  0  0  0  0  0  0  0  0
  -26.7773  -18.7828   18.4270 N   0  0  0  0  0  0  0  0  0  0  0  0
  -27.7567  -14.3934   18.0144 N   0  0  0  0  0  0  0  0  0  0  0  0
  -18.8883  -24.5048   21.8987 N   0  0  0  0  0  0  0  0  0  0  0  0
  -27.0511  -27.1275   21.2822 N   0  0  0  0  0  0  0  0  0  0  0  0
  -25.6383  -33.3988   23.5486 N   0  0  0  0  0  0  0  0  0  0  0  0
  -23.5474  -35.8618   21.9269 N   0  3  0  0  0  0  0  0  0  0  0  0
  -28.2475  -16.4923   17.2317 O   0  0  0  0  0  0  0  0  0  0  0  0
  -16.7098  -26.3078   21.5313 O   0  0  0  0  0  0  0  0  0  0  0  0
  -18.0307  -24.8520   24.0782 O   0  0  0  0  0  0  0  0  0  0  0  0
  -26.1398  -28.0033   23.2380 O   0  0  0  0  0  0  0  0  0  0  0  0
  -27.4783  -31.4532   22.5299 O   0  0  0  0  0  0  0  0  0  0  0  0
  -23.3241  -33.5353   23.4934 O   0  0  0  0  0  0  0  0  0  0  0  0
  -21.3686  -20.3246   19.5820 O   0  0  0  0  0  0  0  0  0  0  0  0
  -25.5065  -10.2269   20.9489 O   0  0  0  0  0  0  0  0  0  0  0  0
  -19.7701  -28.0715   21.5268 O   0  0  0  0  0  0  0  0  0  1  0  0
  -20.4959   -7.9868   21.4781 F   0  0  0  0  0  0  0  0  0  0  0  0
  -23.7617  -11.1009   22.9072 F   0  0  0  0  0  0  0  0  0  0  0  0
  -19.9718  -24.4215   19.3689 F   0  0  0  0  0  0  0  0  0  0  0  0
  -21.8498  -23.3405   19.2766 F   0  0  0  0  0  0  0  0  0  0  0  0
  -20.0096  -22.3740   18.6375 F   0  0  0  0  0  0  0  0  0  0  0  0
  1  2  1  0  0  0  0
  1  5  2  0  0  0  0
  2  6  2  0  0  0  0
  3  8  2  0  0  0  0
  3 17  1  0  0  0  0
  4  9  1  0  0  0  0
  4 17  2  0  0  0  0
  5 19  1  0  0  0  0
  6 21  1  0  0  0  0
  7 10  2  0  0  0  0
  7 20  1  0  0  0  0
  8 24  1  0  0  0  0
  9 24  2  0  0  0  0
 10 25  1  0  0  0  0
 11 12  2  0  0  0  0
 11 26  1  0  0  0  0
 12 27  1  0  0  0  0
 13 16  2  0  0  0  0
 13 23  1  0  0  0  0
 14 22  1  0  0  0  0
 14 25  2  0  0  0  0
 15 27  2  0  0  0  0
 15 28  1  0  0  0  0
 16 63  1  0  0  0  0
 17 29  1  0  0  0  0
 18 29  1  0  0  0  0
 18 31  2  0  0  0  0
 18 32  1  0  0  0  0
 19 21  2  0  0  0  0
 19 39  1  0  0  0  0
 20 22  2  0  0  0  0
 20 40  1  0  0  0  0
 21 48  1  0  0  0  0
 22 41  1  0  0  0  0
 23 30  2  0  0  0  0
 23 69  1  0  0  0  0
 24 80  1  0  0  0  0
 25 81  1  0  0  0  0
 26 28  2  0  0  0  0
 26 80  1  0  0  0  0
 27 82  1  0  0  0  0
 28 83  1  0  0  0  0
 29 62  2  0  0  0  0
 30 60  1  0  0  0  0
 30 63  1  0  0  0  0
 31 64  1  0  0  0  0
 31 67  1  0  0  0  0
 32 68  1  0  0  0  0
 32 73  2  0  0  0  0
 33 34  1  0  0  0  0
 33 56  1  0  0  0  0
 33 74  2  0  0  0  0
 34 69  1  0  0  0  0
 34 75  2  0  0  0  0
 35 49  1  0  0  0  0
 35 70  1  0  0  0  0
 35 76  2  0  0  0  0
 36 58  1  0  0  0  0
 36 65  1  0  0  0  0
 36 77  2  0  0  0  0
 37 59  1  0  0  0  0
 37 71  1  0  0  0  0
 37 78  2  0  0  0  0
 38 63  1  0  0  0  0
 38 66  1  0  0  0  0
 38 79  2  0  0  0  0
 39 42  1  0  0  0  0
 40 49  1  0  0  0  0
 41 65  1  0  0  0  0
 42 44  1  0  0  0  0
 43 45  1  0  0  0  0
 43 46  1  0  0  0  0
 44 48  1  0  0  0  0
 45 50  1  0  0  0  0
 46 66  1  0  0  0  0
 47 50  1  0  0  0  0
 47 66  1  0  0  0  0
 48 70  1  0  0  0  0
 49 65  1  0  0  0  0
 50 64  1  0  0  0  0
 51 59  1  0  0  0  0
 52 61  1  0  0  0  0
 53 61  1  0  0  0  0
 54 61  1  0  0  0  0
 55 72  1  0  0  0  0
 56 57  1  0  0  0  0
 57 81  1  0  0  0  0
 58 61  1  0  0  0  0
 58 71  1  0  0  0  0
 59 72  1  0  0  0  0
 60 84  1  0  0  0  0
 60 85  1  0  0  0  0
 60 86  1  0  0  0  0
 62 64  1  0  0  0  0
M  CHG  1  72   1
M  ISO  4  38 100  57 101  63 100  81 101
M  END
> <Batch ID>
0172

> <Smiles>
CNC(C)C(=O)NC(C(=O)N1Cc2cc([101O:1][101CH2:1]CC(=O)C(=O)Nc3cc[100n:0]([100C:0](=O)N4CCCC(n5nc(-c6ccc(Oc7ccc(F)cc7F)cc6)c(C(N)=O)c5N)C4)c3C(F)(F)F)ccc2CC1C(=O)NC1CCCc2ccccc21)C(C)(C)C

> <Shape>
0.250

> <Color>
0.074

> <Negative vol penalty>
0.000

$$$$

  -OEChem-04052304263D

 86 94  0     1  0  0  0  0  0999 V2000
  -29.6313  -17.7609   17.9742 C   0  0  0  0  0  0  0  0  0  0  0  0
  -28.9018  -18.1505   19.0917 C   0  0  0  0  0  0  0  0  0  0  0  0
  -23.0663  -10.0179   19.6213 C   0  0  0  0  0  0  0  0  0  0  0  0
  -23.7823   -9.7434   21.9123 C   0  0  0  0  0  0  0  0  0  0  0  0
  -30.0537  -18.7178   17.0538 C   0  0  0  0  0  0  0  0  0  0  0  0
  -28.5843  -19.4957   19.2832 C   0  0  0  0  0  0  0  0  0  0  0  0
  -25.5606  -20.5693   23.0126 C   0  0  0  0  0  0  0  0  0  0  0  0
  -22.3031   -8.8545   19.7203 C   0  0  0  0  0  0  0  0  0  0  0  0
  -23.0191   -8.5800   22.0114 C   0  0  0  0  0  0  0  0  0  0  0  0
  -25.9543  -20.4932   24.3479 C   0  0  0  0  0  0  0  0  0  0  0  0
  -19.7701   -7.7650   22.4591 C   0  0  0  0  0  0  0  0  0  0  0  0
  -18.9904   -7.5988   23.6037 C   0  0  0  0  0  0  0  0  0  0  0  0
  -26.1424  -22.8970   24.4230 C   0  0  0  0  0  0  0  0  0  0  0  0
  -31.8492  -17.3102   22.4347 C   0  0  0  0  0  0  0  0  0  0  0  0
  -20.1928   -5.5698   24.1279 C   0  0  0  0  0  0  0  0  0  0  0  0
  -23.8059  -10.4623   20.7172 C   0  0  0  0  0  0  0  0  0  0  0  0
  -24.1821  -12.9786   20.9021 C   0  0  0  0  0  0  0  0  0  0  0  0
  -29.7514  -20.0767   17.2414 C   0  0  0  0  0  0  0  0  0  0  0  0
  -25.4653  -21.8111   22.3682 C   0  0  0  0  0  0  0  0  0  0  0  0
  -28.9810  -20.4736   18.3532 C   0  0  0  0  0  0  0  0  0  0  0  0
  -25.7449  -22.9863   23.0802 C   0  0  0  0  0  0  0  0  0  0  0  0
  -31.9411  -18.4810   23.2416 C   0  0  0  0  0  0  0  0  0  0  0  0
  -22.2795   -8.1356   20.9154 C   0  0  0  0  0  0  0  0  0  0  0  0
  -26.2480  -21.6570   25.0525 C   0  0  0  0  0  0  0  0  0  0  0  0
  -20.7610   -6.8336   22.1488 C   0  0  0  0  0  0  0  0  0  0  0  0
  -19.2018   -6.5012   24.4382 C   0  0  0  0  0  0  0  0  0  0  0  0
  -20.9724   -5.7360   22.9833 C   0  0  0  0  0  0  0  0  0  0  0  0
  -24.5949  -11.6636   20.6153 C   0  0  0  0  0  0  0  0  0  0  0  0
  -30.7845  -18.7106   23.9538 C   0  0  0  0  0  0  0  0  0  0  0  0
  -25.2905  -13.7493   20.6489 C   0  0  0  0  0  0  0  0  0  0  0  0
  -30.6259  -16.6894   22.5612 C   0  0  0  0  0  0  0  0  0  0  0  0
  -22.9106  -13.4604   21.3567 C   0  0  0  0  0  0  0  0  0  0  0  0
  -30.4642  -19.8020   24.8975 C   0  0  0  0  0  0  0  0  0  0  0  0
  -26.9080  -23.1636   19.8796 C   0  0  0  0  0  0  0  0  0  0  0  0
  -24.7367  -25.5175   20.3960 C   0  0  0  0  0  0  0  0  0  0  0  0
  -29.4608  -22.0969   25.1514 C   0  0  0  0  0  0  0  0  0  0  0  0
  -22.6424  -27.0996   22.5772 C   0  0  0  0  0  0  0  0  0  0  0  0
  -30.7653  -14.6852   21.0413 C   0  0  0  0  0  0  0  0  0  0  0  0
  -30.2268  -21.0694   16.2099 C   0  0  0  0  0  0  0  0  0  0  0  0
  -25.0135  -21.8780   20.9351 C   0  0  0  0  0  0  0  0  0  0  0  0
  -25.6383  -24.3456   22.4403 C   0  0  0  0  0  0  0  0  0  0  0  0
  -30.2270  -22.5057   16.7230 C   0  0  0  0  0  0  0  0  0  0  0  0
  -29.6655  -12.5842   18.3855 C   0  0  0  0  0  0  0  0  0  0  0  0
  -28.8891  -22.8258   17.3727 C   0  0  0  0  0  0  0  0  0  0  0  0
  -28.2143  -12.2656   18.7524 C   0  0  0  0  0  0  0  0  0  0  0  0
  -30.5604  -12.6561   19.6215 C   0  0  0  0  0  0  0  0  0  0  0  0
  -28.6368  -13.2412   21.0452 C   0  0  0  0  0  0  0  0  0  0  0  0
  -28.6500  -21.9347   18.5982 C   0  0  1  0  0  0  0  0  0  0  0  0
  -25.4471  -23.1601   20.2311 C   0  0  1  0  0  0  0  0  0  0  0  0
  -27.6845  -13.2225   19.8383 C   0  0  2  0  0  0  0  0  0  0  0  0
  -21.0261  -29.0140   22.7189 C   0  0  0  0  0  0  0  0  0  0  0  0
  -27.6798  -20.2265   28.0291 C   0  0  0  0  0  0  0  0  0  0  0  0
  -27.0721  -27.4789   20.4917 C   0  0  0  0  0  0  0  0  0  0  0  0
  -25.5374  -29.1464   21.5558 C   0  0  0  0  0  0  0  0  0  0  0  0
  -25.0631  -28.3084   19.2546 C   0  0  0  0  0  0  0  0  0  0  0  0
  -29.6641  -21.1114   22.9327 C   0  0  0  0  0  0  0  0  0  0  0  0
  -20.3920  -25.3011   23.2557 C   0  0  0  0  0  0  0  0  0  0  0  0
  -29.0157  -21.7953   26.5802 C   0  0  0  0  0  0  0  0  0  0  0  0
  -24.7009  -26.7744   21.2314 C   0  0  1  0  0  0  0  0  0  0  0  0
  -21.1911  -27.5263   22.4502 C   0  0  2  0  0  0  0  0  0  0  0  0
  -27.8177  -20.8437   26.6433 C   0  0  2  0  0  0  0  0  0  1  0  0
  -25.5973  -27.9014   20.6452 C   0  0  0  0  0  0  0  0  0  0  0  0
  -25.8662  -11.5988   20.2108 N   0  0  0  0  0  0  0  0  0  0  0  0
  -26.2618  -12.8828   20.2415 N   0  0  0  0  0  0  0  0  0  0  0  0
  -25.1986  -24.3583   21.0353 N   0  0  0  0  0  0  0  0  0  0  0  0
  -29.9980  -13.5846   20.6046 N   0  0  0  0  0  0  0  0  0  0  0  0
  -33.0412  -19.2689   23.2956 N   0  0  0  0  0  0  0  0  0  0  0  0
  -25.5192  -15.0768   20.7373 N   0  0  0  0  0  0  0  0  0  0  0  0
  -21.8809  -12.5330   21.5666 N   0  0  0  0  0  0  0  0  0  0  0  0
  -30.1143  -15.5170   21.9518 N   0  0  0  0  0  0  0  0  0  0  0  0
  -27.2917  -22.1202   19.0589 N   0  0  0  0  0  0  0  0  0  0  0  0
  -23.2940  -27.1374   21.3626 N   0  0  0  0  0  0  0  0  0  0  0  0
  -29.8742  -20.9800   24.3780 N   0  0  0  0  0  0  0  0  0  0  0  0
  -20.3440  -26.7767   23.4206 N   0  3  0  0  0  0  0  0  0  0  0  0
  -22.6890  -14.6791   21.5548 O   0  0  0  0  0  0  0  0  0  0  0  0
  -30.7012  -19.5794   26.0836 O   0  0  0  0  0  0  0  0  0  0  0  0
  -27.6331  -24.0483   20.3192 O   0  0  0  0  0  0  0  0  0  0  0  0
  -24.3617  -25.5611   19.2217 O   0  0  0  0  0  0  0  0  0  0  0  0
  -29.4593  -23.2542   24.7231 O   0  0  0  0  0  0  0  0  0  0  0  0
  -23.1484  -26.7696   23.6475 O   0  0  0  0  0  0  0  0  0  0  0  0
  -31.9052  -14.8910   20.6166 O   0  0  0  0  0  0  0  0  0  0  0  0
  -21.5347   -7.0005   21.0125 O   0  0  0  0  0  0  0  0  0  0  0  0
  -26.6331  -21.5856   26.3557 O   0  0  0  0  0  0  0  0  0  1  0  0
  -18.4541   -6.3425   25.5381 F   0  0  0  0  0  0  0  0  0  0  0  0
  -21.9237   -4.8386   22.6910 F   0  0  0  0  0  0  0  0  0  0  0  0
  -29.5946  -17.5175   23.6489 S   0  0  0  0  0  0  0  0  0  0  0  0
  1  2  1  0  0  0  0
  1  5  2  0  0  0  0
  2  6  2  0  0  0  0
  3  8  2  0  0  0  0
  3 16  1  0  0  0  0
  4  9  1  0  0  0  0
  4 16  2  0  0  0  0
  5 18  1  0  0  0  0
  6 20  1  0  0  0  0
  7 10  2  0  0  0  0
  7 19  1  0  0  0  0
  8 23  1  0  0  0  0
  9 23  2  0  0  0  0
 10 24  1  0  0  0  0
 11 12  2  0  0  0  0
 11 25  1  0  0  0  0
 12 26  1  0  0  0  0
 13 21  1  0  0  0  0
 13 24  2  0  0  0  0
 14 22  1  0  0  0  0
 14 31  2  0  0  0  0
 15 26  2  0  0  0  0
 15 27  1  0  0  0  0
 16 28  1  0  0  0  0
 17 28  1  0  0  0  0
 17 30  2  0  0  0  0
 17 32  1  0  0  0  0
 18 20  2  0  0  0  0
 18 39  1  0  0  0  0
 19 21  2  0  0  0  0
 19 40  1  0  0  0  0
 20 48  1  0  0  0  0
 21 41  1  0  0  0  0
 22 29  2  0  0  0  0
 22 67  1  0  0  0  0
 23 82  1  0  0  0  0
 24 83  1  0  0  0  0
 25 27  2  0  0  0  0
 25 82  1  0  0  0  0
 26 84  1  0  0  0  0
 27 85  1  0  0  0  0
 28 63  2  0  0  0  0
 29 33  1  0  0  0  0
 29 86  1  0  0  0  0
 30 64  1  0  0  0  0
 30 68  1  0  0  0  0
 31 70  1  0  0  0  0
 31 86  1  0  0  0  0
 32 69  1  0  0  0  0
 32 75  2  0  0  0  0
 33 73  1  0  0  0  0
 33 76  2  0  0  0  0
 34 49  1  0  0  0  0
 34 71  1  0  0  0  0
 34 77  2  0  0  0  0
 35 59  1  0  0  0  0
 35 65  1  0  0  0  0
 35 78  2  0  0  0  0
 36 58  1  0  0  0  0
 36 73  1  0  0  0  0
 36 79  2  0  0  0  0
 37 60  1  0  0  0  0
 37 72  1  0  0  0  0
 37 80  2  0  0  0  0
 38 66  1  0  0  0  0
 38 70  1  0  0  0  0
 38 81  2  0  0  0  0
 39 42  1  0  0  0  0
 40 49  1  0  0  0  0
 41 65  1  0  0  0  0
 42 44  1  0  0  0  0
 43 45  1  0  0  0  0
 43 46  1  0  0  0  0
 44 48  1  0  0  0  0
 45 50  1  0  0  0  0
 46 66  1  0  0  0  0
 47 50  1  0  0  0  0
 47 66  1  0  0  0  0
 48 71  1  0  0  0  0
 49 65  1  0  0  0  0
 50 64  1  0  0  0  0
 51 60  1  0  0  0  0
 52 61  1  0  0  0  0
 53 62  1  0  0  0  0
 54 62  1  0  0  0  0
 55 62  1  0  0  0  0
 56 73  1  0  0  0  0
 57 74  1  0  0  0  0
 58 61  1  0  0  0  0
 59 62  1  0  0  0  0
 59 72  1  0  0  0  0
 60 74  1  0  0  0  0
 61 83  1  0  0  0  0
 63 64  1  0  0  0  0
M  CHG  1  74   1
M  ISO  4  38 100  61 101  70 100  83 101
M  END
> <Batch ID>
0172

> <Smiles>
CNC(C)C(=O)NC(C(=O)N1Cc2cc([101O:1][101CH:1](C)CC(=O)N(C)C(=O)c3sc([100NH:0][100C:0](=O)N4CCCC(n5nc(-c6ccc(Oc7ccc(F)cc7F)cc6)c(C(N)=O)c5N)C4)cc3N)ccc2CC1C(=O)NC1CCCc2ccccc21)C(C)(C)C

> <Shape>
0.264

> <Color>
0.161

> <Negative vol penalty>
0.000

$$$$

  -OEChem-04052304263D

 86 94  0     1  0  0  0  0  0999 V2000
  -32.0758  -38.0455   24.8955 C   0  0  0  0  0  0  0  0  0  0  0  0
  -32.3160  -36.7307   24.5094 C   0  0  0  0  0  0  0  0  0  0  0  0
  -24.5140   -9.4476   21.3489 C   0  0  0  0  0  0  0  0  0  0  0  0
  -24.9101  -10.4882   23.4930 C   0  0  0  0  0  0  0  0  0  0  0  0
  -30.9948  -38.3409   25.7249 C   0  0  0  0  0  0  0  0  0  0  0  0
  -31.4758  -35.7103   24.9536 C   0  0  0  0  0  0  0  0  0  0  0  0
  -29.8483  -30.6766   21.8685 C   0  0  0  0  0  0  0  0  0  0  0  0
  -24.2769   -8.2287   21.9843 C   0  0  0  0  0  0  0  0  0  0  0  0
  -24.6730   -9.2693   24.1284 C   0  0  0  0  0  0  0  0  0  0  0  0
  -30.3182  -29.3643   21.8996 C   0  0  0  0  0  0  0  0  0  0  0  0
  -21.7482   -6.7507   23.6736 C   0  0  0  0  0  0  0  0  0  0  0  0
  -20.6450   -6.0060   23.2565 C   0  0  0  0  0  0  0  0  0  0  0  0
  -28.5523  -28.7747   23.4336 C   0  0  0  0  0  0  0  0  0  0  0  0
  -28.8249  -20.3764   21.0094 C   0  0  0  0  0  0  0  0  0  0  0  0
  -28.3082  -21.8099   19.1346 C   0  0  0  0  0  0  0  0  0  0  0  0
  -22.1066   -4.1802   22.6504 C   0  0  0  0  0  0  0  0  0  0  0  0
  -24.8307  -10.5774   22.1033 C   0  0  0  0  0  0  0  0  0  0  0  0
  -24.1309  -12.8329   21.1388 C   0  0  0  0  0  0  0  0  0  0  0  0
  -30.1352  -37.3249   26.1716 C   0  0  0  0  0  0  0  0  0  0  0  0
  -28.7315  -31.0509   22.6294 C   0  0  0  0  0  0  0  0  0  0  0  0
  -30.3830  -35.9922   25.7909 C   0  0  0  0  0  0  0  0  0  0  0  0
  -28.0686  -30.0917   23.4084 C   0  0  0  0  0  0  0  0  0  0  0  0
  -28.3219  -19.2797   20.3095 C   0  0  0  0  0  0  0  0  0  0  0  0
  -28.8180  -21.6415   20.4220 C   0  0  0  0  0  0  0  0  0  0  0  0
  -27.8053  -20.7132   18.4346 C   0  0  0  0  0  0  0  0  0  0  0  0
  -24.3564   -8.1396   23.3740 C   0  0  0  0  0  0  0  0  0  0  0  0
  -29.6720  -28.4139   22.6845 C   0  0  0  0  0  0  0  0  0  0  0  0
  -23.0307   -6.2101   23.5791 C   0  0  0  0  0  0  0  0  0  0  0  0
  -20.8242   -4.7208   22.7449 C   0  0  0  0  0  0  0  0  0  0  0  0
  -23.2098   -4.9249   23.0675 C   0  0  0  0  0  0  0  0  0  0  0  0
  -27.8122  -19.4481   19.0221 C   0  0  0  0  0  0  0  0  0  0  0  0
  -25.0763  -11.8366   21.4475 C   0  0  0  0  0  0  0  0  0  0  0  0
  -24.8613  -13.8211   20.5252 C   0  0  0  0  0  0  0  0  0  0  0  0
  -29.6283  -26.2473   21.8044 C   0  0  0  0  0  0  0  0  0  1  0  0
  -22.7187  -12.8626   21.3848 C   0  0  0  0  0  0  0  0  0  0  0  0
  -30.0062  -24.9645   21.7459 C   0  0  0  0  0  0  0  0  0  0  0  0
  -29.3973  -24.0735   20.7049 C   0  0  0  0  0  0  0  0  0  0  0  0
  -28.2198  -33.1021   25.0032 C   0  0  0  0  0  0  0  0  0  0  0  0
  -29.4221  -17.0560   20.3716 C   0  0  0  0  0  0  0  0  0  0  0  0
  -25.1234  -32.2447   24.5567 C   0  0  0  0  0  0  0  0  0  0  0  0
  -22.8948  -29.9201   23.4268 C   0  0  0  0  0  0  0  0  0  0  0  0
  -29.0074  -37.6866   27.1053 C   0  0  0  0  0  0  0  0  0  0  0  0
  -28.2209  -32.4642   22.5641 C   0  0  0  0  0  0  0  0  0  0  0  0
  -26.8533  -30.4379   24.2279 C   0  0  0  0  0  0  0  0  0  0  0  0
  -27.9450  -36.5973   27.2279 C   0  0  0  0  0  0  0  0  0  0  0  0
  -29.6133  -13.8344   18.8144 C   0  0  0  0  0  0  0  0  0  0  0  0
  -28.5990  -35.2342   27.4306 C   0  0  0  0  0  0  0  0  0  0  0  0
  -28.3891  -13.0994   19.3588 C   0  0  0  0  0  0  0  0  0  0  0  0
  -30.2132  -14.7700   19.8593 C   0  0  0  0  0  0  0  0  0  0  0  0
  -28.0158  -15.0219   20.9681 C   0  0  0  0  0  0  0  0  0  0  0  0
  -29.4796  -34.8611   26.2319 C   0  0  1  0  0  0  0  0  0  0  0  0
  -27.3846  -32.8542   23.7790 C   0  0  1  0  0  0  0  0  0  0  0  0
  -27.3606  -14.0891   19.9341 C   0  0  2  0  0  0  0  0  0  0  0  0
  -20.4311  -29.4848   23.2319 C   0  0  0  0  0  0  0  0  0  0  0  0
  -25.0061  -31.5893   27.5344 C   0  0  0  0  0  0  0  0  0  0  0  0
  -22.9048  -30.3004   27.0968 C   0  0  0  0  0  0  0  0  0  0  0  0
  -22.9799  -32.7519   26.6415 C   0  0  0  0  0  0  0  0  0  0  0  0
  -26.6749  -22.1007   16.6960 C   0  0  0  0  0  0  0  0  0  0  0  0
  -23.0353  -29.7806   20.4739 C   0  0  0  0  0  0  0  0  0  0  0  0
  -28.3313  -17.9282   20.9404 C   0  0  0  0  0  0  0  0  0  0  0  0
  -24.2215  -31.1684   25.1109 C   0  0  1  0  0  0  0  0  0  0  0  0
  -21.6656  -30.0482   22.5453 C   0  0  2  0  0  0  0  0  0  0  0  0
  -23.8021  -31.4461   26.5821 C   0  0  0  0  0  0  0  0  0  0  0  0
  -26.3129  -12.1620   21.0616 N   0  0  0  0  0  0  0  0  0  0  0  0
  -26.1496  -13.3738   20.5041 N   0  0  0  0  0  0  0  0  0  0  0  0
  -26.3963  -31.8343   24.1357 N   0  0  0  0  0  0  0  0  0  0  0  0
  -29.1998  -15.6791   20.3975 N   0  0  0  0  0  0  0  0  0  0  0  0
  -24.5208  -15.0202   20.0069 N   0  0  0  0  0  0  0  0  0  0  0  0
  -22.1289  -11.7646   22.0258 N   0  0  0  0  0  0  0  0  0  0  0  0
  -29.3289  -22.7546   21.1322 N   0  0  0  0  0  0  0  0  0  0  0  0
  -27.2906  -20.8860   17.1325 N   0  0  0  0  0  0  0  0  0  0  0  0
  -28.6631  -34.4050   25.1275 N   0  0  0  0  0  0  0  0  0  0  0  0
  -23.1025  -31.0551   24.1818 N   0  0  0  0  0  0  0  0  0  0  0  0
  -21.8677  -29.3134   21.2647 N   0  3  0  0  0  0  0  0  0  0  0  0
  -21.9983  -13.8269   21.0315 O   0  0  0  0  0  0  0  0  0  0  0  0
  -29.0265  -24.5259   19.6271 O   0  0  0  0  0  0  0  0  0  0  0  0
  -28.4443  -32.1799   25.7784 O   0  0  0  0  0  0  0  0  0  0  0  0
  -30.4394  -17.5847   19.9157 O   0  0  0  0  0  0  0  0  0  0  0  0
  -24.7110  -33.4055   24.4928 O   0  0  0  0  0  0  0  0  0  0  0  0
  -23.5982  -28.9125   23.4466 O   0  0  0  0  0  0  0  0  0  0  0  0
  -30.9394  -24.4257   22.6081 O   0  0  0  0  0  0  0  0  0  0  0  0
  -24.1248   -6.9504   23.9943 O   0  0  0  0  0  0  0  0  0  0  0  0
  -30.1290  -27.1325   22.7173 O   0  0  0  0  0  0  0  0  0  1  0  0
  -19.7645   -4.0052   22.3458 F   0  0  0  0  0  0  0  0  0  0  0  0
  -24.4393   -4.3998   22.9753 F   0  0  0  0  0  0  0  0  0  0  0  0
  -27.3291  -18.3924   18.3498 F   0  0  0  0  0  0  0  0  0  0  0  0
  1  2  1  0  0  0  0
  1  5  2  0  0  0  0
  2  6  2  0  0  0  0
  3  8  2  0  0  0  0
  3 17  1  0  0  0  0
  4  9  1  0  0  0  0
  4 17  2  0  0  0  0
  5 19  1  0  0  0  0
  6 21  1  0  0  0  0
  7 10  2  0  0  0  0
  7 20  1  0  0  0  0
  8 26  1  0  0  0  0
  9 26  2  0  0  0  0
 10 27  1  0  0  0  0
 11 12  2  0  0  0  0
 11 28  1  0  0  0  0
 12 29  1  0  0  0  0
 13 22  1  0  0  0  0
 13 27  2  0  0  0  0
 14 23  2  0  0  0  0
 14 24  1  0  0  0  0
 15 24  2  0  0  0  0
 15 25  1  0  0  0  0
 16 29  2  0  0  0  0
 16 30  1  0  0  0  0
 17 32  1  0  0  0  0
 18 32  1  0  0  0  0
 18 33  2  0  0  0  0
 18 35  1  0  0  0  0
 19 21  2  0  0  0  0
 19 42  1  0  0  0  0
 20 22  2  0  0  0  0
 20 43  1  0  0  0  0
 21 51  1  0  0  0  0
 22 44  1  0  0  0  0
 23 31  1  0  0  0  0
 23 60  1  0  0  0  0
 24 70  1  0  0  0  0
 25 31  2  0  0  0  0
 25 71  1  0  0  0  0
 26 82  1  0  0  0  0
 27 83  1  0  0  0  0
 28 30  2  0  0  0  0
 28 82  1  0  0  0  0
 29 84  1  0  0  0  0
 30 85  1  0  0  0  0
 31 86  1  0  0  0  0
 32 64  2  0  0  0  0
 33 65  1  0  0  0  0
 33 68  1  0  0  0  0
 34 36  2  0  0  0  0
 34 83  1  0  0  0  0
 35 69  1  0  0  0  0
 35 75  2  0  0  0  0
 36 37  1  0  0  0  0
 36 81  1  0  0  0  0
 37 70  1  0  0  0  0
 37 76  2  0  0  0  0
 38 52  1  0  0  0  0
 38 72  1  0  0  0  0
 38 77  2  0  0  0  0
 39 60  1  0  0  0  0
 39 67  1  0  0  0  0
 39 78  2  0  0  0  0
 40 61  1  0  0  0  0
 40 66  1  0  0  0  0
 40 79  2  0  0  0  0
 41 62  1  0  0  0  0
 41 73  1  0  0  0  0
 41 80  2  0  0  0  0
 42 45  1  0  0  0  0
 43 52  1  0  0  0  0
 44 66  1  0  0  0  0
 45 47  1  0  0  0  0
 46 48  1  0  0  0  0
 46 49  1  0  0  0  0
 47 51  1  0  0  0  0
 48 53  1  0  0  0  0
 49 67  1  0  0  0  0
 50 53  1  0  0  0  0
 50 67  1  0  0  0  0
 51 72  1  0  0  0  0
 52 66  1  0  0  0  0
 53 65  1  0  0  0  0
 54 62  1  0  0  0  0
 55 63  1  0  0  0  0
 56 63  1  0  0  0  0
 57 63  1  0  0  0  0
 58 71  1  0  0  0  0
 59 74  1  0  0  0  0
 61 63  1  0  0  0  0
 61 73  1  0  0  0  0
 62 74  1  0  0  0  0
 64 65  1  0  0  0  0
M  CHG  1  74   1
M  ISO  4  34 101  39 100  60 100  83 101
M  END
> <Batch ID>
0172

> <Smiles>
CNc1cc(NC(=O)C(=O)[101CH2:1][101O:1]c2ccc3c(c2)CN(C(=O)C(NC(=O)C(C)NC)C(C)(C)C)C(C(=O)NC2CCCc4ccccc42)C3)cc([100CH2:0][100C:0](=O)N2CCCC(n3nc(-c4ccc(Oc5ccc(F)cc5F)cc4)c(C(N)=O)c3N)C2)c1F

> <Shape>
0.305

> <Color>
0.118

> <Negative vol penalty>
0.000

$$$$

  -OEChem-04052304263D

 89 97  0     1  0  0  0  0  0999 V2000
  -28.7988  -37.2132   20.9302 C   0  0  0  0  0  0  0  0  0  0  0  0
  -29.1245  -35.8644   20.8295 C   0  0  0  0  0  0  0  0  0  0  0  0
  -23.6040   -8.7805   20.2263 C   0  0  0  0  0  0  0  0  0  0  0  0
  -23.0158  -10.6759   21.6042 C   0  0  0  0  0  0  0  0  0  0  0  0
  -27.7021  -37.6091   21.6948 C   0  0  0  0  0  0  0  0  0  0  0  0
  -28.3544  -34.9108   21.4943 C   0  0  0  0  0  0  0  0  0  0  0  0
  -27.0571  -29.2402   19.5793 C   0  0  0  0  0  0  0  0  0  0  0  0
  -22.7280   -7.9776   20.9568 C   0  0  0  0  0  0  0  0  0  0  0  0
  -22.1397   -9.8731   22.3346 C   0  0  0  0  0  0  0  0  0  0  0  0
  -27.6128  -27.9979   19.8820 C   0  0  0  0  0  0  0  0  0  0  0  0
  -22.7115   -6.3775   23.9339 C   0  0  0  0  0  0  0  0  0  0  0  0
  -23.1637   -5.1184   24.3284 C   0  0  0  0  0  0  0  0  0  0  0  0
  -25.8926  -27.6377   21.5344 C   0  0  0  0  0  0  0  0  0  0  0  0
  -30.4397  -18.0564   19.7173 C   0  0  0  0  0  0  0  0  0  0  0  0
  -28.3797  -18.1705   18.4602 C   0  0  0  0  0  0  0  0  0  0  0  0
  -21.3688   -4.0842   23.0852 C   0  0  0  0  0  0  0  0  0  0  0  0
  -23.7480  -10.1297   20.5501 C   0  0  0  0  0  0  0  0  0  0  0  0
  -29.5583  -20.1998   19.0347 C   0  0  0  0  0  0  0  0  0  0  0  0
  -24.3583  -11.7079   18.6411 C   0  0  0  0  0  0  0  0  0  0  0  0
  -26.9124  -36.6591   22.3614 C   0  0  0  0  0  0  0  0  0  0  0  0
  -25.9195  -29.6961   20.2608 C   0  0  0  0  0  0  0  0  0  0  0  0
  -27.2470  -35.2945   22.2696 C   0  0  0  0  0  0  0  0  0  0  0  0
  -25.3230  -28.8851   21.2367 C   0  0  0  0  0  0  0  0  0  0  0  0
  -29.3602  -17.4180   19.1069 C   0  0  0  0  0  0  0  0  0  0  0  0
  -21.9958   -8.5239   22.0109 C   0  0  0  0  0  0  0  0  0  0  0  0
  -27.0323  -27.1977   20.8617 C   0  0  0  0  0  0  0  0  0  0  0  0
  -21.5879   -6.4901   23.1151 C   0  0  0  0  0  0  0  0  0  0  0  0
  -22.4924   -3.9717   23.9040 C   0  0  0  0  0  0  0  0  0  0  0  0
  -30.5388  -19.4473   19.6813 C   0  0  0  0  0  0  0  0  0  0  0  0
  -28.4788  -19.5614   18.4241 C   0  0  0  0  0  0  0  0  0  0  0  0
  -20.9165   -5.3434   22.6907 C   0  0  0  0  0  0  0  0  0  0  0  0
  -24.6532  -10.9594   19.7963 C   0  0  0  0  0  0  0  0  0  0  0  0
  -25.5456  -12.3157   18.3134 C   0  0  0  0  0  0  0  0  0  0  0  0
  -29.6643  -21.6812   18.9964 C   0  0  0  0  0  0  0  0  0  0  0  0
  -23.1217  -11.8419   17.9281 C   0  0  0  0  0  0  0  0  0  0  0  0
  -25.2780  -32.1701   22.1506 C   0  0  0  0  0  0  0  0  0  0  0  0
  -31.7491  -24.0797   20.9170 C   0  0  0  0  0  0  0  0  0  0  0  0
  -29.2198  -24.2313   20.8803 C   0  0  0  0  0  0  0  0  0  0  0  0
  -22.2441  -31.0404   21.9466 C   0  0  0  0  0  0  0  0  0  0  0  0
  -20.1719  -28.3900   21.3739 C   0  0  0  0  0  0  0  0  0  0  0  0
  -30.1445  -15.1101   19.7431 C   0  0  0  0  0  0  0  0  0  0  0  0
  -25.7649  -37.1389   23.2145 C   0  0  0  0  0  0  0  0  0  0  0  0
  -25.3166  -31.0271   19.9038 C   0  0  0  0  0  0  0  0  0  0  0  0
  -24.0890  -29.3197   21.9830 C   0  0  0  0  0  0  0  0  0  0  0  0
  -24.7771  -36.0351   23.5833 C   0  0  0  0  0  0  0  0  0  0  0  0
  -30.2281  -11.5670   20.0841 C   0  0  0  0  0  0  0  0  0  0  0  0
  -25.5200  -34.7916   24.0614 C   0  0  0  0  0  0  0  0  0  0  0  0
  -28.7609  -11.1546   19.9446 C   0  0  0  0  0  0  0  0  0  0  0  0
  -30.3767  -12.8896   20.8341 C   0  0  0  0  0  0  0  0  0  0  0  0
  -28.1130  -13.5881   20.1579 C   0  0  0  0  0  0  0  0  0  0  0  0
  -26.4211  -34.2282   22.9559 C   0  0  1  0  0  0  0  0  0  0  0  0
  -24.4587  -31.6133   21.0209 C   0  0  1  0  0  0  0  0  0  0  0  0
  -27.9090  -12.2945   19.3525 C   0  0  2  0  0  0  0  0  0  0  0  0
  -32.4711  -25.3431   20.5223 C   0  0  0  0  0  0  0  0  0  0  0  0
  -17.7419  -27.7659   21.3157 C   0  0  0  0  0  0  0  0  0  0  0  0
  -22.1760  -31.0304   24.9971 C   0  0  0  0  0  0  0  0  0  0  0  0
  -20.1636  -29.5457   24.8779 C   0  0  0  0  0  0  0  0  0  0  0  0
  -20.0758  -31.8429   23.9094 C   0  0  0  0  0  0  0  0  0  0  0  0
  -20.3157  -27.6319   18.5167 C   0  0  0  0  0  0  0  0  0  0  0  0
  -28.7354  -25.5951   20.4292 C   0  0  0  0  0  0  0  0  0  1  0  0
  -30.4660  -23.7003   20.1948 C   0  0  2  0  0  0  0  0  0  0  0  0
  -21.4164  -30.0518   22.7319 C   0  0  1  0  0  0  0  0  0  0  0  0
  -18.9352  -28.2476   20.5051 C   0  0  2  0  0  0  0  0  0  0  0  0
  -20.9823  -30.6100   24.1165 C   0  0  0  0  0  0  0  0  0  0  0  0
  -25.9280  -11.0790   20.1768 N   0  0  0  0  0  0  0  0  0  0  0  0
  -26.4446  -11.9098   19.2553 N   0  0  0  0  0  0  0  0  0  0  0  0
  -23.5405  -30.6320   21.6025 N   0  0  0  0  0  0  0  0  0  0  0  0
  -29.5446  -13.9232   20.2143 N   0  0  0  0  0  0  0  0  0  0  0  0
  -25.8979  -13.1523   17.3142 N   0  0  0  0  0  0  0  0  0  0  0  0
  -21.9992  -11.1487   18.4011 N   0  0  0  0  0  0  0  0  0  0  0  0
  -29.2590  -16.0052   19.1437 N   0  0  0  0  0  0  0  0  0  0  0  0
  -30.3067  -22.2779   20.0758 N   0  0  0  0  0  0  0  0  0  0  0  0
  -25.6344  -33.4952   21.9873 N   0  0  0  0  0  0  0  0  0  0  0  0
  -20.3055  -29.6710   21.8662 N   0  0  0  0  0  0  0  0  0  0  0  0
  -19.1829  -27.2706   19.4074 N   0  3  0  0  0  0  0  0  0  0  0  0
  -29.1755  -22.2935   18.0506 O   0  0  0  0  0  0  0  0  0  0  0  0
  -23.0193  -12.5422   16.8924 O   0  0  0  0  0  0  0  0  0  0  0  0
  -25.5643  -31.4513   23.1009 O   0  0  0  0  0  0  0  0  0  0  0  0
  -32.1735  -23.3858   21.8445 O   0  0  0  0  0  0  0  0  0  0  0  0
  -28.6533  -23.6046   21.7761 O   0  0  0  0  0  0  0  0  0  0  0  0
  -21.7558  -32.1318   21.6434 O   0  0  0  0  0  0  0  0  0  0  0  0
  -20.9403  -27.4571   21.5968 O   0  0  0  0  0  0  0  0  0  0  0  0
  -31.3589  -15.3055   19.8381 O   0  0  0  0  0  0  0  0  0  0  0  0
  -21.1407   -7.7408   22.7237 O   0  0  0  0  0  0  0  0  0  0  0  0
  -27.5730  -25.9849   21.1595 O   0  0  0  0  0  0  0  0  0  1  0  0
  -22.9277   -2.7625   24.2817 F   0  0  0  0  0  0  0  0  0  0  0  0
  -31.5806  -20.0500   20.2719 F   0  0  0  0  0  0  0  0  0  0  0  0
  -27.5309  -20.2744   17.7986 F   0  0  0  0  0  0  0  0  0  0  0  0
  -19.8372   -5.4451   21.9030 F   0  0  0  0  0  0  0  0  0  0  0  0
  1  2  1  0  0  0  0
  1  5  2  0  0  0  0
  2  6  2  0  0  0  0
  3  8  2  0  0  0  0
  3 17  1  0  0  0  0
  4  9  1  0  0  0  0
  4 17  2  0  0  0  0
  5 20  1  0  0  0  0
  6 22  1  0  0  0  0
  7 10  2  0  0  0  0
  7 21  1  0  0  0  0
  8 25  1  0  0  0  0
  9 25  2  0  0  0  0
 10 26  1  0  0  0  0
 11 12  2  0  0  0  0
 11 27  1  0  0  0  0
 12 28  1  0  0  0  0
 13 23  1  0  0  0  0
 13 26  2  0  0  0  0
 14 24  1  0  0  0  0
 14 29  2  0  0  0  0
 15 24  2  0  0  0  0
 15 30  1  0  0  0  0
 16 28  2  0  0  0  0
 16 31  1  0  0  0  0
 17 32  1  0  0  0  0
 18 29  1  0  0  0  0
 18 30  2  0  0  0  0
 18 34  1  0  0  0  0
 19 32  1  0  0  0  0
 19 33  2  0  0  0  0
 19 35  1  0  0  0  0
 20 22  2  0  0  0  0
 20 42  1  0  0  0  0
 21 23  2  0  0  0  0
 21 43  1  0  0  0  0
 22 51  1  0  0  0  0
 23 44  1  0  0  0  0
 24 71  1  0  0  0  0
 25 84  1  0  0  0  0
 26 85  1  0  0  0  0
 27 31  2  0  0  0  0
 27 84  1  0  0  0  0
 28 86  1  0  0  0  0
 29 87  1  0  0  0  0
 30 88  1  0  0  0  0
 31 89  1  0  0  0  0
 32 65  2  0  0  0  0
 33 66  1  0  0  0  0
 33 69  1  0  0  0  0
 34 72  1  0  0  0  0
 34 76  2  0  0  0  0
 35 70  1  0  0  0  0
 35 77  2  0  0  0  0
 36 52  1  0  0  0  0
 36 73  1  0  0  0  0
 36 78  2  0  0  0  0
 37 54  1  0  0  0  0
 37 61  1  0  0  0  0
 37 79  2  0  0  0  0
 38 60  1  0  0  0  0
 38 61  1  0  0  0  0
 38 80  2  0  0  0  0
 39 62  1  0  0  0  0
 39 67  1  0  0  0  0
 39 81  2  0  0  0  0
 40 63  1  0  0  0  0
 40 74  1  0  0  0  0
 40 82  2  0  0  0  0
 41 68  1  0  0  0  0
 41 71  1  0  0  0  0
 41 83  2  0  0  0  0
 42 45  1  0  0  0  0
 43 52  1  0  0  0  0
 44 67  1  0  0  0  0
 45 47  1  0  0  0  0
 46 48  1  0  0  0  0
 46 49  1  0  0  0  0
 47 51  1  0  0  0  0
 48 53  1  0  0  0  0
 49 68  1  0  0  0  0
 50 53  1  0  0  0  0
 50 68  1  0  0  0  0
 51 73  1  0  0  0  0
 52 67  1  0  0  0  0
 53 66  1  0  0  0  0
 55 63  1  0  0  0  0
 56 64  1  0  0  0  0
 57 64  1  0  0  0  0
 58 64  1  0  0  0  0
 59 75  1  0  0  0  0
 60 85  1  0  0  0  0
 61 72  1  0  0  0  0
 62 64  1  0  0  0  0
 62 74  1  0  0  0  0
 63 75  1  0  0  0  0
 65 66  1  0  0  0  0
M  CHG  1  75   1
M  ISO  4  41 100  60 101  71 100  85 101
M  END
> <Batch ID>
0172

> <Smiles>
CNC(C)C(=O)NC(C(=O)N1Cc2cc([101O:1][101CH2:1]C(=O)C(NC(=O)c3c(F)cc([100NH:0][100C:0](=O)N4CCCC(n5nc(-c6ccc(Oc7ccc(F)cc7F)cc6)c(C(N)=O)c5N)C4)cc3F)C(C)=O)ccc2CC1C(=O)NC1CCCc2ccccc21)C(C)(C)C

> <Shape>
0.327

> <Color>
0.113

> <Negative vol penalty>
0.000

$$$$

  -OEChem-04052304263D

 88 96  0     1  0  0  0  0  0999 V2000
  -17.7848  -29.5465   22.7451 C   0  0  0  0  0  0  0  0  0  0  0  0
  -19.0094  -28.8928   22.6535 C   0  0  0  0  0  0  0  0  0  0  0  0
  -23.1588   -9.9428   21.6663 C   0  0  0  0  0  0  0  0  0  0  0  0
  -23.7819  -11.0830   23.7032 C   0  0  0  0  0  0  0  0  0  0  0  0
  -16.9304  -29.2772   23.8136 C   0  0  0  0  0  0  0  0  0  0  0  0
  -19.3809  -27.9702   23.6308 C   0  0  0  0  0  0  0  0  0  0  0  0
  -21.3487  -23.7400   21.6615 C   0  0  0  0  0  0  0  0  0  0  0  0
  -22.4291   -9.0147   22.4090 C   0  0  0  0  0  0  0  0  0  0  0  0
  -23.0521  -10.1549   24.4459 C   0  0  0  0  0  0  0  0  0  0  0  0
  -22.6709  -23.7969   21.2230 C   0  0  0  0  0  0  0  0  0  0  0  0
  -21.0574   -8.2965   26.8513 C   0  0  0  0  0  0  0  0  0  0  0  0
  -20.2347   -8.7813   27.8680 C   0  0  0  0  0  0  0  0  0  0  0  0
  -23.3884  -22.7376   23.2680 C   0  0  0  0  0  0  0  0  0  0  0  0
  -29.2561  -18.4517   20.2045 C   0  0  0  0  0  0  0  0  0  0  0  0
  -30.9927  -17.5193   18.8076 C   0  0  0  0  0  0  0  0  0  0  0  0
  -18.9897  -10.0691   26.2467 C   0  0  0  0  0  0  0  0  0  0  0  0
  -23.8352  -10.9769   22.3134 C   0  0  0  0  0  0  0  0  0  0  0  0
  -24.1235  -13.1505   21.0095 C   0  0  0  0  0  0  0  0  0  0  0  0
  -17.2874  -28.3437   24.7994 C   0  0  0  0  0  0  0  0  0  0  0  0
  -21.0370  -23.1904   22.9134 C   0  0  0  0  0  0  0  0  0  0  0  0
  -18.5311  -27.6892   24.7142 C   0  0  0  0  0  0  0  0  0  0  0  0
  -22.0612  -22.6725   23.7190 C   0  0  0  0  0  0  0  0  0  0  0  0
  -30.3257  -19.8245   18.5287 C   0  0  0  0  0  0  0  0  0  0  0  0
  -30.0573  -17.3725   19.8318 C   0  0  0  0  0  0  0  0  0  0  0  0
  -29.3902  -19.6778   19.5529 C   0  0  0  0  0  0  0  0  0  0  0  0
  -22.3757   -9.1207   23.7988 C   0  0  0  0  0  0  0  0  0  0  0  0
  -23.6913  -23.2984   22.0275 C   0  0  0  0  0  0  0  0  0  0  0  0
  -20.8463   -8.6981   25.5323 C   0  0  0  0  0  0  0  0  0  0  0  0
  -19.2008   -9.6676   27.5657 C   0  0  0  0  0  0  0  0  0  0  0  0
  -31.1269  -18.7453   18.1560 C   0  0  0  0  0  0  0  0  0  0  0  0
  -19.8125   -9.5844   25.2299 C   0  0  0  0  0  0  0  0  0  0  0  0
  -24.5897  -11.9357   21.5467 C   0  0  0  0  0  0  0  0  0  0  0  0
  -25.2171  -13.6876   20.3754 C   0  0  0  0  0  0  0  0  0  0  0  0
  -25.6662  -22.1776   21.4668 C   0  0  0  0  0  0  0  0  0  1  0  0
  -22.8187  -13.7408   21.0777 C   0  0  0  0  0  0  0  0  0  0  0  0
  -26.9387  -22.1142   21.0565 C   0  0  0  0  0  0  0  0  0  0  0  0
  -27.5994  -20.7733   20.9397 C   0  0  0  0  0  0  0  0  0  0  0  0
  -19.7129  -24.2977   25.5825 C   0  0  0  0  0  0  0  0  0  0  0  0
  -19.8899  -21.1905   26.4970 C   0  0  0  0  0  0  0  0  0  0  0  0
  -21.3911  -18.1465   26.1405 C   0  0  0  0  0  0  0  0  0  0  0  0
  -30.6371  -14.9563   20.2468 C   0  0  0  0  0  0  0  0  0  0  0  0
  -16.3516  -28.1207   25.9609 C   0  0  0  0  0  0  0  0  0  0  0  0
  -19.6030  -23.1120   23.3603 C   0  0  0  0  0  0  0  0  0  0  0  0
  -21.7773  -22.0539   25.0625 C   0  0  0  0  0  0  0  0  0  0  0  0
  -16.6567  -26.8527   26.7542 C   0  0  0  0  0  0  0  0  0  0  0  0
  -29.7218  -11.6525   19.2856 C   0  0  0  0  0  0  0  0  0  0  0  0
  -18.1511  -26.7498   27.0420 C   0  0  0  0  0  0  0  0  0  0  0  0
  -28.2667  -11.5316   19.7440 C   0  0  0  0  0  0  0  0  0  0  0  0
  -30.5588  -12.4727   20.2656 C   0  0  0  0  0  0  0  0  0  0  0  0
  -28.5572  -13.6749   21.0512 C   0  0  0  0  0  0  0  0  0  0  0  0
  -18.9588  -26.6635   25.7414 C   0  0  1  0  0  0  0  0  0  0  0  0
  -19.4544  -22.9980   24.8744 C   0  0  1  0  0  0  0  0  0  0  0  0
  -27.6598  -12.9119   20.0631 C   0  0  2  0  0  0  0  0  0  0  0  0
  -21.3459  -15.8089   27.0522 C   0  0  0  0  0  0  0  0  0  0  0  0
  -21.3574  -22.1402   28.9979 C   0  0  0  0  0  0  0  0  0  0  0  0
  -22.1047  -19.7800   29.3709 C   0  0  0  0  0  0  0  0  0  0  0  0
  -19.6730  -20.3356   29.3988 C   0  0  0  0  0  0  0  0  0  0  0  0
  -20.6839  -17.0070   23.5022 C   0  0  0  0  0  0  0  0  0  0  0  0
  -20.9203  -20.3398   27.1996 C   0  0  1  0  0  0  0  0  0  0  0  0
  -20.8143  -16.7511   25.9834 C   0  0  2  0  0  0  0  0  0  0  0  0
  -30.4894  -21.1281   17.8163 C   0  0  0  0  0  0  0  0  0  0  0  0
  -21.0197  -20.6623   28.7174 C   0  0  0  0  0  0  0  0  0  0  0  0
  -25.8789  -11.7137   21.2772 N   0  0  0  0  0  0  0  0  0  0  0  0
  -26.2322  -12.7964   20.5637 N   0  0  0  0  0  0  0  0  0  0  0  0
  -20.3599  -22.0062   25.4580 N   0  0  0  0  0  0  0  0  0  0  0  0
  -29.9248  -13.7687   20.5170 N   0  0  0  0  0  0  0  0  0  0  0  0
  -25.3998  -14.8306   19.6806 N   0  0  0  0  0  0  0  0  0  0  0  0
  -21.8105  -13.0552   21.7690 N   0  0  0  0  0  0  0  0  0  0  0  0
  -28.5677  -20.7613   19.9452 N   0  0  0  0  0  0  0  0  0  0  0  0
  -29.9209  -16.1271   20.4937 N   0  0  0  0  0  0  0  0  0  0  0  0
  -18.8826  -25.3289   25.1868 N   0  0  0  0  0  0  0  0  0  0  0  0
  -20.5749  -18.9534   26.9046 N   0  0  0  0  0  0  0  0  0  0  0  0
  -21.1661  -16.1925   24.6473 N   0  3  0  0  0  0  0  0  0  0  0  0
  -22.5503  -14.8357   20.5276 O   0  0  0  0  0  0  0  0  0  0  0  0
  -27.2719  -19.8438   21.6696 O   0  0  0  0  0  0  0  0  0  0  0  0
  -20.5991  -24.3600   26.4266 O   0  0  0  0  0  0  0  0  0  0  0  0
  -18.7102  -21.1280   26.8520 O   0  0  0  0  0  0  0  0  0  0  0  0
  -22.4606  -18.4855   25.6388 O   0  0  0  0  0  0  0  0  0  0  0  0
  -31.7875  -14.9361   19.8015 O   0  0  0  0  0  0  0  0  0  0  0  0
  -27.6712  -23.2383   20.7335 O   0  0  0  0  0  0  0  0  0  0  0  0
  -21.6635   -8.2153   24.5239 O   0  0  0  0  0  0  0  0  0  0  0  0
  -24.9828  -23.3533   21.6022 O   0  0  0  0  0  0  0  0  0  1  0  0
  -18.4099  -10.1318   28.5420 F   0  0  0  0  0  0  0  0  0  0  0  0
  -32.0300  -18.8763   17.1741 F   0  0  0  0  0  0  0  0  0  0  0  0
  -19.6041   -9.9728   23.9644 F   0  0  0  0  0  0  0  0  0  0  0  0
  -29.6522  -22.1056   18.2704 F   0  0  0  0  0  0  0  0  0  0  0  0
  -31.7447  -21.6525   17.9239 F   0  0  0  0  0  0  0  0  0  0  0  0
  -30.2457  -21.0261   16.4784 F   0  0  0  0  0  0  0  0  0  0  0  0
  1  2  1  0  0  0  0
  1  5  2  0  0  0  0
  2  6  2  0  0  0  0
  3  8  2  0  0  0  0
  3 17  1  0  0  0  0
  4  9  1  0  0  0  0
  4 17  2  0  0  0  0
  5 19  1  0  0  0  0
  6 21  1  0  0  0  0
  7 10  2  0  0  0  0
  7 20  1  0  0  0  0
  8 26  1  0  0  0  0
  9 26  2  0  0  0  0
 10 27  1  0  0  0  0
 11 12  2  0  0  0  0
 11 28  1  0  0  0  0
 12 29  1  0  0  0  0
 13 22  1  0  0  0  0
 13 27  2  0  0  0  0
 14 24  2  0  0  0  0
 14 25  1  0  0  0  0
 15 24  1  0  0  0  0
 15 30  2  0  0  0  0
 16 29  2  0  0  0  0
 16 31  1  0  0  0  0
 17 32  1  0  0  0  0
 18 32  1  0  0  0  0
 18 33  2  0  0  0  0
 18 35  1  0  0  0  0
 19 21  2  0  0  0  0
 19 42  1  0  0  0  0
 20 22  2  0  0  0  0
 20 43  1  0  0  0  0
 21 51  1  0  0  0  0
 22 44  1  0  0  0  0
 23 25  2  0  0  0  0
 23 30  1  0  0  0  0
 23 61  1  0  0  0  0
 24 70  1  0  0  0  0
 25 69  1  0  0  0  0
 26 81  1  0  0  0  0
 27 82  1  0  0  0  0
 28 31  2  0  0  0  0
 28 81  1  0  0  0  0
 29 83  1  0  0  0  0
 30 84  1  0  0  0  0
 31 85  1  0  0  0  0
 32 63  2  0  0  0  0
 33 64  1  0  0  0  0
 33 67  1  0  0  0  0
 34 36  2  0  0  0  0
 34 82  1  0  0  0  0
 35 68  1  0  0  0  0
 35 74  2  0  0  0  0
 36 37  1  0  0  0  0
 36 80  1  0  0  0  0
 37 69  1  0  0  0  0
 37 75  2  0  0  0  0
 38 52  1  0  0  0  0
 38 71  1  0  0  0  0
 38 76  2  0  0  0  0
 39 59  1  0  0  0  0
 39 65  1  0  0  0  0
 39 77  2  0  0  0  0
 40 60  1  0  0  0  0
 40 72  1  0  0  0  0
 40 78  2  0  0  0  0
 41 66  1  0  0  0  0
 41 70  1  0  0  0  0
 41 79  2  0  0  0  0
 42 45  1  0  0  0  0
 43 52  1  0  0  0  0
 44 65  1  0  0  0  0
 45 47  1  0  0  0  0
 46 48  1  0  0  0  0
 46 49  1  0  0  0  0
 47 51  1  0  0  0  0
 48 53  1  0  0  0  0
 49 66  1  0  0  0  0
 50 53  1  0  0  0  0
 50 66  1  0  0  0  0
 51 71  1  0  0  0  0
 52 65  1  0  0  0  0
 53 64  1  0  0  0  0
 54 60  1  0  0  0  0
 55 62  1  0  0  0  0
 56 62  1  0  0  0  0
 57 62  1  0  0  0  0
 58 73  1  0  0  0  0
 59 62  1  0  0  0  0
 59 72  1  0  0  0  0
 60 73  1  0  0  0  0
 61 86  1  0  0  0  0
 61 87  1  0  0  0  0
 61 88  1  0  0  0  0
 63 64  1  0  0  0  0
M  CHG  1  73   1
M  ISO  4  34 101  41 100  70 100  82 101
M  END
> <Batch ID>
0172

> <Smiles>
CNC(C)C(=O)NC(C(=O)N1Cc2cc([101O:1][101CH2:1]C(=O)C(=O)Nc3cc([100NH:0][100C:0](=O)N4CCCC(n5nc(-c6ccc(Oc7ccc(F)cc7F)cc6)c(C(N)=O)c5N)C4)cc(F)c3C(F)(F)F)ccc2CC1C(=O)NC1CCCc2ccccc21)C(C)(C)C

> <Shape>
0.175

> <Color>
0.126

> <Negative vol penalty>
0.000

$$$$

  -OEChem-04052304263D

 86 94  0     1  0  0  0  0  0999 V2000
  -28.5979  -29.5196   27.6502 C   0  0  0  0  0  0  0  0  0  0  0  0
  -28.3800  -28.7034   26.5449 C   0  0  0  0  0  0  0  0  0  0  0  0
  -24.8437   -8.6812   21.5704 C   0  0  0  0  0  0  0  0  0  0  0  0
  -23.2048  -10.0257   20.4113 C   0  0  0  0  0  0  0  0  0  0  0  0
  -27.5741  -30.3402   28.1220 C   0  0  0  0  0  0  0  0  0  0  0  0
  -27.1378  -28.7064   25.9114 C   0  0  0  0  0  0  0  0  0  0  0  0
  -27.5310  -28.8732   20.8654 C   0  0  0  0  0  0  0  0  0  0  0  0
  -23.8484   -8.2025   22.4223 C   0  0  0  0  0  0  0  0  0  0  0  0
  -22.2095   -9.5469   21.2632 C   0  0  0  0  0  0  0  0  0  0  0  0
  -27.8531  -27.6844   20.2122 C   0  0  0  0  0  0  0  0  0  0  0  0
  -21.3741   -5.9003   22.3164 C   0  0  0  0  0  0  0  0  0  0  0  0
  -21.3496   -4.5308   22.5795 C   0  0  0  0  0  0  0  0  0  0  0  0
  -25.5282  -27.3698   19.6509 C   0  0  0  0  0  0  0  0  0  0  0  0
  -26.7241  -18.6696   18.7756 C   0  0  0  0  0  0  0  0  0  0  0  0
  -24.2613  -18.6324   17.4656 C   0  0  0  0  0  0  0  0  0  0  0  0
  -21.6497   -4.9779   24.9347 C   0  0  0  0  0  0  0  0  0  0  0  0
  -24.5219   -9.5929   20.5648 C   0  0  0  0  0  0  0  0  0  0  0  0
  -25.9599   -9.5315   18.4586 C   0  0  0  0  0  0  0  0  0  0  0  0
  -26.3218  -30.3604   27.4881 C   0  0  0  0  0  0  0  0  0  0  0  0
  -26.2012  -29.3144   20.9257 C   0  0  0  0  0  0  0  0  0  0  0  0
  -26.0959  -29.5270   26.3760 C   0  0  0  0  0  0  0  0  0  0  0  0
  -25.1921  -28.5658   20.3032 C   0  0  0  0  0  0  0  0  0  0  0  0
  -25.9938  -19.8490   18.6300 C   0  0  0  0  0  0  0  0  0  0  0  0
  -26.2231  -17.4716   18.2662 C   0  0  0  0  0  0  0  0  0  0  0  0
  -24.7624  -19.8304   17.9750 C   0  0  0  0  0  0  0  0  0  0  0  0
  -22.5313   -8.6353   22.2687 C   0  0  0  0  0  0  0  0  0  0  0  0
  -26.8513  -26.9310   19.6073 C   0  0  0  0  0  0  0  0  0  0  0  0
  -21.5365   -6.8087   23.3624 C   0  0  0  0  0  0  0  0  0  0  0  0
  -21.4874   -4.0695   23.8887 C   0  0  0  0  0  0  0  0  0  0  0  0
  -24.9917  -17.4530   17.6113 C   0  0  0  0  0  0  0  0  0  0  0  0
  -21.6743   -6.3475   24.6716 C   0  0  0  0  0  0  0  0  0  0  0  0
  -25.5497  -10.0882   19.6848 C   0  0  0  0  0  0  0  0  0  0  0  0
  -26.9564  -10.3678   18.0181 C   0  0  0  0  0  0  0  0  0  0  0  0
  -28.0220  -23.5791   19.2780 C   0  0  0  0  0  0  0  0  0  0  0  0
  -25.4828   -8.3629   17.7786 C   0  0  0  0  0  0  0  0  0  0  0  0
  -27.9667  -22.6424   20.2418 C   0  0  0  0  0  0  0  0  0  0  0  0
  -27.7255  -21.2219   19.8249 C   0  0  0  0  0  0  0  0  0  0  0  0
  -24.1259  -29.8688   23.2687 C   0  0  0  0  0  0  0  0  0  0  0  0
  -22.2844  -30.9906   20.8454 C   0  0  0  0  0  0  0  0  0  0  0  0
  -21.5554  -30.9696   17.5115 C   0  0  0  0  0  0  0  0  0  0  0  0
  -28.2050  -16.1215   19.0380 C   0  0  0  0  0  0  0  0  0  0  0  0
  -25.2310  -31.2288   28.0631 C   0  0  0  0  0  0  0  0  0  0  0  0
  -25.8738  -30.6127   21.6111 C   0  0  0  0  0  0  0  0  0  0  0  0
  -23.7519  -29.0062   20.3221 C   0  0  0  0  0  0  0  0  0  0  0  0
  -24.0619  -31.4513   27.1071 C   0  0  0  0  0  0  0  0  0  0  0  0
  -30.3426  -13.3390   19.6427 C   0  0  0  0  0  0  0  0  0  0  0  0
  -23.6322  -30.1321   26.4732 C   0  0  0  0  0  0  0  0  0  0  0  0
  -29.3944  -12.1384   19.6045 C   0  0  0  0  0  0  0  0  0  0  0  0
  -29.6852  -14.5607   20.2822 C   0  0  0  0  0  0  0  0  0  0  0  0
  -27.4446  -13.7452   19.6628 C   0  0  0  0  0  0  0  0  0  0  0  0
  -24.7699  -29.5207   25.6467 C   0  0  1  0  0  0  0  0  0  0  0  0
  -24.4167  -30.7037   22.0538 C   0  0  1  0  0  0  0  0  0  0  0  0
  -28.0404  -12.5096   18.9686 C   0  0  2  0  0  0  0  0  0  0  0  0
  -28.1626  -22.8502   21.7113 C   0  0  0  0  0  0  0  0  0  0  0  0
  -19.9730  -31.9605   15.8347 C   0  0  0  0  0  0  0  0  0  0  0  0
  -20.0858  -29.1086   21.8118 C   0  0  0  0  0  0  0  0  0  0  0  0
  -18.9402  -29.4281   19.6086 C   0  0  0  0  0  0  0  0  0  0  0  0
  -19.2894  -31.3777   21.1252 C   0  0  0  0  0  0  0  0  0  0  0  0
  -23.7618  -32.2567   16.0168 C   0  0  0  0  0  0  0  0  0  0  0  0
  -28.2865  -25.0402   19.4612 C   0  0  0  0  0  0  0  0  0  1  0  0
  -21.2695  -30.3858   19.9056 C   0  0  1  0  0  0  0  0  0  0  0  0
  -21.3213  -32.0989   16.5244 C   0  0  2  0  0  0  0  0  0  0  0  0
  -19.9230  -30.0655   20.6139 C   0  0  0  0  0  0  0  0  0  0  0  0
  -26.2301  -11.1927   20.0030 N   0  0  0  0  0  0  0  0  0  0  0  0
  -27.0780  -11.3367   18.9702 N   0  0  0  0  0  0  0  0  0  0  0  0
  -23.4814  -30.2793   21.0102 N   0  0  0  0  0  0  0  0  0  0  0  0
  -28.4095  -14.8553   19.6258 N   0  0  0  0  0  0  0  0  0  0  0  0
  -24.0062  -21.0130   17.8146 N   0  0  0  0  0  0  0  0  0  0  0  0
  -27.7317  -10.3615   16.9130 N   0  0  0  0  0  0  0  0  0  0  0  0
  -24.4538   -7.6183   18.3713 N   0  0  0  0  0  0  0  0  0  0  0  0
  -26.5224  -21.0532   19.1547 N   0  0  0  0  0  0  0  0  0  0  0  0
  -26.9669  -16.2748   18.4150 N   0  0  0  0  0  0  0  0  0  0  0  0
  -24.8892  -30.1970   24.3728 N   0  0  0  0  0  0  0  0  0  0  0  0
  -21.1493  -31.3112   18.7841 N   0  0  0  0  0  0  0  0  0  0  0  0
  -22.3849  -32.1033   15.4805 N   0  3  0  0  0  0  0  0  0  0  0  0
  -25.9661   -7.9807   16.6860 O   0  0  0  0  0  0  0  0  0  0  0  0
  -28.5424  -20.3622   20.1396 O   0  0  0  0  0  0  0  0  0  0  0  0
  -23.2713  -28.9926   23.2092 O   0  0  0  0  0  0  0  0  0  0  0  0
  -22.0276  -32.0585   21.4069 O   0  0  0  0  0  0  0  0  0  0  0  0
  -22.0458  -29.8908   17.1853 O   0  0  0  0  0  0  0  0  0  0  0  0
  -29.0754  -16.9956   19.0603 O   0  0  0  0  0  0  0  0  0  0  0  0
  -21.5598   -8.1682   23.0997 O   0  0  0  0  0  0  0  0  0  0  0  0
  -27.1630  -25.7699   18.9696 O   0  0  0  0  0  0  0  0  0  1  0  0
  -21.4623   -2.7544   24.1414 F   0  0  0  0  0  0  0  0  0  0  0  0
  -24.5003  -16.3076   17.1172 F   0  0  0  0  0  0  0  0  0  0  0  0
  -21.8294   -7.2154   25.6808 F   0  0  0  0  0  0  0  0  0  0  0  0
  1  2  1  0  0  0  0
  1  5  2  0  0  0  0
  2  6  2  0  0  0  0
  3  8  2  0  0  0  0
  3 17  1  0  0  0  0
  4  9  1  0  0  0  0
  4 17  2  0  0  0  0
  5 19  1  0  0  0  0
  6 21  1  0  0  0  0
  7 10  2  0  0  0  0
  7 20  1  0  0  0  0
  8 26  1  0  0  0  0
  9 26  2  0  0  0  0
 10 27  1  0  0  0  0
 11 12  2  0  0  0  0
 11 28  1  0  0  0  0
 12 29  1  0  0  0  0
 13 22  1  0  0  0  0
 13 27  2  0  0  0  0
 14 23  1  0  0  0  0
 14 24  2  0  0  0  0
 15 25  1  0  0  0  0
 15 30  2  0  0  0  0
 16 29  2  0  0  0  0
 16 31  1  0  0  0  0
 17 32  1  0  0  0  0
 18 32  1  0  0  0  0
 18 33  2  0  0  0  0
 18 35  1  0  0  0  0
 19 21  2  0  0  0  0
 19 42  1  0  0  0  0
 20 22  2  0  0  0  0
 20 43  1  0  0  0  0
 21 51  1  0  0  0  0
 22 44  1  0  0  0  0
 23 25  2  0  0  0  0
 23 71  1  0  0  0  0
 24 30  1  0  0  0  0
 24 72  1  0  0  0  0
 25 68  1  0  0  0  0
 26 82  1  0  0  0  0
 27 83  1  0  0  0  0
 28 31  2  0  0  0  0
 28 82  1  0  0  0  0
 29 84  1  0  0  0  0
 30 85  1  0  0  0  0
 31 86  1  0  0  0  0
 32 64  2  0  0  0  0
 33 65  1  0  0  0  0
 33 69  1  0  0  0  0
 34 36  2  0  0  0  0
 34 60  1  0  0  0  0
 35 70  1  0  0  0  0
 35 76  2  0  0  0  0
 36 37  1  0  0  0  0
 36 54  1  0  0  0  0
 37 71  1  0  0  0  0
 37 77  2  0  0  0  0
 38 52  1  0  0  0  0
 38 73  1  0  0  0  0
 38 78  2  0  0  0  0
 39 61  1  0  0  0  0
 39 66  1  0  0  0  0
 39 79  2  0  0  0  0
 40 62  1  0  0  0  0
 40 74  1  0  0  0  0
 40 80  2  0  0  0  0
 41 67  1  0  0  0  0
 41 72  1  0  0  0  0
 41 81  2  0  0  0  0
 42 45  1  0  0  0  0
 43 52  1  0  0  0  0
 44 66  1  0  0  0  0
 45 47  1  0  0  0  0
 46 48  1  0  0  0  0
 46 49  1  0  0  0  0
 47 51  1  0  0  0  0
 48 53  1  0  0  0  0
 49 67  1  0  0  0  0
 50 53  1  0  0  0  0
 50 67  1  0  0  0  0
 51 73  1  0  0  0  0
 52 66  1  0  0  0  0
 53 65  1  0  0  0  0
 55 62  1  0  0  0  0
 56 63  1  0  0  0  0
 57 63  1  0  0  0  0
 58 63  1  0  0  0  0
 59 75  1  0  0  0  0
 60 83  1  0  0  0  0
 61 63  1  0  0  0  0
 61 74  1  0  0  0  0
 62 75  1  0  0  0  0
 64 65  1  0  0  0  0
M  CHG  1  75   1
M  ISO  4  41 100  60 101  72 100  83 101
M  END
> <Batch ID>
0172

> <Smiles>
CNC(C)C(=O)NC(C(=O)N1Cc2cc([101O:1][101CH2:1]C=C(C)C(=O)Nc3cc([100NH:0][100C:0](=O)N4CCCC(n5nc(-c6ccc(Oc7ccc(F)cc7F)cc6)c(C(N)=O)c5N)C4)c(F)cc3N)ccc2CC1C(=O)NC1CCCc2ccccc21)C(C)(C)C

> <Shape>
0.262

> <Color>
0.113

> <Negative vol penalty>
0.000

$$$$

  -OEChem-04052304263D

 86 94  0     1  0  0  0  0  0999 V2000
  -38.1476  -27.0448   22.3538 C   0  0  0  0  0  0  0  0  0  0  0  0
  -36.9052  -26.7230   22.8907 C   0  0  0  0  0  0  0  0  0  0  0  0
  -23.0768   -9.8665   19.9384 C   0  0  0  0  0  0  0  0  0  0  0  0
  -23.8367   -9.8712   22.2318 C   0  0  0  0  0  0  0  0  0  0  0  0
  -38.5720  -28.3727   22.3282 C   0  0  0  0  0  0  0  0  0  0  0  0
  -36.0869  -27.7289   23.4035 C   0  0  0  0  0  0  0  0  0  0  0  0
  -31.2649  -27.2487   21.9329 C   0  0  0  0  0  0  0  0  0  0  0  0
  -22.3337   -8.7126   20.1869 C   0  0  0  0  0  0  0  0  0  0  0  0
  -23.0935   -8.7173   22.4803 C   0  0  0  0  0  0  0  0  0  0  0  0
  -30.4908  -26.2937   22.5904 C   0  0  0  0  0  0  0  0  0  0  0  0
  -19.8659   -7.9167   23.0819 C   0  0  0  0  0  0  0  0  0  0  0  0
  -19.1090   -7.8749   24.2527 C   0  0  0  0  0  0  0  0  0  0  0  0
  -29.5157  -28.0301   23.9518 C   0  0  0  0  0  0  0  0  0  0  0  0
  -31.1474  -17.6981   20.6034 C   0  0  0  0  0  0  0  0  0  0  0  0
  -30.5871  -19.8702   21.5007 C   0  0  0  0  0  0  0  0  0  0  0  0
  -20.3516   -5.9373   24.9868 C   0  0  0  0  0  0  0  0  0  0  0  0
  -23.8284  -10.4458   20.9608 C   0  0  0  0  0  0  0  0  0  0  0  0
  -24.1686  -12.9713   20.8438 C   0  0  0  0  0  0  0  0  0  0  0  0
  -37.7543  -29.3965   22.8321 C   0  0  0  0  0  0  0  0  0  0  0  0
  -31.1781  -28.6025   22.2879 C   0  0  0  0  0  0  0  0  0  0  0  0
  -36.5012  -29.0716   23.3859 C   0  0  0  0  0  0  0  0  0  0  0  0
  -30.2879  -29.0007   23.2954 C   0  0  0  0  0  0  0  0  0  0  0  0
  -30.2476  -17.1012   21.4863 C   0  0  0  0  0  0  0  0  0  0  0  0
  -29.6872  -19.2733   22.3836 C   0  0  0  0  0  0  0  0  0  0  0  0
  -22.3420   -8.1380   21.4579 C   0  0  0  0  0  0  0  0  0  0  0  0
  -29.6181  -26.6839   23.6020 C   0  0  0  0  0  0  0  0  0  0  0  0
  -20.8657   -6.9688   22.8634 C   0  0  0  0  0  0  0  0  0  0  0  0
  -19.3518   -6.8852   25.2052 C   0  0  0  0  0  0  0  0  0  0  0  0
  -31.3173  -19.0826   20.6107 C   0  0  0  0  0  0  0  0  0  0  0  0
  -21.1085   -5.9791   23.8159 C   0  0  0  0  0  0  0  0  0  0  0  0
  -29.5174  -17.8888   22.3764 C   0  0  0  0  0  0  0  0  0  0  0  0
  -24.5967  -11.6375   20.7045 C   0  0  0  0  0  0  0  0  0  0  0  0
  -25.2603  -13.7220   20.4815 C   0  0  0  0  0  0  0  0  0  0  0  0
  -22.8978  -13.4858   21.2634 C   0  0  0  0  0  0  0  0  0  0  0  0
  -28.1485  -22.0154   24.4093 C   0  0  0  0  0  0  0  0  0  0  0  0
  -28.1151  -23.5102   24.6606 C   0  0  0  0  0  0  0  0  0  0  0  0
  -33.2104  -30.7505   23.4538 C   0  0  0  0  0  0  0  0  0  0  0  0
  -30.7315  -32.7854   22.9676 C   0  0  0  0  0  0  0  0  0  0  0  0
  -27.3637  -33.2196   22.6261 C   0  0  0  0  0  0  0  0  0  0  0  0
  -30.7258  -14.7708   20.6574 C   0  0  0  0  0  0  0  0  0  0  0  0
  -38.2760  -30.8116   22.8258 C   0  0  0  0  0  0  0  0  0  0  0  0
  -32.0003  -29.6238   21.5506 C   0  0  0  0  0  0  0  0  0  0  0  0
  -30.1426  -30.4441   23.7003 C   0  0  0  0  0  0  0  0  0  0  0  0
  -37.1907  -31.8618   23.0482 C   0  0  0  0  0  0  0  0  0  0  0  0
  -29.6130  -12.3592   18.2862 C   0  0  0  0  0  0  0  0  0  0  0  0
  -36.2922  -31.4623   24.2143 C   0  0  0  0  0  0  0  0  0  0  0  0
  -28.1735  -12.0662   18.7155 C   0  0  0  0  0  0  0  0  0  0  0  0
  -30.5279  -12.5871   19.4882 C   0  0  0  0  0  0  0  0  0  0  0  0
  -28.6205  -13.3087   20.8703 C   0  0  0  0  0  0  0  0  0  0  0  0
  -35.5745  -30.1375   23.9292 C   0  0  1  0  0  0  0  0  0  0  0  0
  -32.2088  -30.9094   22.3451 C   0  0  1  0  0  0  0  0  0  0  0  0
  -27.6478  -13.1362   19.6923 C   0  0  2  0  0  0  0  0  0  0  0  0
  -25.6328  -35.0026   22.2768 C   0  0  0  0  0  0  0  0  0  0  0  0
  -31.0130  -33.6271   25.8869 C   0  0  0  0  0  0  0  0  0  0  0  0
  -28.7330  -34.6508   25.7390 C   0  0  0  0  0  0  0  0  0  0  0  0
  -30.5788  -35.5075   24.2962 C   0  0  0  0  0  0  0  0  0  0  0  0
  -26.4738  -32.0180   20.0720 C   0  0  0  0  0  0  0  0  0  0  0  0
  -29.0757  -21.4945   23.3418 C   0  0  0  0  0  0  0  0  0  0  0  0
  -29.0128  -24.3958   23.8341 C   0  0  0  0  0  0  0  0  0  1  0  0
  -29.5545  -33.2522   23.7896 C   0  0  1  0  0  0  0  0  0  0  0  0
  -26.5458  -33.9890   21.6046 C   0  0  2  0  0  0  0  0  0  0  0  0
  -29.9737  -34.2319   24.9218 C   0  0  0  0  0  0  0  0  0  0  0  0
  -25.8617  -11.5430   20.2861 N   0  0  0  0  0  0  0  0  0  0  0  0
  -26.2377  -12.8270   20.1593 N   0  0  0  0  0  0  0  0  0  0  0  0
  -30.9726  -31.4043   22.9542 N   0  0  0  0  0  0  0  0  0  0  0  0
  -29.9683  -13.6165   20.3668 N   0  0  0  0  0  0  0  0  0  0  0  0
  -25.4699  -15.0537   20.4101 N   0  0  0  0  0  0  0  0  0  0  0  0
  -21.8865  -12.5756   21.5995 N   0  0  0  0  0  0  0  0  0  0  0  0
  -30.0779  -15.6945   21.4770 N   0  0  0  0  0  0  0  0  0  0  0  0
  -28.9625  -20.0587   23.2672 N   0  0  0  0  0  0  0  0  0  0  0  0
  -34.4622  -30.3490   23.0279 N   0  0  0  0  0  0  0  0  0  0  0  0
  -28.5915  -33.8078   22.8450 N   0  0  0  0  0  0  0  0  0  0  0  0
  -25.7032  -33.0547   20.8058 N   0  3  0  0  0  0  0  0  0  0  0  0
  -22.6608  -14.7162   21.3222 O   0  0  0  0  0  0  0  0  0  0  0  0
  -27.4114  -21.3189   25.0959 O   0  0  0  0  0  0  0  0  0  0  0  0
  -27.3563  -23.9192   25.5300 O   0  0  0  0  0  0  0  0  0  0  0  0
  -32.8730  -30.9770   24.6099 O   0  0  0  0  0  0  0  0  0  0  0  0
  -31.4076  -33.6149   22.3540 O   0  0  0  0  0  0  0  0  0  0  0  0
  -26.9530  -32.2009   23.1776 O   0  0  0  0  0  0  0  0  0  0  0  0
  -31.8548  -14.9408   20.1900 O   0  0  0  0  0  0  0  0  0  0  0  0
  -21.6168   -7.0121   21.7009 O   0  0  0  0  0  0  0  0  0  0  0  0
  -28.8619  -25.7537   24.2459 O   0  0  0  0  0  0  0  0  0  1  0  0
  -18.6259   -6.8461   26.3302 F   0  0  0  0  0  0  0  0  0  0  0  0
  -32.1805  -19.6558   19.7619 F   0  0  0  0  0  0  0  0  0  0  0  0
  -22.0684   -5.0665   23.6122 F   0  0  0  0  0  0  0  0  0  0  0  0
  -28.6520  -17.3151   23.2265 F   0  0  0  0  0  0  0  0  0  0  0  0
  1  2  1  0  0  0  0
  1  5  2  0  0  0  0
  2  6  2  0  0  0  0
  3  8  2  0  0  0  0
  3 17  1  0  0  0  0
  4  9  1  0  0  0  0
  4 17  2  0  0  0  0
  5 19  1  0  0  0  0
  6 21  1  0  0  0  0
  7 10  2  0  0  0  0
  7 20  1  0  0  0  0
  8 25  1  0  0  0  0
  9 25  2  0  0  0  0
 10 26  1  0  0  0  0
 11 12  2  0  0  0  0
 11 27  1  0  0  0  0
 12 28  1  0  0  0  0
 13 22  1  0  0  0  0
 13 26  2  0  0  0  0
 14 23  2  0  0  0  0
 14 29  1  0  0  0  0
 15 24  1  0  0  0  0
 15 29  2  0  0  0  0
 16 28  2  0  0  0  0
 16 30  1  0  0  0  0
 17 32  1  0  0  0  0
 18 32  1  0  0  0  0
 18 33  2  0  0  0  0
 18 34  1  0  0  0  0
 19 21  2  0  0  0  0
 19 41  1  0  0  0  0
 20 22  2  0  0  0  0
 20 42  1  0  0  0  0
 21 50  1  0  0  0  0
 22 43  1  0  0  0  0
 23 31  1  0  0  0  0
 23 69  1  0  0  0  0
 24 31  2  0  0  0  0
 24 70  1  0  0  0  0
 25 81  1  0  0  0  0
 26 82  1  0  0  0  0
 27 30  2  0  0  0  0
 27 81  1  0  0  0  0
 28 83  1  0  0  0  0
 29 84  1  0  0  0  0
 30 85  1  0  0  0  0
 31 86  1  0  0  0  0
 32 63  2  0  0  0  0
 33 64  1  0  0  0  0
 33 67  1  0  0  0  0
 34 68  1  0  0  0  0
 34 74  2  0  0  0  0
 35 36  1  0  0  0  0
 35 58  1  0  0  0  0
 35 75  2  0  0  0  0
 36 59  1  0  0  0  0
 36 76  2  0  0  0  0
 37 51  1  0  0  0  0
 37 71  1  0  0  0  0
 37 77  2  0  0  0  0
 38 60  1  0  0  0  0
 38 65  1  0  0  0  0
 38 78  2  0  0  0  0
 39 61  1  0  0  0  0
 39 72  1  0  0  0  0
 39 79  2  0  0  0  0
 40 66  1  0  0  0  0
 40 69  1  0  0  0  0
 40 80  2  0  0  0  0
 41 44  1  0  0  0  0
 42 51  1  0  0  0  0
 43 65  1  0  0  0  0
 44 46  1  0  0  0  0
 45 47  1  0  0  0  0
 45 48  1  0  0  0  0
 46 50  1  0  0  0  0
 47 52  1  0  0  0  0
 48 66  1  0  0  0  0
 49 52  1  0  0  0  0
 49 66  1  0  0  0  0
 50 71  1  0  0  0  0
 51 65  1  0  0  0  0
 52 64  1  0  0  0  0
 53 61  1  0  0  0  0
 54 62  1  0  0  0  0
 55 62  1  0  0  0  0
 56 62  1  0  0  0  0
 57 73  1  0  0  0  0
 58 70  1  0  0  0  0
 59 82  1  0  0  0  0
 60 62  1  0  0  0  0
 60 72  1  0  0  0  0
 61 73  1  0  0  0  0
 63 64  1  0  0  0  0
M  CHG  1  73   1
M  ISO  4  40 100  59 101  69 100  82 101
M  END
> <Batch ID>
0172

> <Smiles>
CNC(C)C(=O)NC(C(=O)N1Cc2cc([101O:1][101CH2:1]C(=O)C(=O)CNc3cc(F)cc([100NH:0][100C:0](=O)N4CCCC(n5nc(-c6ccc(Oc7ccc(F)cc7F)cc6)c(C(N)=O)c5N)C4)c3F)ccc2CC1C(=O)NC1CCCc2ccccc21)C(C)(C)C

> <Shape>
0.207

> <Color>
0.188

> <Negative vol penalty>
0.000

$$$$

  -OEChem-04052304263D

 85 93  0     1  0  0  0  0  0999 V2000
  -28.0607  -32.3460   27.3958 C   0  0  0  0  0  0  0  0  0  0  0  0
  -28.2481  -31.3769   26.4155 C   0  0  0  0  0  0  0  0  0  0  0  0
  -23.1223  -11.3452   22.1969 C   0  0  0  0  0  0  0  0  0  0  0  0
  -23.1748  -13.7587   22.1009 C   0  0  0  0  0  0  0  0  0  0  0  0
  -26.7726  -32.6577   27.8290 C   0  0  0  0  0  0  0  0  0  0  0  0
  -27.1476  -30.7180   25.8686 C   0  0  0  0  0  0  0  0  0  0  0  0
  -27.4156  -30.3450   20.8254 C   0  0  0  0  0  0  0  0  0  0  0  0
  -22.1932  -11.4066   23.2354 C   0  0  0  0  0  0  0  0  0  0  0  0
  -22.2456  -13.8202   23.1394 C   0  0  0  0  0  0  0  0  0  0  0  0
  -28.2547  -29.3615   20.3033 C   0  0  0  0  0  0  0  0  0  0  0  0
  -18.9064  -13.4615   23.5163 C   0  0  0  0  0  0  0  0  0  0  0  0
  -17.8427  -14.3534   23.3801 C   0  0  0  0  0  0  0  0  0  0  0  0
  -26.3445  -27.9345   19.9374 C   0  0  0  0  0  0  0  0  0  0  0  0
  -30.2761  -17.9485   20.0814 C   0  0  0  0  0  0  0  0  0  0  0  0
  -18.5498  -15.5028   25.3841 C   0  0  0  0  0  0  0  0  0  0  0  0
  -32.2772  -16.9201   19.9927 C   0  0  0  0  0  0  0  0  0  0  0  0
  -23.6132  -12.5212   21.6297 C   0  0  0  0  0  0  0  0  0  0  0  0
  -24.3037  -12.4095   19.1764 C   0  0  0  0  0  0  0  0  0  0  0  0
  -25.6551  -32.0091   27.2802 C   0  0  0  0  0  0  0  0  0  0  0  0
  -26.0336  -30.1259   20.9176 C   0  0  0  0  0  0  0  0  0  0  0  0
  -25.8434  -31.0203   26.2958 C   0  0  0  0  0  0  0  0  0  0  0  0
  -25.4897  -28.9177   20.4586 C   0  0  0  0  0  0  0  0  0  0  0  0
  -30.9256  -16.6902   20.1247 C   0  0  0  0  0  0  0  0  0  0  0  0
  -21.7548  -12.6441   23.7066 C   0  0  0  0  0  0  0  0  0  0  0  0
  -27.7195  -28.1549   19.8619 C   0  0  0  0  0  0  0  0  0  0  0  0
  -19.7918  -13.5902   24.5864 C   0  0  0  0  0  0  0  0  0  0  0  0
  -17.6643  -15.3740   24.3140 C   0  0  0  0  0  0  0  0  0  0  0  0
  -19.6135  -14.6108   25.5203 C   0  0  0  0  0  0  0  0  0  0  0  0
  -24.5734  -12.4584   20.5572 C   0  0  0  0  0  0  0  0  0  0  0  0
  -31.2507  -18.9092   19.9241 C   0  0  0  0  0  0  0  0  0  0  0  0
  -25.5429  -12.3599   18.5861 C   0  0  0  0  0  0  0  0  0  0  0  0
  -23.0455  -12.4091   18.4889 C   0  0  0  0  0  0  0  0  0  0  0  0
  -23.9401  -29.9786   23.3049 C   0  0  0  0  0  0  0  0  0  0  0  0
  -29.3330  -24.9171   19.5908 C   0  0  0  0  0  0  0  0  0  0  0  0
  -21.7870  -29.7747   20.8874 C   0  0  0  0  0  0  0  0  0  0  0  0
  -29.9515  -21.0657   19.8668 C   0  0  0  0  0  0  0  0  0  0  0  0
  -21.1506  -28.9567   17.6358 C   0  0  0  0  0  0  0  0  0  0  0  0
  -30.9651  -14.1786   20.3172 C   0  0  0  0  0  0  0  0  0  0  0  0
  -24.2854  -32.3461   27.8142 C   0  0  0  0  0  0  0  0  0  0  0  0
  -25.1388  -31.2073   21.4584 C   0  0  0  0  0  0  0  0  0  0  0  0
  -24.0103  -28.6411   20.5170 C   0  0  0  0  0  0  0  0  0  0  0  0
  -23.1471  -31.8685   26.9162 C   0  0  0  0  0  0  0  0  0  0  0  0
  -30.0212  -10.8706   19.3990 C   0  0  0  0  0  0  0  0  0  0  0  0
  -23.3818  -30.4263   26.4783 C   0  0  0  0  0  0  0  0  0  0  0  0
  -28.4923  -10.8996   19.4602 C   0  0  0  0  0  0  0  0  0  0  0  0
  -30.6492  -11.7208   20.5019 C   0  0  0  0  0  0  0  0  0  0  0  0
  -28.6357  -13.1343   20.6318 C   0  0  0  0  0  0  0  0  0  0  0  0
  -24.6731  -30.3012   25.6607 C   0  0  1  0  0  0  0  0  0  0  0  0
  -23.8075  -30.6757   21.9805 C   0  0  1  0  0  0  0  0  0  0  0  0
  -27.9573  -12.3445   19.5007 C   0  0  2  0  0  0  0  0  0  0  0  0
  -19.2880  -28.8614   15.9568 C   0  0  0  0  0  0  0  0  0  0  0  0
  -20.7200  -27.2449   22.2183 C   0  0  0  0  0  0  0  0  0  0  0  0
  -19.5567  -26.6900   20.0719 C   0  0  0  0  0  0  0  0  0  0  0  0
  -18.9571  -28.7697   21.3120 C   0  0  0  0  0  0  0  0  0  0  0  0
  -33.7526  -18.9095   19.7125 C   0  0  0  0  0  0  0  0  0  0  0  0
  -22.5016  -30.8956   15.8541 C   0  0  0  0  0  0  0  0  0  0  0  0
  -29.0222  -23.4373   19.7611 C   0  0  0  0  0  0  0  0  0  0  0  0
  -28.1291  -25.8365   19.5259 C   0  0  0  0  0  0  0  0  0  1  0  0
  -30.2636  -22.5511   19.7241 C   0  0  0  0  0  0  0  0  0  0  0  0
  -21.1708  -28.6457   20.0969 C   0  0  1  0  0  0  0  0  0  0  0  0
  -20.4165  -29.7010   16.5350 C   0  0  2  0  0  0  0  0  0  0  0  0
  -20.1293  -27.8417   20.9254 C   0  0  0  0  0  0  0  0  0  0  0  0
  -25.8812  -12.4412   20.8281 N   0  0  0  0  0  0  0  0  0  0  0  0
  -32.4631  -18.2725   19.8711 N   0  0  0  0  0  0  0  0  0  0  0  0
  -26.4443  -12.3809   19.6093 N   0  0  0  0  0  0  0  0  0  0  0  0
  -23.1776  -29.7271   21.0599 N   0  0  0  0  0  0  0  0  0  0  0  0
  -30.0977  -13.0772   20.4764 N   0  0  0  0  0  0  0  0  0  0  0  0
  -25.9384  -12.3008   17.2967 N   0  0  0  0  0  0  0  0  0  0  0  0
  -21.8690  -12.4641   19.2485 N   0  0  0  0  0  0  0  0  0  0  0  0
  -30.3237  -15.4162   20.2749 N   0  0  0  0  0  0  0  0  0  0  0  0
  -31.1232  -20.3151   19.8252 N   0  0  0  0  0  0  0  0  0  0  0  0
  -24.4627  -30.7720   24.3084 N   0  0  0  0  0  0  0  0  0  0  0  0
  -20.6326  -29.2452   18.8807 N   0  0  0  0  0  0  0  0  0  0  0  0
  -21.3549  -30.0510   15.4315 N   0  3  0  0  0  0  0  0  0  0  0  0
  -22.9666  -12.3447   17.2386 O   0  0  0  0  0  0  0  0  0  0  0  0
  -23.5926  -28.8082   23.4091 O   0  0  0  0  0  0  0  0  0  0  0  0
  -30.4820  -25.3492   19.5136 O   0  0  0  0  0  0  0  0  0  0  0  0
  -21.0621  -30.6697   21.3292 O   0  0  0  0  0  0  0  0  0  0  0  0
  -28.8057  -20.6495   20.0011 O   0  0  0  0  0  0  0  0  0  0  0  0
  -22.0873  -28.1928   17.4132 O   0  0  0  0  0  0  0  0  0  0  0  0
  -32.1843  -14.0326   20.1979 O   0  0  0  0  0  0  0  0  0  0  0  0
  -20.8479  -12.7044   24.7198 O   0  0  0  0  0  0  0  0  0  0  0  0
  -28.5364  -27.1931   19.3526 O   0  0  0  0  0  0  0  0  0  1  0  0
  -16.6437  -16.2314   24.1823 F   0  0  0  0  0  0  0  0  0  0  0  0
  -20.4616  -14.7402   26.5498 F   0  0  0  0  0  0  0  0  0  0  0  0
  1  2  1  0  0  0  0
  1  5  2  0  0  0  0
  2  6  2  0  0  0  0
  3  8  2  0  0  0  0
  3 17  1  0  0  0  0
  4  9  1  0  0  0  0
  4 17  2  0  0  0  0
  5 19  1  0  0  0  0
  6 21  1  0  0  0  0
  7 10  2  0  0  0  0
  7 20  1  0  0  0  0
  8 24  1  0  0  0  0
  9 24  2  0  0  0  0
 10 25  1  0  0  0  0
 11 12  2  0  0  0  0
 11 26  1  0  0  0  0
 12 27  1  0  0  0  0
 13 22  1  0  0  0  0
 13 25  2  0  0  0  0
 14 23  1  0  0  0  0
 14 30  2  0  0  0  0
 15 27  2  0  0  0  0
 15 28  1  0  0  0  0
 16 23  2  0  0  0  0
 16 64  1  0  0  0  0
 17 29  1  0  0  0  0
 18 29  1  0  0  0  0
 18 31  2  0  0  0  0
 18 32  1  0  0  0  0
 19 21  2  0  0  0  0
 19 39  1  0  0  0  0
 20 22  2  0  0  0  0
 20 40  1  0  0  0  0
 21 48  1  0  0  0  0
 22 41  1  0  0  0  0
 23 70  1  0  0  0  0
 24 82  1  0  0  0  0
 25 83  1  0  0  0  0
 26 28  2  0  0  0  0
 26 82  1  0  0  0  0
 27 84  1  0  0  0  0
 28 85  1  0  0  0  0
 29 63  2  0  0  0  0
 30 64  1  0  0  0  0
 30 71  1  0  0  0  0
 31 65  1  0  0  0  0
 31 68  1  0  0  0  0
 32 69  1  0  0  0  0
 32 75  2  0  0  0  0
 33 49  1  0  0  0  0
 33 72  1  0  0  0  0
 33 76  2  0  0  0  0
 34 57  1  0  0  0  0
 34 58  1  0  0  0  0
 34 77  2  0  0  0  0
 35 60  1  0  0  0  0
 35 66  1  0  0  0  0
 35 78  2  0  0  0  0
 36 59  1  0  0  0  0
 36 71  1  0  0  0  0
 36 79  2  0  0  0  0
 37 61  1  0  0  0  0
 37 73  1  0  0  0  0
 37 80  2  0  0  0  0
 38 67  1  0  0  0  0
 38 70  1  0  0  0  0
 38 81  2  0  0  0  0
 39 42  1  0  0  0  0
 40 49  1  0  0  0  0
 41 66  1  0  0  0  0
 42 44  1  0  0  0  0
 43 45  1  0  0  0  0
 43 46  1  0  0  0  0
 44 48  1  0  0  0  0
 45 50  1  0  0  0  0
 46 67  1  0  0  0  0
 47 50  1  0  0  0  0
 47 67  1  0  0  0  0
 48 72  1  0  0  0  0
 49 66  1  0  0  0  0
 50 65  1  0  0  0  0
 51 61  1  0  0  0  0
 52 62  1  0  0  0  0
 53 62  1  0  0  0  0
 54 62  1  0  0  0  0
 55 64  1  0  0  0  0
 56 74  1  0  0  0  0
 57 59  1  0  0  0  0
 58 83  1  0  0  0  0
 60 62  1  0  0  0  0
 60 73  1  0  0  0  0
 61 74  1  0  0  0  0
 63 65  1  0  0  0  0
M  CHG  1  74   1
M  ISO  4  38 100  58 101  70 100  83 101
M  END
> <Batch ID>
0172

> <Smiles>
CNC(C)C(=O)NC(C(=O)N1Cc2cc([101O:1][101CH2:1]C(=O)CCC(=O)Nc3cc([100NH:0][100C:0](=O)N4CCCC(n5nc(-c6ccc(Oc7ccc(F)cc7F)cc6)c(C(N)=O)c5N)C4)cn3C)ccc2CC1C(=O)NC1CCCc2ccccc21)C(C)(C)C

> <Shape>
0.279

> <Color>
0.121

> <Negative vol penalty>
0.000

$$$$

  -OEChem-04052304263D

 87 95  0     1  0  0  0  0  0999 V2000
  -32.9344  -33.8608   17.0446 C   0  0  0  0  0  0  0  0  0  0  0  0
  -32.4044  -32.5844   17.2041 C   0  0  0  0  0  0  0  0  0  0  0  0
  -23.6594   -9.8236   21.9294 C   0  0  0  0  0  0  0  0  0  0  0  0
  -24.4007  -11.1450   23.8113 C   0  0  0  0  0  0  0  0  0  0  0  0
  -32.8072  -34.7999   18.0673 C   0  0  0  0  0  0  0  0  0  0  0  0
  -31.7478  -32.2461   18.3868 C   0  0  0  0  0  0  0  0  0  0  0  0
  -26.9342  -28.5075   18.9854 C   0  0  0  0  0  0  0  0  0  0  0  0
  -23.1384   -8.8701   22.8041 C   0  0  0  0  0  0  0  0  0  0  0  0
  -23.8796  -10.1915   24.6860 C   0  0  0  0  0  0  0  0  0  0  0  0
  -26.8278  -27.1668   19.3528 C   0  0  0  0  0  0  0  0  0  0  0  0
  -20.3827   -8.4962   24.7273 C   0  0  0  0  0  0  0  0  0  0  0  0
  -19.1072   -7.9991   24.4595 C   0  0  0  0  0  0  0  0  0  0  0  0
  -26.3629  -27.8324   21.6244 C   0  0  0  0  0  0  0  0  0  0  0  0
  -30.7796  -20.5299   20.3745 C   0  0  0  0  0  0  0  0  0  0  0  0
  -31.2631  -18.2222   19.8474 C   0  0  0  0  0  0  0  0  0  0  0  0
  -20.0153   -5.7678   24.2760 C   0  0  0  0  0  0  0  0  0  0  0  0
  -24.2906  -10.9610   22.4330 C   0  0  0  0  0  0  0  0  0  0  0  0
  -28.9743  -18.9436   20.1267 C   0  0  0  0  0  0  0  0  0  0  0  0
  -24.1652  -13.0697   21.0028 C   0  0  0  0  0  0  0  0  0  0  0  0
  -32.1403  -34.4759   19.2593 C   0  0  0  0  0  0  0  0  0  0  0  0
  -26.7662  -29.5222   19.9386 C   0  0  0  0  0  0  0  0  0  0  0  0
  -31.6127  -33.1813   19.4269 C   0  0  0  0  0  0  0  0  0  0  0  0
  -26.4651  -29.1853   21.2660 C   0  0  0  0  0  0  0  0  0  0  0  0
  -29.4149  -20.2416   20.3850 C   0  0  0  0  0  0  0  0  0  0  0  0
  -29.8984  -17.9339   19.8579 C   0  0  0  0  0  0  0  0  0  0  0  0
  -23.2485   -9.0541   24.1823 C   0  0  0  0  0  0  0  0  0  0  0  0
  -26.5450  -26.8290   20.6730 C   0  0  0  0  0  0  0  0  0  0  0  0
  -21.4745   -7.6291   24.7694 C   0  0  0  0  0  0  0  0  0  0  0  0
  -18.9235   -6.6349   24.2339 C   0  0  0  0  0  0  0  0  0  0  0  0
  -31.7037  -19.5202   20.1057 C   0  0  0  0  0  0  0  0  0  0  0  0
  -21.2908   -6.2649   24.5437 C   0  0  0  0  0  0  0  0  0  0  0  0
  -24.8294  -11.9460   21.5299 C   0  0  0  0  0  0  0  0  0  0  0  0
  -25.1026  -13.6802   20.2060 C   0  0  0  0  0  0  0  0  0  0  0  0
  -27.5291  -24.7146   20.8506 C   0  0  0  0  0  0  0  0  0  1  0  0
  -27.5445  -18.6414   20.1380 C   0  0  0  0  0  0  0  0  0  0  0  0
  -22.8210  -13.5213   21.2147 C   0  0  0  0  0  0  0  0  0  0  0  0
  -27.5383  -23.4148   21.1701 C   0  0  0  0  0  0  0  0  0  0  0  0
  -28.7840  -22.6155   20.9299 C   0  0  0  0  0  0  0  0  0  0  0  0
  -28.6143  -31.8282   21.1095 C   0  0  0  0  0  0  0  0  0  0  0  0
  -25.8834  -32.7151   22.6188 C   0  0  0  0  0  0  0  0  0  0  0  0
  -22.8191  -31.8214   23.8263 C   0  0  0  0  0  0  0  0  0  0  0  0
  -30.2851  -15.5064   19.3062 C   0  0  0  0  0  0  0  0  0  0  0  0
  -32.0691  -35.5096   20.3553 C   0  0  0  0  0  0  0  0  0  0  0  0
  -26.8577  -30.9642   19.5207 C   0  0  0  0  0  0  0  0  0  0  0  0
  -26.2558  -30.2373   22.3232 C   0  0  0  0  0  0  0  0  0  0  0  0
  -31.0315  -35.1893   21.4281 C   0  0  0  0  0  0  0  0  0  0  0  0
  -29.6355  -12.0719   18.6286 C   0  0  0  0  0  0  0  0  0  0  0  0
  -31.1436  -33.7308   21.8607 C   0  0  0  0  0  0  0  0  0  0  0  0
  -28.2726  -11.8254   19.2797 C   0  0  0  0  0  0  0  0  0  0  0  0
  -30.4910  -13.0342   19.4507 C   0  0  0  0  0  0  0  0  0  0  0  0
  -28.4810  -14.0628   20.4362 C   0  0  0  0  0  0  0  0  0  0  0  0
  -30.8719  -32.7843   20.6853 C   0  0  1  0  0  0  0  0  0  0  0  0
  -27.1763  -31.9032   20.6801 C   0  0  1  0  0  0  0  0  0  0  0  0
  -27.5585  -13.1505   19.6113 C   0  0  2  0  0  0  0  0  0  0  0  0
  -26.9429  -18.2173   21.4425 C   0  0  0  0  0  0  0  0  0  0  0  0
  -20.8325  -32.7545   25.0429 C   0  0  0  0  0  0  0  0  0  0  0  0
  -27.4522  -32.6378   25.2347 C   0  0  0  0  0  0  0  0  0  0  0  0
  -25.2701  -32.6326   26.4622 C   0  0  0  0  0  0  0  0  0  0  0  0
  -25.8815  -34.5717   25.0170 C   0  0  0  0  0  0  0  0  0  0  0  0
  -21.0077  -31.2276   21.5624 C   0  0  0  0  0  0  0  0  0  0  0  0
  -25.2340  -32.3783   23.9393 C   0  0  1  0  0  0  0  0  0  0  0  0
  -21.4529  -32.4677   23.6844 C   0  0  2  0  0  0  0  0  0  0  0  0
  -25.9653  -33.0350   25.1440 C   0  0  0  0  0  0  0  0  0  0  0  0
  -26.0913  -11.8461   21.1037 N   0  0  0  0  0  0  0  0  0  0  0  0
  -26.2274  -12.9147   20.3003 N   0  0  0  0  0  0  0  0  0  0  0  0
  -26.3618  -31.6330   21.8665 N   0  0  0  0  0  0  0  0  0  0  0  0
  -29.7512  -14.2686   19.7227 N   0  0  0  0  0  0  0  0  0  0  0  0
  -25.0661  -14.7918   19.4408 N   0  0  0  0  0  0  0  0  0  0  0  0
  -21.9917  -12.7759   22.0638 N   0  0  0  0  0  0  0  0  0  0  0  0
  -28.4975  -21.2844   20.6595 N   0  0  0  0  0  0  0  0  0  0  0  0
  -29.4779  -16.6074   19.5905 N   0  0  0  0  0  0  0  0  0  0  0  0
  -29.4505  -32.6922   20.4287 N   0  0  0  0  0  0  0  0  0  0  0  0
  -23.8310  -32.7579   23.8128 N   0  0  0  0  0  0  0  0  0  0  0  0
  -20.5327  -31.5729   22.9270 N   0  3  0  0  0  0  0  0  0  0  0  0
  -26.8081  -18.7064   19.1564 O   0  0  0  0  0  0  0  0  0  0  0  0
  -22.3636  -14.5461   20.6543 O   0  0  0  0  0  0  0  0  0  0  0  0
  -29.8903  -23.1420   20.9823 O   0  0  0  0  0  0  0  0  0  0  0  0
  -28.9406  -31.0454   21.9940 O   0  0  0  0  0  0  0  0  0  0  0  0
  -25.9570  -33.8944   22.2645 O   0  0  0  0  0  0  0  0  0  0  0  0
  -22.9730  -30.6075   23.9416 O   0  0  0  0  0  0  0  0  0  0  0  0
  -31.3652  -15.5813   18.7149 O   0  0  0  0  0  0  0  0  0  0  0  0
  -26.4429  -22.7768   21.7158 O   0  0  0  0  0  0  0  0  0  0  0  0
  -22.7400   -8.1240   25.0362 O   0  0  0  0  0  0  0  0  0  0  0  0
  -26.4412  -25.5211   21.0344 O   0  0  0  0  0  0  0  0  0  1  0  0
  -17.6984   -6.1575   23.9783 F   0  0  0  0  0  0  0  0  0  0  0  0
  -33.0143  -19.7967   20.0956 F   0  0  0  0  0  0  0  0  0  0  0  0
  -22.3357   -5.4268   24.5840 F   0  0  0  0  0  0  0  0  0  0  0  0
  1  2  1  0  0  0  0
  1  5  2  0  0  0  0
  2  6  2  0  0  0  0
  3  8  2  0  0  0  0
  3 17  1  0  0  0  0
  4  9  1  0  0  0  0
  4 17  2  0  0  0  0
  5 20  1  0  0  0  0
  6 22  1  0  0  0  0
  7 10  2  0  0  0  0
  7 21  1  0  0  0  0
  8 26  1  0  0  0  0
  9 26  2  0  0  0  0
 10 27  1  0  0  0  0
 11 12  2  0  0  0  0
 11 28  1  0  0  0  0
 12 29  1  0  0  0  0
 13 23  1  0  0  0  0
 13 27  2  0  0  0  0
 14 24  1  0  0  0  0
 14 30  2  0  0  0  0
 15 25  2  0  0  0  0
 15 30  1  0  0  0  0
 16 29  2  0  0  0  0
 16 31  1  0  0  0  0
 17 32  1  0  0  0  0
 18 24  2  0  0  0  0
 18 25  1  0  0  0  0
 18 35  1  0  0  0  0
 19 32  1  0  0  0  0
 19 33  2  0  0  0  0
 19 36  1  0  0  0  0
 20 22  2  0  0  0  0
 20 43  1  0  0  0  0
 21 23  2  0  0  0  0
 21 44  1  0  0  0  0
 22 52  1  0  0  0  0
 23 45  1  0  0  0  0
 24 70  1  0  0  0  0
 25 71  1  0  0  0  0
 26 83  1  0  0  0  0
 27 84  1  0  0  0  0
 28 31  2  0  0  0  0
 28 83  1  0  0  0  0
 29 85  1  0  0  0  0
 30 86  1  0  0  0  0
 31 87  1  0  0  0  0
 32 64  2  0  0  0  0
 33 65  1  0  0  0  0
 33 68  1  0  0  0  0
 34 37  2  0  0  0  0
 34 84  1  0  0  0  0
 35 55  1  0  0  0  0
 35 75  2  0  0  0  0
 36 69  1  0  0  0  0
 36 76  2  0  0  0  0
 37 38  1  0  0  0  0
 37 82  1  0  0  0  0
 38 70  1  0  0  0  0
 38 77  2  0  0  0  0
 39 53  1  0  0  0  0
 39 72  1  0  0  0  0
 39 78  2  0  0  0  0
 40 61  1  0  0  0  0
 40 66  1  0  0  0  0
 40 79  2  0  0  0  0
 41 62  1  0  0  0  0
 41 73  1  0  0  0  0
 41 80  2  0  0  0  0
 42 67  1  0  0  0  0
 42 71  1  0  0  0  0
 42 81  2  0  0  0  0
 43 46  1  0  0  0  0
 44 53  1  0  0  0  0
 45 66  1  0  0  0  0
 46 48  1  0  0  0  0
 47 49  1  0  0  0  0
 47 50  1  0  0  0  0
 48 52  1  0  0  0  0
 49 54  1  0  0  0  0
 50 67  1  0  0  0  0
 51 54  1  0  0  0  0
 51 67  1  0  0  0  0
 52 72  1  0  0  0  0
 53 66  1  0  0  0  0
 54 65  1  0  0  0  0
 56 62  1  0  0  0  0
 57 63  1  0  0  0  0
 58 63  1  0  0  0  0
 59 63  1  0  0  0  0
 60 74  1  0  0  0  0
 61 63  1  0  0  0  0
 61 73  1  0  0  0  0
 62 74  1  0  0  0  0
 64 65  1  0  0  0  0
M  CHG  1  74   1
M  ISO  4  34 101  42 100  71 100  84 101
M  END
> <Batch ID>
0172

> <Smiles>
CNC(C)C(=O)NC(C(=O)N1Cc2cc([101O:1][101CH2:1]C(=O)C(=O)Nc3cc(F)cc([100NH:0][100C:0](=O)N4CCCC(n5nc(-c6ccc(Oc7ccc(F)cc7F)cc6)c(C(N)=O)c5N)C4)c3C(C)=O)ccc2CC1C(=O)NC1CCCc2ccccc21)C(C)(C)C

> <Shape>
0.275

> <Color>
0.122

> <Negative vol penalty>
0.000

$$$$

  -OEChem-04052304263D

 91 99  0     1  0  0  0  0  0999 V2000
  -18.1053  -31.2725   26.0460 C   0  0  0  0  0  0  0  0  0  0  0  0
  -19.4899  -31.2863   26.1802 C   0  0  0  0  0  0  0  0  0  0  0  0
  -26.7708  -12.1510   21.7676 C   0  0  0  0  0  0  0  0  0  0  0  0
  -26.1057  -13.7274   20.0618 C   0  0  0  0  0  0  0  0  0  0  0  0
  -17.5089  -30.4799   25.0661 C   0  0  0  0  0  0  0  0  0  0  0  0
  -20.2790  -30.5067   25.3352 C   0  0  0  0  0  0  0  0  0  0  0  0
  -25.8333  -31.8980   23.1629 C   0  0  0  0  0  0  0  0  0  0  0  0
  -25.4781  -11.6274   21.7878 C   0  0  0  0  0  0  0  0  0  0  0  0
  -24.8130  -13.2037   20.0819 C   0  0  0  0  0  0  0  0  0  0  0  0
  -27.1168  -31.5317   23.5657 C   0  0  0  0  0  0  0  0  0  0  0  0
  -23.6194   -9.5086   19.9199 C   0  0  0  0  0  0  0  0  0  0  0  0
  -23.4823   -8.1205   19.9254 C   0  0  0  0  0  0  0  0  0  0  0  0
  -28.9951  -21.3296   19.9224 C   0  0  0  0  0  0  0  0  0  0  0  0
  -27.1192  -29.7612   21.9273 C   0  0  0  0  0  0  0  0  0  0  0  0
  -29.6574  -22.2862   22.0398 C   0  0  0  0  0  0  0  0  0  0  0  0
  -22.3092   -8.2448   22.0338 C   0  0  0  0  0  0  0  0  0  0  0  0
  -27.0846  -13.2010   20.9046 C   0  0  0  0  0  0  0  0  0  0  0  0
  -28.4599  -22.5580   19.5348 C   0  0  0  0  0  0  0  0  0  0  0  0
  -29.4945  -13.3237   20.0771 C   0  0  0  0  0  0  0  0  0  0  0  0
  -18.2916  -29.6976   24.2024 C   0  0  0  0  0  0  0  0  0  0  0  0
  -25.1778  -31.1905   22.1450 C   0  0  0  0  0  0  0  0  0  0  0  0
  -19.6924  -29.7019   24.3437 C   0  0  0  0  0  0  0  0  0  0  0  0
  -25.8285  -30.1221   21.5116 C   0  0  0  0  0  0  0  0  0  0  0  0
  -28.5235  -23.6505   20.3997 C   0  0  0  0  0  0  0  0  0  0  0  0
  -29.5938  -21.1937   21.1749 C   0  0  0  0  0  0  0  0  0  0  0  0
  -29.1222  -23.5146   21.6522 C   0  0  0  0  0  0  0  0  0  0  0  0
  -24.4992  -12.1537   20.9449 C   0  0  0  0  0  0  0  0  0  0  0  0
  -27.7589  -30.4613   22.9499 C   0  0  0  0  0  0  0  0  0  0  0  0
  -23.1015  -10.2648   20.9714 C   0  0  0  0  0  0  0  0  0  0  0  0
  -22.8272   -7.4886   20.9823 C   0  0  0  0  0  0  0  0  0  0  0  0
  -22.4464   -9.6329   22.0284 C   0  0  0  0  0  0  0  0  0  0  0  0
  -28.4196  -13.7427   20.8838 C   0  0  0  0  0  0  0  0  0  0  0  0
  -30.5332  -14.1487   20.4334 C   0  0  0  0  0  0  0  0  0  0  0  0
  -27.8415  -22.6692   18.2204 C   0  0  0  0  0  0  0  0  0  0  0  0
  -29.5492  -12.2818   19.0936 C   0  0  0  0  0  0  0  0  0  0  0  0
  -29.6559  -25.9581   24.4669 C   0  0  0  0  0  0  0  0  0  0  0  0
  -29.7573  -24.6137   23.8046 C   0  0  0  0  0  0  0  0  0  0  0  0
  -22.5138  -29.4654   21.9695 C   0  0  0  0  0  0  0  0  0  0  0  0
  -23.2226  -29.4082   18.8046 C   0  0  0  0  0  0  0  0  0  0  0  0
  -25.5928  -29.6544   16.3615 C   0  0  0  0  0  0  0  0  0  0  0  0
  -30.7651  -19.6409   22.7760 C   0  0  0  0  0  0  0  0  0  0  0  0
  -17.5991  -28.8206   23.1894 C   0  0  0  0  0  0  0  0  0  0  0  0
  -23.8039  -31.6150   21.7037 C   0  0  0  0  0  0  0  0  0  0  0  0
  -25.1761  -29.3430   20.3999 C   0  0  0  0  0  0  0  0  0  0  0  0
  -18.5268  -28.3115   22.0892 C   0  0  0  0  0  0  0  0  0  0  0  0
  -32.2016  -16.6820   24.1393 C   0  0  0  0  0  0  0  0  0  0  0  0
  -19.8253  -27.7811   22.6888 C   0  0  0  0  0  0  0  0  0  0  0  0
  -31.4970  -15.5545   23.3814 C   0  0  0  0  0  0  0  0  0  0  0  0
  -31.2582  -17.8490   24.4255 C   0  0  0  0  0  0  0  0  0  0  0  0
  -29.8503  -17.2536   22.4935 C   0  0  0  0  0  0  0  0  0  0  0  0
  -20.5836  -28.8889   23.4299 C   0  0  1  0  0  0  0  0  0  0  0  0
  -23.0283  -30.5000   21.0090 C   0  0  1  0  0  0  0  0  0  0  0  0
  -30.7772  -16.0836   22.1254 C   0  0  2  0  0  0  0  0  0  0  0  0
  -25.8758  -29.5257   13.8714 C   0  0  0  0  0  0  0  0  0  0  0  0
  -23.0117  -26.3673   18.9401 C   0  0  0  0  0  0  0  0  0  0  0  0
  -24.2072  -26.2561   16.7431 C   0  0  0  0  0  0  0  0  0  0  0  0
  -21.9927  -27.3937   16.8999 C   0  0  0  0  0  0  0  0  0  0  0  0
  -26.5595  -32.4475   16.2107 C   0  0  0  0  0  0  0  0  0  0  0  0
  -30.8086  -26.9108   24.2451 C   0  0  0  0  0  0  0  0  0  0  0  0
  -30.3843  -28.3755   24.2876 C   0  0  0  0  0  0  0  0  0  0  0  0
  -29.3614  -28.7239   23.2127 C   0  0  0  0  0  0  0  0  0  1  0  0
  -24.0299  -28.5027   17.9060 C   0  0  1  0  0  0  0  0  0  0  0  0
  -25.6218  -30.4378   15.0616 C   0  0  2  0  0  0  0  0  0  0  0  0
  -27.9496  -24.9688   19.9821 C   0  0  0  0  0  0  0  0  0  0  0  0
  -23.3222  -27.1432   17.6445 C   0  0  0  0  0  0  0  0  0  0  0  0
  -28.7453  -14.7552   21.6917 N   0  0  0  0  0  0  0  0  0  0  0  0
  -26.8210  -21.9571   17.8492 N   0  0  0  0  0  0  0  0  0  0  0  0
  -30.0367  -14.9792   21.3946 N   0  0  0  0  0  0  0  0  0  0  0  0
  -23.8299  -29.7926   20.0084 N   0  0  0  0  0  0  0  0  0  0  0  0
  -30.6157  -18.3001   23.1891 N   0  0  0  0  0  0  0  0  0  0  0  0
  -31.8137  -14.2375   20.0152 N   0  0  0  0  0  0  0  0  0  0  0  0
  -28.3914  -11.5301   18.8515 N   0  0  0  0  0  0  0  0  0  0  0  0
  -29.1973  -24.6090   22.5450 N   0  0  0  0  0  0  0  0  0  0  0  0
  -30.1369  -19.9456   21.5689 N   0  0  0  0  0  0  0  0  0  0  0  0
  -21.2656  -29.7513   22.4889 N   0  0  0  0  0  0  0  0  0  0  0  0
  -24.3117  -29.2716   16.6986 N   0  0  0  0  0  0  0  0  0  0  0  0
  -26.6974  -31.4684   15.1018 N   0  3  0  0  0  0  0  0  0  0  0  0
  -30.5985  -12.0143   18.4604 O   0  0  0  0  0  0  0  0  0  0  0  0
  -28.6483  -26.1864   25.1195 O   0  0  0  0  0  0  0  0  0  0  0  0
  -30.2798  -23.7235   24.4548 O   0  0  0  0  0  0  0  0  0  0  0  0
  -23.1978  -28.4800   22.2196 O   0  0  0  0  0  0  0  0  0  0  0  0
  -22.0975  -29.7671   18.4481 O   0  0  0  0  0  0  0  0  0  0  0  0
  -26.6056  -29.4036   17.0109 O   0  0  0  0  0  0  0  0  0  0  0  0
  -31.4260  -20.4517   23.4300 O   0  0  0  0  0  0  0  0  0  0  0  0
  -23.2378  -11.6428   20.9641 O   0  0  0  0  0  0  0  0  0  0  0  0
  -29.0114  -30.1013   23.3416 O   0  0  0  0  0  0  0  0  0  1  0  0
  -22.6942   -6.1558   20.9867 F   0  0  0  0  0  0  0  0  0  0  0  0
  -21.9458  -10.3541   23.0408 F   0  0  0  0  0  0  0  0  0  0  0  0
  -27.3998  -24.9494   18.7343 F   0  0  0  0  0  0  0  0  0  0  0  0
  -26.9585  -25.4129   20.8066 F   0  0  0  0  0  0  0  0  0  0  0  0
  -28.8855  -25.9589   19.9599 F   0  0  0  0  0  0  0  0  0  0  0  0
  1  2  1  0  0  0  0
  1  5  2  0  0  0  0
  2  6  2  0  0  0  0
  3  8  2  0  0  0  0
  3 17  1  0  0  0  0
  4  9  1  0  0  0  0
  4 17  2  0  0  0  0
  5 20  1  0  0  0  0
  6 22  1  0  0  0  0
  7 10  2  0  0  0  0
  7 21  1  0  0  0  0
  8 27  1  0  0  0  0
  9 27  2  0  0  0  0
 10 28  1  0  0  0  0
 11 12  2  0  0  0  0
 11 29  1  0  0  0  0
 12 30  1  0  0  0  0
 13 18  2  0  0  0  0
 13 25  1  0  0  0  0
 14 23  1  0  0  0  0
 14 28  2  0  0  0  0
 15 25  2  0  0  0  0
 15 26  1  0  0  0  0
 16 30  2  0  0  0  0
 16 31  1  0  0  0  0
 17 32  1  0  0  0  0
 18 24  1  0  0  0  0
 18 34  1  0  0  0  0
 19 32  1  0  0  0  0
 19 33  2  0  0  0  0
 19 35  1  0  0  0  0
 20 22  2  0  0  0  0
 20 42  1  0  0  0  0
 21 23  2  0  0  0  0
 21 43  1  0  0  0  0
 22 51  1  0  0  0  0
 23 44  1  0  0  0  0
 24 26  2  0  0  0  0
 24 64  1  0  0  0  0
 25 74  1  0  0  0  0
 26 73  1  0  0  0  0
 27 85  1  0  0  0  0
 28 86  1  0  0  0  0
 29 31  2  0  0  0  0
 29 85  1  0  0  0  0
 30 87  1  0  0  0  0
 31 88  1  0  0  0  0
 32 66  2  0  0  0  0
 33 68  1  0  0  0  0
 33 71  1  0  0  0  0
 34 67  2  0  0  0  0
 35 72  1  0  0  0  0
 35 78  2  0  0  0  0
 36 37  1  0  0  0  0
 36 59  1  0  0  0  0
 36 79  2  0  0  0  0
 37 73  1  0  0  0  0
 37 80  2  0  0  0  0
 38 52  1  0  0  0  0
 38 75  1  0  0  0  0
 38 81  2  0  0  0  0
 39 62  1  0  0  0  0
 39 69  1  0  0  0  0
 39 82  2  0  0  0  0
 40 63  1  0  0  0  0
 40 76  1  0  0  0  0
 40 83  2  0  0  0  0
 41 70  1  0  0  0  0
 41 74  1  0  0  0  0
 41 84  2  0  0  0  0
 42 45  1  0  0  0  0
 43 52  1  0  0  0  0
 44 69  1  0  0  0  0
 45 47  1  0  0  0  0
 46 48  1  0  0  0  0
 46 49  1  0  0  0  0
 47 51  1  0  0  0  0
 48 53  1  0  0  0  0
 49 70  1  0  0  0  0
 50 53  1  0  0  0  0
 50 70  1  0  0  0  0
 51 75  1  0  0  0  0
 52 69  1  0  0  0  0
 53 68  1  0  0  0  0
 54 63  1  0  0  0  0
 55 65  1  0  0  0  0
 56 65  1  0  0  0  0
 57 65  1  0  0  0  0
 58 77  1  0  0  0  0
 59 60  1  0  0  0  0
 60 61  1  0  0  0  0
 61 86  1  0  0  0  0
 62 65  1  0  0  0  0
 62 76  1  0  0  0  0
 63 77  1  0  0  0  0
 64 89  1  0  0  0  0
 64 90  1  0  0  0  0
 64 91  1  0  0  0  0
 66 68  1  0  0  0  0
M  CHG  1  77   1
M  ISO  4  41 100  61 101  74 100  86 101
M  END
> <Batch ID>
0172

> <Smiles>
CNC(C)C(=O)NC(C(=O)N1Cc2cc([101O:1][101CH2:1]CCC(=O)C(=O)Nc3cc([100NH:0][100C:0](=O)N4CCCC(n5nc(-c6ccc(Oc7ccc(F)cc7F)cc6)c(C(N)=O)c5N)C4)cc(C=N)c3C(F)(F)F)ccc2CC1C(=O)NC1CCCc2ccccc21)C(C)(C)C

> <Shape>
0.309

> <Color>
0.083

> <Negative vol penalty>
0.000

$$$$

  -OEChem-04052304263D

 88 96  0     1  0  0  0  0  0999 V2000
  -19.5884  -34.6891   24.7573 C   0  0  0  0  0  0  0  0  0  0  0  0
  -19.5518  -33.6787   23.8016 C   0  0  0  0  0  0  0  0  0  0  0  0
  -26.3953  -12.6435   21.6420 C   0  0  0  0  0  0  0  0  0  0  0  0
  -25.9025  -13.6216   19.4885 C   0  0  0  0  0  0  0  0  0  0  0  0
  -20.6887  -35.5426   24.8259 C   0  0  0  0  0  0  0  0  0  0  0  0
  -20.6151  -33.5220   22.9132 C   0  0  0  0  0  0  0  0  0  0  0  0
  -22.7614  -28.2594   20.6320 C   0  0  0  0  0  0  0  0  0  0  0  0
  -25.1711  -11.9754   21.6187 C   0  0  0  0  0  0  0  0  0  0  0  0
  -24.6782  -12.9535   19.4652 C   0  0  0  0  0  0  0  0  0  0  0  0
  -22.5513  -27.6088   19.4169 C   0  0  0  0  0  0  0  0  0  0  0  0
  -23.8658   -9.2173   20.1620 C   0  0  0  0  0  0  0  0  0  0  0  0
  -23.8541   -7.8724   20.5319 C   0  0  0  0  0  0  0  0  0  0  0  0
  -24.5701  -28.5997   18.5442 C   0  0  0  0  0  0  0  0  0  0  0  0
  -22.3226   -8.3804   22.3301 C   0  0  0  0  0  0  0  0  0  0  0  0
  -28.2671  -22.7935   19.4878 C   0  0  0  0  0  0  0  0  0  0  0  0
  -26.7610  -13.4667   20.5769 C   0  0  0  0  0  0  0  0  0  0  0  0
  -29.2582  -13.6912   20.1064 C   0  0  0  0  0  0  0  0  0  0  0  0
  -21.7704  -35.3902   23.9442 C   0  0  0  0  0  0  0  0  0  0  0  0
  -23.8736  -29.0950   20.8090 C   0  0  0  0  0  0  0  0  0  0  0  0
  -21.7303  -34.3751   22.9692 C   0  0  0  0  0  0  0  0  0  0  0  0
  -24.7935  -29.2577   19.7633 C   0  0  0  0  0  0  0  0  0  0  0  0
  -28.4612  -21.5178   18.9832 C   0  0  0  0  0  0  0  0  0  0  0  0
  -24.3126  -12.1304   20.5304 C   0  0  0  0  0  0  0  0  0  0  0  0
  -23.4541  -27.7812   18.3718 C   0  0  0  0  0  0  0  0  0  0  0  0
  -23.1060  -10.1437   20.8762 C   0  0  0  0  0  0  0  0  0  0  0  0
  -23.0825   -7.4540   21.6159 C   0  0  0  0  0  0  0  0  0  0  0  0
  -22.3343   -9.7253   21.9602 C   0  0  0  0  0  0  0  0  0  0  0  0
  -28.0742  -21.2712   17.6707 C   0  0  0  0  0  0  0  0  0  0  0  0
  -27.5127  -22.2934   16.9136 C   0  0  0  0  0  0  0  0  0  0  0  0
  -28.0252  -14.1575   20.6006 C   0  0  0  0  0  0  0  0  0  0  0  0
  -27.3609  -23.5344   17.5109 C   0  0  0  0  0  0  0  0  0  0  0  0
  -30.1403  -14.7112   20.3669 C   0  0  0  0  0  0  0  0  0  0  0  0
  -29.5774  -12.4474   19.4689 C   0  0  0  0  0  0  0  0  0  0  0  0
  -24.2808  -32.1843   21.4367 C   0  0  0  0  0  0  0  0  0  0  0  0
  -27.4045  -31.3327   21.6357 C   0  0  0  0  0  0  0  0  0  0  0  0
  -29.8716  -29.1424   20.7621 C   0  0  0  0  0  0  0  0  0  0  0  0
  -24.5122  -25.1270   15.7669 C   0  0  0  0  0  0  0  0  0  0  0  0
  -29.4666  -20.6026   21.1040 C   0  0  0  0  0  0  0  0  0  0  0  0
  -22.9168  -36.3668   24.0259 C   0  0  0  0  0  0  0  0  0  0  0  0
  -24.1003  -29.7685   22.1347 C   0  0  0  0  0  0  0  0  0  0  0  0
  -26.0141  -30.1280   19.9091 C   0  0  0  0  0  0  0  0  0  0  0  0
  -24.1702  -35.8976   23.2917 C   0  0  0  0  0  0  0  0  0  0  0  0
  -30.8992  -18.3160   23.4270 C   0  0  0  0  0  0  0  0  0  0  0  0
  -23.8111  -35.3688   21.9067 C   0  0  0  0  0  0  0  0  0  0  0  0
  -30.4420  -16.9473   22.9174 C   0  0  0  0  0  0  0  0  0  0  0  0
  -29.8200  -19.3807   23.2387 C   0  0  0  0  0  0  0  0  0  0  0  0
  -28.8322  -18.1236   21.3644 C   0  0  0  0  0  0  0  0  0  0  0  0
  -22.8755  -34.1577   22.0041 C   0  0  1  0  0  0  0  0  0  0  0  0
  -24.9915  -31.0025   22.0333 C   0  0  1  0  0  0  0  0  0  0  0  0
  -29.9099  -17.0326   21.4734 C   0  0  2  0  0  0  0  0  0  0  0  0
  -27.2937  -26.0352   17.1459 C   0  0  0  0  0  0  0  0  0  0  0  0
  -32.3306  -28.7299   21.0455 C   0  0  0  0  0  0  0  0  0  0  0  0
  -22.6024  -23.5539   16.2704 C   0  0  0  0  0  0  0  0  0  0  0  0
  -28.0048  -33.5368   19.6129 C   0  0  0  0  0  0  0  0  0  0  0  0
  -30.2397  -32.4768   19.2259 C   0  0  0  0  0  0  0  0  0  0  0  0
  -29.6546  -33.3605   21.4841 C   0  0  0  0  0  0  0  0  0  0  0  0
  -29.3996  -26.5472   22.1040 C   0  0  0  0  0  0  0  0  0  0  0  0
  -22.5703  -25.8944   17.2252 C   0  0  0  0  0  0  0  0  0  1  0  0
  -26.7526  -24.6721   16.7195 C   0  0  2  0  0  0  0  0  0  0  0  0
  -28.5517  -31.2405   20.6588 C   0  0  1  0  0  0  0  0  0  0  0  0
  -30.9383  -28.4455   21.5872 C   0  0  2  0  0  0  0  0  0  0  0  0
  -23.0065  -25.0139   16.0466 C   0  0  1  0  0  0  0  0  0  0  0  0
  -29.0888  -32.6387   20.2417 C   0  0  0  0  0  0  0  0  0  0  0  0
  -27.7250  -23.8118   18.7830 N   0  0  0  0  0  0  0  0  0  0  0  0
  -28.1124  -15.3786   21.1348 N   0  0  0  0  0  0  0  0  0  0  0  0
  -29.4107  -15.6882   20.9778 N   0  0  0  0  0  0  0  0  0  0  0  0
  -26.1885  -30.7702   21.2224 N   0  0  0  0  0  0  0  0  0  0  0  0
  -29.3672  -19.4068   21.8462 N   0  0  0  0  0  0  0  0  0  0  0  0
  -31.4613  -14.8587   20.1308 N   0  0  0  0  0  0  0  0  0  0  0  0
  -28.5518  -11.5112   19.2792 N   0  0  0  0  0  0  0  0  0  0  0  0
  -29.0357  -20.4981   19.7819 N   0  0  0  0  0  0  0  0  0  0  0  0
  -23.6214  -32.9704   22.3624 N   0  0  0  0  0  0  0  0  0  0  0  0
  -25.3111  -24.6513   16.7956 N   0  0  0  0  0  0  0  0  0  0  0  0
  -29.5502  -30.3784   21.2820 N   0  0  0  0  0  0  0  0  0  0  0  0
  -22.2501  -25.4865   14.8339 N   0  3  0  0  0  0  0  0  0  0  0  0
  -30.7215  -26.9711   21.5752 N   0  3  0  0  0  0  0  0  0  0  0  0
  -30.7412  -12.1675   19.0937 O   0  0  0  0  0  0  0  0  0  0  0  0
  -24.3284  -32.3702   20.2264 O   0  0  0  0  0  0  0  0  0  0  0  0
  -27.5826  -31.8772   22.7281 O   0  0  0  0  0  0  0  0  0  0  0  0
  -29.3758  -28.6421   19.7550 O   0  0  0  0  0  0  0  0  0  0  0  0
  -24.9512  -25.5999   14.7186 O   0  0  0  0  0  0  0  0  0  0  0  0
  -29.9274  -21.6356   21.5964 O   0  0  0  0  0  0  0  0  0  0  0  0
  -23.1180  -11.4784   20.5072 O   0  0  0  0  0  0  0  0  0  0  0  0
  -23.2511  -27.1479   17.1846 O   0  0  0  0  0  0  0  0  0  1  0  0
  -23.0701   -6.1622   21.9701 F   0  0  0  0  0  0  0  0  0  0  0  0
  -21.6013  -10.6104   22.6494 F   0  0  0  0  0  0  0  0  0  0  0  0
  -28.2371  -20.0568   17.1275 F   0  0  0  0  0  0  0  0  0  0  0  0
  -27.1334  -22.0742   15.6488 F   0  0  0  0  0  0  0  0  0  0  0  0
  1  2  1  0  0  0  0
  1  5  2  0  0  0  0
  2  6  2  0  0  0  0
  3  8  2  0  0  0  0
  3 16  1  0  0  0  0
  4  9  1  0  0  0  0
  4 16  2  0  0  0  0
  5 18  1  0  0  0  0
  6 20  1  0  0  0  0
  7 10  2  0  0  0  0
  7 19  1  0  0  0  0
  8 23  1  0  0  0  0
  9 23  2  0  0  0  0
 10 24  1  0  0  0  0
 11 12  2  0  0  0  0
 11 25  1  0  0  0  0
 12 26  1  0  0  0  0
 13 21  1  0  0  0  0
 13 24  2  0  0  0  0
 14 26  2  0  0  0  0
 14 27  1  0  0  0  0
 15 22  1  0  0  0  0
 15 64  2  0  0  0  0
 16 30  1  0  0  0  0
 17 30  1  0  0  0  0
 17 32  2  0  0  0  0
 17 33  1  0  0  0  0
 18 20  2  0  0  0  0
 18 39  1  0  0  0  0
 19 21  2  0  0  0  0
 19 40  1  0  0  0  0
 20 48  1  0  0  0  0
 21 41  1  0  0  0  0
 22 28  2  0  0  0  0
 22 71  1  0  0  0  0
 23 83  1  0  0  0  0
 24 84  1  0  0  0  0
 25 27  2  0  0  0  0
 25 83  1  0  0  0  0
 26 85  1  0  0  0  0
 27 86  1  0  0  0  0
 28 29  1  0  0  0  0
 28 87  1  0  0  0  0
 29 31  2  0  0  0  0
 29 88  1  0  0  0  0
 30 65  2  0  0  0  0
 31 59  1  0  0  0  0
 31 64  1  0  0  0  0
 32 66  1  0  0  0  0
 32 69  1  0  0  0  0
 33 70  1  0  0  0  0
 33 77  2  0  0  0  0
 34 49  1  0  0  0  0
 34 72  1  0  0  0  0
 34 78  2  0  0  0  0
 35 60  1  0  0  0  0
 35 67  1  0  0  0  0
 35 79  2  0  0  0  0
 36 61  1  0  0  0  0
 36 74  1  0  0  0  0
 36 80  2  0  0  0  0
 37 62  1  0  0  0  0
 37 73  1  0  0  0  0
 37 81  2  0  0  0  0
 38 68  1  0  0  0  0
 38 71  1  0  0  0  0
 38 82  2  0  0  0  0
 39 42  1  0  0  0  0
 40 49  1  0  0  0  0
 41 67  1  0  0  0  0
 42 44  1  0  0  0  0
 43 45  1  0  0  0  0
 43 46  1  0  0  0  0
 44 48  1  0  0  0  0
 45 50  1  0  0  0  0
 46 68  1  0  0  0  0
 47 50  1  0  0  0  0
 47 68  1  0  0  0  0
 48 72  1  0  0  0  0
 49 67  1  0  0  0  0
 50 66  1  0  0  0  0
 51 59  1  0  0  0  0
 52 61  1  0  0  0  0
 53 62  1  0  0  0  0
 54 63  1  0  0  0  0
 55 63  1  0  0  0  0
 56 63  1  0  0  0  0
 57 76  1  0  0  0  0
 58 62  1  0  0  0  0
 58 84  1  0  0  0  0
 59 73  1  0  0  0  0
 60 63  1  0  0  0  0
 60 74  1  0  0  0  0
 61 76  1  0  0  0  0
 62 75  1  0  0  0  0
 65 66  1  0  0  0  0
M  CHG  2  75   1  76   1
M  ISO  4  38 100  58 101  71 100  84 101
M  END
> <Batch ID>
0172

> <Smiles>
CNC(C)C(=O)NC(C(=O)N1Cc2cc([101O:1][101CH2:1]C(C)(N)C(=O)NC(C)c3ncc([100NH:0][100C:0](=O)N4CCCC(n5nc(-c6ccc(Oc7ccc(F)cc7F)cc6)c(C(N)=O)c5N)C4)c(F)c3F)ccc2CC1C(=O)NC1CCCc2ccccc21)C(C)(C)C

> <Shape>
0.248

> <Color>
0.066

> <Negative vol penalty>
0.000

$$$$

  -OEChem-04052304263D

 89 97  0     1  0  0  0  0  0999 V2000
  -21.1048  -29.9691   14.4416 C   0  0  0  0  0  0  0  0  0  0  0  0
  -22.3347  -29.5909   14.9704 C   0  0  0  0  0  0  0  0  0  0  0  0
  -22.6319  -14.6984   22.0876 C   0  0  0  0  0  0  0  0  0  0  0  0
  -23.5680  -16.9256   22.0954 C   0  0  0  0  0  0  0  0  0  0  0  0
  -20.4755  -31.1253   14.9011 C   0  0  0  0  0  0  0  0  0  0  0  0
  -22.9366  -30.3694   15.9584 C   0  0  0  0  0  0  0  0  0  0  0  0
  -24.8027  -27.5870   19.7559 C   0  0  0  0  0  0  0  0  0  0  0  0
  -21.8342  -15.0298   23.1828 C   0  0  0  0  0  0  0  0  0  0  0  0
  -22.7703  -17.2571   23.1905 C   0  0  0  0  0  0  0  0  0  0  0  0
  -26.0182  -26.9411   19.5344 C   0  0  0  0  0  0  0  0  0  0  0  0
  -18.9621  -16.7210   23.7515 C   0  0  0  0  0  0  0  0  0  0  0  0
  -17.6210  -16.3391   23.7159 C   0  0  0  0  0  0  0  0  0  0  0  0
  -32.9456  -16.4709   20.8148 C   0  0  0  0  0  0  0  0  0  0  0  0
  -27.1600  -28.6879   20.7445 C   0  0  0  0  0  0  0  0  0  0  0  0
  -31.3979  -18.2655   20.3445 C   0  0  0  0  0  0  0  0  0  0  0  0
  -17.9437  -15.0199   25.7141 C   0  0  0  0  0  0  0  0  0  0  0  0
  -23.4989  -15.6463   21.5439 C   0  0  0  0  0  0  0  0  0  0  0  0
  -33.8882  -17.3995   21.2561 C   0  0  0  0  0  0  0  0  0  0  0  0
  -23.9989  -15.4457   19.0505 C   0  0  0  0  0  0  0  0  0  0  0  0
  -21.0655  -31.9131   15.9020 C   0  0  0  0  0  0  0  0  0  0  0  0
  -24.7579  -28.7959   20.4652 C   0  0  0  0  0  0  0  0  0  0  0  0
  -22.3153  -31.5379   16.4307 C   0  0  0  0  0  0  0  0  0  0  0  0
  -25.9423  -29.3458   20.9758 C   0  0  0  0  0  0  0  0  0  0  0  0
  -33.5857  -18.7611   21.2417 C   0  0  0  0  0  0  0  0  0  0  0  0
  -31.7004  -16.9039   20.3589 C   0  0  0  0  0  0  0  0  0  0  0  0
  -32.3405  -19.1941   20.7859 C   0  0  0  0  0  0  0  0  0  0  0  0
  -21.9034  -16.3092   23.7343 C   0  0  0  0  0  0  0  0  0  0  0  0
  -27.1975  -27.4930   20.0263 C   0  0  0  0  0  0  0  0  0  0  0  0
  -19.7940  -16.2523   24.7684 C   0  0  0  0  0  0  0  0  0  0  0  0
  -17.1118  -15.4885   24.6972 C   0  0  0  0  0  0  0  0  0  0  0  0
  -19.2848  -15.4018   25.7497 C   0  0  0  0  0  0  0  0  0  0  0  0
  -24.3236  -15.3043   20.4130 C   0  0  0  0  0  0  0  0  0  0  0  0
  -25.1071  -14.9832   18.3837 C   0  0  0  0  0  0  0  0  0  0  0  0
  -35.1798  -16.9169   21.7269 C   0  0  0  0  0  0  0  0  0  0  0  0
  -29.7720  -23.3453   20.0941 C   0  0  0  0  0  0  0  0  0  0  0  0
  -22.8027  -15.9501   18.4420 C   0  0  0  0  0  0  0  0  0  0  0  0
  -30.8613  -22.6524   20.4691 C   0  0  0  0  0  0  0  0  0  0  0  0
  -29.6626  -24.8345   20.1657 C   0  0  0  0  0  0  0  0  0  0  0  0
  -30.8246  -21.1532   20.3401 C   0  0  0  0  0  0  0  0  0  0  0  0
  -23.8605  -31.7671   19.7793 C   0  0  0  0  0  0  0  0  0  0  0  0
  -24.4082  -32.2468   22.9403 C   0  0  0  0  0  0  0  0  0  0  0  0
  -26.0243  -31.2672   25.7820 C   0  0  0  0  0  0  0  0  0  0  0  0
  -30.8832  -14.5742   19.8581 C   0  0  0  0  0  0  0  0  0  0  0  0
  -20.3696  -33.1798   16.3332 C   0  0  0  0  0  0  0  0  0  0  0  0
  -23.4355  -29.4664   20.7186 C   0  0  0  0  0  0  0  0  0  0  0  0
  -25.9458  -30.6311   21.7611 C   0  0  0  0  0  0  0  0  0  0  0  0
  -20.8969  -33.7469   17.6487 C   0  0  0  0  0  0  0  0  0  0  0  0
  -28.7479  -11.9079   18.8539 C   0  0  0  0  0  0  0  0  0  0  0  0
  -22.4223  -33.7622   17.6502 C   0  0  0  0  0  0  0  0  0  0  0  0
  -27.3417  -12.4912   19.0100 C   0  0  0  0  0  0  0  0  0  0  0  0
  -29.6898  -12.3966   19.9529 C   0  0  0  0  0  0  0  0  0  0  0  0
  -28.3477  -14.4383   20.2684 C   0  0  0  0  0  0  0  0  0  0  0  0
  -22.9883  -32.3429   17.5213 C   0  0  1  0  0  0  0  0  0  0  0  0
  -23.5681  -30.9578   21.0111 C   0  0  1  0  0  0  0  0  0  0  0  0
  -27.3802  -14.0259   19.1470 C   0  0  2  0  0  0  0  0  0  0  0  0
  -34.5980  -19.7568   21.7167 C   0  0  0  0  0  0  0  0  0  0  0  0
  -26.3015  -31.8771   28.2004 C   0  0  0  0  0  0  0  0  0  0  0  0
  -26.2315  -34.5606   22.1453 C   0  0  0  0  0  0  0  0  0  0  0  0
  -27.1917  -34.5067   24.4569 C   0  0  0  0  0  0  0  0  0  0  0  0
  -24.7722  -35.0150   24.1248 C   0  0  0  0  0  0  0  0  0  0  0  0
  -24.9357  -28.6666   26.6826 C   0  0  0  0  0  0  0  0  0  0  0  0
  -28.3572  -25.4426   19.6993 C   0  0  0  0  0  0  0  0  0  1  0  0
  -25.6029  -32.6539   23.7686 C   0  0  1  0  0  0  0  0  0  0  0  0
  -25.5246  -31.0388   27.1972 C   0  0  2  0  0  0  0  0  0  0  0  0
  -25.9501  -34.1608   23.6075 C   0  0  0  0  0  0  0  0  0  0  0  0
  -25.5425  -14.7919   20.6021 N   0  0  0  0  0  0  0  0  0  0  0  0
  -35.3472  -15.7581   22.2886 N   0  0  0  0  0  0  0  0  0  0  0  0
  -25.9934  -14.6072   19.3497 N   0  0  0  0  0  0  0  0  0  0  0  0
  -24.6286  -31.2522   21.9770 N   0  0  0  0  0  0  0  0  0  0  0  0
  -29.6776  -13.8595   20.0212 N   0  0  0  0  0  0  0  0  0  0  0  0
  -25.4000  -14.8654   17.0712 N   0  0  0  0  0  0  0  0  0  0  0  0
  -21.7616  -16.3840   19.2740 N   0  0  0  0  0  0  0  0  0  0  0  0
  -32.0126  -20.5711   20.7623 N   0  0  0  0  0  0  0  0  0  0  0  0
  -30.7431  -15.9606   19.9100 N   0  0  0  0  0  0  0  0  0  0  0  0
  -22.9048  -31.6485   18.7883 N   0  0  0  0  0  0  0  0  0  0  0  0
  -25.3052  -32.2525   25.1393 N   0  0  0  0  0  0  0  0  0  0  0  0
  -25.6689  -29.6037   27.5722 N   0  3  0  0  0  0  0  0  0  0  0  0
  -22.6548  -15.9989   17.1973 O   0  0  0  0  0  0  0  0  0  0  0  0
  -30.5648  -25.5379   20.6131 O   0  0  0  0  0  0  0  0  0  0  0  0
  -29.8322  -20.5776   19.9067 O   0  0  0  0  0  0  0  0  0  0  0  0
  -24.8770  -32.4498   19.7321 O   0  0  0  0  0  0  0  0  0  0  0  0
  -23.3180  -32.7863   23.1455 O   0  0  0  0  0  0  0  0  0  0  0  0
  -26.9614  -30.6373   25.2968 O   0  0  0  0  0  0  0  0  0  0  0  0
  -31.9563  -13.9995   19.6580 O   0  0  0  0  0  0  0  0  0  0  0  0
  -32.0191  -23.2155   20.9628 O   0  0  0  0  0  0  0  0  0  0  0  0
  -21.1250  -16.6330   24.8028 O   0  0  0  0  0  0  0  0  0  0  0  0
  -28.3853  -26.8650   19.8110 O   0  0  0  0  0  0  0  0  0  1  0  0
  -15.8236  -15.1231   24.6638 F   0  0  0  0  0  0  0  0  0  0  0  0
  -20.0788  -14.9492   26.7297 F   0  0  0  0  0  0  0  0  0  0  0  0
  1  2  1  0  0  0  0
  1  5  2  0  0  0  0
  2  6  2  0  0  0  0
  3  8  2  0  0  0  0
  3 17  1  0  0  0  0
  4  9  1  0  0  0  0
  4 17  2  0  0  0  0
  5 20  1  0  0  0  0
  6 22  1  0  0  0  0
  7 10  2  0  0  0  0
  7 21  1  0  0  0  0
  8 27  1  0  0  0  0
  9 27  2  0  0  0  0
 10 28  1  0  0  0  0
 11 12  2  0  0  0  0
 11 29  1  0  0  0  0
 12 30  1  0  0  0  0
 13 18  2  0  0  0  0
 13 25  1  0  0  0  0
 14 23  1  0  0  0  0
 14 28  2  0  0  0  0
 15 25  2  0  0  0  0
 15 26  1  0  0  0  0
 16 30  2  0  0  0  0
 16 31  1  0  0  0  0
 17 32  1  0  0  0  0
 18 24  1  0  0  0  0
 18 34  1  0  0  0  0
 19 32  1  0  0  0  0
 19 33  2  0  0  0  0
 19 36  1  0  0  0  0
 20 22  2  0  0  0  0
 20 44  1  0  0  0  0
 21 23  2  0  0  0  0
 21 45  1  0  0  0  0
 22 53  1  0  0  0  0
 23 46  1  0  0  0  0
 24 26  2  0  0  0  0
 24 56  1  0  0  0  0
 25 74  1  0  0  0  0
 26 73  1  0  0  0  0
 27 86  1  0  0  0  0
 28 87  1  0  0  0  0
 29 31  2  0  0  0  0
 29 86  1  0  0  0  0
 30 88  1  0  0  0  0
 31 89  1  0  0  0  0
 32 66  2  0  0  0  0
 33 68  1  0  0  0  0
 33 71  1  0  0  0  0
 34 67  2  0  0  0  0
 35 37  2  0  0  0  0
 35 38  1  0  0  0  0
 36 72  1  0  0  0  0
 36 78  2  0  0  0  0
 37 39  1  0  0  0  0
 37 85  1  0  0  0  0
 38 62  1  0  0  0  0
 38 79  2  0  0  0  0
 39 73  1  0  0  0  0
 39 80  2  0  0  0  0
 40 54  1  0  0  0  0
 40 75  1  0  0  0  0
 40 81  2  0  0  0  0
 41 63  1  0  0  0  0
 41 69  1  0  0  0  0
 41 82  2  0  0  0  0
 42 64  1  0  0  0  0
 42 76  1  0  0  0  0
 42 83  2  0  0  0  0
 43 70  1  0  0  0  0
 43 74  1  0  0  0  0
 43 84  2  0  0  0  0
 44 47  1  0  0  0  0
 45 54  1  0  0  0  0
 46 69  1  0  0  0  0
 47 49  1  0  0  0  0
 48 50  1  0  0  0  0
 48 51  1  0  0  0  0
 49 53  1  0  0  0  0
 50 55  1  0  0  0  0
 51 70  1  0  0  0  0
 52 55  1  0  0  0  0
 52 70  1  0  0  0  0
 53 75  1  0  0  0  0
 54 69  1  0  0  0  0
 55 68  1  0  0  0  0
 57 64  1  0  0  0  0
 58 65  1  0  0  0  0
 59 65  1  0  0  0  0
 60 65  1  0  0  0  0
 61 77  1  0  0  0  0
 62 87  1  0  0  0  0
 63 65  1  0  0  0  0
 63 76  1  0  0  0  0
 64 77  1  0  0  0  0
 66 68  1  0  0  0  0
M  CHG  1  77   1
M  ISO  4  43 100  62 101  74 100  87 101
M  END
> <Batch ID>
0172

> <Smiles>
CNC(C)C(=O)NC(C(=O)N1Cc2cc([101O:1][101CH2:1]C(=O)CC(=O)C(=O)Nc3cc([100NH:0][100C:0](=O)N4CCCC(n5nc(-c6ccc(Oc7ccc(F)cc7F)cc6)c(C(N)=O)c5N)C4)cc(C=N)c3C)ccc2CC1C(=O)NC1CCCc2ccccc21)C(C)(C)C

> <Shape>
0.233

> <Color>
0.118

> <Negative vol penalty>
0.000

$$$$

  -OEChem-04052304263D

 85 93  0     1  0  0  0  0  0999 V2000
  -17.1774  -31.1699   23.3980 C   0  0  0  0  0  0  0  0  0  0  0  0
  -18.4089  -31.4386   23.9869 C   0  0  0  0  0  0  0  0  0  0  0  0
  -24.9079  -13.7752   19.7224 C   0  0  0  0  0  0  0  0  0  0  0  0
  -25.5314  -13.1873   21.9814 C   0  0  0  0  0  0  0  0  0  0  0  0
  -16.9646  -29.9512   22.7552 C   0  0  0  0  0  0  0  0  0  0  0  0
  -19.4279  -30.4882   23.9342 C   0  0  0  0  0  0  0  0  0  0  0  0
  -25.4400  -31.5583   23.4714 C   0  0  0  0  0  0  0  0  0  0  0  0
  -25.0461  -12.4418   19.3372 C   0  0  0  0  0  0  0  0  0  0  0  0
  -25.6695  -11.8538   21.5962 C   0  0  0  0  0  0  0  0  0  0  0  0
  -26.4622  -31.5937   24.4189 C   0  0  0  0  0  0  0  0  0  0  0  0
  -25.8363   -8.2350   21.2891 C   0  0  0  0  0  0  0  0  0  0  0  0
  -25.2879   -7.2588   22.1209 C   0  0  0  0  0  0  0  0  0  0  0  0
  -25.5239  -23.2581   27.6623 C   0  0  0  0  0  0  0  0  0  0  0  0
  -25.3947  -22.0491   26.9379 C   0  0  0  0  0  0  0  0  0  0  0  0
  -27.0143  -29.3035   23.8999 C   0  0  0  0  0  0  0  0  0  0  0  0
  -23.0983   -8.2359   21.8242 C   0  0  0  0  0  0  0  0  0  0  0  0
  -25.1507  -14.1480   21.0445 C   0  0  0  0  0  0  0  0  0  0  0  0
  -23.8464  -16.1547   21.9276 C   0  0  0  0  0  0  0  0  0  0  0  0
  -17.9846  -28.9892   22.6862 C   0  0  0  0  0  0  0  0  0  0  0  0
  -25.1899  -30.3898   22.7375 C   0  0  0  0  0  0  0  0  0  0  0  0
  -19.2280  -29.2549   23.2910 C   0  0  0  0  0  0  0  0  0  0  0  0
  -25.9901  -29.2567   22.9418 C   0  0  0  0  0  0  0  0  0  0  0  0
  -25.4268  -11.4811   20.2741 C   0  0  0  0  0  0  0  0  0  0  0  0
  -27.2476  -30.4653   24.6353 C   0  0  0  0  0  0  0  0  0  0  0  0
  -25.0157   -9.2117   20.7249 C   0  0  0  0  0  0  0  0  0  0  0  0
  -23.9190   -7.2592   22.3884 C   0  0  0  0  0  0  0  0  0  0  0  0
  -23.6467   -9.2121   20.9924 C   0  0  0  0  0  0  0  0  0  0  0  0
  -25.0087  -15.5254   21.4429 C   0  0  0  0  0  0  0  0  0  0  0  0
  -24.2304  -17.4527   22.1604 C   0  0  0  0  0  0  0  0  0  0  0  0
  -26.6207  -23.9019   27.1385 C   0  0  0  0  0  0  0  0  0  0  0  0
  -26.4217  -22.0404   26.0229 C   0  0  0  0  0  0  0  0  0  0  0  0
  -22.5368  -15.6142   22.1479 C   0  0  0  0  0  0  0  0  0  0  0  0
  -27.7123  -27.2361   28.5012 C   0  0  0  0  0  0  0  0  0  0  0  0
  -26.8294  -26.0227   28.4429 C   0  0  0  0  0  0  0  0  0  0  0  0
  -22.7248  -28.4032   22.4545 C   0  0  0  0  0  0  0  0  0  0  0  0
  -24.5713  -27.0615   20.1496 C   0  0  0  0  0  0  0  0  0  0  0  0
  -27.6949  -26.5432   18.8763 C   0  0  0  0  0  0  0  0  0  0  0  0
  -27.8631  -21.1761   24.1463 C   0  0  0  0  0  0  0  0  0  0  0  0
  -17.6921  -27.6673   22.0215 C   0  0  0  0  0  0  0  0  0  0  0  0
  -24.1009  -30.3763   21.7001 C   0  0  0  0  0  0  0  0  0  0  0  0
  -25.7756  -27.9839   22.1656 C   0  0  0  0  0  0  0  0  0  0  0  0
  -18.9458  -26.8642   21.6848 C   0  0  0  0  0  0  0  0  0  0  0  0
  -28.4574  -19.9195   20.8683 C   0  0  0  0  0  0  0  0  0  0  0  0
  -19.9014  -26.8428   22.8735 C   0  0  0  0  0  0  0  0  0  0  0  0
  -27.5175  -18.7161   20.7654 C   0  0  0  0  0  0  0  0  0  0  0  0
  -29.0489  -20.0590   22.2699 C   0  0  0  0  0  0  0  0  0  0  0  0
  -27.1250  -18.8783   23.2568 C   0  0  0  0  0  0  0  0  0  0  0  0
  -20.3661  -28.2591   23.2334 C   0  0  1  0  0  0  0  0  0  0  0  0
  -23.6024  -28.9715   21.3754 C   0  0  1  0  0  0  0  0  0  0  0  0
  -26.4541  -18.7346   21.8809 C   0  0  2  0  0  0  0  0  0  0  0  0
  -28.8903  -25.3742   17.0050 C   0  0  0  0  0  0  0  0  0  0  0  0
  -28.5663  -32.0512   27.3604 C   0  0  0  0  0  0  0  0  0  0  0  0
  -24.2092  -24.3947   21.5873 C   0  0  0  0  0  0  0  0  0  0  0  0
  -26.1392  -23.5002   20.2671 C   0  0  0  0  0  0  0  0  0  0  0  0
  -24.0740  -24.2622   19.0936 C   0  0  0  0  0  0  0  0  0  0  0  0
  -28.7530  -29.0913   17.8055 C   0  0  0  0  0  0  0  0  0  0  0  0
  -27.2857  -28.4199   27.6642 C   0  0  0  0  0  0  0  0  0  0  0  0
  -28.2676  -29.5865   27.7922 C   0  0  0  0  0  0  0  0  0  0  0  0
  -25.6225  -25.9785   20.1176 C   0  0  1  0  0  0  0  0  0  0  0  0
  -28.2415  -26.6702   17.4658 C   0  0  2  0  0  0  0  0  0  0  0  0
  -27.8721  -30.7730   26.9094 C   0  0  2  0  0  0  0  0  0  1  0  0
  -25.0143  -24.5571   20.2826 C   0  0  0  0  0  0  0  0  0  0  0  0
  -26.0527  -16.3554   21.3713 N   0  0  0  0  0  0  0  0  0  0  0  0
  -25.5479  -17.5195   21.8140 N   0  0  0  0  0  0  0  0  0  0  0  0
  -24.6944  -28.0184   21.1670 N   0  0  0  0  0  0  0  0  0  0  0  0
  -27.9828  -20.0736   23.2739 N   0  0  0  0  0  0  0  0  0  0  0  0
  -23.5662  -18.5321   22.6254 N   0  0  0  0  0  0  0  0  0  0  0  0
  -22.3146  -14.2615   21.8564 N   0  0  0  0  0  0  0  0  0  0  0  0
  -27.2260  -25.1383   27.4631 N   0  0  0  0  0  0  0  0  0  0  0  0
  -26.7927  -21.0935   25.0362 N   0  0  0  0  0  0  0  0  0  0  0  0
  -21.3848  -28.7072   22.3082 N   0  0  0  0  0  0  0  0  0  0  0  0
  -26.3677  -26.1694   18.8780 N   0  0  0  0  0  0  0  0  0  0  0  0
  -29.2611  -27.7551   17.4011 N   0  3  0  0  0  0  0  0  0  0  0  0
  -21.5875  -16.3143   22.5747 O   0  0  0  0  0  0  0  0  0  0  0  0
  -28.7000  -27.1769   29.2180 O   0  0  0  0  0  0  0  0  0  0  0  0
  -25.9242  -25.9666   29.2586 O   0  0  0  0  0  0  0  0  0  0  0  0
  -23.2261  -27.7369   23.3526 O   0  0  0  0  0  0  0  0  0  0  0  0
  -23.6781  -27.0626   19.2988 O   0  0  0  0  0  0  0  0  0  0  0  0
  -28.3781  -26.7509   19.8766 O   0  0  0  0  0  0  0  0  0  0  0  0
  -28.6356  -22.1362   24.0885 O   0  0  0  0  0  0  0  0  0  0  0  0
  -27.1736  -23.1664   26.1386 O   0  0  0  0  0  0  0  0  0  0  0  0
  -25.5615  -10.1797   19.8986 O   0  0  0  0  0  0  0  0  0  0  0  0
  -28.2455  -30.4969   25.5600 O   0  0  0  0  0  0  0  0  0  1  0  0
  -23.3923   -6.3207   23.1860 F   0  0  0  0  0  0  0  0  0  0  0  0
  -22.8531  -10.1471   20.4522 F   0  0  0  0  0  0  0  0  0  0  0  0
  1  2  1  0  0  0  0
  1  5  2  0  0  0  0
  2  6  2  0  0  0  0
  3  8  2  0  0  0  0
  3 17  1  0  0  0  0
  4  9  1  0  0  0  0
  4 17  2  0  0  0  0
  5 19  1  0  0  0  0
  6 21  1  0  0  0  0
  7 10  2  0  0  0  0
  7 20  1  0  0  0  0
  8 23  1  0  0  0  0
  9 23  2  0  0  0  0
 10 24  1  0  0  0  0
 11 12  2  0  0  0  0
 11 25  1  0  0  0  0
 12 26  1  0  0  0  0
 13 14  1  0  0  0  0
 13 30  2  0  0  0  0
 14 31  2  0  0  0  0
 15 22  1  0  0  0  0
 15 24  2  0  0  0  0
 16 26  2  0  0  0  0
 16 27  1  0  0  0  0
 17 28  1  0  0  0  0
 18 28  1  0  0  0  0
 18 29  2  0  0  0  0
 18 32  1  0  0  0  0
 19 21  2  0  0  0  0
 19 39  1  0  0  0  0
 20 22  2  0  0  0  0
 20 40  1  0  0  0  0
 21 48  1  0  0  0  0
 22 41  1  0  0  0  0
 23 82  1  0  0  0  0
 24 83  1  0  0  0  0
 25 27  2  0  0  0  0
 25 82  1  0  0  0  0
 26 84  1  0  0  0  0
 27 85  1  0  0  0  0
 28 63  2  0  0  0  0
 29 64  1  0  0  0  0
 29 67  1  0  0  0  0
 30 69  1  0  0  0  0
 30 81  1  0  0  0  0
 31 70  1  0  0  0  0
 31 81  1  0  0  0  0
 32 68  1  0  0  0  0
 32 74  2  0  0  0  0
 33 34  1  0  0  0  0
 33 57  1  0  0  0  0
 33 75  2  0  0  0  0
 34 69  1  0  0  0  0
 34 76  2  0  0  0  0
 35 49  1  0  0  0  0
 35 71  1  0  0  0  0
 35 77  2  0  0  0  0
 36 59  1  0  0  0  0
 36 65  1  0  0  0  0
 36 78  2  0  0  0  0
 37 60  1  0  0  0  0
 37 72  1  0  0  0  0
 37 79  2  0  0  0  0
 38 66  1  0  0  0  0
 38 70  1  0  0  0  0
 38 80  2  0  0  0  0
 39 42  1  0  0  0  0
 40 49  1  0  0  0  0
 41 65  1  0  0  0  0
 42 44  1  0  0  0  0
 43 45  1  0  0  0  0
 43 46  1  0  0  0  0
 44 48  1  0  0  0  0
 45 50  1  0  0  0  0
 46 66  1  0  0  0  0
 47 50  1  0  0  0  0
 47 66  1  0  0  0  0
 48 71  1  0  0  0  0
 49 65  1  0  0  0  0
 50 64  1  0  0  0  0
 51 60  1  0  0  0  0
 52 61  1  0  0  0  0
 53 62  1  0  0  0  0
 54 62  1  0  0  0  0
 55 62  1  0  0  0  0
 56 73  1  0  0  0  0
 57 58  1  0  0  0  0
 58 61  1  0  0  0  0
 59 62  1  0  0  0  0
 59 72  1  0  0  0  0
 60 73  1  0  0  0  0
 61 83  1  0  0  0  0
 63 64  1  0  0  0  0
M  CHG  1  73   1
M  ISO  4  38 100  61 101  70 100  83 101
M  END
> <Batch ID>
0172

> <Smiles>
CNC(C)C(=O)NC(C(=O)N1Cc2cc([101O:1][101CH:1](C)CCC(=O)C(=O)Nc3ccc([100NH:0][100C:0](=O)N4CCCC(n5nc(-c6ccc(Oc7ccc(F)cc7F)cc6)c(C(N)=O)c5N)C4)o3)ccc2CC1C(=O)NC1CCCc2ccccc21)C(C)(C)C

> <Shape>
0.235

> <Color>
0.086

> <Negative vol penalty>
0.000

$$$$

  -OEChem-04052304263D

 89 97  0     1  0  0  0  0  0999 V2000
  -29.0347  -31.5748   26.5842 C   0  0  0  0  0  0  0  0  0  0  0  0
  -28.8998  -30.5344   25.6706 C   0  0  0  0  0  0  0  0  0  0  0  0
  -30.0801  -13.9886   17.4583 C   0  0  0  0  0  0  0  0  0  0  0  0
  -31.1870  -14.0871   19.6035 C   0  0  0  0  0  0  0  0  0  0  0  0
  -27.8998  -32.1750   27.1279 C   0  0  0  0  0  0  0  0  0  0  0  0
  -27.6298  -30.0928   25.3010 C   0  0  0  0  0  0  0  0  0  0  0  0
  -27.1957  -29.3888   20.3049 C   0  0  0  0  0  0  0  0  0  0  0  0
  -30.9178  -14.9959   16.9797 C   0  0  0  0  0  0  0  0  0  0  0  0
  -32.0248  -15.0945   19.1250 C   0  0  0  0  0  0  0  0  0  0  0  0
  -27.7472  -28.2228   19.7759 C   0  0  0  0  0  0  0  0  0  0  0  0
  -31.8475  -18.4232   18.5600 C   0  0  0  0  0  0  0  0  0  0  0  0
  -32.0632  -19.5307   19.3800 C   0  0  0  0  0  0  0  0  0  0  0  0
  -28.7300  -16.3990   23.5830 C   0  0  0  0  0  0  0  0  0  0  0  0
  -25.5570  -27.2125   19.7351 C   0  0  0  0  0  0  0  0  0  0  0  0
  -27.7467  -17.4995   21.6701 C   0  0  0  0  0  0  0  0  0  0  0  0
  -34.4314  -19.0529   19.4022 C   0  0  0  0  0  0  0  0  0  0  0  0
  -30.2146  -13.5342   18.7702 C   0  0  0  0  0  0  0  0  0  0  0  0
  -29.6572  -17.4342   23.7020 C   0  0  0  0  0  0  0  0  0  0  0  0
  -29.5735  -11.1052   19.2136 C   0  0  0  0  0  0  0  0  0  0  0  0
  -26.6152  -31.7470   26.7575 C   0  0  0  0  0  0  0  0  0  0  0  0
  -25.8200  -29.4718   20.5636 C   0  0  0  0  0  0  0  0  0  0  0  0
  -26.4767  -30.6870   25.8412 C   0  0  0  0  0  0  0  0  0  0  0  0
  -24.9901  -28.3817   20.2650 C   0  0  0  0  0  0  0  0  0  0  0  0
  -29.6292  -18.5021   22.8051 C   0  0  0  0  0  0  0  0  0  0  0  0
  -27.7748  -16.4316   22.5671 C   0  0  0  0  0  0  0  0  0  0  0  0
  -28.6740  -18.5347   21.7891 C   0  0  0  0  0  0  0  0  0  0  0  0
  -31.8902  -15.5489   17.8130 C   0  0  0  0  0  0  0  0  0  0  0  0
  -26.9283  -27.1334   19.4936 C   0  0  0  0  0  0  0  0  0  0  0  0
  -32.9237  -17.6304   18.1611 C   0  0  0  0  0  0  0  0  0  0  0  0
  -33.3552  -19.8456   19.8011 C   0  0  0  0  0  0  0  0  0  0  0  0
  -34.2157  -17.9453   18.5822 C   0  0  0  0  0  0  0  0  0  0  0  0
  -29.3492  -12.4940   19.2653 C   0  0  0  0  0  0  0  0  0  0  0  0
  -28.4656  -10.5560   19.8114 C   0  0  0  0  0  0  0  0  0  0  0  0
  -30.6425  -17.3724   24.7735 C   0  0  0  0  0  0  0  0  0  0  0  0
  -30.6841  -10.3767   18.6735 C   0  0  0  0  0  0  0  0  0  0  0  0
  -24.0493  -29.9039   23.1678 C   0  0  0  0  0  0  0  0  0  0  0  0
  -27.8078  -23.6200   19.3228 C   0  0  0  0  0  0  0  0  0  0  0  0
  -21.6195  -30.0232   21.0220 C   0  0  0  0  0  0  0  0  0  0  0  0
  -27.7406  -19.7817   19.8093 C   0  0  0  0  0  0  0  0  0  0  0  0
  -20.4363  -29.1765   17.9349 C   0  0  0  0  0  0  0  0  0  0  0  0
  -25.8202  -15.2591   21.4944 C   0  0  0  0  0  0  0  0  0  0  0  0
  -25.4185  -32.3949   27.4078 C   0  0  0  0  0  0  0  0  0  0  0  0
  -25.2366  -30.7462   21.1094 C   0  0  0  0  0  0  0  0  0  0  0  0
  -23.5040  -28.4272   20.5054 C   0  0  0  0  0  0  0  0  0  0  0  0
  -24.1055  -32.1184   26.6798 C   0  0  0  0  0  0  0  0  0  0  0  0
  -24.7709  -12.6217   19.1737 C   0  0  0  0  0  0  0  0  0  0  0  0
  -23.9871  -30.6369   26.3365 C   0  0  0  0  0  0  0  0  0  0  0  0
  -25.1813  -11.3291   19.8681 C   0  0  0  0  0  0  0  0  0  0  0  0
  -24.4127  -13.6944   20.1911 C   0  0  0  0  0  0  0  0  0  0  0  0
  -26.0219  -12.7223   21.8294 C   0  0  0  0  0  0  0  0  0  0  0  0
  -25.1159  -30.1965   25.3966 C   0  0  1  0  0  0  0  0  0  0  0  0
  -23.8994  -30.5377   21.8137 C   0  0  1  0  0  0  0  0  0  0  0  0
  -26.3234  -11.5490   20.8719 C   0  0  2  0  0  0  0  0  0  0  0  0
  -30.6244  -19.6132   22.9345 C   0  0  0  0  0  0  0  0  0  0  0  0
  -27.6956  -20.8797   17.5655 C   0  0  0  0  0  0  0  0  0  0  0  0
  -18.4015  -29.3820   16.4808 C   0  0  0  0  0  0  0  0  0  0  0  0
  -20.2329  -27.8543   22.6600 C   0  0  0  0  0  0  0  0  0  0  0  0
  -18.7268  -27.4376   20.7039 C   0  0  0  0  0  0  0  0  0  0  0  0
  -18.7186  -29.6634   21.8302 C   0  0  0  0  0  0  0  0  0  0  0  0
  -21.9237  -30.6834   15.8671 C   0  0  0  0  0  0  0  0  0  0  0  0
  -27.2247  -22.2502   19.6409 C   0  0  0  0  0  0  0  0  0  0  0  0
  -26.8144  -24.7655   19.3029 C   0  0  0  0  0  0  0  0  0  1  0  0
  -20.6948  -29.0071   20.3964 C   0  0  1  0  0  0  0  0  0  0  0  0
  -28.0249  -21.0815   19.0462 C   0  0  1  0  0  0  0  0  0  0  0  0
  -19.7391  -29.9958   16.8639 C   0  0  2  0  0  0  0  0  0  0  0  0
  -19.6215  -28.4887   21.3948 C   0  0  0  0  0  0  0  0  0  0  0  0
  -28.1898  -12.8077   19.8497 N   0  0  0  0  0  0  0  0  0  0  0  0
  -30.4213  -16.7918   25.9139 N   0  0  0  0  0  0  0  0  0  0  0  0
  -27.6757  -11.6082   20.1706 N   0  0  0  0  0  0  0  0  0  0  0  0
  -22.9820  -29.6931   21.0461 N   0  0  0  0  0  0  0  0  0  0  0  0
  -25.4836  -13.9231   21.1640 N   0  0  0  0  0  0  0  0  0  0  0  0
  -28.0998   -9.2804   20.0596 N   0  0  0  0  0  0  0  0  0  0  0  0
  -31.7382  -11.0972   18.0957 N   0  0  0  0  0  0  0  0  0  0  0  0
  -28.6277  -19.6083   20.8680 N   0  0  0  0  0  0  0  0  0  0  0  0
  -26.8333  -15.3797   22.4459 N   0  0  0  0  0  0  0  0  0  0  0  0
  -24.8411  -30.6243   24.0416 N   0  0  0  0  0  0  0  0  0  0  0  0
  -20.1444  -29.6373   19.2013 N   0  0  0  0  0  0  0  0  0  0  0  0
  -20.5864  -30.0774   15.6406 N   0  3  0  0  0  0  0  0  0  0  0  0
  -30.7323   -9.1233   18.6878 O   0  0  0  0  0  0  0  0  0  0  0  0
  -23.4869  -28.8408   23.4028 O   0  0  0  0  0  0  0  0  0  0  0  0
  -29.0056  -23.8001   19.1099 O   0  0  0  0  0  0  0  0  0  0  0  0
  -21.1512  -31.0744   21.4663 O   0  0  0  0  0  0  0  0  0  0  0  0
  -26.8403  -19.0201   19.4672 O   0  0  0  0  0  0  0  0  0  0  0  0
  -21.1639  -28.2209   17.6744 O   0  0  0  0  0  0  0  0  0  0  0  0
  -25.2386  -16.2216   20.9870 O   0  0  0  0  0  0  0  0  0  0  0  0
  -32.7080  -16.5317   17.3463 O   0  0  0  0  0  0  0  0  0  0  0  0
  -27.4641  -25.9937   18.9778 O   0  0  0  0  0  0  0  0  0  1  0  0
  -33.5624  -20.9100   20.5873 F   0  0  0  0  0  0  0  0  0  0  0  0
  -35.2537  -17.1882   18.2013 F   0  0  0  0  0  0  0  0  0  0  0  0
  1  2  1  0  0  0  0
  1  5  2  0  0  0  0
  2  6  2  0  0  0  0
  3  8  2  0  0  0  0
  3 17  1  0  0  0  0
  4  9  1  0  0  0  0
  4 17  2  0  0  0  0
  5 20  1  0  0  0  0
  6 22  1  0  0  0  0
  7 10  2  0  0  0  0
  7 21  1  0  0  0  0
  8 27  1  0  0  0  0
  9 27  2  0  0  0  0
 10 28  1  0  0  0  0
 11 12  2  0  0  0  0
 11 29  1  0  0  0  0
 12 30  1  0  0  0  0
 13 18  2  0  0  0  0
 13 25  1  0  0  0  0
 14 23  1  0  0  0  0
 14 28  2  0  0  0  0
 15 25  2  0  0  0  0
 15 26  1  0  0  0  0
 16 30  2  0  0  0  0
 16 31  1  0  0  0  0
 17 32  1  0  0  0  0
 18 24  1  0  0  0  0
 18 34  1  0  0  0  0
 19 32  1  0  0  0  0
 19 33  2  0  0  0  0
 19 35  1  0  0  0  0
 20 22  2  0  0  0  0
 20 42  1  0  0  0  0
 21 23  2  0  0  0  0
 21 43  1  0  0  0  0
 22 51  1  0  0  0  0
 23 44  1  0  0  0  0
 24 26  2  0  0  0  0
 24 54  1  0  0  0  0
 25 75  1  0  0  0  0
 26 74  1  0  0  0  0
 27 86  1  0  0  0  0
 28 87  1  0  0  0  0
 29 31  2  0  0  0  0
 29 86  1  0  0  0  0
 30 88  1  0  0  0  0
 31 89  1  0  0  0  0
 32 67  2  0  0  0  0
 33 69  1  0  0  0  0
 33 72  1  0  0  0  0
 34 68  2  0  0  0  0
 35 73  1  0  0  0  0
 35 79  2  0  0  0  0
 36 52  1  0  0  0  0
 36 76  1  0  0  0  0
 36 80  2  0  0  0  0
 37 61  1  0  0  0  0
 37 62  1  0  0  0  0
 37 81  2  0  0  0  0
 38 63  1  0  0  0  0
 38 70  1  0  0  0  0
 38 82  2  0  0  0  0
 39 64  1  0  0  0  0
 39 74  1  0  0  0  0
 39 83  2  0  0  0  0
 40 65  1  0  0  0  0
 40 77  1  0  0  0  0
 40 84  2  0  0  0  0
 41 71  1  0  0  0  0
 41 75  1  0  0  0  0
 41 85  2  0  0  0  0
 42 45  1  0  0  0  0
 43 52  1  0  0  0  0
 44 70  1  0  0  0  0
 45 47  1  0  0  0  0
 46 48  1  0  0  0  0
 46 49  1  0  0  0  0
 47 51  1  0  0  0  0
 48 53  1  0  0  0  0
 49 71  1  0  0  0  0
 50 53  1  0  0  0  0
 50 71  1  0  0  0  0
 51 76  1  0  0  0  0
 52 70  1  0  0  0  0
 53 69  1  0  0  0  0
 55 64  1  0  0  0  0
 56 65  1  0  0  0  0
 57 66  1  0  0  0  0
 58 66  1  0  0  0  0
 59 66  1  0  0  0  0
 60 78  1  0  0  0  0
 61 64  1  0  0  0  0
 62 87  1  0  0  0  0
 63 66  1  0  0  0  0
 63 77  1  0  0  0  0
 65 78  1  0  0  0  0
 67 69  1  0  0  0  0
M  CHG  1  78   1
M  ISO  4  41 100  62 101  75 100  87 101
M  END
> <Batch ID>
0172

> <Smiles>
CNC(C)C(=O)NC(C(=O)N1Cc2cc([101O:1][101CH2:1]C(=O)CC(C)C(=O)Nc3cc([100NH:0][100C:0](=O)N4CCCC(n5nc(-c6ccc(Oc7ccc(F)cc7F)cc6)c(C(N)=O)c5N)C4)cc(C=N)c3C)ccc2CC1C(=O)NC1CCCc2ccccc21)C(C)(C)C

> <Shape>
0.261

> <Color>
0.083

> <Negative vol penalty>
0.000

$$$$

  -OEChem-04052304263D

 86 94  0     1  0  0  0  0  0999 V2000
  -17.2064  -30.5776   23.2768 C   0  0  0  0  0  0  0  0  0  0  0  0
  -18.5005  -30.5876   23.7874 C   0  0  0  0  0  0  0  0  0  0  0  0
  -26.1990  -13.0776   21.3461 C   0  0  0  0  0  0  0  0  0  0  0  0
  -25.9485  -13.4550   18.9729 C   0  0  0  0  0  0  0  0  0  0  0  0
  -16.6645  -29.3941   22.7772 C   0  0  0  0  0  0  0  0  0  0  0  0
  -19.2531  -29.4138   23.7996 C   0  0  0  0  0  0  0  0  0  0  0  0
  -25.5865  -29.0339   20.3886 C   0  0  0  0  0  0  0  0  0  0  0  0
  -25.0134  -12.3429   21.3544 C   0  0  0  0  0  0  0  0  0  0  0  0
  -24.7628  -12.7203   18.9812 C   0  0  0  0  0  0  0  0  0  0  0  0
  -26.9040  -28.9472   19.9382 C   0  0  0  0  0  0  0  0  0  0  0  0
  -22.2411  -10.0635   21.9322 C   0  0  0  0  0  0  0  0  0  0  0  0
  -22.2309   -8.8566   22.6315 C   0  0  0  0  0  0  0  0  0  0  0  0
  -26.9872  -26.6217   20.5963 C   0  0  0  0  0  0  0  0  0  0  0  0
  -23.9967   -8.0189   21.2112 C   0  0  0  0  0  0  0  0  0  0  0  0
  -26.6666  -13.6337   20.1553 C   0  0  0  0  0  0  0  0  0  0  0  0
  -29.1932  -13.9040   19.9307 C   0  0  0  0  0  0  0  0  0  0  0  0
  -17.4144  -28.2073   22.7744 C   0  0  0  0  0  0  0  0  0  0  0  0
  -24.9585  -27.9093   20.9311 C   0  0  0  0  0  0  0  0  0  0  0  0
  -18.7203  -28.2130   23.3006 C   0  0  0  0  0  0  0  0  0  0  0  0
  -25.6635  -26.6992   21.0377 C   0  0  0  0  0  0  0  0  0  0  0  0
  -24.2953  -12.1642   20.1720 C   0  0  0  0  0  0  0  0  0  0  0  0
  -27.6026  -27.7441   20.0420 C   0  0  0  0  0  0  0  0  0  0  0  0
  -23.1290  -10.2481   20.8724 C   0  0  0  0  0  0  0  0  0  0  0  0
  -23.1087   -7.8343   22.2710 C   0  0  0  0  0  0  0  0  0  0  0  0
  -24.0069   -9.2258   20.5119 C   0  0  0  0  0  0  0  0  0  0  0  0
  -27.8909  -14.3932   20.1462 C   0  0  0  0  0  0  0  0  0  0  0  0
  -30.0669  -20.5071   15.5405 C   0  0  0  0  0  0  0  0  0  0  0  0
  -29.6741  -21.0789   16.7325 C   0  0  0  0  0  0  0  0  0  0  0  0
  -29.9966  -15.0143   20.0217 C   0  0  0  0  0  0  0  0  0  0  0  0
  -29.8305  -22.9043   15.5269 C   0  0  0  0  0  0  0  0  0  0  0  0
  -29.1696  -26.7663   18.6063 C   0  0  0  0  0  0  0  0  0  1  0  0
  -29.6371  -12.5655   19.6714 C   0  0  0  0  0  0  0  0  0  0  0  0
  -30.3951  -26.6046   18.0937 C   0  0  0  0  0  0  0  0  0  0  0  0
  -30.6040  -25.5904   17.0113 C   0  0  0  0  0  0  0  0  0  0  0  0
  -21.8468  -26.4459   22.4316 C   0  0  0  0  0  0  0  0  0  0  0  0
  -23.0138  -24.3213   20.5517 C   0  0  0  0  0  0  0  0  0  0  0  0
  -24.3873  -22.4218   18.0732 C   0  0  0  0  0  0  0  0  0  0  0  0
  -29.0165  -20.8443   19.1530 C   0  0  0  0  0  0  0  0  0  0  0  0
  -16.7690  -26.9421   22.2671 C   0  0  0  0  0  0  0  0  0  0  0  0
  -23.5612  -27.9731   21.4853 C   0  0  0  0  0  0  0  0  0  0  0  0
  -24.9591  -25.5247   21.6598 C   0  0  0  0  0  0  0  0  0  0  0  0
  -17.7669  -25.8251   21.9725 C   0  0  0  0  0  0  0  0  0  0  0  0
  -30.2252  -19.3085   22.1292 C   0  0  0  0  0  0  0  0  0  0  0  0
  -18.7610  -25.6809   23.1204 C   0  0  0  0  0  0  0  0  0  0  0  0
  -29.8877  -17.8283   21.9361 C   0  0  0  0  0  0  0  0  0  0  0  0
  -29.1400  -20.2173   21.5544 C   0  0  0  0  0  0  0  0  0  0  0  0
  -28.4464  -18.4703   19.9619 C   0  0  0  0  0  0  0  0  0  0  0  0
  -19.5770  -26.9656   23.3084 C   0  0  1  0  0  0  0  0  0  0  0  0
  -22.7657  -26.6734   21.2675 C   0  0  1  0  0  0  0  0  0  0  0  0
  -29.5411  -17.5163   20.4671 C   0  0  2  0  0  0  0  0  0  0  0  0
  -30.3070  -19.0914   15.1929 C   0  0  0  0  0  0  0  0  0  0  0  0
  -30.0714  -27.1531   14.4077 C   0  0  0  0  0  0  0  0  0  0  0  0
  -24.1070  -20.2275   16.8884 C   0  0  0  0  0  0  0  0  0  0  0  0
  -24.2013  -22.8737   22.9596 C   0  0  0  0  0  0  0  0  0  0  0  0
  -24.7727  -20.9664   21.4417 C   0  0  0  0  0  0  0  0  0  0  0  0
  -22.3888  -21.6198   21.7777 C   0  0  0  0  0  0  0  0  0  0  0  0
  -23.9594  -23.7527   15.4646 C   0  0  0  0  0  0  0  0  0  0  0  0
  -28.9879  -26.5437   15.2913 C   0  0  0  0  0  0  0  0  0  0  0  0
  -29.4308  -25.3049   16.0773 C   0  0  1  0  0  0  0  0  0  0  0  0
  -23.9012  -23.1110   20.4063 C   0  0  1  0  0  0  0  0  0  0  0  0
  -23.7633  -21.7089   16.8871 C   0  0  2  0  0  0  0  0  0  0  0  0
  -23.8256  -22.1689   21.6409 C   0  0  0  0  0  0  0  0  0  0  0  0
  -27.8640  -15.7117   20.3583 N   0  0  0  0  0  0  0  0  0  0  0  0
  -29.5384  -22.4534   16.7267 N   0  0  0  0  0  0  0  0  0  0  0  0
  -29.1593  -16.0603   20.2765 N   0  0  0  0  0  0  0  0  0  0  0  0
  -23.5761  -25.4480   21.1638 N   0  0  0  0  0  0  0  0  0  0  0  0
  -28.8677  -19.8662   20.1589 N   0  0  0  0  0  0  0  0  0  0  0  0
  -31.3305  -15.1881   19.9078 N   0  0  0  0  0  0  0  0  0  0  0  0
  -28.6794  -11.5440   19.6108 N   0  0  0  0  0  0  0  0  0  0  0  0
  -29.4154  -20.3420   17.9148 N   0  0  0  0  0  0  0  0  0  0  0  0
  -29.7969  -24.2388   15.1665 N   0  0  0  0  0  0  0  0  0  0  0  0
  -20.6141  -27.0571   22.3032 N   0  0  0  0  0  0  0  0  0  0  0  0
  -23.5244  -22.4775   19.1473 N   0  0  0  0  0  0  0  0  0  0  0  0
  -24.2510  -22.3033   15.6104 N   0  3  0  0  0  0  0  0  0  0  0  0
  -30.8487  -12.2812   19.5149 O   0  0  0  0  0  0  0  0  0  0  0  0
  -31.6879  -25.0207   16.8830 O   0  0  0  0  0  0  0  0  0  0  0  0
  -22.2265  -25.7648   23.3770 O   0  0  0  0  0  0  0  0  0  0  0  0
  -21.8515  -24.2699   20.1397 O   0  0  0  0  0  0  0  0  0  0  0  0
  -25.5275  -22.8799   18.0506 O   0  0  0  0  0  0  0  0  0  0  0  0
  -28.8322  -22.0427   19.3808 O   0  0  0  0  0  0  0  0  0  0  0  0
  -31.4832  -27.3330   18.5232 O   0  0  0  0  0  0  0  0  0  0  0  0
  -23.1384  -11.4472   20.1797 O   0  0  0  0  0  0  0  0  0  0  0  0
  -28.8871  -27.6651   19.5963 O   0  0  0  0  0  0  0  0  0  1  0  0
  -23.0999   -6.6760   22.9435 F   0  0  0  0  0  0  0  0  0  0  0  0
  -24.8630   -9.3977   19.4954 F   0  0  0  0  0  0  0  0  0  0  0  0
  -30.2759  -21.7306   14.3569 S   0  0  0  0  0  0  0  0  0  0  0  0
  1  2  1  0  0  0  0
  1  5  2  0  0  0  0
  2  6  2  0  0  0  0
  3  8  2  0  0  0  0
  3 15  1  0  0  0  0
  4  9  1  0  0  0  0
  4 15  2  0  0  0  0
  5 17  1  0  0  0  0
  6 19  1  0  0  0  0
  7 10  2  0  0  0  0
  7 18  1  0  0  0  0
  8 21  1  0  0  0  0
  9 21  2  0  0  0  0
 10 22  1  0  0  0  0
 11 12  2  0  0  0  0
 11 23  1  0  0  0  0
 12 24  1  0  0  0  0
 13 20  1  0  0  0  0
 13 22  2  0  0  0  0
 14 24  2  0  0  0  0
 14 25  1  0  0  0  0
 15 26  1  0  0  0  0
 16 26  1  0  0  0  0
 16 29  2  0  0  0  0
 16 32  1  0  0  0  0
 17 19  2  0  0  0  0
 17 39  1  0  0  0  0
 18 20  2  0  0  0  0
 18 40  1  0  0  0  0
 19 48  1  0  0  0  0
 20 41  1  0  0  0  0
 21 82  1  0  0  0  0
 22 83  1  0  0  0  0
 23 25  2  0  0  0  0
 23 82  1  0  0  0  0
 24 84  1  0  0  0  0
 25 85  1  0  0  0  0
 26 63  2  0  0  0  0
 27 28  2  0  0  0  0
 27 51  1  0  0  0  0
 27 86  1  0  0  0  0
 28 64  1  0  0  0  0
 28 70  1  0  0  0  0
 29 65  1  0  0  0  0
 29 68  1  0  0  0  0
 30 64  2  0  0  0  0
 30 71  1  0  0  0  0
 30 86  1  0  0  0  0
 31 33  2  0  0  0  0
 31 83  1  0  0  0  0
 32 69  1  0  0  0  0
 32 75  2  0  0  0  0
 33 34  1  0  0  0  0
 33 81  1  0  0  0  0
 34 59  1  0  0  0  0
 34 76  2  0  0  0  0
 35 49  1  0  0  0  0
 35 72  1  0  0  0  0
 35 77  2  0  0  0  0
 36 60  1  0  0  0  0
 36 66  1  0  0  0  0
 36 78  2  0  0  0  0
 37 61  1  0  0  0  0
 37 73  1  0  0  0  0
 37 79  2  0  0  0  0
 38 67  1  0  0  0  0
 38 70  1  0  0  0  0
 38 80  2  0  0  0  0
 39 42  1  0  0  0  0
 40 49  1  0  0  0  0
 41 66  1  0  0  0  0
 42 44  1  0  0  0  0
 43 45  1  0  0  0  0
 43 46  1  0  0  0  0
 44 48  1  0  0  0  0
 45 50  1  0  0  0  0
 46 67  1  0  0  0  0
 47 50  1  0  0  0  0
 47 67  1  0  0  0  0
 48 72  1  0  0  0  0
 49 66  1  0  0  0  0
 50 65  1  0  0  0  0
 52 58  1  0  0  0  0
 53 61  1  0  0  0  0
 54 62  1  0  0  0  0
 55 62  1  0  0  0  0
 56 62  1  0  0  0  0
 57 74  1  0  0  0  0
 58 59  1  0  0  0  0
 59 71  1  0  0  0  0
 60 62  1  0  0  0  0
 60 73  1  0  0  0  0
 61 74  1  0  0  0  0
 63 65  1  0  0  0  0
M  CHG  1  74   1
M  ISO  4  31 101  38 100  70 100  83 101
M  END
> <Batch ID>
0172

> <Smiles>
CCC(Nc1nc([100NH:0][100C:0](=O)N2CCCC(n3nc(-c4ccc(Oc5ccc(F)cc5F)cc4)c(C(N)=O)c3N)C2)c(C)s1)C(=O)C(=O)[101CH2:1][101O:1]c1ccc2c(c1)CN(C(=O)C(NC(=O)C(C)NC)C(C)(C)C)C(C(=O)NC1CCCc3ccccc31)C2

> <Shape>
0.277

> <Color>
0.084

> <Negative vol penalty>
0.000

$$$$

  -OEChem-04052304263D

 85 93  0     1  0  0  0  0  0999 V2000
  -28.6612  -24.6228   17.1124 C   0  0  0  0  0  0  0  0  0  0  0  0
  -27.3284  -25.0187   17.1615 C   0  0  0  0  0  0  0  0  0  0  0  0
  -26.7365  -13.7496   20.5268 C   0  0  0  0  0  0  0  0  0  0  0  0
  -24.3524  -14.0878   20.7233 C   0  0  0  0  0  0  0  0  0  0  0  0
  -29.4829  -24.8062   18.2237 C   0  0  0  0  0  0  0  0  0  0  0  0
  -26.8163  -25.5972   18.3223 C   0  0  0  0  0  0  0  0  0  0  0  0
  -22.5695  -29.9953   18.6793 C   0  0  0  0  0  0  0  0  0  0  0  0
  -26.6041  -12.4840   21.0978 C   0  0  0  0  0  0  0  0  0  0  0  0
  -24.2199  -12.8220   21.2943 C   0  0  0  0  0  0  0  0  0  0  0  0
  -21.1965  -29.9563   18.9184 C   0  0  0  0  0  0  0  0  0  0  0  0
  -24.1295   -9.6127   20.2397 C   0  0  0  0  0  0  0  0  0  0  0  0
  -23.0917   -8.8016   19.7806 C   0  0  0  0  0  0  0  0  0  0  0  0
  -21.5966  -30.4051   21.2545 C   0  0  0  0  0  0  0  0  0  0  0  0
  -22.2293  -23.5000   22.8493 C   0  0  0  0  0  0  0  0  0  0  0  0
  -22.1660   -8.7236   22.0109 C   0  0  0  0  0  0  0  0  0  0  0  0
  -25.6106  -14.5516   20.3396 C   0  0  0  0  0  0  0  0  0  0  0  0
  -25.6804  -16.1867   18.3828 C   0  0  0  0  0  0  0  0  0  0  0  0
  -28.9832  -25.3961   19.3954 C   0  0  0  0  0  0  0  0  0  0  0  0
  -23.4685  -30.2291   19.7298 C   0  0  0  0  0  0  0  0  0  0  0  0
  -27.6318  -25.7875   19.4508 C   0  0  0  0  0  0  0  0  0  0  0  0
  -22.9804  -30.4492   21.0257 C   0  0  0  0  0  0  0  0  0  0  0  0
  -20.8274  -23.6880   22.9021 C   0  0  0  0  0  0  0  0  0  0  0  0
  -25.3458  -12.0201   21.4815 C   0  0  0  0  0  0  0  0  0  0  0  0
  -20.7100  -30.1583   20.2066 C   0  0  0  0  0  0  0  0  0  0  0  0
  -24.1856   -9.9791   21.5844 C   0  0  0  0  0  0  0  0  0  0  0  0
  -22.1099   -8.3571   20.6661 C   0  0  0  0  0  0  0  0  0  0  0  0
  -23.2039   -9.5346   22.4700 C   0  0  0  0  0  0  0  0  0  0  0  0
  -25.7468  -15.8594   19.7504 C   0  0  0  0  0  0  0  0  0  0  0  0
  -25.8693  -17.5467   18.3457 C   0  0  0  0  0  0  0  0  0  0  0  0
  -22.4257  -22.2146   22.4009 C   0  0  0  0  0  0  0  0  0  0  0  0
  -20.2672  -22.5041   22.4820 C   0  0  0  0  0  0  0  0  0  0  0  0
  -25.4668  -15.3375   17.2475 C   0  0  0  0  0  0  0  0  0  0  0  0
  -25.8305  -28.5776   21.0704 C   0  0  0  0  0  0  0  0  0  0  0  0
  -18.8746  -27.0438   22.5890 C   0  0  0  0  0  0  0  0  0  0  0  0
  -26.2913  -31.3283   22.7268 C   0  0  0  0  0  0  0  0  0  0  0  0
  -24.9827  -34.2458   23.9196 C   0  0  0  0  0  0  0  0  0  0  0  0
  -24.9249  -21.9092   22.3184 C   0  0  0  0  0  0  0  0  0  0  0  0
  -29.8974  -25.5306   20.5874 C   0  0  0  0  0  0  0  0  0  0  0  0
  -24.9451  -30.2947   19.4507 C   0  0  0  0  0  0  0  0  0  0  0  0
  -23.9025  -30.7242   22.1844 C   0  0  0  0  0  0  0  0  0  0  0  0
  -29.3749  -26.4936   21.6503 C   0  0  0  0  0  0  0  0  0  0  0  0
  -28.0121  -21.0965   20.7418 C   0  0  0  0  0  0  0  0  0  0  0  0
  -27.9013  -26.2234   21.9373 C   0  0  0  0  0  0  0  0  0  0  0  0
  -27.7735  -19.6935   20.1789 C   0  0  0  0  0  0  0  0  0  0  0  0
  -27.3211  -21.2917   22.0901 C   0  0  0  0  0  0  0  0  0  0  0  0
  -25.6499  -19.5663   21.5431 C   0  0  0  0  0  0  0  0  0  0  0  0
  -27.0460  -26.4413   20.6834 C   0  0  1  0  0  0  0  0  0  0  0  0
  -25.7992  -30.0300   20.6867 C   0  0  1  0  0  0  0  0  0  0  0  0
  -26.2726  -19.3436   20.1552 C   0  0  2  0  0  0  0  0  0  0  0  0
  -25.5919  -36.2711   25.2703 C   0  0  0  0  0  0  0  0  0  0  0  0
  -26.1295  -29.6694   25.2825 C   0  0  0  0  0  0  0  0  0  0  0  0
  -25.7886  -31.7963   26.5586 C   0  0  0  0  0  0  0  0  0  0  0  0
  -27.9061  -31.4296   25.2920 C   0  0  0  0  0  0  0  0  0  0  0  0
  -17.3031  -29.0598   20.9974 C   0  0  0  0  0  0  0  0  0  0  0  0
  -19.0341  -27.8888   19.6137 C   0  0  0  0  0  0  0  0  0  0  0  0
  -24.4224  -36.0676   21.6555 C   0  0  0  0  0  0  0  0  0  0  0  0
  -20.1025  -24.9395   23.3348 C   0  0  0  0  0  0  0  0  0  0  0  0
  -19.5866  -25.7701   22.1590 C   0  0  0  0  0  0  0  0  0  0  0  0
  -19.4456  -28.3600   22.0867 C   0  0  0  0  0  0  0  0  0  0  0  0
  -25.7685  -31.8951   24.0247 C   0  0  1  0  0  0  0  0  0  0  0  0
  -25.4976  -35.6732   23.8752 C   0  0  2  0  0  0  0  0  0  0  0  0
  -26.3806  -31.1905   25.2682 C   0  0  0  0  0  0  0  0  0  0  0  0
  -18.8062  -28.8534   20.7797 C   0  0  0  0  0  0  0  0  0  1  0  0
  -25.9615  -16.9255   20.5259 N   0  0  0  0  0  0  0  0  0  0  0  0
  -26.0315  -17.9360   19.6427 N   0  0  0  0  0  0  0  0  0  0  0  0
  -25.3381  -30.7722   21.8618 N   0  0  0  0  0  0  0  0  0  0  0  0
  -25.9016  -20.9453   21.9903 N   0  0  0  0  0  0  0  0  0  0  0  0
  -25.9109  -18.4354   17.3304 N   0  0  0  0  0  0  0  0  0  0  0  0
  -18.9842  -22.1130   22.3331 N   0  0  0  0  0  0  0  0  0  0  0  0
  -25.2906  -13.9640   17.4643 N   0  0  0  0  0  0  0  0  0  0  0  0
  -23.6096  -21.4763   22.1539 N   0  0  0  0  0  0  0  0  0  0  0  0
  -26.8347  -27.8547   20.4551 N   0  0  0  0  0  0  0  0  0  0  0  0
  -26.0142  -33.3321   23.9708 N   0  0  0  0  0  0  0  0  0  0  0  0
  -24.5888  -36.5265   23.0586 N   0  3  0  0  0  0  0  0  0  0  0  0
  -25.4495  -15.7810   16.0743 O   0  0  0  0  0  0  0  0  0  0  0  0
  -25.0057  -28.1451   21.8669 O   0  0  0  0  0  0  0  0  0  0  0  0
  -17.8983  -27.0260   23.3394 O   0  0  0  0  0  0  0  0  0  0  0  0
  -27.4998  -31.3836   22.4860 O   0  0  0  0  0  0  0  0  0  0  0  0
  -23.7852  -33.9691   23.9135 O   0  0  0  0  0  0  0  0  0  0  0  0
  -25.2328  -23.0446   22.6899 O   0  0  0  0  0  0  0  0  0  0  0  0
  -21.2346  -21.6007   22.1746 O   0  0  0  0  0  0  0  0  0  0  0  0
  -25.2162  -10.7850   22.0385 O   0  0  0  0  0  0  0  0  0  0  0  0
  -19.3704  -30.1201   20.4428 O   0  0  0  0  0  0  0  0  0  1  0  0
  -21.1125   -7.5796   20.2248 F   0  0  0  0  0  0  0  0  0  0  0  0
  -23.2519   -9.8843   23.7627 F   0  0  0  0  0  0  0  0  0  0  0  0
  1  2  1  0  0  0  0
  1  5  2  0  0  0  0
  2  6  2  0  0  0  0
  3  8  2  0  0  0  0
  3 16  1  0  0  0  0
  4  9  1  0  0  0  0
  4 16  2  0  0  0  0
  5 18  1  0  0  0  0
  6 20  1  0  0  0  0
  7 10  2  0  0  0  0
  7 19  1  0  0  0  0
  8 23  1  0  0  0  0
  9 23  2  0  0  0  0
 10 24  1  0  0  0  0
 11 12  2  0  0  0  0
 11 25  1  0  0  0  0
 12 26  1  0  0  0  0
 13 21  1  0  0  0  0
 13 24  2  0  0  0  0
 14 22  1  0  0  0  0
 14 30  2  0  0  0  0
 15 26  2  0  0  0  0
 15 27  1  0  0  0  0
 16 28  1  0  0  0  0
 17 28  1  0  0  0  0
 17 29  2  0  0  0  0
 17 32  1  0  0  0  0
 18 20  2  0  0  0  0
 18 38  1  0  0  0  0
 19 21  2  0  0  0  0
 19 39  1  0  0  0  0
 20 47  1  0  0  0  0
 21 40  1  0  0  0  0
 22 31  2  0  0  0  0
 22 57  1  0  0  0  0
 23 82  1  0  0  0  0
 24 83  1  0  0  0  0
 25 27  2  0  0  0  0
 25 82  1  0  0  0  0
 26 84  1  0  0  0  0
 27 85  1  0  0  0  0
 28 64  2  0  0  0  0
 29 65  1  0  0  0  0
 29 68  1  0  0  0  0
 30 71  1  0  0  0  0
 30 81  1  0  0  0  0
 31 69  1  0  0  0  0
 31 81  1  0  0  0  0
 32 70  1  0  0  0  0
 32 75  2  0  0  0  0
 33 48  1  0  0  0  0
 33 72  1  0  0  0  0
 33 76  2  0  0  0  0
 34 58  1  0  0  0  0
 34 59  1  0  0  0  0
 34 77  2  0  0  0  0
 35 60  1  0  0  0  0
 35 66  1  0  0  0  0
 35 78  2  0  0  0  0
 36 61  1  0  0  0  0
 36 73  1  0  0  0  0
 36 79  2  0  0  0  0
 37 67  1  0  0  0  0
 37 71  1  0  0  0  0
 37 80  2  0  0  0  0
 38 41  1  0  0  0  0
 39 48  1  0  0  0  0
 40 66  1  0  0  0  0
 41 43  1  0  0  0  0
 42 44  1  0  0  0  0
 42 45  1  0  0  0  0
 43 47  1  0  0  0  0
 44 49  1  0  0  0  0
 45 67  1  0  0  0  0
 46 49  1  0  0  0  0
 46 67  1  0  0  0  0
 47 72  1  0  0  0  0
 48 66  1  0  0  0  0
 49 65  1  0  0  0  0
 50 61  1  0  0  0  0
 51 62  1  0  0  0  0
 52 62  1  0  0  0  0
 53 62  1  0  0  0  0
 54 63  1  0  0  0  0
 55 63  1  0  0  0  0
 56 74  1  0  0  0  0
 57 58  1  0  0  0  0
 59 63  1  0  0  0  0
 60 62  1  0  0  0  0
 60 73  1  0  0  0  0
 61 74  1  0  0  0  0
 63 83  1  0  0  0  0
 64 65  1  0  0  0  0
M  CHG  1  74   1
M  ISO  4  37 100  63 101  71 100  83 101
M  END
> <Batch ID>
0172

> <Smiles>
CNC(C)C(=O)NC(C(=O)N1Cc2cc([101O:1][101C:1](C)(C)CC(=O)CCc3cc([100NH:0][100C:0](=O)N4CCCC(n5nc(-c6ccc(Oc7ccc(F)cc7F)cc6)c(C(N)=O)c5N)C4)oc3N)ccc2CC1C(=O)NC1CCCc2ccccc21)C(C)(C)C

> <Shape>
0.298

> <Color>
0.070

> <Negative vol penalty>
0.000

$$$$

  -OEChem-04052304263D

 84 92  0     1  0  0  0  0  0999 V2000
  -17.0844  -30.4853   23.4623 C   0  0  0  0  0  0  0  0  0  0  0  0
  -18.3952  -30.8850   23.2227 C   0  0  0  0  0  0  0  0  0  0  0  0
  -25.1599  -13.8455   19.6035 C   0  0  0  0  0  0  0  0  0  0  0  0
  -25.2296  -14.8002   21.8218 C   0  0  0  0  0  0  0  0  0  0  0  0
  -16.7737  -29.1283   23.5397 C   0  0  0  0  0  0  0  0  0  0  0  0
  -19.3964  -29.9279   23.0615 C   0  0  0  0  0  0  0  0  0  0  0  0
  -25.5150  -28.7921   19.5133 C   0  0  0  0  0  0  0  0  0  0  0  0
  -25.1168  -12.5654   20.1558 C   0  0  0  0  0  0  0  0  0  0  0  0
  -25.1865  -13.5200   22.3741 C   0  0  0  0  0  0  0  0  0  0  0  0
  -26.8394  -28.4213   19.7415 C   0  0  0  0  0  0  0  0  0  0  0  0
  -22.8127  -10.5455   21.5854 C   0  0  0  0  0  0  0  0  0  0  0  0
  -21.8935   -9.6409   21.0540 C   0  0  0  0  0  0  0  0  0  0  0  0
  -26.1717  -26.1045   19.8167 C   0  0  0  0  0  0  0  0  0  0  0  0
  -23.7019   -8.1549   20.4553 C   0  0  0  0  0  0  0  0  0  0  0  0
  -26.2080  -22.5000   24.5346 C   0  0  0  0  0  0  0  0  0  0  0  0
  -25.2163  -14.9630   20.4366 C   0  0  0  0  0  0  0  0  0  0  0  0
  -24.3010  -16.8834   19.0288 C   0  0  0  0  0  0  0  0  0  0  0  0
  -17.7698  -28.1539   23.3698 C   0  0  0  0  0  0  0  0  0  0  0  0
  -24.5056  -27.8210   19.4459 C   0  0  0  0  0  0  0  0  0  0  0  0
  -19.0990  -28.5566   23.1381 C   0  0  0  0  0  0  0  0  0  0  0  0
  -24.8356  -26.4653   19.5850 C   0  0  0  0  0  0  0  0  0  0  0  0
  -25.1301  -12.4026   21.5410 C   0  0  0  0  0  0  0  0  0  0  0  0
  -27.1676  -27.0776   19.8961 C   0  0  0  0  0  0  0  0  0  0  0  0
  -24.1766  -10.2549   21.5516 C   0  0  0  0  0  0  0  0  0  0  0  0
  -22.3381   -8.4456   20.4891 C   0  0  0  0  0  0  0  0  0  0  0  0
  -24.6212   -9.0596   20.9867 C   0  0  0  0  0  0  0  0  0  0  0  0
  -25.2614  -16.2856   19.8667 C   0  0  0  0  0  0  0  0  0  0  0  0
  -27.2500  -22.6275   23.6402 C   0  0  0  0  0  0  0  0  0  0  0  0
  -24.8062  -18.1329   18.7643 C   0  0  0  0  0  0  0  0  0  0  0  0
  -27.5398  -24.4952   24.7527 C   0  0  0  0  0  0  0  0  0  0  0  0
  -23.0629  -16.3564   18.5338 C   0  0  0  0  0  0  0  0  0  0  0  0
  -21.8821  -27.1920   21.1269 C   0  0  0  0  0  0  0  0  0  0  0  0
  -28.7759  -26.9818   23.2213 C   0  0  0  0  0  0  0  0  0  0  0  0
  -21.4003  -24.9730   18.8104 C   0  0  0  0  0  0  0  0  0  0  0  0
  -22.7401  -22.9664   16.3969 C   0  0  0  0  0  0  0  0  0  0  0  0
  -28.5779  -21.7170   21.7026 C   0  0  0  0  0  0  0  0  0  0  0  0
  -17.3943  -26.6999   23.5091 C   0  0  0  0  0  0  0  0  0  0  0  0
  -23.0856  -28.2351   19.1725 C   0  0  0  0  0  0  0  0  0  0  0  0
  -23.7921  -25.3824   19.5009 C   0  0  0  0  0  0  0  0  0  0  0  0
  -18.4465  -25.7432   22.9542 C   0  0  0  0  0  0  0  0  0  0  0  0
  -28.9576  -20.4897   18.3820 C   0  0  0  0  0  0  0  0  0  0  0  0
  -19.8384  -26.1456   23.4313 C   0  0  0  0  0  0  0  0  0  0  0  0
  -27.9611  -19.3306   18.3077 C   0  0  0  0  0  0  0  0  0  0  0  0
  -29.6213  -20.5799   19.7550 C   0  0  0  0  0  0  0  0  0  0  0  0
  -27.6961  -19.4689   20.8172 C   0  0  0  0  0  0  0  0  0  0  0  0
  -20.2083  -27.5479   22.9331 C   0  0  1  0  0  0  0  0  0  0  0  0
  -22.0624  -27.2025   19.6352 C   0  0  1  0  0  0  0  0  0  0  0  0
  -26.9542  -19.3774   19.4738 C   0  0  2  0  0  0  0  0  0  0  0  0
  -29.8115  -27.3625   25.4691 C   0  0  0  0  0  0  0  0  0  0  0  0
  -22.7939  -21.3458   14.4816 C   0  0  0  0  0  0  0  0  0  0  0  0
  -30.4262  -28.0611   19.8957 C   0  0  0  0  0  0  0  0  0  0  0  0
  -21.1153  -22.8994   21.0306 C   0  0  0  0  0  0  0  0  0  0  0  0
  -21.4330  -21.1119   19.3066 C   0  0  0  0  0  0  0  0  0  0  0  0
  -19.4774  -22.6533   19.1568 C   0  0  0  0  0  0  0  0  0  0  0  0
  -22.5462  -25.1416   14.3994 C   0  0  0  0  0  0  0  0  0  0  0  0
  -29.8116  -27.0042   22.1017 C   0  0  0  0  0  0  0  0  0  0  0  0
  -29.2152  -26.3304   24.5268 C   0  0  1  0  0  0  0  0  0  0  0  0
  -21.7880  -23.5267   18.6181 C   0  0  1  0  0  0  0  0  0  0  0  0
  -22.3344  -22.7158   14.9557 C   0  0  2  0  0  0  0  0  0  0  0  0
  -29.2861  -27.6449   20.8158 C   0  0  2  0  0  0  0  0  0  1  0  0
  -20.9731  -22.5682   19.5316 C   0  0  0  0  0  0  0  0  0  0  0  0
  -26.2984  -17.0891   20.1178 N   0  0  0  0  0  0  0  0  0  0  0  0
  -28.0146  -23.7712   23.7634 N   0  0  0  0  0  0  0  0  0  0  0  0
  -25.9925  -18.2047   19.4336 N   0  0  0  0  0  0  0  0  0  0  0  0
  -22.4171  -25.8383   19.2384 N   0  0  0  0  0  0  0  0  0  0  0  0
  -28.6063  -20.6249   20.8098 N   0  0  0  0  0  0  0  0  0  0  0  0
  -24.3471  -19.1662   18.0269 N   0  0  0  0  0  0  0  0  0  0  0  0
  -21.9010  -16.5565   19.2916 N   0  0  0  0  0  0  0  0  0  0  0  0
  -27.5488  -21.6669   22.6423 N   0  0  0  0  0  0  0  0  0  0  0  0
  -28.0682  -25.7102   25.1533 N   0  0  0  0  0  0  0  0  0  0  0  0
  -20.6008  -27.5025   21.5409 N   0  0  0  0  0  0  0  0  0  0  0  0
  -21.6505  -23.2534   17.1917 N   0  0  0  0  0  0  0  0  0  0  0  0
  -22.9330  -23.7474   14.0622 N   0  3  0  0  0  0  0  0  0  0  0  0
  -22.9920  -15.7124   17.4597 O   0  0  0  0  0  0  0  0  0  0  0  0
  -22.8346  -26.9208   21.8487 O   0  0  0  0  0  0  0  0  0  0  0  0
  -27.6567  -27.4773   23.0871 O   0  0  0  0  0  0  0  0  0  0  0  0
  -20.2398  -25.3234   18.5822 O   0  0  0  0  0  0  0  0  0  0  0  0
  -23.9065  -22.9092   16.7801 O   0  0  0  0  0  0  0  0  0  0  0  0
  -29.3889  -22.6431   21.6212 O   0  0  0  0  0  0  0  0  0  0  0  0
  -25.0878  -11.1536   22.0803 O   0  0  0  0  0  0  0  0  0  0  0  0
  -28.4595  -26.7131   20.1195 O   0  0  0  0  0  0  0  0  0  1  0  0
  -21.4551   -7.5763   19.9802 F   0  0  0  0  0  0  0  0  0  0  0  0
  -25.9301   -8.7743   20.9524 F   0  0  0  0  0  0  0  0  0  0  0  0
  -26.1758  -23.8605   25.5782 S   0  0  0  0  0  0  0  0  0  0  0  0
  1  2  1  0  0  0  0
  1  5  2  0  0  0  0
  2  6  2  0  0  0  0
  3  8  2  0  0  0  0
  3 16  1  0  0  0  0
  4  9  1  0  0  0  0
  4 16  2  0  0  0  0
  5 18  1  0  0  0  0
  6 20  1  0  0  0  0
  7 10  2  0  0  0  0
  7 19  1  0  0  0  0
  8 22  1  0  0  0  0
  9 22  2  0  0  0  0
 10 23  1  0  0  0  0
 11 12  2  0  0  0  0
 11 24  1  0  0  0  0
 12 25  1  0  0  0  0
 13 21  1  0  0  0  0
 13 23  2  0  0  0  0
 14 25  2  0  0  0  0
 14 26  1  0  0  0  0
 15 28  2  0  0  0  0
 15 84  1  0  0  0  0
 16 27  1  0  0  0  0
 17 27  1  0  0  0  0
 17 29  2  0  0  0  0
 17 31  1  0  0  0  0
 18 20  2  0  0  0  0
 18 37  1  0  0  0  0
 19 21  2  0  0  0  0
 19 38  1  0  0  0  0
 20 46  1  0  0  0  0
 21 39  1  0  0  0  0
 22 80  1  0  0  0  0
 23 81  1  0  0  0  0
 24 26  2  0  0  0  0
 24 80  1  0  0  0  0
 25 82  1  0  0  0  0
 26 83  1  0  0  0  0
 27 62  2  0  0  0  0
 28 63  1  0  0  0  0
 28 69  1  0  0  0  0
 29 64  1  0  0  0  0
 29 67  1  0  0  0  0
 30 63  2  0  0  0  0
 30 70  1  0  0  0  0
 30 84  1  0  0  0  0
 31 68  1  0  0  0  0
 31 74  2  0  0  0  0
 32 47  1  0  0  0  0
 32 71  1  0  0  0  0
 32 75  2  0  0  0  0
 33 56  1  0  0  0  0
 33 57  1  0  0  0  0
 33 76  2  0  0  0  0
 34 58  1  0  0  0  0
 34 65  1  0  0  0  0
 34 77  2  0  0  0  0
 35 59  1  0  0  0  0
 35 72  1  0  0  0  0
 35 78  2  0  0  0  0
 36 66  1  0  0  0  0
 36 69  1  0  0  0  0
 36 79  2  0  0  0  0
 37 40  1  0  0  0  0
 38 47  1  0  0  0  0
 39 65  1  0  0  0  0
 40 42  1  0  0  0  0
 41 43  1  0  0  0  0
 41 44  1  0  0  0  0
 42 46  1  0  0  0  0
 43 48  1  0  0  0  0
 44 66  1  0  0  0  0
 45 48  1  0  0  0  0
 45 66  1  0  0  0  0
 46 71  1  0  0  0  0
 47 65  1  0  0  0  0
 48 64  1  0  0  0  0
 49 57  1  0  0  0  0
 50 59  1  0  0  0  0
 51 60  1  0  0  0  0
 52 61  1  0  0  0  0
 53 61  1  0  0  0  0
 54 61  1  0  0  0  0
 55 73  1  0  0  0  0
 56 60  1  0  0  0  0
 57 70  1  0  0  0  0
 58 61  1  0  0  0  0
 58 72  1  0  0  0  0
 59 73  1  0  0  0  0
 60 81  1  0  0  0  0
 62 64  1  0  0  0  0
M  CHG  1  73   1
M  ISO  4  36 100  60 101  69 100  81 101
M  END
> <Batch ID>
0172

> <Smiles>
CNC(C)C(=O)NC(C(=O)N1Cc2cc([101O:1][101CH:1](C)CC(=O)C(C)Nc3nc([100NH:0][100C:0](=O)N4CCCC(n5nc(-c6ccc(Oc7ccc(F)cc7F)cc6)c(C(N)=O)c5N)C4)cs3)ccc2CC1C(=O)NC1CCCc2ccccc21)C(C)(C)C

> <Shape>
0.216

> <Color>
0.075

> <Negative vol penalty>
0.000

$$$$

  -OEChem-04052304263D

 88 96  0     1  0  0  0  0  0999 V2000
  -31.3065  -24.8826   20.0797 C   0  0  0  0  0  0  0  0  0  0  0  0
  -30.0628  -24.9157   19.4572 C   0  0  0  0  0  0  0  0  0  0  0  0
  -26.4778  -13.8127   21.6267 C   0  0  0  0  0  0  0  0  0  0  0  0
  -24.3654  -14.4871   20.6675 C   0  0  0  0  0  0  0  0  0  0  0  0
  -20.6775  -22.8639   20.8611 C   0  0  0  0  0  0  0  0  0  0  0  0
  -31.4441  -25.3524   21.3852 C   0  0  0  0  0  0  0  0  0  0  0  0
  -28.9556  -25.4177   20.1403 C   0  0  0  0  0  0  0  0  0  0  0  0
  -22.8474  -28.9866   19.0139 C   0  0  0  0  0  0  0  0  0  0  0  0
  -21.9238  -22.2456   20.7608 C   0  0  0  0  0  0  0  0  0  0  0  0
  -25.8947  -12.6289   22.0786 C   0  0  0  0  0  0  0  0  0  0  0  0
  -23.7823  -13.3032   21.1194 C   0  0  0  0  0  0  0  0  0  0  0  0
  -21.4811  -28.8927   19.2753 C   0  0  0  0  0  0  0  0  0  0  0  0
  -23.6841  -10.0592   20.1775 C   0  0  0  0  0  0  0  0  0  0  0  0
  -22.8659   -9.3613   19.2892 C   0  0  0  0  0  0  0  0  0  0  0  0
  -21.8538  -29.7502   21.4990 C   0  0  0  0  0  0  0  0  0  0  0  0
  -22.7559  -23.6318   22.5561 C   0  0  0  0  0  0  0  0  0  0  0  0
  -21.0080   -9.5964   20.8158 C   0  0  0  0  0  0  0  0  0  0  0  0
  -25.7131  -14.7418   20.9212 C   0  0  0  0  0  0  0  0  0  0  0  0
  -20.4704  -23.8662   21.8088 C   0  0  0  0  0  0  0  0  0  0  0  0
  -26.9467  -16.1831   19.2157 C   0  0  0  0  0  0  0  0  0  0  0  0
  -30.3400  -25.8693   22.0812 C   0  0  0  0  0  0  0  0  0  0  0  0
  -23.7300  -29.4535   19.9984 C   0  0  0  0  0  0  0  0  0  0  0  0
  -29.0783  -25.8936   21.4569 C   0  0  0  0  0  0  0  0  0  0  0  0
  -23.2305  -29.8515   21.2467 C   0  0  0  0  0  0  0  0  0  0  0  0
  -22.9630  -22.6295   21.6084 C   0  0  0  0  0  0  0  0  0  0  0  0
  -24.5469  -12.3741   21.8249 C   0  0  0  0  0  0  0  0  0  0  0  0
  -20.9845  -29.2718   20.5190 C   0  0  0  0  0  0  0  0  0  0  0  0
  -23.1643  -10.5256   21.3850 C   0  0  0  0  0  0  0  0  0  0  0  0
  -21.5278   -9.1299   19.6083 C   0  0  0  0  0  0  0  0  0  0  0  0
  -21.5096  -24.2502   22.6563 C   0  0  0  0  0  0  0  0  0  0  0  0
  -21.8262  -10.2943   21.7041 C   0  0  0  0  0  0  0  0  0  0  0  0
  -26.3147  -15.9651   20.4546 C   0  0  0  0  0  0  0  0  0  0  0  0
  -27.3451  -17.4968   19.2599 C   0  0  0  0  0  0  0  0  0  0  0  0
  -19.1525  -24.5168   21.9106 C   0  0  0  0  0  0  0  0  0  0  0  0
  -18.2902  -24.6674   20.8956 C   0  0  0  0  0  0  0  0  0  0  0  0
  -27.1549  -15.2789   18.1227 C   0  0  0  0  0  0  0  0  0  0  0  0
  -26.2060  -28.2157   21.5608 C   0  0  0  0  0  0  0  0  0  0  0  0
  -15.4566  -26.9078   20.2289 C   0  0  0  0  0  0  0  0  0  0  0  0
  -17.7737  -27.6604   20.9507 C   0  0  0  0  0  0  0  0  0  0  0  0
  -26.4748  -31.2287   22.7321 C   0  0  0  0  0  0  0  0  0  0  0  0
  -24.9659  -34.2059   23.4435 C   0  0  0  0  0  0  0  0  0  0  0  0
  -25.3659  -22.2637   22.2707 C   0  0  0  0  0  0  0  0  0  0  0  0
  -30.5281  -26.3219   23.5076 C   0  0  0  0  0  0  0  0  0  0  0  0
  -25.1975  -29.5741   19.6916 C   0  0  0  0  0  0  0  0  0  0  0  0
  -24.1335  -30.3786   22.3308 C   0  0  0  0  0  0  0  0  0  0  0  0
  -29.3816  -27.1843   24.0292 C   0  0  0  0  0  0  0  0  0  0  0  0
  -28.6579  -20.9098   22.3521 C   0  0  0  0  0  0  0  0  0  0  0  0
  -28.0374  -26.5559   23.6758 C   0  0  0  0  0  0  0  0  0  0  0  0
  -28.4892  -19.5103   21.7564 C   0  0  0  0  0  0  0  0  0  0  0  0
  -27.4589  -21.3092   23.2104 C   0  0  0  0  0  0  0  0  0  0  0  0
  -25.9849  -19.7875   21.9531 C   0  0  0  0  0  0  0  0  0  0  0  0
  -27.8587  -26.4536   22.1562 C   0  0  1  0  0  0  0  0  0  0  0  0
  -26.0711  -29.5784   20.9423 C   0  0  1  0  0  0  0  0  0  0  0  0
  -27.1385  -19.3669   21.0279 C   0  0  2  0  0  0  0  0  0  0  0  0
  -15.1078  -28.0853   19.3554 C   0  0  0  0  0  0  0  0  0  0  0  0
  -25.4334  -36.4648   24.4314 C   0  0  0  0  0  0  0  0  0  0  0  0
  -26.4367  -30.0104   25.5293 C   0  0  0  0  0  0  0  0  0  0  0  0
  -25.9491  -32.2910   26.4401 C   0  0  0  0  0  0  0  0  0  0  0  0
  -28.0843  -31.8666   25.2222 C   0  0  0  0  0  0  0  0  0  0  0  0
  -24.2729  -35.5827   20.9170 C   0  0  0  0  0  0  0  0  0  0  0  0
  -18.9273  -28.1552   20.0983 C   0  0  0  0  0  0  0  0  0  1  0  0
  -16.9249  -26.5531   20.3491 C   0  0  1  0  0  0  0  0  0  0  0  0
  -25.9163  -31.9656   23.9254 C   0  0  1  0  0  0  0  0  0  0  0  0
  -25.3784  -35.6383   23.1561 C   0  0  2  0  0  0  0  0  0  0  0  0
  -26.5796  -31.5217   25.2597 C   0  0  0  0  0  0  0  0  0  0  0  0
  -26.3097  -17.0531   21.2294 N   0  0  0  0  0  0  0  0  0  0  0  0
  -26.9435  -17.9674   20.4754 N   0  0  0  0  0  0  0  0  0  0  0  0
  -25.5614  -30.4717   21.9846 N   0  0  0  0  0  0  0  0  0  0  0  0
  -26.2152  -21.1519   22.4533 N   0  0  0  0  0  0  0  0  0  0  0  0
  -27.9963  -18.2837   18.3773 N   0  0  0  0  0  0  0  0  0  0  0  0
  -26.6818  -13.9651   18.2429 N   0  0  0  0  0  0  0  0  0  0  0  0
  -24.2290  -22.0014   21.5068 N   0  0  0  0  0  0  0  0  0  0  0  0
  -27.5035  -27.7421   21.6012 N   0  0  0  0  0  0  0  0  0  0  0  0
  -26.0595  -33.3872   23.6309 N   0  0  0  0  0  0  0  0  0  0  0  0
  -17.0571  -25.3077   21.1600 N   0  3  0  0  0  0  0  0  0  0  0  0
  -24.4097  -36.2789   22.2223 N   0  3  0  0  0  0  0  0  0  0  0  0
  -27.7576  -15.6211   17.0771 O   0  0  0  0  0  0  0  0  0  0  0  0
  -25.2070  -27.6373   21.9722 O   0  0  0  0  0  0  0  0  0  0  0  0
  -14.5784  -26.2536   20.7915 O   0  0  0  0  0  0  0  0  0  0  0  0
  -17.5395  -28.1366   22.0612 O   0  0  0  0  0  0  0  0  0  0  0  0
  -27.6759  -31.3269   22.4685 O   0  0  0  0  0  0  0  0  0  0  0  0
  -23.7910  -33.8497   23.5000 O   0  0  0  0  0  0  0  0  0  0  0  0
  -25.6414  -23.3737   22.7332 O   0  0  0  0  0  0  0  0  0  0  0  0
  -23.9777  -11.2190   22.2655 O   0  0  0  0  0  0  0  0  0  0  0  0
  -19.6515  -29.1805   20.7770 O   0  0  0  0  0  0  0  0  0  1  0  0
  -20.7418   -8.4611   18.7545 F   0  0  0  0  0  0  0  0  0  0  0  0
  -21.3261  -25.2125   23.5721 F   0  0  0  0  0  0  0  0  0  0  0  0
  -21.3209  -10.7410   22.8621 F   0  0  0  0  0  0  0  0  0  0  0  0
  1  2  1  0  0  0  0
  1  6  2  0  0  0  0
  2  7  2  0  0  0  0
  3 10  2  0  0  0  0
  3 18  1  0  0  0  0
  4 11  1  0  0  0  0
  4 18  2  0  0  0  0
  5  9  2  0  0  0  0
  5 19  1  0  0  0  0
  6 21  1  0  0  0  0
  7 23  1  0  0  0  0
  8 12  2  0  0  0  0
  8 22  1  0  0  0  0
  9 25  1  0  0  0  0
 10 26  1  0  0  0  0
 11 26  2  0  0  0  0
 12 27  1  0  0  0  0
 13 14  2  0  0  0  0
 13 28  1  0  0  0  0
 14 29  1  0  0  0  0
 15 24  1  0  0  0  0
 15 27  2  0  0  0  0
 16 25  2  0  0  0  0
 16 30  1  0  0  0  0
 17 29  2  0  0  0  0
 17 31  1  0  0  0  0
 18 32  1  0  0  0  0
 19 30  2  0  0  0  0
 19 34  1  0  0  0  0
 20 32  1  0  0  0  0
 20 33  2  0  0  0  0
 20 36  1  0  0  0  0
 21 23  2  0  0  0  0
 21 43  1  0  0  0  0
 22 24  2  0  0  0  0
 22 44  1  0  0  0  0
 23 52  1  0  0  0  0
 24 45  1  0  0  0  0
 25 72  1  0  0  0  0
 26 84  1  0  0  0  0
 27 85  1  0  0  0  0
 28 31  2  0  0  0  0
 28 84  1  0  0  0  0
 29 86  1  0  0  0  0
 30 87  1  0  0  0  0
 31 88  1  0  0  0  0
 32 66  2  0  0  0  0
 33 67  1  0  0  0  0
 33 70  1  0  0  0  0
 34 35  2  0  0  0  0
 35 75  1  0  0  0  0
 36 71  1  0  0  0  0
 36 77  2  0  0  0  0
 37 53  1  0  0  0  0
 37 73  1  0  0  0  0
 37 78  2  0  0  0  0
 38 55  1  0  0  0  0
 38 62  1  0  0  0  0
 38 79  2  0  0  0  0
 39 61  1  0  0  0  0
 39 62  1  0  0  0  0
 39 80  2  0  0  0  0
 40 63  1  0  0  0  0
 40 68  1  0  0  0  0
 40 81  2  0  0  0  0
 41 64  1  0  0  0  0
 41 74  1  0  0  0  0
 41 82  2  0  0  0  0
 42 69  1  0  0  0  0
 42 72  1  0  0  0  0
 42 83  2  0  0  0  0
 43 46  1  0  0  0  0
 44 53  1  0  0  0  0
 45 68  1  0  0  0  0
 46 48  1  0  0  0  0
 47 49  1  0  0  0  0
 47 50  1  0  0  0  0
 48 52  1  0  0  0  0
 49 54  1  0  0  0  0
 50 69  1  0  0  0  0
 51 54  1  0  0  0  0
 51 69  1  0  0  0  0
 52 73  1  0  0  0  0
 53 68  1  0  0  0  0
 54 67  1  0  0  0  0
 56 64  1  0  0  0  0
 57 65  1  0  0  0  0
 58 65  1  0  0  0  0
 59 65  1  0  0  0  0
 60 76  1  0  0  0  0
 61 85  1  0  0  0  0
 62 75  1  0  0  0  0
 63 65  1  0  0  0  0
 63 74  1  0  0  0  0
 64 76  1  0  0  0  0
 66 67  1  0  0  0  0
M  CHG  2  75   1  76   1
M  ISO  4  42 100  61 101  72 100  85 101
M  END
> <Batch ID>
0172

> <Smiles>
CNC(C)C(=O)NC(C(=O)N1Cc2cc([101O:1][101CH2:1]C(=O)C(NC=Cc3ccc([100NH:0][100C:0](=O)N4CCCC(n5nc(-c6ccc(Oc7ccc(F)cc7F)cc6)c(C(N)=O)c5N)C4)cc3F)C(C)=O)ccc2CC1C(=O)NC1CCCc2ccccc21)C(C)(C)C

> <Shape>
0.259

> <Color>
0.050

> <Negative vol penalty>
0.000

$$$$

  -OEChem-04052304263D

 89 97  0     1  0  0  0  0  0999 V2000
  -18.5889  -24.4446   23.9554 C   0  0  0  0  0  0  0  0  0  0  0  0
  -19.9728  -24.4376   23.8137 C   0  0  0  0  0  0  0  0  0  0  0  0
  -26.6133  -10.7128   21.0424 C   0  0  0  0  0  0  0  0  0  0  0  0
  -25.6049  -12.3454   19.5744 C   0  0  0  0  0  0  0  0  0  0  0  0
  -17.8565  -25.5700   23.5798 C   0  0  0  0  0  0  0  0  0  0  0  0
  -20.6251  -25.5557   23.2952 C   0  0  0  0  0  0  0  0  0  0  0  0
  -24.7711  -26.7825   25.9315 C   0  0  0  0  0  0  0  0  0  0  0  0
  -25.3520  -10.1893   21.3266 C   0  0  0  0  0  0  0  0  0  0  0  0
  -24.3437  -11.8219   19.8586 C   0  0  0  0  0  0  0  0  0  0  0  0
  -25.9165  -26.0197   25.7083 C   0  0  0  0  0  0  0  0  0  0  0  0
  -23.1152   -8.1347   19.8405 C   0  0  0  0  0  0  0  0  0  0  0  0
  -22.9719   -6.7473   19.8307 C   0  0  0  0  0  0  0  0  0  0  0  0
  -26.7767  -27.7463   24.2597 C   0  0  0  0  0  0  0  0  0  0  0  0
  -28.9308  -20.2176   18.7577 C   0  0  0  0  0  0  0  0  0  0  0  0
  -22.2869   -6.8017   22.1469 C   0  0  0  0  0  0  0  0  0  0  0  0
  -26.7397  -11.7909   20.1664 C   0  0  0  0  0  0  0  0  0  0  0  0
  -28.9127  -11.9401   18.8383 C   0  0  0  0  0  0  0  0  0  0  0  0
  -18.5011  -26.7060   23.0654 C   0  0  0  0  0  0  0  0  0  0  0  0
  -24.6147  -28.0303   25.3109 C   0  0  0  0  0  0  0  0  0  0  0  0
  -19.9005  -26.6968   22.9110 C   0  0  0  0  0  0  0  0  0  0  0  0
  -25.6295  -28.5241   24.4788 C   0  0  0  0  0  0  0  0  0  0  0  0
  -29.2139  -21.5935   18.5846 C   0  0  0  0  0  0  0  0  0  0  0  0
  -24.2172  -10.7438   20.7346 C   0  0  0  0  0  0  0  0  0  0  0  0
  -26.9182  -26.5003   24.8700 C   0  0  0  0  0  0  0  0  0  0  0  0
  -22.8444   -8.8556   21.0036 C   0  0  0  0  0  0  0  0  0  0  0  0
  -22.5577   -6.0808   20.9839 C   0  0  0  0  0  0  0  0  0  0  0  0
  -22.4302   -8.1891   22.1568 C   0  0  0  0  0  0  0  0  0  0  0  0
  -28.0423  -12.3325   19.8729 C   0  0  0  0  0  0  0  0  0  0  0  0
  -30.1915  -21.9008   19.5021 C   0  0  0  0  0  0  0  0  0  0  0  0
  -30.0103  -12.7524   18.9865 C   0  0  0  0  0  0  0  0  0  0  0  0
  -29.7558  -19.7821   19.7686 C   0  0  0  0  0  0  0  0  0  0  0  0
  -28.3165  -25.3802   23.3663 C   0  0  0  0  0  0  0  0  0  1  0  0
  -28.7441  -10.9316   17.8332 C   0  0  0  0  0  0  0  0  0  0  0  0
  -29.3657  -24.6515   22.9545 C   0  0  0  0  0  0  0  0  0  0  0  0
  -29.4816  -24.3522   21.4913 C   0  0  0  0  0  0  0  0  0  0  0  0
  -22.5378  -29.2632   23.2445 C   0  0  0  0  0  0  0  0  0  0  0  0
  -24.1752  -32.0015   23.8298 C   0  0  0  0  0  0  0  0  0  0  0  0
  -27.0769  -33.4805   24.8494 C   0  0  0  0  0  0  0  0  0  0  0  0
  -30.7884  -18.1633   21.3994 C   0  0  0  0  0  0  0  0  0  0  0  0
  -17.6625  -27.8811   22.6288 C   0  0  0  0  0  0  0  0  0  0  0  0
  -23.3852  -28.8528   25.5832 C   0  0  0  0  0  0  0  0  0  0  0  0
  -25.5192  -29.8665   23.8047 C   0  0  0  0  0  0  0  0  0  0  0  0
  -18.4658  -29.1651   22.4378 C   0  0  0  0  0  0  0  0  0  0  0  0
  -32.4646  -15.1601   22.3202 C   0  0  0  0  0  0  0  0  0  0  0  0
  -19.7344  -28.8870   21.6377 C   0  0  0  0  0  0  0  0  0  0  0  0
  -31.6034  -14.0587   21.6978 C   0  0  0  0  0  0  0  0  0  0  0  0
  -31.6151  -16.3172   22.8428 C   0  0  0  0  0  0  0  0  0  0  0  0
  -29.8159  -15.7871   21.2455 C   0  0  0  0  0  0  0  0  0  0  0  0
  -20.6466  -27.8996   22.3756 C   0  0  1  0  0  0  0  0  0  0  0  0
  -23.1008  -29.8813   24.4930 C   0  0  1  0  0  0  0  0  0  0  0  0
  -30.6315  -14.6297   20.6466 C   0  0  2  0  0  0  0  0  0  0  0  0
  -28.1265  -35.7350   25.1856 C   0  0  0  0  0  0  0  0  0  0  0  0
  -32.9296  -25.1410   18.3047 C   0  0  0  0  0  0  0  0  0  0  0  0
  -33.0679  -25.1510   20.7953 C   0  0  0  0  0  0  0  0  0  0  0  0
  -34.8167  -23.9684   19.4636 C   0  0  0  0  0  0  0  0  0  0  0  0
  -24.5521  -32.2731   20.8142 C   0  0  0  0  0  0  0  0  0  0  0  0
  -26.3577  -33.9489   21.2610 C   0  0  0  0  0  0  0  0  0  0  0  0
  -24.0192  -34.4119   21.9957 C   0  0  0  0  0  0  0  0  0  0  0  0
  -27.4583  -32.9998   27.7447 C   0  0  0  0  0  0  0  0  0  0  0  0
  -32.4602  -23.0051   19.6545 C   0  0  0  0  0  0  0  0  0  0  0  0
  -30.9368  -23.1781   19.8455 C   0  0  2  0  0  0  0  0  0  0  0  0
  -25.3837  -32.6746   23.2252 C   0  0  1  0  0  0  0  0  0  0  0  0
  -27.3426  -34.6048   25.8343 C   0  0  2  0  0  0  0  0  0  0  0  0
  -33.3158  -24.3008   19.5312 C   0  0  0  0  0  0  0  0  0  0  0  0
  -25.0797  -33.3010   21.8350 C   0  0  0  0  0  0  0  0  0  0  0  0
  -28.5438  -13.3173   20.6229 N   0  0  0  0  0  0  0  0  0  0  0  0
  -29.7412  -13.5506   20.0592 N   0  0  0  0  0  0  0  0  0  0  0  0
  -24.2952  -30.6305   24.0973 N   0  0  0  0  0  0  0  0  0  0  0  0
  -30.7223  -16.8095   21.7914 N   0  0  0  0  0  0  0  0  0  0  0  0
  -28.6405  -22.4336   17.6997 N   0  0  0  0  0  0  0  0  0  0  0  0
  -31.1697  -12.8546   18.3025 N   0  0  0  0  0  0  0  0  0  0  0  0
  -27.5556  -10.1889   17.8248 N   0  0  0  0  0  0  0  0  0  0  0  0
  -29.9149  -18.5084   20.3686 N   0  0  0  0  0  0  0  0  0  0  0  0
  -30.6007  -23.5960   21.1881 N   0  0  0  0  0  0  0  0  0  0  0  0
  -21.3590  -28.5699   23.4423 N   0  0  0  0  0  0  0  0  0  0  0  0
  -25.8593  -33.6299   24.2200 N   0  0  0  0  0  0  0  0  0  0  0  0
  -28.1230  -34.0995   26.9990 N   0  3  0  0  0  0  0  0  0  0  0  0
  -29.6283  -10.6849   16.9784 O   0  0  0  0  0  0  0  0  0  0  0  0
  -28.6563  -24.7513   20.6743 O   0  0  0  0  0  0  0  0  0  0  0  0
  -23.1284  -29.4060   22.1803 O   0  0  0  0  0  0  0  0  0  0  0  0
  -23.1646  -32.6693   24.0630 O   0  0  0  0  0  0  0  0  0  0  0  0
  -27.8719  -32.5636   24.6550 O   0  0  0  0  0  0  0  0  0  0  0  0
  -31.5820  -18.9516   21.9198 O   0  0  0  0  0  0  0  0  0  0  0  0
  -30.5275  -20.8020   20.2277 O   0  0  0  0  0  0  0  0  0  0  0  0
  -30.3455  -24.1607   23.7893 O   0  0  0  0  0  0  0  0  0  0  0  0
  -22.9863  -10.2331   21.0115 O   0  0  0  0  0  0  0  0  0  0  0  0
  -28.0370  -25.7574   24.6498 O   0  0  0  0  0  0  0  0  0  1  0  0
  -22.4187   -4.7486   20.9739 F   0  0  0  0  0  0  0  0  0  0  0  0
  -22.1674   -8.8764   23.2767 F   0  0  0  0  0  0  0  0  0  0  0  0
  1  2  1  0  0  0  0
  1  5  2  0  0  0  0
  2  6  2  0  0  0  0
  3  8  2  0  0  0  0
  3 16  1  0  0  0  0
  4  9  1  0  0  0  0
  4 16  2  0  0  0  0
  5 18  1  0  0  0  0
  6 20  1  0  0  0  0
  7 10  2  0  0  0  0
  7 19  1  0  0  0  0
  8 23  1  0  0  0  0
  9 23  2  0  0  0  0
 10 24  1  0  0  0  0
 11 12  2  0  0  0  0
 11 25  1  0  0  0  0
 12 26  1  0  0  0  0
 13 21  1  0  0  0  0
 13 24  2  0  0  0  0
 14 22  1  0  0  0  0
 14 31  2  0  0  0  0
 15 26  2  0  0  0  0
 15 27  1  0  0  0  0
 16 28  1  0  0  0  0
 17 28  1  0  0  0  0
 17 30  2  0  0  0  0
 17 33  1  0  0  0  0
 18 20  2  0  0  0  0
 18 40  1  0  0  0  0
 19 21  2  0  0  0  0
 19 41  1  0  0  0  0
 20 49  1  0  0  0  0
 21 42  1  0  0  0  0
 22 29  2  0  0  0  0
 22 70  1  0  0  0  0
 23 86  1  0  0  0  0
 24 87  1  0  0  0  0
 25 27  2  0  0  0  0
 25 86  1  0  0  0  0
 26 88  1  0  0  0  0
 27 89  1  0  0  0  0
 28 66  2  0  0  0  0
 29 61  1  0  0  0  0
 29 84  1  0  0  0  0
 30 67  1  0  0  0  0
 30 71  1  0  0  0  0
 31 73  1  0  0  0  0
 31 84  1  0  0  0  0
 32 34  2  0  0  0  0
 32 87  1  0  0  0  0
 33 72  1  0  0  0  0
 33 78  2  0  0  0  0
 34 35  1  0  0  0  0
 34 85  1  0  0  0  0
 35 74  1  0  0  0  0
 35 79  2  0  0  0  0
 36 50  1  0  0  0  0
 36 75  1  0  0  0  0
 36 80  2  0  0  0  0
 37 62  1  0  0  0  0
 37 68  1  0  0  0  0
 37 81  2  0  0  0  0
 38 63  1  0  0  0  0
 38 76  1  0  0  0  0
 38 82  2  0  0  0  0
 39 69  1  0  0  0  0
 39 73  1  0  0  0  0
 39 83  2  0  0  0  0
 40 43  1  0  0  0  0
 41 50  1  0  0  0  0
 42 68  1  0  0  0  0
 43 45  1  0  0  0  0
 44 46  1  0  0  0  0
 44 47  1  0  0  0  0
 45 49  1  0  0  0  0
 46 51  1  0  0  0  0
 47 69  1  0  0  0  0
 48 51  1  0  0  0  0
 48 69  1  0  0  0  0
 49 75  1  0  0  0  0
 50 68  1  0  0  0  0
 51 67  1  0  0  0  0
 52 63  1  0  0  0  0
 53 64  1  0  0  0  0
 54 64  1  0  0  0  0
 55 64  1  0  0  0  0
 56 65  1  0  0  0  0
 57 65  1  0  0  0  0
 58 65  1  0  0  0  0
 59 77  1  0  0  0  0
 60 61  1  0  0  0  0
 60 64  1  0  0  0  0
 61 74  1  0  0  0  0
 62 65  1  0  0  0  0
 62 76  1  0  0  0  0
 63 77  1  0  0  0  0
 66 67  1  0  0  0  0
M  CHG  1  77   1
M  ISO  4  32 101  39 100  73 100  87 101
M  END
> <Batch ID>
0172

> <Smiles>
CNC(C)C(=O)NC(C(=O)N1Cc2cc([101O:1][101CH2:1]C(=O)C(=O)NC(CC(C)(C)C)c3oc([100NH:0][100C:0](=O)N4CCCC(n5nc(-c6ccc(Oc7ccc(F)cc7F)cc6)c(C(N)=O)c5N)C4)cc3N)ccc2CC1C(=O)NC1CCCc2ccccc21)C(C)(C)C

> <Shape>
0.306

> <Color>
0.076

> <Negative vol penalty>
0.000

$$$$

  -OEChem-04052304263D

 87 95  0     1  0  0  0  0  0999 V2000
  -17.3578  -26.8430   21.5342 C   0  0  0  0  0  0  0  0  0  0  0  0
  -18.5250  -26.7730   20.7804 C   0  0  0  0  0  0  0  0  0  0  0  0
  -22.2940  -12.9692   22.1432 C   0  0  0  0  0  0  0  0  0  0  0  0
  -22.1423  -13.6106   19.8189 C   0  0  0  0  0  0  0  0  0  0  0  0
  -17.0967  -27.9721   22.3094 C   0  0  0  0  0  0  0  0  0  0  0  0
  -19.4313  -27.8326   20.8006 C   0  0  0  0  0  0  0  0  0  0  0  0
  -24.2280  -26.2775   21.2676 C   0  0  0  0  0  0  0  0  0  0  0  0
  -20.9253  -13.1915   22.2939 C   0  0  0  0  0  0  0  0  0  0  0  0
  -20.7735  -13.8329   19.9696 C   0  0  0  0  0  0  0  0  0  0  0  0
  -24.8494  -25.7773   20.1242 C   0  0  0  0  0  0  0  0  0  0  0  0
  -17.9508  -11.9798   20.1057 C   0  0  0  0  0  0  0  0  0  0  0  0
  -17.1023  -11.4831   19.1163 C   0  0  0  0  0  0  0  0  0  0  0  0
  -25.9565  -27.8967   19.8059 C   0  0  0  0  0  0  0  0  0  0  0  0
  -29.4112  -19.2561   17.5653 C   0  0  0  0  0  0  0  0  0  0  0  0
  -28.0630  -17.8226   16.1637 C   0  0  0  0  0  0  0  0  0  0  0  0
  -16.3239  -13.7241   18.6588 C   0  0  0  0  0  0  0  0  0  0  0  0
  -22.9025  -13.1788   20.9057 C   0  0  0  0  0  0  0  0  0  0  0  0
  -24.9469  -11.7476   20.3764 C   0  0  0  0  0  0  0  0  0  0  0  0
  -18.0048  -29.0419   22.3466 C   0  0  0  0  0  0  0  0  0  0  0  0
  -24.4581  -27.5968   21.6833 C   0  0  0  0  0  0  0  0  0  0  0  0
  -19.1814  -28.9776   21.5760 C   0  0  0  0  0  0  0  0  0  0  0  0
  -25.3388  -28.4105   20.9564 C   0  0  0  0  0  0  0  0  0  0  0  0
  -29.4281  -20.2230   16.5602 C   0  0  0  0  0  0  0  0  0  0  0  0
  -28.7287  -18.0558   17.3671 C   0  0  0  0  0  0  0  0  0  0  0  0
  -28.7624  -19.9898   15.3568 C   0  0  0  0  0  0  0  0  0  0  0  0
  -20.1650  -13.6234   21.2071 C   0  0  0  0  0  0  0  0  0  0  0  0
  -25.7115  -26.5878   19.3915 C   0  0  0  0  0  0  0  0  0  0  0  0
  -17.9858  -13.3486   20.3717 C   0  0  0  0  0  0  0  0  0  0  0  0
  -16.2889  -12.3552   18.3928 C   0  0  0  0  0  0  0  0  0  0  0  0
  -28.0798  -18.7895   15.1585 C   0  0  0  0  0  0  0  0  0  0  0  0
  -17.1724  -14.2207   19.6483 C   0  0  0  0  0  0  0  0  0  0  0  0
  -24.3165  -12.9498   20.7495 C   0  0  0  0  0  0  0  0  0  0  0  0
  -26.2867  -12.0497   20.3714 C   0  0  0  0  0  0  0  0  0  0  0  0
  -27.1332  -25.0128   18.4072 C   0  0  0  0  0  0  0  0  0  1  0  0
  -24.3726  -10.4720   20.0623 C   0  0  0  0  0  0  0  0  0  0  0  0
  -27.8136  -24.3956   17.4286 C   0  0  0  0  0  0  0  0  0  0  0  0
  -28.6514  -23.2095   17.7963 C   0  0  0  0  0  0  0  0  0  0  0  0
  -22.6417  -30.1769   22.0670 C   0  0  0  0  0  0  0  0  0  0  0  0
  -25.3666  -31.4338   23.2988 C   0  0  0  0  0  0  0  0  0  0  0  0
  -28.7747  -31.3636   23.4607 C   0  0  0  0  0  0  0  0  0  0  0  0
  -29.3198  -17.1459   19.6406 C   0  0  0  0  0  0  0  0  0  0  0  0
  -17.6567  -30.2616   23.1626 C   0  0  0  0  0  0  0  0  0  0  0  0
  -23.8009  -28.1129   22.9340 C   0  0  0  0  0  0  0  0  0  0  0  0
  -25.6352  -29.8275   21.3719 C   0  0  0  0  0  0  0  0  0  0  0  0
  -18.8472  -31.1812   23.4218 C   0  0  0  0  0  0  0  0  0  0  0  0
  -29.4777  -14.9573   22.4445 C   0  0  0  0  0  0  0  0  0  0  0  0
  -19.6332  -31.4125   22.1351 C   0  0  0  0  0  0  0  0  0  0  0  0
  -28.2327  -14.0807   22.2908 C   0  0  0  0  0  0  0  0  0  0  0  0
  -29.2148  -16.3974   22.0078 C   0  0  0  0  0  0  0  0  0  0  0  0
  -27.4020  -15.6674   20.5077 C   0  0  0  0  0  0  0  0  0  0  0  0
  -20.2008  -30.0959   21.5911 C   0  0  1  0  0  0  0  0  0  0  0  0
  -23.7084  -29.6350   22.9759 C   0  0  1  0  0  0  0  0  0  0  0  0
  -27.6360  -14.1927   20.8741 C   0  0  2  0  0  0  0  0  0  0  0  0
  -30.7211  -32.5391   24.5224 C   0  0  0  0  0  0  0  0  0  0  0  0
  -25.0443  -33.7415   21.3289 C   0  0  0  0  0  0  0  0  0  0  0  0
  -27.4346  -34.3500   21.7581 C   0  0  0  0  0  0  0  0  0  0  0  0
  -25.7773  -34.4214   23.6212 C   0  0  0  0  0  0  0  0  0  0  0  0
  -27.5765  -21.5540   13.8165 C   0  0  0  0  0  0  0  0  0  0  0  0
  -29.6396  -28.9077   24.8677 C   0  0  0  0  0  0  0  0  0  0  0  0
  -30.1709  -21.5055   16.8003 C   0  0  0  0  0  0  0  0  0  0  0  0
  -26.5490  -32.1833   22.7338 C   0  0  1  0  0  0  0  0  0  0  0  0
  -29.7279  -31.3936   24.6418 C   0  0  2  0  0  0  0  0  0  0  0  0
  -26.1944  -33.6480   22.3513 C   0  0  0  0  0  0  0  0  0  0  0  0
  -25.1845  -13.9416   20.9660 N   0  0  0  0  0  0  0  0  0  0  0  0
  -26.3741  -13.3631   20.7283 N   0  0  0  0  0  0  0  0  0  0  0  0
  -24.9634  -30.2882   22.5983 N   0  0  0  0  0  0  0  0  0  0  0  0
  -28.6544  -16.4255   20.6550 N   0  0  0  0  0  0  0  0  0  0  0  0
  -27.3869  -11.3172   20.0967 N   0  0  0  0  0  0  0  0  0  0  0  0
  -22.9788  -10.3351   20.1163 N   0  0  0  0  0  0  0  0  0  0  0  0
  -28.7112  -17.0734   18.3880 N   0  0  0  0  0  0  0  0  0  0  0  0
  -28.7703  -20.9589   14.3297 N   0  0  0  0  0  0  0  0  0  0  0  0
  -29.3039  -22.6585   16.7069 N   0  0  0  0  0  0  0  0  0  0  0  0
  -21.3734  -29.7024   22.3424 N   0  0  0  0  0  0  0  0  0  0  0  0
  -27.6167  -32.0653   23.7210 N   0  0  0  0  0  0  0  0  0  0  0  0
  -30.4913  -30.1164   24.7240 N   0  3  0  0  0  0  0  0  0  0  0  0
  -25.0757   -9.4783   19.7592 O   0  0  0  0  0  0  0  0  0  0  0  0
  -28.7282  -22.7948   18.9495 O   0  0  0  0  0  0  0  0  0  0  0  0
  -22.9464  -30.9682   21.1823 O   0  0  0  0  0  0  0  0  0  0  0  0
  -24.8253  -31.8456   24.3279 O   0  0  0  0  0  0  0  0  0  0  0  0
  -29.0334  -30.7794   22.4107 O   0  0  0  0  0  0  0  0  0  0  0  0
  -30.3681  -17.7580   19.8603 O   0  0  0  0  0  0  0  0  0  0  0  0
  -27.7916  -24.7804   16.1060 O   0  0  0  0  0  0  0  0  0  0  0  0
  -18.8293  -13.8403   21.3538 O   0  0  0  0  0  0  0  0  0  0  0  0
  -26.3188  -26.1023   18.2747 O   0  0  0  0  0  0  0  0  0  1  0  0
  -15.4752  -11.8783   17.4417 F   0  0  0  0  0  0  0  0  0  0  0  0
  -27.4359  -18.5542   14.0063 F   0  0  0  0  0  0  0  0  0  0  0  0
  -17.2025  -15.5369   19.8986 F   0  0  0  0  0  0  0  0  0  0  0  0
  1  2  1  0  0  0  0
  1  5  2  0  0  0  0
  2  6  2  0  0  0  0
  3  8  2  0  0  0  0
  3 17  1  0  0  0  0
  4  9  1  0  0  0  0
  4 17  2  0  0  0  0
  5 19  1  0  0  0  0
  6 21  1  0  0  0  0
  7 10  2  0  0  0  0
  7 20  1  0  0  0  0
  8 26  1  0  0  0  0
  9 26  2  0  0  0  0
 10 27  1  0  0  0  0
 11 12  2  0  0  0  0
 11 28  1  0  0  0  0
 12 29  1  0  0  0  0
 13 22  1  0  0  0  0
 13 27  2  0  0  0  0
 14 23  1  0  0  0  0
 14 24  2  0  0  0  0
 15 24  1  0  0  0  0
 15 30  2  0  0  0  0
 16 29  2  0  0  0  0
 16 31  1  0  0  0  0
 17 32  1  0  0  0  0
 18 32  1  0  0  0  0
 18 33  2  0  0  0  0
 18 35  1  0  0  0  0
 19 21  2  0  0  0  0
 19 42  1  0  0  0  0
 20 22  2  0  0  0  0
 20 43  1  0  0  0  0
 21 51  1  0  0  0  0
 22 44  1  0  0  0  0
 23 25  2  0  0  0  0
 23 60  1  0  0  0  0
 24 70  1  0  0  0  0
 25 30  1  0  0  0  0
 25 71  1  0  0  0  0
 26 83  1  0  0  0  0
 27 84  1  0  0  0  0
 28 31  2  0  0  0  0
 28 83  1  0  0  0  0
 29 85  1  0  0  0  0
 30 86  1  0  0  0  0
 31 87  1  0  0  0  0
 32 64  2  0  0  0  0
 33 65  1  0  0  0  0
 33 68  1  0  0  0  0
 34 36  2  0  0  0  0
 34 84  1  0  0  0  0
 35 69  1  0  0  0  0
 35 76  2  0  0  0  0
 36 37  1  0  0  0  0
 36 82  1  0  0  0  0
 37 72  1  0  0  0  0
 37 77  2  0  0  0  0
 38 52  1  0  0  0  0
 38 73  1  0  0  0  0
 38 78  2  0  0  0  0
 39 61  1  0  0  0  0
 39 66  1  0  0  0  0
 39 79  2  0  0  0  0
 40 62  1  0  0  0  0
 40 74  1  0  0  0  0
 40 80  2  0  0  0  0
 41 67  1  0  0  0  0
 41 70  1  0  0  0  0
 41 81  2  0  0  0  0
 42 45  1  0  0  0  0
 43 52  1  0  0  0  0
 44 66  1  0  0  0  0
 45 47  1  0  0  0  0
 46 48  1  0  0  0  0
 46 49  1  0  0  0  0
 47 51  1  0  0  0  0
 48 53  1  0  0  0  0
 49 67  1  0  0  0  0
 50 53  1  0  0  0  0
 50 67  1  0  0  0  0
 51 73  1  0  0  0  0
 52 66  1  0  0  0  0
 53 65  1  0  0  0  0
 54 62  1  0  0  0  0
 55 63  1  0  0  0  0
 56 63  1  0  0  0  0
 57 63  1  0  0  0  0
 58 71  1  0  0  0  0
 59 75  1  0  0  0  0
 60 72  1  0  0  0  0
 61 63  1  0  0  0  0
 61 74  1  0  0  0  0
 62 75  1  0  0  0  0
 64 65  1  0  0  0  0
M  CHG  1  75   1
M  ISO  4  34 101  41 100  70 100  84 101
M  END
> <Batch ID>
0172

> <Smiles>
CNc1c(F)cc([100NH:0][100C:0](=O)N2CCCC(n3nc(-c4ccc(Oc5ccc(F)cc5F)cc4)c(C(N)=O)c3N)C2)cc1CNC(=O)C(=O)[101CH2:1][101O:1]c1ccc2c(c1)CN(C(=O)C(NC(=O)C(C)NC)C(C)(C)C)C(C(=O)NC1CCCc3ccccc31)C2

> <Shape>
0.257

> <Color>
0.082

> <Negative vol penalty>
0.000

$$$$

  -OEChem-04052304263D

 85 93  0     1  0  0  0  0  0999 V2000
  -28.0914  -32.6302   26.3131 C   0  0  0  0  0  0  0  0  0  0  0  0
  -28.1749  -31.4533   25.5760 C   0  0  0  0  0  0  0  0  0  0  0  0
  -24.6913   -9.1251   21.4802 C   0  0  0  0  0  0  0  0  0  0  0  0
  -23.1643  -10.9791   21.2194 C   0  0  0  0  0  0  0  0  0  0  0  0
  -26.8466  -33.1134   26.7140 C   0  0  0  0  0  0  0  0  0  0  0  0
  -27.0135  -30.7583   25.2403 C   0  0  0  0  0  0  0  0  0  0  0  0
  -26.9912  -29.2300   20.4124 C   0  0  0  0  0  0  0  0  0  0  0  0
  -23.8407   -8.5580   22.4291 C   0  0  0  0  0  0  0  0  0  0  0  0
  -22.3136  -10.4119   22.1683 C   0  0  0  0  0  0  0  0  0  0  0  0
  -27.7482  -28.1022   20.0980 C   0  0  0  0  0  0  0  0  0  0  0  0
  -20.9664   -6.7773   22.4497 C   0  0  0  0  0  0  0  0  0  0  0  0
  -20.7038   -5.4110   22.3506 C   0  0  0  0  0  0  0  0  0  0  0  0
  -25.7488  -26.7536   20.1478 C   0  0  0  0  0  0  0  0  0  0  0  0
  -21.6325   -5.0725   24.5551 C   0  0  0  0  0  0  0  0  0  0  0  0
  -24.3531  -10.3358   20.8754 C   0  0  0  0  0  0  0  0  0  0  0  0
  -25.2139  -10.7122   18.5037 C   0  0  0  0  0  0  0  0  0  0  0  0
  -25.6687  -32.4292   26.3747 C   0  0  0  0  0  0  0  0  0  0  0  0
  -25.6065  -29.1259   20.6078 C   0  0  0  0  0  0  0  0  0  0  0  0
  -25.7519  -31.2322   25.6381 C   0  0  0  0  0  0  0  0  0  0  0  0
  -24.9761  -27.8819   20.4620 C   0  0  0  0  0  0  0  0  0  0  0  0
  -22.6518   -9.2013   22.7731 C   0  0  0  0  0  0  0  0  0  0  0  0
  -27.1275  -26.8633   19.9685 C   0  0  0  0  0  0  0  0  0  0  0  0
  -21.5621   -7.2913   23.6016 C   0  0  0  0  0  0  0  0  0  0  0  0
  -21.0368   -4.5586   23.4033 C   0  0  0  0  0  0  0  0  0  0  0  0
  -21.8951   -6.4389   24.6542 C   0  0  0  0  0  0  0  0  0  0  0  0
  -25.2317  -10.9224   19.8956 C   0  0  0  0  0  0  0  0  0  0  0  0
  -25.9466  -20.2554   19.2895 C   0  0  0  0  0  0  0  0  0  0  0  0
  -27.3079  -20.4566   19.3821 C   0  0  0  0  0  0  0  0  0  0  0  0
  -26.2395  -11.4908   18.0257 C   0  0  0  0  0  0  0  0  0  0  0  0
  -27.2749  -18.2838   19.6784 C   0  0  0  0  0  0  0  0  0  0  0  0
  -24.8833  -21.1789   19.0674 C   0  0  0  0  0  0  0  0  0  0  0  0
  -24.3477   -9.8870   17.7135 C   0  0  0  0  0  0  0  0  0  0  0  0
  -29.5788  -23.4461   19.1328 C   0  0  0  0  0  0  0  0  0  0  0  0
  -29.2806  -21.9893   19.3407 C   0  0  0  0  0  0  0  0  0  0  0  0
  -23.6390  -29.6595   23.0467 C   0  0  0  0  0  0  0  0  0  0  0  0
  -21.3518  -29.0473   20.8295 C   0  0  0  0  0  0  0  0  0  0  0  0
  -20.5001  -27.5522   17.8823 C   0  0  0  0  0  0  0  0  0  0  0  0
  -28.9214  -16.4198   20.0794 C   0  0  0  0  0  0  0  0  0  0  0  0
  -24.3492  -32.9653   26.8710 C   0  0  0  0  0  0  0  0  0  0  0  0
  -24.8001  -30.3566   20.9202 C   0  0  0  0  0  0  0  0  0  0  0  0
  -23.4894  -27.7204   20.6418 C   0  0  0  0  0  0  0  0  0  0  0  0
  -23.1409  -32.3689   26.1537 C   0  0  0  0  0  0  0  0  0  0  0  0
  -30.4771  -13.3088   19.3189 C   0  0  0  0  0  0  0  0  0  0  0  0
  -23.2757  -30.8529   26.0510 C   0  0  0  0  0  0  0  0  0  0  0  0
  -29.3062  -12.3258   19.2478 C   0  0  0  0  0  0  0  0  0  0  0  0
  -30.2704  -14.3591   20.4088 C   0  0  0  0  0  0  0  0  0  0  0  0
  -27.8245  -14.1010   20.2675 C   0  0  0  0  0  0  0  0  0  0  0  0
  -24.5130  -30.4631   25.2333 C   0  0  1  0  0  0  0  0  0  0  0  0
  -23.4726  -30.0435   21.6036 C   0  0  1  0  0  0  0  0  0  0  0  0
  -27.9570  -13.0632   19.1410 C   0  0  2  0  0  0  0  0  0  0  0  0
  -18.5479  -27.1952   16.3464 C   0  0  0  0  0  0  0  0  0  0  0  0
  -20.2260  -26.9602   22.7495 C   0  0  0  0  0  0  0  0  0  0  0  0
  -18.9219  -26.0059   20.8372 C   0  0  0  0  0  0  0  0  0  0  0  0
  -18.4998  -28.3472   21.5873 C   0  0  0  0  0  0  0  0  0  0  0  0
  -21.8539  -28.9443   15.6489 C   0  0  0  0  0  0  0  0  0  0  0  0
  -29.6410  -24.3032   20.3780 C   0  0  0  0  0  0  0  0  0  0  0  0
  -29.2190  -25.7400   20.1102 C   0  0  0  0  0  0  0  0  0  1  0  0
  -20.6356  -27.8094   20.3460 C   0  0  1  0  0  0  0  0  0  0  0  0
  -19.7483  -28.0711   16.6699 C   0  0  2  0  0  0  0  0  0  0  0  0
  -19.5991  -27.2830   21.3785 C   0  0  0  0  0  0  0  0  0  0  0  0
  -26.1925  -11.7681   20.2771 N   0  0  0  0  0  0  0  0  0  0  0  0
  -28.0711  -19.3273   19.6055 N   0  0  0  0  0  0  0  0  0  0  0  0
  -26.7881  -12.0962   19.1179 N   0  0  0  0  0  0  0  0  0  0  0  0
  -22.7452  -28.9521   20.9525 N   0  0  0  0  0  0  0  0  0  0  0  0
  -28.9739  -15.0192   20.2412 N   0  0  0  0  0  0  0  0  0  0  0  0
  -26.7166  -11.7098   16.7820 N   0  0  0  0  0  0  0  0  0  0  0  0
  -23.3468   -9.1533   18.3646 N   0  0  0  0  0  0  0  0  0  0  0  0
  -27.9308  -21.7211   19.2659 N   0  0  0  0  0  0  0  0  0  0  0  0
  -27.6372  -16.9314   19.8959 N   0  0  0  0  0  0  0  0  0  0  0  0
  -24.2556  -30.6258   23.8185 N   0  0  0  0  0  0  0  0  0  0  0  0
  -20.0654  -28.1490   19.0468 N   0  0  0  0  0  0  0  0  0  0  0  0
  -20.6434  -28.1002   15.4787 N   0  3  0  0  0  0  0  0  0  0  0  0
  -25.0423  -22.4088   18.9114 O   0  0  0  0  0  0  0  0  0  0  0  0
  -24.4685   -9.7902   16.4687 O   0  0  0  0  0  0  0  0  0  0  0  0
  -29.7581  -23.8222   17.9843 O   0  0  0  0  0  0  0  0  0  0  0  0
  -30.2388  -21.2552   19.5160 O   0  0  0  0  0  0  0  0  0  0  0  0
  -23.2365  -28.5681   23.4318 O   0  0  0  0  0  0  0  0  0  0  0  0
  -20.6997  -30.0635   21.0817 O   0  0  0  0  0  0  0  0  0  0  0  0
  -21.3821  -26.6997   17.8045 O   0  0  0  0  0  0  0  0  0  0  0  0
  -29.9431  -17.1112   20.0747 O   0  0  0  0  0  0  0  0  0  0  0  0
  -21.8214   -8.6481   23.6988 O   0  0  0  0  0  0  0  0  0  0  0  0
  -27.8642  -25.7608   19.6624 O   0  0  0  0  0  0  0  0  0  1  0  0
  -20.7832   -3.2468   23.3085 F   0  0  0  0  0  0  0  0  0  0  0  0
  -22.4665   -6.9270   25.7638 F   0  0  0  0  0  0  0  0  0  0  0  0
  -25.5969  -18.5880   19.4867 S   0  0  0  0  0  0  0  0  0  0  0  0
  1  2  1  0  0  0  0
  1  5  2  0  0  0  0
  2  6  2  0  0  0  0
  3  8  2  0  0  0  0
  3 15  1  0  0  0  0
  4  9  1  0  0  0  0
  4 15  2  0  0  0  0
  5 17  1  0  0  0  0
  6 19  1  0  0  0  0
  7 10  2  0  0  0  0
  7 18  1  0  0  0  0
  8 21  1  0  0  0  0
  9 21  2  0  0  0  0
 10 22  1  0  0  0  0
 11 12  2  0  0  0  0
 11 23  1  0  0  0  0
 12 24  1  0  0  0  0
 13 20  1  0  0  0  0
 13 22  2  0  0  0  0
 14 24  2  0  0  0  0
 14 25  1  0  0  0  0
 15 26  1  0  0  0  0
 16 26  1  0  0  0  0
 16 29  2  0  0  0  0
 16 32  1  0  0  0  0
 17 19  2  0  0  0  0
 17 39  1  0  0  0  0
 18 20  2  0  0  0  0
 18 40  1  0  0  0  0
 19 48  1  0  0  0  0
 20 41  1  0  0  0  0
 21 81  1  0  0  0  0
 22 82  1  0  0  0  0
 23 25  2  0  0  0  0
 23 81  1  0  0  0  0
 24 83  1  0  0  0  0
 25 84  1  0  0  0  0
 26 61  2  0  0  0  0
 27 28  2  0  0  0  0
 27 31  1  0  0  0  0
 27 85  1  0  0  0  0
 28 62  1  0  0  0  0
 28 68  1  0  0  0  0
 29 63  1  0  0  0  0
 29 66  1  0  0  0  0
 30 62  2  0  0  0  0
 30 69  1  0  0  0  0
 30 85  1  0  0  0  0
 31 73  2  0  0  0  0
 32 67  1  0  0  0  0
 32 74  2  0  0  0  0
 33 34  1  0  0  0  0
 33 56  1  0  0  0  0
 33 75  2  0  0  0  0
 34 68  1  0  0  0  0
 34 76  2  0  0  0  0
 35 49  1  0  0  0  0
 35 70  1  0  0  0  0
 35 77  2  0  0  0  0
 36 58  1  0  0  0  0
 36 64  1  0  0  0  0
 36 78  2  0  0  0  0
 37 59  1  0  0  0  0
 37 71  1  0  0  0  0
 37 79  2  0  0  0  0
 38 65  1  0  0  0  0
 38 69  1  0  0  0  0
 38 80  2  0  0  0  0
 39 42  1  0  0  0  0
 40 49  1  0  0  0  0
 41 64  1  0  0  0  0
 42 44  1  0  0  0  0
 43 45  1  0  0  0  0
 43 46  1  0  0  0  0
 44 48  1  0  0  0  0
 45 50  1  0  0  0  0
 46 65  1  0  0  0  0
 47 50  1  0  0  0  0
 47 65  1  0  0  0  0
 48 70  1  0  0  0  0
 49 64  1  0  0  0  0
 50 63  1  0  0  0  0
 51 59  1  0  0  0  0
 52 60  1  0  0  0  0
 53 60  1  0  0  0  0
 54 60  1  0  0  0  0
 55 72  1  0  0  0  0
 56 57  1  0  0  0  0
 57 82  1  0  0  0  0
 58 60  1  0  0  0  0
 58 71  1  0  0  0  0
 59 72  1  0  0  0  0
 61 63  1  0  0  0  0
M  CHG  1  72   1
M  ISO  4  38 100  57 101  69 100  82 101
M  END
> <Batch ID>
0172

> <Smiles>
CNC(C)C(=O)NC(C(=O)N1Cc2cc([101O:1][101CH2:1]CC(=O)C(=O)Nc3nc([100NH:0][100C:0](=O)N4CCCC(n5nc(-c6ccc(Oc7ccc(F)cc7F)cc6)c(C(N)=O)c5N)C4)sc3C=O)ccc2CC1C(=O)NC1CCCc2ccccc21)C(C)(C)C

> <Shape>
0.343

> <Color>
0.101

> <Negative vol penalty>
0.000

$$$$

  -OEChem-04052304263D

 83 91  0     1  0  0  0  0  0999 V2000
  -24.5782  -37.2359   18.8270 C   0  0  0  0  0  0  0  0  0  0  0  0
  -25.2819  -36.0713   18.5368 C   0  0  0  0  0  0  0  0  0  0  0  0
  -23.7763   -9.0025   20.0511 C   0  0  0  0  0  0  0  0  0  0  0  0
  -23.1389  -10.7839   21.5536 C   0  0  0  0  0  0  0  0  0  0  0  0
  -24.1062  -37.4601   20.1196 C   0  0  0  0  0  0  0  0  0  0  0  0
  -25.5148  -35.1307   19.5396 C   0  0  0  0  0  0  0  0  0  0  0  0
  -25.7200  -29.0434   18.9012 C   0  0  0  0  0  0  0  0  0  0  0  0
  -28.2070  -18.6723   18.8475 C   0  0  0  0  0  0  0  0  0  0  0  0
  -22.9389   -8.1236   20.7379 C   0  0  0  0  0  0  0  0  0  0  0  0
  -22.3015   -9.9050   22.2404 C   0  0  0  0  0  0  0  0  0  0  0  0
  -26.7817  -28.1491   18.7711 C   0  0  0  0  0  0  0  0  0  0  0  0
  -19.6325   -7.4301   20.8780 C   0  0  0  0  0  0  0  0  0  0  0  0
  -18.8128   -6.5918   20.1223 C   0  0  0  0  0  0  0  0  0  0  0  0
  -28.2843  -20.0590   18.9143 C   0  0  0  0  0  0  0  0  0  0  0  0
  -26.6992  -27.7154   21.1426 C   0  0  0  0  0  0  0  0  0  0  0  0
  -19.8712   -4.6609   21.1165 C   0  0  0  0  0  0  0  0  0  0  0  0
  -30.2537  -18.5521   20.0529 C   0  0  0  0  0  0  0  0  0  0  0  0
  -23.8764  -10.3327   20.4589 C   0  0  0  0  0  0  0  0  0  0  0  0
  -24.4053  -12.0502   18.6484 C   0  0  0  0  0  0  0  0  0  0  0  0
  -24.3251  -36.5173   21.1363 C   0  0  0  0  0  0  0  0  0  0  0  0
  -25.1461  -29.2890   20.1569 C   0  0  0  0  0  0  0  0  0  0  0  0
  -25.0465  -35.3431   20.8473 C   0  0  0  0  0  0  0  0  0  0  0  0
  -25.6287  -28.6113   21.2856 C   0  0  0  0  0  0  0  0  0  0  0  0
  -29.2064  -17.8972   19.4251 C   0  0  0  0  0  0  0  0  0  0  0  0
  -22.2015   -8.5748   21.8326 C   0  0  0  0  0  0  0  0  0  0  0  0
  -27.2734  -27.4872   19.8923 C   0  0  0  0  0  0  0  0  0  0  0  0
  -20.5716   -6.8838   21.7528 C   0  0  0  0  0  0  0  0  0  0  0  0
  -18.9322   -5.2072   20.2416 C   0  0  0  0  0  0  0  0  0  0  0  0
  -20.6909   -5.4992   21.8721 C   0  0  0  0  0  0  0  0  0  0  0  0
  -24.7417  -11.2410   19.7501 C   0  0  0  0  0  0  0  0  0  0  0  0
  -29.3727  -20.6171   19.5652 C   0  0  0  0  0  0  0  0  0  0  0  0
  -25.5659  -12.7203   18.3475 C   0  0  0  0  0  0  0  0  0  0  0  0
  -28.0200  -25.3020   19.5205 C   0  0  0  0  0  0  0  0  0  1  0  0
  -23.1556  -12.1842   17.9586 C   0  0  0  0  0  0  0  0  0  0  0  0
  -28.9595  -24.3590   19.3804 C   0  0  0  0  0  0  0  0  0  0  0  0
  -28.5373  -22.9461   19.1090 C   0  0  0  0  0  0  0  0  0  0  0  0
  -24.8358  -31.8455   22.0200 C   0  0  0  0  0  0  0  0  0  0  0  0
  -23.0373  -29.8331   23.8195 C   0  0  0  0  0  0  0  0  0  0  0  0
  -22.2972  -26.6238   24.7133 C   0  0  0  0  0  0  0  0  0  0  0  0
  -30.0806  -15.5836   19.9040 C   0  0  0  0  0  0  0  0  0  0  0  0
  -23.8366  -36.8255   22.5295 C   0  0  0  0  0  0  0  0  0  0  0  0
  -23.9840  -30.2364   20.2762 C   0  0  0  0  0  0  0  0  0  0  0  0
  -25.0341  -28.8245   22.6529 C   0  0  0  0  0  0  0  0  0  0  0  0
  -23.8011  -35.6054   23.4464 C   0  0  0  0  0  0  0  0  0  0  0  0
  -30.2946  -12.0313   20.0167 C   0  0  0  0  0  0  0  0  0  0  0  0
  -25.0985  -34.8118   23.3294 C   0  0  0  0  0  0  0  0  0  0  0  0
  -28.8414  -11.5756   19.8668 C   0  0  0  0  0  0  0  0  0  0  0  0
  -30.4057  -13.3081   20.8481 C   0  0  0  0  0  0  0  0  0  0  0  0
  -28.1101  -13.9654   20.2422 C   0  0  0  0  0  0  0  0  0  0  0  0
  -25.2978  -34.2876   21.9022 C   0  0  1  0  0  0  0  0  0  0  0  0
  -23.8127  -30.7975   21.6845 C   0  0  1  0  0  0  0  0  0  0  0  0
  -27.9419  -12.7191   19.3579 C   0  0  2  0  0  0  0  0  0  0  0  0
  -20.8076  -25.2965   26.2354 C   0  0  0  0  0  0  0  0  0  0  0  0
  -24.8025  -30.5794   26.1937 C   0  0  0  0  0  0  0  0  0  0  0  0
  -23.9108  -28.5737   27.3980 C   0  0  0  0  0  0  0  0  0  0  0  0
  -22.3636  -30.4092   26.7199 C   0  0  0  0  0  0  0  0  0  0  0  0
  -21.0044  -25.2446   22.4361 C   0  0  0  0  0  0  0  0  0  0  0  0
  -23.3152  -28.8735   24.9513 C   0  0  1  0  0  0  0  0  0  0  0  0
  -20.9720  -25.8956   24.8473 C   0  0  2  0  0  0  0  0  0  0  0  0
  -23.6107  -29.6062   26.2904 C   0  0  0  0  0  0  0  0  0  0  0  0
  -30.3630  -19.8968   20.1382 N   0  0  0  0  0  0  0  0  0  0  0  0
  -26.0162  -11.3825   20.1238 N   0  0  0  0  0  0  0  0  0  0  0  0
  -26.4909  -12.2883   19.2520 N   0  0  0  0  0  0  0  0  0  0  0  0
  -23.9036  -29.7653   22.7192 N   0  0  0  0  0  0  0  0  0  0  0  0
  -29.5294  -14.3481   20.3047 N   0  0  0  0  0  0  0  0  0  0  0  0
  -25.8752  -13.6310   17.4002 N   0  0  0  0  0  0  0  0  0  0  0  0
  -22.0646  -11.4221   18.3983 N   0  0  0  0  0  0  0  0  0  0  0  0
  -29.1560  -16.4821   19.3725 N   0  0  0  0  0  0  0  0  0  0  0  0
  -29.4416  -22.0298   19.6281 N   0  0  0  0  0  0  0  0  0  0  0  0
  -24.4630  -33.1288   21.6682 N   0  0  0  0  0  0  0  0  0  0  0  0
  -22.1745  -27.9656   25.0060 N   0  0  0  0  0  0  0  0  0  0  0  0
  -20.8822  -24.7948   23.8467 N   0  3  0  0  0  0  0  0  0  0  0  0
  -23.0149  -12.9447   16.9710 O   0  0  0  0  0  0  0  0  0  0  0  0
  -27.5036  -22.7043   18.4952 O   0  0  0  0  0  0  0  0  0  0  0  0
  -25.8851  -31.5146   22.5596 O   0  0  0  0  0  0  0  0  0  0  0  0
  -22.0824  -30.6092   23.9053 O   0  0  0  0  0  0  0  0  0  0  0  0
  -23.3379  -26.0580   24.3856 O   0  0  0  0  0  0  0  0  0  0  0  0
  -31.2884  -15.8165   19.9983 O   0  0  0  0  0  0  0  0  0  0  0  0
  -30.3083  -24.6355   19.4748 O   0  0  0  0  0  0  0  0  0  0  0  0
  -21.3841   -7.7174   22.5029 O   0  0  0  0  0  0  0  0  0  0  0  0
  -28.3100  -26.6143   19.7682 O   0  0  0  0  0  0  0  0  0  1  0  0
  -18.1439   -4.4023   19.5170 F   0  0  0  0  0  0  0  0  0  0  0  0
  -21.5905   -4.9685   22.7118 F   0  0  0  0  0  0  0  0  0  0  0  0
  1  2  1  0  0  0  0
  1  5  2  0  0  0  0
  2  6  2  0  0  0  0
  3  9  2  0  0  0  0
  3 18  1  0  0  0  0
  4 10  1  0  0  0  0
  4 18  2  0  0  0  0
  5 20  1  0  0  0  0
  6 22  1  0  0  0  0
  7 11  2  0  0  0  0
  7 21  1  0  0  0  0
  8 14  2  0  0  0  0
  8 24  1  0  0  0  0
  9 25  1  0  0  0  0
 10 25  2  0  0  0  0
 11 26  1  0  0  0  0
 12 13  2  0  0  0  0
 12 27  1  0  0  0  0
 13 28  1  0  0  0  0
 14 31  1  0  0  0  0
 15 23  1  0  0  0  0
 15 26  2  0  0  0  0
 16 28  2  0  0  0  0
 16 29  1  0  0  0  0
 17 24  2  0  0  0  0
 17 61  1  0  0  0  0
 18 30  1  0  0  0  0
 19 30  1  0  0  0  0
 19 32  2  0  0  0  0
 19 34  1  0  0  0  0
 20 22  2  0  0  0  0
 20 41  1  0  0  0  0
 21 23  2  0  0  0  0
 21 42  1  0  0  0  0
 22 50  1  0  0  0  0
 23 43  1  0  0  0  0
 24 68  1  0  0  0  0
 25 80  1  0  0  0  0
 26 81  1  0  0  0  0
 27 29  2  0  0  0  0
 27 80  1  0  0  0  0
 28 82  1  0  0  0  0
 29 83  1  0  0  0  0
 30 62  2  0  0  0  0
 31 61  2  0  0  0  0
 31 69  1  0  0  0  0
 32 63  1  0  0  0  0
 32 66  1  0  0  0  0
 33 35  2  0  0  0  0
 33 81  1  0  0  0  0
 34 67  1  0  0  0  0
 34 73  2  0  0  0  0
 35 36  1  0  0  0  0
 35 79  1  0  0  0  0
 36 69  1  0  0  0  0
 36 74  2  0  0  0  0
 37 51  1  0  0  0  0
 37 70  1  0  0  0  0
 37 75  2  0  0  0  0
 38 58  1  0  0  0  0
 38 64  1  0  0  0  0
 38 76  2  0  0  0  0
 39 59  1  0  0  0  0
 39 71  1  0  0  0  0
 39 77  2  0  0  0  0
 40 65  1  0  0  0  0
 40 68  1  0  0  0  0
 40 78  2  0  0  0  0
 41 44  1  0  0  0  0
 42 51  1  0  0  0  0
 43 64  1  0  0  0  0
 44 46  1  0  0  0  0
 45 47  1  0  0  0  0
 45 48  1  0  0  0  0
 46 50  1  0  0  0  0
 47 52  1  0  0  0  0
 48 65  1  0  0  0  0
 49 52  1  0  0  0  0
 49 65  1  0  0  0  0
 50 70  1  0  0  0  0
 51 64  1  0  0  0  0
 52 63  1  0  0  0  0
 53 59  1  0  0  0  0
 54 60  1  0  0  0  0
 55 60  1  0  0  0  0
 56 60  1  0  0  0  0
 57 72  1  0  0  0  0
 58 60  1  0  0  0  0
 58 71  1  0  0  0  0
 59 72  1  0  0  0  0
 62 63  1  0  0  0  0
M  CHG  1  72   1
M  ISO  4  33 101  40 100  68 100  81 101
M  END
> <Batch ID>
0172

> <Smiles>
CNC(C)C(=O)NC(C(=O)N1Cc2cc([101O:1][101CH2:1]C(=O)C(=O)Nc3ccc([100NH:0][100C:0](=O)N4CCCC(n5nc(-c6ccc(Oc7ccc(F)cc7F)cc6)c(C(N)=O)c5N)C4)cn3)ccc2CC1C(=O)NC1CCCc2ccccc21)C(C)(C)C

> <Shape>
0.273

> <Color>
0.109

> <Negative vol penalty>
0.000

$$$$

  -OEChem-04052304263D

 86 94  0     1  0  0  0  0  0999 V2000
  -29.3329  -22.8250   27.6780 C   0  0  0  0  0  0  0  0  0  0  0  0
  -29.7079  -23.5938   26.5809 C   0  0  0  0  0  0  0  0  0  0  0  0
  -26.3193  -12.9954   21.5778 C   0  0  0  0  0  0  0  0  0  0  0  0
  -25.9794  -13.7659   19.3133 C   0  0  0  0  0  0  0  0  0  0  0  0
  -28.0350  -22.3231   27.7652 C   0  0  0  0  0  0  0  0  0  0  0  0
  -28.7855  -23.8601   25.5696 C   0  0  0  0  0  0  0  0  0  0  0  0
  -28.3417  -28.9861   22.2480 C   0  0  0  0  0  0  0  0  0  0  0  0
  -25.0812  -12.3538   21.5454 C   0  0  0  0  0  0  0  0  0  0  0  0
  -24.7412  -13.1242   19.2809 C   0  0  0  0  0  0  0  0  0  0  0  0
  -28.7971  -29.3202   20.9733 C   0  0  0  0  0  0  0  0  0  0  0  0
  -23.7904   -9.4928   20.2877 C   0  0  0  0  0  0  0  0  0  0  0  0
  -23.7214   -8.1917   20.7855 C   0  0  0  0  0  0  0  0  0  0  0  0
  -26.6361  -28.7580   20.0605 C   0  0  0  0  0  0  0  0  0  0  0  0
  -29.0122  -21.3665   16.7202 C   0  0  0  0  0  0  0  0  0  0  0  0
  -22.1014   -8.9065   22.4293 C   0  0  0  0  0  0  0  0  0  0  0  0
  -26.7684  -13.7015   20.4618 C   0  0  0  0  0  0  0  0  0  0  0  0
  -29.2939  -13.8266   20.1243 C   0  0  0  0  0  0  0  0  0  0  0  0
  -27.0935  -22.5914   26.7592 C   0  0  0  0  0  0  0  0  0  0  0  0
  -27.0312  -28.5243   22.4373 C   0  0  0  0  0  0  0  0  0  0  0  0
  -27.4742  -23.3601   25.6427 C   0  0  0  0  0  0  0  0  0  0  0  0
  -26.1657  -28.4211   21.3389 C   0  0  0  0  0  0  0  0  0  0  0  0
  -29.2826  -22.6235   16.1286 C   0  0  0  0  0  0  0  0  0  0  0  0
  -24.2922  -12.4182   20.3970 C   0  0  0  0  0  0  0  0  0  0  0  0
  -27.9452  -29.2034   19.8790 C   0  0  0  0  0  0  0  0  0  0  0  0
  -23.0150  -10.5009   20.8607 C   0  0  0  0  0  0  0  0  0  0  0  0
  -22.8769   -7.8985   21.8563 C   0  0  0  0  0  0  0  0  0  0  0  0
  -22.1705  -10.2077   21.9315 C   0  0  0  0  0  0  0  0  0  0  0  0
  -28.0470  -14.3649   20.4948 C   0  0  0  0  0  0  0  0  0  0  0  0
  -30.1861  -14.8489   20.3372 C   0  0  0  0  0  0  0  0  0  0  0  0
  -29.3364  -21.4930   18.0509 C   0  0  0  0  0  0  0  0  0  0  0  0
  -29.7526  -23.4286   17.1400 C   0  0  0  0  0  0  0  0  0  0  0  0
  -29.6167  -12.5195   19.6315 C   0  0  0  0  0  0  0  0  0  0  0  0
  -31.0080  -26.9019   17.8742 C   0  0  0  0  0  0  0  0  0  0  0  0
  -30.6435  -25.4900   18.2358 C   0  0  0  0  0  0  0  0  0  0  0  0
  -25.7365  -25.8267   23.5098 C   0  0  0  0  0  0  0  0  0  0  0  0
  -22.9717  -27.5002   23.2307 C   0  0  0  0  0  0  0  0  0  0  0  0
  -21.2749  -30.0663   21.7533 C   0  0  0  0  0  0  0  0  0  0  0  0
  -29.6274  -20.7969   20.4545 C   0  0  0  0  0  0  0  0  0  0  0  0
  -25.7162  -21.9877   26.8742 C   0  0  0  0  0  0  0  0  0  0  0  0
  -26.5470  -28.1934   23.8224 C   0  0  0  0  0  0  0  0  0  0  0  0
  -24.7434  -27.9496   21.4916 C   0  0  0  0  0  0  0  0  0  0  0  0
  -24.6904  -22.6287   25.9431 C   0  0  0  0  0  0  0  0  0  0  0  0
  -30.8606  -18.7219   23.0719 C   0  0  0  0  0  0  0  0  0  0  0  0
  -25.2643  -22.7766   24.5375 C   0  0  0  0  0  0  0  0  0  0  0  0
  -30.3978  -17.3193   22.6712 C   0  0  0  0  0  0  0  0  0  0  0  0
  -29.8229  -19.7850   22.7156 C   0  0  0  0  0  0  0  0  0  0  0  0
  -28.9132  -18.3695   20.9162 C   0  0  0  0  0  0  0  0  0  0  0  0
  -26.4950  -23.6914   24.5375 C   0  0  1  0  0  0  0  0  0  0  0  0
  -25.3526  -27.2443   23.8270 C   0  0  1  0  0  0  0  0  0  0  0  0
  -29.9533  -17.2725   21.1961 C   0  0  2  0  0  0  0  0  0  0  0  0
  -29.0940  -22.9880   14.7122 C   0  0  0  0  0  0  0  0  0  0  0  0
  -19.0185  -31.1632   21.6996 C   0  0  0  0  0  0  0  0  0  0  0  0
  -21.8963  -25.1997   21.5391 C   0  0  0  0  0  0  0  0  0  0  0  0
  -20.0758  -26.7251   20.7472 C   0  0  0  0  0  0  0  0  0  0  0  0
  -20.2555  -26.1524   23.1684 C   0  0  0  0  0  0  0  0  0  0  0  0
  -27.9670  -27.3617   17.6640 C   0  0  0  0  0  0  0  0  0  0  0  0
  -29.3767  -29.0809   16.5067 C   0  0  0  0  0  0  0  0  0  0  0  0
  -22.3773  -32.6447   22.6997 C   0  0  0  0  0  0  0  0  0  0  0  0
  -30.2526  -28.0027   18.5918 C   0  0  0  0  0  0  0  0  0  0  0  0
  -21.9560  -27.7114   22.1340 C   0  0  1  0  0  0  0  0  0  0  0  0
  -20.4003  -31.1624   22.3347 C   0  0  2  0  0  0  0  0  0  0  0  0
  -21.0732  -26.4542   21.8937 C   0  0  0  0  0  0  0  0  0  0  0  0
  -28.9865  -28.4860   17.8648 C   0  0  0  0  0  0  0  0  0  1  0  0
  -28.1352  -15.6308   20.9118 N   0  0  0  0  0  0  0  0  0  0  0  0
  -29.4483  -15.8964   20.8045 N   0  0  0  0  0  0  0  0  0  0  0  0
  -24.3188  -27.6321   22.8651 N   0  0  0  0  0  0  0  0  0  0  0  0
  -29.4530  -19.6827   21.3023 N   0  0  0  0  0  0  0  0  0  0  0  0
  -31.5221  -14.9449   20.1685 N   0  0  0  0  0  0  0  0  0  0  0  0
  -28.5793  -11.5906   19.4720 N   0  0  0  0  0  0  0  0  0  0  0  0
  -30.1794  -24.7769   17.1511 N   0  0  0  0  0  0  0  0  0  0  0  0
  -29.2718  -20.5712   19.1252 N   0  0  0  0  0  0  0  0  0  0  0  0
  -26.0929  -25.0795   24.6162 N   0  0  0  0  0  0  0  0  0  0  0  0
  -21.2050  -28.9080   22.4981 N   0  0  0  0  0  0  0  0  0  0  0  0
  -21.0229  -32.4972   22.1074 N   0  3  0  0  0  0  0  0  0  0  0  0
  -30.7925  -12.1798   19.3568 O   0  0  0  0  0  0  0  0  0  0  0  0
  -31.8601  -27.0538   17.0117 O   0  0  0  0  0  0  0  0  0  0  0  0
  -30.8241  -25.1601   19.3963 O   0  0  0  0  0  0  0  0  0  0  0  0
  -25.7097  -25.4391   22.3476 O   0  0  0  0  0  0  0  0  0  0  0  0
  -22.5839  -27.2351   24.3713 O   0  0  0  0  0  0  0  0  0  0  0  0
  -21.9495  -30.2209   20.7376 O   0  0  0  0  0  0  0  0  0  0  0  0
  -30.0859  -21.8638   20.8710 O   0  0  0  0  0  0  0  0  0  0  0  0
  -29.7884  -22.7470   18.3150 O   0  0  0  0  0  0  0  0  0  0  0  0
  -23.0841  -11.7920   20.3649 O   0  0  0  0  0  0  0  0  0  0  0  0
  -28.3873  -29.5283   18.6336 O   0  0  0  0  0  0  0  0  0  1  0  0
  -22.8095   -6.6486   22.3332 F   0  0  0  0  0  0  0  0  0  0  0  0
  -21.4223  -11.1717   22.4853 F   0  0  0  0  0  0  0  0  0  0  0  0
  1  2  1  0  0  0  0
  1  5  2  0  0  0  0
  2  6  2  0  0  0  0
  3  8  2  0  0  0  0
  3 16  1  0  0  0  0
  4  9  1  0  0  0  0
  4 16  2  0  0  0  0
  5 18  1  0  0  0  0
  6 20  1  0  0  0  0
  7 10  2  0  0  0  0
  7 19  1  0  0  0  0
  8 23  1  0  0  0  0
  9 23  2  0  0  0  0
 10 24  1  0  0  0  0
 11 12  2  0  0  0  0
 11 25  1  0  0  0  0
 12 26  1  0  0  0  0
 13 21  1  0  0  0  0
 13 24  2  0  0  0  0
 14 22  1  0  0  0  0
 14 30  2  0  0  0  0
 15 26  2  0  0  0  0
 15 27  1  0  0  0  0
 16 28  1  0  0  0  0
 17 28  1  0  0  0  0
 17 29  2  0  0  0  0
 17 32  1  0  0  0  0
 18 20  2  0  0  0  0
 18 39  1  0  0  0  0
 19 21  2  0  0  0  0
 19 40  1  0  0  0  0
 20 48  1  0  0  0  0
 21 41  1  0  0  0  0
 22 31  2  0  0  0  0
 22 51  1  0  0  0  0
 23 83  1  0  0  0  0
 24 84  1  0  0  0  0
 25 27  2  0  0  0  0
 25 83  1  0  0  0  0
 26 85  1  0  0  0  0
 27 86  1  0  0  0  0
 28 64  2  0  0  0  0
 29 65  1  0  0  0  0
 29 68  1  0  0  0  0
 30 71  1  0  0  0  0
 30 82  1  0  0  0  0
 31 70  1  0  0  0  0
 31 82  1  0  0  0  0
 32 69  1  0  0  0  0
 32 75  2  0  0  0  0
 33 34  1  0  0  0  0
 33 59  1  0  0  0  0
 33 76  2  0  0  0  0
 34 70  1  0  0  0  0
 34 77  2  0  0  0  0
 35 49  1  0  0  0  0
 35 72  1  0  0  0  0
 35 78  2  0  0  0  0
 36 60  1  0  0  0  0
 36 66  1  0  0  0  0
 36 79  2  0  0  0  0
 37 61  1  0  0  0  0
 37 73  1  0  0  0  0
 37 80  2  0  0  0  0
 38 67  1  0  0  0  0
 38 71  1  0  0  0  0
 38 81  2  0  0  0  0
 39 42  1  0  0  0  0
 40 49  1  0  0  0  0
 41 66  1  0  0  0  0
 42 44  1  0  0  0  0
 43 45  1  0  0  0  0
 43 46  1  0  0  0  0
 44 48  1  0  0  0  0
 45 50  1  0  0  0  0
 46 67  1  0  0  0  0
 47 50  1  0  0  0  0
 47 67  1  0  0  0  0
 48 72  1  0  0  0  0
 49 66  1  0  0  0  0
 50 65  1  0  0  0  0
 52 61  1  0  0  0  0
 53 62  1  0  0  0  0
 54 62  1  0  0  0  0
 55 62  1  0  0  0  0
 56 63  1  0  0  0  0
 57 63  1  0  0  0  0
 58 74  1  0  0  0  0
 59 63  1  0  0  0  0
 60 62  1  0  0  0  0
 60 73  1  0  0  0  0
 61 74  1  0  0  0  0
 63 84  1  0  0  0  0
 64 65  1  0  0  0  0
M  CHG  1  74   1
M  ISO  4  38 100  63 101  71 100  84 101
M  END
> <Batch ID>
0172

> <Smiles>
CNC(C)C(=O)NC(C(=O)N1Cc2cc([101O:1][101C:1](C)(C)CC(=O)C(=O)Nc3oc([100NH:0][100C:0](=O)N4CCCC(n5nc(-c6ccc(Oc7ccc(F)cc7F)cc6)c(C(N)=O)c5N)C4)cc3C)ccc2CC1C(=O)NC1CCCc2ccccc21)C(C)(C)C

> <Shape>
0.266

> <Color>
0.087

> <Negative vol penalty>
0.000

$$$$

  -OEChem-04052304263D

 86 94  0     1  0  0  0  0  0999 V2000
  -24.9395  -37.2907   18.5870 C   0  0  0  0  0  0  0  0  0  0  0  0
  -25.6262  -36.1079   18.3323 C   0  0  0  0  0  0  0  0  0  0  0  0
  -23.6074   -9.0238   20.2769 C   0  0  0  0  0  0  0  0  0  0  0  0
  -22.9650  -10.8417   21.7328 C   0  0  0  0  0  0  0  0  0  0  0  0
  -24.4435  -37.5461   19.8648 C   0  0  0  0  0  0  0  0  0  0  0  0
  -25.8183  -35.1803   19.3555 C   0  0  0  0  0  0  0  0  0  0  0  0
  -25.9173  -29.0800   18.8237 C   0  0  0  0  0  0  0  0  0  0  0  0
  -30.3626  -19.8146   20.3281 C   0  0  0  0  0  0  0  0  0  0  0  0
  -30.2696  -18.4235   20.2876 C   0  0  0  0  0  0  0  0  0  0  0  0
  -22.7392   -8.1711   20.9584 C   0  0  0  0  0  0  0  0  0  0  0  0
  -22.0966   -9.9890   22.4143 C   0  0  0  0  0  0  0  0  0  0  0  0
  -26.9637  -28.1633   18.7323 C   0  0  0  0  0  0  0  0  0  0  0  0
  -20.9580   -5.4265   22.5454 C   0  0  0  0  0  0  0  0  0  0  0  0
  -21.4273   -4.1582   22.8867 C   0  0  0  0  0  0  0  0  0  0  0  0
  -28.3190  -19.9884   19.0512 C   0  0  0  0  0  0  0  0  0  0  0  0
  -26.8203  -27.7720   21.1084 C   0  0  0  0  0  0  0  0  0  0  0  0
  -23.1883   -5.1634   24.2004 C   0  0  0  0  0  0  0  0  0  0  0  0
  -23.7204  -10.3591   20.6641 C   0  0  0  0  0  0  0  0  0  0  0  0
  -28.2260  -18.5973   19.0106 C   0  0  0  0  0  0  0  0  0  0  0  0
  -24.3214  -12.0355   18.8375 C   0  0  0  0  0  0  0  0  0  0  0  0
  -24.6213  -36.6168   20.9018 C   0  0  0  0  0  0  0  0  0  0  0  0
  -25.3207  -29.3582   20.0619 C   0  0  0  0  0  0  0  0  0  0  0  0
  -25.3255  -35.4241   20.6487 C   0  0  0  0  0  0  0  0  0  0  0  0
  -25.7647  -28.6908   21.2123 C   0  0  0  0  0  0  0  0  0  0  0  0
  -29.3872  -20.5971   19.7100 C   0  0  0  0  0  0  0  0  0  0  0  0
  -29.2014  -17.8148   19.6289 C   0  0  0  0  0  0  0  0  0  0  0  0
  -21.9837   -8.6536   22.0271 C   0  0  0  0  0  0  0  0  0  0  0  0
  -27.4173  -27.5113   19.8752 C   0  0  0  0  0  0  0  0  0  0  0  0
  -21.6038   -6.5634   23.0314 C   0  0  0  0  0  0  0  0  0  0  0  0
  -22.5425   -4.0266   23.7143 C   0  0  0  0  0  0  0  0  0  0  0  0
  -22.7189   -6.4318   23.8590 C   0  0  0  0  0  0  0  0  0  0  0  0
  -24.6176  -11.2404   19.9608 C   0  0  0  0  0  0  0  0  0  0  0  0
  -25.5000  -12.6809   18.5532 C   0  0  0  0  0  0  0  0  0  0  0  0
  -28.1286  -25.3060   19.5568 C   0  0  0  0  0  0  0  0  0  1  0  0
  -27.0988  -17.9923   18.3119 C   0  0  0  0  0  0  0  0  0  0  0  0
  -23.0908  -12.1781   18.1157 C   0  0  0  0  0  0  0  0  0  0  0  0
  -29.0522  -24.3427   19.4536 C   0  0  0  0  0  0  0  0  0  0  0  0
  -28.6083  -22.9338   19.1964 C   0  0  0  0  0  0  0  0  0  0  0  0
  -25.0199  -31.9519   21.8747 C   0  0  0  0  0  0  0  0  0  0  0  0
  -23.1427  -30.0058   23.6667 C   0  0  0  0  0  0  0  0  0  0  0  0
  -22.3198  -26.8272   24.5972 C   0  0  0  0  0  0  0  0  0  0  0  0
  -30.0245  -15.4958   20.1683 C   0  0  0  0  0  0  0  0  0  0  0  0
  -24.1083  -36.9582   22.2784 C   0  0  0  0  0  0  0  0  0  0  0  0
  -24.1751  -30.3298   20.1393 C   0  0  0  0  0  0  0  0  0  0  0  0
  -25.1445  -28.9389   22.5622 C   0  0  0  0  0  0  0  0  0  0  0  0
  -24.0284  -35.7550   23.2144 C   0  0  0  0  0  0  0  0  0  0  0  0
  -30.1753  -11.9430   20.3472 C   0  0  0  0  0  0  0  0  0  0  0  0
  -25.3122  -34.9345   23.1399 C   0  0  0  0  0  0  0  0  0  0  0  0
  -28.7185  -11.5089   20.1702 C   0  0  0  0  0  0  0  0  0  0  0  0
  -30.2884  -13.2322   21.1589 C   0  0  0  0  0  0  0  0  0  0  0  0
  -28.0193  -13.9167   20.4868 C   0  0  0  0  0  0  0  0  0  0  0  0
  -25.5325  -34.3821   21.7264 C   0  0  1  0  0  0  0  0  0  0  0  0
  -23.9840  -30.9183   21.5338 C   0  0  1  0  0  0  0  0  0  0  0  0
  -27.8509  -12.6580   19.6203 C   0  0  2  0  0  0  0  0  0  0  0  0
  -25.8122  -18.7620   18.2814 C   0  0  0  0  0  0  0  0  0  0  0  0
  -20.7710  -25.5553   26.1075 C   0  0  0  0  0  0  0  0  0  0  0  0
  -24.8694  -30.7584   26.0671 C   0  0  0  0  0  0  0  0  0  0  0  0
  -23.9119  -28.7913   27.2844 C   0  0  0  0  0  0  0  0  0  0  0  0
  -22.4166  -30.6445   26.5413 C   0  0  0  0  0  0  0  0  0  0  0  0
  -21.0505  -25.4345   22.3149 C   0  0  0  0  0  0  0  0  0  0  0  0
  -23.3765  -29.0606   24.8203 C   0  0  1  0  0  0  0  0  0  0  0  0
  -20.9778  -26.1272   24.7136 C   0  0  2  0  0  0  0  0  0  0  0  0
  -23.6568  -29.8102   26.1533 C   0  0  0  0  0  0  0  0  0  0  0  0
  -25.8851  -11.3672   20.3625 N   0  0  0  0  0  0  0  0  0  0  0  0
  -26.3957  -12.2496   19.4869 N   0  0  0  0  0  0  0  0  0  0  0  0
  -24.0316  -29.9024   22.5874 N   0  0  0  0  0  0  0  0  0  0  0  0
  -29.4430  -14.2768   20.5768 N   0  0  0  0  0  0  0  0  0  0  0  0
  -25.8472  -13.5695   17.5981 N   0  0  0  0  0  0  0  0  0  0  0  0
  -21.9769  -11.4420   18.5421 N   0  0  0  0  0  0  0  0  0  0  0  0
  -29.4826  -22.0091   19.7509 N   0  0  0  0  0  0  0  0  0  0  0  0
  -29.1282  -16.4000   19.5994 N   0  0  0  0  0  0  0  0  0  0  0  0
  -24.6804  -33.2359   21.4932 N   0  0  0  0  0  0  0  0  0  0  0  0
  -22.2172  -28.1760   24.8646 N   0  0  0  0  0  0  0  0  0  0  0  0
  -20.8884  -25.0114   23.7298 N   0  3  0  0  0  0  0  0  0  0  0  0
  -27.1251  -16.8969   17.7510 O   0  0  0  0  0  0  0  0  0  0  0  0
  -22.9865  -12.9234   17.1121 O   0  0  0  0  0  0  0  0  0  0  0  0
  -27.5837  -22.7016   18.5637 O   0  0  0  0  0  0  0  0  0  0  0  0
  -26.0503  -31.6100   22.4431 O   0  0  0  0  0  0  0  0  0  0  0  0
  -22.2016  -30.8016   23.7182 O   0  0  0  0  0  0  0  0  0  0  0  0
  -23.3561  -26.2359   24.3024 O   0  0  0  0  0  0  0  0  0  0  0  0
  -31.2335  -15.7102   20.2876 O   0  0  0  0  0  0  0  0  0  0  0  0
  -30.4038  -24.5945   19.5735 O   0  0  0  0  0  0  0  0  0  0  0  0
  -21.1362   -7.8219   22.6922 O   0  0  0  0  0  0  0  0  0  0  0  0
  -28.4389  -26.6165   19.7890 O   0  0  0  0  0  0  0  0  0  1  0  0
  -22.9921   -2.8085   24.0433 F   0  0  0  0  0  0  0  0  0  0  0  0
  -23.3428   -7.5202   24.3300 F   0  0  0  0  0  0  0  0  0  0  0  0
  1  2  1  0  0  0  0
  1  5  2  0  0  0  0
  2  6  2  0  0  0  0
  3 10  2  0  0  0  0
  3 18  1  0  0  0  0
  4 11  1  0  0  0  0
  4 18  2  0  0  0  0
  5 21  1  0  0  0  0
  6 23  1  0  0  0  0
  7 12  2  0  0  0  0
  7 22  1  0  0  0  0
  8  9  2  0  0  0  0
  8 25  1  0  0  0  0
  9 26  1  0  0  0  0
 10 27  1  0  0  0  0
 11 27  2  0  0  0  0
 12 28  1  0  0  0  0
 13 14  2  0  0  0  0
 13 29  1  0  0  0  0
 14 30  1  0  0  0  0
 15 19  1  0  0  0  0
 15 25  2  0  0  0  0
 16 24  1  0  0  0  0
 16 28  2  0  0  0  0
 17 30  2  0  0  0  0
 17 31  1  0  0  0  0
 18 32  1  0  0  0  0
 19 26  2  0  0  0  0
 19 35  1  0  0  0  0
 20 32  1  0  0  0  0
 20 33  2  0  0  0  0
 20 36  1  0  0  0  0
 21 23  2  0  0  0  0
 21 43  1  0  0  0  0
 22 24  2  0  0  0  0
 22 44  1  0  0  0  0
 23 52  1  0  0  0  0
 24 45  1  0  0  0  0
 25 70  1  0  0  0  0
 26 71  1  0  0  0  0
 27 83  1  0  0  0  0
 28 84  1  0  0  0  0
 29 31  2  0  0  0  0
 29 83  1  0  0  0  0
 30 85  1  0  0  0  0
 31 86  1  0  0  0  0
 32 64  2  0  0  0  0
 33 65  1  0  0  0  0
 33 68  1  0  0  0  0
 34 37  2  0  0  0  0
 34 84  1  0  0  0  0
 35 55  1  0  0  0  0
 35 75  2  0  0  0  0
 36 69  1  0  0  0  0
 36 76  2  0  0  0  0
 37 38  1  0  0  0  0
 37 82  1  0  0  0  0
 38 70  1  0  0  0  0
 38 77  2  0  0  0  0
 39 53  1  0  0  0  0
 39 72  1  0  0  0  0
 39 78  2  0  0  0  0
 40 61  1  0  0  0  0
 40 66  1  0  0  0  0
 40 79  2  0  0  0  0
 41 62  1  0  0  0  0
 41 73  1  0  0  0  0
 41 80  2  0  0  0  0
 42 67  1  0  0  0  0
 42 71  1  0  0  0  0
 42 81  2  0  0  0  0
 43 46  1  0  0  0  0
 44 53  1  0  0  0  0
 45 66  1  0  0  0  0
 46 48  1  0  0  0  0
 47 49  1  0  0  0  0
 47 50  1  0  0  0  0
 48 52  1  0  0  0  0
 49 54  1  0  0  0  0
 50 67  1  0  0  0  0
 51 54  1  0  0  0  0
 51 67  1  0  0  0  0
 52 72  1  0  0  0  0
 53 66  1  0  0  0  0
 54 65  1  0  0  0  0
 56 62  1  0  0  0  0
 57 63  1  0  0  0  0
 58 63  1  0  0  0  0
 59 63  1  0  0  0  0
 60 74  1  0  0  0  0
 61 63  1  0  0  0  0
 61 73  1  0  0  0  0
 62 74  1  0  0  0  0
 64 65  1  0  0  0  0
M  CHG  1  74   1
M  ISO  4  34 101  42 100  71 100  84 101
M  END
> <Batch ID>
0172

> <Smiles>
CNC(C)C(=O)NC(C(=O)N1Cc2cc([101O:1][101CH2:1]C(=O)C(=O)Nc3ccc([100NH:0][100C:0](=O)N4CCCC(n5nc(-c6ccc(Oc7ccc(F)cc7F)cc6)c(C(N)=O)c5N)C4)c(C(C)=O)c3)ccc2CC1C(=O)NC1CCCc2ccccc21)C(C)(C)C

> <Shape>
0.301

> <Color>
0.117

> <Negative vol penalty>
0.000

$$$$

  -OEChem-04052304263D

 93101  0     1  0  0  0  0  0999 V2000
  -20.5807  -24.2161   24.0032 C   0  0  0  0  0  0  0  0  0  0  0  0
  -21.7642  -24.6830   23.4427 C   0  0  0  0  0  0  0  0  0  0  0  0
  -25.5894  -14.7103   24.1706 C   0  0  0  0  0  0  0  0  0  0  0  0
  -25.3614  -16.8709   23.1138 C   0  0  0  0  0  0  0  0  0  0  0  0
  -19.4189  -24.9788   23.9049 C   0  0  0  0  0  0  0  0  0  0  0  0
  -21.7892  -25.9182   22.7941 C   0  0  0  0  0  0  0  0  0  0  0  0
  -26.1834  -27.5985   21.3550 C   0  0  0  0  0  0  0  0  0  0  0  0
  -25.5949  -15.3235   25.4233 C   0  0  0  0  0  0  0  0  0  0  0  0
  -25.3668  -17.4842   24.3666 C   0  0  0  0  0  0  0  0  0  0  0  0
  -26.8885  -27.0462   20.2866 C   0  0  0  0  0  0  0  0  0  0  0  0
  -25.6823  -19.6498   27.2683 C   0  0  0  0  0  0  0  0  0  0  0  0
  -26.4703  -20.7895   27.4288 C   0  0  0  0  0  0  0  0  0  0  0  0
  -26.2428  -28.9138   18.9029 C   0  0  0  0  0  0  0  0  0  0  0  0
  -30.1753  -19.8637   22.9126 C   0  0  0  0  0  0  0  0  0  0  0  0
  -29.5263  -18.9609   20.7677 C   0  0  0  0  0  0  0  0  0  0  0  0
  -30.5428  -17.5262   22.4247 C   0  0  0  0  0  0  0  0  0  0  0  0
  -28.4383  -19.5091   26.8592 C   0  0  0  0  0  0  0  0  0  0  0  0
  -25.4728  -15.4839   23.0158 C   0  0  0  0  0  0  0  0  0  0  0  0
  -24.3476  -14.3840   21.0079 C   0  0  0  0  0  0  0  0  0  0  0  0
  -19.4277  -26.2181   23.2437 C   0  0  0  0  0  0  0  0  0  0  0  0
  -25.4924  -28.8092   21.2020 C   0  0  0  0  0  0  0  0  0  0  0  0
  -20.6325  -26.7137   22.7052 C   0  0  0  0  0  0  0  0  0  0  0  0
  -25.5318  -29.4806   19.9716 C   0  0  0  0  0  0  0  0  0  0  0  0
  -29.6201  -20.0410   21.6453 C   0  0  0  0  0  0  0  0  0  0  0  0
  -30.6367  -18.6063   23.3023 C   0  0  0  0  0  0  0  0  0  0  0  0
  -29.9876  -17.7034   21.1574 C   0  0  0  0  0  0  0  0  0  0  0  0
  -25.4836  -16.7105   25.5214 C   0  0  0  0  0  0  0  0  0  0  0  0
  -26.9159  -27.7024   19.0595 C   0  0  0  0  0  0  0  0  0  0  0  0
  -26.2724  -18.4397   26.9033 C   0  0  0  0  0  0  0  0  0  0  0  0
  -27.8483  -20.7192   27.2242 C   0  0  0  0  0  0  0  0  0  0  0  0
  -27.6503  -18.3694   26.6987 C   0  0  0  0  0  0  0  0  0  0  0  0
  -25.4676  -14.8510   21.7214 C   0  0  0  0  0  0  0  0  0  0  0  0
  -24.8700  -13.8716   19.8456 C   0  0  0  0  0  0  0  0  0  0  0  0
  -29.6401  -23.4296   19.8451 C   0  0  0  0  0  0  0  0  0  0  0  0
  -22.9589  -14.4111   21.3638 C   0  0  0  0  0  0  0  0  0  0  0  0
  -22.4469  -29.6954   21.4089 C   0  0  0  0  0  0  0  0  0  0  0  0
  -28.9420  -25.2980   18.7408 C   0  0  0  0  0  0  0  0  0  0  0  0
  -23.6898  -32.6658   21.0157 C   0  0  0  0  0  0  0  0  0  0  0  0
  -26.2478  -34.6063   19.8591 C   0  0  0  0  0  0  0  0  0  0  0  0
  -26.8899  -22.4990   21.2354 C   0  0  0  0  0  0  0  0  0  0  0  0
  -30.3020  -15.2932   20.4960 C   0  0  0  0  0  0  0  0  0  0  0  0
  -18.1434  -27.0061   23.1734 C   0  0  0  0  0  0  0  0  0  0  0  0
  -24.7586  -29.4051   22.3719 C   0  0  0  0  0  0  0  0  0  0  0  0
  -24.8234  -30.7930   19.7615 C   0  0  0  0  0  0  0  0  0  0  0  0
  -18.1642  -28.0815   22.0921 C   0  0  0  0  0  0  0  0  0  0  0  0
  -28.7090  -12.0065   20.1760 C   0  0  0  0  0  0  0  0  0  0  0  0
  -19.4354  -28.9094   22.2068 C   0  0  0  0  0  0  0  0  0  0  0  0
  -27.6900  -12.1933   19.0588 C   0  0  0  0  0  0  0  0  0  0  0  0
  -29.9172  -12.9062   19.9646 C   0  0  0  0  0  0  0  0  0  0  0  0
  -28.4947  -14.5986   18.8109 C   0  0  0  0  0  0  0  0  0  0  0  0
  -20.6766  -28.0402   21.9684 C   0  0  1  0  0  0  0  0  0  0  0  0
  -23.6652  -30.3842   21.9556 C   0  0  1  0  0  0  0  0  0  0  0  0
  -27.2698  -13.6623   18.8985 C   0  0  2  0  0  0  0  0  0  0  0  0
  -27.7888  -25.3208   16.5102 C   0  0  0  0  0  0  0  0  0  0  0  0
  -26.9619  -37.0025   19.6463 C   0  0  0  0  0  0  0  0  0  0  0  0
  -24.8520  -21.1502   21.8662 C   0  0  0  0  0  0  0  0  0  0  0  0
  -24.6083  -23.5579   21.2498 C   0  0  0  0  0  0  0  0  0  0  0  0
  -25.1813  -21.8903   19.4811 C   0  0  0  0  0  0  0  0  0  0  0  0
  -21.7415  -33.0380   18.6972 C   0  0  0  0  0  0  0  0  0  0  0  0
  -23.1154  -34.9923   17.9478 C   0  0  0  0  0  0  0  0  0  0  0  0
  -21.9965  -35.0380   20.1769 C   0  0  0  0  0  0  0  0  0  0  0  0
  -28.6503  -34.1596   21.5286 C   0  0  0  0  0  0  0  0  0  0  0  0
  -29.8310  -21.9406   19.9715 C   0  0  0  0  0  0  0  0  0  0  0  0
  -29.1187  -21.4077   21.2220 C   0  0  1  0  0  0  0  0  0  0  0  0
  -27.7059  -25.7427   17.9680 C   0  0  2  0  0  0  0  0  0  1  0  0
  -24.0062  -33.5439   19.8292 C   0  0  1  0  0  0  0  0  0  0  0  0
  -27.0174  -35.7462   20.5015 C   0  0  2  0  0  0  0  0  0  0  0  0
  -25.3903  -22.2648   20.9562 C   0  0  0  0  0  0  0  0  0  0  0  0
  -22.7267  -34.1273   19.1658 C   0  0  0  0  0  0  0  0  0  0  0  0
  -26.6151  -14.6527   21.0672 N   0  0  0  0  0  0  0  0  0  0  0  0
  -29.0576  -23.9255   18.8050 N   0  0  0  0  0  0  0  0  0  0  0  0
  -26.2188  -14.0553   19.9304 N   0  0  0  0  0  0  0  0  0  0  0  0
  -24.1144  -31.3321   20.9338 N   0  0  0  0  0  0  0  0  0  0  0  0
  -29.5457  -14.3141   19.8053 N   0  0  0  0  0  0  0  0  0  0  0  0
  -31.1982  -18.4274   24.5840 N   0  0  0  0  0  0  0  0  0  0  0  0
  -24.3027  -13.2862   18.7695 N   0  0  0  0  0  0  0  0  0  0  0  0
  -22.5956  -14.9740   22.5949 N   0  0  0  0  0  0  0  0  0  0  0  0
  -29.8917  -16.6065   20.2657 N   0  0  0  0  0  0  0  0  0  0  0  0
  -21.8594  -28.8078   22.2901 N   0  0  0  0  0  0  0  0  0  0  0  0
  -27.6872  -21.3860   21.0184 N   0  0  0  0  0  0  0  0  0  0  0  0
  -24.9448  -34.5532   20.3072 N   0  0  0  0  0  0  0  0  0  0  0  0
  -28.4465  -35.3666   20.6869 N   0  3  0  0  0  0  0  0  0  0  0  0
  -22.0683  -13.9349   20.6198 O   0  0  0  0  0  0  0  0  0  0  0  0
  -22.0670  -29.9514   20.2723 O   0  0  0  0  0  0  0  0  0  0  0  0
  -29.6996  -26.1128   19.2647 O   0  0  0  0  0  0  0  0  0  0  0  0
  -23.0943  -33.1473   21.9828 O   0  0  0  0  0  0  0  0  0  0  0  0
  -26.7510  -33.8418   19.0388 O   0  0  0  0  0  0  0  0  0  0  0  0
  -27.3249  -23.5867   21.6147 O   0  0  0  0  0  0  0  0  0  0  0  0
  -31.2543  -14.9896   21.2192 O   0  0  0  0  0  0  0  0  0  0  0  0
  -25.4886  -17.3093   26.7436 O   0  0  0  0  0  0  0  0  0  0  0  0
  -27.6029  -27.1652   18.0148 O   0  0  0  0  0  0  0  0  0  1  0  0
  -28.6046  -21.8141   27.3768 F   0  0  0  0  0  0  0  0  0  0  0  0
  -28.2227  -17.2099   26.3468 F   0  0  0  0  0  0  0  0  0  0  0  0
  1  2  1  0  0  0  0
  1  5  2  0  0  0  0
  2  6  2  0  0  0  0
  3  8  2  0  0  0  0
  3 18  1  0  0  0  0
  4  9  1  0  0  0  0
  4 18  2  0  0  0  0
  5 20  1  0  0  0  0
  6 22  1  0  0  0  0
  7 10  2  0  0  0  0
  7 21  1  0  0  0  0
  8 27  1  0  0  0  0
  9 27  2  0  0  0  0
 10 28  1  0  0  0  0
 11 12  2  0  0  0  0
 11 29  1  0  0  0  0
 12 30  1  0  0  0  0
 13 23  1  0  0  0  0
 13 28  2  0  0  0  0
 14 24  1  0  0  0  0
 14 25  2  0  0  0  0
 15 24  2  0  0  0  0
 15 26  1  0  0  0  0
 16 25  1  0  0  0  0
 16 26  2  0  0  0  0
 17 30  2  0  0  0  0
 17 31  1  0  0  0  0
 18 32  1  0  0  0  0
 19 32  1  0  0  0  0
 19 33  2  0  0  0  0
 19 35  1  0  0  0  0
 20 22  2  0  0  0  0
 20 42  1  0  0  0  0
 21 23  2  0  0  0  0
 21 43  1  0  0  0  0
 22 51  1  0  0  0  0
 23 44  1  0  0  0  0
 24 64  1  0  0  0  0
 25 75  1  0  0  0  0
 26 78  1  0  0  0  0
 27 90  1  0  0  0  0
 28 91  1  0  0  0  0
 29 31  2  0  0  0  0
 29 90  1  0  0  0  0
 30 92  1  0  0  0  0
 31 93  1  0  0  0  0
 32 70  2  0  0  0  0
 33 72  1  0  0  0  0
 33 76  1  0  0  0  0
 34 63  1  0  0  0  0
 34 71  2  0  0  0  0
 35 77  1  0  0  0  0
 35 83  2  0  0  0  0
 36 52  1  0  0  0  0
 36 79  1  0  0  0  0
 36 84  2  0  0  0  0
 37 65  1  0  0  0  0
 37 71  1  0  0  0  0
 37 85  2  0  0  0  0
 38 66  1  0  0  0  0
 38 73  1  0  0  0  0
 38 86  2  0  0  0  0
 39 67  1  0  0  0  0
 39 81  1  0  0  0  0
 39 87  2  0  0  0  0
 40 68  1  0  0  0  0
 40 80  1  0  0  0  0
 40 88  2  0  0  0  0
 41 74  1  0  0  0  0
 41 78  1  0  0  0  0
 41 89  2  0  0  0  0
 42 45  1  0  0  0  0
 43 52  1  0  0  0  0
 44 73  1  0  0  0  0
 45 47  1  0  0  0  0
 46 48  1  0  0  0  0
 46 49  1  0  0  0  0
 47 51  1  0  0  0  0
 48 53  1  0  0  0  0
 49 74  1  0  0  0  0
 50 53  1  0  0  0  0
 50 74  1  0  0  0  0
 51 79  1  0  0  0  0
 52 73  1  0  0  0  0
 53 72  1  0  0  0  0
 54 65  1  0  0  0  0
 55 67  1  0  0  0  0
 56 68  1  0  0  0  0
 57 68  1  0  0  0  0
 58 68  1  0  0  0  0
 59 69  1  0  0  0  0
 60 69  1  0  0  0  0
 61 69  1  0  0  0  0
 62 82  1  0  0  0  0
 63 64  1  0  0  0  0
 64 80  1  0  0  0  0
 65 91  1  0  0  0  0
 66 69  1  0  0  0  0
 66 81  1  0  0  0  0
 67 82  1  0  0  0  0
 70 72  1  0  0  0  0
M  CHG  1  82   1
M  ISO  4  41 100  65 101  78 100  91 101
M  END
> <Batch ID>
0172

> <Smiles>
CNC(C)C(=O)NC(C(=O)N1Cc2cc([101O:1][101CH:1](C)C(=O)NC=CC(NC(=O)C(C)(C)C)c3cc(N)cc([100NH:0][100C:0](=O)N4CCCC(n5nc(-c6ccc(Oc7ccc(F)cc7F)cc6)c(C(N)=O)c5N)C4)c3)ccc2CC1C(=O)NC1CCCc2ccccc21)C(C)(C)C

> <Shape>
0.248

> <Color>
0.103

> <Negative vol penalty>
0.000

$$$$

  -OEChem-04052304263D

 86 94  0     1  0  0  0  0  0999 V2000
  -27.6819  -37.0491   21.5844 C   0  0  0  0  0  0  0  0  0  0  0  0
  -28.0633  -35.7136   21.6632 C   0  0  0  0  0  0  0  0  0  0  0  0
  -23.2776  -10.3256   22.1568 C   0  0  0  0  0  0  0  0  0  0  0  0
  -22.7818  -12.4516   21.1217 C   0  0  0  0  0  0  0  0  0  0  0  0
  -30.9484  -18.6560   19.6183 C   0  0  0  0  0  0  0  0  0  0  0  0
  -26.4285  -37.4437   22.0506 C   0  0  0  0  0  0  0  0  0  0  0  0
  -27.1918  -34.7719   22.2093 C   0  0  0  0  0  0  0  0  0  0  0  0
  -26.9435  -30.5286   19.4565 C   0  0  0  0  0  0  0  0  0  0  0  0
  -30.8128  -17.2694   19.6851 C   0  0  0  0  0  0  0  0  0  0  0  0
  -22.2041  -10.5004   23.0300 C   0  0  0  0  0  0  0  0  0  0  0  0
  -21.7081  -12.6263   21.9948 C   0  0  0  0  0  0  0  0  0  0  0  0
  -27.9943  -29.6218   19.5881 C   0  0  0  0  0  0  0  0  0  0  0  0
  -21.2374  -13.5721   25.2065 C   0  0  0  0  0  0  0  0  0  0  0  0
  -21.0883  -14.8215   25.8084 C   0  0  0  0  0  0  0  0  0  0  0  0
  -26.6499  -28.2902   21.0842 C   0  0  0  0  0  0  0  0  0  0  0  0
  -18.9088  -15.0513   24.7914 C   0  0  0  0  0  0  0  0  0  0  0  0
  -23.5666  -11.3013   21.2027 C   0  0  0  0  0  0  0  0  0  0  0  0
  -29.9533  -19.4260   19.0161 C   0  0  0  0  0  0  0  0  0  0  0  0
  -24.6523  -10.5012   19.0373 C   0  0  0  0  0  0  0  0  0  0  0  0
  -25.5375  -36.5047   22.5938 C   0  0  0  0  0  0  0  0  0  0  0  0
  -25.7398  -30.3283   20.1475 C   0  0  0  0  0  0  0  0  0  0  0  0
  -25.9259  -35.1544   22.6844 C   0  0  0  0  0  0  0  0  0  0  0  0
  -25.5844  -29.1945   20.9577 C   0  0  0  0  0  0  0  0  0  0  0  0
  -29.6821  -16.6527   19.1496 C   0  0  0  0  0  0  0  0  0  0  0  0
  -28.8226  -18.8092   18.4806 C   0  0  0  0  0  0  0  0  0  0  0  0
  -21.4193  -11.6507   22.9490 C   0  0  0  0  0  0  0  0  0  0  0  0
  -27.8487  -28.5040   20.4043 C   0  0  0  0  0  0  0  0  0  0  0  0
  -20.2222  -13.0623   24.3970 C   0  0  0  0  0  0  0  0  0  0  0  0
  -19.9240  -15.5611   25.6009 C   0  0  0  0  0  0  0  0  0  0  0  0
  -19.0579  -13.8019   24.1895 C   0  0  0  0  0  0  0  0  0  0  0  0
  -28.6870  -17.4226   18.5473 C   0  0  0  0  0  0  0  0  0  0  0  0
  -24.6758  -11.1217   20.3008 C   0  0  0  0  0  0  0  0  0  0  0  0
  -25.9478  -10.5860   18.5890 C   0  0  0  0  0  0  0  0  0  0  0  0
  -30.1323  -20.8874   18.9646 C   0  0  0  0  0  0  0  0  0  0  0  0
  -30.2865  -21.6801   20.0343 C   0  0  0  0  0  0  0  0  0  0  0  0
  -23.5573   -9.9019   18.3320 C   0  0  0  0  0  0  0  0  0  0  0  0
  -24.1324  -31.9396   22.3665 C   0  0  0  0  0  0  0  0  0  0  0  0
  -29.5755  -25.3243   20.2182 C   0  0  0  0  0  0  0  0  0  0  0  0
  -21.8935  -29.6496   21.8513 C   0  0  0  0  0  0  0  0  0  0  0  0
  -21.1739  -26.4901   20.7806 C   0  0  0  0  0  0  0  0  0  0  0  0
  -30.4436  -14.3365   19.7835 C   0  0  0  0  0  0  0  0  0  0  0  0
  -24.2120  -36.9865   23.1281 C   0  0  0  0  0  0  0  0  0  0  0  0
  -24.6063  -31.3017   19.9739 C   0  0  0  0  0  0  0  0  0  0  0  0
  -24.3052  -28.9231   21.7050 C   0  0  0  0  0  0  0  0  0  0  0  0
  -23.2005  -35.8648   23.3494 C   0  0  0  0  0  0  0  0  0  0  0  0
  -30.4572  -10.7990   20.1872 C   0  0  0  0  0  0  0  0  0  0  0  0
  -23.8531  -34.6931   24.0760 C   0  0  0  0  0  0  0  0  0  0  0  0
  -28.9744  -10.4231   20.1410 C   0  0  0  0  0  0  0  0  0  0  0  0
  -30.6828  -12.1303   20.9017 C   0  0  0  0  0  0  0  0  0  0  0  0
  -28.4019  -12.8762   20.3447 C   0  0  0  0  0  0  0  0  0  0  0  0
  -24.9988  -34.0992   23.2475 C   0  0  1  0  0  0  0  0  0  0  0  0
  -23.6089  -31.2693   21.1279 C   0  0  1  0  0  0  0  0  0  0  0  0
  -28.1184  -11.5744   19.5776 C   0  0  2  0  0  0  0  0  0  0  0  0
  -19.2607  -24.8880   20.5151 C   0  0  0  0  0  0  0  0  0  0  0  0
  -21.9189  -29.1251   24.8570 C   0  0  0  0  0  0  0  0  0  0  0  0
  -20.7557  -26.9521   24.4172 C   0  0  0  0  0  0  0  0  0  0  0  0
  -19.6463  -29.1033   23.8134 C   0  0  0  0  0  0  0  0  0  0  0  0
  -21.5576  -26.3363   17.8500 C   0  0  0  0  0  0  0  0  0  0  0  0
  -29.3582  -23.8487   20.4267 C   0  0  0  0  0  0  0  0  0  0  0  0
  -28.5261  -26.2568   20.7881 C   0  0  0  0  0  0  0  0  0  1  0  0
  -21.6028  -28.2881   22.4351 C   0  0  1  0  0  0  0  0  0  0  0  0
  -20.1010  -25.9636   19.8445 C   0  0  2  0  0  0  0  0  0  0  0  0
  -21.0058  -28.3730   23.8683 C   0  0  0  0  0  0  0  0  0  0  0  0
  -25.8900  -11.5675   20.6337 N   0  0  0  0  0  0  0  0  0  0  0  0
  -26.6415  -11.2268   19.5730 N   0  0  0  0  0  0  0  0  0  0  0  0
  -23.2282  -29.9074   21.5078 N   0  0  0  0  0  0  0  0  0  0  0  0
  -29.8424  -13.1744   20.3115 N   0  0  0  0  0  0  0  0  0  0  0  0
  -27.8008  -19.5678   17.8651 N   0  0  0  0  0  0  0  0  0  0  0  0
  -26.5498  -10.1742   17.4530 N   0  0  0  0  0  0  0  0  0  0  0  0
  -22.2932   -9.9009   18.9372 N   0  0  0  0  0  0  0  0  0  0  0  0
  -29.5474  -15.2438   19.2194 N   0  0  0  0  0  0  0  0  0  0  0  0
  -24.4758  -33.2659   22.1862 N   0  0  0  0  0  0  0  0  0  0  0  0
  -20.7473  -27.6048   21.4710 N   0  0  0  0  0  0  0  0  0  0  0  0
  -30.4581  -23.0712   19.8145 N   0  3  0  0  0  0  0  0  0  0  0  0
  -20.7213  -25.3809   18.6212 N   0  3  0  0  0  0  0  0  0  0  0  0
  -23.6992   -9.3681   17.2057 O   0  0  0  0  0  0  0  0  0  0  0  0
  -24.2172  -31.3011   23.4091 O   0  0  0  0  0  0  0  0  0  0  0  0
  -30.5516  -25.7395   19.5938 O   0  0  0  0  0  0  0  0  0  0  0  0
  -20.9692  -30.4521   21.6989 O   0  0  0  0  0  0  0  0  0  0  0  0
  -22.2786  -25.9628   20.8911 O   0  0  0  0  0  0  0  0  0  0  0  0
  -31.6660  -14.5013   19.8040 O   0  0  0  0  0  0  0  0  0  0  0  0
  -20.3714  -11.8214   23.8007 O   0  0  0  0  0  0  0  0  0  0  0  0
  -28.8730  -27.6177   20.5350 O   0  0  0  0  0  0  0  0  0  1  0  0
  -19.7803  -16.7603   26.1802 F   0  0  0  0  0  0  0  0  0  0  0  0
  -18.0787  -13.3168   23.4138 F   0  0  0  0  0  0  0  0  0  0  0  0
  -27.5994  -16.8283   18.0325 F   0  0  0  0  0  0  0  0  0  0  0  0
  1  2  1  0  0  0  0
  1  6  2  0  0  0  0
  2  7  2  0  0  0  0
  3 10  2  0  0  0  0
  3 17  1  0  0  0  0
  4 11  1  0  0  0  0
  4 17  2  0  0  0  0
  5  9  2  0  0  0  0
  5 18  1  0  0  0  0
  6 20  1  0  0  0  0
  7 22  1  0  0  0  0
  8 12  2  0  0  0  0
  8 21  1  0  0  0  0
  9 24  1  0  0  0  0
 10 26  1  0  0  0  0
 11 26  2  0  0  0  0
 12 27  1  0  0  0  0
 13 14  2  0  0  0  0
 13 28  1  0  0  0  0
 14 29  1  0  0  0  0
 15 23  1  0  0  0  0
 15 27  2  0  0  0  0
 16 29  2  0  0  0  0
 16 30  1  0  0  0  0
 17 32  1  0  0  0  0
 18 25  2  0  0  0  0
 18 34  1  0  0  0  0
 19 32  1  0  0  0  0
 19 33  2  0  0  0  0
 19 36  1  0  0  0  0
 20 22  2  0  0  0  0
 20 42  1  0  0  0  0
 21 23  2  0  0  0  0
 21 43  1  0  0  0  0
 22 51  1  0  0  0  0
 23 44  1  0  0  0  0
 24 31  2  0  0  0  0
 24 71  1  0  0  0  0
 25 31  1  0  0  0  0
 25 68  1  0  0  0  0
 26 82  1  0  0  0  0
 27 83  1  0  0  0  0
 28 30  2  0  0  0  0
 28 82  1  0  0  0  0
 29 84  1  0  0  0  0
 30 85  1  0  0  0  0
 31 86  1  0  0  0  0
 32 64  2  0  0  0  0
 33 65  1  0  0  0  0
 33 69  1  0  0  0  0
 34 35  2  0  0  0  0
 35 74  1  0  0  0  0
 36 70  1  0  0  0  0
 36 76  2  0  0  0  0
 37 52  1  0  0  0  0
 37 72  1  0  0  0  0
 37 77  2  0  0  0  0
 38 59  1  0  0  0  0
 38 60  1  0  0  0  0
 38 78  2  0  0  0  0
 39 61  1  0  0  0  0
 39 66  1  0  0  0  0
 39 79  2  0  0  0  0
 40 62  1  0  0  0  0
 40 73  1  0  0  0  0
 40 80  2  0  0  0  0
 41 67  1  0  0  0  0
 41 71  1  0  0  0  0
 41 81  2  0  0  0  0
 42 45  1  0  0  0  0
 43 52  1  0  0  0  0
 44 66  1  0  0  0  0
 45 47  1  0  0  0  0
 46 48  1  0  0  0  0
 46 49  1  0  0  0  0
 47 51  1  0  0  0  0
 48 53  1  0  0  0  0
 49 67  1  0  0  0  0
 50 53  1  0  0  0  0
 50 67  1  0  0  0  0
 51 72  1  0  0  0  0
 52 66  1  0  0  0  0
 53 65  1  0  0  0  0
 54 62  1  0  0  0  0
 55 63  1  0  0  0  0
 56 63  1  0  0  0  0
 57 63  1  0  0  0  0
 58 75  1  0  0  0  0
 59 74  1  0  0  0  0
 60 83  1  0  0  0  0
 61 63  1  0  0  0  0
 61 73  1  0  0  0  0
 62 75  1  0  0  0  0
 64 65  1  0  0  0  0
M  CHG  2  74   1  75   1
M  ISO  4  41 100  60 101  71 100  83 101
M  END
> <Batch ID>
0172

> <Smiles>
CNC(C)C(=O)NC(C(=O)N1Cc2cc([101O:1][101CH2:1]C(=O)CNC=Cc3ccc([100NH:0][100C:0](=O)N4CCCC(n5nc(-c6ccc(Oc7ccc(F)cc7F)cc6)c(C(N)=O)c5N)C4)c(F)c3N)ccc2CC1C(=O)NC1CCCc2ccccc21)C(C)(C)C

> <Shape>
0.300

> <Color>
0.084

> <Negative vol penalty>
0.000

$$$$

  -OEChem-04052304263D

 88 96  0     1  0  0  0  0  0999 V2000
  -36.7241  -25.7341   12.3223 C   0  0  0  0  0  0  0  0  0  0  0  0
  -37.1012  -24.8239   13.3045 C   0  0  0  0  0  0  0  0  0  0  0  0
  -23.0185   -9.9780   19.8383 C   0  0  0  0  0  0  0  0  0  0  0  0
  -23.8717   -9.7137   22.0832 C   0  0  0  0  0  0  0  0  0  0  0  0
  -35.9765  -26.8595   12.6665 C   0  0  0  0  0  0  0  0  0  0  0  0
  -36.7318  -25.0392   14.6318 C   0  0  0  0  0  0  0  0  0  0  0  0
  -35.2925  -20.7798   18.7901 C   0  0  0  0  0  0  0  0  0  0  0  0
  -22.2725   -8.8084   19.9842 C   0  0  0  0  0  0  0  0  0  0  0  0
  -23.1257   -8.5442   22.2291 C   0  0  0  0  0  0  0  0  0  0  0  0
  -36.0270  -20.1818   19.8132 C   0  0  0  0  0  0  0  0  0  0  0  0
  -19.3773   -7.8679   21.4561 C   0  0  0  0  0  0  0  0  0  0  0  0
  -18.0512   -7.8868   21.0241 C   0  0  0  0  0  0  0  0  0  0  0  0
  -35.1135  -21.7660   21.3865 C   0  0  0  0  0  0  0  0  0  0  0  0
  -32.1809  -16.3111   22.8280 C   0  0  0  0  0  0  0  0  0  0  0  0
  -30.6701  -17.8708   24.5795 C   0  0  0  0  0  0  0  0  0  0  0  0
  -18.5343   -6.1068   19.4636 C   0  0  0  0  0  0  0  0  0  0  0  0
  -23.8182  -10.4306   20.8878 C   0  0  0  0  0  0  0  0  0  0  0  0
  -24.1834  -12.9503   21.0465 C   0  0  0  0  0  0  0  0  0  0  0  0
  -35.5896  -27.0837   13.9971 C   0  0  0  0  0  0  0  0  0  0  0  0
  -34.4701  -21.8840   19.0559 C   0  0  0  0  0  0  0  0  0  0  0  0
  -35.9795  -26.1694   14.9943 C   0  0  0  0  0  0  0  0  0  0  0  0
  -34.3677  -22.3745   20.3655 C   0  0  0  0  0  0  0  0  0  0  0  0
  -32.8168  -17.0801   23.8026 C   0  0  0  0  0  0  0  0  0  0  0  0
  -30.7895  -16.3221   22.7291 C   0  0  0  0  0  0  0  0  0  0  0  0
  -32.0615  -17.8599   24.6784 C   0  0  0  0  0  0  0  0  0  0  0  0
  -22.3260   -8.0916   21.1796 C   0  0  0  0  0  0  0  0  0  0  0  0
  -35.9398  -20.6767   21.1111 C   0  0  0  0  0  0  0  0  0  0  0  0
  -20.2820   -6.9685   20.8918 C   0  0  0  0  0  0  0  0  0  0  0  0
  -17.6297   -7.0063   20.0279 C   0  0  0  0  0  0  0  0  0  0  0  0
  -30.0342  -17.1019   23.6049 C   0  0  0  0  0  0  0  0  0  0  0  0
  -19.8604   -6.0879   19.8956 C   0  0  0  0  0  0  0  0  0  0  0  0
  -24.5895  -11.6383   20.7375 C   0  0  0  0  0  0  0  0  0  0  0  0
  -25.2682  -13.7298   20.7269 C   0  0  0  0  0  0  0  0  0  0  0  0
  -22.9371  -13.4222   21.5754 C   0  0  0  0  0  0  0  0  0  0  0  0
  -34.3943  -24.9099   18.0852 C   0  0  0  0  0  0  0  0  0  0  0  0
  -37.0068  -18.0538   23.3640 C   0  0  0  0  0  0  0  0  0  0  0  0
  -31.6256  -24.9745   19.7741 C   0  0  0  0  0  0  0  0  0  0  0  0
  -29.7300  -23.6462   22.2818 C   0  0  0  0  0  0  0  0  0  0  0  0
  -35.1158  -16.3432   23.0777 C   0  0  0  0  0  0  0  0  0  0  0  0
  -30.7484  -14.7125   20.7916 C   0  0  0  0  0  0  0  0  0  0  0  0
  -34.8221  -28.3391   14.3282 C   0  0  0  0  0  0  0  0  0  0  0  0
  -33.6637  -22.5010   17.9462 C   0  0  0  0  0  0  0  0  0  0  0  0
  -33.4835  -23.5450   20.7070 C   0  0  0  0  0  0  0  0  0  0  0  0
  -34.1517  -28.2995   15.6991 C   0  0  0  0  0  0  0  0  0  0  0  0
  -29.5106  -12.5972   18.2089 C   0  0  0  0  0  0  0  0  0  0  0  0
  -35.1259  -27.7870   16.7551 C   0  0  0  0  0  0  0  0  0  0  0  0
  -28.0866  -12.2671   18.6619 C   0  0  0  0  0  0  0  0  0  0  0  0
  -30.4767  -12.6790   19.3894 C   0  0  0  0  0  0  0  0  0  0  0  0
  -28.6363  -13.2506   20.9241 C   0  0  0  0  0  0  0  0  0  0  0  0
  -35.5769  -26.3554   16.4412 C   0  0  1  0  0  0  0  0  0  0  0  0
  -33.2547  -23.9421   18.2347 C   0  0  1  0  0  0  0  0  0  0  0  0
  -27.6141  -13.2216   19.7761 C   0  0  2  0  0  0  0  0  0  0  0  0
  -27.5286  -23.9348   23.4515 C   0  0  0  0  0  0  0  0  0  0  0  0
  -36.7829  -16.0798   24.9274 C   0  0  0  0  0  0  0  0  0  0  0  0
  -37.5207  -15.7481   22.5735 C   0  0  0  0  0  0  0  0  0  0  0  0
  -32.7382  -27.3924   21.2660 C   0  0  0  0  0  0  0  0  0  0  0  0
  -30.9714  -27.0445   23.0054 C   0  0  0  0  0  0  0  0  0  0  0  0
  -30.3194  -27.5661   20.6548 C   0  0  0  0  0  0  0  0  0  0  0  0
  -28.8278  -20.9380   21.5002 C   0  0  0  0  0  0  0  0  0  0  0  0
  -36.9283  -18.6999   21.9892 C   0  0  0  0  0  0  0  0  0  1  0  0
  -31.2527  -25.2816   21.2043 C   0  0  1  0  0  0  0  0  0  0  0  0
  -28.2715  -23.2278   22.3285 C   0  0  2  0  0  0  0  0  0  0  0  0
  -36.5897  -16.5727   23.4800 C   0  0  0  0  0  0  0  0  0  0  0  0
  -31.3387  -26.8003   21.5262 C   0  0  0  0  0  0  0  0  0  0  0  0
  -25.8350  -11.5834   20.2582 N   0  0  0  0  0  0  0  0  0  0  0  0
  -26.2208  -12.8708   20.2636 N   0  0  0  0  0  0  0  0  0  0  0  0
  -32.7197  -24.1180   19.5864 N   0  0  0  0  0  0  0  0  0  0  0  0
  -29.9659  -13.6046   20.4029 N   0  0  0  0  0  0  0  0  0  0  0  0
  -32.6843  -18.6477   25.6722 N   0  0  0  0  0  0  0  0  0  0  0  0
  -25.4905  -15.0593   20.7997 N   0  0  0  0  0  0  0  0  0  0  0  0
  -21.9296  -12.4867   21.8474 N   0  0  0  0  0  0  0  0  0  0  0  0
  -34.2297  -17.0536   23.8838 N   0  0  0  0  0  0  0  0  0  0  0  0
  -30.1456  -15.5405   21.7380 N   0  0  0  0  0  0  0  0  0  0  0  0
  -34.5445  -25.4089   16.8054 N   0  0  0  0  0  0  0  0  0  0  0  0
  -29.9316  -24.6999   21.4156 N   0  0  0  0  0  0  0  0  0  0  0  0
  -28.1610  -21.7575   22.5447 N   0  3  0  0  0  0  0  0  0  0  0  0
  -22.7173  -14.6394   21.7846 O   0  0  0  0  0  0  0  0  0  0  0  0
  -35.0853  -25.1847   19.0592 O   0  0  0  0  0  0  0  0  0  0  0  0
  -37.4081  -18.6919   24.3393 O   0  0  0  0  0  0  0  0  0  0  0  0
  -30.9659  -25.4704   18.8573 O   0  0  0  0  0  0  0  0  0  0  0  0
  -30.6025  -23.0958   22.9500 O   0  0  0  0  0  0  0  0  0  0  0  0
  -34.8175  -15.5956   22.1493 O   0  0  0  0  0  0  0  0  0  0  0  0
  -31.8592  -14.9270   20.2996 O   0  0  0  0  0  0  0  0  0  0  0  0
  -21.5980   -6.9504   21.3223 O   0  0  0  0  0  0  0  0  0  0  0  0
  -36.6560  -20.0954   22.1115 O   0  0  0  0  0  0  0  0  0  1  0  0
  -16.3558   -7.0234   19.6142 F   0  0  0  0  0  0  0  0  0  0  0  0
  -28.6964  -17.1206   23.5191 F   0  0  0  0  0  0  0  0  0  0  0  0
  -20.7246   -5.2208   19.3505 F   0  0  0  0  0  0  0  0  0  0  0  0
  1  2  1  0  0  0  0
  1  5  2  0  0  0  0
  2  6  2  0  0  0  0
  3  8  2  0  0  0  0
  3 17  1  0  0  0  0
  4  9  1  0  0  0  0
  4 17  2  0  0  0  0
  5 19  1  0  0  0  0
  6 21  1  0  0  0  0
  7 10  2  0  0  0  0
  7 20  1  0  0  0  0
  8 26  1  0  0  0  0
  9 26  2  0  0  0  0
 10 27  1  0  0  0  0
 11 12  2  0  0  0  0
 11 28  1  0  0  0  0
 12 29  1  0  0  0  0
 13 22  1  0  0  0  0
 13 27  2  0  0  0  0
 14 23  1  0  0  0  0
 14 24  2  0  0  0  0
 15 25  1  0  0  0  0
 15 30  2  0  0  0  0
 16 29  2  0  0  0  0
 16 31  1  0  0  0  0
 17 32  1  0  0  0  0
 18 32  1  0  0  0  0
 18 33  2  0  0  0  0
 18 34  1  0  0  0  0
 19 21  2  0  0  0  0
 19 41  1  0  0  0  0
 20 22  2  0  0  0  0
 20 42  1  0  0  0  0
 21 50  1  0  0  0  0
 22 43  1  0  0  0  0
 23 25  2  0  0  0  0
 23 72  1  0  0  0  0
 24 30  1  0  0  0  0
 24 73  1  0  0  0  0
 25 69  1  0  0  0  0
 26 84  1  0  0  0  0
 27 85  1  0  0  0  0
 28 31  2  0  0  0  0
 28 84  1  0  0  0  0
 29 86  1  0  0  0  0
 30 87  1  0  0  0  0
 31 88  1  0  0  0  0
 32 65  2  0  0  0  0
 33 66  1  0  0  0  0
 33 70  1  0  0  0  0
 34 71  1  0  0  0  0
 34 77  2  0  0  0  0
 35 51  1  0  0  0  0
 35 74  1  0  0  0  0
 35 78  2  0  0  0  0
 36 60  1  0  0  0  0
 36 63  1  0  0  0  0
 36 79  2  0  0  0  0
 37 61  1  0  0  0  0
 37 67  1  0  0  0  0
 37 80  2  0  0  0  0
 38 62  1  0  0  0  0
 38 75  1  0  0  0  0
 38 81  2  0  0  0  0
 39 63  1  0  0  0  0
 39 72  1  0  0  0  0
 39 82  2  0  0  0  0
 40 68  1  0  0  0  0
 40 73  1  0  0  0  0
 40 83  2  0  0  0  0
 41 44  1  0  0  0  0
 42 51  1  0  0  0  0
 43 67  1  0  0  0  0
 44 46  1  0  0  0  0
 45 47  1  0  0  0  0
 45 48  1  0  0  0  0
 46 50  1  0  0  0  0
 47 52  1  0  0  0  0
 48 68  1  0  0  0  0
 49 52  1  0  0  0  0
 49 68  1  0  0  0  0
 50 74  1  0  0  0  0
 51 67  1  0  0  0  0
 52 66  1  0  0  0  0
 53 62  1  0  0  0  0
 54 63  1  0  0  0  0
 55 63  1  0  0  0  0
 56 64  1  0  0  0  0
 57 64  1  0  0  0  0
 58 64  1  0  0  0  0
 59 76  1  0  0  0  0
 60 85  1  0  0  0  0
 61 64  1  0  0  0  0
 61 75  1  0  0  0  0
 62 76  1  0  0  0  0
 65 66  1  0  0  0  0
M  CHG  1  76   1
M  ISO  4  40 100  60 101  73 100  85 101
M  END
> <Batch ID>
0172

> <Smiles>
CNC(C)C(=O)NC(C(=O)N1Cc2cc([101O:1][101CH2:1]C(=O)C(C)(C)C(=O)Nc3cc([100NH:0][100C:0](=O)N4CCCC(n5nc(-c6ccc(Oc7ccc(F)cc7F)cc6)c(C(N)=O)c5N)C4)c(F)cc3N)ccc2CC1C(=O)NC1CCCc2ccccc21)C(C)(C)C

> <Shape>
0.179

> <Color>
0.180

> <Negative vol penalty>
0.000

$$$$

  -OEChem-04052304263D

 88 96  0     1  0  0  0  0  0999 V2000
  -22.2678   -8.1716   21.9368 C   0  0  0  0  0  0  0  0  0  0  0  0
  -23.3155   -8.8116   22.5911 C   0  0  0  0  0  0  0  0  0  0  0  0
  -22.6216  -28.7646   19.4356 C   0  0  0  0  0  0  0  0  0  0  0  0
  -22.8689  -27.6369   21.5579 C   0  0  0  0  0  0  0  0  0  0  0  0
  -21.8932   -8.5800   20.6574 C   0  0  0  0  0  0  0  0  0  0  0  0
  -23.9901   -9.8597   21.9658 C   0  0  0  0  0  0  0  0  0  0  0  0
  -24.2760  -16.4011   24.9691 C   0  0  0  0  0  0  0  0  0  0  0  0
  -21.2341  -28.7035   19.5648 C   0  0  0  0  0  0  0  0  0  0  0  0
  -21.4814  -27.5757   21.6871 C   0  0  0  0  0  0  0  0  0  0  0  0
  -24.5546  -17.6240   25.5798 C   0  0  0  0  0  0  0  0  0  0  0  0
  -18.9704  -29.6549   22.5773 C   0  0  0  0  0  0  0  0  0  0  0  0
  -18.4208  -29.9914   23.8143 C   0  0  0  0  0  0  0  0  0  0  0  0
  -29.3416  -19.8628   23.0139 C   0  0  0  0  0  0  0  0  0  0  0  0
  -29.6109  -21.0108   20.9053 C   0  0  0  0  0  0  0  0  0  0  0  0
  -25.7450  -18.3513   23.6044 C   0  0  0  0  0  0  0  0  0  0  0  0
  -28.7906  -22.2084   22.8366 C   0  0  0  0  0  0  0  0  0  0  0  0
  -17.4569  -27.7828   23.9870 C   0  0  0  0  0  0  0  0  0  0  0  0
  -23.4390  -28.2313   20.4321 C   0  0  0  0  0  0  0  0  0  0  0  0
  -29.7048  -19.8463   21.6673 C   0  0  0  0  0  0  0  0  0  0  0  0
  -25.7238  -29.3217   20.7462 C   0  0  0  0  0  0  0  0  0  0  0  0
  -22.5571   -9.6400   20.0201 C   0  0  0  0  0  0  0  0  0  0  0  0
  -24.7181  -16.1542   23.6665 C   0  0  0  0  0  0  0  0  0  0  0  0
  -23.6249  -10.2817   20.6762 C   0  0  0  0  0  0  0  0  0  0  0  0
  -25.4582  -17.1329   22.9830 C   0  0  0  0  0  0  0  0  0  0  0  0
  -28.8845  -21.0439   23.5986 C   0  0  0  0  0  0  0  0  0  0  0  0
  -29.1538  -22.1919   21.4899 C   0  0  0  0  0  0  0  0  0  0  0  0
  -20.6640  -28.1091   20.6906 C   0  0  0  0  0  0  0  0  0  0  0  0
  -25.2875  -18.5966   24.8992 C   0  0  0  0  0  0  0  0  0  0  0  0
  -18.7632  -28.3823   22.0450 C   0  0  0  0  0  0  0  0  0  0  0  0
  -17.6641  -29.0554   24.5192 C   0  0  0  0  0  0  0  0  0  0  0  0
  -18.0064  -27.4462   22.7499 C   0  0  0  0  0  0  0  0  0  0  0  0
  -24.8724  -28.2936   20.2990 C   0  0  0  0  0  0  0  0  0  0  0  0
  -26.9818  -28.9088   20.3812 C   0  0  0  0  0  0  0  0  0  0  0  0
  -30.1816  -18.6150   21.0579 C   0  0  0  0  0  0  0  0  0  0  0  0
  -25.4058  -30.5408   21.4306 C   0  0  0  0  0  0  0  0  0  0  0  0
  -28.0892  -20.3922   27.2196 C   0  0  0  0  0  0  0  0  0  0  0  0
  -28.5569  -20.0021   25.8455 C   0  0  0  0  0  0  0  0  0  0  0  0
  -24.8557  -13.7642   20.7777 C   0  0  0  0  0  0  0  0  0  0  0  0
  -24.3888  -16.5584   19.6010 C   0  0  0  0  0  0  0  0  0  0  0  0
  -23.4617  -19.7266   18.7404 C   0  0  0  0  0  0  0  0  0  0  0  0
  -29.3791  -23.5301   19.3674 C   0  0  0  0  0  0  0  0  0  0  0  0
  -22.1474  -10.0148   18.6178 C   0  0  0  0  0  0  0  0  0  0  0  0
  -24.4940  -14.8279   22.9923 C   0  0  0  0  0  0  0  0  0  0  0  0
  -25.9433  -16.8102   21.5961 C   0  0  0  0  0  0  0  0  0  0  0  0
  -22.6682  -11.3799   18.1754 C   0  0  0  0  0  0  0  0  0  0  0  0
  -29.2487  -26.2662   17.0929 C   0  0  0  0  0  0  0  0  0  0  0  0
  -24.1456  -11.5267   18.5257 C   0  0  0  0  0  0  0  0  0  0  0  0
  -28.1935  -27.1931   17.7009 C   0  0  0  0  0  0  0  0  0  0  0  0
  -28.8888  -24.7941   17.2849 C   0  0  0  0  0  0  0  0  0  0  0  0
  -27.5425  -25.3285   19.2777 C   0  0  0  0  0  0  0  0  0  0  0  0
  -24.3647  -11.4389   20.0409 C   0  0  1  0  0  0  0  0  0  0  0  0
  -24.2636  -14.9532   21.4756 C   0  0  1  0  0  0  0  0  0  0  0  0
  -27.8937  -26.8211   19.1662 C   0  0  2  0  0  0  0  0  0  0  0  0
  -30.9051  -17.6394   21.9401 C   0  0  0  0  0  0  0  0  0  0  0  0
  -26.3831  -21.2824   28.8086 C   0  0  0  0  0  0  0  0  0  0  0  0
  -22.8991  -21.1410   16.7453 C   0  0  0  0  0  0  0  0  0  0  0  0
  -27.3507  -16.7320   18.8935 C   0  0  0  0  0  0  0  0  0  0  0  0
  -26.8448  -18.8084   17.5893 C   0  0  0  0  0  0  0  0  0  0  0  0
  -25.8114  -16.6374   16.9248 C   0  0  0  0  0  0  0  0  0  0  0  0
  -20.7271  -20.2554   19.7410 C   0  0  0  0  0  0  0  0  0  0  0  0
  -25.6726  -19.7880   26.9215 C   0  0  0  0  0  0  0  0  0  1  0  0
  -26.6519  -20.8784   27.3593 C   0  0  2  0  0  0  0  0  0  0  0  0
  -25.0055  -17.8046   19.0177 C   0  0  1  0  0  0  0  0  0  0  0  0
  -22.3511  -20.2428   17.8433 C   0  0  2  0  0  0  0  0  0  0  0  0
  -26.2464  -17.4938   18.1339 C   0  0  0  0  0  0  0  0  0  0  0  0
  -25.5337  -27.3023   19.6957 N   0  0  0  0  0  0  0  0  0  0  0  0
  -26.8140  -27.7056   19.7612 N   0  0  0  0  0  0  0  0  0  0  0  0
  -24.8821  -16.1283   20.8388 N   0  0  0  0  0  0  0  0  0  0  0  0
  -28.6223  -24.5146   18.6976 N   0  0  0  0  0  0  0  0  0  0  0  0
  -28.2042  -29.4613   20.5331 N   0  0  0  0  0  0  0  0  0  0  0  0
  -24.0629  -30.8090   21.7288 N   0  0  0  0  0  0  0  0  0  0  0  0
  -28.5163  -21.0607   24.9639 N   0  0  0  0  0  0  0  0  0  0  0  0
  -29.0589  -23.3749   20.7157 N   0  0  0  0  0  0  0  0  0  0  0  0
  -23.9977  -12.6856   20.6777 N   0  0  0  0  0  0  0  0  0  0  0  0
  -23.9323  -18.5016   18.3171 N   0  0  0  0  0  0  0  0  0  0  0  0
  -21.3628  -21.0237   18.6398 N   0  3  0  0  0  0  0  0  0  0  0  0
  -30.0409  -18.3136   19.8707 O   0  0  0  0  0  0  0  0  0  0  0  0
  -26.2849  -31.3755   21.7531 O   0  0  0  0  0  0  0  0  0  0  0  0
  -28.9003  -20.2813   28.1283 O   0  0  0  0  0  0  0  0  0  0  0  0
  -28.9257  -18.8484   25.7004 O   0  0  0  0  0  0  0  0  0  0  0  0
  -26.0060  -13.8204   20.3588 O   0  0  0  0  0  0  0  0  0  0  0  0
  -23.4977  -15.9769   18.9756 O   0  0  0  0  0  0  0  0  0  0  0  0
  -23.8732  -20.3495   19.7167 O   0  0  0  0  0  0  0  0  0  0  0  0
  -30.2661  -22.8921   18.7945 O   0  0  0  0  0  0  0  0  0  0  0  0
  -19.3101  -28.0494   20.8171 O   0  0  0  0  0  0  0  0  0  0  0  0
  -25.5522  -19.7900   25.4996 O   0  0  0  0  0  0  0  0  0  1  0  0
  -17.1377  -29.3782   25.7078 F   0  0  0  0  0  0  0  0  0  0  0  0
  -17.8049  -26.2217   22.2442 F   0  0  0  0  0  0  0  0  0  0  0  0
  1  2  1  0  0  0  0
  1  5  2  0  0  0  0
  2  6  2  0  0  0  0
  3  8  2  0  0  0  0
  3 18  1  0  0  0  0
  4  9  1  0  0  0  0
  4 18  2  0  0  0  0
  5 21  1  0  0  0  0
  6 23  1  0  0  0  0
  7 10  2  0  0  0  0
  7 22  1  0  0  0  0
  8 27  1  0  0  0  0
  9 27  2  0  0  0  0
 10 28  1  0  0  0  0
 11 12  2  0  0  0  0
 11 29  1  0  0  0  0
 12 30  1  0  0  0  0
 13 19  1  0  0  0  0
 13 25  2  0  0  0  0
 14 19  2  0  0  0  0
 14 26  1  0  0  0  0
 15 24  1  0  0  0  0
 15 28  2  0  0  0  0
 16 25  1  0  0  0  0
 16 26  2  0  0  0  0
 17 30  2  0  0  0  0
 17 31  1  0  0  0  0
 18 32  1  0  0  0  0
 19 34  1  0  0  0  0
 20 32  1  0  0  0  0
 20 33  2  0  0  0  0
 20 35  1  0  0  0  0
 21 23  2  0  0  0  0
 21 42  1  0  0  0  0
 22 24  2  0  0  0  0
 22 43  1  0  0  0  0
 23 51  1  0  0  0  0
 24 44  1  0  0  0  0
 25 72  1  0  0  0  0
 26 73  1  0  0  0  0
 27 85  1  0  0  0  0
 28 86  1  0  0  0  0
 29 31  2  0  0  0  0
 29 85  1  0  0  0  0
 30 87  1  0  0  0  0
 31 88  1  0  0  0  0
 32 66  2  0  0  0  0
 33 67  1  0  0  0  0
 33 70  1  0  0  0  0
 34 54  1  0  0  0  0
 34 77  2  0  0  0  0
 35 71  1  0  0  0  0
 35 78  2  0  0  0  0
 36 37  1  0  0  0  0
 36 62  1  0  0  0  0
 36 79  2  0  0  0  0
 37 72  1  0  0  0  0
 37 80  2  0  0  0  0
 38 52  1  0  0  0  0
 38 74  1  0  0  0  0
 38 81  2  0  0  0  0
 39 63  1  0  0  0  0
 39 68  1  0  0  0  0
 39 82  2  0  0  0  0
 40 64  1  0  0  0  0
 40 75  1  0  0  0  0
 40 83  2  0  0  0  0
 41 69  1  0  0  0  0
 41 73  1  0  0  0  0
 41 84  2  0  0  0  0
 42 45  1  0  0  0  0
 43 52  1  0  0  0  0
 44 68  1  0  0  0  0
 45 47  1  0  0  0  0
 46 48  1  0  0  0  0
 46 49  1  0  0  0  0
 47 51  1  0  0  0  0
 48 53  1  0  0  0  0
 49 69  1  0  0  0  0
 50 53  1  0  0  0  0
 50 69  1  0  0  0  0
 51 74  1  0  0  0  0
 52 68  1  0  0  0  0
 53 67  1  0  0  0  0
 55 62  1  0  0  0  0
 56 64  1  0  0  0  0
 57 65  1  0  0  0  0
 58 65  1  0  0  0  0
 59 65  1  0  0  0  0
 60 76  1  0  0  0  0
 61 62  1  0  0  0  0
 61 86  1  0  0  0  0
 63 65  1  0  0  0  0
 63 75  1  0  0  0  0
 64 76  1  0  0  0  0
 66 67  1  0  0  0  0
M  CHG  1  76   1
M  ISO  4  41 100  61 101  73 100  86 101
M  END
> <Batch ID>
0172

> <Smiles>
CNC(C)C(=O)NC(C(=O)N1Cc2cc([101O:1][101CH2:1]C(C)C(=O)C(=O)Nc3cc([100NH:0][100C:0](=O)N4CCCC(n5nc(-c6ccc(Oc7ccc(F)cc7F)cc6)c(C(N)=O)c5N)C4)cc(C(C)=O)c3)ccc2CC1C(=O)NC1CCCc2ccccc21)C(C)(C)C

> <Shape>
0.248

> <Color>
0.062

> <Negative vol penalty>
0.000

$$$$

  -OEChem-04052304263D

 89 97  0     1  0  0  0  0  0999 V2000
  -16.8191  -29.1786   24.5556 C   0  0  0  0  0  0  0  0  0  0  0  0
  -17.2016  -28.2853   23.5601 C   0  0  0  0  0  0  0  0  0  0  0  0
  -29.0912  -18.0732   21.5272 C   0  0  0  0  0  0  0  0  0  0  0  0
  -28.2064  -17.5797   19.3339 C   0  0  0  0  0  0  0  0  0  0  0  0
  -19.5042  -18.5623   16.5793 C   0  0  0  0  0  0  0  0  0  0  0  0
  -17.4708  -30.4051   24.6779 C   0  0  0  0  0  0  0  0  0  0  0  0
  -18.2353  -28.6185   22.6855 C   0  0  0  0  0  0  0  0  0  0  0  0
  -22.3572  -24.8083   20.2363 C   0  0  0  0  0  0  0  0  0  0  0  0
  -29.8590  -16.9097   21.4793 C   0  0  0  0  0  0  0  0  0  0  0  0
  -28.9742  -16.4162   19.2859 C   0  0  0  0  0  0  0  0  0  0  0  0
  -22.4335  -24.1826   18.9928 C   0  0  0  0  0  0  0  0  0  0  0  0
  -28.8276  -13.2810   20.5430 C   0  0  0  0  0  0  0  0  0  0  0  0
  -18.2404  -18.2607   17.0867 C   0  0  0  0  0  0  0  0  0  0  0  0
  -28.2087  -12.1143   20.0945 C   0  0  0  0  0  0  0  0  0  0  0  0
  -23.8660  -25.9528   18.1967 C   0  0  0  0  0  0  0  0  0  0  0  0
  -18.8747  -19.1960   19.2221 C   0  0  0  0  0  0  0  0  0  0  0  0
  -29.8066  -11.9608   18.2888 C   0  0  0  0  0  0  0  0  0  0  0  0
  -28.2648  -18.4082   20.4546 C   0  0  0  0  0  0  0  0  0  0  0  0
  -20.4533  -19.1807   17.3932 C   0  0  0  0  0  0  0  0  0  0  0  0
  -27.8444  -20.8939   20.0640 C   0  0  0  0  0  0  0  0  0  0  0  0
  -18.5195  -30.7494   23.8106 C   0  0  0  0  0  0  0  0  0  0  0  0
  -23.0270  -26.0186   20.4664 C   0  0  0  0  0  0  0  0  0  0  0  0
  -18.9008  -29.8513   22.7955 C   0  0  0  0  0  0  0  0  0  0  0  0
  -23.7986  -26.5905   19.4448 C   0  0  0  0  0  0  0  0  0  0  0  0
  -20.1385  -19.4976   18.7147 C   0  0  0  0  0  0  0  0  0  0  0  0
  -29.8005  -16.0812   20.3586 C   0  0  0  0  0  0  0  0  0  0  0  0
  -23.1856  -24.7563   17.9718 C   0  0  0  0  0  0  0  0  0  0  0  0
  -29.9360  -13.7878   19.8644 C   0  0  0  0  0  0  0  0  0  0  0  0
  -17.9257  -18.5776   18.4081 C   0  0  0  0  0  0  0  0  0  0  0  0
  -28.6982  -11.4541   18.9674 C   0  0  0  0  0  0  0  0  0  0  0  0
  -30.4255  -13.1276   18.7374 C   0  0  0  0  0  0  0  0  0  0  0  0
  -27.4711  -19.6097   20.5038 C   0  0  0  0  0  0  0  0  0  0  0  0
  -26.7491  -21.6792   20.3283 C   0  0  0  0  0  0  0  0  0  0  0  0
  -21.7837  -19.4896   16.8318 C   0  0  0  0  0  0  0  0  0  0  0  0
  -29.0716  -21.3371   19.4697 C   0  0  0  0  0  0  0  0  0  0  0  0
  -22.1269  -28.9716   21.2236 C   0  0  0  0  0  0  0  0  0  0  0  0
  -23.2277  -22.2044   15.3121 C   0  0  0  0  0  0  0  0  0  0  0  0
  -25.3243  -29.4715   21.4450 C   0  0  0  0  0  0  0  0  0  0  0  0
  -28.4742  -28.5294   20.5299 C   0  0  0  0  0  0  0  0  0  0  0  0
  -22.9436  -18.8140   13.3747 C   0  0  0  0  0  0  0  0  0  0  0  0
  -20.9189  -20.4975   20.8913 C   0  0  0  0  0  0  0  0  0  0  0  0
  -19.1625  -32.1064   23.9517 C   0  0  0  0  0  0  0  0  0  0  0  0
  -22.9563  -26.6672   21.8217 C   0  0  0  0  0  0  0  0  0  0  0  0
  -24.5530  -27.8783   19.6471 C   0  0  0  0  0  0  0  0  0  0  0  0
  -20.4980  -32.2265   23.2222 C   0  0  0  0  0  0  0  0  0  0  0  0
  -23.0254  -22.0283   23.3194 C   0  0  0  0  0  0  0  0  0  0  0  0
  -20.3885  -31.6577   21.8111 C   0  0  0  0  0  0  0  0  0  0  0  0
  -24.4386  -21.7039   22.8296 C   0  0  0  0  0  0  0  0  0  0  0  0
  -22.0585  -20.8728   23.0673 C   0  0  0  0  0  0  0  0  0  0  0  0
  -23.4354  -20.0599   21.1931 C   0  0  0  0  0  0  0  0  0  0  0  0
  -20.0341  -30.1661   21.8434 C   0  0  1  0  0  0  0  0  0  0  0  0
  -23.2609  -28.1617   21.7855 C   0  0  1  0  0  0  0  0  0  0  0  0
  -24.4304  -21.2190   21.3666 C   0  0  2  0  0  0  0  0  0  0  0  0
  -30.8852  -29.1522   20.8410 C   0  0  0  0  0  0  0  0  0  0  0  0
  -24.9649  -31.8135   19.5225 C   0  0  0  0  0  0  0  0  0  0  0  0
  -27.4381  -31.7839   19.1342 C   0  0  0  0  0  0  0  0  0  0  0  0
  -26.5408  -32.2495   21.4148 C   0  0  0  0  0  0  0  0  0  0  0  0
  -29.1117  -25.9137   21.7589 C   0  0  0  0  0  0  0  0  0  0  0  0
  -23.1566  -22.7250   16.7354 C   0  0  0  0  0  0  0  0  0  1  0  0
  -23.0781  -20.3126   13.6710 C   0  0  0  0  0  0  0  0  0  0  0  0
  -23.1145  -20.7011   15.1412 C   0  0  2  0  0  0  0  0  0  0  0  0
  -26.4081  -29.9018   20.4861 C   0  0  1  0  0  0  0  0  0  0  0  0
  -29.7332  -28.2973   21.3458 C   0  0  2  0  0  0  0  0  0  0  0  0
  -26.3223  -31.4139   20.1347 C   0  0  0  0  0  0  0  0  0  0  0  0
  -26.2352  -19.5769   21.0092 N   0  0  0  0  0  0  0  0  0  0  0  0
  -25.8225  -20.8502   20.8888 N   0  0  0  0  0  0  0  0  0  0  0  0
  -24.4475  -28.4775   20.9878 N   0  0  0  0  0  0  0  0  0  0  0  0
  -22.1017  -20.4699   21.6600 N   0  0  0  0  0  0  0  0  0  0  0  0
  -26.4979  -22.9913   20.1337 N   0  0  0  0  0  0  0  0  0  0  0  0
  -30.0938  -20.3994   19.2691 N   0  0  0  0  0  0  0  0  0  0  0  0
  -21.0887  -20.1247   19.5583 N   0  0  0  0  0  0  0  0  0  0  0  0
  -21.8564  -20.3074   15.7726 N   0  0  0  0  0  0  0  0  0  0  0  0
  -21.2024  -29.3759   22.1677 N   0  0  0  0  0  0  0  0  0  0  0  0
  -27.6727  -29.5001   21.0925 N   0  0  0  0  0  0  0  0  0  0  0  0
  -22.8519  -18.9361   17.4062 N   0  3  0  0  0  0  0  0  0  0  0  0
  -30.1422  -26.8662   21.2713 N   0  3  0  0  0  0  0  0  0  0  0  0
  -23.4826  -18.0240   14.1969 O   0  5  0  0  0  0  0  0  0  0  0  0
  -29.2624  -22.5327   19.1417 O   0  0  0  0  0  0  0  0  0  0  0  0
  -22.0940  -29.2133   20.0226 O   0  0  0  0  0  0  0  0  0  0  0  0
  -23.3813  -22.9634   14.3551 O   0  0  0  0  0  0  0  0  0  0  0  0
  -25.2626  -29.9929   22.5612 O   0  0  0  0  0  0  0  0  0  0  0  0
  -28.2284  -27.9140   19.4948 O   0  0  0  0  0  0  0  0  0  0  0  0
  -22.3007  -18.5532   12.3166 O   0  0  0  0  0  0  0  0  0  0  0  0
  -19.8402  -20.8538   21.3726 O   0  0  0  0  0  0  0  0  0  0  0  0
  -30.5497  -14.9459   20.3114 O   0  0  0  0  0  0  0  0  0  0  0  0
  -23.2613  -24.1480   16.7569 O   0  0  0  0  0  0  0  0  0  1  0  0
  -16.7121  -18.2877   18.8951 F   0  0  0  0  0  0  0  0  0  0  0  0
  -28.1048  -10.3328   18.5377 F   0  0  0  0  0  0  0  0  0  0  0  0
  -31.4907  -13.6090   18.0820 F   0  0  0  0  0  0  0  0  0  0  0  0
  1  2  1  0  0  0  0
  1  6  2  0  0  0  0
  2  7  2  0  0  0  0
  3  9  2  0  0  0  0
  3 18  1  0  0  0  0
  4 10  1  0  0  0  0
  4 18  2  0  0  0  0
  5 13  2  0  0  0  0
  5 19  1  0  0  0  0
  6 21  1  0  0  0  0
  7 23  1  0  0  0  0
  8 11  2  0  0  0  0
  8 22  1  0  0  0  0
  9 26  1  0  0  0  0
 10 26  2  0  0  0  0
 11 27  1  0  0  0  0
 12 14  2  0  0  0  0
 12 28  1  0  0  0  0
 13 29  1  0  0  0  0
 14 30  1  0  0  0  0
 15 24  1  0  0  0  0
 15 27  2  0  0  0  0
 16 25  1  0  0  0  0
 16 29  2  0  0  0  0
 17 30  2  0  0  0  0
 17 31  1  0  0  0  0
 18 32  1  0  0  0  0
 19 25  2  0  0  0  0
 19 34  1  0  0  0  0
 20 32  1  0  0  0  0
 20 33  2  0  0  0  0
 20 35  1  0  0  0  0
 21 23  2  0  0  0  0
 21 42  1  0  0  0  0
 22 24  2  0  0  0  0
 22 43  1  0  0  0  0
 23 51  1  0  0  0  0
 24 44  1  0  0  0  0
 25 71  1  0  0  0  0
 26 85  1  0  0  0  0
 27 86  1  0  0  0  0
 28 31  2  0  0  0  0
 28 85  1  0  0  0  0
 29 87  1  0  0  0  0
 30 88  1  0  0  0  0
 31 89  1  0  0  0  0
 32 65  2  0  0  0  0
 33 66  1  0  0  0  0
 33 69  1  0  0  0  0
 34 72  1  0  0  0  0
 34 75  2  0  0  0  0
 35 70  1  0  0  0  0
 35 78  2  0  0  0  0
 36 52  1  0  0  0  0
 36 73  1  0  0  0  0
 36 79  2  0  0  0  0
 37 59  1  0  0  0  0
 37 61  1  0  0  0  0
 37 80  2  0  0  0  0
 38 62  1  0  0  0  0
 38 67  1  0  0  0  0
 38 81  2  0  0  0  0
 39 63  1  0  0  0  0
 39 74  1  0  0  0  0
 39 82  2  0  0  0  0
 40 60  1  0  0  0  0
 40 77  1  0  0  0  0
 40 83  2  0  0  0  0
 41 68  1  0  0  0  0
 41 71  1  0  0  0  0
 41 84  2  0  0  0  0
 42 45  1  0  0  0  0
 43 52  1  0  0  0  0
 44 67  1  0  0  0  0
 45 47  1  0  0  0  0
 46 48  1  0  0  0  0
 46 49  1  0  0  0  0
 47 51  1  0  0  0  0
 48 53  1  0  0  0  0
 49 68  1  0  0  0  0
 50 53  1  0  0  0  0
 50 68  1  0  0  0  0
 51 73  1  0  0  0  0
 52 67  1  0  0  0  0
 53 66  1  0  0  0  0
 54 63  1  0  0  0  0
 55 64  1  0  0  0  0
 56 64  1  0  0  0  0
 57 64  1  0  0  0  0
 58 76  1  0  0  0  0
 59 86  1  0  0  0  0
 60 61  1  0  0  0  0
 61 72  1  0  0  0  0
 62 64  1  0  0  0  0
 62 74  1  0  0  0  0
 63 76  1  0  0  0  0
 65 66  1  0  0  0  0
M  CHG  3  75   1  76   1  77  -1
M  ISO  4  41 100  59 101  71 100  86 101
M  END
> <Batch ID>
0172

> <Smiles>
CNC(C)C(=O)NC(C(=O)N1Cc2cc([101O:1][101CH2:1]C(=O)C(CC(=O)O)NC(=N)c3ccc(F)cc3[100NH:0][100C:0](=O)N3CCCC(n4nc(-c5ccc(Oc6ccc(F)cc6F)cc5)c(C(N)=O)c4N)C3)ccc2CC1C(=O)NC1CCCc2ccccc21)C(C)(C)C

> <Shape>
0.219

> <Color>
0.067

> <Negative vol penalty>
0.000

$$$$

  -OEChem-04052304263D

 87 95  0     1  0  0  0  0  0999 V2000
  -18.9557  -24.4507   21.6827 C   0  0  0  0  0  0  0  0  0  0  0  0
  -20.3173  -24.5785   21.4272 C   0  0  0  0  0  0  0  0  0  0  0  0
  -22.9920  -10.3568   22.2329 C   0  0  0  0  0  0  0  0  0  0  0  0
  -24.4956   -9.5591   20.5183 C   0  0  0  0  0  0  0  0  0  0  0  0
  -18.1530  -25.5879   21.7628 C   0  0  0  0  0  0  0  0  0  0  0  0
  -20.8767  -25.8435   21.2507 C   0  0  0  0  0  0  0  0  0  0  0  0
  -25.2303  -26.4118   23.7744 C   0  0  0  0  0  0  0  0  0  0  0  0
  -22.2758   -9.1621   22.1606 C   0  0  0  0  0  0  0  0  0  0  0  0
  -23.7794   -8.3644   20.4460 C   0  0  0  0  0  0  0  0  0  0  0  0
  -26.3705  -25.8373   23.2144 C   0  0  0  0  0  0  0  0  0  0  0  0
  -20.2667   -6.1780   22.6837 C   0  0  0  0  0  0  0  0  0  0  0  0
  -19.9048   -5.5653   23.8834 C   0  0  0  0  0  0  0  0  0  0  0  0
  -27.0216  -27.9914   22.3455 C   0  0  0  0  0  0  0  0  0  0  0  0
  -22.2356   -5.3782   24.4911 C   0  0  0  0  0  0  0  0  0  0  0  0
  -24.1020  -10.5554   21.4117 C   0  0  0  0  0  0  0  0  0  0  0  0
  -25.9415  -12.0729   22.3175 C   0  0  0  0  0  0  0  0  0  0  0  0
  -18.7046  -26.8680   21.5968 C   0  0  0  0  0  0  0  0  0  0  0  0
  -24.9711  -27.7806   23.6146 C   0  0  0  0  0  0  0  0  0  0  0  0
  -20.0804  -26.9988   21.3274 C   0  0  0  0  0  0  0  0  0  0  0  0
  -25.8787  -28.5813   22.9066 C   0  0  0  0  0  0  0  0  0  0  0  0
  -22.6694   -8.1659   21.2672 C   0  0  0  0  0  0  0  0  0  0  0  0
  -27.2649  -26.6266   22.4974 C   0  0  0  0  0  0  0  0  0  0  0  0
  -21.6132   -6.3907   22.3877 C   0  0  0  0  0  0  0  0  0  0  0  0
  -20.8892   -5.1654   24.7871 C   0  0  0  0  0  0  0  0  0  0  0  0
  -22.5976   -5.9909   23.2914 C   0  0  0  0  0  0  0  0  0  0  0  0
  -24.8419  -11.7895   21.4854 C   0  0  0  0  0  0  0  0  0  0  0  0
  -29.8461  -18.7312   19.6412 C   0  0  0  0  0  0  0  0  0  0  0  0
  -26.2797  -13.3682   22.0103 C   0  0  0  0  0  0  0  0  0  0  0  0
  -30.3017  -18.4198   20.9051 C   0  0  0  0  0  0  0  0  0  0  0  0
  -29.8007  -20.7431   20.5130 C   0  0  0  0  0  0  0  0  0  0  0  0
  -26.5985  -11.2399   23.2819 C   0  0  0  0  0  0  0  0  0  0  0  0
  -29.1948  -24.4541   20.3725 C   0  0  0  0  0  0  0  0  0  0  0  0
  -29.1975  -23.0630   19.8079 C   0  0  0  0  0  0  0  0  0  0  0  0
  -22.6545  -29.4814   22.2566 C   0  0  0  0  0  0  0  0  0  0  0  0
  -24.2549  -31.9809   23.5657 C   0  0  0  0  0  0  0  0  0  0  0  0
  -31.1415  -17.0030   22.8055 C   0  0  0  0  0  0  0  0  0  0  0  0
  -27.1972  -33.2317   24.7595 C   0  0  0  0  0  0  0  0  0  0  0  0
  -27.2067  -17.3977   18.2621 C   0  0  0  0  0  0  0  0  0  0  0  0
  -17.7885  -28.0651   21.6453 C   0  0  0  0  0  0  0  0  0  0  0  0
  -23.7503  -28.3901   24.2476 C   0  0  0  0  0  0  0  0  0  0  0  0
  -25.6568  -30.0597   22.7236 C   0  0  0  0  0  0  0  0  0  0  0  0
  -18.5264  -29.3902   21.8182 C   0  0  0  0  0  0  0  0  0  0  0  0
  -23.8364  -16.8470   19.2691 C   0  0  0  0  0  0  0  0  0  0  0  0
  -19.7144  -29.4681   20.8646 C   0  0  0  0  0  0  0  0  0  0  0  0
  -23.8874  -15.5032   19.9982 C   0  0  0  0  0  0  0  0  0  0  0  0
  -24.7914  -16.8794   18.0779 C   0  0  0  0  0  0  0  0  0  0  0  0
  -26.2385  -15.1800   19.1228 C   0  0  0  0  0  0  0  0  0  0  0  0
  -20.7287  -28.3552   21.1548 C   0  0  1  0  0  0  0  0  0  0  0  0
  -23.3227  -29.6961   23.5851 C   0  0  1  0  0  0  0  0  0  0  0  0
  -25.3334  -15.1189   20.3650 C   0  0  2  0  0  0  0  0  0  0  0  0
  -31.4589  -15.5502   23.0568 C   0  0  0  0  0  0  0  0  0  0  0  0
  -28.2031  -35.3176   25.7261 C   0  0  0  0  0  0  0  0  0  0  0  0
  -24.3111  -33.2388   20.7864 C   0  0  0  0  0  0  0  0  0  0  0  0
  -26.0985  -34.7910   21.6012 C   0  0  0  0  0  0  0  0  0  0  0  0
  -23.8342  -34.8405   22.6469 C   0  0  0  0  0  0  0  0  0  0  0  0
  -27.8891  -31.8639   27.2912 C   0  0  0  0  0  0  0  0  0  0  0  0
  -29.6445  -17.7779   18.5306 C   0  0  0  0  0  0  0  0  0  0  0  0
  -28.2908  -24.7004   21.5521 C   0  0  0  0  0  0  0  0  0  1  0  0
  -25.3727  -32.8893   23.1137 C   0  0  1  0  0  0  0  0  0  0  0  0
  -27.5264  -33.9906   26.0324 C   0  0  2  0  0  0  0  0  0  0  0  0
  -24.9076  -33.9117   22.0387 C   0  0  0  0  0  0  0  0  0  0  0  0
  -24.5039  -12.8217   20.7081 N   0  0  0  0  0  0  0  0  0  0  0  0
  -29.5579  -20.0629   19.4146 N   0  0  0  0  0  0  0  0  0  0  0  0
  -25.3963  -13.7664   21.0505 N   0  0  0  0  0  0  0  0  0  0  0  0
  -24.4455  -30.6077   23.3560 N   0  0  0  0  0  0  0  0  0  0  0  0
  -26.1458  -16.5068   18.4937 N   0  0  0  0  0  0  0  0  0  0  0  0
  -27.2435  -14.1940   22.4703 N   0  0  0  0  0  0  0  0  0  0  0  0
  -26.1227   -9.9354   23.4726 N   0  0  0  0  0  0  0  0  0  0  0  0
  -30.6794  -17.2423   21.4847 N   0  0  0  0  0  0  0  0  0  0  0  0
  -29.6426  -22.1330   20.7225 N   0  0  0  0  0  0  0  0  0  0  0  0
  -21.5250  -28.6876   22.3167 N   0  0  0  0  0  0  0  0  0  0  0  0
  -25.9171  -33.4990   24.3222 N   0  0  0  0  0  0  0  0  0  0  0  0
  -28.4566  -16.9696   18.6928 N   0  0  0  0  0  0  0  0  0  0  0  0
  -28.4382  -33.1860   26.8940 N   0  3  0  0  0  0  0  0  0  0  0  0
  -27.5682  -11.6458   23.9664 O   0  0  0  0  0  0  0  0  0  0  0  0
  -29.9043  -25.2866   19.8283 O   0  0  0  0  0  0  0  0  0  0  0  0
  -28.8434  -22.9439   18.6467 O   0  0  0  0  0  0  0  0  0  0  0  0
  -23.1277  -29.9989   21.2516 O   0  0  0  0  0  0  0  0  0  0  0  0
  -23.2527  -32.4710   24.0920 O   0  0  0  0  0  0  0  0  0  0  0  0
  -31.2854  -17.8396   23.6911 O   0  0  0  0  0  0  0  0  0  0  0  0
  -27.9969  -32.4801   24.2063 O   0  0  0  0  0  0  0  0  0  0  0  0
  -27.0508  -18.4958   17.7171 O   0  0  0  0  0  0  0  0  0  0  0  0
  -21.9709   -6.9999   21.1966 O   0  0  0  0  0  0  0  0  0  0  0  0
  -28.3783  -26.0683   21.9492 O   0  0  0  0  0  0  0  0  0  1  0  0
  -20.5414   -4.5784   25.9398 F   0  0  0  0  0  0  0  0  0  0  0  0
  -23.8927   -6.1938   23.0131 F   0  0  0  0  0  0  0  0  0  0  0  0
  -30.3782  -19.8448   21.8563 S   0  0  0  0  0  0  0  0  0  0  0  0
  1  2  1  0  0  0  0
  1  5  2  0  0  0  0
  2  6  2  0  0  0  0
  3  8  2  0  0  0  0
  3 15  1  0  0  0  0
  4  9  1  0  0  0  0
  4 15  2  0  0  0  0
  5 17  1  0  0  0  0
  6 19  1  0  0  0  0
  7 10  2  0  0  0  0
  7 18  1  0  0  0  0
  8 21  1  0  0  0  0
  9 21  2  0  0  0  0
 10 22  1  0  0  0  0
 11 12  2  0  0  0  0
 11 23  1  0  0  0  0
 12 24  1  0  0  0  0
 13 20  1  0  0  0  0
 13 22  2  0  0  0  0
 14 24  2  0  0  0  0
 14 25  1  0  0  0  0
 15 26  1  0  0  0  0
 16 26  1  0  0  0  0
 16 28  2  0  0  0  0
 16 31  1  0  0  0  0
 17 19  2  0  0  0  0
 17 39  1  0  0  0  0
 18 20  2  0  0  0  0
 18 40  1  0  0  0  0
 19 48  1  0  0  0  0
 20 41  1  0  0  0  0
 21 83  1  0  0  0  0
 22 84  1  0  0  0  0
 23 25  2  0  0  0  0
 23 83  1  0  0  0  0
 24 85  1  0  0  0  0
 25 86  1  0  0  0  0
 26 62  2  0  0  0  0
 27 29  2  0  0  0  0
 27 57  1  0  0  0  0
 27 63  1  0  0  0  0
 28 64  1  0  0  0  0
 28 67  1  0  0  0  0
 29 69  1  0  0  0  0
 29 87  1  0  0  0  0
 30 63  2  0  0  0  0
 30 70  1  0  0  0  0
 30 87  1  0  0  0  0
 31 68  1  0  0  0  0
 31 75  2  0  0  0  0
 32 33  1  0  0  0  0
 32 58  1  0  0  0  0
 32 76  2  0  0  0  0
 33 70  1  0  0  0  0
 33 77  2  0  0  0  0
 34 49  1  0  0  0  0
 34 71  1  0  0  0  0
 34 78  2  0  0  0  0
 35 59  1  0  0  0  0
 35 65  1  0  0  0  0
 35 79  2  0  0  0  0
 36 51  1  0  0  0  0
 36 69  1  0  0  0  0
 36 80  2  0  0  0  0
 37 60  1  0  0  0  0
 37 72  1  0  0  0  0
 37 81  2  0  0  0  0
 38 66  1  0  0  0  0
 38 73  1  0  0  0  0
 38 82  2  0  0  0  0
 39 42  1  0  0  0  0
 40 49  1  0  0  0  0
 41 65  1  0  0  0  0
 42 44  1  0  0  0  0
 43 45  1  0  0  0  0
 43 46  1  0  0  0  0
 44 48  1  0  0  0  0
 45 50  1  0  0  0  0
 46 66  1  0  0  0  0
 47 50  1  0  0  0  0
 47 66  1  0  0  0  0
 48 71  1  0  0  0  0
 49 65  1  0  0  0  0
 50 64  1  0  0  0  0
 52 60  1  0  0  0  0
 53 61  1  0  0  0  0
 54 61  1  0  0  0  0
 55 61  1  0  0  0  0
 56 74  1  0  0  0  0
 57 73  1  0  0  0  0
 58 84  1  0  0  0  0
 59 61  1  0  0  0  0
 59 72  1  0  0  0  0
 60 74  1  0  0  0  0
 62 64  1  0  0  0  0
M  CHG  1  74   1
M  ISO  4  38 100  58 101  73 100  84 101
M  END
> <Batch ID>
0172

> <Smiles>
CNC(C)C(=O)NC(C(=O)N1Cc2cc([101O:1][101CH2:1]C(=O)C(=O)Nc3nc(C[100NH:0][100C:0](=O)N4CCCC(n5nc(-c6ccc(Oc7ccc(F)cc7F)cc6)c(C(N)=O)c5N)C4)c(NC(C)=O)s3)ccc2CC1C(=O)NC1CCCc2ccccc21)C(C)(C)C

> <Shape>
0.317

> <Color>
0.137

> <Negative vol penalty>
0.000

$$$$

  -OEChem-04052304263D

 90 98  0     1  0  0  0  0  0999 V2000
  -27.8743  -36.7703   21.3072 C   0  0  0  0  0  0  0  0  0  0  0  0
  -27.5720  -35.4520   20.9811 C   0  0  0  0  0  0  0  0  0  0  0  0
  -23.1100   -9.8069   20.4334 C   0  0  0  0  0  0  0  0  0  0  0  0
  -23.7824  -10.2441   22.7124 C   0  0  0  0  0  0  0  0  0  0  0  0
  -27.8839  -37.1723   22.6422 C   0  0  0  0  0  0  0  0  0  0  0  0
  -27.2803  -34.5347   21.9900 C   0  0  0  0  0  0  0  0  0  0  0  0
  -23.2983  -29.8906   21.7042 C   0  0  0  0  0  0  0  0  0  0  0  0
  -22.3640   -8.7098   20.8639 C   0  0  0  0  0  0  0  0  0  0  0  0
  -23.0363   -9.1470   23.1430 C   0  0  0  0  0  0  0  0  0  0  0  0
  -23.4628  -28.5276   21.4619 C   0  0  0  0  0  0  0  0  0  0  0  0
  -19.7924   -8.4322   23.7646 C   0  0  0  0  0  0  0  0  0  0  0  0
  -18.9918   -8.5981   24.8947 C   0  0  0  0  0  0  0  0  0  0  0  0
  -31.7884  -17.5673   20.9677 C   0  0  0  0  0  0  0  0  0  0  0  0
  -23.4947  -28.1151   23.8385 C   0  0  0  0  0  0  0  0  0  0  0  0
  -29.6773  -18.1538   21.9856 C   0  0  0  0  0  0  0  0  0  0  0  0
  -20.2158   -6.8446   26.0191 C   0  0  0  0  0  0  0  0  0  0  0  0
  -23.8193  -10.5740   21.3576 C   0  0  0  0  0  0  0  0  0  0  0  0
  -32.2600  -18.8590   21.2015 C   0  0  0  0  0  0  0  0  0  0  0  0
  -24.1506  -13.0384   20.7880 C   0  0  0  0  0  0  0  0  0  0  0  0
  -27.5827  -36.2617   23.6673 C   0  0  0  0  0  0  0  0  0  0  0  0
  -23.2416  -30.3783   23.0178 C   0  0  0  0  0  0  0  0  0  0  0  0
  -27.2872  -34.9246   23.3400 C   0  0  0  0  0  0  0  0  0  0  0  0
  -23.3268  -29.4845   24.0948 C   0  0  0  0  0  0  0  0  0  0  0  0
  -30.4970  -17.2147   21.3597 C   0  0  0  0  0  0  0  0  0  0  0  0
  -30.1489  -19.4455   22.2195 C   0  0  0  0  0  0  0  0  0  0  0  0
  -31.4403  -19.7981   21.8274 C   0  0  0  0  0  0  0  0  0  0  0  0
  -22.3271   -8.3798   22.2187 C   0  0  0  0  0  0  0  0  0  0  0  0
  -23.5639  -27.6399   22.5291 C   0  0  0  0  0  0  0  0  0  0  0  0
  -20.8046   -7.4724   23.7617 C   0  0  0  0  0  0  0  0  0  0  0  0
  -19.2035   -7.8043   26.0220 C   0  0  0  0  0  0  0  0  0  0  0  0
  -21.0163   -6.6786   24.8890 C   0  0  0  0  0  0  0  0  0  0  0  0
  -24.5906  -11.7071   20.9134 C   0  0  0  0  0  0  0  0  0  0  0  0
  -25.2513  -13.7224   20.3330 C   0  0  0  0  0  0  0  0  0  0  0  0
  -33.6148  -19.1931   20.7794 C   0  0  0  0  0  0  0  0  0  0  0  0
  -22.8622  -13.6061   21.0588 C   0  0  0  0  0  0  0  0  0  0  0  0
  -25.0051  -32.3809   24.7451 C   0  0  0  0  0  0  0  0  0  0  0  0
  -26.6326  -22.2922   22.9655 C   0  0  0  0  0  0  0  0  0  0  0  0
  -25.1540  -24.3802   22.6316 C   0  0  0  0  0  0  0  0  0  0  0  0
  -22.6439  -31.9601   26.9291 C   0  0  0  0  0  0  0  0  0  0  0  0
  -27.9970  -20.1731   23.2981 C   0  0  0  0  0  0  0  0  0  0  0  0
  -20.1202  -29.9991   28.1260 C   0  0  0  0  0  0  0  0  0  0  0  0
  -30.7008  -14.8518   20.5103 C   0  0  0  0  0  0  0  0  0  0  0  0
  -27.6520  -36.7313   25.0989 C   0  0  0  0  0  0  0  0  0  0  0  0
  -23.0370  -31.8483   23.2622 C   0  0  0  0  0  0  0  0  0  0  0  0
  -23.2515  -29.9549   25.5236 C   0  0  0  0  0  0  0  0  0  0  0  0
  -26.9649  -35.7882   26.0832 C   0  0  0  0  0  0  0  0  0  0  0  0
  -29.6911  -12.0305   18.5872 C   0  0  0  0  0  0  0  0  0  0  0  0
  -27.3707  -34.3434   25.8101 C   0  0  0  0  0  0  0  0  0  0  0  0
  -28.2379  -11.8044   19.0106 C   0  0  0  0  0  0  0  0  0  0  0  0
  -30.5586  -12.4875   19.7586 C   0  0  0  0  0  0  0  0  0  0  0  0
  -28.5965  -13.4287   20.9133 C   0  0  0  0  0  0  0  0  0  0  0  0
  -26.9412  -33.9060   24.4045 C   0  0  1  0  0  0  0  0  0  0  0  0
  -23.5084  -32.2958   24.6424 C   0  0  1  0  0  0  0  0  0  0  0  0
  -27.6700  -13.0300   19.7530 C   0  0  2  0  0  0  0  0  0  0  0  0
  -18.3944  -29.9022   29.9452 C   0  0  0  0  0  0  0  0  0  0  0  0
  -24.8103  -31.2053   28.9408 C   0  0  0  0  0  0  0  0  0  0  0  0
  -23.0222  -30.2250   30.3934 C   0  0  0  0  0  0  0  0  0  0  0  0
  -22.9960  -32.6614   29.8587 C   0  0  0  0  0  0  0  0  0  0  0  0
  -17.8962  -29.9626   26.1737 C   0  0  0  0  0  0  0  0  0  0  0  0
  -25.9486  -23.5000   23.5756 C   0  0  0  0  0  0  0  0  0  0  0  0
  -27.4057  -21.4172   23.9328 C   0  0  0  0  0  0  0  0  0  0  0  0
  -24.4499  -25.5614   23.2713 C   0  0  0  0  0  0  0  0  0  1  0  0
  -22.3931  -30.9910   28.0592 C   0  0  1  0  0  0  0  0  0  0  0  0
  -18.6893  -30.3247   28.5144 C   0  0  2  0  0  0  0  0  0  0  0  0
  -23.3088  -31.2617   29.2862 C   0  0  0  0  0  0  0  0  0  0  0  0
  -25.8709  -11.5523   20.5659 N   0  0  0  0  0  0  0  0  0  0  0  0
  -34.4082  -18.3481   20.1950 N   0  0  0  0  0  0  0  0  0  0  0  0
  -26.2449  -12.7952   20.2176 N   0  0  0  0  0  0  0  0  0  0  0  0
  -23.0572  -31.4022   25.7110 N   0  0  0  0  0  0  0  0  0  0  0  0
  -29.9608  -13.6546   20.4108 N   0  0  0  0  0  0  0  0  0  0  0  0
  -31.9202  -21.1085   22.0644 N   0  0  0  0  0  0  0  0  0  0  0  0
  -25.4566  -15.0205   20.0242 N   0  0  0  0  0  0  0  0  0  0  0  0
  -21.8435  -12.7615   21.5205 N   0  0  0  0  0  0  0  0  0  0  0  0
  -29.2970  -20.3800   22.8559 N   0  0  0  0  0  0  0  0  0  0  0  0
  -30.0174  -15.9030   21.1208 N   0  0  0  0  0  0  0  0  0  0  0  0
  -25.5254  -33.6074   24.3787 N   0  0  0  0  0  0  0  0  0  0  0  0
  -20.9656  -31.0649   28.3511 N   0  0  0  0  0  0  0  0  0  0  0  0
  -17.7347  -29.6223   27.6108 N   0  3  0  0  0  0  0  0  0  0  0  0
  -22.6167  -14.8233   20.8804 O   0  0  0  0  0  0  0  0  0  0  0  0
  -25.6406  -31.4063   25.1298 O   0  0  0  0  0  0  0  0  0  0  0  0
  -26.5489  -22.0173   21.7697 O   0  0  0  0  0  0  0  0  0  0  0  0
  -25.1060  -24.1811   21.4191 O   0  0  0  0  0  0  0  0  0  0  0  0
  -22.4722  -33.1669   27.1181 O   0  0  0  0  0  0  0  0  0  0  0  0
  -27.3244  -19.1504   23.1985 O   0  0  0  0  0  0  0  0  0  0  0  0
  -20.4552  -28.9072   27.6721 O   0  0  0  0  0  0  0  0  0  0  0  0
  -31.8458  -14.9462   20.0608 O   0  0  0  0  0  0  0  0  0  0  0  0
  -21.5990   -7.3095   22.6392 O   0  0  0  0  0  0  0  0  0  0  0  0
  -23.7252  -26.3090   22.2955 O   0  0  0  0  0  0  0  0  0  1  0  0
  -18.4357   -7.9648   27.1078 F   0  0  0  0  0  0  0  0  0  0  0  0
  -21.9879   -5.7558   24.8925 F   0  0  0  0  0  0  0  0  0  0  0  0
  1  2  1  0  0  0  0
  1  5  2  0  0  0  0
  2  6  2  0  0  0  0
  3  8  2  0  0  0  0
  3 17  1  0  0  0  0
  4  9  1  0  0  0  0
  4 17  2  0  0  0  0
  5 20  1  0  0  0  0
  6 22  1  0  0  0  0
  7 10  2  0  0  0  0
  7 21  1  0  0  0  0
  8 27  1  0  0  0  0
  9 27  2  0  0  0  0
 10 28  1  0  0  0  0
 11 12  2  0  0  0  0
 11 29  1  0  0  0  0
 12 30  1  0  0  0  0
 13 18  2  0  0  0  0
 13 24  1  0  0  0  0
 14 23  1  0  0  0  0
 14 28  2  0  0  0  0
 15 24  2  0  0  0  0
 15 25  1  0  0  0  0
 16 30  2  0  0  0  0
 16 31  1  0  0  0  0
 17 32  1  0  0  0  0
 18 26  1  0  0  0  0
 18 34  1  0  0  0  0
 19 32  1  0  0  0  0
 19 33  2  0  0  0  0
 19 35  1  0  0  0  0
 20 22  2  0  0  0  0
 20 43  1  0  0  0  0
 21 23  2  0  0  0  0
 21 44  1  0  0  0  0
 22 52  1  0  0  0  0
 23 45  1  0  0  0  0
 24 75  1  0  0  0  0
 25 26  2  0  0  0  0
 25 74  1  0  0  0  0
 26 71  1  0  0  0  0
 27 87  1  0  0  0  0
 28 88  1  0  0  0  0
 29 31  2  0  0  0  0
 29 87  1  0  0  0  0
 30 89  1  0  0  0  0
 31 90  1  0  0  0  0
 32 66  2  0  0  0  0
 33 68  1  0  0  0  0
 33 72  1  0  0  0  0
 34 67  2  0  0  0  0
 35 73  1  0  0  0  0
 35 79  2  0  0  0  0
 36 53  1  0  0  0  0
 36 76  1  0  0  0  0
 36 80  2  0  0  0  0
 37 60  1  0  0  0  0
 37 61  1  0  0  0  0
 37 81  2  0  0  0  0
 38 60  1  0  0  0  0
 38 62  1  0  0  0  0
 38 82  2  0  0  0  0
 39 63  1  0  0  0  0
 39 69  1  0  0  0  0
 39 83  2  0  0  0  0
 40 61  1  0  0  0  0
 40 74  1  0  0  0  0
 40 84  2  0  0  0  0
 41 64  1  0  0  0  0
 41 77  1  0  0  0  0
 41 85  2  0  0  0  0
 42 70  1  0  0  0  0
 42 75  1  0  0  0  0
 42 86  2  0  0  0  0
 43 46  1  0  0  0  0
 44 53  1  0  0  0  0
 45 69  1  0  0  0  0
 46 48  1  0  0  0  0
 47 49  1  0  0  0  0
 47 50  1  0  0  0  0
 48 52  1  0  0  0  0
 49 54  1  0  0  0  0
 50 70  1  0  0  0  0
 51 54  1  0  0  0  0
 51 70  1  0  0  0  0
 52 76  1  0  0  0  0
 53 69  1  0  0  0  0
 54 68  1  0  0  0  0
 55 64  1  0  0  0  0
 56 65  1  0  0  0  0
 57 65  1  0  0  0  0
 58 65  1  0  0  0  0
 59 78  1  0  0  0  0
 62 88  1  0  0  0  0
 63 65  1  0  0  0  0
 63 77  1  0  0  0  0
 64 78  1  0  0  0  0
 66 68  1  0  0  0  0
M  CHG  1  78   1
M  ISO  4  42 100  62 101  75 100  88 101
M  END
> <Batch ID>
0172

> <Smiles>
CNC(C)C(=O)NC(C(=O)N1Cc2cc([101O:1][101CH2:1]C(=O)CC(=O)CC(=O)Nc3cc([100NH:0][100C:0](=O)N4CCCC(n5nc(-c6ccc(Oc7ccc(F)cc7F)cc6)c(C(N)=O)c5N)C4)cc(C=N)c3N)ccc2CC1C(=O)NC1CCCc2ccccc21)C(C)(C)C

> <Shape>
0.254

> <Color>
0.162

> <Negative vol penalty>
0.000

$$$$

  -OEChem-04052304263D

 89 97  0     1  0  0  0  0  0999 V2000
  -20.8361  -36.2541   17.2166 C   0  0  0  0  0  0  0  0  0  0  0  0
  -21.2021  -34.9646   16.8443 C   0  0  0  0  0  0  0  0  0  0  0  0
  -25.4149  -11.9904   20.4785 C   0  0  0  0  0  0  0  0  0  0  0  0
  -25.5350  -12.9523   22.6915 C   0  0  0  0  0  0  0  0  0  0  0  0
  -21.5927  -36.9471   18.1606 C   0  0  0  0  0  0  0  0  0  0  0  0
  -22.3258  -34.3678   17.4149 C   0  0  0  0  0  0  0  0  0  0  0  0
  -24.8274  -27.9670   19.4369 C   0  0  0  0  0  0  0  0  0  0  0  0
  -28.9699  -22.4097   24.4766 C   0  0  0  0  0  0  0  0  0  0  0  0
  -25.9869  -10.8126   20.9594 C   0  0  0  0  0  0  0  0  0  0  0  0
  -26.1070  -11.7745   23.1724 C   0  0  0  0  0  0  0  0  0  0  0  0
  -25.9386  -27.1424   19.2673 C   0  0  0  0  0  0  0  0  0  0  0  0
  -24.9887   -8.0840   22.6889 C   0  0  0  0  0  0  0  0  0  0  0  0
  -27.6404  -22.0373   24.6749 C   0  0  0  0  0  0  0  0  0  0  0  0
  -24.4144   -6.8759   22.2934 C   0  0  0  0  0  0  0  0  0  0  0  0
  -27.1244  -28.4050   20.9462 C   0  0  0  0  0  0  0  0  0  0  0  0
  -26.5067   -6.2117   21.2843 C   0  0  0  0  0  0  0  0  0  0  0  0
  -25.1890  -13.0603   21.3446 C   0  0  0  0  0  0  0  0  0  0  0  0
  -23.2284  -14.5935   20.7855 C   0  0  0  0  0  0  0  0  0  0  0  0
  -22.7207  -36.3549   18.7502 C   0  0  0  0  0  0  0  0  0  0  0  0
  -24.8602  -29.0255   20.3562 C   0  0  0  0  0  0  0  0  0  0  0  0
  -23.0990  -35.0541   18.3666 C   0  0  0  0  0  0  0  0  0  0  0  0
  -26.0114  -29.2401   21.1274 C   0  0  0  0  0  0  0  0  0  0  0  0
  -29.6165  -22.0794   23.2855 C   0  0  0  0  0  0  0  0  0  0  0  0
  -27.6040  -21.0041   22.4913 C   0  0  0  0  0  0  0  0  0  0  0  0
  -26.3329  -10.7047   22.3064 C   0  0  0  0  0  0  0  0  0  0  0  0
  -27.0884  -27.3631   20.0199 C   0  0  0  0  0  0  0  0  0  0  0  0
  -26.3220   -8.3559   22.3820 C   0  0  0  0  0  0  0  0  0  0  0  0
  -25.1734   -5.9398   21.5911 C   0  0  0  0  0  0  0  0  0  0  0  0
  -26.9575  -21.3345   23.6823 C   0  0  0  0  0  0  0  0  0  0  0  0
  -27.0810   -7.4198   21.6798 C   0  0  0  0  0  0  0  0  0  0  0  0
  -28.9335  -21.3766   22.2929 C   0  0  0  0  0  0  0  0  0  0  0  0
  -24.5987  -14.2774   20.8483 C   0  0  0  0  0  0  0  0  0  0  0  0
  -23.1913  -15.8538   20.2406 C   0  0  0  0  0  0  0  0  0  0  0  0
  -22.0906  -13.8175   21.1841 C   0  0  0  0  0  0  0  0  0  0  0  0
  -24.6025  -32.1867   20.1473 C   0  0  0  0  0  0  0  0  0  0  0  0
  -29.6950  -25.0100   20.9331 C   0  0  0  0  0  0  0  0  0  0  0  0
  -24.6598  -32.0150   23.3861 C   0  0  0  0  0  0  0  0  0  0  0  0
  -25.5676  -30.2775   26.1796 C   0  0  0  0  0  0  0  0  0  0  0  0
  -27.1135  -20.3597   20.1058 C   0  0  0  0  0  0  0  0  0  0  0  0
  -23.5347  -37.1611   19.7310 C   0  0  0  0  0  0  0  0  0  0  0  0
  -23.6438  -29.8895   20.5465 C   0  0  0  0  0  0  0  0  0  0  0  0
  -26.0904  -30.3502   22.1422 C   0  0  0  0  0  0  0  0  0  0  0  0
  -24.4947  -36.3166   20.5651 C   0  0  0  0  0  0  0  0  0  0  0  0
  -25.6383  -18.7361   17.3014 C   0  0  0  0  0  0  0  0  0  0  0  0
  -25.2557  -35.3384   19.6758 C   0  0  0  0  0  0  0  0  0  0  0  0
  -25.0743  -17.4401   17.8881 C   0  0  0  0  0  0  0  0  0  0  0  0
  -26.9634  -19.1248   17.9546 C   0  0  0  0  0  0  0  0  0  0  0  0
  -26.3716  -17.8989   20.0079 C   0  0  0  0  0  0  0  0  0  0  0  0
  -24.2970  -34.3635   18.9815 C   0  0  1  0  0  0  0  0  0  0  0  0
  -23.9687  -31.2559   21.1421 C   0  0  1  0  0  0  0  0  0  0  0  0
  -25.0049  -17.5013   19.4267 C   0  0  2  0  0  0  0  0  0  0  0  0
  -25.5140  -30.4086   28.6851 C   0  0  0  0  0  0  0  0  0  0  0  0
  -26.9523  -34.0276   23.3274 C   0  0  0  0  0  0  0  0  0  0  0  0
  -27.4702  -33.4015   25.6956 C   0  0  0  0  0  0  0  0  0  0  0  0
  -25.2647  -34.4210   25.1306 C   0  0  0  0  0  0  0  0  0  0  0  0
  -23.9219  -27.8266   26.3884 C   0  0  0  0  0  0  0  0  0  0  0  0
  -33.8694  -23.6785   22.2673 C   0  0  0  0  0  0  0  0  0  0  0  0
  -31.0473  -22.4826   23.0752 C   0  0  0  0  0  0  0  0  0  0  0  0
  -30.6234  -24.6959   22.0797 C   0  0  0  0  0  0  0  0  0  0  0  0
  -29.0151  -26.3640   20.9924 C   0  0  0  0  0  0  0  0  0  1  0  0
  -25.7415  -32.0365   24.4388 C   0  0  1  0  0  0  0  0  0  0  0  0
  -24.7968  -29.9179   27.4370 C   0  0  2  0  0  0  0  0  0  0  0  0
  -26.3567  -33.4518   24.6277 C   0  0  0  0  0  0  0  0  0  0  0  0
  -25.3760  -15.2577   20.3805 N   0  0  0  0  0  0  0  0  0  0  0  0
  -24.4911  -16.2022   20.0185 N   0  0  0  0  0  0  0  0  0  0  0  0
  -24.8773  -31.1718   22.2873 N   0  0  0  0  0  0  0  0  0  0  0  0
  -26.8205  -19.1668   19.4115 N   0  0  0  0  0  0  0  0  0  0  0  0
  -22.1741  -16.6868   19.9345 N   0  0  0  0  0  0  0  0  0  0  0  0
  -22.3076  -12.5430   21.7255 N   0  0  0  0  0  0  0  0  0  0  0  0
  -26.9097  -20.2899   21.4835 N   0  0  0  0  0  0  0  0  0  0  0  0
  -23.8697  -33.3325   19.9028 N   0  0  0  0  0  0  0  0  0  0  0  0
  -25.1458  -31.4777   25.6477 N   0  0  0  0  0  0  0  0  0  0  0  0
  -31.2094  -23.3613   21.8835 N   0  0  1  0  0  0  0  0  0  0  0  0
  -24.6330  -28.4402   27.5394 N   0  3  0  0  0  0  0  0  0  0  0  0
  -20.9155  -14.2349   21.0486 O   0  0  0  0  0  0  0  0  0  0  0  0
  -25.6774  -31.8883   19.6403 O   0  0  0  0  0  0  0  0  0  0  0  0
  -29.4929  -24.2267   20.0060 O   0  0  0  0  0  0  0  0  0  0  0  0
  -23.6553  -32.7150   23.5367 O   0  0  0  0  0  0  0  0  0  0  0  0
  -26.4575  -29.5668   25.7177 O   0  0  0  0  0  0  0  0  0  0  0  0
  -27.4897  -21.3770   19.5180 O   0  0  0  0  0  0  0  0  0  0  0  0
  -32.9348  -21.8555   20.6473 O   0  0  0  0  0  0  0  0  0  0  0  0
  -32.7296  -24.2763   19.9944 O   0  0  0  0  0  0  0  0  0  0  0  0
  -26.8908   -9.5554   22.7760 O   0  0  0  0  0  0  0  0  0  0  0  0
  -28.1747  -26.5600   19.8558 O   0  0  0  0  0  0  0  0  0  1  0  0
  -24.6223   -4.7790   21.2128 F   0  0  0  0  0  0  0  0  0  0  0  0
  -25.6800  -20.9813   23.8837 F   0  0  0  0  0  0  0  0  0  0  0  0
  -28.3626   -7.6749   21.3831 F   0  0  0  0  0  0  0  0  0  0  0  0
  -29.5572  -21.0602   21.1481 F   0  0  0  0  0  0  0  0  0  0  0  0
  -32.6900  -23.2392   21.0082 S   0  0  0  0  0  0  0  0  0  0  0  0
  1  2  1  0  0  0  0
  1  5  2  0  0  0  0
  2  6  2  0  0  0  0
  3  9  2  0  0  0  0
  3 17  1  0  0  0  0
  4 10  1  0  0  0  0
  4 17  2  0  0  0  0
  5 19  1  0  0  0  0
  6 21  1  0  0  0  0
  7 11  2  0  0  0  0
  7 20  1  0  0  0  0
  8 13  2  0  0  0  0
  8 23  1  0  0  0  0
  9 25  1  0  0  0  0
 10 25  2  0  0  0  0
 11 26  1  0  0  0  0
 12 14  2  0  0  0  0
 12 27  1  0  0  0  0
 13 29  1  0  0  0  0
 14 28  1  0  0  0  0
 15 22  1  0  0  0  0
 15 26  2  0  0  0  0
 16 28  2  0  0  0  0
 16 30  1  0  0  0  0
 17 32  1  0  0  0  0
 18 32  1  0  0  0  0
 18 33  2  0  0  0  0
 18 34  1  0  0  0  0
 19 21  2  0  0  0  0
 19 40  1  0  0  0  0
 20 22  2  0  0  0  0
 20 41  1  0  0  0  0
 21 49  1  0  0  0  0
 22 42  1  0  0  0  0
 23 31  2  0  0  0  0
 23 58  1  0  0  0  0
 24 29  2  0  0  0  0
 24 31  1  0  0  0  0
 24 70  1  0  0  0  0
 25 83  1  0  0  0  0
 26 84  1  0  0  0  0
 27 30  2  0  0  0  0
 27 83  1  0  0  0  0
 28 85  1  0  0  0  0
 29 86  1  0  0  0  0
 30 87  1  0  0  0  0
 31 88  1  0  0  0  0
 32 64  2  0  0  0  0
 33 65  1  0  0  0  0
 33 68  1  0  0  0  0
 34 69  1  0  0  0  0
 34 75  2  0  0  0  0
 35 50  1  0  0  0  0
 35 71  1  0  0  0  0
 35 76  2  0  0  0  0
 36 59  1  0  0  0  0
 36 60  1  0  0  0  0
 36 77  2  0  0  0  0
 37 61  1  0  0  0  0
 37 66  1  0  0  0  0
 37 78  2  0  0  0  0
 38 62  1  0  0  0  0
 38 72  1  0  0  0  0
 38 79  2  0  0  0  0
 39 67  1  0  0  0  0
 39 70  1  0  0  0  0
 39 80  2  0  0  0  0
 40 43  1  0  0  0  0
 41 50  1  0  0  0  0
 42 66  1  0  0  0  0
 43 45  1  0  0  0  0
 44 46  1  0  0  0  0
 44 47  1  0  0  0  0
 45 49  1  0  0  0  0
 46 51  1  0  0  0  0
 47 67  1  0  0  0  0
 48 51  1  0  0  0  0
 48 67  1  0  0  0  0
 49 71  1  0  0  0  0
 50 66  1  0  0  0  0
 51 65  1  0  0  0  0
 52 62  1  0  0  0  0
 53 63  1  0  0  0  0
 54 63  1  0  0  0  0
 55 63  1  0  0  0  0
 56 74  1  0  0  0  0
 57 89  1  0  0  0  0
 58 73  1  0  0  0  0
 59 73  1  0  0  0  0
 60 84  1  0  0  0  0
 61 63  1  0  0  0  0
 61 72  1  0  0  0  0
 62 74  1  0  0  0  0
 64 65  1  0  0  0  0
 73 89  1  0  0  0  0
 81 89  2  0  0  0  0
 82 89  2  0  0  0  0
M  CHG  1  74   1
M  ISO  4  39 100  60 101  70 100  84 101
M  END
> <Batch ID>
0172

> <Smiles>
CNC(C)C(=O)NC(C(=O)N1Cc2cc([101O:1][101CH2:1]C(=O)CN(Cc3ccc(F)c([100NH:0][100C:0](=O)N4CCCC(n5nc(-c6ccc(Oc7ccc(F)cc7F)cc6)c(C(N)=O)c5N)C4)c3F)S(C)(=O)=O)ccc2CC1C(=O)NC1CCCc2ccccc21)C(C)(C)C

> <Shape>
0.219

> <Color>
0.109

> <Negative vol penalty>
0.000

$$$$

  -OEChem-04052304263D

 89 97  0     1  0  0  0  0  0999 V2000
  -18.6410  -25.1538   21.0649 C   0  0  0  0  0  0  0  0  0  0  0  0
  -19.9576  -24.9571   21.4688 C   0  0  0  0  0  0  0  0  0  0  0  0
  -23.3689   -9.6414   19.9986 C   0  0  0  0  0  0  0  0  0  0  0  0
  -23.9019   -9.9219   22.3383 C   0  0  0  0  0  0  0  0  0  0  0  0
  -18.2413  -26.3968   20.5759 C   0  0  0  0  0  0  0  0  0  0  0  0
  -20.8757  -26.0030   21.3828 C   0  0  0  0  0  0  0  0  0  0  0  0
  -23.7305  -26.4290   25.5438 C   0  0  0  0  0  0  0  0  0  0  0  0
  -22.7284   -8.4368   20.2889 C   0  0  0  0  0  0  0  0  0  0  0  0
  -23.2614   -8.7173   22.6286 C   0  0  0  0  0  0  0  0  0  0  0  0
  -24.7832  -25.5265   25.6889 C   0  0  0  0  0  0  0  0  0  0  0  0
  -20.0910   -7.6157   23.0228 C   0  0  0  0  0  0  0  0  0  0  0  0
  -19.2341   -7.5878   24.1230 C   0  0  0  0  0  0  0  0  0  0  0  0
  -29.0105  -18.1817   23.0557 C   0  0  0  0  0  0  0  0  0  0  0  0
  -26.3253  -27.2088   24.9071 C   0  0  0  0  0  0  0  0  0  0  0  0
  -31.3171  -17.5374   22.7373 C   0  0  0  0  0  0  0  0  0  0  0  0
  -20.5943   -5.8685   25.1386 C   0  0  0  0  0  0  0  0  0  0  0  0
  -23.9557  -10.3840   21.0233 C   0  0  0  0  0  0  0  0  0  0  0  0
  -29.4139  -19.1973   23.9226 C   0  0  0  0  0  0  0  0  0  0  0  0
  -24.0432  -12.9130   20.7010 C   0  0  0  0  0  0  0  0  0  0  0  0
  -19.1527  -27.4613   20.4929 C   0  0  0  0  0  0  0  0  0  0  0  0
  -23.9662  -27.7269   25.0681 C   0  0  0  0  0  0  0  0  0  0  0  0
  -20.4883  -27.2611   20.8910 C   0  0  0  0  0  0  0  0  0  0  0  0
  -25.2742  -28.1267   24.7593 C   0  0  0  0  0  0  0  0  0  0  0  0
  -29.9621  -17.3517   22.4631 C   0  0  0  0  0  0  0  0  0  0  0  0
  -31.7205  -18.5530   23.6042 C   0  0  0  0  0  0  0  0  0  0  0  0
  -22.6747   -7.9747   21.6039 C   0  0  0  0  0  0  0  0  0  0  0  0
  -26.0804  -25.9154   25.3678 C   0  0  0  0  0  0  0  0  0  0  0  0
  -21.1994   -6.7700   22.9803 C   0  0  0  0  0  0  0  0  0  0  0  0
  -19.4858   -6.7143   25.1810 C   0  0  0  0  0  0  0  0  0  0  0  0
  -21.4511   -5.8964   24.0382 C   0  0  0  0  0  0  0  0  0  0  0  0
  -30.7688  -19.3829   24.1968 C   0  0  0  0  0  0  0  0  0  0  0  0
  -24.6179  -11.6282   20.7240 C   0  0  0  0  0  0  0  0  0  0  0  0
  -25.0811  -13.7475   20.3654 C   0  0  0  0  0  0  0  0  0  0  0  0
  -28.3972  -20.0792   24.5517 C   0  0  0  0  0  0  0  0  0  0  0  0
  -22.6918  -13.3162   20.9601 C   0  0  0  0  0  0  0  0  0  0  0  0
  -23.0269  -29.3897   22.5272 C   0  0  0  0  0  0  0  0  0  0  0  0
  -28.0327  -22.8664   26.0621 C   0  0  0  0  0  0  0  0  0  0  0  0
  -24.5722  -31.8147   24.0285 C   0  0  0  0  0  0  0  0  0  0  0  0
  -26.9643  -32.7834   26.2615 C   0  0  0  0  0  0  0  0  0  0  0  0
  -30.3674  -15.4088   20.9116 C   0  0  0  0  0  0  0  0  0  0  0  0
  -18.6858  -28.7731   19.9133 C   0  0  0  0  0  0  0  0  0  0  0  0
  -22.8235  -28.6970   24.9427 C   0  0  0  0  0  0  0  0  0  0  0  0
  -25.5831  -29.5151   24.2640 C   0  0  0  0  0  0  0  0  0  0  0  0
  -19.6283  -29.9379   20.2053 C   0  0  0  0  0  0  0  0  0  0  0  0
  -29.7407  -12.6989   18.6888 C   0  0  0  0  0  0  0  0  0  0  0  0
  -21.0740  -29.5367   19.9297 C   0  0  0  0  0  0  0  0  0  0  0  0
  -28.3048  -12.2845   19.0182 C   0  0  0  0  0  0  0  0  0  0  0  0
  -30.5083  -13.1267   19.9383 C   0  0  0  0  0  0  0  0  0  0  0  0
  -28.4135  -13.7445   21.0782 C   0  0  0  0  0  0  0  0  0  0  0  0
  -21.5075  -28.3783   20.8362 C   0  0  1  0  0  0  0  0  0  0  0  0
  -23.1069  -29.8303   23.9614 C   0  0  1  0  0  0  0  0  0  0  0  0
  -27.5807  -13.3672   19.8422 C   0  0  2  0  0  0  0  0  0  0  0  0
  -28.0227  -34.8332   27.2491 C   0  0  0  0  0  0  0  0  0  0  0  0
  -29.3684  -21.7658   28.5793 C   0  0  0  0  0  0  0  0  0  0  0  0
  -27.7177  -19.8806   28.5447 C   0  0  0  0  0  0  0  0  0  0  0  0
  -26.1463  -32.2414   21.4497 C   0  0  0  0  0  0  0  0  0  0  0  0
  -27.7887  -33.6032   22.7598 C   0  0  0  0  0  0  0  0  0  0  0  0
  -25.4137  -34.3459   22.5852 C   0  0  0  0  0  0  0  0  0  0  0  0
  -26.1071  -32.0493   28.9974 C   0  0  0  0  0  0  0  0  0  0  0  0
  -26.7886  -23.7317   25.9889 C   0  0  0  0  0  0  0  0  0  1  0  0
  -27.8294  -21.4348   26.5507 C   0  0  2  0  0  0  0  0  0  0  0  0
  -25.9848  -32.3472   24.0244 C   0  0  1  0  0  0  0  0  0  0  0  0
  -26.9314  -33.7851   27.4016 C   0  0  2  0  0  0  0  0  0  0  0  0
  -27.9936  -21.3131   28.0772 C   0  0  0  0  0  0  0  0  0  0  0  0
  -26.3276  -33.1076   22.7122 C   0  0  0  0  0  0  0  0  0  0  0  0
  -25.9199  -11.6403   20.4264 N   0  0  0  0  0  0  0  0  0  0  0  0
  -26.1719  -12.9431   20.2132 N   0  0  0  0  0  0  0  0  0  0  0  0
  -24.4312  -30.4252   24.1522 N   0  0  0  0  0  0  0  0  0  0  0  0
  -29.7642  -14.1572   20.6658 N   0  0  0  0  0  0  0  0  0  0  0  0
  -33.0916  -18.7389   23.8792 N   0  0  0  0  0  0  0  0  0  0  0  0
  -25.1581  -15.0836   20.1884 N   0  0  0  0  0  0  0  0  0  0  0  0
  -21.7524  -12.3304   21.2915 N   0  0  0  0  0  0  0  0  0  0  0  0
  -29.5524  -16.3198   21.5827 N   0  0  0  0  0  0  0  0  0  0  0  0
  -28.7210  -20.5860   25.8033 N   0  0  0  0  0  0  0  0  0  0  0  0
  -21.8014  -28.8617   22.1683 N   0  0  0  0  0  0  0  0  0  0  0  0
  -26.1215  -33.1512   25.2340 N   0  0  0  0  0  0  0  0  0  0  0  0
  -27.1251  -33.0914   28.7063 N   0  3  0  0  0  0  0  0  0  0  0  0
  -27.3419  -20.2945   23.9613 O   0  0  0  0  0  0  0  0  0  0  0  0
  -22.3246  -14.5132   20.8834 O   0  0  0  0  0  0  0  0  0  0  0  0
  -24.0042  -29.5206   21.7995 O   0  0  0  0  0  0  0  0  0  0  0  0
  -29.1442  -23.3092   25.7715 O   0  0  0  0  0  0  0  0  0  0  0  0
  -23.6284  -32.6032   23.9329 O   0  0  0  0  0  0  0  0  0  0  0  0
  -27.6701  -31.7773   26.2788 O   0  0  0  0  0  0  0  0  0  0  0  0
  -31.5123  -15.6637   20.5290 O   0  0  0  0  0  0  0  0  0  0  0  0
  -22.0496   -6.7994   21.8876 O   0  0  0  0  0  0  0  0  0  0  0  0
  -27.1097  -25.0362   25.5078 O   0  0  0  0  0  0  0  0  0  1  0  0
  -18.6638   -6.6887   26.2382 F   0  0  0  0  0  0  0  0  0  0  0  0
  -22.5150   -5.0824   24.0037 F   0  0  0  0  0  0  0  0  0  0  0  0
  -31.1568  -20.3597   25.0310 F   0  0  0  0  0  0  0  0  0  0  0  0
  1  2  1  0  0  0  0
  1  5  2  0  0  0  0
  2  6  2  0  0  0  0
  3  8  2  0  0  0  0
  3 17  1  0  0  0  0
  4  9  1  0  0  0  0
  4 17  2  0  0  0  0
  5 20  1  0  0  0  0
  6 22  1  0  0  0  0
  7 10  2  0  0  0  0
  7 21  1  0  0  0  0
  8 26  1  0  0  0  0
  9 26  2  0  0  0  0
 10 27  1  0  0  0  0
 11 12  2  0  0  0  0
 11 28  1  0  0  0  0
 12 29  1  0  0  0  0
 13 18  1  0  0  0  0
 13 24  2  0  0  0  0
 14 23  1  0  0  0  0
 14 27  2  0  0  0  0
 15 24  1  0  0  0  0
 15 25  2  0  0  0  0
 16 29  2  0  0  0  0
 16 30  1  0  0  0  0
 17 32  1  0  0  0  0
 18 31  2  0  0  0  0
 18 34  1  0  0  0  0
 19 32  1  0  0  0  0
 19 33  2  0  0  0  0
 19 35  1  0  0  0  0
 20 22  2  0  0  0  0
 20 41  1  0  0  0  0
 21 23  2  0  0  0  0
 21 42  1  0  0  0  0
 22 50  1  0  0  0  0
 23 43  1  0  0  0  0
 24 73  1  0  0  0  0
 25 31  1  0  0  0  0
 25 70  1  0  0  0  0
 26 85  1  0  0  0  0
 27 86  1  0  0  0  0
 28 30  2  0  0  0  0
 28 85  1  0  0  0  0
 29 87  1  0  0  0  0
 30 88  1  0  0  0  0
 31 89  1  0  0  0  0
 32 66  2  0  0  0  0
 33 67  1  0  0  0  0
 33 71  1  0  0  0  0
 34 74  1  0  0  0  0
 34 78  2  0  0  0  0
 35 72  1  0  0  0  0
 35 79  2  0  0  0  0
 36 51  1  0  0  0  0
 36 75  1  0  0  0  0
 36 80  2  0  0  0  0
 37 60  1  0  0  0  0
 37 61  1  0  0  0  0
 37 81  2  0  0  0  0
 38 62  1  0  0  0  0
 38 68  1  0  0  0  0
 38 82  2  0  0  0  0
 39 63  1  0  0  0  0
 39 76  1  0  0  0  0
 39 83  2  0  0  0  0
 40 69  1  0  0  0  0
 40 73  1  0  0  0  0
 40 84  2  0  0  0  0
 41 44  1  0  0  0  0
 42 51  1  0  0  0  0
 43 68  1  0  0  0  0
 44 46  1  0  0  0  0
 45 47  1  0  0  0  0
 45 48  1  0  0  0  0
 46 50  1  0  0  0  0
 47 52  1  0  0  0  0
 48 69  1  0  0  0  0
 49 52  1  0  0  0  0
 49 69  1  0  0  0  0
 50 75  1  0  0  0  0
 51 68  1  0  0  0  0
 52 67  1  0  0  0  0
 53 63  1  0  0  0  0
 54 64  1  0  0  0  0
 55 64  1  0  0  0  0
 56 65  1  0  0  0  0
 57 65  1  0  0  0  0
 58 65  1  0  0  0  0
 59 77  1  0  0  0  0
 60 86  1  0  0  0  0
 61 64  1  0  0  0  0
 61 74  1  0  0  0  0
 62 65  1  0  0  0  0
 62 76  1  0  0  0  0
 63 77  1  0  0  0  0
 66 67  1  0  0  0  0
M  CHG  1  77   1
M  ISO  4  40 100  60 101  73 100  86 101
M  END
> <Batch ID>
0172

> <Smiles>
CNC(C)C(=O)NC(C(=O)N1Cc2cc([101O:1][101CH2:1]C(=O)C(NC(=O)c3cc([100NH:0][100C:0](=O)N4CCCC(n5nc(-c6ccc(Oc7ccc(F)cc7F)cc6)c(C(N)=O)c5N)C4)cc(N)c3F)C(C)C)ccc2CC1C(=O)NC1CCCc2ccccc21)C(C)(C)C

> <Shape>
0.289

> <Color>
0.186

> <Negative vol penalty>
0.000

$$$$

  -OEChem-04052304263D

 87 95  0     1  0  0  0  0  0999 V2000
  -32.9171  -32.6995   16.7813 C   0  0  0  0  0  0  0  0  0  0  0  0
  -32.2842  -31.4622   16.8430 C   0  0  0  0  0  0  0  0  0  0  0  0
  -31.2683  -18.7162   21.5675 C   0  0  0  0  0  0  0  0  0  0  0  0
  -23.6145   -8.7882   19.3518 C   0  0  0  0  0  0  0  0  0  0  0  0
  -23.4037  -10.0375   21.4090 C   0  0  0  0  0  0  0  0  0  0  0  0
  -32.9227  -33.5349   17.8975 C   0  0  0  0  0  0  0  0  0  0  0  0
  -31.6573  -31.0590   18.0216 C   0  0  0  0  0  0  0  0  0  0  0  0
  -26.5652  -27.6930   18.5177 C   0  0  0  0  0  0  0  0  0  0  0  0
  -30.2818  -19.6934   21.4352 C   0  0  0  0  0  0  0  0  0  0  0  0
  -31.0362  -17.4229   21.0991 C   0  0  0  0  0  0  0  0  0  0  0  0
  -22.7989   -7.7859   19.8769 C   0  0  0  0  0  0  0  0  0  0  0  0
  -22.5880   -9.0352   21.9341 C   0  0  0  0  0  0  0  0  0  0  0  0
  -26.3580  -26.3350   18.7557 C   0  0  0  0  0  0  0  0  0  0  0  0
  -22.9781   -5.9714   23.3095 C   0  0  0  0  0  0  0  0  0  0  0  0
  -23.2284   -5.5499   24.6154 C   0  0  0  0  0  0  0  0  0  0  0  0
  -26.0629  -26.7980   21.1047 C   0  0  0  0  0  0  0  0  0  0  0  0
  -20.9961   -6.2143   25.2577 C   0  0  0  0  0  0  0  0  0  0  0  0
  -23.9169   -9.9140   20.1179 C   0  0  0  0  0  0  0  0  0  0  0  0
  -28.8310  -18.0841   20.3662 C   0  0  0  0  0  0  0  0  0  0  0  0
  -24.3524  -12.0825   18.8467 C   0  0  0  0  0  0  0  0  0  0  0  0
  -32.2873  -33.1459   19.0873 C   0  0  0  0  0  0  0  0  0  0  0  0
  -26.5336  -28.6139   19.5747 C   0  0  0  0  0  0  0  0  0  0  0  0
  -31.6556  -31.8894   19.1553 C   0  0  0  0  0  0  0  0  0  0  0  0
  -26.2675  -28.1675   20.8771 C   0  0  0  0  0  0  0  0  0  0  0  0
  -29.0632  -19.3774   20.8345 C   0  0  0  0  0  0  0  0  0  0  0  0
  -29.8175  -17.1069   20.4985 C   0  0  0  0  0  0  0  0  0  0  0  0
  -22.2856   -7.9094   21.1680 C   0  0  0  0  0  0  0  0  0  0  0  0
  -26.1097  -25.8869   20.0498 C   0  0  0  0  0  0  0  0  0  0  0  0
  -21.7368   -6.5144   22.9777 C   0  0  0  0  0  0  0  0  0  0  0  0
  -22.2374   -5.6714   25.5895 C   0  0  0  0  0  0  0  0  0  0  0  0
  -20.7458   -6.6358   23.9518 C   0  0  0  0  0  0  0  0  0  0  0  0
  -24.7599  -10.9495   19.5762 C   0  0  0  0  0  0  0  0  0  0  0  0
  -25.5207  -12.7470   18.5638 C   0  0  0  0  0  0  0  0  0  0  0  0
  -26.9957  -23.7862   20.5717 C   0  0  0  0  0  0  0  0  0  1  0  0
  -27.5531  -17.7521   19.7397 C   0  0  0  0  0  0  0  0  0  0  0  0
  -23.0357  -12.4971   18.4594 C   0  0  0  0  0  0  0  0  0  0  0  0
  -26.9133  -22.4733   20.8193 C   0  0  0  0  0  0  0  0  0  0  0  0
  -28.1675  -21.7106   21.1251 C   0  0  0  0  0  0  0  0  0  0  0  0
  -28.6327  -30.6238   20.8622 C   0  0  0  0  0  0  0  0  0  0  0  0
  -26.0665  -31.5742   22.6040 C   0  0  0  0  0  0  0  0  0  0  0  0
  -22.9962  -30.8188   23.8881 C   0  0  0  0  0  0  0  0  0  0  0  0
  -30.4988  -14.7152   20.0962 C   0  0  0  0  0  0  0  0  0  0  0  0
  -32.3606  -34.0626   20.2827 C   0  0  0  0  0  0  0  0  0  0  0  0
  -26.7326  -30.0788   19.2974 C   0  0  0  0  0  0  0  0  0  0  0  0
  -26.2031  -29.1180   22.0436 C   0  0  0  0  0  0  0  0  0  0  0  0
  -31.3510  -33.7205   21.3754 C   0  0  0  0  0  0  0  0  0  0  0  0
  -30.3431  -11.3026   19.0926 C   0  0  0  0  0  0  0  0  0  0  0  0
  -31.3539  -32.2208   21.6542 C   0  0  0  0  0  0  0  0  0  0  0  0
  -28.8432  -10.9997   19.0689 C   0  0  0  0  0  0  0  0  0  0  0  0
  -30.7137  -12.2436   20.2376 C   0  0  0  0  0  0  0  0  0  0  0  0
  -28.4378  -13.1862   20.2698 C   0  0  0  0  0  0  0  0  0  0  0  0
  -30.9434  -31.4272   20.4080 C   0  0  1  0  0  0  0  0  0  0  0  0
  -27.1883  -30.8627   20.5243 C   0  0  1  0  0  0  0  0  0  0  0  0
  -28.0064  -12.2939   19.0945 C   0  0  2  0  0  0  0  0  0  0  0  0
  -25.0369  -17.6174   20.1153 C   0  0  0  0  0  0  0  0  0  0  0  0
  -21.1606  -31.7831   25.3016 C   0  0  0  0  0  0  0  0  0  0  0  0
  -27.7454  -31.0955   25.1064 C   0  0  0  0  0  0  0  0  0  0  0  0
  -25.6326  -31.1451   26.4487 C   0  0  0  0  0  0  0  0  0  0  0  0
  -26.3439  -33.1658   25.1707 C   0  0  0  0  0  0  0  0  0  0  0  0
  -21.0332  -30.6161   21.6825 C   0  0  0  0  0  0  0  0  0  0  0  0
  -26.4170  -17.2407   20.6312 C   0  0  0  0  0  0  0  0  0  0  0  0
  -25.4536  -31.1576   23.9191 C   0  0  1  0  0  0  0  0  0  0  0  0
  -21.6875  -31.5880   23.8885 C   0  0  2  0  0  0  0  0  0  0  0  0
  -26.2969  -31.6226   25.1398 C   0  0  0  0  0  0  0  0  0  0  0  0
  -26.0835  -10.8942   19.7461 N   0  0  0  0  0  0  0  0  0  0  0  0
  -26.5180  -12.0007   19.1192 N   0  0  0  0  0  0  0  0  0  0  0  0
  -26.4105  -30.5397   21.7223 N   0  0  0  0  0  0  0  0  0  0  0  0
  -29.8835  -13.4493   20.1954 N   0  0  0  0  0  0  0  0  0  0  0  0
  -25.7819  -13.8912   17.8966 N   0  0  0  0  0  0  0  0  0  0  0  0
  -21.9467  -11.6976   18.8325 N   0  0  0  0  0  0  0  0  0  0  0  0
  -28.0795  -20.3882   20.7121 N   0  0  0  0  0  0  0  0  0  0  0  0
  -29.6077  -15.7859   20.0311 N   0  0  0  0  0  0  0  0  0  0  0  0
  -29.5089  -31.4811   20.2242 N   0  0  0  0  0  0  0  0  0  0  0  0
  -24.0854  -31.6640   23.9104 N   0  0  0  0  0  0  0  0  0  0  0  0
  -20.6565  -30.8564   23.0993 N   0  3  0  0  0  0  0  0  0  0  0  0
  -27.3554  -17.8670   18.5221 O   0  0  0  0  0  0  0  0  0  0  0  0
  -22.8324  -13.5370   17.7880 O   0  0  0  0  0  0  0  0  0  0  0  0
  -29.1178  -22.2556   21.6762 O   0  0  0  0  0  0  0  0  0  0  0  0
  -28.9302  -29.7291   21.6449 O   0  0  0  0  0  0  0  0  0  0  0  0
  -26.2274  -32.7736   22.3647 O   0  0  0  0  0  0  0  0  0  0  0  0
  -23.0471  -29.5909   23.8736 O   0  0  0  0  0  0  0  0  0  0  0  0
  -31.7252  -14.8383   20.0434 O   0  0  0  0  0  0  0  0  0  0  0  0
  -25.7147  -21.7894   20.8060 O   0  0  0  0  0  0  0  0  0  0  0  0
  -21.4895   -6.9316   21.6806 O   0  0  0  0  0  0  0  0  0  0  0  0
  -25.9077  -24.5619   20.2851 O   0  0  0  0  0  0  0  0  0  1  0  0
  -22.4774   -5.2652   26.8431 F   0  0  0  0  0  0  0  0  0  0  0  0
  -19.5510   -7.1556   23.6388 F   0  0  0  0  0  0  0  0  0  0  0  0
  1  2  1  0  0  0  0
  1  6  2  0  0  0  0
  2  7  2  0  0  0  0
  3  9  1  0  0  0  0
  3 10  2  0  0  0  0
  4 11  2  0  0  0  0
  4 18  1  0  0  0  0
  5 12  1  0  0  0  0
  5 18  2  0  0  0  0
  6 21  1  0  0  0  0
  7 23  1  0  0  0  0
  8 13  2  0  0  0  0
  8 22  1  0  0  0  0
  9 25  2  0  0  0  0
 10 26  1  0  0  0  0
 11 27  1  0  0  0  0
 12 27  2  0  0  0  0
 13 28  1  0  0  0  0
 14 15  2  0  0  0  0
 14 29  1  0  0  0  0
 15 30  1  0  0  0  0
 16 24  1  0  0  0  0
 16 28  2  0  0  0  0
 17 30  2  0  0  0  0
 17 31  1  0  0  0  0
 18 32  1  0  0  0  0
 19 25  1  0  0  0  0
 19 26  2  0  0  0  0
 19 35  1  0  0  0  0
 20 32  1  0  0  0  0
 20 33  2  0  0  0  0
 20 36  1  0  0  0  0
 21 23  2  0  0  0  0
 21 43  1  0  0  0  0
 22 24  2  0  0  0  0
 22 44  1  0  0  0  0
 23 52  1  0  0  0  0
 24 45  1  0  0  0  0
 25 71  1  0  0  0  0
 26 72  1  0  0  0  0
 27 84  1  0  0  0  0
 28 85  1  0  0  0  0
 29 31  2  0  0  0  0
 29 84  1  0  0  0  0
 30 86  1  0  0  0  0
 31 87  1  0  0  0  0
 32 65  2  0  0  0  0
 33 66  1  0  0  0  0
 33 69  1  0  0  0  0
 34 37  2  0  0  0  0
 34 85  1  0  0  0  0
 35 61  1  0  0  0  0
 35 76  2  0  0  0  0
 36 70  1  0  0  0  0
 36 77  2  0  0  0  0
 37 38  1  0  0  0  0
 37 83  1  0  0  0  0
 38 71  1  0  0  0  0
 38 78  2  0  0  0  0
 39 53  1  0  0  0  0
 39 73  1  0  0  0  0
 39 79  2  0  0  0  0
 40 62  1  0  0  0  0
 40 67  1  0  0  0  0
 40 80  2  0  0  0  0
 41 63  1  0  0  0  0
 41 74  1  0  0  0  0
 41 81  2  0  0  0  0
 42 68  1  0  0  0  0
 42 72  1  0  0  0  0
 42 82  2  0  0  0  0
 43 46  1  0  0  0  0
 44 53  1  0  0  0  0
 45 67  1  0  0  0  0
 46 48  1  0  0  0  0
 47 49  1  0  0  0  0
 47 50  1  0  0  0  0
 48 52  1  0  0  0  0
 49 54  1  0  0  0  0
 50 68  1  0  0  0  0
 51 54  1  0  0  0  0
 51 68  1  0  0  0  0
 52 73  1  0  0  0  0
 53 67  1  0  0  0  0
 54 66  1  0  0  0  0
 55 61  1  0  0  0  0
 56 63  1  0  0  0  0
 57 64  1  0  0  0  0
 58 64  1  0  0  0  0
 59 64  1  0  0  0  0
 60 75  1  0  0  0  0
 62 64  1  0  0  0  0
 62 74  1  0  0  0  0
 63 75  1  0  0  0  0
 65 66  1  0  0  0  0
M  CHG  1  75   1
M  ISO  4  34 101  42 100  72 100  85 101
M  END
> <Batch ID>
0172

> <Smiles>
CCC(=O)c1c(NC(=O)C(=O)[101CH2:1][101O:1]c2ccc3c(c2)CN(C(=O)C(NC(=O)C(C)NC)C(C)(C)C)C(C(=O)NC2CCCc4ccccc42)C3)cccc1[100NH:0][100C:0](=O)N1CCCC(n2nc(-c3ccc(Oc4ccc(F)cc4F)cc3)c(C(N)=O)c2N)C1

> <Shape>
0.284

> <Color>
0.103

> <Negative vol penalty>
0.000

$$$$

  -OEChem-04052304263D

 84 92  0     1  0  0  0  0  0999 V2000
  -20.9382  -31.4240   22.8088 C   0  0  0  0  0  0  0  0  0  0  0  0
  -21.6238  -30.3215   23.3087 C   0  0  0  0  0  0  0  0  0  0  0  0
  -23.2505   -9.6691   20.1483 C   0  0  0  0  0  0  0  0  0  0  0  0
  -23.7134  -10.1329   22.4737 C   0  0  0  0  0  0  0  0  0  0  0  0
  -19.5443  -31.4214   22.7780 C   0  0  0  0  0  0  0  0  0  0  0  0
  -20.9157  -29.2161   23.7791 C   0  0  0  0  0  0  0  0  0  0  0  0
  -22.8582  -24.8303   22.1555 C   0  0  0  0  0  0  0  0  0  0  0  0
  -22.5268   -8.5356   20.5184 C   0  0  0  0  0  0  0  0  0  0  0  0
  -22.9896   -8.9994   22.8439 C   0  0  0  0  0  0  0  0  0  0  0  0
  -24.0023  -24.3629   22.8008 C   0  0  0  0  0  0  0  0  0  0  0  0
  -19.7450   -8.1247   23.2011 C   0  0  0  0  0  0  0  0  0  0  0  0
  -18.8481   -8.2482   24.2622 C   0  0  0  0  0  0  0  0  0  0  0  0
  -22.6439  -22.8537   24.1032 C   0  0  0  0  0  0  0  0  0  0  0  0
  -29.2916  -18.1135   22.6610 C   0  0  0  0  0  0  0  0  0  0  0  0
  -31.0778  -19.3105   23.7625 C   0  0  0  0  0  0  0  0  0  0  0  0
  -31.5641  -17.3094   22.4992 C   0  0  0  0  0  0  0  0  0  0  0  0
  -20.0614   -6.5540   25.4848 C   0  0  0  0  0  0  0  0  0  0  0  0
  -23.8439  -10.4677   21.1259 C   0  0  0  0  0  0  0  0  0  0  0  0
  -24.0988  -12.9469   20.5816 C   0  0  0  0  0  0  0  0  0  0  0  0
  -18.8190  -30.3115   23.2392 C   0  0  0  0  0  0  0  0  0  0  0  0
  -21.5951  -24.3197   22.4875 C   0  0  0  0  0  0  0  0  0  0  0  0
  -19.5108  -29.1992   23.7556 C   0  0  0  0  0  0  0  0  0  0  0  0
  -21.4857  -23.3144   23.4588 C   0  0  0  0  0  0  0  0  0  0  0  0
  -29.7249  -19.1795   23.4493 C   0  0  0  0  0  0  0  0  0  0  0  0
  -30.2112  -17.1784   22.1859 C   0  0  0  0  0  0  0  0  0  0  0  0
  -22.3963   -8.2007   21.8662 C   0  0  0  0  0  0  0  0  0  0  0  0
  -23.8950  -23.3766   23.7768 C   0  0  0  0  0  0  0  0  0  0  0  0
  -20.8000   -7.2158   23.2818 C   0  0  0  0  0  0  0  0  0  0  0  0
  -19.0064   -7.4629   25.4041 C   0  0  0  0  0  0  0  0  0  0  0  0
  -31.9974  -18.3754   23.2875 C   0  0  0  0  0  0  0  0  0  0  0  0
  -20.9583   -6.4305   24.4237 C   0  0  0  0  0  0  0  0  0  0  0  0
  -24.5921  -11.6385   20.7442 C   0  0  0  0  0  0  0  0  0  0  0  0
  -25.1979  -13.6852   20.2164 C   0  0  0  0  0  0  0  0  0  0  0  0
  -25.6672  -21.8526   23.8625 C   0  0  0  0  0  0  0  0  0  1  0  0
  -22.7663  -13.4500   20.7459 C   0  0  0  0  0  0  0  0  0  0  0  0
  -26.7724  -21.3214   24.3992 C   0  0  0  0  0  0  0  0  0  0  0  0
  -27.4201  -20.1511   23.7215 C   0  0  0  0  0  0  0  0  0  0  0  0
  -18.9227  -25.5519   23.6890 C   0  0  0  0  0  0  0  0  0  0  0  0
  -17.7487  -22.5878   23.0905 C   0  0  0  0  0  0  0  0  0  0  0  0
  -18.3705  -19.2639   22.6304 C   0  0  0  0  0  0  0  0  0  0  0  0
  -30.5528  -15.0804   20.8340 C   0  0  0  0  0  0  0  0  0  0  0  0
  -17.3121  -30.3741   23.2296 C   0  0  0  0  0  0  0  0  0  0  0  0
  -20.3735  -24.8154   21.7632 C   0  0  0  0  0  0  0  0  0  0  0  0
  -20.1550  -22.7190   23.8374 C   0  0  0  0  0  0  0  0  0  0  0  0
  -16.6449  -29.0117   23.4002 C   0  0  0  0  0  0  0  0  0  0  0  0
  -29.8425  -12.2179   18.8393 C   0  0  0  0  0  0  0  0  0  0  0  0
  -17.2965  -28.2373   24.5414 C   0  0  0  0  0  0  0  0  0  0  0  0
  -28.3726  -11.9196   19.1437 C   0  0  0  0  0  0  0  0  0  0  0  0
  -30.5886  -12.7139   20.0767 C   0  0  0  0  0  0  0  0  0  0  0  0
  -28.4953  -13.5547   21.0668 C   0  0  0  0  0  0  0  0  0  0  0  0
  -18.7787  -27.9713   24.2520 C   0  0  1  0  0  0  0  0  0  0  0  0
  -19.0830  -24.5908   22.5452 C   0  0  1  0  0  0  0  0  0  0  0  0
  -27.6868  -13.1139   19.8357 C   0  0  2  0  0  0  0  0  0  0  0  0
  -17.2061  -17.0835   22.1974 C   0  0  0  0  0  0  0  0  0  0  0  0
  -16.8504  -22.4916   26.0049 C   0  0  0  0  0  0  0  0  0  0  0  0
  -16.5764  -20.0145   25.7660 C   0  0  0  0  0  0  0  0  0  0  0  0
  -15.2000  -21.5598   24.3732 C   0  0  0  0  0  0  0  0  0  0  0  0
  -19.7967  -18.8785   20.0660 C   0  0  0  0  0  0  0  0  0  0  0  0
  -17.6626  -21.2954   23.8658 C   0  0  1  0  0  0  0  0  0  0  0  0
  -17.8931  -18.2870   21.5710 C   0  0  2  0  0  0  0  0  0  0  0  0
  -16.5974  -21.3527   24.9969 C   0  0  0  0  0  0  0  0  0  0  0  0
  -25.9024  -11.5476   20.5020 N   0  0  0  0  0  0  0  0  0  0  0  0
  -26.2419  -12.8082   20.1835 N   0  0  0  0  0  0  0  0  0  0  0  0
  -18.9892  -23.2411   23.1054 N   0  0  0  0  0  0  0  0  0  0  0  0
  -29.8831  -13.8485   20.6765 N   0  0  0  0  0  0  0  0  0  0  0  0
  -25.3635  -14.9926   19.9234 N   0  0  0  0  0  0  0  0  0  0  0  0
  -21.7563  -12.5551   21.1247 N   0  0  0  0  0  0  0  0  0  0  0  0
  -28.7920  -20.1288   23.9320 N   0  0  0  0  0  0  0  0  0  0  0  0
  -29.7713  -16.0952   21.3854 N   0  0  0  0  0  0  0  0  0  0  0  0
  -18.9222  -26.8811   23.3110 N   0  0  0  0  0  0  0  0  0  0  0  0
  -17.4330  -20.2434   22.8815 N   0  0  0  0  0  0  0  0  0  0  0  0
  -19.0438  -17.8010   20.7583 N   0  3  0  0  0  0  0  0  0  0  0  0
  -22.4766  -14.6540   20.5465 O   0  0  0  0  0  0  0  0  0  0  0  0
  -26.7540  -19.3496   23.0752 O   0  0  0  0  0  0  0  0  0  0  0  0
  -18.8064  -25.1196   24.8297 O   0  0  0  0  0  0  0  0  0  0  0  0
  -16.7540  -22.9988   22.4877 O   0  0  0  0  0  0  0  0  0  0  0  0
  -19.4640  -19.1656   23.1828 O   0  0  0  0  0  0  0  0  0  0  0  0
  -31.7245  -15.2321   20.4788 O   0  0  0  0  0  0  0  0  0  0  0  0
  -27.3443  -21.8101   25.5562 O   0  0  0  0  0  0  0  0  0  0  0  0
  -21.6900   -7.0949   22.2277 O   0  0  0  0  0  0  0  0  0  0  0  0
  -25.0101  -22.9191   24.4087 O   0  0  0  0  0  0  0  0  0  1  0  0
  -18.1460   -7.5827   26.4237 F   0  0  0  0  0  0  0  0  0  0  0  0
  -33.2966  -18.5006   23.5888 F   0  0  0  0  0  0  0  0  0  0  0  0
  -21.9706   -5.5564   24.5075 F   0  0  0  0  0  0  0  0  0  0  0  0
  1  2  1  0  0  0  0
  1  5  2  0  0  0  0
  2  6  2  0  0  0  0
  3  8  2  0  0  0  0
  3 18  1  0  0  0  0
  4  9  1  0  0  0  0
  4 18  2  0  0  0  0
  5 20  1  0  0  0  0
  6 22  1  0  0  0  0
  7 10  2  0  0  0  0
  7 21  1  0  0  0  0
  8 26  1  0  0  0  0
  9 26  2  0  0  0  0
 10 27  1  0  0  0  0
 11 12  2  0  0  0  0
 11 28  1  0  0  0  0
 12 29  1  0  0  0  0
 13 23  1  0  0  0  0
 13 27  2  0  0  0  0
 14 24  2  0  0  0  0
 14 25  1  0  0  0  0
 15 24  1  0  0  0  0
 15 30  2  0  0  0  0
 16 25  2  0  0  0  0
 16 30  1  0  0  0  0
 17 29  2  0  0  0  0
 17 31  1  0  0  0  0
 18 32  1  0  0  0  0
 19 32  1  0  0  0  0
 19 33  2  0  0  0  0
 19 35  1  0  0  0  0
 20 22  2  0  0  0  0
 20 42  1  0  0  0  0
 21 23  2  0  0  0  0
 21 43  1  0  0  0  0
 22 51  1  0  0  0  0
 23 44  1  0  0  0  0
 24 68  1  0  0  0  0
 25 69  1  0  0  0  0
 26 80  1  0  0  0  0
 27 81  1  0  0  0  0
 28 31  2  0  0  0  0
 28 80  1  0  0  0  0
 29 82  1  0  0  0  0
 30 83  1  0  0  0  0
 31 84  1  0  0  0  0
 32 62  2  0  0  0  0
 33 63  1  0  0  0  0
 33 66  1  0  0  0  0
 34 36  2  0  0  0  0
 34 81  1  0  0  0  0
 35 67  1  0  0  0  0
 35 73  2  0  0  0  0
 36 37  1  0  0  0  0
 36 79  1  0  0  0  0
 37 68  1  0  0  0  0
 37 74  2  0  0  0  0
 38 52  1  0  0  0  0
 38 70  1  0  0  0  0
 38 75  2  0  0  0  0
 39 59  1  0  0  0  0
 39 64  1  0  0  0  0
 39 76  2  0  0  0  0
 40 60  1  0  0  0  0
 40 71  1  0  0  0  0
 40 77  2  0  0  0  0
 41 65  1  0  0  0  0
 41 69  1  0  0  0  0
 41 78  2  0  0  0  0
 42 45  1  0  0  0  0
 43 52  1  0  0  0  0
 44 64  1  0  0  0  0
 45 47  1  0  0  0  0
 46 48  1  0  0  0  0
 46 49  1  0  0  0  0
 47 51  1  0  0  0  0
 48 53  1  0  0  0  0
 49 65  1  0  0  0  0
 50 53  1  0  0  0  0
 50 65  1  0  0  0  0
 51 70  1  0  0  0  0
 52 64  1  0  0  0  0
 53 63  1  0  0  0  0
 54 60  1  0  0  0  0
 55 61  1  0  0  0  0
 56 61  1  0  0  0  0
 57 61  1  0  0  0  0
 58 72  1  0  0  0  0
 59 61  1  0  0  0  0
 59 71  1  0  0  0  0
 60 72  1  0  0  0  0
 62 63  1  0  0  0  0
M  CHG  1  72   1
M  ISO  4  34 101  41 100  69 100  81 101
M  END
> <Batch ID>
0172

> <Smiles>
CNC(C)C(=O)NC(C(=O)N1Cc2cc([101O:1][101CH2:1]C(=O)C(=O)Nc3cc(F)cc([100NH:0][100C:0](=O)N4CCCC(n5nc(-c6ccc(Oc7ccc(F)cc7F)cc6)c(C(N)=O)c5N)C4)c3)ccc2CC1C(=O)NC1CCCc2ccccc21)C(C)(C)C

> <Shape>
0.217

> <Color>
0.176

> <Negative vol penalty>
0.000

$$$$

  -OEChem-04052304263D

 86 94  0     1  0  0  0  0  0999 V2000
  -22.8004  -11.1395   18.8203 C   0  0  0  0  0  0  0  0  0  0  0  0
  -22.4812  -12.4512   18.4844 C   0  0  0  0  0  0  0  0  0  0  0  0
  -29.0639  -28.0700   18.8809 C   0  0  0  0  0  0  0  0  0  0  0  0
  -27.5923  -26.1653   19.0897 C   0  0  0  0  0  0  0  0  0  0  0  0
  -23.7297  -10.8856   19.8282 C   0  0  0  0  0  0  0  0  0  0  0  0
  -23.0904  -13.5099   19.1570 C   0  0  0  0  0  0  0  0  0  0  0  0
  -24.6575  -18.9464   16.8128 C   0  0  0  0  0  0  0  0  0  0  0  0
  -19.1251  -29.1965   22.8358 C   0  0  0  0  0  0  0  0  0  0  0  0
  -30.1692  -27.2322   19.0287 C   0  0  0  0  0  0  0  0  0  0  0  0
  -28.6977  -25.3274   19.2374 C   0  0  0  0  0  0  0  0  0  0  0  0
  -24.0347  -20.1934   16.8381 C   0  0  0  0  0  0  0  0  0  0  0  0
  -31.9413  -25.0846   17.1102 C   0  0  0  0  0  0  0  0  0  0  0  0
  -17.8212  -28.7119   22.7333 C   0  0  0  0  0  0  0  0  0  0  0  0
  -33.0136  -25.2663   16.2370 C   0  0  0  0  0  0  0  0  0  0  0  0
  -18.6779  -26.5312   22.1439 C   0  0  0  0  0  0  0  0  0  0  0  0
  -25.3882  -20.8243   18.7326 C   0  0  0  0  0  0  0  0  0  0  0  0
  -34.4637  -25.7275   18.1136 C   0  0  0  0  0  0  0  0  0  0  0  0
  -27.7753  -27.5365   18.9115 C   0  0  0  0  0  0  0  0  0  0  0  0
  -19.9818  -27.0157   22.2464 C   0  0  0  0  0  0  0  0  0  0  0  0
  -25.9944  -28.7630   17.5581 C   0  0  0  0  0  0  0  0  0  0  0  0
  -24.3577  -11.9418   20.5070 C   0  0  0  0  0  0  0  0  0  0  0  0
  -25.6443  -18.6243   17.7556 C   0  0  0  0  0  0  0  0  0  0  0  0
  -24.0280  -13.2700   20.1759 C   0  0  0  0  0  0  0  0  0  0  0  0
  -26.0238  -19.5733   18.7155 C   0  0  0  0  0  0  0  0  0  0  0  0
  -20.2055  -28.3484   22.5923 C   0  0  0  0  0  0  0  0  0  0  0  0
  -29.9862  -25.8609   19.2069 C   0  0  0  0  0  0  0  0  0  0  0  0
  -24.3980  -21.1316   17.7999 C   0  0  0  0  0  0  0  0  0  0  0  0
  -32.1301  -25.2245   18.4852 C   0  0  0  0  0  0  0  0  0  0  0  0
  -17.5975  -27.3793   22.3874 C   0  0  0  0  0  0  0  0  0  0  0  0
  -34.2749  -25.5877   16.7386 C   0  0  0  0  0  0  0  0  0  0  0  0
  -33.3913  -25.5459   18.9869 C   0  0  0  0  0  0  0  0  0  0  0  0
  -26.6331  -28.4015   18.7594 C   0  0  0  0  0  0  0  0  0  0  0  0
  -24.9730  -29.5940   17.9488 C   0  0  0  0  0  0  0  0  0  0  0  0
  -22.2231  -24.6136   20.4134 C   0  0  0  0  0  0  0  0  0  0  0  0
  -21.1044  -26.0905   21.9810 C   0  0  0  0  0  0  0  0  0  0  0  0
  -26.2974  -28.3818   16.2096 C   0  0  0  0  0  0  0  0  0  0  0  0
  -21.1945  -25.4507   20.6313 C   0  0  0  0  0  0  0  0  0  0  0  0
  -22.4510  -23.8821   19.1301 C   0  0  0  0  0  0  0  0  0  0  0  0
  -25.9354  -16.4316   20.0383 C   0  0  0  0  0  0  0  0  0  0  0  0
  -28.9326  -17.6476   20.2836 C   0  0  0  0  0  0  0  0  0  0  0  0
  -31.0380  -20.2870   19.7863 C   0  0  0  0  0  0  0  0  0  0  0  0
  -21.8943  -30.1637   23.0383 C   0  0  0  0  0  0  0  0  0  0  0  0
  -25.3206  -11.6178   21.6217 C   0  0  0  0  0  0  0  0  0  0  0  0
  -26.3255  -17.2845   17.6982 C   0  0  0  0  0  0  0  0  0  0  0  0
  -27.0920  -19.2843   19.7373 C   0  0  0  0  0  0  0  0  0  0  0  0
  -26.1996  -12.7974   22.0294 C   0  0  0  0  0  0  0  0  0  0  0  0
  -23.7808  -32.6975   21.3957 C   0  0  0  0  0  0  0  0  0  0  0  0
  -25.3584  -14.0599   22.1888 C   0  0  0  0  0  0  0  0  0  0  0  0
  -24.6638  -31.9168   20.4196 C   0  0  0  0  0  0  0  0  0  0  0  0
  -23.5926  -31.9485   22.7138 C   0  0  0  0  0  0  0  0  0  0  0  0
  -23.9956  -29.7864   21.6037 C   0  0  0  0  0  0  0  0  0  0  0  0
  -24.6859  -14.4453   20.8657 C   0  0  1  0  0  0  0  0  0  0  0  0
  -26.9538  -16.8762   19.0271 C   0  0  1  0  0  0  0  0  0  0  0  0
  -24.1609  -30.4713   20.2373 C   0  0  2  0  0  0  0  0  0  0  0  0
  -33.4219  -20.9956   20.1213 C   0  0  0  0  0  0  0  0  0  0  0  0
  -28.3953  -18.0387   23.2616 C   0  0  0  0  0  0  0  0  0  0  0  0
  -30.3695  -19.5763   23.3446 C   0  0  0  0  0  0  0  0  0  0  0  0
  -30.6811  -17.1820   22.7176 C   0  0  0  0  0  0  0  0  0  0  0  0
  -31.4515  -20.6784   16.8821 C   0  0  0  0  0  0  0  0  0  0  0  0
  -23.6733  -22.9878   19.0980 C   0  0  0  0  0  0  0  0  0  1  0  0
  -29.5739  -18.7582   21.0800 C   0  0  1  0  0  0  0  0  0  0  0  0
  -32.4200  -20.3698   19.1636 C   0  0  2  0  0  0  0  0  0  0  0  0
  -29.7334  -18.3939   22.5830 C   0  0  0  0  0  0  0  0  0  0  0  0
  -26.0650  -28.9574   19.8329 N   0  0  0  0  0  0  0  0  0  0  0  0
  -25.0588  -29.6767   19.3075 N   0  0  0  0  0  0  0  0  0  0  0  0
  -27.7241  -17.9580   19.6441 N   0  0  0  0  0  0  0  0  0  0  0  0
  -23.1105  -30.5886   22.4629 N   0  0  0  0  0  0  0  0  0  0  0  0
  -24.0188  -30.2547   17.2593 N   0  0  0  0  0  0  0  0  0  0  0  0
  -27.3807  -27.5212   15.9859 N   0  0  0  0  0  0  0  0  0  0  0  0
  -21.5212  -28.8626   22.7028 N   0  0  0  0  0  0  0  0  0  0  0  0
  -25.6379  -15.0833   19.9818 N   0  0  0  0  0  0  0  0  0  0  0  0
  -30.8284  -19.0727   20.4049 N   0  0  0  0  0  0  0  0  0  0  0  0
  -32.3801  -21.1924   17.9216 N   0  3  0  0  0  0  0  0  0  0  0  0
  -21.9082  -25.8612   22.8788 O   0  0  0  0  0  0  0  0  0  0  0  0
  -25.6373  -28.8052   15.2305 O   0  0  0  0  0  0  0  0  0  0  0  0
  -21.6983  -23.9976   18.1673 O   0  0  0  0  0  0  0  0  0  0  0  0
  -25.4561  -17.2508   20.8135 O   0  0  0  0  0  0  0  0  0  0  0  0
  -29.4873  -16.5473   20.2251 O   0  0  0  0  0  0  0  0  0  0  0  0
  -30.2270  -21.2090   19.7328 O   0  0  0  0  0  0  0  0  0  0  0  0
  -21.2188  -30.9093   23.7524 O   0  0  0  0  0  0  0  0  0  0  0  0
  -20.2034  -25.7382   19.7196 O   0  0  0  0  0  0  0  0  0  0  0  0
  -31.0646  -25.0431   19.3509 O   0  0  0  0  0  0  0  0  0  0  0  0
  -23.7912  -22.3493   17.8272 O   0  0  0  0  0  0  0  0  0  1  0  0
  -16.3454  -26.9135   22.2897 F   0  0  0  0  0  0  0  0  0  0  0  0
  -35.3049  -25.7605   15.9000 F   0  0  0  0  0  0  0  0  0  0  0  0
  -33.5790  -25.6804   20.3069 F   0  0  0  0  0  0  0  0  0  0  0  0
  1  2  1  0  0  0  0
  1  5  2  0  0  0  0
  2  6  2  0  0  0  0
  3  9  2  0  0  0  0
  3 18  1  0  0  0  0
  4 10  1  0  0  0  0
  4 18  2  0  0  0  0
  5 21  1  0  0  0  0
  6 23  1  0  0  0  0
  7 11  2  0  0  0  0
  7 22  1  0  0  0  0
  8 13  2  0  0  0  0
  8 25  1  0  0  0  0
  9 26  1  0  0  0  0
 10 26  2  0  0  0  0
 11 27  1  0  0  0  0
 12 14  2  0  0  0  0
 12 28  1  0  0  0  0
 13 29  1  0  0  0  0
 14 30  1  0  0  0  0
 15 19  1  0  0  0  0
 15 29  2  0  0  0  0
 16 24  1  0  0  0  0
 16 27  2  0  0  0  0
 17 30  2  0  0  0  0
 17 31  1  0  0  0  0
 18 32  1  0  0  0  0
 19 25  2  0  0  0  0
 19 35  1  0  0  0  0
 20 32  1  0  0  0  0
 20 33  2  0  0  0  0
 20 36  1  0  0  0  0
 21 23  2  0  0  0  0
 21 43  1  0  0  0  0
 22 24  2  0  0  0  0
 22 44  1  0  0  0  0
 23 52  1  0  0  0  0
 24 45  1  0  0  0  0
 25 70  1  0  0  0  0
 26 82  1  0  0  0  0
 27 83  1  0  0  0  0
 28 31  2  0  0  0  0
 28 82  1  0  0  0  0
 29 84  1  0  0  0  0
 30 85  1  0  0  0  0
 31 86  1  0  0  0  0
 32 64  2  0  0  0  0
 33 65  1  0  0  0  0
 33 68  1  0  0  0  0
 34 37  2  0  0  0  0
 34 38  1  0  0  0  0
 35 37  1  0  0  0  0
 35 74  2  0  0  0  0
 36 69  1  0  0  0  0
 36 75  2  0  0  0  0
 37 81  1  0  0  0  0
 38 60  1  0  0  0  0
 38 76  2  0  0  0  0
 39 53  1  0  0  0  0
 39 71  1  0  0  0  0
 39 77  2  0  0  0  0
 40 61  1  0  0  0  0
 40 66  1  0  0  0  0
 40 78  2  0  0  0  0
 41 62  1  0  0  0  0
 41 72  1  0  0  0  0
 41 79  2  0  0  0  0
 42 67  1  0  0  0  0
 42 70  1  0  0  0  0
 42 80  2  0  0  0  0
 43 46  1  0  0  0  0
 44 53  1  0  0  0  0
 45 66  1  0  0  0  0
 46 48  1  0  0  0  0
 47 49  1  0  0  0  0
 47 50  1  0  0  0  0
 48 52  1  0  0  0  0
 49 54  1  0  0  0  0
 50 67  1  0  0  0  0
 51 54  1  0  0  0  0
 51 67  1  0  0  0  0
 52 71  1  0  0  0  0
 53 66  1  0  0  0  0
 54 65  1  0  0  0  0
 55 62  1  0  0  0  0
 56 63  1  0  0  0  0
 57 63  1  0  0  0  0
 58 63  1  0  0  0  0
 59 73  1  0  0  0  0
 60 83  1  0  0  0  0
 61 63  1  0  0  0  0
 61 72  1  0  0  0  0
 62 73  1  0  0  0  0
 64 65  1  0  0  0  0
M  CHG  1  73   1
M  ISO  4  42 100  60 101  70 100  83 101
M  END
> <Batch ID>
0172

> <Smiles>
CNC(C)C(=O)NC(C(=O)N1Cc2cc([101O:1][101CH2:1]C(=O)CC(=O)C(=O)c3cc(F)ccc3[100NH:0][100C:0](=O)N3CCCC(n4nc(-c5ccc(Oc6ccc(F)cc6F)cc5)c(C(N)=O)c4N)C3)ccc2CC1C(=O)NC1CCCc2ccccc21)C(C)(C)C

> <Shape>
0.224

> <Color>
0.081

> <Negative vol penalty>
0.000

$$$$

  -OEChem-04052304263D

 88 96  0     1  0  0  0  0  0999 V2000
  -30.3642  -35.7252   22.7601 C   0  0  0  0  0  0  0  0  0  0  0  0
  -30.3240  -34.3561   22.5169 C   0  0  0  0  0  0  0  0  0  0  0  0
  -22.2366   -9.9616   21.2910 C   0  0  0  0  0  0  0  0  0  0  0  0
  -24.3869   -9.4914   20.2948 C   0  0  0  0  0  0  0  0  0  0  0  0
  -29.3589  -36.3277   23.5153 C   0  0  0  0  0  0  0  0  0  0  0  0
  -29.2790  -33.5883   23.0298 C   0  0  0  0  0  0  0  0  0  0  0  0
  -27.4073  -30.3358   19.6294 C   0  0  0  0  0  0  0  0  0  0  0  0
  -25.9749  -19.6965   17.0546 C   0  0  0  0  0  0  0  0  0  0  0  0
  -26.4865  -20.9325   17.4497 C   0  0  0  0  0  0  0  0  0  0  0  0
  -22.0175   -8.5949   21.4632 C   0  0  0  0  0  0  0  0  0  0  0  0
  -24.1678   -8.1247   20.4671 C   0  0  0  0  0  0  0  0  0  0  0  0
  -28.1370  -29.1715   19.3931 C   0  0  0  0  0  0  0  0  0  0  0  0
  -22.9847   -6.1682   23.6099 C   0  0  0  0  0  0  0  0  0  0  0  0
  -22.4815   -5.7422   24.8391 C   0  0  0  0  0  0  0  0  0  0  0  0
  -26.6417  -27.9482   20.8377 C   0  0  0  0  0  0  0  0  0  0  0  0
  -20.5455   -4.8194   23.7266 C   0  0  0  0  0  0  0  0  0  0  0  0
  -23.4213  -10.4099   20.7067 C   0  0  0  0  0  0  0  0  0  0  0  0
  -24.2619  -12.7055   21.4354 C   0  0  0  0  0  0  0  0  0  0  0  0
  -28.2960  -35.5686   24.0296 C   0  0  0  0  0  0  0  0  0  0  0  0
  -26.2938  -30.3172   20.4817 C   0  0  0  0  0  0  0  0  0  0  0  0
  -28.2593  -34.1810   23.7938 C   0  0  0  0  0  0  0  0  0  0  0  0
  -25.8980  -29.1130   21.0812 C   0  0  0  0  0  0  0  0  0  0  0  0
  -27.6584  -18.5769   18.3771 C   0  0  0  0  0  0  0  0  0  0  0  0
  -28.1701  -19.8129   18.7722 C   0  0  0  0  0  0  0  0  0  0  0  0
  -26.5608  -18.5187   17.5183 C   0  0  0  0  0  0  0  0  0  0  0  0
  -27.5841  -20.9908   18.3085 C   0  0  0  0  0  0  0  0  0  0  0  0
  -22.9831   -7.6764   21.0513 C   0  0  0  0  0  0  0  0  0  0  0  0
  -27.7560  -27.9782   19.9996 C   0  0  0  0  0  0  0  0  0  0  0  0
  -22.2684   -5.9199   22.4391 C   0  0  0  0  0  0  0  0  0  0  0  0
  -21.2619   -5.0678   24.8974 C   0  0  0  0  0  0  0  0  0  0  0  0
  -21.0488   -5.2454   22.4974 C   0  0  0  0  0  0  0  0  0  0  0  0
  -23.6479  -11.8215   20.5280 C   0  0  0  0  0  0  0  0  0  0  0  0
  -24.2348  -13.9231   20.8003 C   0  0  0  0  0  0  0  0  0  0  0  0
  -27.8172  -25.7778   19.2087 C   0  0  0  0  0  0  0  0  0  1  0  0
  -24.8078  -12.4491   22.7361 C   0  0  0  0  0  0  0  0  0  0  0  0
  -28.4175  -24.6119   18.9405 C   0  0  0  0  0  0  0  0  0  0  0  0
  -27.6160  -23.5066   18.3209 C   0  0  0  0  0  0  0  0  0  0  0  0
  -25.5413  -31.7445   23.2204 C   0  0  0  0  0  0  0  0  0  0  0  0
  -22.6625  -30.3390   22.7112 C   0  0  0  0  0  0  0  0  0  0  0  0
  -20.8834  -27.8357   21.2229 C   0  0  0  0  0  0  0  0  0  0  0  0
  -24.9378  -17.0631   16.2561 C   0  0  0  0  0  0  0  0  0  0  0  0
  -27.2576  -36.2564   24.8802 C   0  0  0  0  0  0  0  0  0  0  0  0
  -25.5014  -31.5760   20.7052 C   0  0  0  0  0  0  0  0  0  0  0  0
  -24.6983  -29.0357   21.9884 C   0  0  0  0  0  0  0  0  0  0  0  0
  -25.9856  -35.4345   25.0720 C   0  0  0  0  0  0  0  0  0  0  0  0
  -21.8100  -15.3990   16.6094 C   0  0  0  0  0  0  0  0  0  0  0  0
  -26.3308  -33.9935   25.4342 C   0  0  0  0  0  0  0  0  0  0  0  0
  -22.0598  -14.3926   17.7350 C   0  0  0  0  0  0  0  0  0  0  0  0
  -23.0349  -15.5607   15.7110 C   0  0  0  0  0  0  0  0  0  0  0  0
  -24.5336  -14.8718   17.5409 C   0  0  0  0  0  0  0  0  0  0  0  0
  -27.1290  -33.3186   24.3122 C   0  0  1  0  0  0  0  0  0  0  0  0
  -24.6905  -31.5501   21.9972 C   0  0  1  0  0  0  0  0  0  0  0  0
  -23.3499  -14.7235   18.5107 C   0  0  2  0  0  0  0  0  0  0  0  0
  -28.2882  -17.3141   18.8766 C   0  0  0  0  0  0  0  0  0  0  0  0
  -18.5536  -26.9250   21.0226 C   0  0  0  0  0  0  0  0  0  0  0  0
  -22.8918  -29.1436   25.5091 C   0  0  0  0  0  0  0  0  0  0  0  0
  -21.0734  -27.5357   24.8955 C   0  0  0  0  0  0  0  0  0  0  0  0
  -20.6127  -29.9872   24.9187 C   0  0  0  0  0  0  0  0  0  0  0  0
  -20.8413  -28.2687   18.2955 C   0  0  0  0  0  0  0  0  0  0  0  0
  -22.0415  -29.0119   23.0749 C   0  0  1  0  0  0  0  0  0  0  0  0
  -19.5950  -27.8553   20.4203 C   0  0  2  0  0  0  0  0  0  0  0  0
  -29.3481  -19.8733   19.6939 C   0  0  0  0  0  0  0  0  0  0  0  0
  -21.6786  -28.9211   24.5840 C   0  0  0  0  0  0  0  0  0  0  0  0
  -23.2592  -12.4261   19.4022 N   0  0  0  0  0  0  0  0  0  0  0  0
  -23.6296  -13.7030   19.5980 N   0  0  0  0  0  0  0  0  0  0  0  0
  -23.9596  -30.2946   22.1807 N   0  0  0  0  0  0  0  0  0  0  0  0
  -24.2178  -15.8774   16.5143 N   0  0  0  0  0  0  0  0  0  0  0  0
  -24.6699  -15.1498   21.1586 N   0  0  0  0  0  0  0  0  0  0  0  0
  -24.7534  -11.1414   23.2376 N   0  0  0  0  0  0  0  0  0  0  0  0
  -28.0881  -22.2560   18.6953 N   0  0  0  0  0  0  0  0  0  0  0  0
  -26.0241  -17.2743   17.1046 N   0  0  0  0  0  0  0  0  0  0  0  0
  -26.2504  -32.9305   23.2298 N   0  0  0  0  0  0  0  0  0  0  0  0
  -20.9068  -28.8322   22.1757 N   0  0  0  0  0  0  0  0  0  0  0  0
  -19.8527  -27.4262   19.0166 N   0  3  0  0  0  0  0  0  0  0  0  0
  -25.3138  -13.3559   23.4398 O   0  0  0  0  0  0  0  0  0  0  0  0
  -26.6693  -23.7530   17.5814 O   0  0  0  0  0  0  0  0  0  0  0  0
  -25.5524  -30.8831   24.0918 O   0  0  0  0  0  0  0  0  0  0  0  0
  -22.0177  -31.3762   22.8846 O   0  0  0  0  0  0  0  0  0  0  0  0
  -21.7778  -27.0158   21.0270 O   0  0  0  0  0  0  0  0  0  0  0  0
  -24.5982  -17.8478   15.3668 O   0  0  0  0  0  0  0  0  0  0  0  0
  -29.7516  -24.3846   19.2112 O   0  0  0  0  0  0  0  0  0  0  0  0
  -22.7697   -6.3427   21.2194 O   0  0  0  0  0  0  0  0  0  0  0  0
  -28.4669  -26.8405   19.7711 O   0  0  0  0  0  0  0  0  0  1  0  0
  -20.7795   -4.6574   26.0777 F   0  0  0  0  0  0  0  0  0  0  0  0
  -20.3567   -5.0029   21.3758 F   0  0  0  0  0  0  0  0  0  0  0  0
  -29.8117  -18.6447   20.0621 F   0  0  0  0  0  0  0  0  0  0  0  0
  -30.4228  -20.5186   19.1571 F   0  0  0  0  0  0  0  0  0  0  0  0
  -29.0656  -20.5265   20.8560 F   0  0  0  0  0  0  0  0  0  0  0  0
  1  2  1  0  0  0  0
  1  5  2  0  0  0  0
  2  6  2  0  0  0  0
  3 10  2  0  0  0  0
  3 17  1  0  0  0  0
  4 11  1  0  0  0  0
  4 17  2  0  0  0  0
  5 19  1  0  0  0  0
  6 21  1  0  0  0  0
  7 12  2  0  0  0  0
  7 20  1  0  0  0  0
  8  9  2  0  0  0  0
  8 25  1  0  0  0  0
  9 26  1  0  0  0  0
 10 27  1  0  0  0  0
 11 27  2  0  0  0  0
 12 28  1  0  0  0  0
 13 14  2  0  0  0  0
 13 29  1  0  0  0  0
 14 30  1  0  0  0  0
 15 22  1  0  0  0  0
 15 28  2  0  0  0  0
 16 30  2  0  0  0  0
 16 31  1  0  0  0  0
 17 32  1  0  0  0  0
 18 32  1  0  0  0  0
 18 33  2  0  0  0  0
 18 35  1  0  0  0  0
 19 21  2  0  0  0  0
 19 42  1  0  0  0  0
 20 22  2  0  0  0  0
 20 43  1  0  0  0  0
 21 51  1  0  0  0  0
 22 44  1  0  0  0  0
 23 24  1  0  0  0  0
 23 25  2  0  0  0  0
 23 54  1  0  0  0  0
 24 26  2  0  0  0  0
 24 62  1  0  0  0  0
 25 71  1  0  0  0  0
 26 70  1  0  0  0  0
 27 82  1  0  0  0  0
 28 83  1  0  0  0  0
 29 31  2  0  0  0  0
 29 82  1  0  0  0  0
 30 84  1  0  0  0  0
 31 85  1  0  0  0  0
 32 64  2  0  0  0  0
 33 65  1  0  0  0  0
 33 68  1  0  0  0  0
 34 36  2  0  0  0  0
 34 83  1  0  0  0  0
 35 69  1  0  0  0  0
 35 75  2  0  0  0  0
 36 37  1  0  0  0  0
 36 81  1  0  0  0  0
 37 70  1  0  0  0  0
 37 76  2  0  0  0  0
 38 52  1  0  0  0  0
 38 72  1  0  0  0  0
 38 77  2  0  0  0  0
 39 60  1  0  0  0  0
 39 66  1  0  0  0  0
 39 78  2  0  0  0  0
 40 61  1  0  0  0  0
 40 73  1  0  0  0  0
 40 79  2  0  0  0  0
 41 67  1  0  0  0  0
 41 71  1  0  0  0  0
 41 80  2  0  0  0  0
 42 45  1  0  0  0  0
 43 52  1  0  0  0  0
 44 66  1  0  0  0  0
 45 47  1  0  0  0  0
 46 48  1  0  0  0  0
 46 49  1  0  0  0  0
 47 51  1  0  0  0  0
 48 53  1  0  0  0  0
 49 67  1  0  0  0  0
 50 53  1  0  0  0  0
 50 67  1  0  0  0  0
 51 72  1  0  0  0  0
 52 66  1  0  0  0  0
 53 65  1  0  0  0  0
 55 61  1  0  0  0  0
 56 63  1  0  0  0  0
 57 63  1  0  0  0  0
 58 63  1  0  0  0  0
 59 74  1  0  0  0  0
 60 63  1  0  0  0  0
 60 73  1  0  0  0  0
 61 74  1  0  0  0  0
 62 86  1  0  0  0  0
 62 87  1  0  0  0  0
 62 88  1  0  0  0  0
 64 65  1  0  0  0  0
M  CHG  1  74   1
M  ISO  4  34 101  41 100  71 100  83 101
M  END
> <Batch ID>
0172

> <Smiles>
CNC(C)C(=O)NC(C(=O)N1Cc2cc([101O:1][101CH2:1]C(=O)C(=O)Nc3ccc([100NH:0][100C:0](=O)N4CCCC(n5nc(-c6ccc(Oc7ccc(F)cc7F)cc6)c(C(N)=O)c5N)C4)c(C)c3C(F)(F)F)ccc2CC1C(=O)NC1CCCc2ccccc21)C(C)(C)C

> <Shape>
0.285

> <Color>
0.101

> <Negative vol penalty>
0.000

$$$$

  -OEChem-04052304263D

 85 93  0     1  0  0  0  0  0999 V2000
  -29.2321  -35.9829   22.9621 C   0  0  0  0  0  0  0  0  0  0  0  0
  -28.9710  -34.6170   22.9224 C   0  0  0  0  0  0  0  0  0  0  0  0
  -23.8117   -8.8979   20.1996 C   0  0  0  0  0  0  0  0  0  0  0  0
  -22.8431  -10.7377   21.4301 C   0  0  0  0  0  0  0  0  0  0  0  0
  -28.2491  -36.8668   23.4051 C   0  0  0  0  0  0  0  0  0  0  0  0
  -27.7269  -34.1341   23.3267 C   0  0  0  0  0  0  0  0  0  0  0  0
  -25.8636  -30.6618   20.1460 C   0  0  0  0  0  0  0  0  0  0  0  0
  -22.9730   -8.0078   20.8703 C   0  0  0  0  0  0  0  0  0  0  0  0
  -22.0043   -9.8475   22.1007 C   0  0  0  0  0  0  0  0  0  0  0  0
  -26.3852  -29.3719   20.2349 C   0  0  0  0  0  0  0  0  0  0  0  0
  -22.8455   -6.5043   23.8948 C   0  0  0  0  0  0  0  0  0  0  0  0
  -23.4106   -5.3272   24.3855 C   0  0  0  0  0  0  0  0  0  0  0  0
  -24.4615  -28.6893   21.5204 C   0  0  0  0  0  0  0  0  0  0  0  0
  -21.9047   -4.0312   23.0108 C   0  0  0  0  0  0  0  0  0  0  0  0
  -27.4733  -20.1927   18.4820 C   0  0  0  0  0  0  0  0  0  0  0  0
  -29.4040  -18.9872   19.9869 C   0  0  0  0  0  0  0  0  0  0  0  0
  -23.7468  -10.2629   20.4796 C   0  0  0  0  0  0  0  0  0  0  0  0
  -24.3494  -11.8531   18.5780 C   0  0  0  0  0  0  0  0  0  0  0  0
  -26.9890  -36.3953   23.8059 C   0  0  0  0  0  0  0  0  0  0  0  0
  -24.6403  -30.9784   20.7540 C   0  0  0  0  0  0  0  0  0  0  0  0
  -26.7265  -35.0124   23.7767 C   0  0  0  0  0  0  0  0  0  0  0  0
  -23.9254  -29.9833   21.4356 C   0  0  0  0  0  0  0  0  0  0  0  0
  -28.5019  -18.1825   19.3098 C   0  0  0  0  0  0  0  0  0  0  0  0
  -22.0693   -8.4826   21.8208 C   0  0  0  0  0  0  0  0  0  0  0  0
  -25.6855  -28.3861   20.9247 C   0  0  0  0  0  0  0  0  0  0  0  0
  -21.8100   -6.4448   22.9621 C   0  0  0  0  0  0  0  0  0  0  0  0
  -22.9402   -4.0907   23.9435 C   0  0  0  0  0  0  0  0  0  0  0  0
  -21.3396   -5.2082   22.5201 C   0  0  0  0  0  0  0  0  0  0  0  0
  -27.5213  -18.8045   18.5452 C   0  0  0  0  0  0  0  0  0  0  0  0
  -24.6133  -11.1828   19.7875 C   0  0  0  0  0  0  0  0  0  0  0  0
  -28.4213  -20.9074   19.1963 C   0  0  0  0  0  0  0  0  0  0  0  0
  -25.4772  -12.6022   18.3474 C   0  0  0  0  0  0  0  0  0  0  0  0
  -23.1884  -11.8030   17.7381 C   0  0  0  0  0  0  0  0  0  0  0  0
  -23.7267  -32.9827   23.0457 C   0  0  0  0  0  0  0  0  0  0  0  0
  -26.8781  -25.1782   19.7486 C   0  0  0  0  0  0  0  0  0  0  0  0
  -20.7587  -31.9906   22.1916 C   0  0  0  0  0  0  0  0  0  0  0  0
  -27.4549  -23.0937   18.4155 C   0  0  0  0  0  0  0  0  0  0  0  0
  -18.8077  -29.5783   20.7701 C   0  0  0  0  0  0  0  0  0  0  0  0
  -29.5030  -16.0168   20.1184 C   0  0  0  0  0  0  0  0  0  0  0  0
  -25.9743  -37.3847   24.3219 C   0  0  0  0  0  0  0  0  0  0  0  0
  -24.0784  -32.3678   20.6261 C   0  0  0  0  0  0  0  0  0  0  0  0
  -22.5980  -30.2667   22.0885 C   0  0  0  0  0  0  0  0  0  0  0  0
  -24.5542  -36.8273   24.3782 C   0  0  0  0  0  0  0  0  0  0  0  0
  -30.0024  -12.5265   20.6142 C   0  0  0  0  0  0  0  0  0  0  0  0
  -24.5500  -35.4399   25.0120 C   0  0  0  0  0  0  0  0  0  0  0  0
  -28.6232  -11.9209   20.3438 C   0  0  0  0  0  0  0  0  0  0  0  0
  -29.9002  -13.8778   21.3193 C   0  0  0  0  0  0  0  0  0  0  0  0
  -27.6504  -14.2530   20.3881 C   0  0  0  0  0  0  0  0  0  0  0  0
  -25.3808  -34.4524   24.1836 C   0  0  1  0  0  0  0  0  0  0  0  0
  -23.0723  -32.7086   21.7212 C   0  0  1  0  0  0  0  0  0  0  0  0
  -27.7002  -12.9216   19.6211 C   0  0  2  0  0  0  0  0  0  0  0  0
  -16.4137  -29.0340   20.2502 C   0  0  0  0  0  0  0  0  0  0  0  0
  -20.2803  -31.3034   25.1257 C   0  0  0  0  0  0  0  0  0  0  0  0
  -18.3164  -29.9251   24.4104 C   0  0  0  0  0  0  0  0  0  0  0  0
  -18.3382  -32.3815   23.9767 C   0  0  0  0  0  0  0  0  0  0  0  0
  -19.3423  -29.4722   17.8612 C   0  0  0  0  0  0  0  0  0  0  0  0
  -27.6884  -24.5785   18.6182 C   0  0  0  0  0  0  0  0  0  0  0  0
  -27.0081  -26.6768   19.9322 C   0  0  0  0  0  0  0  0  0  1  0  0
  -19.8421  -30.8697   22.6185 C   0  0  1  0  0  0  0  0  0  0  0  0
  -17.7007  -29.6588   19.7344 C   0  0  2  0  0  0  0  0  0  0  0  0
  -19.2202  -31.1148   24.0223 C   0  0  0  0  0  0  0  0  0  0  0  0
  -29.3889  -20.3385   19.9497 N   0  0  0  0  0  0  0  0  0  0  0  0
  -25.8147  -11.4799   20.2901 N   0  0  0  0  0  0  0  0  0  0  0  0
  -26.3156  -12.3449   19.3919 N   0  0  0  0  0  0  0  0  0  0  0  0
  -22.0935  -31.6420   21.9411 N   0  0  0  0  0  0  0  0  0  0  0  0
  -29.0132  -14.7750   20.5755 N   0  0  0  0  0  0  0  0  0  0  0  0
  -25.8237  -13.4493   17.3550 N   0  0  0  0  0  0  0  0  0  0  0  0
  -22.1200  -10.9818   18.1234 N   0  0  0  0  0  0  0  0  0  0  0  0
  -28.5789  -16.7702   19.3952 N   0  0  0  0  0  0  0  0  0  0  0  0
  -28.3628  -22.3201   19.1266 N   0  0  0  0  0  0  0  0  0  0  0  0
  -24.6386  -34.0205   23.0186 N   0  0  0  0  0  0  0  0  0  0  0  0
  -18.8616  -30.7145   21.5494 N   0  0  0  0  0  0  0  0  0  0  0  0
  -18.1033  -28.9456   18.4894 N   0  3  0  0  0  0  0  0  0  0  0  0
  -23.1078  -12.4541   16.6690 O   0  0  0  0  0  0  0  0  0  0  0  0
  -23.4254  -32.3039   24.0204 O   0  0  0  0  0  0  0  0  0  0  0  0
  -26.1637  -24.4926   20.4786 O   0  0  0  0  0  0  0  0  0  0  0  0
  -20.3055  -33.1322   22.0774 O   0  0  0  0  0  0  0  0  0  0  0  0
  -26.5280  -22.7042   17.7102 O   0  0  0  0  0  0  0  0  0  0  0  0
  -19.5478  -28.6032   20.8795 O   0  0  0  0  0  0  0  0  0  0  0  0
  -30.6655  -16.3727   20.3279 O   0  0  0  0  0  0  0  0  0  0  0  0
  -21.2505   -7.6143   22.4752 O   0  0  0  0  0  0  0  0  0  0  0  0
  -26.1926  -27.1264   21.0135 O   0  0  0  0  0  0  0  0  0  1  0  0
  -23.4840   -2.9604   24.4137 F   0  0  0  0  0  0  0  0  0  0  0  0
  -20.3459   -5.1448   21.6233 F   0  0  0  0  0  0  0  0  0  0  0  0
  -26.6208  -18.0783   17.8682 F   0  0  0  0  0  0  0  0  0  0  0  0
  1  2  1  0  0  0  0
  1  5  2  0  0  0  0
  2  6  2  0  0  0  0
  3  8  2  0  0  0  0
  3 17  1  0  0  0  0
  4  9  1  0  0  0  0
  4 17  2  0  0  0  0
  5 19  1  0  0  0  0
  6 21  1  0  0  0  0
  7 10  2  0  0  0  0
  7 20  1  0  0  0  0
  8 24  1  0  0  0  0
  9 24  2  0  0  0  0
 10 25  1  0  0  0  0
 11 12  2  0  0  0  0
 11 26  1  0  0  0  0
 12 27  1  0  0  0  0
 13 22  1  0  0  0  0
 13 25  2  0  0  0  0
 14 27  2  0  0  0  0
 14 28  1  0  0  0  0
 15 29  2  0  0  0  0
 15 31  1  0  0  0  0
 16 23  2  0  0  0  0
 16 62  1  0  0  0  0
 17 30  1  0  0  0  0
 18 30  1  0  0  0  0
 18 32  2  0  0  0  0
 18 33  1  0  0  0  0
 19 21  2  0  0  0  0
 19 40  1  0  0  0  0
 20 22  2  0  0  0  0
 20 41  1  0  0  0  0
 21 49  1  0  0  0  0
 22 42  1  0  0  0  0
 23 29  1  0  0  0  0
 23 69  1  0  0  0  0
 24 81  1  0  0  0  0
 25 82  1  0  0  0  0
 26 28  2  0  0  0  0
 26 81  1  0  0  0  0
 27 83  1  0  0  0  0
 28 84  1  0  0  0  0
 29 85  1  0  0  0  0
 30 63  2  0  0  0  0
 31 62  2  0  0  0  0
 31 70  1  0  0  0  0
 32 64  1  0  0  0  0
 32 67  1  0  0  0  0
 33 68  1  0  0  0  0
 33 74  2  0  0  0  0
 34 50  1  0  0  0  0
 34 71  1  0  0  0  0
 34 75  2  0  0  0  0
 35 57  1  0  0  0  0
 35 58  1  0  0  0  0
 35 76  2  0  0  0  0
 36 59  1  0  0  0  0
 36 65  1  0  0  0  0
 36 77  2  0  0  0  0
 37 57  1  0  0  0  0
 37 70  1  0  0  0  0
 37 78  2  0  0  0  0
 38 60  1  0  0  0  0
 38 72  1  0  0  0  0
 38 79  2  0  0  0  0
 39 66  1  0  0  0  0
 39 69  1  0  0  0  0
 39 80  2  0  0  0  0
 40 43  1  0  0  0  0
 41 50  1  0  0  0  0
 42 65  1  0  0  0  0
 43 45  1  0  0  0  0
 44 46  1  0  0  0  0
 44 47  1  0  0  0  0
 45 49  1  0  0  0  0
 46 51  1  0  0  0  0
 47 66  1  0  0  0  0
 48 51  1  0  0  0  0
 48 66  1  0  0  0  0
 49 71  1  0  0  0  0
 50 65  1  0  0  0  0
 51 64  1  0  0  0  0
 52 60  1  0  0  0  0
 53 61  1  0  0  0  0
 54 61  1  0  0  0  0
 55 61  1  0  0  0  0
 56 73  1  0  0  0  0
 58 82  1  0  0  0  0
 59 61  1  0  0  0  0
 59 72  1  0  0  0  0
 60 73  1  0  0  0  0
 63 64  1  0  0  0  0
M  CHG  1  73   1
M  ISO  4  39 100  58 101  69 100  82 101
M  END
> <Batch ID>
0172

> <Smiles>
CNC(C)C(=O)NC(C(=O)N1Cc2cc([101O:1][101CH2:1]C(=O)CC(=O)Nc3cc(F)c([100NH:0][100C:0](=O)N4CCCC(n5nc(-c6ccc(Oc7ccc(F)cc7F)cc6)c(C(N)=O)c5N)C4)cn3)ccc2CC1C(=O)NC1CCCc2ccccc21)C(C)(C)C

> <Shape>
0.294

> <Color>
0.109

> <Negative vol penalty>
0.000

$$$$

  -OEChem-04052304263D

 85 93  0     1  0  0  0  0  0999 V2000
  -16.8125  -30.8524   22.2076 C   0  0  0  0  0  0  0  0  0  0  0  0
  -17.9480  -31.5656   22.5781 C   0  0  0  0  0  0  0  0  0  0  0  0
  -25.3784  -14.3744   22.2967 C   0  0  0  0  0  0  0  0  0  0  0  0
  -25.5591  -15.0019   19.9706 C   0  0  0  0  0  0  0  0  0  0  0  0
  -16.8480  -29.4592   22.1674 C   0  0  0  0  0  0  0  0  0  0  0  0
  -19.1195  -30.8859   22.9097 C   0  0  0  0  0  0  0  0  0  0  0  0
  -26.2443  -31.5334   22.5427 C   0  0  0  0  0  0  0  0  0  0  0  0
  -25.4396  -13.0278   21.9382 C   0  0  0  0  0  0  0  0  0  0  0  0
  -25.6203  -13.6553   19.6121 C   0  0  0  0  0  0  0  0  0  0  0  0
  -27.3756  -31.4605   23.3542 C   0  0  0  0  0  0  0  0  0  0  0  0
  -23.3496  -10.6880   20.6808 C   0  0  0  0  0  0  0  0  0  0  0  0
  -22.4416   -9.8162   21.2818 C   0  0  0  0  0  0  0  0  0  0  0  0
  -28.2534  -24.6313   25.8603 C   0  0  0  0  0  0  0  0  0  0  0  0
  -27.3434  -29.0552   23.1726 C   0  0  0  0  0  0  0  0  0  0  0  0
  -24.2755   -8.5435   22.2061 C   0  0  0  0  0  0  0  0  0  0  0  0
  -25.4381  -15.3615   21.3129 C   0  0  0  0  0  0  0  0  0  0  0  0
  -27.7657  -25.3066   27.0163 C   0  0  0  0  0  0  0  0  0  0  0  0
  -24.3266  -17.4053   22.3593 C   0  0  0  0  0  0  0  0  0  0  0  0
  -18.0233  -28.7624   22.4893 C   0  0  0  0  0  0  0  0  0  0  0  0
  -25.6465  -30.3653   22.0482 C   0  0  0  0  0  0  0  0  0  0  0  0
  -19.1704  -29.4820   22.8751 C   0  0  0  0  0  0  0  0  0  0  0  0
  -26.2060  -29.1162   22.3530 C   0  0  0  0  0  0  0  0  0  0  0  0
  -25.5606  -12.6682   20.5959 C   0  0  0  0  0  0  0  0  0  0  0  0
  -27.9236  -30.2211   23.6716 C   0  0  0  0  0  0  0  0  0  0  0  0
  -24.7205  -10.4875   20.8424 C   0  0  0  0  0  0  0  0  0  0  0  0
  -22.9045   -8.7440   22.0445 C   0  0  0  0  0  0  0  0  0  0  0  0
  -25.1834   -9.4153   21.6051 C   0  0  0  0  0  0  0  0  0  0  0  0
  -25.3744  -16.7527   21.6825 C   0  0  0  0  0  0  0  0  0  0  0  0
  -24.7471  -18.7083   22.4682 C   0  0  0  0  0  0  0  0  0  0  0  0
  -27.6370  -23.4137   25.6737 C   0  0  0  0  0  0  0  0  0  0  0  0
  -26.7948  -24.5793   27.6691 C   0  0  0  0  0  0  0  0  0  0  0  0
  -28.2346  -26.6390   27.4765 C   0  0  0  0  0  0  0  0  0  0  0  0
  -23.0843  -16.8806   22.8462 C   0  0  0  0  0  0  0  0  0  0  0  0
  -22.7983  -28.9922   22.3737 C   0  0  0  0  0  0  0  0  0  0  0  0
  -29.9037  -29.3144   26.5611 C   0  0  0  0  0  0  0  0  0  0  0  0
  -23.9629  -26.9463   20.1421 C   0  0  0  0  0  0  0  0  0  0  0  0
  -26.6862  -25.5374   18.6436 C   0  0  0  0  0  0  0  0  0  0  0  0
  -28.6911  -22.4763   23.5864 C   0  0  0  0  0  0  0  0  0  0  0  0
  -17.9997  -27.2544   22.4772 C   0  0  0  0  0  0  0  0  0  0  0  0
  -24.4423  -30.4624   21.1522 C   0  0  0  0  0  0  0  0  0  0  0  0
  -25.6141  -27.8335   21.8307 C   0  0  0  0  0  0  0  0  0  0  0  0
  -19.3897  -26.6234   22.4810 C   0  0  0  0  0  0  0  0  0  0  0  0
  -28.6446  -21.1035   20.3016 C   0  0  0  0  0  0  0  0  0  0  0  0
  -20.2764  -27.2916   23.5269 C   0  0  0  0  0  0  0  0  0  0  0  0
  -27.7035  -19.9029   20.4237 C   0  0  0  0  0  0  0  0  0  0  0  0
  -29.4946  -21.2878   21.5574 C   0  0  0  0  0  0  0  0  0  0  0  0
  -27.7975  -20.1536   22.9367 C   0  0  0  0  0  0  0  0  0  0  0  0
  -20.4673  -28.7814   23.2179 C   0  0  1  0  0  0  0  0  0  0  0  0
  -23.6127  -29.1823   21.1254 C   0  0  1  0  0  0  0  0  0  0  0  0
  -26.8745  -19.9663   21.7215 C   0  0  2  0  0  0  0  0  0  0  0  0
  -31.6505  -28.0126   27.8125 C   0  0  0  0  0  0  0  0  0  0  0  0
  -27.9851  -24.1580   16.9981 C   0  0  0  0  0  0  0  0  0  0  0  0
  -23.2480  -24.6667   22.0401 C   0  0  0  0  0  0  0  0  0  0  0  0
  -24.7309  -23.1692   20.6885 C   0  0  0  0  0  0  0  0  0  0  0  0
  -22.7303  -24.2221   19.6342 C   0  0  0  0  0  0  0  0  0  0  0  0
  -26.8647  -27.7838   16.7249 C   0  0  0  0  0  0  0  0  0  0  0  0
  -29.1672  -28.9819   25.2759 C   0  0  0  0  0  0  0  0  0  1  0  0
  -30.1596  -28.2011   27.5770 C   0  0  2  0  0  0  0  0  0  0  0  0
  -24.7416  -25.6535   20.1796 C   0  0  1  0  0  0  0  0  0  0  0  0
  -27.0386  -25.3342   17.1810 C   0  0  2  0  0  0  0  0  0  0  0  0
  -23.8729  -24.4518   20.6472 C   0  0  0  0  0  0  0  0  0  0  0  0
  -26.3845  -17.5734   21.3824 N   0  0  0  0  0  0  0  0  0  0  0  0
  -25.9733  -18.7551   21.8728 N   0  0  0  0  0  0  0  0  0  0  0  0
  -24.4333  -27.9803   20.9638 N   0  0  0  0  0  0  0  0  0  0  0  0
  -28.6416  -21.3436   22.7466 N   0  0  0  0  0  0  0  0  0  0  0  0
  -24.1839  -19.8070   23.0140 N   0  0  0  0  0  0  0  0  0  0  0  0
  -26.1261  -24.9316   28.7975 N   0  0  0  0  0  0  0  0  0  0  0  0
  -21.9717  -16.8983   21.9940 N   0  0  0  0  0  0  0  0  0  0  0  0
  -27.8120  -22.4310   24.6680 N   0  0  0  0  0  0  0  0  0  0  0  0
  -29.5530  -26.9591   27.1775 N   0  0  0  0  0  0  0  0  0  0  0  0
  -21.4342  -28.9574   22.1556 N   0  0  0  0  0  0  0  0  0  0  0  0
  -25.3241  -25.4891   18.8522 N   0  0  0  0  0  0  0  0  0  0  0  0
  -27.6939  -26.5547   16.6317 N   0  3  0  0  0  0  0  0  0  0  0  0
  -27.4634  -27.3643   28.0992 O   0  0  0  0  0  0  0  0  0  0  0  0
  -22.9602  -16.4249   24.0083 O   0  0  0  0  0  0  0  0  0  0  0  0
  -23.3655  -28.8836   23.4545 O   0  0  0  0  0  0  0  0  0  0  0  0
  -30.2468  -30.4734   26.8106 O   0  0  0  0  0  0  0  0  0  0  0  0
  -22.9778  -27.0376   19.4052 O   0  0  0  0  0  0  0  0  0  0  0  0
  -27.5346  -25.7171   19.5144 O   0  0  0  0  0  0  0  0  0  0  0  0
  -29.4373  -23.4292   23.3476 O   0  0  0  0  0  0  0  0  0  0  0  0
  -25.6206  -11.3543   20.2458 O   0  0  0  0  0  0  0  0  0  0  0  0
  -29.0275  -30.1470   24.4640 O   0  0  0  0  0  0  0  0  0  1  0  0
  -22.0325   -7.9078   22.6228 F   0  0  0  0  0  0  0  0  0  0  0  0
  -26.4993   -9.2183   21.7649 F   0  0  0  0  0  0  0  0  0  0  0  0
  -26.4751  -23.0888   26.8890 S   0  0  0  0  0  0  0  0  0  0  0  0
  1  2  1  0  0  0  0
  1  5  2  0  0  0  0
  2  6  2  0  0  0  0
  3  8  2  0  0  0  0
  3 16  1  0  0  0  0
  4  9  1  0  0  0  0
  4 16  2  0  0  0  0
  5 19  1  0  0  0  0
  6 21  1  0  0  0  0
  7 10  2  0  0  0  0
  7 20  1  0  0  0  0
  8 23  1  0  0  0  0
  9 23  2  0  0  0  0
 10 24  1  0  0  0  0
 11 12  2  0  0  0  0
 11 25  1  0  0  0  0
 12 26  1  0  0  0  0
 13 17  1  0  0  0  0
 13 30  2  0  0  0  0
 14 22  1  0  0  0  0
 14 24  2  0  0  0  0
 15 26  2  0  0  0  0
 15 27  1  0  0  0  0
 16 28  1  0  0  0  0
 17 31  2  0  0  0  0
 17 32  1  0  0  0  0
 18 28  1  0  0  0  0
 18 29  2  0  0  0  0
 18 33  1  0  0  0  0
 19 21  2  0  0  0  0
 19 39  1  0  0  0  0
 20 22  2  0  0  0  0
 20 40  1  0  0  0  0
 21 48  1  0  0  0  0
 22 41  1  0  0  0  0
 23 81  1  0  0  0  0
 24 82  1  0  0  0  0
 25 27  2  0  0  0  0
 25 81  1  0  0  0  0
 26 83  1  0  0  0  0
 27 84  1  0  0  0  0
 28 62  2  0  0  0  0
 29 63  1  0  0  0  0
 29 66  1  0  0  0  0
 30 69  1  0  0  0  0
 30 85  1  0  0  0  0
 31 67  1  0  0  0  0
 31 85  1  0  0  0  0
 32 70  1  0  0  0  0
 32 74  2  0  0  0  0
 33 68  1  0  0  0  0
 33 75  2  0  0  0  0
 34 49  1  0  0  0  0
 34 71  1  0  0  0  0
 34 76  2  0  0  0  0
 35 57  1  0  0  0  0
 35 58  1  0  0  0  0
 35 77  2  0  0  0  0
 36 59  1  0  0  0  0
 36 64  1  0  0  0  0
 36 78  2  0  0  0  0
 37 60  1  0  0  0  0
 37 72  1  0  0  0  0
 37 79  2  0  0  0  0
 38 65  1  0  0  0  0
 38 69  1  0  0  0  0
 38 80  2  0  0  0  0
 39 42  1  0  0  0  0
 40 49  1  0  0  0  0
 41 64  1  0  0  0  0
 42 44  1  0  0  0  0
 43 45  1  0  0  0  0
 43 46  1  0  0  0  0
 44 48  1  0  0  0  0
 45 50  1  0  0  0  0
 46 65  1  0  0  0  0
 47 50  1  0  0  0  0
 47 65  1  0  0  0  0
 48 71  1  0  0  0  0
 49 64  1  0  0  0  0
 50 63  1  0  0  0  0
 51 58  1  0  0  0  0
 52 60  1  0  0  0  0
 53 61  1  0  0  0  0
 54 61  1  0  0  0  0
 55 61  1  0  0  0  0
 56 73  1  0  0  0  0
 57 82  1  0  0  0  0
 58 70  1  0  0  0  0
 59 61  1  0  0  0  0
 59 72  1  0  0  0  0
 60 73  1  0  0  0  0
 62 63  1  0  0  0  0
M  CHG  1  73   1
M  ISO  4  38 100  57 101  69 100  82 101
M  END
> <Batch ID>
0172

> <Smiles>
CNC(C)C(=O)NC(C(=O)N1Cc2cc([101O:1][101CH2:1]C(=O)C(C)NC(=O)c3cc([100NH:0][100C:0](=O)N4CCCC(n5nc(-c6ccc(Oc7ccc(F)cc7F)cc6)c(C(N)=O)c5N)C4)sc3N)ccc2CC1C(=O)NC1CCCc2ccccc21)C(C)(C)C

> <Shape>
0.211

> <Color>
0.085

> <Negative vol penalty>
0.000

$$$$

  -OEChem-04052304263D

 90 98  0     1  0  0  0  0  0999 V2000
  -17.9904  -26.2003   25.1824 C   0  0  0  0  0  0  0  0  0  0  0  0
  -19.2233  -26.2763   24.5424 C   0  0  0  0  0  0  0  0  0  0  0  0
  -24.6114   -9.1052   22.2697 C   0  0  0  0  0  0  0  0  0  0  0  0
  -23.7360  -10.2512   20.3313 C   0  0  0  0  0  0  0  0  0  0  0  0
  -17.0656  -27.2334   25.0363 C   0  0  0  0  0  0  0  0  0  0  0  0
  -19.5317  -27.3850   23.7550 C   0  0  0  0  0  0  0  0  0  0  0  0
  -24.2090  -29.1306   24.6045 C   0  0  0  0  0  0  0  0  0  0  0  0
  -23.5471   -8.2050   22.2182 C   0  0  0  0  0  0  0  0  0  0  0  0
  -22.6717   -9.3510   20.2797 C   0  0  0  0  0  0  0  0  0  0  0  0
  -25.2651  -28.4317   24.0213 C   0  0  0  0  0  0  0  0  0  0  0  0
  -22.6844   -5.4675   20.4308 C   0  0  0  0  0  0  0  0  0  0  0  0
  -22.9740   -4.1118   20.5851 C   0  0  0  0  0  0  0  0  0  0  0  0
  -25.3710  -30.0749   22.2584 C   0  0  0  0  0  0  0  0  0  0  0  0
  -29.9239  -20.0429   17.8230 C   0  0  0  0  0  0  0  0  0  0  0  0
  -28.8390  -19.5647   19.9281 C   0  0  0  0  0  0  0  0  0  0  0  0
  -21.5465   -4.0285   22.5325 C   0  0  0  0  0  0  0  0  0  0  0  0
  -24.7058  -10.1283   21.3263 C   0  0  0  0  0  0  0  0  0  0  0  0
  -27.0540  -10.9361   20.7424 C   0  0  0  0  0  0  0  0  0  0  0  0
  -17.3666  -28.3599   24.2545 C   0  0  0  0  0  0  0  0  0  0  0  0
  -23.7179  -30.3029   24.0120 C   0  0  0  0  0  0  0  0  0  0  0  0
  -18.6096  -28.4336   23.5972 C   0  0  0  0  0  0  0  0  0  0  0  0
  -24.3102  -30.7881   22.8374 C   0  0  0  0  0  0  0  0  0  0  0  0
  -30.1479  -18.6799   17.6288 C   0  0  0  0  0  0  0  0  0  0  0  0
  -29.7174  -17.7593   18.5842 C   0  0  0  0  0  0  0  0  0  0  0  0
  -29.2695  -20.4853   18.9727 C   0  0  0  0  0  0  0  0  0  0  0  0
  -29.0630  -18.2017   19.7339 C   0  0  0  0  0  0  0  0  0  0  0  0
  -22.5773   -8.3279   21.2232 C   0  0  0  0  0  0  0  0  0  0  0  0
  -25.8443  -28.9023   22.8465 C   0  0  0  0  0  0  0  0  0  0  0  0
  -21.8259   -6.1038   21.3274 C   0  0  0  0  0  0  0  0  0  0  0  0
  -22.4051   -3.3923   21.6360 C   0  0  0  0  0  0  0  0  0  0  0  0
  -21.2570   -5.3843   22.3782 C   0  0  0  0  0  0  0  0  0  0  0  0
  -25.8046  -11.0588   21.3794 C   0  0  0  0  0  0  0  0  0  0  0  0
  -27.7369  -12.0716   21.1042 C   0  0  0  0  0  0  0  0  0  0  0  0
  -27.5527   -9.8895   19.8989 C   0  0  0  0  0  0  0  0  0  0  0  0
  -20.9251  -31.1961   22.7848 C   0  0  0  0  0  0  0  0  0  0  0  0
  -28.3040  -23.8978   20.2047 C   0  0  0  0  0  0  0  0  0  0  0  0
  -27.5530  -26.1174   21.2823 C   0  0  0  0  0  0  0  0  0  0  0  0
  -22.3875  -34.0830   22.5636 C   0  0  0  0  0  0  0  0  0  0  0  0
  -25.3023  -35.8459   22.3552 C   0  0  0  0  0  0  0  0  0  0  0  0
  -27.9539  -17.5770   21.9079 C   0  0  0  0  0  0  0  0  0  0  0  0
  -16.3165  -29.4296   24.0880 C   0  0  0  0  0  0  0  0  0  0  0  0
  -22.5957  -31.0596   24.6680 C   0  0  0  0  0  0  0  0  0  0  0  0
  -23.8333  -32.0527   22.1727 C   0  0  0  0  0  0  0  0  0  0  0  0
  -16.8671  -30.7434   23.5392 C   0  0  0  0  0  0  0  0  0  0  0  0
  -26.6596  -15.5993   24.5707 C   0  0  0  0  0  0  0  0  0  0  0  0
  -17.7818  -30.4822   22.3468 C   0  0  0  0  0  0  0  0  0  0  0  0
  -26.4245  -14.2317   23.9254 C   0  0  0  0  0  0  0  0  0  0  0  0
  -26.3446  -16.7425   23.6075 C   0  0  0  0  0  0  0  0  0  0  0  0
  -26.7892  -15.2969   21.6628 C   0  0  0  0  0  0  0  0  0  0  0  0
  -18.9907  -29.6315   22.7547 C   0  0  1  0  0  0  0  0  0  0  0  0
  -21.8378  -31.9626   23.6998 C   0  0  1  0  0  0  0  0  0  0  0  0
  -27.1551  -14.1134   22.5734 C   0  0  2  0  0  0  0  0  0  0  0  0
  -29.9612  -16.2980   18.3716 C   0  0  0  0  0  0  0  0  0  0  0  0
  -26.1769  -38.1888   22.1476 C   0  0  0  0  0  0  0  0  0  0  0  0
  -21.6213  -34.1048   19.6102 C   0  0  0  0  0  0  0  0  0  0  0  0
  -23.2934  -35.9353   19.2616 C   0  0  0  0  0  0  0  0  0  0  0  0
  -21.3450  -36.3001   20.7759 C   0  0  0  0  0  0  0  0  0  0  0  0
  -26.7486  -35.6580   24.9304 C   0  0  0  0  0  0  0  0  0  0  0  0
  -27.6270  -24.6057   21.3629 C   0  0  0  0  0  0  0  0  0  0  0  0
  -28.3804  -22.3885   20.3192 C   0  0  0  0  0  0  0  0  0  0  0  0
  -26.9056  -26.8080   22.4671 C   0  0  0  0  0  0  0  0  0  1  0  0
  -23.2241  -34.7804   21.5182 C   0  0  1  0  0  0  0  0  0  0  0  0
  -25.7945  -37.0707   23.1049 C   0  0  2  0  0  0  0  0  0  0  0  0
  -30.8518  -18.2328   16.3894 C   0  0  0  0  0  0  0  0  0  0  0  0
  -22.3789  -35.2552   20.3027 C   0  0  0  0  0  0  0  0  0  0  0  0
  -25.6974  -12.1834   22.0921 N   0  0  0  0  0  0  0  0  0  0  0  0
  -26.8882  -12.7777   21.9051 N   0  0  0  0  0  0  0  0  0  0  0  0
  -22.7293  -32.7536   22.8490 N   0  0  0  0  0  0  0  0  0  0  0  0
  -27.0751  -16.5658   22.3505 N   0  0  0  0  0  0  0  0  0  0  0  0
  -28.9745  -12.5248   20.8124 N   0  0  0  0  0  0  0  0  0  0  0  0
  -26.7198   -8.7950   19.6289 N   0  0  0  0  0  0  0  0  0  0  0  0
  -28.6174  -17.2836   20.7170 N   0  0  0  0  0  0  0  0  0  0  0  0
  -29.0465  -21.8412   19.1650 N   0  0  0  0  0  0  0  0  0  0  0  0
  -19.9710  -30.4437   23.4429 N   0  0  0  0  0  0  0  0  0  0  0  0
  -23.9311  -35.8528   22.2099 N   0  0  0  0  0  0  0  0  0  0  0  0
  -26.9882  -36.7287   23.9288 N   0  3  0  0  0  0  0  0  0  0  0  0
  -28.7087   -9.9158   19.4128 O   0  0  0  0  0  0  0  0  0  0  0  0
  -21.0745  -31.2821   21.5716 O   0  0  0  0  0  0  0  0  0  0  0  0
  -28.7934  -24.5104   19.2568 O   0  0  0  0  0  0  0  0  0  0  0  0
  -27.9548  -26.7505   20.3075 O   0  0  0  0  0  0  0  0  0  0  0  0
  -21.4693  -34.6976   23.1120 O   0  0  0  0  0  0  0  0  0  0  0  0
  -26.0588  -34.9724   21.9368 O   0  0  0  0  0  0  0  0  0  0  0  0
  -28.1272  -18.6143   22.5529 O   0  0  0  0  0  0  0  0  0  0  0  0
  -21.5388   -7.4496   21.1724 O   0  0  0  0  0  0  0  0  0  0  0  0
  -26.8749  -28.2217   22.2749 O   0  0  0  0  0  0  0  0  0  1  0  0
  -22.6820   -2.0901   21.7831 F   0  0  0  0  0  0  0  0  0  0  0  0
  -20.4305   -5.9898   23.2421 F   0  0  0  0  0  0  0  0  0  0  0  0
  -31.2049  -19.2599   15.5625 F   0  0  0  0  0  0  0  0  0  0  0  0
  -32.0116  -17.5567   16.6359 F   0  0  0  0  0  0  0  0  0  0  0  0
  -30.0906  -17.3937   15.6299 F   0  0  0  0  0  0  0  0  0  0  0  0
  1  2  1  0  0  0  0
  1  5  2  0  0  0  0
  2  6  2  0  0  0  0
  3  8  2  0  0  0  0
  3 17  1  0  0  0  0
  4  9  1  0  0  0  0
  4 17  2  0  0  0  0
  5 19  1  0  0  0  0
  6 21  1  0  0  0  0
  7 10  2  0  0  0  0
  7 20  1  0  0  0  0
  8 27  1  0  0  0  0
  9 27  2  0  0  0  0
 10 28  1  0  0  0  0
 11 12  2  0  0  0  0
 11 29  1  0  0  0  0
 12 30  1  0  0  0  0
 13 22  1  0  0  0  0
 13 28  2  0  0  0  0
 14 23  1  0  0  0  0
 14 25  2  0  0  0  0
 15 25  1  0  0  0  0
 15 26  2  0  0  0  0
 16 30  2  0  0  0  0
 16 31  1  0  0  0  0
 17 32  1  0  0  0  0
 18 32  1  0  0  0  0
 18 33  2  0  0  0  0
 18 34  1  0  0  0  0
 19 21  2  0  0  0  0
 19 41  1  0  0  0  0
 20 22  2  0  0  0  0
 20 42  1  0  0  0  0
 21 50  1  0  0  0  0
 22 43  1  0  0  0  0
 23 24  2  0  0  0  0
 23 64  1  0  0  0  0
 24 26  1  0  0  0  0
 24 53  1  0  0  0  0
 25 73  1  0  0  0  0
 26 72  1  0  0  0  0
 27 84  1  0  0  0  0
 28 85  1  0  0  0  0
 29 31  2  0  0  0  0
 29 84  1  0  0  0  0
 30 86  1  0  0  0  0
 31 87  1  0  0  0  0
 32 66  2  0  0  0  0
 33 67  1  0  0  0  0
 33 70  1  0  0  0  0
 34 71  1  0  0  0  0
 34 77  2  0  0  0  0
 35 51  1  0  0  0  0
 35 74  1  0  0  0  0
 35 78  2  0  0  0  0
 36 59  1  0  0  0  0
 36 60  1  0  0  0  0
 36 79  2  0  0  0  0
 37 59  1  0  0  0  0
 37 61  1  0  0  0  0
 37 80  2  0  0  0  0
 38 62  1  0  0  0  0
 38 68  1  0  0  0  0
 38 81  2  0  0  0  0
 39 63  1  0  0  0  0
 39 75  1  0  0  0  0
 39 82  2  0  0  0  0
 40 69  1  0  0  0  0
 40 72  1  0  0  0  0
 40 83  2  0  0  0  0
 41 44  1  0  0  0  0
 42 51  1  0  0  0  0
 43 68  1  0  0  0  0
 44 46  1  0  0  0  0
 45 47  1  0  0  0  0
 45 48  1  0  0  0  0
 46 50  1  0  0  0  0
 47 52  1  0  0  0  0
 48 69  1  0  0  0  0
 49 52  1  0  0  0  0
 49 69  1  0  0  0  0
 50 74  1  0  0  0  0
 51 68  1  0  0  0  0
 52 67  1  0  0  0  0
 54 63  1  0  0  0  0
 55 65  1  0  0  0  0
 56 65  1  0  0  0  0
 57 65  1  0  0  0  0
 58 76  1  0  0  0  0
 60 73  1  0  0  0  0
 61 85  1  0  0  0  0
 62 65  1  0  0  0  0
 62 75  1  0  0  0  0
 63 76  1  0  0  0  0
 64 88  1  0  0  0  0
 64 89  1  0  0  0  0
 64 90  1  0  0  0  0
 66 67  1  0  0  0  0
M  CHG  1  76   1
M  ISO  4  40 100  61 101  72 100  85 101
M  END
> <Batch ID>
0172

> <Smiles>
CNC(C)C(=O)NC(C(=O)N1Cc2cc([101O:1][101CH2:1]C(=O)CC(=O)CNc3cc([100NH:0][100C:0](=O)N4CCCC(n5nc(-c6ccc(Oc7ccc(F)cc7F)cc6)c(C(N)=O)c5N)C4)c(C)c(C(F)(F)F)c3)ccc2CC1C(=O)NC1CCCc2ccccc21)C(C)(C)C

> <Shape>
0.259

> <Color>
0.096

> <Negative vol penalty>
0.000

$$$$

  -OEChem-04052304263D

 89 97  0     1  0  0  0  0  0999 V2000
  -23.3265  -24.0458   20.6412 C   0  0  0  0  0  0  0  0  0  0  0  0
  -24.4614  -23.2560   20.7945 C   0  0  0  0  0  0  0  0  0  0  0  0
  -19.2408  -29.0128   22.1415 C   0  0  0  0  0  0  0  0  0  0  0  0
  -20.3378  -27.1442   23.2100 C   0  0  0  0  0  0  0  0  0  0  0  0
  -22.0819  -23.5609   21.0410 C   0  0  0  0  0  0  0  0  0  0  0  0
  -24.3525  -21.9810   21.3487 C   0  0  0  0  0  0  0  0  0  0  0  0
  -27.0051  -18.5140   18.7820 C   0  0  0  0  0  0  0  0  0  0  0  0
  -18.0048  -28.3937   22.3276 C   0  0  0  0  0  0  0  0  0  0  0  0
  -19.1018  -26.5250   23.3962 C   0  0  0  0  0  0  0  0  0  0  0  0
  -28.3826  -18.4807   18.9942 C   0  0  0  0  0  0  0  0  0  0  0  0
  -16.2709  -24.2874   23.8310 C   0  0  0  0  0  0  0  0  0  0  0  0
  -16.1747  -22.9286   23.5311 C   0  0  0  0  0  0  0  0  0  0  0  0
  -28.1001  -16.6144   20.4963 C   0  0  0  0  0  0  0  0  0  0  0  0
  -28.9443  -24.2229   22.1100 C   0  0  0  0  0  0  0  0  0  0  0  0
  -27.8718  -24.8631   24.1781 C   0  0  0  0  0  0  0  0  0  0  0  0
  -16.8039  -23.3888   21.2443 C   0  0  0  0  0  0  0  0  0  0  0  0
  -20.4073  -28.3880   22.5826 C   0  0  0  0  0  0  0  0  0  0  0  0
  -22.0932  -30.2777   22.8900 C   0  0  0  0  0  0  0  0  0  0  0  0
  -21.9563  -22.2757   21.5914 C   0  0  0  0  0  0  0  0  0  0  0  0
  -26.1622  -17.6031   19.4348 C   0  0  0  0  0  0  0  0  0  0  0  0
  -23.1053  -21.4790   21.7574 C   0  0  0  0  0  0  0  0  0  0  0  0
  -26.7125  -16.6365   20.2886 C   0  0  0  0  0  0  0  0  0  0  0  0
  -29.3155  -22.9269   24.1149 C   0  0  0  0  0  0  0  0  0  0  0  0
  -28.1056  -25.0817   22.8204 C   0  0  0  0  0  0  0  0  0  0  0  0
  -29.5492  -23.1455   22.7573 C   0  0  0  0  0  0  0  0  0  0  0  0
  -17.9353  -27.1499   22.9550 C   0  0  0  0  0  0  0  0  0  0  0  0
  -28.9300  -17.5327   19.8537 C   0  0  0  0  0  0  0  0  0  0  0  0
  -16.6335  -25.1970   22.8375 C   0  0  0  0  0  0  0  0  0  0  0  0
  -16.4412  -22.4793   22.2378 C   0  0  0  0  0  0  0  0  0  0  0  0
  -28.4768  -23.7857   24.8254 C   0  0  0  0  0  0  0  0  0  0  0  0
  -16.9000  -24.7476   21.5442 C   0  0  0  0  0  0  0  0  0  0  0  0
  -21.6844  -29.0268   22.3901 C   0  0  0  0  0  0  0  0  0  0  0  0
  -23.3792  -30.4271   22.4314 C   0  0  0  0  0  0  0  0  0  0  0  0
  -21.3748  -31.2203   23.6969 C   0  0  0  0  0  0  0  0  0  0  0  0
  -31.6445  -21.2875   20.2509 C   0  0  0  0  0  0  0  0  0  0  0  0
  -30.7131  -22.3829   20.6821 C   0  0  0  0  0  0  0  0  0  0  0  0
  -23.7727  -17.8528   21.5161 C   0  0  0  0  0  0  0  0  0  0  0  0
  -23.5224  -14.6571   21.0192 C   0  0  0  0  0  0  0  0  0  0  0  0
  -25.0278  -11.7468   20.0648 C   0  0  0  0  0  0  0  0  0  0  0  0
  -27.6171  -26.5345   20.8211 C   0  0  0  0  0  0  0  0  0  0  0  0
  -20.5968  -21.8131   22.0525 C   0  0  0  0  0  0  0  0  0  0  0  0
  -24.6811  -17.6349   19.1744 C   0  0  0  0  0  0  0  0  0  0  0  0
  -25.8529  -15.6233   20.9979 C   0  0  0  0  0  0  0  0  0  0  0  0
  -20.5126  -20.3067   22.2851 C   0  0  0  0  0  0  0  0  0  0  0  0
  -26.2393  -29.1332   18.8147 C   0  0  0  0  0  0  0  0  0  0  0  0
  -21.7157  -19.8225   23.0881 C   0  0  0  0  0  0  0  0  0  0  0  0
  -24.9552  -29.5188   19.5527 C   0  0  0  0  0  0  0  0  0  0  0  0
  -26.5059  -27.6307   18.8876 C   0  0  0  0  0  0  0  0  0  0  0  0
  -25.2189  -27.4503   20.9806 C   0  0  0  0  0  0  0  0  0  0  0  0
  -23.0242  -20.0812   22.3316 C   0  0  1  0  0  0  0  0  0  0  0  0
  -23.8644  -16.9895   20.2897 C   0  0  1  0  0  0  0  0  0  0  0  0
  -24.9426  -28.9627   20.9901 C   0  0  2  0  0  0  0  0  0  0  0  0
  -33.1148  -21.5708   20.3631 C   0  0  0  0  0  0  0  0  0  0  0  0
  -29.2652  -20.4539   24.5251 C   0  0  0  0  0  0  0  0  0  0  0  0
  -24.5794   -9.2921   19.7988 C   0  0  0  0  0  0  0  0  0  0  0  0
  -31.9729  -16.7475   18.5723 C   0  0  0  0  0  0  0  0  0  0  0  0
  -23.6994  -14.2993   24.0442 C   0  0  0  0  0  0  0  0  0  0  0  0
  -24.2014  -11.8771   23.6584 C   0  0  0  0  0  0  0  0  0  0  0  0
  -22.0187  -12.8302   22.9165 C   0  0  0  0  0  0  0  0  0  0  0  0
  -25.5915  -11.8403   17.1609 C   0  0  0  0  0  0  0  0  0  0  0  0
  -29.9528  -21.7806   24.8313 C   0  0  0  0  0  0  0  0  0  0  0  0
  -31.9652  -19.1043   19.4510 C   0  0  0  0  0  0  0  0  0  0  0  0
  -24.1254  -13.4262   21.6520 C   0  0  1  0  0  0  0  0  0  0  0  0
  -24.5866  -10.6495   19.1131 C   0  0  2  0  0  0  0  0  0  0  0  0
  -31.1100  -17.9288   18.9896 C   0  0  2  0  0  0  0  0  0  1  0  0
  -23.5275  -13.1284   23.0561 C   0  0  0  0  0  0  0  0  0  0  0  0
  -22.6337  -28.4244   21.6690 N   0  0  0  0  0  0  0  0  0  0  0  0
  -31.0835  -20.2054   19.8516 N   0  0  0  0  0  0  0  0  0  0  0  0
  -23.6518  -29.3007   21.7124 N   0  0  0  0  0  0  0  0  0  0  0  0
  -24.4100  -15.6991   20.7156 N   0  0  0  0  0  0  0  0  0  0  0  0
  -26.4831  -27.1759   20.2796 N   0  0  0  0  0  0  0  0  0  0  0  0
  -24.2921  -31.4109   22.5770 N   0  0  0  0  0  0  0  0  0  0  0  0
  -21.4668  -31.1131   25.0913 N   0  0  0  0  0  0  0  0  0  0  0  0
  -30.3960  -22.2858   22.0201 N   0  0  0  0  0  0  0  0  0  0  0  0
  -27.4910  -26.1761   22.1629 N   0  0  0  0  0  0  0  0  0  0  0  0
  -23.2092  -19.0940   21.2896 N   0  0  0  0  0  0  0  0  0  0  0  0
  -23.9530  -12.3452   20.6876 N   0  0  0  0  0  0  0  0  0  0  0  0
  -25.5054  -10.5794   17.9418 N   0  3  0  0  0  0  0  0  0  0  0  0
  -20.6589  -32.1205   23.1962 O   0  0  0  0  0  0  0  0  0  0  0  0
  -30.3625  -23.1771   19.8257 O   0  0  0  0  0  0  0  0  0  0  0  0
  -24.1815  -17.4239   22.5888 O   0  0  0  0  0  0  0  0  0  0  0  0
  -22.3097  -14.6897   20.7956 O   0  0  0  0  0  0  0  0  0  0  0  0
  -26.2080  -12.0409   20.2411 O   0  0  0  0  0  0  0  0  0  0  0  0
  -28.6359  -26.3434   20.1522 O   0  0  0  0  0  0  0  0  0  0  0  0
  -16.7294  -26.5456   23.1370 O   0  0  0  0  0  0  0  0  0  0  0  0
  -30.2742  -17.4985   20.0632 O   0  0  0  0  0  0  0  0  0  1  0  0
  -16.3503  -21.1742   21.9503 F   0  0  0  0  0  0  0  0  0  0  0  0
  -28.2468  -23.5854   26.1307 F   0  0  0  0  0  0  0  0  0  0  0  0
  -17.2500  -25.6165   20.5859 F   0  0  0  0  0  0  0  0  0  0  0  0
  1  2  1  0  0  0  0
  1  5  2  0  0  0  0
  2  6  2  0  0  0  0
  3  8  2  0  0  0  0
  3 17  1  0  0  0  0
  4  9  1  0  0  0  0
  4 17  2  0  0  0  0
  5 19  1  0  0  0  0
  6 21  1  0  0  0  0
  7 10  2  0  0  0  0
  7 20  1  0  0  0  0
  8 26  1  0  0  0  0
  9 26  2  0  0  0  0
 10 27  1  0  0  0  0
 11 12  2  0  0  0  0
 11 28  1  0  0  0  0
 12 29  1  0  0  0  0
 13 22  1  0  0  0  0
 13 27  2  0  0  0  0
 14 24  2  0  0  0  0
 14 25  1  0  0  0  0
 15 24  1  0  0  0  0
 15 30  2  0  0  0  0
 16 29  2  0  0  0  0
 16 31  1  0  0  0  0
 17 32  1  0  0  0  0
 18 32  1  0  0  0  0
 18 33  2  0  0  0  0
 18 34  1  0  0  0  0
 19 21  2  0  0  0  0
 19 41  1  0  0  0  0
 20 22  2  0  0  0  0
 20 42  1  0  0  0  0
 21 50  1  0  0  0  0
 22 43  1  0  0  0  0
 23 25  2  0  0  0  0
 23 30  1  0  0  0  0
 23 61  1  0  0  0  0
 24 75  1  0  0  0  0
 25 74  1  0  0  0  0
 26 85  1  0  0  0  0
 27 86  1  0  0  0  0
 28 31  2  0  0  0  0
 28 85  1  0  0  0  0
 29 87  1  0  0  0  0
 30 88  1  0  0  0  0
 31 89  1  0  0  0  0
 32 67  2  0  0  0  0
 33 69  1  0  0  0  0
 33 72  1  0  0  0  0
 34 73  1  0  0  0  0
 34 79  2  0  0  0  0
 35 36  1  0  0  0  0
 35 53  1  0  0  0  0
 35 68  2  0  0  0  0
 36 74  1  0  0  0  0
 36 80  2  0  0  0  0
 37 51  1  0  0  0  0
 37 76  1  0  0  0  0
 37 81  2  0  0  0  0
 38 63  1  0  0  0  0
 38 70  1  0  0  0  0
 38 82  2  0  0  0  0
 39 64  1  0  0  0  0
 39 77  1  0  0  0  0
 39 83  2  0  0  0  0
 40 71  1  0  0  0  0
 40 75  1  0  0  0  0
 40 84  2  0  0  0  0
 41 44  1  0  0  0  0
 42 51  1  0  0  0  0
 43 70  1  0  0  0  0
 44 46  1  0  0  0  0
 45 47  1  0  0  0  0
 45 48  1  0  0  0  0
 46 50  1  0  0  0  0
 47 52  1  0  0  0  0
 48 71  1  0  0  0  0
 49 52  1  0  0  0  0
 49 71  1  0  0  0  0
 50 76  1  0  0  0  0
 51 70  1  0  0  0  0
 52 69  1  0  0  0  0
 54 61  1  0  0  0  0
 55 64  1  0  0  0  0
 56 65  1  0  0  0  0
 57 66  1  0  0  0  0
 58 66  1  0  0  0  0
 59 66  1  0  0  0  0
 60 78  1  0  0  0  0
 62 65  1  0  0  0  0
 62 68  1  0  0  0  0
 63 66  1  0  0  0  0
 63 77  1  0  0  0  0
 64 78  1  0  0  0  0
 65 86  1  0  0  0  0
 67 69  1  0  0  0  0
M  CHG  1  78   1
M  ISO  4  40 100  65 101  75 100  86 101
M  END
> <Batch ID>
0172

> <Smiles>
CCc1c(F)cc([100NH:0][100C:0](=O)N2CCCC(n3nc(-c4ccc(Oc5ccc(F)cc5F)cc4)c(C(N)=O)c3N)C2)cc1NC(=O)C(C)=NC[101CH:1](C)[101O:1]c1ccc2c(c1)CN(C(=O)C(NC(=O)C(C)NC)C(C)(C)C)C(C(=O)NC1CCCc3ccccc31)C2

> <Shape>
0.194

> <Color>
0.103

> <Negative vol penalty>
0.000

$$$$

  -OEChem-04052304263D

 87 95  0     1  0  0  0  0  0999 V2000
  -19.6313  -11.4631   20.6013 C   0  0  0  0  0  0  0  0  0  0  0  0
  -20.1109  -12.6856   21.0606 C   0  0  0  0  0  0  0  0  0  0  0  0
  -27.5461  -24.4405   20.9915 C   0  0  0  0  0  0  0  0  0  0  0  0
  -29.0623  -25.8388   19.7334 C   0  0  0  0  0  0  0  0  0  0  0  0
  -20.4930  -10.3720   20.4977 C   0  0  0  0  0  0  0  0  0  0  0  0
  -21.4524  -12.8173   21.4176 C   0  0  0  0  0  0  0  0  0  0  0  0
  -23.5373  -17.0614   19.6048 C   0  0  0  0  0  0  0  0  0  0  0  0
  -27.9445  -23.3339   20.2418 C   0  0  0  0  0  0  0  0  0  0  0  0
  -29.4608  -24.7321   18.9837 C   0  0  0  0  0  0  0  0  0  0  0  0
  -23.2496  -18.2491   20.2759 C   0  0  0  0  0  0  0  0  0  0  0  0
  -28.3004  -20.2087   18.4169 C   0  0  0  0  0  0  0  0  0  0  0  0
  -27.3065  -19.3519   17.9441 C   0  0  0  0  0  0  0  0  0  0  0  0
  -21.6030  -26.4281   23.9175 C   0  0  0  0  0  0  0  0  0  0  0  0
  -25.3799  -18.1226   21.4006 C   0  0  0  0  0  0  0  0  0  0  0  0
  -19.7157  -26.4201   25.9719 C   0  0  0  0  0  0  0  0  0  0  0  0
  -26.3183  -21.1790   16.7104 C   0  0  0  0  0  0  0  0  0  0  0  0
  -28.1049  -25.6931   20.7373 C   0  0  0  0  0  0  0  0  0  0  0  0
  -20.9342  -27.6047   24.2546 C   0  0  0  0  0  0  0  0  0  0  0  0
  -28.2629  -27.3001   22.7121 C   0  0  0  0  0  0  0  0  0  0  0  0
  -21.8479  -10.4930   20.8444 C   0  0  0  0  0  0  0  0  0  0  0  0
  -24.7459  -16.3885   19.8352 C   0  0  0  0  0  0  0  0  0  0  0  0
  -22.3328  -11.7264   21.3197 C   0  0  0  0  0  0  0  0  0  0  0  0
  -25.6817  -16.9279   20.7293 C   0  0  0  0  0  0  0  0  0  0  0  0
  -21.3281  -25.2474   24.6075 C   0  0  0  0  0  0  0  0  0  0  0  0
  -19.9905  -27.6008   25.2818 C   0  0  0  0  0  0  0  0  0  0  0  0
  -28.9019  -23.4796   19.2379 C   0  0  0  0  0  0  0  0  0  0  0  0
  -24.1697  -18.7784   21.1761 C   0  0  0  0  0  0  0  0  0  0  0  0
  -28.3032  -21.5507   18.0366 C   0  0  0  0  0  0  0  0  0  0  0  0
  -26.3155  -19.8370   17.0908 C   0  0  0  0  0  0  0  0  0  0  0  0
  -20.3845  -25.2434   25.6347 C   0  0  0  0  0  0  0  0  0  0  0  0
  -27.3122  -22.0359   17.1833 C   0  0  0  0  0  0  0  0  0  0  0  0
  -27.6933  -26.8367   21.5110 C   0  0  0  0  0  0  0  0  0  0  0  0
  -27.5177  -28.4059   23.0414 C   0  0  0  0  0  0  0  0  0  0  0  0
  -21.2453  -28.8347   23.5047 C   0  0  0  0  0  0  0  0  0  0  0  0
  -29.3670  -26.7778   23.4631 C   0  0  0  0  0  0  0  0  0  0  0  0
  -23.4702  -22.4888   23.2078 C   0  0  0  0  0  0  0  0  0  0  0  0
  -22.9679  -23.9015   23.2876 C   0  0  0  0  0  0  0  0  0  0  0  0
  -25.5395  -13.5298   20.9761 C   0  0  0  0  0  0  0  0  0  0  0  0
  -28.5296  -14.4492   20.1181 C   0  0  0  0  0  0  0  0  0  0  0  0
  -30.7017  -16.9998   19.4675 C   0  0  0  0  0  0  0  0  0  0  0  0
  -21.9026  -29.9935   21.6295 C   0  0  0  0  0  0  0  0  0  0  0  0
  -22.7305   -9.2729   20.7604 C   0  0  0  0  0  0  0  0  0  0  0  0
  -25.0527  -15.1224   19.0833 C   0  0  0  0  0  0  0  0  0  0  0  0
  -27.0023  -16.2549   20.9968 C   0  0  0  0  0  0  0  0  0  0  0  0
  -24.2219   -9.5958   20.8034 C   0  0  0  0  0  0  0  0  0  0  0  0
  -24.9142  -31.9000   21.0815 C   0  0  0  0  0  0  0  0  0  0  0  0
  -24.5210  -10.5887   21.9221 C   0  0  0  0  0  0  0  0  0  0  0  0
  -26.0175  -30.8494   21.2064 C   0  0  0  0  0  0  0  0  0  0  0  0
  -23.6553  -31.3172   20.4466 C   0  0  0  0  0  0  0  0  0  0  0  0
  -24.2323  -29.0528   21.2764 C   0  0  0  0  0  0  0  0  0  0  0  0
  -23.7871  -11.9155   21.6931 C   0  0  1  0  0  0  0  0  0  0  0  0
  -26.0932  -14.2510   19.7799 C   0  0  1  0  0  0  0  0  0  0  0  0
  -25.5079  -29.5971   21.9419 C   0  0  1  0  0  0  0  0  0  0  0  0
  -32.8275  -18.1207   18.7452 C   0  0  0  0  0  0  0  0  0  0  0  0
  -29.4094  -13.8078   22.9685 C   0  0  0  0  0  0  0  0  0  0  0  0
  -31.4931  -15.1308   22.5487 C   0  0  0  0  0  0  0  0  0  0  0  0
  -31.0188  -13.0908   21.1936 C   0  0  0  0  0  0  0  0  0  0  0  0
  -29.8236  -17.1040   16.6431 C   0  0  0  0  0  0  0  0  0  0  0  0
  -24.5617  -22.2203   22.1951 C   0  0  0  0  0  0  0  0  0  0  0  0
  -24.9983  -20.7631   22.1911 C   0  0  0  0  0  0  0  0  0  1  0  0
  -29.6585  -15.1849   20.7988 C   0  0  1  0  0  0  0  0  0  0  0  0
  -31.6695  -17.2309   18.3210 C   0  0  2  0  0  0  0  0  0  0  0  0
  -30.3693  -14.3155   21.8740 C   0  0  0  0  0  0  0  0  0  0  0  0
  -26.6655  -27.5867   21.1048 N   0  0  0  0  0  0  0  0  0  0  0  0
  -21.6265  -28.8006   22.2699 N   0  0  0  0  0  0  0  0  0  0  0  0
  -26.5832  -28.5325   22.0560 N   0  0  0  0  0  0  0  0  0  0  0  0
  -27.2532  -15.0161   20.2419 N   0  0  0  0  0  0  0  0  0  0  0  0
  -23.2207  -30.1106   21.1517 N   0  0  0  0  0  0  0  0  0  0  0  0
  -19.3029  -28.7819   25.6396 N   0  0  0  0  0  0  0  0  0  0  0  0
  -27.5771  -29.2725   24.0747 N   0  0  0  0  0  0  0  0  0  0  0  0
  -30.0208  -25.6350   22.9825 N   0  0  0  0  0  0  0  0  0  0  0  0
  -22.0087  -24.0557   24.2651 N   0  0  0  0  0  0  0  0  0  0  0  0
  -24.4694  -12.7038   20.6894 N   0  0  0  0  0  0  0  0  0  0  0  0
  -30.5381  -15.6571   19.7350 N   0  0  0  0  0  0  0  0  0  0  0  0
  -30.9711  -17.8821   17.1768 N   0  3  0  0  0  0  0  0  0  0  0  0
  -29.7515  -27.2990   24.5373 O   0  0  0  0  0  0  0  0  0  0  0  0
  -22.9709  -21.6736   23.9686 O   0  0  0  0  0  0  0  0  0  0  0  0
  -23.4746  -24.7054   22.5228 O   0  0  0  0  0  0  0  0  0  0  0  0
  -26.0464  -13.7083   22.0774 O   0  0  0  0  0  0  0  0  0  0  0  0
  -28.7725  -13.4136   19.4935 O   0  0  0  0  0  0  0  0  0  0  0  0
  -30.1491  -17.9186   20.0682 O   0  0  0  0  0  0  0  0  0  0  0  0
  -21.0770  -30.8959   21.4713 O   0  0  0  0  0  0  0  0  0  0  0  0
  -29.2911  -22.3999   18.5063 O   0  0  0  0  0  0  0  0  0  0  0  0
  -23.8911  -19.9372   21.8329 O   0  0  0  0  0  0  0  0  0  1  0  0
  -25.3620  -19.0137   16.6355 F   0  0  0  0  0  0  0  0  0  0  0  0
  -20.1118  -24.1144   26.3043 F   0  0  0  0  0  0  0  0  0  0  0  0
  -27.3104  -23.3239   16.8135 F   0  0  0  0  0  0  0  0  0  0  0  0
  1  2  1  0  0  0  0
  1  5  2  0  0  0  0
  2  6  2  0  0  0  0
  3  8  2  0  0  0  0
  3 17  1  0  0  0  0
  4  9  1  0  0  0  0
  4 17  2  0  0  0  0
  5 20  1  0  0  0  0
  6 22  1  0  0  0  0
  7 10  2  0  0  0  0
  7 21  1  0  0  0  0
  8 26  1  0  0  0  0
  9 26  2  0  0  0  0
 10 27  1  0  0  0  0
 11 12  2  0  0  0  0
 11 28  1  0  0  0  0
 12 29  1  0  0  0  0
 13 18  2  0  0  0  0
 13 24  1  0  0  0  0
 14 23  1  0  0  0  0
 14 27  2  0  0  0  0
 15 25  2  0  0  0  0
 15 30  1  0  0  0  0
 16 29  2  0  0  0  0
 16 31  1  0  0  0  0
 17 32  1  0  0  0  0
 18 25  1  0  0  0  0
 18 34  1  0  0  0  0
 19 32  1  0  0  0  0
 19 33  2  0  0  0  0
 19 35  1  0  0  0  0
 20 22  2  0  0  0  0
 20 42  1  0  0  0  0
 21 23  2  0  0  0  0
 21 43  1  0  0  0  0
 22 51  1  0  0  0  0
 23 44  1  0  0  0  0
 24 30  2  0  0  0  0
 24 72  1  0  0  0  0
 25 69  1  0  0  0  0
 26 83  1  0  0  0  0
 27 84  1  0  0  0  0
 28 31  2  0  0  0  0
 28 83  1  0  0  0  0
 29 85  1  0  0  0  0
 30 86  1  0  0  0  0
 31 87  1  0  0  0  0
 32 64  2  0  0  0  0
 33 66  1  0  0  0  0
 33 70  1  0  0  0  0
 34 65  2  0  0  0  0
 35 71  1  0  0  0  0
 35 76  2  0  0  0  0
 36 37  1  0  0  0  0
 36 59  1  0  0  0  0
 36 77  2  0  0  0  0
 37 72  1  0  0  0  0
 37 78  2  0  0  0  0
 38 52  1  0  0  0  0
 38 73  1  0  0  0  0
 38 79  2  0  0  0  0
 39 61  1  0  0  0  0
 39 67  1  0  0  0  0
 39 80  2  0  0  0  0
 40 62  1  0  0  0  0
 40 74  1  0  0  0  0
 40 81  2  0  0  0  0
 41 65  1  0  0  0  0
 41 68  1  0  0  0  0
 41 82  2  0  0  0  0
 42 45  1  0  0  0  0
 43 52  1  0  0  0  0
 44 67  1  0  0  0  0
 45 47  1  0  0  0  0
 46 48  1  0  0  0  0
 46 49  1  0  0  0  0
 47 51  1  0  0  0  0
 48 53  1  0  0  0  0
 49 68  1  0  0  0  0
 50 53  1  0  0  0  0
 50 68  1  0  0  0  0
 51 73  1  0  0  0  0
 52 67  1  0  0  0  0
 53 66  1  0  0  0  0
 54 62  1  0  0  0  0
 55 63  1  0  0  0  0
 56 63  1  0  0  0  0
 57 63  1  0  0  0  0
 58 75  1  0  0  0  0
 59 60  1  0  0  0  0
 60 84  1  0  0  0  0
 61 63  1  0  0  0  0
 61 74  1  0  0  0  0
 62 75  1  0  0  0  0
 64 66  1  0  0  0  0
M  CHG  1  75   1
M  ISO  4  41 100  60 101  65 100  84 101
M  END
> <Batch ID>
0172

> <Smiles>
CNC(C)C(=O)NC(C(=O)N1Cc2cc([101O:1][101CH2:1]CC(=O)C(=O)Nc3cc(C=[100N:0][100C:0](=O)N4CCCC(n5nc(-c6ccc(Oc7ccc(F)cc7F)cc6)c(C(N)=O)c5N)C4)c(N)cc3F)ccc2CC1C(=O)NC1CCCc2ccccc21)C(C)(C)C

> <Shape>
0.227

> <Color>
0.056

> <Negative vol penalty>
0.000

$$$$

  -OEChem-04052304263D

 89 97  0     1  0  0  0  0  0999 V2000
  -23.0738   -7.5979   20.8435 C   0  0  0  0  0  0  0  0  0  0  0  0
  -22.4927   -8.4752   19.9335 C   0  0  0  0  0  0  0  0  0  0  0  0
  -29.4064  -28.6021   19.8735 C   0  0  0  0  0  0  0  0  0  0  0  0
  -27.6956  -27.1165   19.0349 C   0  0  0  0  0  0  0  0  0  0  0  0
  -23.5865   -8.0816   22.0464 C   0  0  0  0  0  0  0  0  0  0  0  0
  -22.4232   -9.8368   20.2264 C   0  0  0  0  0  0  0  0  0  0  0  0
  -22.6122  -16.2496   17.0395 C   0  0  0  0  0  0  0  0  0  0  0  0
  -30.3229  -27.5506   19.8665 C   0  0  0  0  0  0  0  0  0  0  0  0
  -28.6121  -26.0650   19.0278 C   0  0  0  0  0  0  0  0  0  0  0  0
  -21.8844  -17.4363   16.9633 C   0  0  0  0  0  0  0  0  0  0  0  0
  -31.1429  -24.9821   17.0674 C   0  0  0  0  0  0  0  0  0  0  0  0
  -31.1754  -24.1604   15.9408 C   0  0  0  0  0  0  0  0  0  0  0  0
  -22.8743  -18.1695   19.0374 C   0  0  0  0  0  0  0  0  0  0  0  0
  -19.9464  -27.6943   21.5093 C   0  0  0  0  0  0  0  0  0  0  0  0
  -30.6274  -22.2518   17.3170 C   0  0  0  0  0  0  0  0  0  0  0  0
  -19.5737  -28.5863   23.6824 C   0  0  0  0  0  0  0  0  0  0  0  0
  -28.0927  -28.3850   19.4577 C   0  0  0  0  0  0  0  0  0  0  0  0
  -26.8764  -30.3715   18.4176 C   0  0  0  0  0  0  0  0  0  0  0  0
  -23.5319   -9.4511   22.3500 C   0  0  0  0  0  0  0  0  0  0  0  0
  -23.4697  -16.0088   18.1227 C   0  0  0  0  0  0  0  0  0  0  0  0
  -22.9345  -10.3391   21.4351 C   0  0  0  0  0  0  0  0  0  0  0  0
  -23.6137  -16.9800   19.1237 C   0  0  0  0  0  0  0  0  0  0  0  0
  -18.9244  -26.7807   21.7423 C   0  0  0  0  0  0  0  0  0  0  0  0
  -20.2834  -28.6177   22.4928 C   0  0  0  0  0  0  0  0  0  0  0  0
  -29.9258  -26.2821   19.4436 C   0  0  0  0  0  0  0  0  0  0  0  0
  -22.0132  -18.3953   17.9638 C   0  0  0  0  0  0  0  0  0  0  0  0
  -30.8526  -24.4387   18.3189 C   0  0  0  0  0  0  0  0  0  0  0  0
  -30.9177  -22.7952   16.0656 C   0  0  0  0  0  0  0  0  0  0  0  0
  -30.5949  -23.0735   18.4437 C   0  0  0  0  0  0  0  0  0  0  0  0
  -27.1454  -29.4706   19.4653 C   0  0  0  0  0  0  0  0  0  0  0  0
  -18.2758  -26.8314   22.9656 C   0  0  0  0  0  0  0  0  0  0  0  0
  -25.9062  -31.2035   18.9206 C   0  0  0  0  0  0  0  0  0  0  0  0
  -27.4521  -30.4494   17.1067 C   0  0  0  0  0  0  0  0  0  0  0  0
  -23.6056  -13.8323   20.4353 C   0  0  0  0  0  0  0  0  0  0  0  0
  -18.0188  -26.4305   19.4168 C   0  0  0  0  0  0  0  0  0  0  0  0
  -20.6212  -21.7180   18.7344 C   0  0  0  0  0  0  0  0  0  0  0  0
  -26.4112  -15.3073   21.1248 C   0  0  0  0  0  0  0  0  0  0  0  0
  -19.4007  -23.5541   19.9905 C   0  0  0  0  0  0  0  0  0  0  0  0
  -28.3247  -18.1269   20.9374 C   0  0  0  0  0  0  0  0  0  0  0  0
  -21.7632  -30.5389   23.1748 C   0  0  0  0  0  0  0  0  0  0  0  0
  -24.0569   -9.9205   23.6836 C   0  0  0  0  0  0  0  0  0  0  0  0
  -24.2680  -14.7352   18.1765 C   0  0  0  0  0  0  0  0  0  0  0  0
  -24.5364  -16.7787   20.2971 C   0  0  0  0  0  0  0  0  0  0  0  0
  -24.2808  -11.4289   23.7533 C   0  0  0  0  0  0  0  0  0  0  0  0
  -24.3088  -33.0252   23.0515 C   0  0  0  0  0  0  0  0  0  0  0  0
  -23.0779  -12.1741   23.1837 C   0  0  0  0  0  0  0  0  0  0  0  0
  -25.2976  -32.4807   22.0180 C   0  0  0  0  0  0  0  0  0  0  0  0
  -23.7048  -31.9089   23.9016 C   0  0  0  0  0  0  0  0  0  0  0  0
  -24.0873  -30.2639   22.1080 C   0  0  0  0  0  0  0  0  0  0  0  0
  -22.8626  -11.8262   21.7059 C   0  0  1  0  0  0  0  0  0  0  0  0
  -24.7218  -14.3736   19.5874 C   0  0  1  0  0  0  0  0  0  0  0  0
  -24.6730  -31.3446   21.1845 C   0  0  2  0  0  0  0  0  0  0  0  0
  -16.5438  -26.7161   19.2839 C   0  0  0  0  0  0  0  0  0  0  0  0
  -30.3533  -19.5845   21.1775 C   0  0  0  0  0  0  0  0  0  0  0  0
  -25.3969  -15.6255   23.9849 C   0  0  0  0  0  0  0  0  0  0  0  0
  -27.1913  -17.3313   24.3574 C   0  0  0  0  0  0  0  0  0  0  0  0
  -27.8056  -14.9792   23.7981 C   0  0  0  0  0  0  0  0  0  0  0  0
  -29.3647  -17.3147   18.2884 C   0  0  0  0  0  0  0  0  0  0  0  0
  -20.6931  -22.7957   19.7928 C   0  0  0  0  0  0  0  0  0  0  0  0
  -21.4838  -20.4927   18.9519 C   0  0  0  0  0  0  0  0  0  1  0  0
  -18.5383  -25.7660   20.6907 C   0  0  1  0  0  0  0  0  0  0  0  0
  -26.8234  -16.4640   22.0029 C   0  0  1  0  0  0  0  0  0  0  0  0
  -29.7721  -18.3368   20.5307 C   0  0  2  0  0  0  0  0  0  0  0  0
  -26.7854  -16.1033   23.5148 C   0  0  0  0  0  0  0  0  0  0  0  0
  -18.5751  -27.7138   23.9451 N   0  0  0  0  0  0  0  0  0  0  0  0
  -26.4059  -29.7080   20.5520 N   0  0  0  0  0  0  0  0  0  0  0  0
  -25.6628  -30.7675   20.1898 N   0  0  0  0  0  0  0  0  0  0  0  0
  -25.2907  -15.5144   20.3079 N   0  0  0  0  0  0  0  0  0  0  0  0
  -23.1284  -30.8706   23.0446 N   0  0  0  0  0  0  0  0  0  0  0  0
  -25.2462  -32.2582   18.3967 N   0  0  0  0  0  0  0  0  0  0  0  0
  -28.4365  -29.5166   16.7529 N   0  0  0  0  0  0  0  0  0  0  0  0
  -21.3199  -29.5612   22.2849 N   0  0  0  0  0  0  0  0  0  0  0  0
  -23.8101  -12.5387   20.8757 N   0  0  0  0  0  0  0  0  0  0  0  0
  -19.6231  -24.8534   20.4193 N   0  0  0  0  0  0  0  0  0  0  0  0
  -28.1326  -16.8939   21.5239 N   0  0  0  0  0  0  0  0  0  0  0  0
  -29.8787  -18.4813   19.0513 N   0  3  0  0  0  0  0  0  0  0  0  0
  -27.1155  -31.3304   16.2797 O   0  0  0  0  0  0  0  0  0  0  0  0
  -22.6316  -14.5368   20.6736 O   0  0  0  0  0  0  0  0  0  0  0  0
  -18.7955  -26.7572   18.5150 O   0  0  0  0  0  0  0  0  0  0  0  0
  -19.8756  -21.8317   17.7616 O   0  0  0  0  0  0  0  0  0  0  0  0
  -27.0639  -14.2610   21.1571 O   0  0  0  0  0  0  0  0  0  0  0  0
  -18.2959  -23.0520   19.8004 O   0  0  0  0  0  0  0  0  0  0  0  0
  -27.4524  -18.9737   20.7566 O   0  0  0  0  0  0  0  0  0  0  0  0
  -21.0341  -31.1017   23.9957 O   0  0  0  0  0  0  0  0  0  0  0  0
  -30.8199  -25.2559   19.4363 O   0  0  0  0  0  0  0  0  0  0  0  0
  -21.3035  -19.5542   17.8922 O   0  0  0  0  0  0  0  0  0  1  0  0
  -30.9475  -22.0065   14.9834 F   0  0  0  0  0  0  0  0  0  0  0  0
  -30.3143  -22.5459   19.6431 F   0  0  0  0  0  0  0  0  0  0  0  0
  -17.2861  -25.9583   23.2131 F   0  0  0  0  0  0  0  0  0  0  0  0
  1  2  1  0  0  0  0
  1  5  2  0  0  0  0
  2  6  2  0  0  0  0
  3  8  2  0  0  0  0
  3 17  1  0  0  0  0
  4  9  1  0  0  0  0
  4 17  2  0  0  0  0
  5 19  1  0  0  0  0
  6 21  1  0  0  0  0
  7 10  2  0  0  0  0
  7 20  1  0  0  0  0
  8 25  1  0  0  0  0
  9 25  2  0  0  0  0
 10 26  1  0  0  0  0
 11 12  2  0  0  0  0
 11 27  1  0  0  0  0
 12 28  1  0  0  0  0
 13 22  1  0  0  0  0
 13 26  2  0  0  0  0
 14 23  1  0  0  0  0
 14 24  2  0  0  0  0
 15 28  2  0  0  0  0
 15 29  1  0  0  0  0
 16 24  1  0  0  0  0
 16 65  2  0  0  0  0
 17 30  1  0  0  0  0
 18 30  1  0  0  0  0
 18 32  2  0  0  0  0
 18 33  1  0  0  0  0
 19 21  2  0  0  0  0
 19 41  1  0  0  0  0
 20 22  2  0  0  0  0
 20 42  1  0  0  0  0
 21 50  1  0  0  0  0
 22 43  1  0  0  0  0
 23 31  2  0  0  0  0
 23 61  1  0  0  0  0
 24 72  1  0  0  0  0
 25 85  1  0  0  0  0
 26 86  1  0  0  0  0
 27 29  2  0  0  0  0
 27 85  1  0  0  0  0
 28 87  1  0  0  0  0
 29 88  1  0  0  0  0
 30 66  2  0  0  0  0
 31 65  1  0  0  0  0
 31 89  1  0  0  0  0
 32 67  1  0  0  0  0
 32 70  1  0  0  0  0
 33 71  1  0  0  0  0
 33 77  2  0  0  0  0
 34 51  1  0  0  0  0
 34 73  1  0  0  0  0
 34 78  2  0  0  0  0
 35 53  1  0  0  0  0
 35 61  1  0  0  0  0
 35 79  2  0  0  0  0
 36 59  1  0  0  0  0
 36 60  1  0  0  0  0
 36 80  2  0  0  0  0
 37 62  1  0  0  0  0
 37 68  1  0  0  0  0
 37 81  2  0  0  0  0
 38 59  1  0  0  0  0
 38 74  1  0  0  0  0
 38 82  2  0  0  0  0
 39 63  1  0  0  0  0
 39 75  1  0  0  0  0
 39 83  2  0  0  0  0
 40 69  1  0  0  0  0
 40 72  1  0  0  0  0
 40 84  2  0  0  0  0
 41 44  1  0  0  0  0
 42 51  1  0  0  0  0
 43 68  1  0  0  0  0
 44 46  1  0  0  0  0
 45 47  1  0  0  0  0
 45 48  1  0  0  0  0
 46 50  1  0  0  0  0
 47 52  1  0  0  0  0
 48 69  1  0  0  0  0
 49 52  1  0  0  0  0
 49 69  1  0  0  0  0
 50 73  1  0  0  0  0
 51 68  1  0  0  0  0
 52 67  1  0  0  0  0
 54 63  1  0  0  0  0
 55 64  1  0  0  0  0
 56 64  1  0  0  0  0
 57 64  1  0  0  0  0
 58 76  1  0  0  0  0
 60 86  1  0  0  0  0
 61 74  1  0  0  0  0
 62 64  1  0  0  0  0
 62 75  1  0  0  0  0
 63 76  1  0  0  0  0
 66 67  1  0  0  0  0
M  CHG  1  76   1
M  ISO  4  40 100  60 101  72 100  86 101
M  END
> <Batch ID>
0172

> <Smiles>
CNC(C)C(=O)NC(C(=O)N1Cc2cc([101O:1][101CH2:1]C(=O)CC(=O)NC(C(C)=O)c3cc([100NH:0][100C:0](=O)N4CCCC(n5nc(-c6ccc(Oc7ccc(F)cc7F)cc6)c(C(N)=O)c5N)C4)cnc3F)ccc2CC1C(=O)NC1CCCc2ccccc21)C(C)(C)C

> <Shape>
0.266

> <Color>
0.087

> <Negative vol penalty>
0.000

$$$$

  -OEChem-04052304263D

 90 98  0     1  0  0  0  0  0999 V2000
  -28.9516  -32.6697   25.6322 C   0  0  0  0  0  0  0  0  0  0  0  0
  -28.8204  -31.3920   25.0976 C   0  0  0  0  0  0  0  0  0  0  0  0
  -24.8321   -8.7395   21.5924 C   0  0  0  0  0  0  0  0  0  0  0  0
  -23.3001  -10.1062   20.3187 C   0  0  0  0  0  0  0  0  0  0  0  0
  -27.8147  -33.4228   25.9221 C   0  0  0  0  0  0  0  0  0  0  0  0
  -27.5521  -30.8663   24.8537 C   0  0  0  0  0  0  0  0  0  0  0  0
  -27.2250  -28.5974   20.3382 C   0  0  0  0  0  0  0  0  0  0  0  0
  -23.7815   -8.3242   22.4105 C   0  0  0  0  0  0  0  0  0  0  0  0
  -22.2495   -9.6909   21.1368 C   0  0  0  0  0  0  0  0  0  0  0  0
  -27.7686  -27.3183   20.2274 C   0  0  0  0  0  0  0  0  0  0  0  0
  -21.4392   -6.6240   24.6101 C   0  0  0  0  0  0  0  0  0  0  0  0
  -21.3527   -5.2656   24.9152 C   0  0  0  0  0  0  0  0  0  0  0  0
  -25.5627  -26.3680   20.4515 C   0  0  0  0  0  0  0  0  0  0  0  0
  -25.3357  -19.7648   17.6666 C   0  0  0  0  0  0  0  0  0  0  0  0
  -25.4935  -17.3701   17.3881 C   0  0  0  0  0  0  0  0  0  0  0  0
  -27.2146  -18.5619   18.5940 C   0  0  0  0  0  0  0  0  0  0  0  0
  -21.1435   -4.7509   22.5639 C   0  0  0  0  0  0  0  0  0  0  0  0
  -24.5914   -9.6306   20.5465 C   0  0  0  0  0  0  0  0  0  0  0  0
  -26.1209   -9.4511   18.5128 C   0  0  0  0  0  0  0  0  0  0  0  0
  -26.5320  -32.9098   25.6727 C   0  0  0  0  0  0  0  0  0  0  0  0
  -25.8452  -28.7713   20.5177 C   0  0  0  0  0  0  0  0  0  0  0  0
  -26.3970  -31.6127   25.1419 C   0  0  0  0  0  0  0  0  0  0  0  0
  -25.0038  -27.6504   20.5617 C   0  0  0  0  0  0  0  0  0  0  0  0
  -24.8146  -18.5693   17.1718 C   0  0  0  0  0  0  0  0  0  0  0  0
  -26.5358  -19.7611   18.3777 C   0  0  0  0  0  0  0  0  0  0  0  0
  -26.6935  -17.3664   18.0992 C   0  0  0  0  0  0  0  0  0  0  0  0
  -22.4901   -8.7999   22.1827 C   0  0  0  0  0  0  0  0  0  0  0  0
  -26.9378  -26.2033   20.2870 C   0  0  0  0  0  0  0  0  0  0  0  0
  -21.3778   -7.0458   23.2819 C   0  0  0  0  0  0  0  0  0  0  0  0
  -21.2049   -4.3291   23.8921 C   0  0  0  0  0  0  0  0  0  0  0  0
  -21.2300   -6.1093   22.2589 C   0  0  0  0  0  0  0  0  0  0  0  0
  -25.6764  -10.0604   19.7015 C   0  0  0  0  0  0  0  0  0  0  0  0
  -27.1674  -10.2363   18.0949 C   0  0  0  0  0  0  0  0  0  0  0  0
  -25.6314   -8.2800   17.8458 C   0  0  0  0  0  0  0  0  0  0  0  0
  -24.0207  -30.0333   22.7942 C   0  0  0  0  0  0  0  0  0  0  0  0
  -27.6960  -22.9950   21.2399 C   0  0  0  0  0  0  0  0  0  0  0  0
  -21.6453  -29.4779   20.6562 C   0  0  0  0  0  0  0  0  0  0  0  0
  -28.2397  -21.1532   19.6042 C   0  0  0  0  0  0  0  0  0  0  0  0
  -20.5214  -27.6942   17.9725 C   0  0  0  0  0  0  0  0  0  0  0  0
  -28.5854  -15.9696   19.0024 C   0  0  0  0  0  0  0  0  0  0  0  0
  -25.3316  -33.7429   26.0465 C   0  0  0  0  0  0  0  0  0  0  0  0
  -25.2712  -30.1586   20.6087 C   0  0  0  0  0  0  0  0  0  0  0  0
  -23.5134  -27.7839   20.7328 C   0  0  0  0  0  0  0  0  0  0  0  0
  -24.0318  -33.2587   25.4092 C   0  0  0  0  0  0  0  0  0  0  0  0
  -30.5860  -13.1311   19.7883 C   0  0  0  0  0  0  0  0  0  0  0  0
  -23.8958  -31.7466   25.5566 C   0  0  0  0  0  0  0  0  0  0  0  0
  -29.5957  -11.9653   19.7411 C   0  0  0  0  0  0  0  0  0  0  0  0
  -29.9469  -14.3954   20.3601 C   0  0  0  0  0  0  0  0  0  0  0  0
  -27.7076  -13.6433   19.6606 C   0  0  0  0  0  0  0  0  0  0  0  0
  -25.0388  -31.0174   24.8401 C   0  0  1  0  0  0  0  0  0  0  0  0
  -23.9143  -30.1994   21.3046 C   0  0  1  0  0  0  0  0  0  0  0  0
  -28.2873  -12.3657   19.0317 C   0  0  2  0  0  0  0  0  0  0  0  0
  -23.5320  -18.5739   16.4103 C   0  0  0  0  0  0  0  0  0  0  0  0
  -27.5659  -21.9499   22.3253 C   0  0  0  0  0  0  0  0  0  0  0  0
  -18.5257  -27.4393   16.4726 C   0  0  0  0  0  0  0  0  0  0  0  0
  -30.8364  -22.0132   17.9353 C   0  0  0  0  0  0  0  0  0  0  0  0
  -30.0502  -24.3940   17.9565 C   0  0  0  0  0  0  0  0  0  0  0  0
  -32.1379  -23.7544   19.1636 C   0  0  0  0  0  0  0  0  0  0  0  0
  -20.1824  -27.9631   22.8642 C   0  0  0  0  0  0  0  0  0  0  0  0
  -18.7163  -26.9530   21.1039 C   0  0  0  0  0  0  0  0  0  0  0  0
  -18.7200  -29.4226   21.4551 C   0  0  0  0  0  0  0  0  0  0  0  0
  -22.0837  -28.4432   15.5731 C   0  0  0  0  0  0  0  0  0  0  0  0
  -29.9309  -23.0306   20.1092 C   0  0  0  0  0  0  0  0  0  0  0  0
  -28.4460  -22.6328   19.9563 C   0  0  2  0  0  0  0  0  0  0  0  0
  -20.7181  -28.3228   20.3643 C   0  0  1  0  0  0  0  0  0  0  0  0
  -19.8643  -28.1318   16.6759 C   0  0  2  0  0  0  0  0  0  0  0  0
  -30.7171  -23.2843   18.7895 C   0  0  0  0  0  0  0  0  0  0  0  0
  -19.6125  -28.1624   21.4456 C   0  0  0  0  0  0  0  0  0  0  0  0
  -26.3830  -11.1486   20.0185 N   0  0  0  0  0  0  0  0  0  0  0  0
  -27.1971  -24.1911   21.3288 N   0  0  0  0  0  0  0  0  0  1  0  0
  -27.2820  -11.2293   19.0228 N   0  0  0  0  0  0  0  0  0  0  0  0
  -23.0008  -29.1611   20.8234 N   0  0  0  0  0  0  0  0  0  0  0  0
  -28.7147  -14.7157   19.6362 N   0  0  0  0  0  0  0  0  0  0  0  0
  -27.9917  -10.1673   17.0281 N   0  0  0  0  0  0  0  0  0  0  0  0
  -24.5489   -7.5924   18.4113 N   0  0  0  0  0  0  0  0  0  0  0  0
  -27.0640  -20.9741   18.8792 N   0  0  0  0  0  0  0  0  0  0  0  0
  -27.3838  -16.1485   18.3178 N   0  0  0  0  0  0  0  0  0  0  0  0
  -24.8039  -30.9893   23.4124 N   0  0  0  0  0  0  0  0  0  0  0  0
  -20.2074  -28.5402   19.0151 N   0  0  0  0  0  0  0  0  0  0  0  0
  -20.7418  -27.8083   15.5156 N   0  3  0  0  0  0  0  0  0  0  0  0
  -26.1494   -7.8467   16.7888 O   0  0  0  0  0  0  0  0  0  0  0  0
  -23.4345  -29.1072   23.3423 O   0  0  0  0  0  0  0  0  0  0  0  0
  -21.1848  -30.6202   20.7260 O   0  0  0  0  0  0  0  0  0  0  0  0
  -29.0299  -20.2837   19.9574 O   0  0  0  0  0  0  0  0  0  0  0  0
  -21.2383  -26.6992   18.0533 O   0  0  0  0  0  0  0  0  0  0  0  0
  -29.4864  -16.8116   19.0398 O   0  0  0  0  0  0  0  0  0  0  0  0
  -21.4646   -8.3946   22.9807 O   0  0  0  0  0  0  0  0  0  0  0  0
  -27.4713  -24.9407   20.1787 O   0  0  0  0  0  0  0  0  0  1  0  0
  -21.1234   -3.0246   24.1850 F   0  0  0  0  0  0  0  0  0  0  0  0
  -21.1716   -6.5084   20.9809 F   0  0  0  0  0  0  0  0  0  0  0  0
  1  2  1  0  0  0  0
  1  5  2  0  0  0  0
  2  6  2  0  0  0  0
  3  8  2  0  0  0  0
  3 18  1  0  0  0  0
  4  9  1  0  0  0  0
  4 18  2  0  0  0  0
  5 20  1  0  0  0  0
  6 22  1  0  0  0  0
  7 10  2  0  0  0  0
  7 21  1  0  0  0  0
  8 27  1  0  0  0  0
  9 27  2  0  0  0  0
 10 28  1  0  0  0  0
 11 12  2  0  0  0  0
 11 29  1  0  0  0  0
 12 30  1  0  0  0  0
 13 23  1  0  0  0  0
 13 28  2  0  0  0  0
 14 24  2  0  0  0  0
 14 25  1  0  0  0  0
 15 24  1  0  0  0  0
 15 26  2  0  0  0  0
 16 25  2  0  0  0  0
 16 26  1  0  0  0  0
 17 30  2  0  0  0  0
 17 31  1  0  0  0  0
 18 32  1  0  0  0  0
 19 32  1  0  0  0  0
 19 33  2  0  0  0  0
 19 34  1  0  0  0  0
 20 22  2  0  0  0  0
 20 41  1  0  0  0  0
 21 23  2  0  0  0  0
 21 42  1  0  0  0  0
 22 50  1  0  0  0  0
 23 43  1  0  0  0  0
 24 53  1  0  0  0  0
 25 76  1  0  0  0  0
 26 77  1  0  0  0  0
 27 87  1  0  0  0  0
 28 88  1  0  0  0  0
 29 31  2  0  0  0  0
 29 87  1  0  0  0  0
 30 89  1  0  0  0  0
 31 90  1  0  0  0  0
 32 69  2  0  0  0  0
 33 71  1  0  0  0  0
 33 74  1  0  0  0  0
 34 75  1  0  0  0  0
 34 81  2  0  0  0  0
 35 51  1  0  0  0  0
 35 78  1  0  0  0  0
 35 82  2  0  0  0  0
 36 54  1  0  0  0  0
 36 64  1  0  0  0  0
 36 70  2  0  0  0  0
 37 65  1  0  0  0  0
 37 72  1  0  0  0  0
 37 83  2  0  0  0  0
 38 64  1  0  0  0  0
 38 76  1  0  0  0  0
 38 84  2  0  0  0  0
 39 66  1  0  0  0  0
 39 79  1  0  0  0  0
 39 85  2  0  0  0  0
 40 73  1  0  0  0  0
 40 77  1  0  0  0  0
 40 86  2  0  0  0  0
 41 44  1  0  0  0  0
 42 51  1  0  0  0  0
 43 72  1  0  0  0  0
 44 46  1  0  0  0  0
 45 47  1  0  0  0  0
 45 48  1  0  0  0  0
 46 50  1  0  0  0  0
 47 52  1  0  0  0  0
 48 73  1  0  0  0  0
 49 52  1  0  0  0  0
 49 73  1  0  0  0  0
 50 78  1  0  0  0  0
 51 72  1  0  0  0  0
 52 71  1  0  0  0  0
 55 66  1  0  0  0  0
 56 67  1  0  0  0  0
 57 67  1  0  0  0  0
 58 67  1  0  0  0  0
 59 68  1  0  0  0  0
 60 68  1  0  0  0  0
 61 68  1  0  0  0  0
 62 80  1  0  0  0  0
 63 64  1  0  0  0  0
 63 67  1  0  0  0  0
 65 68  1  0  0  0  0
 65 79  1  0  0  0  0
 66 80  1  0  0  0  0
 69 71  1  0  0  0  0
 70 88  1  0  0  0  0
M  CHG  1  80   1
M  ISO  4  40 100  70 101  77 100  88 101
M  END
> <Batch ID>
0172

> <Smiles>
CNC(C)C(=O)NC(C(=O)N1Cc2cc([101O:1][101N:1]=C(C)C(CC(C)(C)C)C(=O)Nc3cc(C)cc([100NH:0][100C:0](=O)N4CCCC(n5nc(-c6ccc(Oc7ccc(F)cc7F)cc6)c(C(N)=O)c5N)C4)c3)ccc2CC1C(=O)NC1CCCc2ccccc21)C(C)(C)C

> <Shape>
0.333

> <Color>
0.102

> <Negative vol penalty>
0.000

$$$$

  -OEChem-04052304263D

 90 98  0     1  0  0  0  0  0999 V2000
  -28.7073  -37.1811   20.1974 C   0  0  0  0  0  0  0  0  0  0  0  0
  -29.0685  -35.8573   19.9680 C   0  0  0  0  0  0  0  0  0  0  0  0
  -27.8907  -15.7871   23.0955 C   0  0  0  0  0  0  0  0  0  0  0  0
  -24.4717  -19.6029   20.1915 C   0  0  0  0  0  0  0  0  0  0  0  0
  -22.3136  -18.6796   19.6192 C   0  0  0  0  0  0  0  0  0  0  0  0
  -27.7823  -37.4873   21.1947 C   0  0  0  0  0  0  0  0  0  0  0  0
  -28.5057  -34.8390   20.7366 C   0  0  0  0  0  0  0  0  0  0  0  0
  -27.1029  -29.1733   18.8824 C   0  0  0  0  0  0  0  0  0  0  0  0
  -27.9008  -17.0769   22.5643 C   0  0  0  0  0  0  0  0  0  0  0  0
  -28.2817  -14.7050   22.3069 C   0  0  0  0  0  0  0  0  0  0  0  0
  -24.2047  -20.7186   19.3981 C   0  0  0  0  0  0  0  0  0  0  0  0
  -22.0466  -19.7954   18.8259 C   0  0  0  0  0  0  0  0  0  0  0  0
  -27.7698  -27.9549   19.0028 C   0  0  0  0  0  0  0  0  0  0  0  0
  -21.0562  -22.9941   19.2816 C   0  0  0  0  0  0  0  0  0  0  0  0
  -19.7966  -23.5823   19.3959 C   0  0  0  0  0  0  0  0  0  0  0  0
  -26.4634  -27.4406   20.9644 C   0  0  0  0  0  0  0  0  0  0  0  0
  -19.3859  -23.1580   17.0531 C   0  0  0  0  0  0  0  0  0  0  0  0
  -23.5261  -18.5833   20.3019 C   0  0  0  0  0  0  0  0  0  0  0  0
  -23.5078  -17.2688   22.4881 C   0  0  0  0  0  0  0  0  0  0  0  0
  -27.2007  -36.4714   21.9694 C   0  0  0  0  0  0  0  0  0  0  0  0
  -26.1172  -29.5400   19.8100 C   0  0  0  0  0  0  0  0  0  0  0  0
  -27.5731  -35.1320   21.7461 C   0  0  0  0  0  0  0  0  0  0  0  0
  -25.7837  -28.6631   20.8521 C   0  0  0  0  0  0  0  0  0  0  0  0
  -28.6928  -16.2024   20.4560 C   0  0  0  0  0  0  0  0  0  0  0  0
  -28.3018  -17.2845   21.2446 C   0  0  0  0  0  0  0  0  0  0  0  0
  -28.6828  -14.9127   20.9872 C   0  0  0  0  0  0  0  0  0  0  0  0
  -22.9922  -20.8149   18.7154 C   0  0  0  0  0  0  0  0  0  0  0  0
  -27.4521  -27.0896   20.0456 C   0  0  0  0  0  0  0  0  0  0  0  0
  -21.4808  -22.4880   18.0530 C   0  0  0  0  0  0  0  0  0  0  0  0
  -18.9615  -23.6642   18.2817 C   0  0  0  0  0  0  0  0  0  0  0  0
  -20.6456  -22.5699   16.9388 C   0  0  0  0  0  0  0  0  0  0  0  0
  -23.8015  -17.4302   21.1208 C   0  0  0  0  0  0  0  0  0  0  0  0
  -23.9652  -16.0096   22.7912 C   0  0  0  0  0  0  0  0  0  0  0  0
  -22.8778  -18.1759   23.4024 C   0  0  0  0  0  0  0  0  0  0  0  0
  -25.7774  -31.9066   21.9045 C   0  0  0  0  0  0  0  0  0  0  0  0
  -31.2965  -13.0529   21.0359 C   0  0  0  0  0  0  0  0  0  0  0  0
  -27.8312  -23.4921   20.1826 C   0  0  0  0  0  0  0  0  0  0  0  0
  -22.8284  -30.6138   22.2976 C   0  0  0  0  0  0  0  0  0  0  0  0
  -27.9421  -19.7730   21.3858 C   0  0  0  0  0  0  0  0  0  0  0  0
  -20.8118  -27.8712   22.0567 C   0  0  0  0  0  0  0  0  0  0  0  0
  -28.2279  -12.6947   19.9079 C   0  0  0  0  0  0  0  0  0  0  0  0
  -26.2410  -36.8553   23.0677 C   0  0  0  0  0  0  0  0  0  0  0  0
  -25.3884  -30.8460   19.6507 C   0  0  0  0  0  0  0  0  0  0  0  0
  -24.7189  -29.0008   21.8624 C   0  0  0  0  0  0  0  0  0  0  0  0
  -25.4096  -35.6850   23.5868 C   0  0  0  0  0  0  0  0  0  0  0  0
  -24.7798  -11.7245   20.8364 C   0  0  0  0  0  0  0  0  0  0  0  0
  -26.2969  -34.4701   23.8387 C   0  0  0  0  0  0  0  0  0  0  0  0
  -24.0934  -13.0726   21.0480 C   0  0  0  0  0  0  0  0  0  0  0  0
  -25.9154  -11.8202   19.8219 C   0  0  0  0  0  0  0  0  0  0  0  0
  -26.2438  -14.2137   20.3735 C   0  0  0  0  0  0  0  0  0  0  0  0
  -26.9660  -33.9974   22.5424 C   0  0  1  0  0  0  0  0  0  0  0  0
  -24.7627  -31.3435   20.9501 C   0  0  1  0  0  0  0  0  0  0  0  0
  -25.1223  -14.1525   21.4213 C   0  0  1  0  0  0  0  0  0  0  0  0
  -29.1226  -16.4252   19.0388 C   0  0  0  0  0  0  0  0  0  0  0  0
  -32.7481  -13.4252   21.1953 C   0  0  0  0  0  0  0  0  0  0  0  0
  -18.6946  -26.5254   22.1161 C   0  0  0  0  0  0  0  0  0  0  0  0
  -23.4166  -30.4946   25.2892 C   0  0  0  0  0  0  0  0  0  0  0  0
  -21.4994  -28.9028   25.5319 C   0  0  0  0  0  0  0  0  0  0  0  0
  -21.0952  -31.2234   24.7107 C   0  0  0  0  0  0  0  0  0  0  0  0
  -20.1952  -28.5011   19.2315 C   0  0  0  0  0  0  0  0  0  0  0  0
  -27.7099  -22.2975   21.1173 C   0  0  0  0  0  0  0  0  0  0  0  0
  -30.5010  -13.6244   19.8803 C   0  0  0  0  0  0  0  0  0  0  0  0
  -27.3776  -24.8209   20.7551 C   0  0  0  0  0  0  0  0  0  1  0  0
  -28.0894  -20.9745   20.4591 C   0  0  0  0  0  0  0  0  0  0  0  0
  -22.2369  -29.5532   23.1944 C   0  0  1  0  0  0  0  0  0  0  0  0
  -19.4259  -27.6888   21.4647 C   0  0  2  0  0  0  0  0  0  0  0  0
  -22.0835  -30.0377   24.6638 C   0  0  0  0  0  0  0  0  0  0  0  0
  -24.3994  -16.3593   20.5920 N   0  0  0  0  0  0  0  0  0  0  0  0
  -24.4851  -15.5129   21.6323 N   0  0  0  0  0  0  0  0  0  0  0  0
  -24.0390  -30.2920   21.6677 N   0  0  0  0  0  0  0  0  0  0  0  0
  -26.8543  -12.8918   20.1577 N   0  0  0  0  0  0  0  0  0  0  0  0
  -23.9693  -15.2900   23.9334 N   0  0  0  0  0  0  0  0  0  0  0  0
  -22.4690  -19.4288   22.9254 N   0  0  0  0  0  0  0  0  0  0  0  0
  -28.3029  -18.6013   20.7262 N   0  0  0  0  0  0  0  0  0  0  0  0
  -26.0262  -33.2547   21.7302 N   0  0  0  0  0  0  0  0  0  0  0  0
  -20.9859  -29.1400   22.5677 N   0  0  0  0  0  0  0  0  0  0  0  0
  -29.0812  -13.7785   20.1899 N   0  0  0  0  0  0  0  0  0  0  0  0
  -19.5185  -27.4253   20.0008 N   0  3  0  0  0  0  0  0  0  0  0  0
  -22.6978  -17.8903   24.6105 O   0  0  0  0  0  0  0  0  0  0  0  0
  -26.2951  -31.1729   22.7383 O   0  0  0  0  0  0  0  0  0  0  0  0
  -30.7551  -12.2880   21.8380 O   0  0  0  0  0  0  0  0  0  0  0  0
  -28.2704  -23.3969   19.0377 O   0  0  0  0  0  0  0  0  0  0  0  0
  -22.2344  -31.6856   22.1554 O   0  0  0  0  0  0  0  0  0  0  0  0
  -27.5576  -19.8860   22.5449 O   0  0  0  0  0  0  0  0  0  0  0  0
  -21.6542  -26.9764   22.0683 O   0  0  0  0  0  0  0  0  0  0  0  0
  -28.6594  -11.6452   19.4148 O   0  0  0  0  0  0  0  0  0  0  0  0
  -22.7313  -21.9037   17.9413 O   0  0  0  0  0  0  0  0  0  0  0  0
  -28.1019  -25.9000   20.1659 O   0  0  0  0  0  0  0  0  0  1  0  0
  -17.7513  -24.2276   18.3920 F   0  0  0  0  0  0  0  0  0  0  0  0
  -21.0474  -22.0843   15.7562 F   0  0  0  0  0  0  0  0  0  0  0  0
  1  2  1  0  0  0  0
  1  6  2  0  0  0  0
  2  7  2  0  0  0  0
  3  9  2  0  0  0  0
  3 10  1  0  0  0  0
  4 11  2  0  0  0  0
  4 18  1  0  0  0  0
  5 12  1  0  0  0  0
  5 18  2  0  0  0  0
  6 20  1  0  0  0  0
  7 22  1  0  0  0  0
  8 13  2  0  0  0  0
  8 21  1  0  0  0  0
  9 25  1  0  0  0  0
 10 26  2  0  0  0  0
 11 27  1  0  0  0  0
 12 27  2  0  0  0  0
 13 28  1  0  0  0  0
 14 15  2  0  0  0  0
 14 29  1  0  0  0  0
 15 30  1  0  0  0  0
 16 23  1  0  0  0  0
 16 28  2  0  0  0  0
 17 30  2  0  0  0  0
 17 31  1  0  0  0  0
 18 32  1  0  0  0  0
 19 32  1  0  0  0  0
 19 33  2  0  0  0  0
 19 34  1  0  0  0  0
 20 22  2  0  0  0  0
 20 42  1  0  0  0  0
 21 23  2  0  0  0  0
 21 43  1  0  0  0  0
 22 51  1  0  0  0  0
 23 44  1  0  0  0  0
 24 25  2  0  0  0  0
 24 26  1  0  0  0  0
 24 54  1  0  0  0  0
 25 74  1  0  0  0  0
 26 77  1  0  0  0  0
 27 87  1  0  0  0  0
 28 88  1  0  0  0  0
 29 31  2  0  0  0  0
 29 87  1  0  0  0  0
 30 89  1  0  0  0  0
 31 90  1  0  0  0  0
 32 68  2  0  0  0  0
 33 69  1  0  0  0  0
 33 72  1  0  0  0  0
 34 73  1  0  0  0  0
 34 79  2  0  0  0  0
 35 52  1  0  0  0  0
 35 75  1  0  0  0  0
 35 80  2  0  0  0  0
 36 55  1  0  0  0  0
 36 62  1  0  0  0  0
 36 81  2  0  0  0  0
 37 61  1  0  0  0  0
 37 63  1  0  0  0  0
 37 82  2  0  0  0  0
 38 65  1  0  0  0  0
 38 70  1  0  0  0  0
 38 83  2  0  0  0  0
 39 64  1  0  0  0  0
 39 74  1  0  0  0  0
 39 84  2  0  0  0  0
 40 66  1  0  0  0  0
 40 76  1  0  0  0  0
 40 85  2  0  0  0  0
 41 71  1  0  0  0  0
 41 77  1  0  0  0  0
 41 86  2  0  0  0  0
 42 45  1  0  0  0  0
 43 52  1  0  0  0  0
 44 70  1  0  0  0  0
 45 47  1  0  0  0  0
 46 48  1  0  0  0  0
 46 49  1  0  0  0  0
 47 51  1  0  0  0  0
 48 53  1  0  0  0  0
 49 71  1  0  0  0  0
 50 53  1  0  0  0  0
 50 71  1  0  0  0  0
 51 75  1  0  0  0  0
 52 70  1  0  0  0  0
 53 69  1  0  0  0  0
 56 66  1  0  0  0  0
 57 67  1  0  0  0  0
 58 67  1  0  0  0  0
 59 67  1  0  0  0  0
 60 78  1  0  0  0  0
 61 64  1  0  0  0  0
 62 77  1  0  0  0  0
 63 88  1  0  0  0  0
 65 67  1  0  0  0  0
 65 76  1  0  0  0  0
 66 78  1  0  0  0  0
 68 69  1  0  0  0  0
M  CHG  1  78   1
M  ISO  4  41 100  63 101  77 100  88 101
M  END
> <Batch ID>
0172

> <Smiles>
CNC(C)C(=O)NC(C(=O)N1Cc2cc([101O:1][101CH2:1]C(=O)CCC(=O)Nc3cccc([100N:0](CC(C)=O)[100C:0](=O)N4CCCC(n5nc(-c6ccc(Oc7ccc(F)cc7F)cc6)c(C(N)=O)c5N)C4)c3C)ccc2CC1C(=O)NC1CCCc2ccccc21)C(C)(C)C

> <Shape>
0.251

> <Color>
0.076

> <Negative vol penalty>
0.000

$$$$

  -OEChem-04052304263D

 86 94  0     1  0  0  0  0  0999 V2000
  -30.4077  -20.3164   16.8754 C   0  0  0  0  0  0  0  0  0  0  0  0
  -29.6991  -20.3254   18.0726 C   0  0  0  0  0  0  0  0  0  0  0  0
  -23.5940   -9.6450   19.9441 C   0  0  0  0  0  0  0  0  0  0  0  0
  -23.8923   -9.9571   22.3212 C   0  0  0  0  0  0  0  0  0  0  0  0
  -31.0658  -21.4687   16.4476 C   0  0  0  0  0  0  0  0  0  0  0  0
  -29.6493  -21.4865   18.8433 C   0  0  0  0  0  0  0  0  0  0  0  0
  -24.9876  -22.4865   20.5502 C   0  0  0  0  0  0  0  0  0  0  0  0
  -23.0072   -8.4020   20.1810 C   0  0  0  0  0  0  0  0  0  0  0  0
  -23.3054   -8.7141   22.5581 C   0  0  0  0  0  0  0  0  0  0  0  0
  -24.5386  -21.7492   21.6450 C   0  0  0  0  0  0  0  0  0  0  0  0
  -19.9993   -7.2153   21.1696 C   0  0  0  0  0  0  0  0  0  0  0  0
  -18.8327   -6.9055   20.4706 C   0  0  0  0  0  0  0  0  0  0  0  0
  -25.0680  -23.5990   23.1001 C   0  0  0  0  0  0  0  0  0  0  0  0
  -19.9329   -4.9957   19.4808 C   0  0  0  0  0  0  0  0  0  0  0  0
  -30.4974  -18.8442   22.3853 C   0  0  0  0  0  0  0  0  0  0  0  0
  -24.0367  -10.4226   21.0143 C   0  0  0  0  0  0  0  0  0  0  0  0
  -23.9932  -12.9523   20.6885 C   0  0  0  0  0  0  0  0  0  0  0  0
  -31.0160  -22.6473   17.2085 C   0  0  0  0  0  0  0  0  0  0  0  0
  -25.4911  -23.7837   20.7239 C   0  0  0  0  0  0  0  0  0  0  0  0
  -30.3085  -22.6552   18.4258 C   0  0  0  0  0  0  0  0  0  0  0  0
  -25.5203  -24.3516   22.0056 C   0  0  0  0  0  0  0  0  0  0  0  0
  -22.8628   -7.9366   21.4879 C   0  0  0  0  0  0  0  0  0  0  0  0
  -24.5815  -22.3043   22.9206 C   0  0  0  0  0  0  0  0  0  0  0  0
  -21.1328   -6.4153   21.0242 C   0  0  0  0  0  0  0  0  0  0  0  0
  -18.7994   -5.7957   19.6262 C   0  0  0  0  0  0  0  0  0  0  0  0
  -21.0995   -5.3056   20.1798 C   0  0  0  0  0  0  0  0  0  0  0  0
  -30.2578  -20.1454   22.9142 C   0  0  0  0  0  0  0  0  0  0  0  0
  -24.6435  -11.7064   20.7702 C   0  0  0  0  0  0  0  0  0  0  0  0
  -28.9653  -20.2895   23.3682 C   0  0  0  0  0  0  0  0  0  0  0  0
  -25.0027  -13.8512   20.4446 C   0  0  0  0  0  0  0  0  0  0  0  0
  -29.3788  -18.0432   22.4556 C   0  0  0  0  0  0  0  0  0  0  0  0
  -22.6011  -13.2688   20.8211 C   0  0  0  0  0  0  0  0  0  0  0  0
  -28.3210  -21.4775   23.9838 C   0  0  0  0  0  0  0  0  0  0  0  0
  -28.2955  -25.1888   20.2096 C   0  0  0  0  0  0  0  0  0  0  0  0
  -26.6632  -27.8690   21.0309 C   0  0  0  0  0  0  0  0  0  0  0  0
  -24.0190  -29.2596   22.6805 C   0  0  0  0  0  0  0  0  0  0  0  0
  -26.2079  -22.2979   24.9646 C   0  0  0  0  0  0  0  0  0  0  0  0
  -30.1014  -15.8438   21.4622 C   0  0  0  0  0  0  0  0  0  0  0  0
  -31.7825  -23.8542   16.7286 C   0  0  0  0  0  0  0  0  0  0  0  0
  -25.9467  -24.5759   19.5292 C   0  0  0  0  0  0  0  0  0  0  0  0
  -26.0328  -25.7478   22.2428 C   0  0  0  0  0  0  0  0  0  0  0  0
  -31.3690  -25.1520   17.4178 C   0  0  0  0  0  0  0  0  0  0  0  0
  -29.8527  -13.1013   19.2052 C   0  0  0  0  0  0  0  0  0  0  0  0
  -31.2752  -24.9488   18.9267 C   0  0  0  0  0  0  0  0  0  0  0  0
  -28.4218  -12.5964   19.4044 C   0  0  0  0  0  0  0  0  0  0  0  0
  -30.4745  -13.5760   20.5174 C   0  0  0  0  0  0  0  0  0  0  0  0
  -28.2496  -14.0588   21.4584 C   0  0  0  0  0  0  0  0  0  0  0  0
  -30.2104  -23.9024   19.2773 C   0  0  1  0  0  0  0  0  0  0  0  0
  -26.9178  -25.6958   19.8898 C   0  0  1  0  0  0  0  0  0  0  0  0
  -27.5585  -13.6305   20.1535 C   0  0  2  0  0  0  0  0  0  0  0  0
  -25.3674  -20.6911   27.4577 C   0  0  0  0  0  0  0  0  0  0  0  0
  -22.9692  -31.4782   23.2028 C   0  0  0  0  0  0  0  0  0  0  0  0
  -23.9766  -22.9778   25.9262 C   0  0  0  0  0  0  0  0  0  0  0  0
  -28.8365  -28.4064   23.1041 C   0  0  0  0  0  0  0  0  0  0  0  0
  -27.2889  -30.0408   24.2005 C   0  0  0  0  0  0  0  0  0  0  0  0
  -28.0581  -30.4313   21.8599 C   0  0  0  0  0  0  0  0  0  0  0  0
  -21.5060  -28.5264   21.2996 C   0  0  0  0  0  0  0  0  0  0  0  0
  -24.7007  -20.5658   26.0909 C   0  0  0  0  0  0  0  0  0  0  0  0
  -26.3826  -28.5957   22.3240 C   0  0  1  0  0  0  0  0  0  0  0  0
  -22.9940  -30.2933   22.2499 C   0  0  2  0  0  0  0  0  0  0  0  0
  -24.7644  -21.8530   25.2484 C   0  0  2  0  0  0  0  0  0  1  0  0
  -27.6336  -29.3415   22.8682 C   0  0  0  0  0  0  0  0  0  0  0  0
  -25.9639  -11.8014   20.5926 N   0  0  0  0  0  0  0  0  0  0  0  0
  -26.1515  -13.1176   20.3967 N   0  0  0  0  0  0  0  0  0  0  0  0
  -26.4728  -26.4800   21.0437 N   0  0  0  0  0  0  0  0  0  0  0  0
  -29.6035  -14.5566   21.1688 N   0  0  0  0  0  0  0  0  0  0  0  0
  -25.0108  -15.1896   20.2686 N   0  0  0  0  0  0  0  0  0  0  0  0
  -21.6995  -12.2252   21.0705 N   0  0  0  0  0  0  0  0  0  0  0  0
  -29.1726  -16.7008   22.0517 N   0  0  0  0  0  0  0  0  0  0  0  0
  -26.9844  -21.3173   24.3455 N   0  0  0  0  0  0  0  0  0  0  0  0
  -28.8859  -24.4778   19.1823 N   0  0  0  0  0  0  0  0  0  0  0  0
  -25.2366  -29.4609   22.0656 N   0  0  0  0  0  0  0  0  0  0  0  0
  -21.6320  -29.6892   22.2156 N   0  3  0  0  0  0  0  0  0  0  0  0
  -22.1675  -14.4402   20.7051 O   0  0  0  0  0  0  0  0  0  0  0  0
  -28.9866  -22.4941   24.1605 O   0  0  0  0  0  0  0  0  0  0  0  0
  -28.7872  -25.4264   21.3067 O   0  0  0  0  0  0  0  0  0  0  0  0
  -27.0308  -28.5110   20.0438 O   0  0  0  0  0  0  0  0  0  0  0  0
  -23.7659  -28.3654   23.4848 O   0  0  0  0  0  0  0  0  0  0  0  0
  -26.6114  -23.4211   25.2649 O   0  0  0  0  0  0  0  0  0  0  0  0
  -31.2580  -16.1711   21.1844 O   0  0  0  0  0  0  0  0  0  0  0  0
  -22.2900   -6.7238   21.7194 O   0  0  0  0  0  0  0  0  0  0  0  0
  -24.1445  -21.5866   23.9910 O   0  0  0  0  0  0  0  0  0  1  0  0
  -17.6786   -5.4974   18.9563 F   0  0  0  0  0  0  0  0  0  0  0  0
  -22.1849   -4.5327   20.0370 F   0  0  0  0  0  0  0  0  0  0  0  0
  -31.1813  -21.1075   22.9612 F   0  0  0  0  0  0  0  0  0  0  0  0
  -28.0468  -18.8598   23.1565 S   0  0  0  0  0  0  0  0  0  0  0  0
  1  2  1  0  0  0  0
  1  5  2  0  0  0  0
  2  6  2  0  0  0  0
  3  8  2  0  0  0  0
  3 16  1  0  0  0  0
  4  9  1  0  0  0  0
  4 16  2  0  0  0  0
  5 18  1  0  0  0  0
  6 20  1  0  0  0  0
  7 10  2  0  0  0  0
  7 19  1  0  0  0  0
  8 22  1  0  0  0  0
  9 22  2  0  0  0  0
 10 23  1  0  0  0  0
 11 12  2  0  0  0  0
 11 24  1  0  0  0  0
 12 25  1  0  0  0  0
 13 21  1  0  0  0  0
 13 23  2  0  0  0  0
 14 25  2  0  0  0  0
 14 26  1  0  0  0  0
 15 27  1  0  0  0  0
 15 31  2  0  0  0  0
 16 28  1  0  0  0  0
 17 28  1  0  0  0  0
 17 30  2  0  0  0  0
 17 32  1  0  0  0  0
 18 20  2  0  0  0  0
 18 39  1  0  0  0  0
 19 21  2  0  0  0  0
 19 40  1  0  0  0  0
 20 48  1  0  0  0  0
 21 41  1  0  0  0  0
 22 81  1  0  0  0  0
 23 82  1  0  0  0  0
 24 26  2  0  0  0  0
 24 81  1  0  0  0  0
 25 83  1  0  0  0  0
 26 84  1  0  0  0  0
 27 29  2  0  0  0  0
 27 85  1  0  0  0  0
 28 63  2  0  0  0  0
 29 33  1  0  0  0  0
 29 86  1  0  0  0  0
 30 64  1  0  0  0  0
 30 67  1  0  0  0  0
 31 69  1  0  0  0  0
 31 86  1  0  0  0  0
 32 68  1  0  0  0  0
 32 74  2  0  0  0  0
 33 70  1  0  0  0  0
 33 75  2  0  0  0  0
 34 49  1  0  0  0  0
 34 71  1  0  0  0  0
 34 76  2  0  0  0  0
 35 59  1  0  0  0  0
 35 65  1  0  0  0  0
 35 77  2  0  0  0  0
 36 60  1  0  0  0  0
 36 72  1  0  0  0  0
 36 78  2  0  0  0  0
 37 61  1  0  0  0  0
 37 70  1  0  0  0  0
 37 79  2  0  0  0  0
 38 66  1  0  0  0  0
 38 69  1  0  0  0  0
 38 80  2  0  0  0  0
 39 42  1  0  0  0  0
 40 49  1  0  0  0  0
 41 65  1  0  0  0  0
 42 44  1  0  0  0  0
 43 45  1  0  0  0  0
 43 46  1  0  0  0  0
 44 48  1  0  0  0  0
 45 50  1  0  0  0  0
 46 66  1  0  0  0  0
 47 50  1  0  0  0  0
 47 66  1  0  0  0  0
 48 71  1  0  0  0  0
 49 65  1  0  0  0  0
 50 64  1  0  0  0  0
 51 58  1  0  0  0  0
 52 60  1  0  0  0  0
 53 61  1  0  0  0  0
 54 62  1  0  0  0  0
 55 62  1  0  0  0  0
 56 62  1  0  0  0  0
 57 73  1  0  0  0  0
 58 61  1  0  0  0  0
 59 62  1  0  0  0  0
 59 72  1  0  0  0  0
 60 73  1  0  0  0  0
 61 82  1  0  0  0  0
 63 64  1  0  0  0  0
M  CHG  1  73   1
M  ISO  4  38 100  61 101  69 100  82 101
M  END
> <Batch ID>
0172

> <Smiles>
CC[101C:1](C)(C(=O)NC(=O)c1sc([100NH:0][100C:0](=O)N2CCCC(n3nc(-c4ccc(Oc5ccc(F)cc5F)cc4)c(C(N)=O)c3N)C2)cc1F)[101O:1]c1ccc2c(c1)CN(C(=O)C(NC(=O)C(C)NC)C(C)(C)C)C(C(=O)NC1CCCc3ccccc31)C2

> <Shape>
0.254

> <Color>
0.166

> <Negative vol penalty>
0.000

$$$$

  -OEChem-04052304263D

 90 98  0     1  0  0  0  0  0999 V2000
  -31.6486  -33.5795   24.6561 C   0  0  0  0  0  0  0  0  0  0  0  0
  -31.4732  -32.6018   23.6821 C   0  0  0  0  0  0  0  0  0  0  0  0
  -28.4409  -19.5348   22.9307 C   0  0  0  0  0  0  0  0  0  0  0  0
  -22.7273  -11.9137   18.8152 C   0  0  0  0  0  0  0  0  0  0  0  0
  -23.0452  -10.0337   20.2989 C   0  0  0  0  0  0  0  0  0  0  0  0
  -29.1055  -18.4240   22.4111 C   0  0  0  0  0  0  0  0  0  0  0  0
  -30.7560  -33.6665   25.7236 C   0  0  0  0  0  0  0  0  0  0  0  0
  -30.4056  -31.7097   23.7757 C   0  0  0  0  0  0  0  0  0  0  0  0
  -27.1950  -29.3118   19.1444 C   0  0  0  0  0  0  0  0  0  0  0  0
  -28.4579  -20.7451   22.2374 C   0  0  0  0  0  0  0  0  0  0  0  0
  -21.6853  -11.2371   18.1811 C   0  0  0  0  0  0  0  0  0  0  0  0
  -22.0032   -9.3571   19.6648 C   0  0  0  0  0  0  0  0  0  0  0  0
  -27.2674  -28.0827   18.4902 C   0  0  0  0  0  0  0  0  0  0  0  0
  -18.6242   -9.3908   19.7059 C   0  0  0  0  0  0  0  0  0  0  0  0
  -17.6862   -8.7466   20.5126 C   0  0  0  0  0  0  0  0  0  0  0  0
  -25.5118  -27.2312   19.9087 C   0  0  0  0  0  0  0  0  0  0  0  0
  -18.2498   -6.6354   19.4817 C   0  0  0  0  0  0  0  0  0  0  0  0
  -23.4073  -11.3120   19.8741 C   0  0  0  0  0  0  0  0  0  0  0  0
  -29.7873  -18.5236   21.1983 C   0  0  0  0  0  0  0  0  0  0  0  0
  -24.3885  -12.8701   21.6396 C   0  0  0  0  0  0  0  0  0  0  0  0
  -29.6713  -32.7811   25.8252 C   0  0  0  0  0  0  0  0  0  0  0  0
  -26.2865  -29.5067   20.1947 C   0  0  0  0  0  0  0  0  0  0  0  0
  -29.4984  -31.7840   24.8463 C   0  0  0  0  0  0  0  0  0  0  0  0
  -25.4281  -28.4644   20.5729 C   0  0  0  0  0  0  0  0  0  0  0  0
  -29.8044  -19.7339   20.5050 C   0  0  0  0  0  0  0  0  0  0  0  0
  -29.1397  -20.8447   21.0246 C   0  0  0  0  0  0  0  0  0  0  0  0
  -21.3233   -9.9588   18.6059 C   0  0  0  0  0  0  0  0  0  0  0  0
  -26.4278  -27.0413   18.8742 C   0  0  0  0  0  0  0  0  0  0  0  0
  -19.3750   -8.6574   18.7871 C   0  0  0  0  0  0  0  0  0  0  0  0
  -17.4990   -7.3689   20.4005 C   0  0  0  0  0  0  0  0  0  0  0  0
  -19.1878   -7.2797   18.6751 C   0  0  0  0  0  0  0  0  0  0  0  0
  -24.4841  -12.0102   20.5292 C   0  0  0  0  0  0  0  0  0  0  0  0
  -25.6805  -13.2728   21.8743 C   0  0  0  0  0  0  0  0  0  0  0  0
  -30.4790  -17.3321   20.6750 C   0  0  0  0  0  0  0  0  0  0  0  0
  -23.2349  -13.2692   22.3918 C   0  0  0  0  0  0  0  0  0  0  0  0
  -28.7525  -24.3657   19.7546 C   0  0  0  0  0  0  0  0  0  0  0  0
  -28.5364  -23.2523   20.7387 C   0  0  0  0  0  0  0  0  0  0  0  0
  -26.5463  -30.2023   23.2854 C   0  0  0  0  0  0  0  0  0  0  0  0
  -23.3117  -30.3809   23.1178 C   0  0  0  0  0  0  0  0  0  0  0  0
  -20.4378  -29.4581   21.5254 C   0  0  0  0  0  0  0  0  0  0  0  0
  -30.5569  -15.1600   19.9219 C   0  0  0  0  0  0  0  0  0  0  0  0
  -28.7600  -32.8839   27.0225 C   0  0  0  0  0  0  0  0  0  0  0  0
  -26.2022  -30.8468   20.8724 C   0  0  0  0  0  0  0  0  0  0  0  0
  -24.4212  -28.6289   21.6808 C   0  0  0  0  0  0  0  0  0  0  0  0
  -27.4391  -32.1389   26.8483 C   0  0  0  0  0  0  0  0  0  0  0  0
  -30.0591  -11.5892   20.0016 C   0  0  0  0  0  0  0  0  0  0  0  0
  -27.6839  -30.7427   26.2847 C   0  0  0  0  0  0  0  0  0  0  0  0
  -28.5498  -11.4536   20.2022 C   0  0  0  0  0  0  0  0  0  0  0  0
  -30.4026  -12.7974   19.1357 C   0  0  0  0  0  0  0  0  0  0  0  0
  -28.3268  -13.9523   19.8471 C   0  0  0  0  0  0  0  0  0  0  0  0
  -28.3382  -30.8138   24.8997 C   0  0  1  0  0  0  0  0  0  0  0  0
  -25.5961  -30.7723   22.2705 C   0  0  1  0  0  0  0  0  0  0  0  0
  -27.9442  -12.7614   20.7423 C   0  0  1  0  0  0  0  0  0  0  0  0
  -17.9460  -29.7311   21.6426 C   0  0  0  0  0  0  0  0  0  0  0  0
  -27.6285  -25.2973   16.1962 C   0  0  0  0  0  0  0  0  0  0  0  0
  -23.2073  -28.4071   25.4422 C   0  0  0  0  0  0  0  0  0  0  0  0
  -20.7994  -27.9958   24.8936 C   0  0  0  0  0  0  0  0  0  0  0  0
  -21.5483  -30.2732   25.5829 C   0  0  0  0  0  0  0  0  0  0  0  0
  -20.3367  -30.7426   18.8610 C   0  0  0  0  0  0  0  0  0  0  0  0
  -28.1971  -24.1502   18.3631 C   0  0  0  0  0  0  0  0  0  0  0  0
  -22.1764  -29.4018   23.2942 C   0  0  1  0  0  0  0  0  0  0  0  0
  -19.2424  -30.2671   21.0553 C   0  0  2  0  0  0  0  0  0  0  0  0
  -27.7645  -25.4601   17.7043 C   0  0  2  0  0  0  0  0  0  1  0  0
  -30.5369  -19.8394   19.2035 C   0  0  0  0  0  0  0  0  0  0  0  0
  -21.9530  -29.0154   24.7836 C   0  0  0  0  0  0  0  0  0  0  0  0
  -25.7377  -11.8741   20.0888 N   0  0  0  0  0  0  0  0  0  0  0  0
  -29.8432  -16.2384   20.4088 N   0  0  0  0  0  0  0  0  0  0  0  0
  -26.4417  -12.6539   20.9269 N   0  0  0  0  0  0  0  0  0  0  0  0
  -24.3814  -29.9559   22.3171 N   0  0  0  0  0  0  0  0  0  0  0  0
  -29.7826  -14.0145   19.6612 N   0  0  0  0  0  0  0  0  0  0  0  0
  -26.2283  -14.0924   22.7966 N   0  0  0  0  0  0  0  0  0  0  0  0
  -21.9838  -12.7618   22.0157 N   0  0  0  0  0  0  0  0  0  0  0  0
  -29.1433  -22.0814   20.3385 N   0  0  0  0  0  0  0  0  0  0  0  0
  -27.3537  -31.1454   23.8920 N   0  0  0  0  0  0  0  0  0  0  0  0
  -21.0134  -30.0053   22.6526 N   0  0  0  0  0  0  0  0  0  0  0  0
  -19.1388  -30.2226   19.5693 N   0  3  0  0  0  0  0  0  0  0  0  0
  -23.3093  -14.0655   23.3582 O   0  0  0  0  0  0  0  0  0  0  0  0
  -29.3489  -25.3553   20.1518 O   0  0  0  0  0  0  0  0  0  0  0  0
  -27.8966  -23.5258   21.7407 O   0  0  0  0  0  0  0  0  0  0  0  0
  -26.5458  -28.9964   23.5031 O   0  0  0  0  0  0  0  0  0  0  0  0
  -23.2485  -31.4851   23.6642 O   0  0  0  0  0  0  0  0  0  0  0  0
  -20.8203  -28.4404   20.9523 O   0  0  0  0  0  0  0  0  0  0  0  0
  -31.7731  -15.1761   19.7179 O   0  0  0  0  0  0  0  0  0  0  0  0
  -20.3064   -9.2984   17.9876 O   0  0  0  0  0  0  0  0  0  0  0  0
  -26.4968  -25.8404   18.2378 O   0  0  0  0  0  0  0  0  0  1  0  0
  -16.5993   -6.7501   21.1763 F   0  0  0  0  0  0  0  0  0  0  0  0
  -19.9069   -6.5697   17.7950 F   0  0  0  0  0  0  0  0  0  0  0  0
  -31.1370  -18.6753   18.8237 F   0  0  0  0  0  0  0  0  0  0  0  0
  -29.7347  -20.1900   18.1581 F   0  0  0  0  0  0  0  0  0  0  0  0
  -31.5286  -20.7734   19.2400 F   0  0  0  0  0  0  0  0  0  0  0  0
  1  2  1  0  0  0  0
  1  7  2  0  0  0  0
  2  8  2  0  0  0  0
  3  6  1  0  0  0  0
  3 10  2  0  0  0  0
  4 11  2  0  0  0  0
  4 18  1  0  0  0  0
  5 12  1  0  0  0  0
  5 18  2  0  0  0  0
  6 19  2  0  0  0  0
  7 21  1  0  0  0  0
  8 23  1  0  0  0  0
  9 13  2  0  0  0  0
  9 22  1  0  0  0  0
 10 26  1  0  0  0  0
 11 27  1  0  0  0  0
 12 27  2  0  0  0  0
 13 28  1  0  0  0  0
 14 15  2  0  0  0  0
 14 29  1  0  0  0  0
 15 30  1  0  0  0  0
 16 24  1  0  0  0  0
 16 28  2  0  0  0  0
 17 30  2  0  0  0  0
 17 31  1  0  0  0  0
 18 32  1  0  0  0  0
 19 25  1  0  0  0  0
 19 34  1  0  0  0  0
 20 32  1  0  0  0  0
 20 33  2  0  0  0  0
 20 35  1  0  0  0  0
 21 23  2  0  0  0  0
 21 42  1  0  0  0  0
 22 24  2  0  0  0  0
 22 43  1  0  0  0  0
 23 51  1  0  0  0  0
 24 44  1  0  0  0  0
 25 26  2  0  0  0  0
 25 64  1  0  0  0  0
 26 73  1  0  0  0  0
 27 84  1  0  0  0  0
 28 85  1  0  0  0  0
 29 31  2  0  0  0  0
 29 84  1  0  0  0  0
 30 86  1  0  0  0  0
 31 87  1  0  0  0  0
 32 66  2  0  0  0  0
 33 68  1  0  0  0  0
 33 71  1  0  0  0  0
 34 67  2  0  0  0  0
 35 72  1  0  0  0  0
 35 77  2  0  0  0  0
 36 37  1  0  0  0  0
 36 60  1  0  0  0  0
 36 78  2  0  0  0  0
 37 73  1  0  0  0  0
 37 79  2  0  0  0  0
 38 52  1  0  0  0  0
 38 74  1  0  0  0  0
 38 80  2  0  0  0  0
 39 61  1  0  0  0  0
 39 69  1  0  0  0  0
 39 81  2  0  0  0  0
 40 62  1  0  0  0  0
 40 75  1  0  0  0  0
 40 82  2  0  0  0  0
 41 67  1  0  0  0  0
 41 70  1  0  0  0  0
 41 83  2  0  0  0  0
 42 45  1  0  0  0  0
 43 52  1  0  0  0  0
 44 69  1  0  0  0  0
 45 47  1  0  0  0  0
 46 48  1  0  0  0  0
 46 49  1  0  0  0  0
 47 51  1  0  0  0  0
 48 53  1  0  0  0  0
 49 70  1  0  0  0  0
 50 53  1  0  0  0  0
 50 70  1  0  0  0  0
 51 74  1  0  0  0  0
 52 69  1  0  0  0  0
 53 68  1  0  0  0  0
 54 62  1  0  0  0  0
 55 63  1  0  0  0  0
 56 65  1  0  0  0  0
 57 65  1  0  0  0  0
 58 65  1  0  0  0  0
 59 76  1  0  0  0  0
 60 63  1  0  0  0  0
 61 65  1  0  0  0  0
 61 75  1  0  0  0  0
 62 76  1  0  0  0  0
 63 85  1  0  0  0  0
 64 88  1  0  0  0  0
 64 89  1  0  0  0  0
 64 90  1  0  0  0  0
 66 68  1  0  0  0  0
M  CHG  1  76   1
M  ISO  4  41 100  63 101  67 100  85 101
M  END
> <Batch ID>
0172

> <Smiles>
CNC(C)C(=O)NC(C(=O)N1Cc2cc([101O:1][101CH:1](C)CC(=O)C(=O)Nc3cccc(C=[100N:0][100C:0](=O)N4CCCC(n5nc(-c6ccc(Oc7ccc(F)cc7F)cc6)c(C(N)=O)c5N)C4)c3C(F)(F)F)ccc2CC1C(=O)NC1CCCc2ccccc21)C(C)(C)C

> <Shape>
0.282

> <Color>
0.129

> <Negative vol penalty>
0.000

$$$$

  -OEChem-04052304263D

 83 91  0     1  0  0  0  0  0999 V2000
  -19.7449  -18.4580   37.5699 C   0  0  0  0  0  0  0  0  0  0  0  0
  -20.7070  -18.8515   36.6453 C   0  0  0  0  0  0  0  0  0  0  0  0
  -23.1909   -9.8190   19.9317 C   0  0  0  0  0  0  0  0  0  0  0  0
  -23.5688   -9.9996   22.3111 C   0  0  0  0  0  0  0  0  0  0  0  0
  -19.2584  -17.1514   37.5548 C   0  0  0  0  0  0  0  0  0  0  0  0
  -21.1840  -17.9383   35.7056 C   0  0  0  0  0  0  0  0  0  0  0  0
  -22.8650  -19.1295   29.9384 C   0  0  0  0  0  0  0  0  0  0  0  0
  -22.4248   -8.6722   20.1403 C   0  0  0  0  0  0  0  0  0  0  0  0
  -22.8026   -8.8528   22.5198 C   0  0  0  0  0  0  0  0  0  0  0  0
  -24.1109  -19.3382   29.3486 C   0  0  0  0  0  0  0  0  0  0  0  0
  -23.2044   -5.5061   22.2560 C   0  0  0  0  0  0  0  0  0  0  0  0
  -23.7028   -4.5450   23.1353 C   0  0  0  0  0  0  0  0  0  0  0  0
  -24.1854  -17.0163   28.6984 C   0  0  0  0  0  0  0  0  0  0  0  0
  -32.1424  -16.5956   24.5904 C   0  0  0  0  0  0  0  0  0  0  0  0
  -21.7459   -4.8047   24.5283 C   0  0  0  0  0  0  0  0  0  0  0  0
  -23.7629  -10.4826   21.0170 C   0  0  0  0  0  0  0  0  0  0  0  0
  -24.1012  -12.9993   20.7732 C   0  0  0  0  0  0  0  0  0  0  0  0
  -19.7227  -16.2245   36.6083 C   0  0  0  0  0  0  0  0  0  0  0  0
  -22.2738  -17.8580   29.9221 C   0  0  0  0  0  0  0  0  0  0  0  0
  -20.7043  -16.6178   35.6787 C   0  0  0  0  0  0  0  0  0  0  0  0
  -22.9307  -16.7947   29.2865 C   0  0  0  0  0  0  0  0  0  0  0  0
  -32.6247  -15.3824   24.0437 C   0  0  0  0  0  0  0  0  0  0  0  0
  -22.2306   -8.1891   21.4344 C   0  0  0  0  0  0  0  0  0  0  0  0
  -24.7726  -18.2809   28.7310 C   0  0  0  0  0  0  0  0  0  0  0  0
  -21.9768   -6.1167   22.5128 C   0  0  0  0  0  0  0  0  0  0  0  0
  -22.9736   -4.1942   24.2715 C   0  0  0  0  0  0  0  0  0  0  0  0
  -21.2475   -5.7659   23.6489 C   0  0  0  0  0  0  0  0  0  0  0  0
  -24.5549  -11.6670   20.8021 C   0  0  0  0  0  0  0  0  0  0  0  0
  -31.6542  -14.4396   24.2908 C   0  0  0  0  0  0  0  0  0  0  0  0
  -25.2323  -13.7422   20.5380 C   0  0  0  0  0  0  0  0  0  0  0  0
  -30.9114  -16.3076   25.1322 C   0  0  0  0  0  0  0  0  0  0  0  0
  -22.7759  -13.5190   20.9437 C   0  0  0  0  0  0  0  0  0  0  0  0
  -21.3828  -15.7699   32.1469 C   0  0  0  0  0  0  0  0  0  0  0  0
  -27.9632  -17.7304   26.9669 C   0  0  0  0  0  0  0  0  0  0  0  0
  -20.1704  -14.1661   29.6013 C   0  0  0  0  0  0  0  0  0  0  0  0
  -20.2593  -13.5708   26.2420 C   0  0  0  0  0  0  0  0  0  0  0  0
  -31.0471  -12.7534   21.5683 C   0  0  0  0  0  0  0  0  0  0  0  0
  -19.2017  -14.8101   36.6612 C   0  0  0  0  0  0  0  0  0  0  0  0
  -20.9172  -17.6554   30.5394 C   0  0  0  0  0  0  0  0  0  0  0  0
  -22.3297  -15.4151   29.2239 C   0  0  0  0  0  0  0  0  0  0  0  0
  -19.4854  -14.0086   35.3934 C   0  0  0  0  0  0  0  0  0  0  0  0
  -29.5201  -13.4703   18.4329 C   0  0  0  0  0  0  0  0  0  0  0  0
  -20.9354  -14.1945   34.9576 C   0  0  0  0  0  0  0  0  0  0  0  0
  -28.0335  -13.2096   18.6819 C   0  0  0  0  0  0  0  0  0  0  0  0
  -30.4015  -12.4811   19.1923 C   0  0  0  0  0  0  0  0  0  0  0  0
  -28.6477  -12.1381   20.8895 C   0  0  0  0  0  0  0  0  0  0  0  0
  -21.2284  -15.6631   34.6279 C   0  0  1  0  0  0  0  0  0  0  0  0
  -20.6419  -16.2022   30.9133 C   0  0  1  0  0  0  0  0  0  0  0  0
  -27.7202  -13.1457   20.1889 C   0  0  2  0  0  0  0  0  0  0  0  0
  -19.1724  -12.1799   24.4585 C   0  0  0  0  0  0  0  0  0  0  0  0
  -21.7458  -11.7294   30.5450 C   0  0  0  0  0  0  0  0  0  0  0  0
  -21.3985  -10.7154   28.2823 C   0  0  0  0  0  0  0  0  0  0  0  0
  -19.4345  -11.2268   29.7328 C   0  0  0  0  0  0  0  0  0  0  0  0
  -19.2991  -15.9675   24.7954 C   0  0  0  0  0  0  0  0  0  0  0  0
  -31.5368  -13.0048   23.9882 C   0  0  0  0  0  0  0  0  0  0  0  0
  -28.7258  -16.6063   26.2984 C   0  0  0  0  0  0  0  0  0  0  0  0
  -26.6107  -17.3540   27.5400 C   0  0  0  0  0  0  0  0  0  1  0  0
  -20.6982  -13.1260   28.6429 C   0  0  1  0  0  0  0  0  0  0  0  0
  -19.1565  -13.5070   25.2008 C   0  0  2  0  0  0  0  0  0  0  0  0
  -20.8317  -11.7248   29.3034 C   0  0  0  0  0  0  0  0  0  0  0  0
  -25.8715  -11.5661   20.6011 N   0  0  0  0  0  0  0  0  0  0  0  0
  -26.2548  -12.8446   20.4437 N   0  0  0  0  0  0  0  0  0  0  0  0
  -21.0044  -15.2659   29.8474 N   0  0  0  0  0  0  0  0  0  0  0  0
  -30.0547  -12.4700   20.6155 N   0  0  0  0  0  0  0  0  0  0  0  0
  -33.7986  -15.1897   23.4086 N   0  0  0  0  0  0  0  0  0  0  0  0
  -25.4420  -15.0691   20.4047 N   0  0  0  0  0  0  0  0  0  0  0  0
  -21.7293  -12.6166   21.1777 N   0  0  0  0  0  0  0  0  0  0  0  0
  -29.9828  -17.0977   25.7947 N   0  0  0  0  0  0  0  0  0  0  0  0
  -20.6992  -16.0039   33.3248 N   0  0  0  0  0  0  0  0  0  0  0  0
  -19.8168  -13.1571   27.4807 N   0  0  0  0  0  0  0  0  0  0  0  0
  -30.6327  -12.7280   22.8943 N   0  0  0  0  0  0  0  0  0  0  0  0
  -19.3197  -14.6042   24.2056 N   0  3  0  0  0  0  0  0  0  0  0  0
  -22.5245  -14.7460   20.8740 O   0  0  0  0  0  0  0  0  0  0  0  0
  -22.4919  -15.2603   32.0380 O   0  0  0  0  0  0  0  0  0  0  0  0
  -28.4017  -18.8773   27.0456 O   0  0  0  0  0  0  0  0  0  0  0  0
  -19.0560  -14.0120   30.1073 O   0  0  0  0  0  0  0  0  0  0  0  0
  -21.4003  -13.9463   25.9817 O   0  0  0  0  0  0  0  0  0  0  0  0
  -32.2147  -13.0152   21.2598 O   0  0  0  0  0  0  0  0  0  0  0  0
  -30.6064  -14.9955   24.9538 O   0  0  0  0  0  0  0  0  0  0  0  0
  -21.4829   -7.0702   21.6384 O   0  0  0  0  0  0  0  0  0  0  0  0
  -25.9892  -18.4817   28.1552 O   0  0  0  0  0  0  0  0  0  1  0  0
  -23.4516   -3.2700   25.1150 F   0  0  0  0  0  0  0  0  0  0  0  0
  -20.0670   -6.3481   23.9003 F   0  0  0  0  0  0  0  0  0  0  0  0
  1  2  1  0  0  0  0
  1  5  2  0  0  0  0
  2  6  2  0  0  0  0
  3  8  2  0  0  0  0
  3 16  1  0  0  0  0
  4  9  1  0  0  0  0
  4 16  2  0  0  0  0
  5 18  1  0  0  0  0
  6 20  1  0  0  0  0
  7 10  2  0  0  0  0
  7 19  1  0  0  0  0
  8 23  1  0  0  0  0
  9 23  2  0  0  0  0
 10 24  1  0  0  0  0
 11 12  2  0  0  0  0
 11 25  1  0  0  0  0
 12 26  1  0  0  0  0
 13 21  1  0  0  0  0
 13 24  2  0  0  0  0
 14 22  1  0  0  0  0
 14 31  2  0  0  0  0
 15 26  2  0  0  0  0
 15 27  1  0  0  0  0
 16 28  1  0  0  0  0
 17 28  1  0  0  0  0
 17 30  2  0  0  0  0
 17 32  1  0  0  0  0
 18 20  2  0  0  0  0
 18 38  1  0  0  0  0
 19 21  2  0  0  0  0
 19 39  1  0  0  0  0
 20 47  1  0  0  0  0
 21 40  1  0  0  0  0
 22 29  2  0  0  0  0
 22 65  1  0  0  0  0
 23 80  1  0  0  0  0
 24 81  1  0  0  0  0
 25 27  2  0  0  0  0
 25 80  1  0  0  0  0
 26 82  1  0  0  0  0
 27 83  1  0  0  0  0
 28 61  2  0  0  0  0
 29 55  1  0  0  0  0
 29 79  1  0  0  0  0
 30 62  1  0  0  0  0
 30 66  1  0  0  0  0
 31 68  1  0  0  0  0
 31 79  1  0  0  0  0
 32 67  1  0  0  0  0
 32 73  2  0  0  0  0
 33 48  1  0  0  0  0
 33 69  1  0  0  0  0
 33 74  2  0  0  0  0
 34 56  1  0  0  0  0
 34 57  1  0  0  0  0
 34 75  2  0  0  0  0
 35 58  1  0  0  0  0
 35 63  1  0  0  0  0
 35 76  2  0  0  0  0
 36 59  1  0  0  0  0
 36 70  1  0  0  0  0
 36 77  2  0  0  0  0
 37 64  1  0  0  0  0
 37 71  1  0  0  0  0
 37 78  2  0  0  0  0
 38 41  1  0  0  0  0
 39 48  1  0  0  0  0
 40 63  1  0  0  0  0
 41 43  1  0  0  0  0
 42 44  1  0  0  0  0
 42 45  1  0  0  0  0
 43 47  1  0  0  0  0
 44 49  1  0  0  0  0
 45 64  1  0  0  0  0
 46 49  1  0  0  0  0
 46 64  1  0  0  0  0
 47 69  1  0  0  0  0
 48 63  1  0  0  0  0
 49 62  1  0  0  0  0
 50 59  1  0  0  0  0
 51 60  1  0  0  0  0
 52 60  1  0  0  0  0
 53 60  1  0  0  0  0
 54 72  1  0  0  0  0
 55 71  1  0  0  0  0
 56 68  1  0  0  0  0
 57 81  1  0  0  0  0
 58 60  1  0  0  0  0
 58 70  1  0  0  0  0
 59 72  1  0  0  0  0
 61 62  1  0  0  0  0
M  CHG  1  72   1
M  ISO  4  37 100  57 101  71 100  81 101
M  END
> <Batch ID>
0172

> <Smiles>
CNC(C)C(=O)NC(C(=O)N1Cc2cc([101O:1][101CH2:1]C(=O)CNc3cc(N)c(C[100NH:0][100C:0](=O)N4CCCC(n5nc(-c6ccc(Oc7ccc(F)cc7F)cc6)c(C(N)=O)c5N)C4)o3)ccc2CC1C(=O)NC1CCCc2ccccc21)C(C)(C)C

> <Shape>
0.142

> <Color>
0.171

> <Negative vol penalty>
0.000

$$$$
