
  -OEChem-04052304293D

 87 95  0     1  0  0  0  0  0999 V2000
  -28.2414  -26.3473   23.7586 C   0  0  0  0  0  0  0  0  0  0  0  0
  -28.5020  -25.0033   24.0060 C   0  0  0  0  0  0  0  0  0  0  0  0
  -23.2882   -9.8003   19.9133 C   0  0  0  0  0  0  0  0  0  0  0  0
  -23.7417   -9.9401   22.2822 C   0  0  0  0  0  0  0  0  0  0  0  0
  -27.0369  -26.9113   24.1771 C   0  0  0  0  0  0  0  0  0  0  0  0
  -27.5586  -24.2228   24.6733 C   0  0  0  0  0  0  0  0  0  0  0  0
  -26.3515  -18.2942   23.7244 C   0  0  0  0  0  0  0  0  0  0  0  0
  -22.5626   -8.6274   20.1213 C   0  0  0  0  0  0  0  0  0  0  0  0
  -23.0160   -8.7672   22.4903 C   0  0  0  0  0  0  0  0  0  0  0  0
  -26.7608  -17.1363   24.3843 C   0  0  0  0  0  0  0  0  0  0  0  0
  -19.7696   -7.8546   22.7111 C   0  0  0  0  0  0  0  0  0  0  0  0
  -18.8685   -7.8320   23.7755 C   0  0  0  0  0  0  0  0  0  0  0  0
  -24.7223  -17.1578   25.6740 C   0  0  0  0  0  0  0  0  0  0  0  0
  -30.8929  -12.5975   25.1046 C   0  0  0  0  0  0  0  0  0  0  0  0
  -32.8179  -12.2757   23.6807 C   0  0  0  0  0  0  0  0  0  0  0  0
  -33.0163  -11.9659   26.0685 C   0  0  0  0  0  0  0  0  0  0  0  0
  -20.0762   -5.9849   24.7587 C   0  0  0  0  0  0  0  0  0  0  0  0
  -23.8778  -10.4567   20.9937 C   0  0  0  0  0  0  0  0  0  0  0  0
  -24.1358  -12.9869   20.7959 C   0  0  0  0  0  0  0  0  0  0  0  0
  -26.0743  -26.1348   24.8412 C   0  0  0  0  0  0  0  0  0  0  0  0
  -25.1273  -18.8997   24.0426 C   0  0  0  0  0  0  0  0  0  0  0  0
  -26.3407  -24.7772   25.1023 C   0  0  0  0  0  0  0  0  0  0  0  0
  -24.2985  -18.3219   25.0148 C   0  0  0  0  0  0  0  0  0  0  0  0
  -31.4684  -12.5936   23.8340 C   0  0  0  0  0  0  0  0  0  0  0  0
  -31.6668  -12.2837   26.2218 C   0  0  0  0  0  0  0  0  0  0  0  0
  -22.4265   -8.1108   21.4099 C   0  0  0  0  0  0  0  0  0  0  0  0
  -25.9475  -16.5695   25.3613 C   0  0  0  0  0  0  0  0  0  0  0  0
  -20.8240   -6.9422   22.6704 C   0  0  0  0  0  0  0  0  0  0  0  0
  -19.0218   -6.8972   24.7994 C   0  0  0  0  0  0  0  0  0  0  0  0
  -33.5919  -11.9619   24.7979 C   0  0  0  0  0  0  0  0  0  0  0  0
  -20.9773   -6.0074   23.6942 C   0  0  0  0  0  0  0  0  0  0  0  0
  -24.6280  -11.6680   20.7793 C   0  0  0  0  0  0  0  0  0  0  0  0
  -25.2367  -13.7674   20.5400 C   0  0  0  0  0  0  0  0  0  0  0  0
  -22.8028  -13.4638   21.0225 C   0  0  0  0  0  0  0  0  0  0  0  0
  -24.2592  -21.7261   25.2094 C   0  0  0  0  0  0  0  0  0  0  0  0
  -28.0375  -14.4399   27.4219 C   0  0  0  0  0  0  0  0  0  0  0  0
  -21.2701  -20.6214   24.6038 C   0  0  0  0  0  0  0  0  0  0  0  0
  -19.2075  -17.9391   24.1588 C   0  0  0  0  0  0  0  0  0  0  0  0
  -31.0983  -12.9553   21.3686 C   0  0  0  0  0  0  0  0  0  0  0  0
  -24.8070  -26.8002   25.3165 C   0  0  0  0  0  0  0  0  0  0  0  0
  -24.6880  -20.1334   23.3027 C   0  0  0  0  0  0  0  0  0  0  0  0
  -22.9658  -18.9217   25.3789 C   0  0  0  0  0  0  0  0  0  0  0  0
  -23.7023  -25.8133   25.6854 C   0  0  0  0  0  0  0  0  0  0  0  0
  -29.4610  -13.6603   18.2865 C   0  0  0  0  0  0  0  0  0  0  0  0
  -24.2589  -24.6888   26.5528 C   0  0  0  0  0  0  0  0  0  0  0  0
  -27.9901  -13.3553   18.5793 C   0  0  0  0  0  0  0  0  0  0  0  0
  -30.3954  -12.6852   19.0004 C   0  0  0  0  0  0  0  0  0  0  0  0
  -28.7044  -12.2556   20.7398 C   0  0  0  0  0  0  0  0  0  0  0  0
  -25.3319  -23.8918   25.8012 C   0  0  1  0  0  0  0  0  0  0  0  0
  -23.6561  -20.9545   24.0699 C   0  0  1  0  0  0  0  0  0  0  0  0
  -27.7269  -13.2514   20.0944 C   0  0  2  0  0  0  0  0  0  0  0  0
  -29.7371  -16.2758   29.0911 C   0  0  0  0  0  0  0  0  0  0  0  0
  -17.1010  -16.6854   23.6218 C   0  0  0  0  0  0  0  0  0  0  0  0
  -20.5819  -21.2576   27.5075 C   0  0  0  0  0  0  0  0  0  0  0  0
  -18.5532  -19.8096   27.2711 C   0  0  0  0  0  0  0  0  0  0  0  0
  -18.7978  -21.8511   25.8585 C   0  0  0  0  0  0  0  0  0  0  0  0
  -31.9013  -11.9583   28.6712 C   0  0  0  0  0  0  0  0  0  0  0  0
  -19.8643  -17.8393   21.2747 C   0  0  0  0  0  0  0  0  0  0  0  0
  -27.7492  -15.2438   26.1690 C   0  0  0  0  0  0  0  0  0  1  0  0
  -29.9408  -14.7661   29.0535 C   0  0  0  0  0  0  0  0  0  0  0  0
  -29.6987  -12.6249   27.6951 C   0  0  0  0  0  0  0  0  0  0  0  0
  -29.5088  -14.1462   27.7129 C   0  0  1  0  0  0  0  0  0  0  0  0
  -20.2438  -19.8329   25.3811 C   0  0  1  0  0  0  0  0  0  0  0  0
  -18.1675  -17.6335   23.0960 C   0  0  2  0  0  0  0  0  0  0  0  0
  -19.5701  -20.6773   26.4993 C   0  0  0  0  0  0  0  0  0  0  0  0
  -25.9393  -11.6101   20.5322 N   0  0  0  0  0  0  0  0  0  0  0  0
  -26.2805  -12.9022   20.3911 N   0  0  0  0  0  0  0  0  0  0  0  0
  -22.5834  -20.1314   24.6320 N   0  0  0  0  0  0  0  0  0  0  0  0
  -30.0903  -12.6425   20.4322 N   0  0  0  0  0  0  0  0  0  0  0  0
  -25.4039  -15.1024   20.4300 N   0  0  0  0  0  0  0  0  0  0  0  0
  -21.7910  -12.5263   21.2708 N   0  0  0  0  0  0  0  0  0  0  0  0
  -30.6827  -12.9129   22.6990 N   0  0  0  0  0  0  0  0  0  0  0  0
  -24.7177  -22.9816   24.8585 N   0  0  0  0  0  0  0  0  0  0  0  0
  -19.3123  -19.2932   24.3965 N   0  0  0  0  0  0  0  0  0  0  0  0
  -31.0887  -12.2876   27.4990 N   0  0  3  0  0  0  0  0  0  0  0  0
  -18.8105  -17.0051   21.9075 N   0  3  0  0  0  0  0  0  0  0  0  0
  -22.5144  -14.6841   20.9891 O   0  0  0  0  0  0  0  0  0  0  0  0
  -24.3038  -21.2206   26.3248 O   0  0  0  0  0  0  0  0  0  0  0  0
  -27.1347  -14.0230   28.1474 O   0  0  0  0  0  0  0  0  0  0  0  0
  -20.9179  -21.6308   23.9883 O   0  0  0  0  0  0  0  0  0  0  0  0
  -19.8590  -17.0637   24.7243 O   0  0  0  0  0  0  0  0  0  0  0  0
  -32.2386  -13.2662   21.0150 O   0  0  0  0  0  0  0  0  0  0  0  0
  -21.7183   -6.9664   21.6133 O   0  0  0  0  0  0  0  0  0  0  0  0
  -26.3450  -15.4397   26.0074 O   0  0  0  0  0  0  0  0  0  1  0  0
  -18.1573   -6.8767   25.8223 F   0  0  0  0  0  0  0  0  0  0  0  0
  -34.8880  -11.6572   24.6510 F   0  0  0  0  0  0  0  0  0  0  0  0
  -21.9890   -5.1292   23.6612 F   0  0  0  0  0  0  0  0  0  0  0  0
  1  2  1  0  0  0  0
  1  5  2  0  0  0  0
  2  6  2  0  0  0  0
  3  8  2  0  0  0  0
  3 18  1  0  0  0  0
  4  9  1  0  0  0  0
  4 18  2  0  0  0  0
  5 20  1  0  0  0  0
  6 22  1  0  0  0  0
  7 10  2  0  0  0  0
  7 21  1  0  0  0  0
  8 26  1  0  0  0  0
  9 26  2  0  0  0  0
 10 27  1  0  0  0  0
 11 12  2  0  0  0  0
 11 28  1  0  0  0  0
 12 29  1  0  0  0  0
 13 23  1  0  0  0  0
 13 27  2  0  0  0  0
 14 24  1  0  0  0  0
 14 25  2  0  0  0  0
 15 24  2  0  0  0  0
 15 30  1  0  0  0  0
 16 25  1  0  0  0  0
 16 30  2  0  0  0  0
 17 29  2  0  0  0  0
 17 31  1  0  0  0  0
 18 32  1  0  0  0  0
 19 32  1  0  0  0  0
 19 33  2  0  0  0  0
 19 34  1  0  0  0  0
 20 22  2  0  0  0  0
 20 40  1  0  0  0  0
 21 23  2  0  0  0  0
 21 41  1  0  0  0  0
 22 49  1  0  0  0  0
 23 42  1  0  0  0  0
 24 72  1  0  0  0  0
 25 75  1  0  0  0  0
 26 83  1  0  0  0  0
 27 84  1  0  0  0  0
 28 31  2  0  0  0  0
 28 83  1  0  0  0  0
 29 85  1  0  0  0  0
 30 86  1  0  0  0  0
 31 87  1  0  0  0  0
 32 66  2  0  0  0  0
 33 67  1  0  0  0  0
 33 70  1  0  0  0  0
 34 71  1  0  0  0  0
 34 77  2  0  0  0  0
 35 50  1  0  0  0  0
 35 73  1  0  0  0  0
 35 78  2  0  0  0  0
 36 59  1  0  0  0  0
 36 62  1  0  0  0  0
 36 79  2  0  0  0  0
 37 63  1  0  0  0  0
 37 68  1  0  0  0  0
 37 80  2  0  0  0  0
 38 64  1  0  0  0  0
 38 74  1  0  0  0  0
 38 81  2  0  0  0  0
 39 69  1  0  0  0  0
 39 72  1  0  0  0  0
 39 82  2  0  0  0  0
 40 43  1  0  0  0  0
 41 50  1  0  0  0  0
 42 68  1  0  0  0  0
 43 45  1  0  0  0  0
 44 46  1  0  0  0  0
 44 47  1  0  0  0  0
 45 49  1  0  0  0  0
 46 51  1  0  0  0  0
 47 69  1  0  0  0  0
 48 51  1  0  0  0  0
 48 69  1  0  0  0  0
 49 73  1  0  0  0  0
 50 68  1  0  0  0  0
 51 67  1  0  0  0  0
 52 60  1  0  0  0  0
 53 64  1  0  0  0  0
 54 65  1  0  0  0  0
 55 65  1  0  0  0  0
 56 65  1  0  0  0  0
 57 75  1  0  0  0  0
 58 76  1  0  0  0  0
 59 84  1  0  0  0  0
 60 62  1  0  0  0  0
 61 62  1  0  0  0  0
 61 75  1  0  0  0  0
 63 65  1  0  0  0  0
 63 74  1  0  0  0  0
 64 76  1  0  0  0  0
 66 67  1  0  0  0  0
M  CHG  1  76   1
M  ISO  4  39 100  59 101  72 100  84 101
M  END
> <Batch ID>
0173

> <Smiles>
CCC(CN(C)c1cc(F)cc([100NH:0][100C:0](=O)N2CCCC(n3nc(-c4ccc(Oc5ccc(F)cc5F)cc4)c(C(N)=O)c3N)C2)c1)C(=O)[101CH2:1][101O:1]c1ccc2c(c1)CN(C(=O)C(NC(=O)C(C)NC)C(C)(C)C)C(C(=O)NC1CCCc3ccccc31)C2

> <Shape>
0.132

> <Color>
0.174

> <Negative vol penalty>
0.000

$$$$

  -OEChem-04052304293D

 89 97  0     1  0  0  0  0  0999 V2000
  -30.1835  -35.5896   19.8972 C   0  0  0  0  0  0  0  0  0  0  0  0
  -30.1283  -34.2031   19.9971 C   0  0  0  0  0  0  0  0  0  0  0  0
  -26.1182  -11.9530   21.1469 C   0  0  0  0  0  0  0  0  0  0  0  0
  -25.9044  -12.4208   18.7863 C   0  0  0  0  0  0  0  0  0  0  0  0
  -29.3598  -36.3784   20.6993 C   0  0  0  0  0  0  0  0  0  0  0  0
  -29.2503  -33.6046   20.9001 C   0  0  0  0  0  0  0  0  0  0  0  0
  -26.7474  -29.6955   18.8752 C   0  0  0  0  0  0  0  0  0  0  0  0
  -24.7591  -11.6452   21.2091 C   0  0  0  0  0  0  0  0  0  0  0  0
  -24.5453  -12.1131   18.8484 C   0  0  0  0  0  0  0  0  0  0  0  0
  -27.4373  -28.4897   18.7580 C   0  0  0  0  0  0  0  0  0  0  0  0
  -22.7564   -9.0391   20.4154 C   0  0  0  0  0  0  0  0  0  0  0  0
  -22.3830   -7.8909   21.1139 C   0  0  0  0  0  0  0  0  0  0  0  0
  -30.6624  -20.3282   16.6364 C   0  0  0  0  0  0  0  0  0  0  0  0
  -26.3464  -27.6787   20.7508 C   0  0  0  0  0  0  0  0  0  0  0  0
  -30.0555  -18.4505   15.2425 C   0  0  0  0  0  0  0  0  0  0  0  0
  -21.0477   -9.2365   22.6117 C   0  0  0  0  0  0  0  0  0  0  0  0
  -26.6908  -12.3408   19.9355 C   0  0  0  0  0  0  0  0  0  0  0  0
  -30.3866  -21.1995   15.5827 C   0  0  0  0  0  0  0  0  0  0  0  0
  -29.1554  -11.7747   19.5992 C   0  0  0  0  0  0  0  0  0  0  0  0
  -28.4643  -35.7891   21.6056 C   0  0  0  0  0  0  0  0  0  0  0  0
  -25.8585  -29.9064   19.9391 C   0  0  0  0  0  0  0  0  0  0  0  0
  -28.4149  -34.3863   21.7160 C   0  0  0  0  0  0  0  0  0  0  0  0
  -25.6445  -28.8871   20.8779 C   0  0  0  0  0  0  0  0  0  0  0  0
  -30.4970  -18.9536   16.4663 C   0  0  0  0  0  0  0  0  0  0  0  0
  -23.9727  -11.7253   20.0598 C   0  0  0  0  0  0  0  0  0  0  0  0
  -27.2391  -27.4821   19.6974 C   0  0  0  0  0  0  0  0  0  0  0  0
  -22.2755  -10.2860   20.8151 C   0  0  0  0  0  0  0  0  0  0  0  0
  -21.5286   -7.9897   22.2121 C   0  0  0  0  0  0  0  0  0  0  0  0
  -29.7796  -19.3218   14.1888 C   0  0  0  0  0  0  0  0  0  0  0  0
  -21.4211  -10.3847   21.9132 C   0  0  0  0  0  0  0  0  0  0  0  0
  -29.9452  -20.6964   14.3590 C   0  0  0  0  0  0  0  0  0  0  0  0
  -28.0945  -12.6594   19.8708 C   0  0  0  0  0  0  0  0  0  0  0  0
  -30.2803  -12.5610   19.6522 C   0  0  0  0  0  0  0  0  0  0  0  0
  -30.5632  -22.6631   15.7669 C   0  0  0  0  0  0  0  0  0  0  0  0
  -29.1265  -10.3680   19.3234 C   0  0  0  0  0  0  0  0  0  0  0  0
  -25.7090  -31.9552   22.3648 C   0  0  0  0  0  0  0  0  0  0  0  0
  -31.8976  -24.9370   17.7497 C   0  0  0  0  0  0  0  0  0  0  0  0
  -29.4807  -24.8121   18.5013 C   0  0  0  0  0  0  0  0  0  0  0  0
  -22.8316  -30.5452   22.8696 C   0  0  0  0  0  0  0  0  0  0  0  0
  -20.8331  -27.8101   22.4552 C   0  0  0  0  0  0  0  0  0  0  0  0
  -31.2213  -18.4021   18.8152 C   0  0  0  0  0  0  0  0  0  0  0  0
  -27.6278  -36.6840   22.4854 C   0  0  0  0  0  0  0  0  0  0  0  0
  -25.1019  -31.2027   20.0364 C   0  0  0  0  0  0  0  0  0  0  0  0
  -24.6858  -29.0560   22.0271 C   0  0  0  0  0  0  0  0  0  0  0  0
  -26.4572  -35.9635   23.1494 C   0  0  0  0  0  0  0  0  0  0  0  0
  -31.9874  -16.5192   21.7384 C   0  0  0  0  0  0  0  0  0  0  0  0
  -26.9171  -34.6390   23.7503 C   0  0  0  0  0  0  0  0  0  0  0  0
  -31.1774  -15.2326   21.5636 C   0  0  0  0  0  0  0  0  0  0  0  0
  -31.2351  -17.7393   21.2101 C   0  0  0  0  0  0  0  0  0  0  0  0
  -29.9422  -16.3341   19.6535 C   0  0  0  0  0  0  0  0  0  0  0  0
  -27.4578  -33.6993   22.6658 C   0  0  1  0  0  0  0  0  0  0  0  0
  -24.6079  -31.5017   21.4485 C   0  0  1  0  0  0  0  0  0  0  0  0
  -30.6859  -15.0690   20.1119 C   0  0  2  0  0  0  0  0  0  0  0  0
  -32.9693  -23.8776   17.7962 C   0  0  0  0  0  0  0  0  0  0  0  0
  -18.5461  -26.9391   23.0107 C   0  0  0  0  0  0  0  0  0  0  0  0
  -23.7267  -30.0335   25.7413 C   0  0  0  0  0  0  0  0  0  0  0  0
  -21.8635  -28.3746   25.9528 C   0  0  0  0  0  0  0  0  0  0  0  0
  -21.3498  -30.7744   25.5058 C   0  0  0  0  0  0  0  0  0  0  0  0
  -20.1126  -27.5456   19.5968 C   0  0  0  0  0  0  0  0  0  0  0  0
  -28.8050  -26.1689   18.4812 C   0  0  0  0  0  0  0  0  0  1  0  0
  -30.4754  -24.5403   17.3870 C   0  0  2  0  0  0  0  0  0  0  0  0
  -22.3483  -29.3571   23.6657 C   0  0  1  0  0  0  0  0  0  0  0  0
  -19.3957  -27.6746   21.9860 C   0  0  2  0  0  0  0  0  0  0  0  0
  -22.3417  -29.6321   25.1960 C   0  0  0  0  0  0  0  0  0  0  0  0
  -28.5085  -13.9118   20.0810 N   0  0  0  0  0  0  0  0  0  0  0  0
  -29.8420  -13.8197   19.9415 N   0  0  0  0  0  0  0  0  0  0  0  0
  -23.9744  -30.3438   22.0827 N   0  0  0  0  0  0  0  0  0  0  0  0
  -30.8041  -17.5136   19.8288 N   0  0  0  0  0  0  0  0  0  0  0  0
  -31.5917  -12.2915   19.4793 N   0  0  0  0  0  0  0  0  0  0  0  0
  -27.8861   -9.7156   19.3073 N   0  0  0  0  0  0  0  0  0  0  0  0
  -30.7763  -18.0681   17.5366 N   0  0  0  0  0  0  0  0  0  0  0  0
  -30.3650  -23.1471   17.0555 N   0  0  0  0  0  0  0  0  0  0  0  0
  -26.3671  -33.0914   21.9342 N   0  0  0  0  0  0  0  0  0  0  0  0
  -21.0442  -29.0012   23.1169 N   0  0  0  0  0  0  0  0  0  0  0  0
  -19.3390  -26.9218   20.7011 N   0  3  0  0  0  0  0  0  0  0  0  0
  -30.8475  -23.3600   14.7964 O   0  0  0  0  0  0  0  0  0  0  0  0
  -30.1712   -9.7059   19.1143 O   0  0  0  0  0  0  0  0  0  0  0  0
  -25.9432  -31.3220   23.3875 O   0  0  0  0  0  0  0  0  0  0  0  0
  -32.1825  -26.1184   17.9622 O   0  0  0  0  0  0  0  0  0  0  0  0
  -29.2599  -23.9898   19.3908 O   0  0  0  0  0  0  0  0  0  0  0  0
  -22.2137  -31.6106   22.9377 O   0  0  0  0  0  0  0  0  0  0  0  0
  -21.6826  -26.9441   22.2579 O   0  0  0  0  0  0  0  0  0  0  0  0
  -31.9442  -19.3715   19.0593 O   0  0  0  0  0  0  0  0  0  0  0  0
  -22.6465  -11.4248   20.1200 O   0  0  0  0  0  0  0  0  0  0  0  0
  -27.9117  -26.3044   19.5857 O   0  0  0  0  0  0  0  0  0  1  0  0
  -21.1689   -6.8869   22.8818 F   0  0  0  0  0  0  0  0  0  0  0  0
  -29.3557  -18.8388   13.0137 F   0  0  0  0  0  0  0  0  0  0  0  0
  -20.9550  -11.5797   22.3012 F   0  0  0  0  0  0  0  0  0  0  0  0
  -29.6773  -21.5244   13.3396 F   0  0  0  0  0  0  0  0  0  0  0  0
  1  2  1  0  0  0  0
  1  5  2  0  0  0  0
  2  6  2  0  0  0  0
  3  8  2  0  0  0  0
  3 17  1  0  0  0  0
  4  9  1  0  0  0  0
  4 17  2  0  0  0  0
  5 20  1  0  0  0  0
  6 22  1  0  0  0  0
  7 10  2  0  0  0  0
  7 21  1  0  0  0  0
  8 25  1  0  0  0  0
  9 25  2  0  0  0  0
 10 26  1  0  0  0  0
 11 12  2  0  0  0  0
 11 27  1  0  0  0  0
 12 28  1  0  0  0  0
 13 18  1  0  0  0  0
 13 24  2  0  0  0  0
 14 23  1  0  0  0  0
 14 26  2  0  0  0  0
 15 24  1  0  0  0  0
 15 29  2  0  0  0  0
 16 28  2  0  0  0  0
 16 30  1  0  0  0  0
 17 32  1  0  0  0  0
 18 31  2  0  0  0  0
 18 34  1  0  0  0  0
 19 32  1  0  0  0  0
 19 33  2  0  0  0  0
 19 35  1  0  0  0  0
 20 22  2  0  0  0  0
 20 42  1  0  0  0  0
 21 23  2  0  0  0  0
 21 43  1  0  0  0  0
 22 51  1  0  0  0  0
 23 44  1  0  0  0  0
 24 71  1  0  0  0  0
 25 84  1  0  0  0  0
 26 85  1  0  0  0  0
 27 30  2  0  0  0  0
 27 84  1  0  0  0  0
 28 86  1  0  0  0  0
 29 31  1  0  0  0  0
 29 87  1  0  0  0  0
 30 88  1  0  0  0  0
 31 89  1  0  0  0  0
 32 65  2  0  0  0  0
 33 66  1  0  0  0  0
 33 69  1  0  0  0  0
 34 72  1  0  0  0  0
 34 76  2  0  0  0  0
 35 70  1  0  0  0  0
 35 77  2  0  0  0  0
 36 52  1  0  0  0  0
 36 73  1  0  0  0  0
 36 78  2  0  0  0  0
 37 54  1  0  0  0  0
 37 61  1  0  0  0  0
 37 79  2  0  0  0  0
 38 60  1  0  0  0  0
 38 61  1  0  0  0  0
 38 80  2  0  0  0  0
 39 62  1  0  0  0  0
 39 67  1  0  0  0  0
 39 81  2  0  0  0  0
 40 63  1  0  0  0  0
 40 74  1  0  0  0  0
 40 82  2  0  0  0  0
 41 68  1  0  0  0  0
 41 71  1  0  0  0  0
 41 83  2  0  0  0  0
 42 45  1  0  0  0  0
 43 52  1  0  0  0  0
 44 67  1  0  0  0  0
 45 47  1  0  0  0  0
 46 48  1  0  0  0  0
 46 49  1  0  0  0  0
 47 51  1  0  0  0  0
 48 53  1  0  0  0  0
 49 68  1  0  0  0  0
 50 53  1  0  0  0  0
 50 68  1  0  0  0  0
 51 73  1  0  0  0  0
 52 67  1  0  0  0  0
 53 66  1  0  0  0  0
 55 63  1  0  0  0  0
 56 64  1  0  0  0  0
 57 64  1  0  0  0  0
 58 64  1  0  0  0  0
 59 75  1  0  0  0  0
 60 85  1  0  0  0  0
 61 72  1  0  0  0  0
 62 64  1  0  0  0  0
 62 74  1  0  0  0  0
 63 75  1  0  0  0  0
 65 66  1  0  0  0  0
M  CHG  1  75   1
M  ISO  4  41 100  60 101  71 100  85 101
M  END
> <Batch ID>
0173

> <Smiles>
CNC(C)C(=O)NC(C(=O)N1Cc2cc([101O:1][101CH2:1]C(=O)C(NC(=O)c3cc([100NH:0][100C:0](=O)N4CCCC(n5nc(-c6ccc(Oc7ccc(F)cc7F)cc6)c(C(N)=O)c5N)C4)cc(F)c3F)C(C)=O)ccc2CC1C(=O)NC1CCCc2ccccc21)C(C)(C)C

> <Shape>
0.303

> <Color>
0.080

> <Negative vol penalty>
0.000

$$$$

  -OEChem-04052304293D

 87 96  0     1  0  0  0  0  0999 V2000
  -17.5485  -26.6632   23.3131 C   0  0  0  0  0  0  0  0  0  0  0  0
  -18.7833  -26.0514   23.5043 C   0  0  0  0  0  0  0  0  0  0  0  0
  -23.8463   -9.4161   20.9610 C   0  0  0  0  0  0  0  0  0  0  0  0
  -25.4144   -9.7464   22.7690 C   0  0  0  0  0  0  0  0  0  0  0  0
  -17.4620  -27.8380   22.5673 C   0  0  0  0  0  0  0  0  0  0  0  0
  -19.9321  -26.6136   22.9489 C   0  0  0  0  0  0  0  0  0  0  0  0
  -25.5651  -26.6076   25.3520 C   0  0  0  0  0  0  0  0  0  0  0  0
  -23.5483   -8.1449   21.4515 C   0  0  0  0  0  0  0  0  0  0  0  0
  -25.1164   -8.4751   23.2597 C   0  0  0  0  0  0  0  0  0  0  0  0
  -26.6816  -25.8044   25.1234 C   0  0  0  0  0  0  0  0  0  0  0  0
  -21.6699   -6.8062   23.9238 C   0  0  0  0  0  0  0  0  0  0  0  0
  -20.3268   -6.4358   23.9914 C   0  0  0  0  0  0  0  0  0  0  0  0
  -29.9636  -18.9338   23.2380 C   0  0  0  0  0  0  0  0  0  0  0  0
  -27.5393  -27.4466   23.5785 C   0  0  0  0  0  0  0  0  0  0  0  0
  -32.2765  -19.3644   22.6798 C   0  0  0  0  0  0  0  0  0  0  0  0
  -20.7627   -4.5839   22.5022 C   0  0  0  0  0  0  0  0  0  0  0  0
  -24.7794  -10.2169   21.6197 C   0  0  0  0  0  0  0  0  0  0  0  0
  -24.1966  -12.6057   20.9403 C   0  0  0  0  0  0  0  0  0  0  0  0
  -18.6117  -28.4202   22.0106 C   0  0  0  0  0  0  0  0  0  0  0  0
  -25.4219  -27.8334   24.6861 C   0  0  0  0  0  0  0  0  0  0  0  0
  -19.8607  -27.7966   22.1939 C   0  0  0  0  0  0  0  0  0  0  0  0
  -30.2111  -17.5590   23.2040 C   0  0  0  0  0  0  0  0  0  0  0  0
  -26.4214  -28.2647   23.8023 C   0  0  0  0  0  0  0  0  0  0  0  0
  -31.5009  -17.0861   22.9130 C   0  0  0  0  0  0  0  0  0  0  0  0
  -30.9952  -19.8334   22.9698 C   0  0  0  0  0  0  0  0  0  0  0  0
  -24.1833   -7.6744   22.6009 C   0  0  0  0  0  0  0  0  0  0  0  0
  -27.6674  -26.2225   24.2344 C   0  0  0  0  0  0  0  0  0  0  0  0
  -22.5594   -6.0655   23.1454 C   0  0  0  0  0  0  0  0  0  0  0  0
  -19.8732   -5.3247   23.2806 C   0  0  0  0  0  0  0  0  0  0  0  0
  -22.1058   -4.9543   22.4346 C   0  0  0  0  0  0  0  0  0  0  0  0
  -32.5329  -17.9935   22.6581 C   0  0  0  0  0  0  0  0  0  0  0  0
  -25.0881  -11.5300   21.1130 C   0  0  0  0  0  0  0  0  0  0  0  0
  -24.9746  -13.6187   20.4353 C   0  0  0  0  0  0  0  0  0  0  0  0
  -22.7909  -12.6825   21.2121 C   0  0  0  0  0  0  0  0  0  0  0  0
  -30.8722  -14.7123   20.8017 C   0  0  0  0  0  0  0  0  0  0  0  0
  -23.3114  -29.0408   22.6388 C   0  0  0  0  0  0  0  0  0  0  0  0
  -29.5435  -23.2852   23.2266 C   0  0  0  0  0  0  0  0  0  0  0  0
  -25.0404  -31.7530   23.0586 C   0  0  0  0  0  0  0  0  0  0  0  0
  -26.6980  -34.7350   22.9734 C   0  0  0  0  0  0  0  0  0  0  0  0
  -18.4619  -29.6650   21.1724 C   0  0  0  0  0  0  0  0  0  0  0  0
  -24.2247  -28.7005   24.9639 C   0  0  0  0  0  0  0  0  0  0  0  0
  -29.1408  -16.5485   23.5067 C   0  0  0  0  0  0  0  0  0  0  0  0
  -31.7419  -15.5991   22.9551 C   0  0  0  0  0  0  0  0  0  0  0  0
  -26.3249  -29.5816   23.0777 C   0  0  0  0  0  0  0  0  0  0  0  0
  -19.7781  -30.4000   20.9327 C   0  0  0  0  0  0  0  0  0  0  0  0
  -29.1904  -15.4062   22.4886 C   0  0  0  0  0  0  0  0  0  0  0  0
  -28.9012  -14.3900   17.8266 C   0  0  0  0  0  0  0  0  0  0  0  0
  -20.8707  -29.4181   20.5215 C   0  0  0  0  0  0  0  0  0  0  0  0
  -27.6310  -13.6922   18.3113 C   0  0  0  0  0  0  0  0  0  0  0  0
  -30.1309  -13.9022   18.5862 C   0  0  0  0  0  0  0  0  0  0  0  0
  -28.7487  -13.3329   20.5578 C   0  0  0  0  0  0  0  0  0  0  0  0
  -21.1330  -28.3895   21.6282 C   0  0  1  0  0  0  0  0  0  0  0  0
  -23.9320  -29.6922   23.8421 C   0  0  1  0  0  0  0  0  0  0  0  0
  -27.4786  -13.8192   19.8375 C   0  0  2  0  0  0  0  0  0  0  0  0
  -30.6034  -14.7924   22.2834 C   0  0  1  0  0  0  0  0  0  0  0  0
  -30.6365  -13.3469   22.8007 C   0  0  0  0  0  0  0  0  0  0  0  0
  -27.0079  -36.7764   21.5472 C   0  0  0  0  0  0  0  0  0  0  0  0
  -26.8481  -30.1649   21.1824 C   0  0  0  0  0  0  0  0  0  0  0  0
  -27.8407  -32.3322   20.4171 C   0  0  0  0  0  0  0  0  0  0  0  0
  -25.4159  -31.8749   20.0515 C   0  0  0  0  0  0  0  0  0  0  0  0
  -25.6268  -36.5133   25.0827 C   0  0  0  0  0  0  0  0  0  0  0  0
  -29.4584  -21.7747   23.2825 C   0  0  0  0  0  0  0  0  0  0  0  0
  -28.5818  -24.0294   24.1324 C   0  0  0  0  0  0  0  0  0  1  0  0
  -26.2459  -32.3669   22.3884 C   0  0  1  0  0  0  0  0  0  0  0  0
  -26.2186  -36.1460   22.6840 C   0  0  2  0  0  0  0  0  0  0  0  0
  -26.5880  -31.6776   21.0374 C   0  0  0  0  0  0  0  0  0  0  0  0
  -26.3368  -11.8313   20.7473 N   0  0  0  0  0  0  0  0  0  0  0  0
  -26.2356  -13.1079   20.3397 N   0  0  0  0  0  0  0  0  0  0  0  0
  -29.9378  -14.0183   20.0328 N   0  0  0  0  0  0  0  0  0  0  0  0
  -25.1323  -30.3909   23.3780 N   0  0  0  0  0  0  0  0  0  0  0  0
  -24.6962  -14.8876   20.0681 N   0  0  0  0  0  0  0  0  0  0  0  0
  -22.3783  -13.1030   22.4838 N   0  0  0  0  0  0  0  0  0  0  0  0
  -30.7468  -21.1994   22.9925 N   0  0  0  0  0  0  0  0  0  0  0  0
  -21.9318  -28.9750   22.6834 N   0  0  0  0  0  0  0  0  0  0  0  0
  -25.9681  -33.7948   22.2773 N   0  0  0  0  0  0  0  0  0  0  0  0
  -26.3707  -37.0030   23.8937 N   0  3  0  0  0  0  0  0  0  0  0  0
  -21.9266  -12.3712   20.3580 O   0  0  0  0  0  0  0  0  0  0  0  0
  -31.8815  -15.2535   20.3429 O   0  0  0  0  0  0  0  0  0  0  0  0
  -24.0307  -28.6296   21.7359 O   0  0  0  0  0  0  0  0  0  0  0  0
  -30.3364  -23.8804   22.4979 O   0  0  0  0  0  0  0  0  0  0  0  0
  -24.0565  -32.4578   23.2966 O   0  0  0  0  0  0  0  0  0  0  0  0
  -27.6294  -34.4915   23.7374 O   0  0  0  0  0  0  0  0  0  0  0  0
  -23.8926   -6.4340   23.0801 O   0  0  0  0  0  0  0  0  0  0  0  0
  -28.7578  -25.4401   24.0090 O   0  0  0  0  0  0  0  0  0  1  0  0
  -18.5838   -4.9682   23.3467 F   0  0  0  0  0  0  0  0  0  0  0  0
  -22.9558   -4.2381   21.6861 F   0  0  0  0  0  0  0  0  0  0  0  0
  -34.1583  -17.5039   22.3310 Cl  0  0  0  0  0  0  0  0  0  0  0  0
  1  2  1  0  0  0  0
  1  5  2  0  0  0  0
  2  6  2  0  0  0  0
  3  8  2  0  0  0  0
  3 17  1  0  0  0  0
  4  9  1  0  0  0  0
  4 17  2  0  0  0  0
  5 19  1  0  0  0  0
  6 21  1  0  0  0  0
  7 10  2  0  0  0  0
  7 20  1  0  0  0  0
  8 26  1  0  0  0  0
  9 26  2  0  0  0  0
 10 27  1  0  0  0  0
 11 12  2  0  0  0  0
 11 28  1  0  0  0  0
 12 29  1  0  0  0  0
 13 22  1  0  0  0  0
 13 25  2  0  0  0  0
 14 23  1  0  0  0  0
 14 27  2  0  0  0  0
 15 25  1  0  0  0  0
 15 31  2  0  0  0  0
 16 29  2  0  0  0  0
 16 30  1  0  0  0  0
 17 32  1  0  0  0  0
 18 32  1  0  0  0  0
 18 33  2  0  0  0  0
 18 34  1  0  0  0  0
 19 21  2  0  0  0  0
 19 40  1  0  0  0  0
 20 23  2  0  0  0  0
 20 41  1  0  0  0  0
 21 52  1  0  0  0  0
 22 24  2  0  0  0  0
 22 42  1  0  0  0  0
 23 44  1  0  0  0  0
 24 31  1  0  0  0  0
 24 43  1  0  0  0  0
 25 73  1  0  0  0  0
 26 83  1  0  0  0  0
 27 84  1  0  0  0  0
 28 30  2  0  0  0  0
 28 83  1  0  0  0  0
 29 85  1  0  0  0  0
 30 86  1  0  0  0  0
 31 87  1  0  0  0  0
 32 67  2  0  0  0  0
 33 68  1  0  0  0  0
 33 71  1  0  0  0  0
 34 72  1  0  0  0  0
 34 77  2  0  0  0  0
 35 55  1  0  0  0  0
 35 69  1  0  0  0  0
 35 78  2  0  0  0  0
 36 53  1  0  0  0  0
 36 74  1  0  0  0  0
 36 79  2  0  0  0  0
 37 62  1  0  0  0  0
 37 63  1  0  0  0  0
 37 80  2  0  0  0  0
 38 64  1  0  0  0  0
 38 70  1  0  0  0  0
 38 81  2  0  0  0  0
 39 65  1  0  0  0  0
 39 75  1  0  0  0  0
 39 82  2  0  0  0  0
 40 45  1  0  0  0  0
 41 53  1  0  0  0  0
 42 46  1  0  0  0  0
 43 55  1  0  0  0  0
 44 70  1  0  0  0  0
 45 48  1  0  0  0  0
 46 55  1  0  0  0  0
 47 49  1  0  0  0  0
 47 50  1  0  0  0  0
 48 52  1  0  0  0  0
 49 54  1  0  0  0  0
 50 69  1  0  0  0  0
 51 54  1  0  0  0  0
 51 69  1  0  0  0  0
 52 74  1  0  0  0  0
 53 70  1  0  0  0  0
 54 68  1  0  0  0  0
 55 56  1  0  0  0  0
 57 65  1  0  0  0  0
 58 66  1  0  0  0  0
 59 66  1  0  0  0  0
 60 66  1  0  0  0  0
 61 76  1  0  0  0  0
 62 73  1  0  0  0  0
 63 84  1  0  0  0  0
 64 66  1  0  0  0  0
 64 75  1  0  0  0  0
 65 76  1  0  0  0  0
 67 68  1  0  0  0  0
M  CHG  1  76   1
M  ISO  4  35 100  55 100  63 101  84 101
M  END
> <Batch ID>
0173

> <Smiles>
CNC(C)C(=O)NC(C(=O)N1Cc2cc([101O:1][101CH2:1]C(=O)CNc3cc(Cl)c4c(c3)CC[100C:0](C)([100C:0](=O)N3CCCC(n5nc(-c6ccc(Oc7ccc(F)cc7F)cc6)c(C(N)=O)c5N)C3)C4)ccc2CC1C(=O)NC1CCCc2ccccc21)C(C)(C)C

> <Shape>
0.307

> <Color>
0.180

> <Negative vol penalty>
0.000

$$$$

  -OEChem-04052304293D

 87 95  0     1  0  0  0  0  0999 V2000
  -39.7186  -26.3974   32.4178 C   0  0  0  0  0  0  0  0  0  0  0  0
  -38.4128  -26.0260   32.1137 C   0  0  0  0  0  0  0  0  0  0  0  0
  -32.6547  -17.4886   23.4522 C   0  0  0  0  0  0  0  0  0  0  0  0
  -23.0753   -9.8682   19.9408 C   0  0  0  0  0  0  0  0  0  0  0  0
  -23.8348   -9.8752   22.2344 C   0  0  0  0  0  0  0  0  0  0  0  0
  -40.4692  -27.1225   31.4932 C   0  0  0  0  0  0  0  0  0  0  0  0
  -37.8566  -26.3804   30.8851 C   0  0  0  0  0  0  0  0  0  0  0  0
  -33.8765  -23.1161   27.5671 C   0  0  0  0  0  0  0  0  0  0  0  0
  -31.8590  -18.3569   24.1995 C   0  0  0  0  0  0  0  0  0  0  0  0
  -32.0644  -16.6050   22.5486 C   0  0  0  0  0  0  0  0  0  0  0  0
  -22.3311   -8.7154   20.1907 C   0  0  0  0  0  0  0  0  0  0  0  0
  -23.0904   -8.7223   22.4843 C   0  0  0  0  0  0  0  0  0  0  0  0
  -32.4902  -23.1818   27.4340 C   0  0  0  0  0  0  0  0  0  0  0  0
  -19.8619   -7.9256   23.0862 C   0  0  0  0  0  0  0  0  0  0  0  0
  -19.1047   -7.8861   24.2570 C   0  0  0  0  0  0  0  0  0  0  0  0
  -32.7505  -24.5362   25.4549 C   0  0  0  0  0  0  0  0  0  0  0  0
  -20.3453   -5.9483   24.9939 C   0  0  0  0  0  0  0  0  0  0  0  0
  -23.8273  -10.4482   20.9626 C   0  0  0  0  0  0  0  0  0  0  0  0
  -24.1699  -12.9732   20.8424 C   0  0  0  0  0  0  0  0  0  0  0  0
  -39.9251  -27.4776   30.2488 C   0  0  0  0  0  0  0  0  0  0  0  0
  -34.7114  -23.7701   26.6498 C   0  0  0  0  0  0  0  0  0  0  0  0
  -38.6002  -27.1120   29.9435 C   0  0  0  0  0  0  0  0  0  0  0  0
  -34.1471  -24.4751   25.5771 C   0  0  0  0  0  0  0  0  0  0  0  0
  -30.4729  -18.3415   24.0434 C   0  0  0  0  0  0  0  0  0  0  0  0
  -30.6784  -16.5896   22.3924 C   0  0  0  0  0  0  0  0  0  0  0  0
  -22.3386   -8.1424   21.4625 C   0  0  0  0  0  0  0  0  0  0  0  0
  -31.9270  -23.8944   26.3795 C   0  0  0  0  0  0  0  0  0  0  0  0
  -20.8608   -6.9765   22.8692 C   0  0  0  0  0  0  0  0  0  0  0  0
  -19.3464   -6.8974   25.2108 C   0  0  0  0  0  0  0  0  0  0  0  0
  -21.1025   -5.9878   23.8231 C   0  0  0  0  0  0  0  0  0  0  0  0
  -29.8826  -17.4579   23.1398 C   0  0  0  0  0  0  0  0  0  0  0  0
  -24.5968  -11.6388   20.7049 C   0  0  0  0  0  0  0  0  0  0  0  0
  -25.2624  -13.7223   20.4793 C   0  0  0  0  0  0  0  0  0  0  0  0
  -22.8995  -13.4895   21.2610 C   0  0  0  0  0  0  0  0  0  0  0  0
  -36.8652  -26.0999   26.8422 C   0  0  0  0  0  0  0  0  0  0  0  0
  -37.3771  -25.3543   23.7270 C   0  0  0  0  0  0  0  0  0  0  0  0
  -36.1709  -23.9997   20.8362 C   0  0  0  0  0  0  0  0  0  0  0  0
  -30.7289  -14.7661   20.6550 C   0  0  0  0  0  0  0  0  0  0  0  0
  -40.7590  -28.3024   29.3007 C   0  0  0  0  0  0  0  0  0  0  0  0
  -36.2053  -23.6672   26.7920 C   0  0  0  0  0  0  0  0  0  0  0  0
  -34.9999  -25.1779   24.5537 C   0  0  0  0  0  0  0  0  0  0  0  0
  -40.2231  -28.3150   27.8714 C   0  0  0  0  0  0  0  0  0  0  0  0
  -29.6142  -12.3524   18.2867 C   0  0  0  0  0  0  0  0  0  0  0  0
  -38.7190  -28.5686   27.8675 C   0  0  0  0  0  0  0  0  0  0  0  0
  -28.1744  -12.0613   18.7161 C   0  0  0  0  0  0  0  0  0  0  0  0
  -30.5291  -12.5810   19.4886 C   0  0  0  0  0  0  0  0  0  0  0  0
  -28.6221  -13.3063   20.8694 C   0  0  0  0  0  0  0  0  0  0  0  0
  -37.9700  -27.4563   28.6114 C   0  0  1  0  0  0  0  0  0  0  0  0
  -36.9514  -24.7999   26.0937 C   0  0  1  0  0  0  0  0  0  0  0  0
  -27.6495  -13.1332   19.6914 C   0  0  2  0  0  0  0  0  0  0  0  0
  -36.8072  -23.5679   18.4475 C   0  0  0  0  0  0  0  0  0  0  0  0
  -36.9316  -28.3022   23.0780 C   0  0  0  0  0  0  0  0  0  0  0  0
  -36.6337  -27.6568   20.6774 C   0  0  0  0  0  0  0  0  0  0  0  0
  -38.8089  -27.2294   21.8212 C   0  0  0  0  0  0  0  0  0  0  0  0
  -28.1386  -23.5541   23.3655 C   0  0  0  0  0  0  0  0  0  0  0  0
  -27.6800  -24.0614   25.7619 C   0  0  0  0  0  0  0  0  0  0  0  0
  -35.8869  -21.0726   21.1682 C   0  0  0  0  0  0  0  0  0  0  0  0
  -29.6217  -19.2754   24.8472 C   0  0  0  0  0  0  0  0  0  0  0  0
  -30.0561  -24.0881   24.9241 C   0  0  0  0  0  0  0  0  0  1  0  0
  -28.7809  -21.9029   25.1901 C   0  0  0  0  0  0  0  0  0  0  0  0
  -36.7997  -25.8119   22.4094 C   0  0  1  0  0  0  0  0  0  0  0  0
  -36.7753  -23.0062   19.8604 C   0  0  2  0  0  0  0  0  0  0  0  0
  -37.2771  -27.2386   22.0167 C   0  0  0  0  0  0  0  0  0  0  0  0
  -28.6834  -23.3918   24.7968 C   0  0  0  0  0  0  0  0  0  0  0  0
  -25.8617  -11.5425   20.2869 N   0  0  0  0  0  0  0  0  0  0  0  0
  -26.2390  -12.8259   20.1585 N   0  0  0  0  0  0  0  0  0  0  0  0
  -36.4551  -25.0532   24.7395 N   0  0  0  0  0  0  0  0  0  0  0  0
  -29.9703  -13.6121   20.3657 N   0  0  0  0  0  0  0  0  0  0  0  0
  -25.4733  -15.0537   20.4062 N   0  0  0  0  0  0  0  0  0  0  0  0
  -21.8873  -12.5806   21.5982 N   0  0  0  0  0  0  0  0  0  0  0  0
  -30.0817  -15.6914   21.4732 N   0  0  0  0  0  0  0  0  0  0  0  0
  -37.8636  -26.2758   27.7811 N   0  0  0  0  0  0  0  0  0  0  0  0
  -37.1373  -24.7796   21.4353 N   0  0  0  0  0  0  0  0  0  0  0  0
  -35.9815  -21.7450   19.8469 N   0  3  0  0  0  0  0  0  0  0  0  0
  -22.6637  -14.7202   21.3182 O   0  0  0  0  0  0  0  0  0  0  0  0
  -35.9606  -26.8859   26.5858 O   0  0  0  0  0  0  0  0  0  0  0  0
  -38.6008  -25.2603   23.8510 O   0  0  0  0  0  0  0  0  0  0  0  0
  -34.9620  -24.0787   21.0433 O   0  0  0  0  0  0  0  0  0  0  0  0
  -31.8581  -14.9344   20.1876 O   0  0  0  0  0  0  0  0  0  0  0  0
  -29.2645  -20.8953   22.8271 O   0  0  0  0  0  0  0  0  0  0  0  0
  -31.1992  -21.3098   24.3945 O   0  0  0  0  0  0  0  0  0  0  0  0
  -21.6122   -7.0176   21.7068 O   0  0  0  0  0  0  0  0  0  0  0  0
  -30.5742  -23.9607   26.2476 O   0  0  0  0  0  0  0  0  0  1  0  0
  -18.6202   -6.8605   26.3357 F   0  0  0  0  0  0  0  0  0  0  0  0
  -22.0616   -5.0740   23.6207 F   0  0  0  0  0  0  0  0  0  0  0  0
  -28.5496  -17.4448   22.9892 F   0  0  0  0  0  0  0  0  0  0  0  0
  -29.8204  -20.9080   24.1701 S   0  0  0  0  0  0  0  0  0  0  0  0
  1  2  1  0  0  0  0
  1  6  2  0  0  0  0
  2  7  2  0  0  0  0
  3  9  2  0  0  0  0
  3 10  1  0  0  0  0
  4 11  2  0  0  0  0
  4 18  1  0  0  0  0
  5 12  1  0  0  0  0
  5 18  2  0  0  0  0
  6 20  1  0  0  0  0
  7 22  1  0  0  0  0
  8 13  2  0  0  0  0
  8 21  1  0  0  0  0
  9 24  1  0  0  0  0
 10 25  2  0  0  0  0
 11 26  1  0  0  0  0
 12 26  2  0  0  0  0
 13 27  1  0  0  0  0
 14 15  2  0  0  0  0
 14 28  1  0  0  0  0
 15 29  1  0  0  0  0
 16 23  1  0  0  0  0
 16 27  2  0  0  0  0
 17 29  2  0  0  0  0
 17 30  1  0  0  0  0
 18 32  1  0  0  0  0
 19 32  1  0  0  0  0
 19 33  2  0  0  0  0
 19 34  1  0  0  0  0
 20 22  2  0  0  0  0
 20 39  1  0  0  0  0
 21 23  2  0  0  0  0
 21 40  1  0  0  0  0
 22 48  1  0  0  0  0
 23 41  1  0  0  0  0
 24 31  2  0  0  0  0
 24 58  1  0  0  0  0
 25 31  1  0  0  0  0
 25 71  1  0  0  0  0
 26 82  1  0  0  0  0
 27 83  1  0  0  0  0
 28 30  2  0  0  0  0
 28 82  1  0  0  0  0
 29 84  1  0  0  0  0
 30 85  1  0  0  0  0
 31 86  1  0  0  0  0
 32 65  2  0  0  0  0
 33 66  1  0  0  0  0
 33 69  1  0  0  0  0
 34 70  1  0  0  0  0
 34 75  2  0  0  0  0
 35 49  1  0  0  0  0
 35 72  1  0  0  0  0
 35 76  2  0  0  0  0
 36 61  1  0  0  0  0
 36 67  1  0  0  0  0
 36 77  2  0  0  0  0
 37 62  1  0  0  0  0
 37 73  1  0  0  0  0
 37 78  2  0  0  0  0
 38 68  1  0  0  0  0
 38 71  1  0  0  0  0
 38 79  2  0  0  0  0
 39 42  1  0  0  0  0
 40 49  1  0  0  0  0
 41 67  1  0  0  0  0
 42 44  1  0  0  0  0
 43 45  1  0  0  0  0
 43 46  1  0  0  0  0
 44 48  1  0  0  0  0
 45 50  1  0  0  0  0
 46 68  1  0  0  0  0
 47 50  1  0  0  0  0
 47 68  1  0  0  0  0
 48 72  1  0  0  0  0
 49 67  1  0  0  0  0
 50 66  1  0  0  0  0
 51 62  1  0  0  0  0
 52 63  1  0  0  0  0
 53 63  1  0  0  0  0
 54 63  1  0  0  0  0
 55 64  1  0  0  0  0
 56 64  1  0  0  0  0
 57 74  1  0  0  0  0
 58 87  1  0  0  0  0
 59 64  1  0  0  0  0
 59 83  1  0  0  0  0
 60 64  1  0  0  0  0
 60 87  1  0  0  0  0
 61 63  1  0  0  0  0
 61 73  1  0  0  0  0
 62 74  1  0  0  0  0
 65 66  1  0  0  0  0
 80 87  2  0  0  0  0
 81 87  2  0  0  0  0
M  CHG  1  74   1
M  ISO  4  38 100  59 101  71 100  83 101
M  END
> <Batch ID>
0173

> <Smiles>
CNC(C)C(=O)NC(C(=O)N1Cc2cc([101O:1][101CH2:1]C(C)(C)CS(=O)(=O)Cc3cccc([100NH:0][100C:0](=O)N4CCCC(n5nc(-c6ccc(Oc7ccc(F)cc7F)cc6)c(C(N)=O)c5N)C4)c3F)ccc2CC1C(=O)NC1CCCc2ccccc21)C(C)(C)C

> <Shape>
0.168

> <Color>
0.188

> <Negative vol penalty>
0.000

$$$$

  -OEChem-04052304293D

 88 96  0     1  0  0  0  0  0999 V2000
  -27.5665  -25.8471   17.9905 C   0  0  0  0  0  0  0  0  0  0  0  0
  -27.2367  -25.3350   19.2413 C   0  0  0  0  0  0  0  0  0  0  0  0
  -23.0893   -9.8575   19.8696 C   0  0  0  0  0  0  0  0  0  0  0  0
  -23.8551   -9.7712   22.1594 C   0  0  0  0  0  0  0  0  0  0  0  0
  -27.2661  -27.1727   17.6799 C   0  0  0  0  0  0  0  0  0  0  0  0
  -26.6071  -26.1487   20.1826 C   0  0  0  0  0  0  0  0  0  0  0  0
  -22.7496  -23.8197   22.4936 C   0  0  0  0  0  0  0  0  0  0  0  0
  -22.3754   -8.6751   20.0638 C   0  0  0  0  0  0  0  0  0  0  0  0
  -23.1411   -8.5888   22.3536 C   0  0  0  0  0  0  0  0  0  0  0  0
  -23.0667  -22.9107   23.5020 C   0  0  0  0  0  0  0  0  0  0  0  0
  -23.5138   -5.3065   21.6335 C   0  0  0  0  0  0  0  0  0  0  0  0
  -24.1568   -4.2631   22.2994 C   0  0  0  0  0  0  0  0  0  0  0  0
  -22.5656  -24.5873   25.1625 C   0  0  0  0  0  0  0  0  0  0  0  0
  -29.3367  -17.9079   22.6790 C   0  0  0  0  0  0  0  0  0  0  0  0
  -30.9673  -17.8464   20.8974 C   0  0  0  0  0  0  0  0  0  0  0  0
  -22.4563   -4.3099   24.0149 C   0  0  0  0  0  0  0  0  0  0  0  0
  -23.8293  -10.4056   20.9174 C   0  0  0  0  0  0  0  0  0  0  0  0
  -24.1072  -12.9414   20.9209 C   0  0  0  0  0  0  0  0  0  0  0  0
  -26.6238  -28.0002   18.6144 C   0  0  0  0  0  0  0  0  0  0  0  0
  -22.3479  -25.1248   22.8123 C   0  0  0  0  0  0  0  0  0  0  0  0
  -26.2990  -27.4870   19.8846 C   0  0  0  0  0  0  0  0  0  0  0  0
  -22.2415  -25.5101   24.1563 C   0  0  0  0  0  0  0  0  0  0  0  0
  -30.0849  -17.1840   21.7508 C   0  0  0  0  0  0  0  0  0  0  0  0
  -29.4706  -19.2944   22.7538 C   0  0  0  0  0  0  0  0  0  0  0  0
  -22.4012   -8.0408   21.3058 C   0  0  0  0  0  0  0  0  0  0  0  0
  -22.9775  -23.2953   24.8366 C   0  0  0  0  0  0  0  0  0  0  0  0
  -22.3420   -5.8517   22.1584 C   0  0  0  0  0  0  0  0  0  0  0  0
  -23.6281   -3.7648   23.4900 C   0  0  0  0  0  0  0  0  0  0  0  0
  -31.1013  -19.2329   20.9722 C   0  0  0  0  0  0  0  0  0  0  0  0
  -21.8133   -5.3534   23.3491 C   0  0  0  0  0  0  0  0  0  0  0  0
  -30.3529  -19.9568   21.9004 C   0  0  0  0  0  0  0  0  0  0  0  0
  -24.5675  -11.6267   20.7172 C   0  0  0  0  0  0  0  0  0  0  0  0
  -25.1792  -13.7351   20.5932 C   0  0  0  0  0  0  0  0  0  0  0  0
  -22.8254  -13.4038   21.3665 C   0  0  0  0  0  0  0  0  0  0  0  0
  -23.5001  -28.0305   22.2349 C   0  0  0  0  0  0  0  0  0  0  0  0
  -27.1567  -20.4809   25.4611 C   0  0  0  0  0  0  0  0  0  0  0  0
  -20.7267  -28.9813   23.6229 C   0  0  0  0  0  0  0  0  0  0  0  0
  -18.1429  -28.2529   25.7301 C   0  0  0  0  0  0  0  0  0  0  0  0
  -30.6179  -14.9084   20.8107 C   0  0  0  0  0  0  0  0  0  0  0  0
  -26.3619  -29.4401   18.2499 C   0  0  0  0  0  0  0  0  0  0  0  0
  -21.9836  -26.0852   21.7134 C   0  0  0  0  0  0  0  0  0  0  0  0
  -21.7956  -26.8933   24.5518 C   0  0  0  0  0  0  0  0  0  0  0  0
  -25.3565  -30.1280   19.1696 C   0  0  0  0  0  0  0  0  0  0  0  0
  -29.5580  -12.5862   18.3285 C   0  0  0  0  0  0  0  0  0  0  0  0
  -25.6812  -29.8337   20.6307 C   0  0  0  0  0  0  0  0  0  0  0  0
  -28.1273  -12.2377   18.7455 C   0  0  0  0  0  0  0  0  0  0  0  0
  -30.4703  -12.7788   19.5386 C   0  0  0  0  0  0  0  0  0  0  0  0
  -28.5496  -13.3864   20.9566 C   0  0  0  0  0  0  0  0  0  0  0  0
  -25.5932  -28.3311   20.9236 C   0  0  1  0  0  0  0  0  0  0  0  0
  -22.0808  -27.5465   22.1405 C   0  0  1  0  0  0  0  0  0  0  0  0
  -27.5782  -13.2466   19.7732 C   0  0  2  0  0  0  0  0  0  0  0  0
  -16.0476  -29.2425   26.6932 C   0  0  0  0  0  0  0  0  0  0  0  0
  -22.4050  -30.6832   25.5194 C   0  0  0  0  0  0  0  0  0  0  0  0
  -20.4011  -30.8762   27.0078 C   0  0  0  0  0  0  0  0  0  0  0  0
  -20.3229  -31.7919   24.6887 C   0  0  0  0  0  0  0  0  0  0  0  0
  -24.0490  -20.3635   27.8139 C   0  0  0  0  0  0  0  0  0  0  0  0
  -16.4531  -26.1468   24.5187 C   0  0  0  0  0  0  0  0  0  0  0  0
  -26.1368  -19.9820   26.4775 C   0  0  0  0  0  0  0  0  0  0  0  0
  -27.7917  -19.4114   24.5959 C   0  0  0  0  0  0  0  0  0  0  0  0
  -24.2658  -21.4168   25.5204 C   0  0  0  0  0  0  0  0  0  1  0  0
  -20.2877  -29.2876   25.0344 C   0  0  1  0  0  0  0  0  0  0  0  0
  -16.6407  -28.4039   25.5717 C   0  0  2  0  0  0  0  0  0  0  0  0
  -20.8645  -30.6342   25.5554 C   0  0  0  0  0  0  0  0  0  0  0  0
  -25.0050  -20.9716   26.7867 C   0  0  1  0  0  0  0  0  0  0  0  0
  -25.8332  -11.5834   20.2928 N   0  0  0  0  0  0  0  0  0  0  0  0
  -26.1774  -12.8808   20.2271 N   0  0  0  0  0  0  0  0  0  0  0  0
  -21.4565  -27.7980   23.4410 N   0  0  0  0  0  0  0  0  0  0  0  0
  -29.8881  -13.7510   20.4663 N   0  0  0  0  0  0  0  0  0  0  0  0
  -25.3559  -15.0734   20.5853 N   0  0  0  0  0  0  0  0  0  0  0  0
  -21.8375  -12.4540   21.6603 N   0  0  0  0  0  0  0  0  0  0  0  0
  -29.9497  -15.7756   21.6745 N   0  0  0  0  0  0  0  0  0  0  0  0
  -28.7250  -20.0124   23.6777 N   0  0  0  0  0  0  0  0  0  0  0  0
  -24.2113  -27.9219   21.0551 N   0  0  0  0  0  0  0  0  0  0  0  0
  -18.8302  -29.2230   25.0316 N   0  0  0  0  0  0  0  0  0  0  0  0
  -15.9815  -27.0674   25.5851 N   0  3  0  0  0  0  0  0  0  0  0  0
  -22.5584  -14.6238   21.4845 O   0  0  0  0  0  0  0  0  0  0  0  0
  -23.9187  -28.4713   23.2990 O   0  0  0  0  0  0  0  0  0  0  0  0
  -27.4787  -21.6659   25.3845 O   0  0  0  0  0  0  0  0  0  0  0  0
  -20.4268  -29.7595   22.7140 O   0  0  0  0  0  0  0  0  0  0  0  0
  -18.6553  -27.3656   26.4087 O   0  0  0  0  0  0  0  0  0  0  0  0
  -31.7411  -15.1282   20.3502 O   0  0  0  0  0  0  0  0  0  0  0  0
  -21.7044   -6.8871   21.4957 O   0  0  0  0  0  0  0  0  0  0  0  0
  -23.2870  -22.4102   25.8229 O   0  0  0  0  0  0  0  0  0  1  0  0
  -24.2449   -2.7617   24.1285 F   0  0  0  0  0  0  0  0  0  0  0  0
  -31.9492  -19.8689   20.1533 F   0  0  0  0  0  0  0  0  0  0  0  0
  -20.6872   -5.8723   23.8576 F   0  0  0  0  0  0  0  0  0  0  0  0
  -30.4892  -21.2893   21.9631 F   0  0  0  0  0  0  0  0  0  0  0  0
  -25.5547  -22.0802   27.3670 F   0  0  0  0  0  0  0  0  0  0  0  0
  1  2  1  0  0  0  0
  1  5  2  0  0  0  0
  2  6  2  0  0  0  0
  3  8  2  0  0  0  0
  3 17  1  0  0  0  0
  4  9  1  0  0  0  0
  4 17  2  0  0  0  0
  5 19  1  0  0  0  0
  6 21  1  0  0  0  0
  7 10  2  0  0  0  0
  7 20  1  0  0  0  0
  8 25  1  0  0  0  0
  9 25  2  0  0  0  0
 10 26  1  0  0  0  0
 11 12  2  0  0  0  0
 11 27  1  0  0  0  0
 12 28  1  0  0  0  0
 13 22  1  0  0  0  0
 13 26  2  0  0  0  0
 14 23  2  0  0  0  0
 14 24  1  0  0  0  0
 15 23  1  0  0  0  0
 15 29  2  0  0  0  0
 16 28  2  0  0  0  0
 16 30  1  0  0  0  0
 17 32  1  0  0  0  0
 18 32  1  0  0  0  0
 18 33  2  0  0  0  0
 18 34  1  0  0  0  0
 19 21  2  0  0  0  0
 19 40  1  0  0  0  0
 20 22  2  0  0  0  0
 20 41  1  0  0  0  0
 21 49  1  0  0  0  0
 22 42  1  0  0  0  0
 23 71  1  0  0  0  0
 24 31  2  0  0  0  0
 24 72  1  0  0  0  0
 25 82  1  0  0  0  0
 26 83  1  0  0  0  0
 27 30  2  0  0  0  0
 27 82  1  0  0  0  0
 28 84  1  0  0  0  0
 29 31  1  0  0  0  0
 29 85  1  0  0  0  0
 30 86  1  0  0  0  0
 31 87  1  0  0  0  0
 32 65  2  0  0  0  0
 33 66  1  0  0  0  0
 33 69  1  0  0  0  0
 34 70  1  0  0  0  0
 34 76  2  0  0  0  0
 35 50  1  0  0  0  0
 35 73  1  0  0  0  0
 35 77  2  0  0  0  0
 36 58  1  0  0  0  0
 36 59  1  0  0  0  0
 36 78  2  0  0  0  0
 37 61  1  0  0  0  0
 37 67  1  0  0  0  0
 37 79  2  0  0  0  0
 38 62  1  0  0  0  0
 38 74  1  0  0  0  0
 38 80  2  0  0  0  0
 39 68  1  0  0  0  0
 39 71  1  0  0  0  0
 39 81  2  0  0  0  0
 40 43  1  0  0  0  0
 41 50  1  0  0  0  0
 42 67  1  0  0  0  0
 43 45  1  0  0  0  0
 44 46  1  0  0  0  0
 44 47  1  0  0  0  0
 45 49  1  0  0  0  0
 46 51  1  0  0  0  0
 47 68  1  0  0  0  0
 48 51  1  0  0  0  0
 48 68  1  0  0  0  0
 49 73  1  0  0  0  0
 50 67  1  0  0  0  0
 51 66  1  0  0  0  0
 52 62  1  0  0  0  0
 53 63  1  0  0  0  0
 54 63  1  0  0  0  0
 55 63  1  0  0  0  0
 56 64  1  0  0  0  0
 57 75  1  0  0  0  0
 58 64  1  0  0  0  0
 59 72  1  0  0  0  0
 60 64  1  0  0  0  0
 60 83  1  0  0  0  0
 61 63  1  0  0  0  0
 61 74  1  0  0  0  0
 62 75  1  0  0  0  0
 64 88  1  0  0  0  0
 65 66  1  0  0  0  0
M  CHG  1  75   1
M  ISO  4  39 100  60 101  71 100  83 101
M  END
> <Batch ID>
0173

> <Smiles>
CNC(C)C(=O)NC(C(=O)N1Cc2cc([101O:1][101CH2:1]C(C)(F)CC(=O)CNc3cc([100NH:0][100C:0](=O)N4CCCC(n5nc(-c6ccc(Oc7ccc(F)cc7F)cc6)c(C(N)=O)c5N)C4)cc(F)c3F)ccc2CC1C(=O)NC1CCCc2ccccc21)C(C)(C)C

> <Shape>
0.266

> <Color>
0.217

> <Negative vol penalty>
0.000

$$$$

  -OEChem-04052304293D

 85 93  0     1  0  0  0  0  0999 V2000
  -19.5587  -31.2114   26.5204 C   0  0  0  0  0  0  0  0  0  0  0  0
  -20.7121  -30.4348   26.4767 C   0  0  0  0  0  0  0  0  0  0  0  0
  -23.0743   -9.8688   19.9420 C   0  0  0  0  0  0  0  0  0  0  0  0
  -23.8309   -9.8789   22.2365 C   0  0  0  0  0  0  0  0  0  0  0  0
  -18.3692  -30.6644   26.9999 C   0  0  0  0  0  0  0  0  0  0  0  0
  -20.6770  -29.1111   26.9135 C   0  0  0  0  0  0  0  0  0  0  0  0
  -23.8473  -24.3954   24.6293 C   0  0  0  0  0  0  0  0  0  0  0  0
  -22.3293   -8.7165   20.1928 C   0  0  0  0  0  0  0  0  0  0  0  0
  -23.0859   -8.7266   22.4872 C   0  0  0  0  0  0  0  0  0  0  0  0
  -25.0278  -23.7743   25.0350 C   0  0  0  0  0  0  0  0  0  0  0  0
  -19.3785   -7.9241   21.6412 C   0  0  0  0  0  0  0  0  0  0  0  0
  -18.0723   -7.8779   21.1541 C   0  0  0  0  0  0  0  0  0  0  0  0
  -23.7396  -22.1053   26.2072 C   0  0  0  0  0  0  0  0  0  0  0  0
  -29.8781  -17.4595   23.1375 C   0  0  0  0  0  0  0  0  0  0  0  0
  -32.0621  -16.6081   22.5525 C   0  0  0  0  0  0  0  0  0  0  0  0
  -18.6326   -5.9324   19.8358 C   0  0  0  0  0  0  0  0  0  0  0  0
  -23.8251  -10.4500   20.9639 C   0  0  0  0  0  0  0  0  0  0  0  0
  -24.1688  -12.9747   20.8404 C   0  0  0  0  0  0  0  0  0  0  0  0
  -18.3172  -29.3303   27.4337 C   0  0  0  0  0  0  0  0  0  0  0  0
  -22.6022  -23.8815   25.0192 C   0  0  0  0  0  0  0  0  0  0  0  0
  -19.4861  -28.5461   27.4005 C   0  0  0  0  0  0  0  0  0  0  0  0
  -22.5448  -22.7202   25.8030 C   0  0  0  0  0  0  0  0  0  0  0  0
  -30.6765  -16.5913   22.3928 C   0  0  0  0  0  0  0  0  0  0  0  0
  -30.4653  -18.3446   24.0417 C   0  0  0  0  0  0  0  0  0  0  0  0
  -22.3351   -8.1454   21.4654 C   0  0  0  0  0  0  0  0  0  0  0  0
  -24.9741  -22.6307   25.8265 C   0  0  0  0  0  0  0  0  0  0  0  0
  -20.3118   -6.9745   21.2254 C   0  0  0  0  0  0  0  0  0  0  0  0
  -17.6993   -6.8821   20.2515 C   0  0  0  0  0  0  0  0  0  0  0  0
  -32.6493  -17.4931   23.4568 C   0  0  0  0  0  0  0  0  0  0  0  0
  -19.9389   -5.9786   20.3228 C   0  0  0  0  0  0  0  0  0  0  0  0
  -31.8509  -18.3613   24.2014 C   0  0  0  0  0  0  0  0  0  0  0  0
  -24.5953  -11.6399   20.7054 C   0  0  0  0  0  0  0  0  0  0  0  0
  -25.2619  -13.7229   20.4774 C   0  0  0  0  0  0  0  0  0  0  0  0
  -26.6497  -21.0501   25.4208 C   0  0  0  0  0  0  0  0  0  1  0  0
  -22.8980  -13.4920   21.2567 C   0  0  0  0  0  0  0  0  0  0  0  0
  -27.7752  -20.3877   25.7139 C   0  0  0  0  0  0  0  0  0  0  0  0
  -28.2694  -19.3374   24.7648 C   0  0  0  0  0  0  0  0  0  0  0  0
  -20.1641  -24.9742   26.7412 C   0  0  0  0  0  0  0  0  0  0  0  0
  -18.7534  -22.2170   25.7768 C   0  0  0  0  0  0  0  0  0  0  0  0
  -19.1176  -19.0122   24.6616 C   0  0  0  0  0  0  0  0  0  0  0  0
  -30.7285  -14.7653   20.6582 C   0  0  0  0  0  0  0  0  0  0  0  0
  -17.0198  -28.7973   27.9880 C   0  0  0  0  0  0  0  0  0  0  0  0
  -21.3376  -24.5478   24.5510 C   0  0  0  0  0  0  0  0  0  0  0  0
  -21.2330  -22.1169   26.2316 C   0  0  0  0  0  0  0  0  0  0  0  0
  -16.9775  -27.2742   28.0816 C   0  0  0  0  0  0  0  0  0  0  0  0
  -29.6159  -12.3484   18.2922 C   0  0  0  0  0  0  0  0  0  0  0  0
  -18.2646  -26.7416   28.7033 C   0  0  0  0  0  0  0  0  0  0  0  0
  -28.1755  -12.0584   18.7202 C   0  0  0  0  0  0  0  0  0  0  0  0
  -30.5295  -12.5785   19.4948 C   0  0  0  0  0  0  0  0  0  0  0  0
  -28.6210  -13.3064   20.8722 C   0  0  0  0  0  0  0  0  0  0  0  0
  -19.4821  -27.0987   27.8422 C   0  0  1  0  0  0  0  0  0  0  0  0
  -20.1342  -24.2333   25.4343 C   0  0  1  0  0  0  0  0  0  0  0  0
  -27.6497  -13.1319   19.6933 C   0  0  2  0  0  0  0  0  0  0  0  0
  -17.7824  -16.9942   23.9965 C   0  0  0  0  0  0  0  0  0  0  0  0
  -18.1912  -21.6231   28.7164 C   0  0  0  0  0  0  0  0  0  0  0  0
  -17.7434  -19.2439   28.0780 C   0  0  0  0  0  0  0  0  0  0  0  0
  -16.3115  -21.0698   27.1623 C   0  0  0  0  0  0  0  0  0  0  0  0
  -20.2144  -19.0487   21.9131 C   0  0  0  0  0  0  0  0  0  0  0  0
  -18.6794  -20.8087   26.3154 C   0  0  1  0  0  0  0  0  0  0  0  0
  -18.4640  -18.2649   23.5132 C   0  0  2  0  0  0  0  0  0  0  0  0
  -17.7563  -20.6986   27.5617 C   0  0  0  0  0  0  0  0  0  0  0  0
  -25.8607  -11.5426   20.2890 N   0  0  0  0  0  0  0  0  0  0  0  0
  -26.2386  -12.8258   20.1592 N   0  0  0  0  0  0  0  0  0  0  0  0
  -20.0244  -22.8085   25.7537 N   0  0  0  0  0  0  0  0  0  0  0  0
  -29.9699  -13.6111   20.3697 N   0  0  0  0  0  0  0  0  0  0  0  0
  -25.4733  -15.0541   20.4026 N   0  0  0  0  0  0  0  0  0  0  0  0
  -21.8850  -12.5840   21.5939 N   0  0  0  0  0  0  0  0  0  0  0  0
  -29.6526  -19.2243   24.7966 N   0  0  0  0  0  0  0  0  0  0  0  0
  -30.0806  -15.6920   21.4742 N   0  0  0  0  0  0  0  0  0  0  0  0
  -19.5660  -26.2190   26.6961 N   0  0  0  0  0  0  0  0  0  0  0  0
  -18.2756  -19.9643   25.1963 N   0  0  0  0  0  0  0  0  0  0  0  0
  -19.4826  -17.8923   22.4912 N   0  3  0  0  0  0  0  0  0  0  0  0
  -22.6625  -14.7229   21.3117 O   0  0  0  0  0  0  0  0  0  0  0  0
  -27.4867  -18.6939   24.0740 O   0  0  0  0  0  0  0  0  0  0  0  0
  -20.6896  -24.4542   27.7186 O   0  0  0  0  0  0  0  0  0  0  0  0
  -17.7226  -22.7692   25.3841 O   0  0  0  0  0  0  0  0  0  0  0  0
  -20.2593  -18.7726   25.0483 O   0  0  0  0  0  0  0  0  0  0  0  0
  -31.8584  -14.9325   20.1919 O   0  0  0  0  0  0  0  0  0  0  0  0
  -28.5044  -20.6339   26.8595 O   0  0  0  0  0  0  0  0  0  0  0  0
  -21.6081   -7.0212   21.7105 O   0  0  0  0  0  0  0  0  0  0  0  0
  -26.1248  -22.0229   26.2244 O   0  0  0  0  0  0  0  0  0  1  0  0
  -16.4445   -6.8370   19.7851 F   0  0  0  0  0  0  0  0  0  0  0  0
  -33.9797  -17.5095   23.6097 F   0  0  0  0  0  0  0  0  0  0  0  0
  -20.8308   -5.0629   19.9206 F   0  0  0  0  0  0  0  0  0  0  0  0
  -32.4261  -19.2078   25.0671 F   0  0  0  0  0  0  0  0  0  0  0  0
  1  2  1  0  0  0  0
  1  5  2  0  0  0  0
  2  6  2  0  0  0  0
  3  8  2  0  0  0  0
  3 17  1  0  0  0  0
  4  9  1  0  0  0  0
  4 17  2  0  0  0  0
  5 19  1  0  0  0  0
  6 21  1  0  0  0  0
  7 10  2  0  0  0  0
  7 20  1  0  0  0  0
  8 25  1  0  0  0  0
  9 25  2  0  0  0  0
 10 26  1  0  0  0  0
 11 12  2  0  0  0  0
 11 27  1  0  0  0  0
 12 28  1  0  0  0  0
 13 22  1  0  0  0  0
 13 26  2  0  0  0  0
 14 23  2  0  0  0  0
 14 24  1  0  0  0  0
 15 23  1  0  0  0  0
 15 29  2  0  0  0  0
 16 28  2  0  0  0  0
 16 30  1  0  0  0  0
 17 32  1  0  0  0  0
 18 32  1  0  0  0  0
 18 33  2  0  0  0  0
 18 35  1  0  0  0  0
 19 21  2  0  0  0  0
 19 42  1  0  0  0  0
 20 22  2  0  0  0  0
 20 43  1  0  0  0  0
 21 51  1  0  0  0  0
 22 44  1  0  0  0  0
 23 69  1  0  0  0  0
 24 31  2  0  0  0  0
 24 68  1  0  0  0  0
 25 80  1  0  0  0  0
 26 81  1  0  0  0  0
 27 30  2  0  0  0  0
 27 80  1  0  0  0  0
 28 82  1  0  0  0  0
 29 31  1  0  0  0  0
 29 83  1  0  0  0  0
 30 84  1  0  0  0  0
 31 85  1  0  0  0  0
 32 62  2  0  0  0  0
 33 63  1  0  0  0  0
 33 66  1  0  0  0  0
 34 36  2  0  0  0  0
 34 81  1  0  0  0  0
 35 67  1  0  0  0  0
 35 73  2  0  0  0  0
 36 37  1  0  0  0  0
 36 79  1  0  0  0  0
 37 68  1  0  0  0  0
 37 74  2  0  0  0  0
 38 52  1  0  0  0  0
 38 70  1  0  0  0  0
 38 75  2  0  0  0  0
 39 59  1  0  0  0  0
 39 64  1  0  0  0  0
 39 76  2  0  0  0  0
 40 60  1  0  0  0  0
 40 71  1  0  0  0  0
 40 77  2  0  0  0  0
 41 65  1  0  0  0  0
 41 69  1  0  0  0  0
 41 78  2  0  0  0  0
 42 45  1  0  0  0  0
 43 52  1  0  0  0  0
 44 64  1  0  0  0  0
 45 47  1  0  0  0  0
 46 48  1  0  0  0  0
 46 49  1  0  0  0  0
 47 51  1  0  0  0  0
 48 53  1  0  0  0  0
 49 65  1  0  0  0  0
 50 53  1  0  0  0  0
 50 65  1  0  0  0  0
 51 70  1  0  0  0  0
 52 64  1  0  0  0  0
 53 63  1  0  0  0  0
 54 60  1  0  0  0  0
 55 61  1  0  0  0  0
 56 61  1  0  0  0  0
 57 61  1  0  0  0  0
 58 72  1  0  0  0  0
 59 61  1  0  0  0  0
 59 71  1  0  0  0  0
 60 72  1  0  0  0  0
 62 63  1  0  0  0  0
M  CHG  1  72   1
M  ISO  4  34 101  41 100  69 100  81 101
M  END
> <Batch ID>
0173

> <Smiles>
CNC(C)C(=O)NC(C(=O)N1Cc2cc([101O:1][101CH2:1]C(=O)C(=O)Nc3cc([100NH:0][100C:0](=O)N4CCCC(n5nc(-c6ccc(Oc7ccc(F)cc7F)cc6)c(C(N)=O)c5N)C4)cc(F)c3F)ccc2CC1C(=O)NC1CCCc2ccccc21)C(C)(C)C

> <Shape>
0.147

> <Color>
0.187

> <Negative vol penalty>
0.000

$$$$

  -OEChem-04052304293D

 86 94  0     1  0  0  0  0  0999 V2000
  -28.0933  -31.3532   27.6640 C   0  0  0  0  0  0  0  0  0  0  0  0
  -28.2469  -30.5528   26.5365 C   0  0  0  0  0  0  0  0  0  0  0  0
  -24.5652   -8.6771   21.2021 C   0  0  0  0  0  0  0  0  0  0  0  0
  -23.1065  -10.3154   20.1895 C   0  0  0  0  0  0  0  0  0  0  0  0
  -26.8200  -31.5933   28.1787 C   0  0  0  0  0  0  0  0  0  0  0  0
  -27.1274  -29.9911   25.9238 C   0  0  0  0  0  0  0  0  0  0  0  0
  -27.2490  -30.4280   20.8800 C   0  0  0  0  0  0  0  0  0  0  0  0
  -29.1779  -19.3473   15.5276 C   0  0  0  0  0  0  0  0  0  0  0  0
  -23.4536   -7.9766   21.6702 C   0  0  0  0  0  0  0  0  0  0  0  0
  -21.9948   -9.6149   20.6576 C   0  0  0  0  0  0  0  0  0  0  0  0
  -28.0670  -29.5395   20.1835 C   0  0  0  0  0  0  0  0  0  0  0  0
  -21.2375   -8.2315   24.2095 C   0  0  0  0  0  0  0  0  0  0  0  0
  -28.9355  -18.0298   15.1392 C   0  0  0  0  0  0  0  0  0  0  0  0
  -21.2636   -7.7836   25.5303 C   0  0  0  0  0  0  0  0  0  0  0  0
  -26.1388  -28.1916   19.6503 C   0  0  0  0  0  0  0  0  0  0  0  0
  -29.2853  -18.6467   17.8373 C   0  0  0  0  0  0  0  0  0  0  0  0
  -21.0316   -5.5048   24.7621 C   0  0  0  0  0  0  0  0  0  0  0  0
  -24.3917   -9.8466   20.4618 C   0  0  0  0  0  0  0  0  0  0  0  0
  -26.1982  -10.3962   18.7466 C   0  0  0  0  0  0  0  0  0  0  0  0
  -25.6834  -31.0421   27.5663 C   0  0  0  0  0  0  0  0  0  0  0  0
  -25.8689  -30.1988   20.9763 C   0  0  0  0  0  0  0  0  0  0  0  0
  -25.8378  -30.2229   26.4316 C   0  0  0  0  0  0  0  0  0  0  0  0
  -25.3050  -29.0801   20.3465 C   0  0  0  0  0  0  0  0  0  0  0  0
  -29.3529  -19.6558   16.8767 C   0  0  0  0  0  0  0  0  0  0  0  0
  -29.0429  -17.3291   17.4489 C   0  0  0  0  0  0  0  0  0  0  0  0
  -22.1684   -8.4455   21.3979 C   0  0  0  0  0  0  0  0  0  0  0  0
  -27.5124  -28.4195   19.5710 C   0  0  0  0  0  0  0  0  0  0  0  0
  -21.1084   -7.3159   23.1650 C   0  0  0  0  0  0  0  0  0  0  0  0
  -21.1607   -6.4203   25.8066 C   0  0  0  0  0  0  0  0  0  0  0  0
  -28.8680  -17.0207   16.0998 C   0  0  0  0  0  0  0  0  0  0  0  0
  -21.0054   -5.9526   23.4414 C   0  0  0  0  0  0  0  0  0  0  0  0
  -25.5397  -10.5709   19.9785 C   0  0  0  0  0  0  0  0  0  0  0  0
  -27.2167  -11.3175   18.7680 C   0  0  0  0  0  0  0  0  0  0  0  0
  -25.9147   -9.4829   17.6783 C   0  0  0  0  0  0  0  0  0  0  0  0
  -30.0269  -22.9382   18.5942 C   0  0  0  0  0  0  0  0  0  0  0  0
  -29.7915  -21.4551   18.5542 C   0  0  0  0  0  0  0  0  0  0  0  0
  -23.8437  -29.6748   23.3695 C   0  0  0  0  0  0  0  0  0  0  0  0
  -21.6212  -29.8623   21.0142 C   0  0  0  0  0  0  0  0  0  0  0  0
  -20.8874  -29.5750   17.6937 C   0  0  0  0  0  0  0  0  0  0  0  0
  -29.1266  -16.4437   19.8059 C   0  0  0  0  0  0  0  0  0  0  0  0
  -24.3316  -31.2913   28.1869 C   0  0  0  0  0  0  0  0  0  0  0  0
  -24.9964  -31.1810   21.7087 C   0  0  0  0  0  0  0  0  0  0  0  0
  -23.8263  -28.7996   20.4030 C   0  0  0  0  0  0  0  0  0  0  0  0
  -23.1653  -30.9647   27.2577 C   0  0  0  0  0  0  0  0  0  0  0  0
  -28.9926  -14.1770   22.5484 C   0  0  0  0  0  0  0  0  0  0  0  0
  -23.3789  -29.6106   26.5885 C   0  0  0  0  0  0  0  0  0  0  0  0
  -28.1365  -13.0224   22.0229 C   0  0  0  0  0  0  0  0  0  0  0  0
  -28.5026  -15.5280   22.0301 C   0  0  0  0  0  0  0  0  0  0  0  0
  -27.5027  -14.4636   20.0460 C   0  0  0  0  0  0  0  0  0  0  0  0
  -24.6455  -29.6161   25.7242 C   0  0  1  0  0  0  0  0  0  0  0  0
  -23.6775  -30.5746   22.1778 C   0  0  1  0  0  0  0  0  0  0  0  0
  -27.9972  -13.0769   20.4889 C   0  0  2  0  0  0  0  0  0  0  0  0
  -18.9771  -29.7513   16.0760 C   0  0  0  0  0  0  0  0  0  0  0  0
  -20.5777  -27.1537   21.9548 C   0  0  0  0  0  0  0  0  0  0  0  0
  -19.3503  -26.9502   19.7822 C   0  0  0  0  0  0  0  0  0  0  0  0
  -18.7987  -28.8060   21.3552 C   0  0  0  0  0  0  0  0  0  0  0  0
  -22.1985  -31.7717   16.2057 C   0  0  0  0  0  0  0  0  0  0  0  0
  -28.8020  -23.8148   18.7237 C   0  0  0  0  0  0  0  0  0  0  0  0
  -29.1372  -25.3029   18.7464 C   0  0  0  0  0  0  0  0  0  0  0  0
  -27.8984  -26.1840   18.8574 C   0  0  0  0  0  0  0  0  0  1  0  0
  -20.9760  -28.8749   20.0720 C   0  0  1  0  0  0  0  0  0  0  0  0
  -20.1266  -30.4864   16.7477 C   0  0  2  0  0  0  0  0  0  0  0  0
  -19.9539  -27.9502   20.7915 C   0  0  0  0  0  0  0  0  0  0  0  0
  -26.0933  -11.5278   20.7280 N   0  0  0  0  0  0  0  0  0  0  0  0
  -27.1106  -11.9627   19.9650 N   0  0  0  0  0  0  0  0  0  0  0  0
  -23.0159  -29.7860   21.1363 N   0  0  0  0  0  0  0  0  0  0  0  0
  -28.3991  -15.5064   20.5694 N   0  0  0  0  0  0  0  0  0  0  0  0
  -28.1838  -11.6305   17.8796 N   0  0  0  0  0  0  0  0  0  0  0  0
  -24.8315   -8.6049   17.8199 N   0  0  0  0  0  0  0  0  0  0  0  0
  -29.5985  -20.9919   17.2703 N   0  0  0  0  0  0  0  0  0  0  0  0
  -28.9751  -16.3057   18.4266 N   0  0  0  0  0  0  0  0  0  0  0  0
  -24.3994  -30.2970   24.4711 N   0  0  0  0  0  0  0  0  0  0  0  0
  -20.4069  -29.6616   18.9832 N   0  0  0  0  0  0  0  0  0  0  0  0
  -21.0351  -31.0069   15.6873 N   0  3  0  0  0  0  0  0  0  0  0  0
  -26.6115   -9.4353   16.6364 O   0  0  0  0  0  0  0  0  0  0  0  0
  -31.1850  -23.3233   18.5350 O   0  0  0  0  0  0  0  0  0  0  0  0
  -29.7752  -20.8764   19.6280 O   0  0  0  0  0  0  0  0  0  0  0  0
  -23.4924  -28.5031   23.2957 O   0  0  0  0  0  0  0  0  0  0  0  0
  -20.9145  -30.6761   21.6141 O   0  0  0  0  0  0  0  0  0  0  0  0
  -21.8128  -28.8552   17.3248 O   0  0  0  0  0  0  0  0  0  0  0  0
  -29.8534  -17.2881   20.3358 O   0  0  0  0  0  0  0  0  0  0  0  0
  -21.0834   -7.7621   21.8543 O   0  0  0  0  0  0  0  0  0  0  0  0
  -28.3086  -27.5503   18.8910 O   0  0  0  0  0  0  0  0  0  1  0  0
  -21.1873   -5.9903   27.0748 F   0  0  0  0  0  0  0  0  0  0  0  0
  -28.6342  -15.7581   15.7147 F   0  0  0  0  0  0  0  0  0  0  0  0
  -20.8824   -5.0682   22.4421 F   0  0  0  0  0  0  0  0  0  0  0  0
  1  2  1  0  0  0  0
  1  5  2  0  0  0  0
  2  6  2  0  0  0  0
  3  9  2  0  0  0  0
  3 18  1  0  0  0  0
  4 10  1  0  0  0  0
  4 18  2  0  0  0  0
  5 20  1  0  0  0  0
  6 22  1  0  0  0  0
  7 11  2  0  0  0  0
  7 21  1  0  0  0  0
  8 13  2  0  0  0  0
  8 24  1  0  0  0  0
  9 26  1  0  0  0  0
 10 26  2  0  0  0  0
 11 27  1  0  0  0  0
 12 14  2  0  0  0  0
 12 28  1  0  0  0  0
 13 30  1  0  0  0  0
 14 29  1  0  0  0  0
 15 23  1  0  0  0  0
 15 27  2  0  0  0  0
 16 24  2  0  0  0  0
 16 25  1  0  0  0  0
 17 29  2  0  0  0  0
 17 31  1  0  0  0  0
 18 32  1  0  0  0  0
 19 32  1  0  0  0  0
 19 33  2  0  0  0  0
 19 34  1  0  0  0  0
 20 22  2  0  0  0  0
 20 41  1  0  0  0  0
 21 23  2  0  0  0  0
 21 42  1  0  0  0  0
 22 50  1  0  0  0  0
 23 43  1  0  0  0  0
 24 70  1  0  0  0  0
 25 30  2  0  0  0  0
 25 71  1  0  0  0  0
 26 82  1  0  0  0  0
 27 83  1  0  0  0  0
 28 31  2  0  0  0  0
 28 82  1  0  0  0  0
 29 84  1  0  0  0  0
 30 85  1  0  0  0  0
 31 86  1  0  0  0  0
 32 64  2  0  0  0  0
 33 65  1  0  0  0  0
 33 68  1  0  0  0  0
 34 69  1  0  0  0  0
 34 75  2  0  0  0  0
 35 36  1  0  0  0  0
 35 58  1  0  0  0  0
 35 76  2  0  0  0  0
 36 70  1  0  0  0  0
 36 77  2  0  0  0  0
 37 51  1  0  0  0  0
 37 72  1  0  0  0  0
 37 78  2  0  0  0  0
 38 61  1  0  0  0  0
 38 66  1  0  0  0  0
 38 79  2  0  0  0  0
 39 62  1  0  0  0  0
 39 73  1  0  0  0  0
 39 80  2  0  0  0  0
 40 67  1  0  0  0  0
 40 71  1  0  0  0  0
 40 81  2  0  0  0  0
 41 44  1  0  0  0  0
 42 51  1  0  0  0  0
 43 66  1  0  0  0  0
 44 46  1  0  0  0  0
 45 47  1  0  0  0  0
 45 48  1  0  0  0  0
 46 50  1  0  0  0  0
 47 52  1  0  0  0  0
 48 67  1  0  0  0  0
 49 52  1  0  0  0  0
 49 67  1  0  0  0  0
 50 72  1  0  0  0  0
 51 66  1  0  0  0  0
 52 65  1  0  0  0  0
 53 62  1  0  0  0  0
 54 63  1  0  0  0  0
 55 63  1  0  0  0  0
 56 63  1  0  0  0  0
 57 74  1  0  0  0  0
 58 59  1  0  0  0  0
 59 60  1  0  0  0  0
 60 83  1  0  0  0  0
 61 63  1  0  0  0  0
 61 73  1  0  0  0  0
 62 74  1  0  0  0  0
 64 65  1  0  0  0  0
M  CHG  1  74   1
M  ISO  4  40 100  60 101  71 100  83 101
M  END
> <Batch ID>
0173

> <Smiles>
CNC(C)C(=O)NC(C(=O)N1Cc2cc([101O:1][101CH2:1]CCC(=O)C(=O)Nc3ccc(F)c([100NH:0][100C:0](=O)N4CCCC(n5nc(-c6ccc(Oc7ccc(F)cc7F)cc6)c(C(N)=O)c5N)C4)c3)ccc2CC1C(=O)NC1CCCc2ccccc21)C(C)(C)C

> <Shape>
0.286

> <Color>
0.107

> <Negative vol penalty>
0.000

$$$$

  -OEChem-04052304293D

 86 94  0     1  0  0  0  0  0999 V2000
  -33.1785  -30.0730   16.3809 C   0  0  0  0  0  0  0  0  0  0  0  0
  -32.2886  -29.2579   17.0731 C   0  0  0  0  0  0  0  0  0  0  0  0
  -23.9499   -9.8096   20.4290 C   0  0  0  0  0  0  0  0  0  0  0  0
  -24.5716  -10.3205   22.7071 C   0  0  0  0  0  0  0  0  0  0  0  0
  -33.5621  -31.3001   16.9203 C   0  0  0  0  0  0  0  0  0  0  0  0
  -31.7826  -29.6690   18.3057 C   0  0  0  0  0  0  0  0  0  0  0  0
  -26.7954  -28.8913   18.7155 C   0  0  0  0  0  0  0  0  0  0  0  0
  -23.5421   -8.5361   20.8259 C   0  0  0  0  0  0  0  0  0  0  0  0
  -24.1637   -9.0470   23.1040 C   0  0  0  0  0  0  0  0  0  0  0  0
  -26.3739  -27.5899   18.9846 C   0  0  0  0  0  0  0  0  0  0  0  0
  -20.8640   -7.1389   22.3453 C   0  0  0  0  0  0  0  0  0  0  0  0
  -19.6444   -6.6679   21.8591 C   0  0  0  0  0  0  0  0  0  0  0  0
  -26.1012  -28.1658   21.3112 C   0  0  0  0  0  0  0  0  0  0  0  0
  -29.8443  -20.8851   23.5795 C   0  0  0  0  0  0  0  0  0  0  0  0
  -30.6004  -19.0663   22.1804 C   0  0  0  0  0  0  0  0  0  0  0  0
  -20.7786   -4.8068   20.8166 C   0  0  0  0  0  0  0  0  0  0  0  0
  -24.4647  -10.7018   21.3696 C   0  0  0  0  0  0  0  0  0  0  0  0
  -24.1022  -13.1852   20.9124 C   0  0  0  0  0  0  0  0  0  0  0  0
  -33.0530  -31.7308   18.1557 C   0  0  0  0  0  0  0  0  0  0  0  0
  -26.8835  -29.8384   19.7459 C   0  0  0  0  0  0  0  0  0  0  0  0
  -32.1608  -30.9024   18.8628 C   0  0  0  0  0  0  0  0  0  0  0  0
  -26.5216  -29.4793   21.0521 C   0  0  0  0  0  0  0  0  0  0  0  0
  -28.5250  -20.4632   23.4150 C   0  0  0  0  0  0  0  0  0  0  0  0
  -29.2810  -18.6444   22.0160 C   0  0  0  0  0  0  0  0  0  0  0  0
  -23.6490   -8.1548   22.1634 C   0  0  0  0  0  0  0  0  0  0  0  0
  -26.0295  -27.2262   20.2832 C   0  0  0  0  0  0  0  0  0  0  0  0
  -22.0409   -6.4439   22.0670 C   0  0  0  0  0  0  0  0  0  0  0  0
  -19.6017   -5.5019   21.0948 C   0  0  0  0  0  0  0  0  0  0  0  0
  -30.8820  -20.1866   22.9621 C   0  0  0  0  0  0  0  0  0  0  0  0
  -21.9982   -5.2778   21.3027 C   0  0  0  0  0  0  0  0  0  0  0  0
  -28.2434  -19.3429   22.6333 C   0  0  0  0  0  0  0  0  0  0  0  0
  -24.8867  -12.0172   20.9601 C   0  0  0  0  0  0  0  0  0  0  0  0
  -24.9610  -14.1574   20.4609 C   0  0  0  0  0  0  0  0  0  0  0  0
  -26.3457  -25.2177   21.4393 C   0  0  0  0  0  0  0  0  0  1  0  0
  -22.7208  -13.3744   21.2465 C   0  0  0  0  0  0  0  0  0  0  0  0
  -26.0989  -23.9564   21.8262 C   0  0  0  0  0  0  0  0  0  0  0  0
  -27.0287  -23.3326   22.8214 C   0  0  0  0  0  0  0  0  0  0  0  0
  -29.2401  -31.5379   21.0350 C   0  0  0  0  0  0  0  0  0  0  0  0
  -26.8141  -32.9281   22.6796 C   0  0  0  0  0  0  0  0  0  0  0  0
  -23.6352  -32.6978   23.8995 C   0  0  0  0  0  0  0  0  0  0  0  0
  -29.9128  -16.7021   20.5413 C   0  0  0  0  0  0  0  0  0  0  0  0
  -33.5334  -33.0440   18.7207 C   0  0  0  0  0  0  0  0  0  0  0  0
  -27.3144  -31.2454   19.4343 C   0  0  0  0  0  0  0  0  0  0  0  0
  -26.5794  -30.4642   22.1901 C   0  0  0  0  0  0  0  0  0  0  0  0
  -32.6615  -33.5740   19.8561 C   0  0  0  0  0  0  0  0  0  0  0  0
  -29.6178  -13.7920   18.5111 C   0  0  0  0  0  0  0  0  0  0  0  0
  -32.3534  -32.4637   20.8556 C   0  0  0  0  0  0  0  0  0  0  0  0
  -28.2961  -13.1669   18.9634 C   0  0  0  0  0  0  0  0  0  0  0  0
  -30.3778  -14.4184   19.6789 C   0  0  0  0  0  0  0  0  0  0  0  0
  -28.2833  -14.7509   20.9326 C   0  0  0  0  0  0  0  0  0  0  0  0
  -31.5709  -31.3246   20.1909 C   0  0  1  0  0  0  0  0  0  0  0  0
  -27.8584  -31.9870   20.6515 C   0  0  1  0  0  0  0  0  0  0  0  0
  -27.4515  -14.1642   19.7804 C   0  0  2  0  0  0  0  0  0  0  0  0
  -21.9404  -33.9784   25.2356 C   0  0  0  0  0  0  0  0  0  0  0  0
  -28.3406  -32.2732   25.2391 C   0  0  0  0  0  0  0  0  0  0  0  0
  -26.2313  -32.6912   26.5213 C   0  0  0  0  0  0  0  0  0  0  0  0
  -27.2774  -34.5366   25.2087 C   0  0  0  0  0  0  0  0  0  0  0  0
  -21.7153  -32.7332   21.6474 C   0  0  0  0  0  0  0  0  0  0  0  0
  -27.4110  -21.2179   24.0810 C   0  0  0  0  0  0  0  0  0  0  0  0
  -26.1140  -32.6526   23.9884 C   0  0  1  0  0  0  0  0  0  0  0  0
  -22.4625  -33.6601   23.8431 C   0  0  2  0  0  0  0  0  0  0  0  0
  -26.9915  -33.0191   25.2185 C   0  0  0  0  0  0  0  0  0  0  0  0
  -26.1469  -12.2262   20.5699 N   0  0  0  0  0  0  0  0  0  0  0  0
  -26.1608  -13.5367   20.2726 N   0  0  0  0  0  0  0  0  0  0  0  0
  -27.0129  -31.8259   21.8361 N   0  0  0  0  0  0  0  0  0  0  0  0
  -29.5164  -15.3550   20.4039 N   0  0  0  0  0  0  0  0  0  0  0  0
  -24.7992  -15.4740   20.2105 N   0  0  0  0  0  0  0  0  0  0  0  0
  -21.9843  -12.2693   21.6945 N   0  0  0  0  0  0  0  0  0  0  0  0
  -28.9984  -17.5057   21.2214 N   0  0  0  0  0  0  0  0  0  0  0  0
  -26.6736  -22.0338   23.1426 N   0  0  0  0  0  0  0  0  0  0  0  0
  -30.1798  -31.6915   20.0337 N   0  0  0  0  0  0  0  0  0  0  0  0
  -24.8419  -33.3643   23.9285 N   0  0  0  0  0  0  0  0  0  0  0  0
  -21.3484  -33.0729   23.0463 N   0  3  0  0  0  0  0  0  0  0  0  0
  -22.1520  -14.4868   21.1349 O   0  0  0  0  0  0  0  0  0  0  0  0
  -27.9924  -23.9364   23.2845 O   0  0  0  0  0  0  0  0  0  0  0  0
  -29.4391  -31.0868   22.1569 O   0  0  0  0  0  0  0  0  0  0  0  0
  -27.1652  -34.0800   22.4123 O   0  0  0  0  0  0  0  0  0  0  0  0
  -23.4947  -31.4770   23.9198 O   0  0  0  0  0  0  0  0  0  0  0  0
  -30.9720  -17.1186   20.0652 O   0  0  0  0  0  0  0  0  0  0  0  0
  -25.0447  -23.1964   21.3690 O   0  0  0  0  0  0  0  0  0  0  0  0
  -23.2509   -6.9123   22.5510 O   0  0  0  0  0  0  0  0  0  0  0  0
  -25.6184  -25.9564   20.5487 O   0  0  0  0  0  0  0  0  0  1  0  0
  -18.4302   -5.0489   20.6294 F   0  0  0  0  0  0  0  0  0  0  0  0
  -32.1490  -20.5916   23.1203 F   0  0  0  0  0  0  0  0  0  0  0  0
  -23.1255   -4.6052   21.0332 F   0  0  0  0  0  0  0  0  0  0  0  0
  -26.9737  -18.9387   22.4762 F   0  0  0  0  0  0  0  0  0  0  0  0
  1  2  1  0  0  0  0
  1  5  2  0  0  0  0
  2  6  2  0  0  0  0
  3  8  2  0  0  0  0
  3 17  1  0  0  0  0
  4  9  1  0  0  0  0
  4 17  2  0  0  0  0
  5 19  1  0  0  0  0
  6 21  1  0  0  0  0
  7 10  2  0  0  0  0
  7 20  1  0  0  0  0
  8 25  1  0  0  0  0
  9 25  2  0  0  0  0
 10 26  1  0  0  0  0
 11 12  2  0  0  0  0
 11 27  1  0  0  0  0
 12 28  1  0  0  0  0
 13 22  1  0  0  0  0
 13 26  2  0  0  0  0
 14 23  1  0  0  0  0
 14 29  2  0  0  0  0
 15 24  2  0  0  0  0
 15 29  1  0  0  0  0
 16 28  2  0  0  0  0
 16 30  1  0  0  0  0
 17 32  1  0  0  0  0
 18 32  1  0  0  0  0
 18 33  2  0  0  0  0
 18 35  1  0  0  0  0
 19 21  2  0  0  0  0
 19 42  1  0  0  0  0
 20 22  2  0  0  0  0
 20 43  1  0  0  0  0
 21 51  1  0  0  0  0
 22 44  1  0  0  0  0
 23 31  2  0  0  0  0
 23 59  1  0  0  0  0
 24 31  1  0  0  0  0
 24 69  1  0  0  0  0
 25 81  1  0  0  0  0
 26 82  1  0  0  0  0
 27 30  2  0  0  0  0
 27 81  1  0  0  0  0
 28 83  1  0  0  0  0
 29 84  1  0  0  0  0
 30 85  1  0  0  0  0
 31 86  1  0  0  0  0
 32 63  2  0  0  0  0
 33 64  1  0  0  0  0
 33 67  1  0  0  0  0
 34 36  2  0  0  0  0
 34 82  1  0  0  0  0
 35 68  1  0  0  0  0
 35 74  2  0  0  0  0
 36 37  1  0  0  0  0
 36 80  1  0  0  0  0
 37 70  1  0  0  0  0
 37 75  2  0  0  0  0
 38 52  1  0  0  0  0
 38 71  1  0  0  0  0
 38 76  2  0  0  0  0
 39 60  1  0  0  0  0
 39 65  1  0  0  0  0
 39 77  2  0  0  0  0
 40 61  1  0  0  0  0
 40 72  1  0  0  0  0
 40 78  2  0  0  0  0
 41 66  1  0  0  0  0
 41 69  1  0  0  0  0
 41 79  2  0  0  0  0
 42 45  1  0  0  0  0
 43 52  1  0  0  0  0
 44 65  1  0  0  0  0
 45 47  1  0  0  0  0
 46 48  1  0  0  0  0
 46 49  1  0  0  0  0
 47 51  1  0  0  0  0
 48 53  1  0  0  0  0
 49 66  1  0  0  0  0
 50 53  1  0  0  0  0
 50 66  1  0  0  0  0
 51 71  1  0  0  0  0
 52 65  1  0  0  0  0
 53 64  1  0  0  0  0
 54 61  1  0  0  0  0
 55 62  1  0  0  0  0
 56 62  1  0  0  0  0
 57 62  1  0  0  0  0
 58 73  1  0  0  0  0
 59 70  1  0  0  0  0
 60 62  1  0  0  0  0
 60 72  1  0  0  0  0
 61 73  1  0  0  0  0
 63 64  1  0  0  0  0
M  CHG  1  73   1
M  ISO  4  34 101  41 100  69 100  82 101
M  END
> <Batch ID>
0173

> <Smiles>
CNC(C)C(=O)NC(C(=O)N1Cc2cc([101O:1][101CH2:1]C(=O)C(=O)NCc3cc(F)cc([100NH:0][100C:0](=O)N4CCCC(n5nc(-c6ccc(Oc7ccc(F)cc7F)cc6)c(C(N)=O)c5N)C4)c3F)ccc2CC1C(=O)NC1CCCc2ccccc21)C(C)(C)C

> <Shape>
0.239

> <Color>
0.148

> <Negative vol penalty>
0.000

$$$$

  -OEChem-04052304293D

 85 93  0     1  0  0  0  0  0999 V2000
  -17.0225  -25.0940   22.1254 C   0  0  0  0  0  0  0  0  0  0  0  0
  -18.3487  -24.7755   21.8515 C   0  0  0  0  0  0  0  0  0  0  0  0
  -31.4120  -17.7473   25.6085 C   0  0  0  0  0  0  0  0  0  0  0  0
  -22.8811  -10.2556   19.9381 C   0  0  0  0  0  0  0  0  0  0  0  0
  -23.9209   -9.7996   22.0707 C   0  0  0  0  0  0  0  0  0  0  0  0
  -16.6018  -26.4224   22.0786 C   0  0  0  0  0  0  0  0  0  0  0  0
  -19.2549  -25.7853   21.5296 C   0  0  0  0  0  0  0  0  0  0  0  0
  -23.6717  -25.2774   23.9541 C   0  0  0  0  0  0  0  0  0  0  0  0
  -31.7592  -16.9319   24.5314 C   0  0  0  0  0  0  0  0  0  0  0  0
  -30.5220  -18.8053   25.4240 C   0  0  0  0  0  0  0  0  0  0  0  0
  -22.0946   -9.1121   20.0771 C   0  0  0  0  0  0  0  0  0  0  0  0
  -23.1343   -8.6562   22.2098 C   0  0  0  0  0  0  0  0  0  0  0  0
  -24.5646  -24.3282   23.4586 C   0  0  0  0  0  0  0  0  0  0  0  0
  -19.9587   -7.9118   23.0940 C   0  0  0  0  0  0  0  0  0  0  0  0
  -19.3535   -7.6899   24.3310 C   0  0  0  0  0  0  0  0  0  0  0  0
  -25.7984  -26.0777   22.3469 C   0  0  0  0  0  0  0  0  0  0  0  0
  -20.5369   -5.5933   24.5337 C   0  0  0  0  0  0  0  0  0  0  0  0
  -23.7944  -10.5993   20.9349 C   0  0  0  0  0  0  0  0  0  0  0  0
  -24.2967  -13.0839   21.2221 C   0  0  0  0  0  0  0  0  0  0  0  0
  -17.5054  -27.4500   21.7654 C   0  0  0  0  0  0  0  0  0  0  0  0
  -23.8295  -26.6350   23.6402 C   0  0  0  0  0  0  0  0  0  0  0  0
  -18.8456  -27.1286   21.4772 C   0  0  0  0  0  0  0  0  0  0  0  0
  -24.9077  -27.0425   22.8418 C   0  0  0  0  0  0  0  0  0  0  0  0
  -31.2164  -17.1747   23.2696 C   0  0  0  0  0  0  0  0  0  0  0  0
  -29.9792  -19.0481   24.1622 C   0  0  0  0  0  0  0  0  0  0  0  0
  -22.2211   -8.3124   21.2129 C   0  0  0  0  0  0  0  0  0  0  0  0
  -25.6264  -24.7279   22.6526 C   0  0  0  0  0  0  0  0  0  0  0  0
  -20.8530   -6.9745   22.5769 C   0  0  0  0  0  0  0  0  0  0  0  0
  -19.6426   -6.5306   25.0509 C   0  0  0  0  0  0  0  0  0  0  0  0
  -21.1420   -5.8152   23.2967 C   0  0  0  0  0  0  0  0  0  0  0  0
  -30.3264  -18.2328   23.0850 C   0  0  0  0  0  0  0  0  0  0  0  0
  -24.6076  -11.7801   20.7916 C   0  0  0  0  0  0  0  0  0  0  0  0
  -25.3851  -13.8360   20.8532 C   0  0  0  0  0  0  0  0  0  0  0  0
  -29.6195  -21.2411   23.6601 C   0  0  0  0  0  0  0  0  0  0  0  0
  -23.1285  -13.5714   21.8954 C   0  0  0  0  0  0  0  0  0  0  0  0
  -28.7265  -22.4211   23.4517 C   0  0  0  0  0  0  0  0  0  0  0  0
  -22.0799  -28.8007   22.1065 C   0  0  0  0  0  0  0  0  0  0  0  0
  -30.9356  -14.4605   20.5518 C   0  0  0  0  0  0  0  0  0  0  0  0
  -24.4058  -30.8243   23.1153 C   0  0  0  0  0  0  0  0  0  0  0  0
  -27.6314  -31.2469   24.1467 C   0  0  0  0  0  0  0  0  0  0  0  0
  -16.9935  -28.8661   21.6807 C   0  0  0  0  0  0  0  0  0  0  0  0
  -22.8732  -27.6497   24.2045 C   0  0  0  0  0  0  0  0  0  0  0  0
  -25.1330  -28.4901   22.4922 C   0  0  0  0  0  0  0  0  0  0  0  0
  -18.1012  -29.9164   21.6983 C   0  0  0  0  0  0  0  0  0  0  0  0
  -29.3079  -12.7253   17.8723 C   0  0  0  0  0  0  0  0  0  0  0  0
  -19.2202  -29.5281   20.7372 C   0  0  0  0  0  0  0  0  0  0  0  0
  -27.9254  -12.4054   18.4392 C   0  0  0  0  0  0  0  0  0  0  0  0
  -30.3835  -12.6577   18.9520 C   0  0  0  0  0  0  0  0  0  0  0  0
  -28.7274  -13.2069   20.7062 C   0  0  0  0  0  0  0  0  0  0  0  0
  -19.8641  -28.1985   21.1483 C   0  0  1  0  0  0  0  0  0  0  0  0
  -22.8323  -28.9447   23.3991 C   0  0  1  0  0  0  0  0  0  0  0  0
  -27.6072  -13.2942   19.6547 C   0  0  2  0  0  0  0  0  0  0  0  0
  -29.2534  -33.0219   24.8649 C   0  0  0  0  0  0  0  0  0  0  0  0
  -24.7302  -31.6998   20.2105 C   0  0  0  0  0  0  0  0  0  0  0  0
  -26.9310  -32.7165   20.8356 C   0  0  0  0  0  0  0  0  0  0  0  0
  -24.8280  -33.5609   21.8781 C   0  0  0  0  0  0  0  0  0  0  0  0
  -27.9776  -30.0143   26.8150 C   0  0  0  0  0  0  0  0  0  0  0  0
  -31.5898  -16.3011   22.1199 C   0  0  0  0  0  0  0  0  0  0  0  0
  -28.7812  -23.0444   22.0771 C   0  0  0  0  0  0  0  0  0  0  0  0
  -30.5029  -15.2895   21.7348 C   0  0  0  0  0  0  0  0  0  0  0  0
  -27.8412  -24.2323   21.9418 C   0  0  0  0  0  0  0  0  0  1  0  0
  -25.7266  -31.2977   22.5582 C   0  0  1  0  0  0  0  0  0  0  0  0
  -28.2219  -32.0028   25.3233 C   0  0  2  0  0  0  0  0  0  0  0  0
  -25.5489  -32.2912   21.3754 C   0  0  0  0  0  0  0  0  0  0  0  0
  -25.8001  -11.7049   20.1946 N   0  0  0  0  0  0  0  0  0  0  0  0
  -29.0833  -20.1148   23.9794 N   0  0  0  0  0  0  0  0  0  0  0  0
  -26.2480  -12.9708   20.2474 N   0  0  0  0  0  0  0  0  0  0  0  0
  -24.1673  -29.4436   23.0629 N   0  0  0  0  0  0  0  0  0  0  0  0
  -30.0334  -13.4978   20.0987 N   0  0  0  0  0  0  0  0  0  0  0  0
  -25.6786  -15.1465   20.9911 N   0  0  0  0  0  0  0  0  0  0  0  0
  -22.1049  -12.6636   22.1996 N   0  0  0  0  0  0  0  0  0  0  0  0
  -20.7674  -28.3972   22.2614 N   0  0  0  0  0  0  0  0  0  0  0  0
  -26.4748  -31.8403   23.6869 N   0  0  0  0  0  0  0  0  0  0  0  0
  -28.8825  -31.0575   26.2673 N   0  3  0  0  0  0  0  0  0  0  0  0
  -22.9891  -14.7794   22.2032 O   0  0  0  0  0  0  0  0  0  0  0  0
  -28.0190  -22.7740   24.3819 O   0  0  0  0  0  0  0  0  0  0  0  0
  -22.6477  -29.0396   21.0471 O   0  0  0  0  0  0  0  0  0  0  0  0
  -32.0416  -14.6659   20.0450 O   0  0  0  0  0  0  0  0  0  0  0  0
  -23.6180  -31.6483   23.5864 O   0  0  0  0  0  0  0  0  0  0  0  0
  -28.1468  -30.2336   23.6796 O   0  0  0  0  0  0  0  0  0  0  0  0
  -21.4536   -7.1966   21.3490 O   0  0  0  0  0  0  0  0  0  0  0  0
  -26.4990  -23.8033   22.1671 O   0  0  0  0  0  0  0  0  0  1  0  0
  -19.0626   -6.3183   26.2394 F   0  0  0  0  0  0  0  0  0  0  0  0
  -22.0012   -4.9117   22.8056 F   0  0  0  0  0  0  0  0  0  0  0  0
  -29.8035  -18.4663   21.8719 F   0  0  0  0  0  0  0  0  0  0  0  0
  1  2  1  0  0  0  0
  1  6  2  0  0  0  0
  2  7  2  0  0  0  0
  3  9  1  0  0  0  0
  3 10  2  0  0  0  0
  4 11  2  0  0  0  0
  4 18  1  0  0  0  0
  5 12  1  0  0  0  0
  5 18  2  0  0  0  0
  6 20  1  0  0  0  0
  7 22  1  0  0  0  0
  8 13  2  0  0  0  0
  8 21  1  0  0  0  0
  9 24  2  0  0  0  0
 10 25  1  0  0  0  0
 11 26  1  0  0  0  0
 12 26  2  0  0  0  0
 13 27  1  0  0  0  0
 14 15  2  0  0  0  0
 14 28  1  0  0  0  0
 15 29  1  0  0  0  0
 16 23  1  0  0  0  0
 16 27  2  0  0  0  0
 17 29  2  0  0  0  0
 17 30  1  0  0  0  0
 18 32  1  0  0  0  0
 19 32  1  0  0  0  0
 19 33  2  0  0  0  0
 19 35  1  0  0  0  0
 20 22  2  0  0  0  0
 20 41  1  0  0  0  0
 21 23  2  0  0  0  0
 21 42  1  0  0  0  0
 22 50  1  0  0  0  0
 23 43  1  0  0  0  0
 24 31  1  0  0  0  0
 24 58  1  0  0  0  0
 25 31  2  0  0  0  0
 25 66  1  0  0  0  0
 26 81  1  0  0  0  0
 27 82  1  0  0  0  0
 28 30  2  0  0  0  0
 28 81  1  0  0  0  0
 29 83  1  0  0  0  0
 30 84  1  0  0  0  0
 31 85  1  0  0  0  0
 32 65  2  0  0  0  0
 33 67  1  0  0  0  0
 33 70  1  0  0  0  0
 34 36  1  0  0  0  0
 34 66  2  0  0  0  0
 35 71  1  0  0  0  0
 35 75  2  0  0  0  0
 36 59  1  0  0  0  0
 36 76  2  0  0  0  0
 37 51  1  0  0  0  0
 37 72  1  0  0  0  0
 37 77  2  0  0  0  0
 38 60  1  0  0  0  0
 38 69  1  0  0  0  0
 38 78  2  0  0  0  0
 39 62  1  0  0  0  0
 39 68  1  0  0  0  0
 39 79  2  0  0  0  0
 40 63  1  0  0  0  0
 40 73  1  0  0  0  0
 40 80  2  0  0  0  0
 41 44  1  0  0  0  0
 42 51  1  0  0  0  0
 43 68  1  0  0  0  0
 44 46  1  0  0  0  0
 45 47  1  0  0  0  0
 45 48  1  0  0  0  0
 46 50  1  0  0  0  0
 47 52  1  0  0  0  0
 48 69  1  0  0  0  0
 49 52  1  0  0  0  0
 49 69  1  0  0  0  0
 50 72  1  0  0  0  0
 51 68  1  0  0  0  0
 52 67  1  0  0  0  0
 53 63  1  0  0  0  0
 54 64  1  0  0  0  0
 55 64  1  0  0  0  0
 56 64  1  0  0  0  0
 57 74  1  0  0  0  0
 58 60  1  0  0  0  0
 59 61  1  0  0  0  0
 61 82  1  0  0  0  0
 62 64  1  0  0  0  0
 62 73  1  0  0  0  0
 63 74  1  0  0  0  0
 65 67  1  0  0  0  0
M  CHG  1  74   1
M  ISO  4  38 100  60 100  61 101  82 101
M  END
> <Batch ID>
0173

> <Smiles>
CNC(C)C(=O)NC(C(=O)N1Cc2cc([101O:1][101CH2:1]CC(=O)CNc3cccc(C=[100CH:0][100C:0](=O)N4CCCC(n5nc(-c6ccc(Oc7ccc(F)cc7F)cc6)c(C(N)=O)c5N)C4)c3F)ccc2CC1C(=O)NC1CCCc2ccccc21)C(C)(C)C

> <Shape>
0.320

> <Color>
0.192

> <Negative vol penalty>
0.000

$$$$

  -OEChem-04052304293D

 88 96  0     1  0  0  0  0  0999 V2000
  -30.4342  -25.7717   17.3272 C   0  0  0  0  0  0  0  0  0  0  0  0
  -29.0531  -25.6997   17.4775 C   0  0  0  0  0  0  0  0  0  0  0  0
  -25.0464  -14.7611   21.0978 C   0  0  0  0  0  0  0  0  0  0  0  0
  -26.6792  -14.0409   22.7265 C   0  0  0  0  0  0  0  0  0  0  0  0
  -23.1807  -22.9599   19.5242 C   0  0  0  0  0  0  0  0  0  0  0  0
  -31.2181  -26.3104   18.3466 C   0  0  0  0  0  0  0  0  0  0  0  0
  -28.4550  -26.1654   18.6479 C   0  0  0  0  0  0  0  0  0  0  0  0
  -22.9970  -28.8958   19.1589 C   0  0  0  0  0  0  0  0  0  0  0  0
  -25.0421  -13.4838   20.5373 C   0  0  0  0  0  0  0  0  0  0  0  0
  -26.6748  -12.7636   22.1660 C   0  0  0  0  0  0  0  0  0  0  0  0
  -21.7397  -28.4177   19.5251 C   0  0  0  0  0  0  0  0  0  0  0  0
  -24.3324  -10.3148   18.9036 C   0  0  0  0  0  0  0  0  0  0  0  0
  -21.8088  -22.7690   19.3598 C   0  0  0  0  0  0  0  0  0  0  0  0
  -23.0967   -9.7466   18.5941 C   0  0  0  0  0  0  0  0  0  0  0  0
  -22.1214  -29.1638   21.7871 C   0  0  0  0  0  0  0  0  0  0  0  0
  -22.4463   -9.8965   20.9161 C   0  0  0  0  0  0  0  0  0  0  0  0
  -25.8650  -15.0397   22.1924 C   0  0  0  0  0  0  0  0  0  0  0  0
  -23.6536  -23.7654   20.5601 C   0  0  0  0  0  0  0  0  0  0  0  0
  -25.0463  -16.8356   23.8086 C   0  0  0  0  0  0  0  0  0  0  0  0
  -30.6285  -26.7918   19.5262 C   0  0  0  0  0  0  0  0  0  0  0  0
  -23.8319  -29.5028   20.1081 C   0  0  0  0  0  0  0  0  0  0  0  0
  -29.2319  -26.7098   19.6847 C   0  0  0  0  0  0  0  0  0  0  0  0
  -23.3879  -29.6511   21.4298 C   0  0  0  0  0  0  0  0  0  0  0  0
  -22.7546  -24.3801   21.4316 C   0  0  0  0  0  0  0  0  0  0  0  0
  -21.3826  -24.1893   21.2673 C   0  0  0  0  0  0  0  0  0  0  0  0
  -25.8562  -12.4851   21.0714 C   0  0  0  0  0  0  0  0  0  0  0  0
  -21.3028  -28.5490   20.8400 C   0  0  0  0  0  0  0  0  0  0  0  0
  -24.6251  -10.6738   20.2194 C   0  0  0  0  0  0  0  0  0  0  0  0
  -22.1536   -9.5375   19.6004 C   0  0  0  0  0  0  0  0  0  0  0  0
  -20.9097  -23.3837   20.2314 C   0  0  0  0  0  0  0  0  0  0  0  0
  -23.6820  -10.4647   21.2256 C   0  0  0  0  0  0  0  0  0  0  0  0
  -25.8704  -16.3590   22.7714 C   0  0  0  0  0  0  0  0  0  0  0  0
  -25.4414  -18.1385   23.9899 C   0  0  0  0  0  0  0  0  0  0  0  0
  -25.1202  -23.9491   20.7087 C   0  0  0  0  0  0  0  0  0  0  0  0
  -24.0159  -16.1608   24.5425 C   0  0  0  0  0  0  0  0  0  0  0  0
  -26.7017  -28.8554   21.3118 C   0  0  0  0  0  0  0  0  0  0  0  0
  -26.3080  -31.7265   22.7692 C   0  0  0  0  0  0  0  0  0  0  0  0
  -24.1671  -34.1223   23.9197 C   0  0  0  0  0  0  0  0  0  0  0  0
  -27.2473  -22.7309   21.0484 C   0  0  0  0  0  0  0  0  0  0  0  0
  -31.5212  -27.3222   20.6199 C   0  0  0  0  0  0  0  0  0  0  0  0
  -25.1746  -30.0373   19.6910 C   0  0  0  0  0  0  0  0  0  0  0  0
  -24.2378  -30.3133   22.4823 C   0  0  0  0  0  0  0  0  0  0  0  0
  -30.7754  -28.1371   21.6734 C   0  0  0  0  0  0  0  0  0  0  0  0
  -29.5121  -20.7335   22.8862 C   0  0  0  0  0  0  0  0  0  0  0  0
  -29.5059  -27.4122   22.1090 C   0  0  0  0  0  0  0  0  0  0  0  0
  -28.7238  -19.4489   23.1561 C   0  0  0  0  0  0  0  0  0  0  0  0
  -29.2195  -21.2974   21.4965 C   0  0  0  0  0  0  0  0  0  0  0  0
  -27.0139  -20.2058   21.4569 C   0  0  0  0  0  0  0  0  0  0  0  0
  -28.5439  -27.2272   20.9293 C   0  0  1  0  0  0  0  0  0  0  0  0
  -26.1502  -30.1765   20.8555 C   0  0  1  0  0  0  0  0  0  0  0  0
  -27.2204  -19.6371   22.8701 C   0  0  1  0  0  0  0  0  0  0  0  0
  -24.1393  -36.3375   25.0983 C   0  0  0  0  0  0  0  0  0  0  0  0
  -26.8977  -30.3240   25.4140 C   0  0  0  0  0  0  0  0  0  0  0  0
  -25.9394  -32.3095   26.6005 C   0  0  0  0  0  0  0  0  0  0  0  0
  -27.9629  -32.5730   25.1657 C   0  0  0  0  0  0  0  0  0  0  0  0
  -22.8649  -35.4590   21.6227 C   0  0  0  0  0  0  0  0  0  0  0  0
  -19.2259  -25.3715   21.6876 C   0  0  0  0  0  0  0  0  0  0  0  0
  -19.9215  -27.6341   22.5462 C   0  0  0  0  0  0  0  0  0  1  0  0
  -23.2626  -25.2450   22.5432 C   0  0  0  0  0  0  0  0  0  0  0  0
  -25.7134  -32.1887   24.0775 C   0  0  1  0  0  0  0  0  0  0  0  0
  -24.1595  -35.6310   23.7518 C   0  0  2  0  0  0  0  0  0  0  0  0
  -18.8518  -26.5482   22.5867 C   0  0  1  0  0  0  0  0  0  0  0  0
  -26.6129  -31.8346   25.2953 C   0  0  0  0  0  0  0  0  0  0  0  0
  -26.7243  -17.2840   22.3251 N   0  0  0  0  0  0  0  0  0  0  0  0
  -26.4390  -18.3548   23.0853 N   0  0  0  0  0  0  0  0  0  0  0  0
  -25.5452  -30.8141   22.0267 N   0  0  0  0  0  0  0  0  0  0  0  0
  -27.7762  -21.4547   21.3086 N   0  0  0  0  0  0  0  0  0  0  0  0
  -25.0292  -19.1087   24.8332 N   0  0  0  0  0  0  0  0  0  0  0  0
  -23.7383  -14.8234   24.2283 N   0  0  0  0  0  0  0  0  0  0  0  0
  -20.4764  -24.7915   22.1236 N   0  0  0  0  0  0  0  0  0  0  0  0
  -25.8542  -22.7829   20.9269 N   0  0  0  0  0  0  0  0  0  0  0  0
  -27.8476  -28.4640   20.6462 N   0  0  0  0  0  0  0  0  0  0  0  0
  -25.4494  -33.6154   23.9245 N   0  0  0  0  0  0  0  0  0  0  0  0
  -22.9603  -36.0600   22.9779 N   0  3  0  0  0  0  0  0  0  0  0  0
  -25.5964  -25.0753   20.5952 O   0  0  0  0  0  0  0  0  0  0  0  0
  -23.3496  -16.7320   25.4388 O   0  0  0  0  0  0  0  0  0  0  0  0
  -26.1307  -28.2376   22.2028 O   0  0  0  0  0  0  0  0  0  0  0  0
  -27.4056  -32.1646   22.4155 O   0  0  0  0  0  0  0  0  0  0  0  0
  -23.1386  -33.4601   24.0387 O   0  0  0  0  0  0  0  0  0  0  0  0
  -27.9504  -23.7431   20.9690 O   0  0  0  0  0  0  0  0  0  0  0  0
  -17.6302  -27.1237   22.1190 O   0  0  0  0  0  0  0  0  0  0  0  0
  -25.8521  -11.2385   20.5249 O   0  0  0  0  0  0  0  0  0  0  0  0
  -20.0762  -28.0826   21.2003 O   0  0  0  0  0  0  0  0  0  1  0  0
  -20.9665   -8.9932   19.3028 F   0  0  0  0  0  0  0  0  0  0  0  0
  -19.5935  -23.1924   20.0635 F   0  0  0  0  0  0  0  0  0  0  0  0
  -23.9570  -10.8086   22.4913 F   0  0  0  0  0  0  0  0  0  0  0  0
  -22.4045  -25.2255   23.5941 F   0  0  0  0  0  0  0  0  0  0  0  0
  -23.3543  -26.5370   22.1388 F   0  0  0  0  0  0  0  0  0  0  0  0
  1  2  1  0  0  0  0
  1  6  2  0  0  0  0
  2  7  2  0  0  0  0
  3  9  2  0  0  0  0
  3 17  1  0  0  0  0
  4 10  1  0  0  0  0
  4 17  2  0  0  0  0
  5 13  1  0  0  0  0
  5 18  2  0  0  0  0
  6 20  1  0  0  0  0
  7 22  1  0  0  0  0
  8 11  2  0  0  0  0
  8 21  1  0  0  0  0
  9 26  1  0  0  0  0
 10 26  2  0  0  0  0
 11 27  1  0  0  0  0
 12 14  2  0  0  0  0
 12 28  1  0  0  0  0
 13 30  2  0  0  0  0
 14 29  1  0  0  0  0
 15 23  1  0  0  0  0
 15 27  2  0  0  0  0
 16 29  2  0  0  0  0
 16 31  1  0  0  0  0
 17 32  1  0  0  0  0
 18 24  1  0  0  0  0
 18 34  1  0  0  0  0
 19 32  1  0  0  0  0
 19 33  2  0  0  0  0
 19 35  1  0  0  0  0
 20 22  2  0  0  0  0
 20 40  1  0  0  0  0
 21 23  2  0  0  0  0
 21 41  1  0  0  0  0
 22 49  1  0  0  0  0
 23 42  1  0  0  0  0
 24 25  2  0  0  0  0
 24 59  1  0  0  0  0
 25 30  1  0  0  0  0
 25 70  1  0  0  0  0
 26 82  1  0  0  0  0
 27 83  1  0  0  0  0
 28 31  2  0  0  0  0
 28 82  1  0  0  0  0
 29 84  1  0  0  0  0
 30 85  1  0  0  0  0
 31 86  1  0  0  0  0
 32 64  2  0  0  0  0
 33 65  1  0  0  0  0
 33 68  1  0  0  0  0
 34 71  1  0  0  0  0
 34 75  2  0  0  0  0
 35 69  1  0  0  0  0
 35 76  2  0  0  0  0
 36 50  1  0  0  0  0
 36 72  1  0  0  0  0
 36 77  2  0  0  0  0
 37 60  1  0  0  0  0
 37 66  1  0  0  0  0
 37 78  2  0  0  0  0
 38 61  1  0  0  0  0
 38 73  1  0  0  0  0
 38 79  2  0  0  0  0
 39 67  1  0  0  0  0
 39 71  1  0  0  0  0
 39 80  2  0  0  0  0
 40 43  1  0  0  0  0
 41 50  1  0  0  0  0
 42 66  1  0  0  0  0
 43 45  1  0  0  0  0
 44 46  1  0  0  0  0
 44 47  1  0  0  0  0
 45 49  1  0  0  0  0
 46 51  1  0  0  0  0
 47 67  1  0  0  0  0
 48 51  1  0  0  0  0
 48 67  1  0  0  0  0
 49 72  1  0  0  0  0
 50 66  1  0  0  0  0
 51 65  1  0  0  0  0
 52 61  1  0  0  0  0
 53 63  1  0  0  0  0
 54 63  1  0  0  0  0
 55 63  1  0  0  0  0
 56 74  1  0  0  0  0
 57 62  1  0  0  0  0
 57 70  1  0  0  0  0
 58 62  1  0  0  0  0
 58 83  1  0  0  0  0
 59 87  1  0  0  0  0
 59 88  1  0  0  0  0
 60 63  1  0  0  0  0
 60 73  1  0  0  0  0
 61 74  1  0  0  0  0
 62 81  1  0  0  0  0
 64 65  1  0  0  0  0
M  CHG  1  74   1
M  ISO  4  39 100  58 101  71 100  83 101
M  END
> <Batch ID>
0173

> <Smiles>
CNC(C)C(=O)NC(C(=O)N1Cc2cc([101O:1][101CH2:1]C(O)CNc3c(F)ccc(C(=O)[100NH:0][100C:0](=O)N4CCCC(n5nc(-c6ccc(Oc7ccc(F)cc7F)cc6)c(C(N)=O)c5N)C4)c3C(F)F)ccc2CC1C(=O)NC1CCCc2ccccc21)C(C)(C)C

> <Shape>
0.290

> <Color>
0.069

> <Negative vol penalty>
0.000

$$$$

  -OEChem-04052304293D

 85 93  0     1  0  0  0  0  0999 V2000
  -43.1662  -27.8150   23.2044 C   0  0  0  0  0  0  0  0  0  0  0  0
  -41.9927  -27.2334   23.6734 C   0  0  0  0  0  0  0  0  0  0  0  0
  -23.0002   -9.8920   19.9822 C   0  0  0  0  0  0  0  0  0  0  0  0
  -23.7259   -9.9451   22.2860 C   0  0  0  0  0  0  0  0  0  0  0  0
  -43.2356  -28.2820   21.8925 C   0  0  0  0  0  0  0  0  0  0  0  0
  -40.8873  -27.1194   22.8310 C   0  0  0  0  0  0  0  0  0  0  0  0
  -38.6932  -22.5640   23.1107 C   0  0  0  0  0  0  0  0  0  0  0  0
  -22.2343   -8.7574   20.2496 C   0  0  0  0  0  0  0  0  0  0  0  0
  -22.9599   -8.8105   22.5534 C   0  0  0  0  0  0  0  0  0  0  0  0
  -37.8715  -22.3194   24.2101 C   0  0  0  0  0  0  0  0  0  0  0  0
  -23.2056   -5.4713   22.0841 C   0  0  0  0  0  0  0  0  0  0  0  0
  -23.7938   -4.4550   22.8368 C   0  0  0  0  0  0  0  0  0  0  0  0
  -35.9294  -22.7617   22.8492 C   0  0  0  0  0  0  0  0  0  0  0  0
  -22.0702   -4.6984   24.5122 C   0  0  0  0  0  0  0  0  0  0  0  0
  -30.7348  -19.0711   22.9194 C   0  0  0  0  0  0  0  0  0  0  0  0
  -23.7461  -10.4859   21.0004 C   0  0  0  0  0  0  0  0  0  0  0  0
  -24.1302  -13.0015   20.8223 C   0  0  0  0  0  0  0  0  0  0  0  0
  -42.1337  -28.1649   21.0306 C   0  0  0  0  0  0  0  0  0  0  0  0
  -38.1388  -22.9204   21.8729 C   0  0  0  0  0  0  0  0  0  0  0  0
  -40.9416  -27.5865   21.5067 C   0  0  0  0  0  0  0  0  0  0  0  0
  -36.7461  -23.0077   21.7350 C   0  0  0  0  0  0  0  0  0  0  0  0
  -22.2140   -8.2166   21.5352 C   0  0  0  0  0  0  0  0  0  0  0  0
  -36.4895  -22.4211   24.0802 C   0  0  0  0  0  0  0  0  0  0  0  0
  -22.0498   -6.1013   22.5454 C   0  0  0  0  0  0  0  0  0  0  0  0
  -23.2261   -4.0685   24.0509 C   0  0  0  0  0  0  0  0  0  0  0  0
  -21.4820   -5.7148   23.7595 C   0  0  0  0  0  0  0  0  0  0  0  0
  -24.5379  -11.6576   20.7247 C   0  0  0  0  0  0  0  0  0  0  0  0
  -31.8416  -18.6679   22.2021 C   0  0  0  0  0  0  0  0  0  0  0  0
  -25.2395  -13.7243   20.4571 C   0  0  0  0  0  0  0  0  0  0  0  0
  -30.5806  -16.9021   21.8829 C   0  0  0  0  0  0  0  0  0  0  0  0
  -34.0969  -19.1552   23.1121 C   0  0  0  0  0  0  0  0  0  0  0  0
  -22.8621  -13.5476   21.2087 C   0  0  0  0  0  0  0  0  0  0  0  0
  -35.7405  -20.9498   25.7370 C   0  0  0  0  0  0  0  0  0  1  0  0
  -36.0919  -20.8252   27.0308 C   0  0  0  0  0  0  0  0  0  0  0  0
  -35.4005  -19.7527   24.8922 C   0  0  0  0  0  0  0  0  0  0  0  0
  -38.3273  -25.4675   19.9807 C   0  0  0  0  0  0  0  0  0  0  0  0
  -36.5964  -23.6108   17.9611 C   0  0  0  0  0  0  0  0  0  0  0  0
  -34.4426  -20.9943   17.5592 C   0  0  0  0  0  0  0  0  0  0  0  0
  -30.7187  -14.6880   20.6892 C   0  0  0  0  0  0  0  0  0  0  0  0
  -42.2406  -28.7271   19.6352 C   0  0  0  0  0  0  0  0  0  0  0  0
  -39.0376  -23.1548   20.6899 C   0  0  0  0  0  0  0  0  0  0  0  0
  -36.1002  -23.3673   20.4228 C   0  0  0  0  0  0  0  0  0  0  0  0
  -41.1479  -28.2292   18.6926 C   0  0  0  0  0  0  0  0  0  0  0  0
  -29.6009  -12.2329   18.3653 C   0  0  0  0  0  0  0  0  0  0  0  0
  -39.7824  -28.3116   19.3675 C   0  0  0  0  0  0  0  0  0  0  0  0
  -28.1505  -11.9750   18.7800 C   0  0  0  0  0  0  0  0  0  0  0  0
  -30.5016  -12.4776   19.5747 C   0  0  0  0  0  0  0  0  0  0  0  0
  -28.5862  -13.2666   20.9081 C   0  0  0  0  0  0  0  0  0  0  0  0
  -39.7294  -27.4225   20.6157 C   0  0  1  0  0  0  0  0  0  0  0  0
  -38.3896  -24.0133   19.6080 C   0  0  1  0  0  0  0  0  0  0  0  0
  -27.6284  -13.0790   19.7202 C   0  0  2  0  0  0  0  0  0  0  0  0
  -36.4417  -21.9876   27.9153 C   0  0  0  0  0  0  0  0  0  0  0  0
  -33.1753  -19.7392   15.7939 C   0  0  0  0  0  0  0  0  0  0  0  0
  -34.5847  -25.8979   17.7827 C   0  0  0  0  0  0  0  0  0  0  0  0
  -32.9357  -24.2797   16.8181 C   0  0  0  0  0  0  0  0  0  0  0  0
  -35.0643  -24.7585   15.6087 C   0  0  0  0  0  0  0  0  0  0  0  0
  -35.8443  -18.4645   18.1871 C   0  0  0  0  0  0  0  0  0  0  0  0
  -33.1078  -19.4599   22.0216 C   0  0  0  0  0  0  0  0  0  0  0  0
  -35.1246  -23.3738   17.7232 C   0  0  1  0  0  0  0  0  0  0  0  0
  -34.4592  -19.8132   16.6056 C   0  0  2  0  0  0  0  0  0  0  0  0
  -34.4393  -24.5726   17.0085 C   0  0  0  0  0  0  0  0  0  0  0  0
  -25.8072  -11.5314   20.3283 N   0  0  0  0  0  0  0  0  0  0  0  0
  -31.7552  -17.4243   21.6073 N   0  0  0  0  0  0  0  0  0  0  0  0
  -34.4856  -20.0865   23.9181 N   0  0  0  0  0  0  0  0  0  0  0  0
  -26.2065  -12.8052   20.1736 N   0  0  0  0  0  0  0  0  0  0  0  0
  -37.0217  -23.5933   19.2970 N   0  0  0  0  0  0  0  0  0  0  0  0
  -29.9463  -13.5389   20.4174 N   0  0  0  0  0  0  0  0  0  0  0  0
  -25.4724  -15.0501   20.3540 N   0  0  0  0  0  0  0  0  0  0  0  0
  -21.8307  -12.6633   21.5531 N   0  0  0  0  0  0  0  0  0  0  0  0
  -30.0742  -15.6435   21.4742 N   0  0  0  0  0  0  0  0  0  0  0  0
  -39.5601  -26.0349   20.2410 N   0  0  0  0  0  0  0  0  0  0  0  0
  -35.0262  -22.1110   16.9993 N   0  0  0  0  0  0  0  0  0  0  0  0
  -34.6108  -18.5384   17.3625 N   0  3  0  0  0  0  0  0  0  0  0  0
  -22.6448  -14.7829   21.2315 O   0  0  0  0  0  0  0  0  0  0  0  0
  -35.8919  -18.6461   25.0856 O   0  0  0  0  0  0  0  0  0  0  0  0
  -37.2413  -26.0334   20.0272 O   0  0  0  0  0  0  0  0  0  0  0  0
  -37.3426  -23.7972   16.9967 O   0  0  0  0  0  0  0  0  0  0  0  0
  -33.9568  -20.9334   18.6865 O   0  0  0  0  0  0  0  0  0  0  0  0
  -31.8572  -14.8271   20.2348 O   0  0  0  0  0  0  0  0  0  0  0  0
  -36.1594  -19.5936   27.6552 O   0  0  0  0  0  0  0  0  0  0  0  0
  -21.4666   -7.1096   21.7965 O   0  0  0  0  0  0  0  0  0  0  0  0
  -35.6851  -22.1836   25.1519 O   0  0  0  0  0  0  0  0  0  1  0  0
  -23.7902   -3.0914   24.7729 F   0  0  0  0  0  0  0  0  0  0  0  0
  -20.3710   -6.3155   24.2073 F   0  0  0  0  0  0  0  0  0  0  0  0
  -29.5301  -17.8522   22.8518 S   0  0  0  0  0  0  0  0  0  0  0  0
  1  2  1  0  0  0  0
  1  5  2  0  0  0  0
  2  6  2  0  0  0  0
  3  8  2  0  0  0  0
  3 16  1  0  0  0  0
  4  9  1  0  0  0  0
  4 16  2  0  0  0  0
  5 18  1  0  0  0  0
  6 20  1  0  0  0  0
  7 10  2  0  0  0  0
  7 19  1  0  0  0  0
  8 22  1  0  0  0  0
  9 22  2  0  0  0  0
 10 23  1  0  0  0  0
 11 12  2  0  0  0  0
 11 24  1  0  0  0  0
 12 25  1  0  0  0  0
 13 21  1  0  0  0  0
 13 23  2  0  0  0  0
 14 25  2  0  0  0  0
 14 26  1  0  0  0  0
 15 28  2  0  0  0  0
 15 85  1  0  0  0  0
 16 27  1  0  0  0  0
 17 27  1  0  0  0  0
 17 29  2  0  0  0  0
 17 32  1  0  0  0  0
 18 20  2  0  0  0  0
 18 40  1  0  0  0  0
 19 21  2  0  0  0  0
 19 41  1  0  0  0  0
 20 49  1  0  0  0  0
 21 42  1  0  0  0  0
 22 81  1  0  0  0  0
 23 82  1  0  0  0  0
 24 26  2  0  0  0  0
 24 81  1  0  0  0  0
 25 83  1  0  0  0  0
 26 84  1  0  0  0  0
 27 62  2  0  0  0  0
 28 58  1  0  0  0  0
 28 63  1  0  0  0  0
 29 65  1  0  0  0  0
 29 68  1  0  0  0  0
 30 63  2  0  0  0  0
 30 70  1  0  0  0  0
 30 85  1  0  0  0  0
 31 58  1  0  0  0  0
 31 64  2  0  0  0  0
 32 69  1  0  0  0  0
 32 74  2  0  0  0  0
 33 34  2  0  0  0  0
 33 35  1  0  0  0  0
 33 82  1  0  0  0  0
 34 52  1  0  0  0  0
 34 80  1  0  0  0  0
 35 64  1  0  0  0  0
 35 75  2  0  0  0  0
 36 50  1  0  0  0  0
 36 71  1  0  0  0  0
 36 76  2  0  0  0  0
 37 59  1  0  0  0  0
 37 66  1  0  0  0  0
 37 77  2  0  0  0  0
 38 60  1  0  0  0  0
 38 72  1  0  0  0  0
 38 78  2  0  0  0  0
 39 67  1  0  0  0  0
 39 70  1  0  0  0  0
 39 79  2  0  0  0  0
 40 43  1  0  0  0  0
 41 50  1  0  0  0  0
 42 66  1  0  0  0  0
 43 45  1  0  0  0  0
 44 46  1  0  0  0  0
 44 47  1  0  0  0  0
 45 49  1  0  0  0  0
 46 51  1  0  0  0  0
 47 67  1  0  0  0  0
 48 51  1  0  0  0  0
 48 67  1  0  0  0  0
 49 71  1  0  0  0  0
 50 66  1  0  0  0  0
 51 65  1  0  0  0  0
 53 60  1  0  0  0  0
 54 61  1  0  0  0  0
 55 61  1  0  0  0  0
 56 61  1  0  0  0  0
 57 73  1  0  0  0  0
 59 61  1  0  0  0  0
 59 72  1  0  0  0  0
 60 73  1  0  0  0  0
 62 65  1  0  0  0  0
M  CHG  1  73   1
M  ISO  4  33 101  39 100  70 100  82 101
M  END
> <Batch ID>
0173

> <Smiles>
CNC(C)C(=O)NC(C(=O)N1Cc2cc([101O:1][101CH:1](C(C)=O)C(=O)NC=Cc3csc([100NH:0][100C:0](=O)N4CCCC(n5nc(-c6ccc(Oc7ccc(F)cc7F)cc6)c(C(N)=O)c5N)C4)n3)ccc2CC1C(=O)NC1CCCc2ccccc21)C(C)(C)C

> <Shape>
0.173

> <Color>
0.186

> <Negative vol penalty>
0.000

$$$$

  -OEChem-04052304293D

 85 93  0     1  0  0  0  0  0999 V2000
  -30.2457  -25.5107   38.1768 C   0  0  0  0  0  0  0  0  0  0  0  0
  -30.0338  -24.5391   37.2039 C   0  0  0  0  0  0  0  0  0  0  0  0
  -23.0006   -9.8943   19.9806 C   0  0  0  0  0  0  0  0  0  0  0  0
  -23.7259   -9.9453   22.2846 C   0  0  0  0  0  0  0  0  0  0  0  0
  -31.0523  -26.6126   37.8958 C   0  0  0  0  0  0  0  0  0  0  0  0
  -30.6276  -24.6695   35.9489 C   0  0  0  0  0  0  0  0  0  0  0  0
  -32.7170  -20.1546   32.3775 C   0  0  0  0  0  0  0  0  0  0  0  0
  -22.2339   -8.7599   20.2470 C   0  0  0  0  0  0  0  0  0  0  0  0
  -22.9592   -8.8109   22.5511 C   0  0  0  0  0  0  0  0  0  0  0  0
  -32.1632  -19.4916   31.2832 C   0  0  0  0  0  0  0  0  0  0  0  0
  -23.2030   -5.4719   22.0793 C   0  0  0  0  0  0  0  0  0  0  0  0
  -23.7905   -4.4547   22.8314 C   0  0  0  0  0  0  0  0  0  0  0  0
  -33.3487  -20.9729   29.7934 C   0  0  0  0  0  0  0  0  0  0  0  0
  -32.0588  -16.5482   22.5609 C   0  0  0  0  0  0  0  0  0  0  0  0
  -31.8577  -18.3410   24.1679 C   0  0  0  0  0  0  0  0  0  0  0  0
  -22.0667   -4.6979   24.5067 C   0  0  0  0  0  0  0  0  0  0  0  0
  -23.7467  -10.4870   20.9994 C   0  0  0  0  0  0  0  0  0  0  0  0
  -24.1323  -13.0025   20.8233 C   0  0  0  0  0  0  0  0  0  0  0  0
  -31.6641  -26.7518   36.6400 C   0  0  0  0  0  0  0  0  0  0  0  0
  -33.5837  -21.2405   32.1878 C   0  0  0  0  0  0  0  0  0  0  0  0
  -31.4420  -25.7751   35.6504 C   0  0  0  0  0  0  0  0  0  0  0  0
  -33.9142  -21.6464   30.8870 C   0  0  0  0  0  0  0  0  0  0  0  0
  -30.6753  -16.5513   22.3841 C   0  0  0  0  0  0  0  0  0  0  0  0
  -30.4740  -18.3442   23.9911 C   0  0  0  0  0  0  0  0  0  0  0  0
  -22.2132   -8.2182   21.5323 C   0  0  0  0  0  0  0  0  0  0  0  0
  -32.4767  -19.9026   29.9910 C   0  0  0  0  0  0  0  0  0  0  0  0
  -22.0475   -6.1022   22.5409 C   0  0  0  0  0  0  0  0  0  0  0  0
  -23.2223   -4.0676   24.0451 C   0  0  0  0  0  0  0  0  0  0  0  0
  -32.6501  -17.4430   23.4528 C   0  0  0  0  0  0  0  0  0  0  0  0
  -21.4793   -5.7152   23.7546 C   0  0  0  0  0  0  0  0  0  0  0  0
  -29.8828  -17.4493   23.0992 C   0  0  0  0  0  0  0  0  0  0  0  0
  -24.5393  -11.6584   20.7247 C   0  0  0  0  0  0  0  0  0  0  0  0
  -25.2421  -13.7249   20.4588 C   0  0  0  0  0  0  0  0  0  0  0  0
  -22.8644  -13.5491   21.2098 C   0  0  0  0  0  0  0  0  0  0  0  0
  -33.5216  -24.3223   32.9639 C   0  0  0  0  0  0  0  0  0  0  0  0
  -30.5487  -19.4818   26.9490 C   0  0  0  0  0  0  0  0  0  0  0  0
  -36.5396  -24.2820   31.7754 C   0  0  0  0  0  0  0  0  0  0  0  0
  -38.8243  -22.7982   29.7198 C   0  0  0  0  0  0  0  0  0  0  0  0
  -30.7218  -14.6852   20.6924 C   0  0  0  0  0  0  0  0  0  0  0  0
  -32.4893  -27.9843   36.3671 C   0  0  0  0  0  0  0  0  0  0  0  0
  -34.1938  -21.9281   33.3784 C   0  0  0  0  0  0  0  0  0  0  0  0
  -34.8554  -22.7936   30.6292 C   0  0  0  0  0  0  0  0  0  0  0  0
  -33.3846  -27.8578   35.1371 C   0  0  0  0  0  0  0  0  0  0  0  0
  -29.6030  -12.2324   18.3667 C   0  0  0  0  0  0  0  0  0  0  0  0
  -32.6011  -27.2778   33.9639 C   0  0  0  0  0  0  0  0  0  0  0  0
  -28.1524  -11.9750   18.7809 C   0  0  0  0  0  0  0  0  0  0  0  0
  -30.5036  -12.4757   19.5764 C   0  0  0  0  0  0  0  0  0  0  0  0
  -28.5885  -13.2649   20.9100 C   0  0  0  0  0  0  0  0  0  0  0  0
  -32.0888  -25.8686   34.2855 C   0  0  1  0  0  0  0  0  0  0  0  0
  -34.6604  -23.3483   33.0740 C   0  0  1  0  0  0  0  0  0  0  0  0
  -27.6307  -13.0786   19.7218 C   0  0  2  0  0  0  0  0  0  0  0  0
  -29.2040  -21.2996   25.8742 C   0  0  0  0  0  0  0  0  0  0  0  0
  -41.1964  -23.0140   28.9301 C   0  0  0  0  0  0  0  0  0  0  0  0
  -35.7234  -26.5983   29.9646 C   0  0  0  0  0  0  0  0  0  0  0  0
  -37.7590  -26.1419   28.5803 C   0  0  0  0  0  0  0  0  0  0  0  0
  -38.0031  -26.8135   30.9703 C   0  0  0  0  0  0  0  0  0  0  0  0
  -39.5522  -20.1466   30.8144 C   0  0  0  0  0  0  0  0  0  0  0  0
  -31.7249  -20.0270   27.7382 C   0  0  0  0  0  0  0  0  0  1  0  0
  -30.2226  -20.1957   25.6447 C   0  0  2  0  0  0  0  0  0  0  0  0
  -37.1554  -24.4974   30.4140 C   0  0  1  0  0  0  0  0  0  0  0  0
  -40.2650  -22.3794   29.9510 C   0  0  2  0  0  0  0  0  0  0  0  0
  -37.1410  -25.9923   29.9869 C   0  0  0  0  0  0  0  0  0  0  0  0
  -25.8085  -11.5317   20.3284 N   0  0  0  0  0  0  0  0  0  0  0  0
  -26.2087  -12.8055   20.1748 N   0  0  0  0  0  0  0  0  0  0  0  0
  -35.4211  -23.4380   31.8260 N   0  0  0  0  0  0  0  0  0  0  0  0
  -29.9488  -13.5368   20.4197 N   0  0  0  0  0  0  0  0  0  0  0  0
  -25.4758  -15.0506   20.3566 N   0  0  0  0  0  0  0  0  0  0  0  0
  -21.8325  -12.6651   21.5535 N   0  0  0  0  0  0  0  0  0  0  0  0
  -30.0777  -15.6406   21.4780 N   0  0  0  0  0  0  0  0  0  0  0  0
  -29.6901  -19.2366   24.7019 N   0  0  0  0  0  0  0  0  0  0  0  0
  -33.1590  -24.9019   34.1647 N   0  0  0  0  0  0  0  0  0  0  0  0
  -38.4874  -23.9049   30.4701 N   0  0  0  0  0  0  0  0  0  0  0  0
  -40.3964  -20.8983   29.8504 N   0  3  0  0  0  0  0  0  0  0  0  0
  -22.6479  -14.7844   21.2336 O   0  0  0  0  0  0  0  0  0  0  0  0
  -33.0108  -24.5335   31.8702 O   0  0  0  0  0  0  0  0  0  0  0  0
  -29.8934  -18.5210   27.3534 O   0  0  0  0  0  0  0  0  0  0  0  0
  -37.0370  -24.8363   32.7587 O   0  0  0  0  0  0  0  0  0  0  0  0
  -38.0740  -22.2053   28.9478 O   0  0  0  0  0  0  0  0  0  0  0  0
  -31.8604  -14.8240   20.2383 O   0  0  0  0  0  0  0  0  0  0  0  0
  -21.4650   -7.1115   21.7927 O   0  0  0  0  0  0  0  0  0  0  0  0
  -31.9370  -19.2576   28.9211 O   0  0  0  0  0  0  0  0  0  1  0  0
  -23.7857   -3.0897   24.7665 F   0  0  0  0  0  0  0  0  0  0  0  0
  -33.9789  -17.4408   23.6215 F   0  0  0  0  0  0  0  0  0  0  0  0
  -20.3685   -6.3162   24.2026 F   0  0  0  0  0  0  0  0  0  0  0  0
  -28.5516  -17.4524   22.9302 F   0  0  0  0  0  0  0  0  0  0  0  0
  1  2  1  0  0  0  0
  1  5  2  0  0  0  0
  2  6  2  0  0  0  0
  3  8  2  0  0  0  0
  3 17  1  0  0  0  0
  4  9  1  0  0  0  0
  4 17  2  0  0  0  0
  5 19  1  0  0  0  0
  6 21  1  0  0  0  0
  7 10  2  0  0  0  0
  7 20  1  0  0  0  0
  8 25  1  0  0  0  0
  9 25  2  0  0  0  0
 10 26  1  0  0  0  0
 11 12  2  0  0  0  0
 11 27  1  0  0  0  0
 12 28  1  0  0  0  0
 13 22  1  0  0  0  0
 13 26  2  0  0  0  0
 14 23  2  0  0  0  0
 14 29  1  0  0  0  0
 15 24  1  0  0  0  0
 15 29  2  0  0  0  0
 16 28  2  0  0  0  0
 16 30  1  0  0  0  0
 17 32  1  0  0  0  0
 18 32  1  0  0  0  0
 18 33  2  0  0  0  0
 18 34  1  0  0  0  0
 19 21  2  0  0  0  0
 19 40  1  0  0  0  0
 20 22  2  0  0  0  0
 20 41  1  0  0  0  0
 21 49  1  0  0  0  0
 22 42  1  0  0  0  0
 23 31  1  0  0  0  0
 23 69  1  0  0  0  0
 24 31  2  0  0  0  0
 24 70  1  0  0  0  0
 25 80  1  0  0  0  0
 26 81  1  0  0  0  0
 27 30  2  0  0  0  0
 27 80  1  0  0  0  0
 28 82  1  0  0  0  0
 29 83  1  0  0  0  0
 30 84  1  0  0  0  0
 31 85  1  0  0  0  0
 32 63  2  0  0  0  0
 33 64  1  0  0  0  0
 33 67  1  0  0  0  0
 34 68  1  0  0  0  0
 34 74  2  0  0  0  0
 35 50  1  0  0  0  0
 35 71  1  0  0  0  0
 35 75  2  0  0  0  0
 36 58  1  0  0  0  0
 36 59  1  0  0  0  0
 36 76  2  0  0  0  0
 37 60  1  0  0  0  0
 37 65  1  0  0  0  0
 37 77  2  0  0  0  0
 38 61  1  0  0  0  0
 38 72  1  0  0  0  0
 38 78  2  0  0  0  0
 39 66  1  0  0  0  0
 39 69  1  0  0  0  0
 39 79  2  0  0  0  0
 40 43  1  0  0  0  0
 41 50  1  0  0  0  0
 42 65  1  0  0  0  0
 43 45  1  0  0  0  0
 44 46  1  0  0  0  0
 44 47  1  0  0  0  0
 45 49  1  0  0  0  0
 46 51  1  0  0  0  0
 47 66  1  0  0  0  0
 48 51  1  0  0  0  0
 48 66  1  0  0  0  0
 49 71  1  0  0  0  0
 50 65  1  0  0  0  0
 51 64  1  0  0  0  0
 52 59  1  0  0  0  0
 53 61  1  0  0  0  0
 54 62  1  0  0  0  0
 55 62  1  0  0  0  0
 56 62  1  0  0  0  0
 57 73  1  0  0  0  0
 58 81  1  0  0  0  0
 59 70  1  0  0  0  0
 60 62  1  0  0  0  0
 60 72  1  0  0  0  0
 61 73  1  0  0  0  0
 63 64  1  0  0  0  0
M  CHG  1  73   1
M  ISO  4  39 100  58 101  69 100  81 101
M  END
> <Batch ID>
0173

> <Smiles>
CNC(C)C(=O)NC(C(=O)N1Cc2cc([101O:1][101CH2:1]C(=O)C(C)Nc3cc(F)cc([100NH:0][100C:0](=O)N4CCCC(n5nc(-c6ccc(Oc7ccc(F)cc7F)cc6)c(C(N)=O)c5N)C4)c3F)ccc2CC1C(=O)NC1CCCc2ccccc21)C(C)(C)C

> <Shape>
0.173

> <Color>
0.198

> <Negative vol penalty>
0.000

$$$$

  -OEChem-04052304293D

 88 96  0     1  0  0  0  0  0999 V2000
  -22.5941  -31.3120   17.9790 C   0  0  0  0  0  0  0  0  0  0  0  0
  -23.5697  -30.4041   17.5798 C   0  0  0  0  0  0  0  0  0  0  0  0
  -22.9917   -9.8372   20.0039 C   0  0  0  0  0  0  0  0  0  0  0  0
  -23.6824   -9.9524   22.3162 C   0  0  0  0  0  0  0  0  0  0  0  0
  -22.6060  -31.8205   19.2771 C   0  0  0  0  0  0  0  0  0  0  0  0
  -24.5584  -30.0049   18.4784 C   0  0  0  0  0  0  0  0  0  0  0  0
  -28.6089  -24.3437   20.1699 C   0  0  0  0  0  0  0  0  0  0  0  0
  -22.2155   -8.7146   20.2917 C   0  0  0  0  0  0  0  0  0  0  0  0
  -22.9061   -8.8298   22.6040 C   0  0  0  0  0  0  0  0  0  0  0  0
  -29.9435  -23.9977   20.3773 C   0  0  0  0  0  0  0  0  0  0  0  0
  -23.1405   -5.4774   22.2339 C   0  0  0  0  0  0  0  0  0  0  0  0
  -23.7115   -4.4800   23.0243 C   0  0  0  0  0  0  0  0  0  0  0  0
  -29.8180  -24.8815   22.6184 C   0  0  0  0  0  0  0  0  0  0  0  0
  -29.8015  -17.7190   22.5959 C   0  0  0  0  0  0  0  0  0  0  0  0
  -31.8916  -17.2121   21.4954 C   0  0  0  0  0  0  0  0  0  0  0  0
  -21.9639   -4.7800   24.6653 C   0  0  0  0  0  0  0  0  0  0  0  0
  -23.7252  -10.4561   21.0161 C   0  0  0  0  0  0  0  0  0  0  0  0
  -24.1259  -12.9636   20.7724 C   0  0  0  0  0  0  0  0  0  0  0  0
  -23.5897  -31.4199   20.1950 C   0  0  0  0  0  0  0  0  0  0  0  0
  -27.8708  -24.9722   21.1831 C   0  0  0  0  0  0  0  0  0  0  0  0
  -24.5843  -30.5095   19.7897 C   0  0  0  0  0  0  0  0  0  0  0  0
  -28.4735  -25.2322   22.4222 C   0  0  0  0  0  0  0  0  0  0  0  0
  -30.5916  -16.8479   21.8458 C   0  0  0  0  0  0  0  0  0  0  0  0
  -31.6115  -19.3185   22.6451 C   0  0  0  0  0  0  0  0  0  0  0  0
  -22.1727   -8.2109   21.5917 C   0  0  0  0  0  0  0  0  0  0  0  0
  -30.5490  -24.2691   21.6007 C   0  0  0  0  0  0  0  0  0  0  0  0
  -21.9813   -6.1262   22.6592 C   0  0  0  0  0  0  0  0  0  0  0  0
  -30.3114  -18.9543   22.9955 C   0  0  0  0  0  0  0  0  0  0  0  0
  -23.1232   -4.1313   24.2400 C   0  0  0  0  0  0  0  0  0  0  0  0
  -32.4017  -18.4474   21.8951 C   0  0  0  0  0  0  0  0  0  0  0  0
  -21.3929   -5.7775   23.8749 C   0  0  0  0  0  0  0  0  0  0  0  0
  -24.5277  -11.6154   20.7193 C   0  0  0  0  0  0  0  0  0  0  0  0
  -25.2447  -13.6700   20.4038 C   0  0  0  0  0  0  0  0  0  0  0  0
  -22.8551  -13.5270   21.1234 C   0  0  0  0  0  0  0  0  0  0  0  0
  -26.4107  -27.7797   21.4825 C   0  0  0  0  0  0  0  0  0  0  0  0
  -25.3876  -26.5091   24.2862 C   0  0  0  0  0  0  0  0  0  0  0  0
  -25.8867  -24.2533   26.7980 C   0  0  0  0  0  0  0  0  0  0  0  0
  -33.0890  -21.3383   22.3822 C   0  0  0  0  0  0  0  0  0  0  0  0
  -30.7249  -14.6121   20.6927 C   0  0  0  0  0  0  0  0  0  0  0  0
  -23.5895  -32.0330   21.5730 C   0  0  0  0  0  0  0  0  0  0  0  0
  -26.4245  -25.3150   20.9527 C   0  0  0  0  0  0  0  0  0  0  0  0
  -27.7189  -25.8868   23.5493 C   0  0  0  0  0  0  0  0  0  0  0  0
  -24.4514  -31.2730   22.5779 C   0  0  0  0  0  0  0  0  0  0  0  0
  -29.6292  -12.0972   18.4229 C   0  0  0  0  0  0  0  0  0  0  0  0
  -25.8104  -30.9394   21.9708 C   0  0  0  0  0  0  0  0  0  0  0  0
  -28.1713  -11.8586   18.8224 C   0  0  0  0  0  0  0  0  0  0  0  0
  -30.5127  -12.3718   19.6386 C   0  0  0  0  0  0  0  0  0  0  0  0
  -28.5815  -13.2084   20.9192 C   0  0  0  0  0  0  0  0  0  0  0  0
  -25.6588  -30.0333   20.7430 C   0  0  1  0  0  0  0  0  0  0  0  0
  -25.9169  -26.4168   21.8777 C   0  0  1  0  0  0  0  0  0  0  0  0
  -27.6409  -12.9917   19.7226 C   0  0  2  0  0  0  0  0  0  0  0  0
  -35.2548  -21.4947   24.4937 C   0  0  0  0  0  0  0  0  0  0  0  0
  -24.9031  -23.4761   28.9719 C   0  0  0  0  0  0  0  0  0  0  0  0
  -26.4897  -28.9948   25.6707 C   0  0  0  0  0  0  0  0  0  0  0  0
  -26.3489  -27.7611   27.8447 C   0  0  0  0  0  0  0  0  0  0  0  0
  -24.2757  -28.2151   26.5338 C   0  0  0  0  0  0  0  0  0  0  0  0
  -25.4562  -21.5161   25.7581 C   0  0  0  0  0  0  0  0  0  0  0  0
  -28.7122  -20.7145   23.0054 C   0  0  0  0  0  0  0  0  0  0  0  0
  -33.9864  -22.3377   24.5106 C   0  0  0  0  0  0  0  0  0  0  0  0
  -32.2364  -23.6083   23.1409 C   0  0  0  0  0  0  0  0  0  1  0  0
  -25.9133  -26.4782   25.7010 C   0  0  1  0  0  0  0  0  0  0  0  0
  -24.9473  -23.2658   27.4664 C   0  0  2  0  0  0  0  0  0  0  0  0
  -33.4281  -22.6479   23.1104 C   0  0  2  0  0  0  0  0  0  0  0  0
  -25.7720  -27.8517   26.4158 C   0  0  0  0  0  0  0  0  0  0  0  0
  -25.8021  -11.4715   20.3464 N   0  0  0  0  0  0  0  0  0  0  0  0
  -26.2108  -12.7383   20.1616 N   0  0  0  0  0  0  0  0  0  0  0  0
  -26.3091  -26.2087   23.2731 N   0  0  0  0  0  0  0  0  0  0  0  0
  -29.9504  -13.4597   20.4419 N   0  0  0  0  0  0  0  0  0  0  0  0
  -25.4864  -14.9911   20.2665 N   0  0  0  0  0  0  0  0  0  0  0  0
  -21.8138  -12.6582   21.4770 N   0  0  0  0  0  0  0  0  0  0  0  0
  -32.1401  -20.5697   23.0436 N   0  0  0  0  0  0  0  0  0  0  0  0
  -30.0737  -15.5929   21.4401 N   0  0  0  0  0  0  0  0  0  0  0  0
  -25.4056  -28.6680   21.1506 N   0  0  0  0  0  0  0  0  0  0  0  0
  -25.2207  -25.3823   26.3700 N   0  0  0  0  0  0  0  0  0  0  0  0
  -25.3900  -21.8680   27.1999 N   0  3  0  0  0  0  0  0  0  0  0  0
  -22.6443  -14.7635   21.1077 O   0  0  0  0  0  0  0  0  0  0  0  0
  -27.6145  -28.0090   21.4802 O   0  0  0  0  0  0  0  0  0  0  0  0
  -24.2012  -26.7825   24.0878 O   0  0  0  0  0  0  0  0  0  0  0  0
  -27.0915  -24.0457   26.6717 O   0  0  0  0  0  0  0  0  0  0  0  0
  -33.6506  -21.0683   21.3224 O   0  0  0  0  0  0  0  0  0  0  0  0
  -31.8709  -14.7323   20.2521 O   0  0  0  0  0  0  0  0  0  0  0  0
  -21.4152   -7.1156   21.8729 O   0  0  0  0  0  0  0  0  0  0  0  0
  -29.5228  -19.7905   23.7281 O   0  0  0  0  0  0  0  0  0  0  0  0
  -31.8517  -23.9330   21.8056 O   0  0  0  0  0  0  0  0  0  1  0  0
  -23.6707   -3.1724   24.9982 F   0  0  0  0  0  0  0  0  0  0  0  0
  -33.6530  -18.7857   21.5520 F   0  0  0  0  0  0  0  0  0  0  0  0
  -20.2785   -6.3964   24.2882 F   0  0  0  0  0  0  0  0  0  0  0  0
  -34.4276  -23.2829   22.4176 F   0  0  0  0  0  0  0  0  0  0  0  0
  1  2  1  0  0  0  0
  1  5  2  0  0  0  0
  2  6  2  0  0  0  0
  3  8  2  0  0  0  0
  3 17  1  0  0  0  0
  4  9  1  0  0  0  0
  4 17  2  0  0  0  0
  5 19  1  0  0  0  0
  6 21  1  0  0  0  0
  7 10  2  0  0  0  0
  7 20  1  0  0  0  0
  8 25  1  0  0  0  0
  9 25  2  0  0  0  0
 10 26  1  0  0  0  0
 11 12  2  0  0  0  0
 11 27  1  0  0  0  0
 12 29  1  0  0  0  0
 13 22  1  0  0  0  0
 13 26  2  0  0  0  0
 14 23  2  0  0  0  0
 14 28  1  0  0  0  0
 15 23  1  0  0  0  0
 15 30  2  0  0  0  0
 16 29  2  0  0  0  0
 16 31  1  0  0  0  0
 17 32  1  0  0  0  0
 18 32  1  0  0  0  0
 18 33  2  0  0  0  0
 18 34  1  0  0  0  0
 19 21  2  0  0  0  0
 19 40  1  0  0  0  0
 20 22  2  0  0  0  0
 20 41  1  0  0  0  0
 21 49  1  0  0  0  0
 22 42  1  0  0  0  0
 23 72  1  0  0  0  0
 24 28  2  0  0  0  0
 24 30  1  0  0  0  0
 24 71  1  0  0  0  0
 25 82  1  0  0  0  0
 26 84  1  0  0  0  0
 27 31  2  0  0  0  0
 27 82  1  0  0  0  0
 28 83  1  0  0  0  0
 29 85  1  0  0  0  0
 30 86  1  0  0  0  0
 31 87  1  0  0  0  0
 32 65  2  0  0  0  0
 33 66  1  0  0  0  0
 33 69  1  0  0  0  0
 34 70  1  0  0  0  0
 34 76  2  0  0  0  0
 35 50  1  0  0  0  0
 35 73  1  0  0  0  0
 35 77  2  0  0  0  0
 36 61  1  0  0  0  0
 36 67  1  0  0  0  0
 36 78  2  0  0  0  0
 37 62  1  0  0  0  0
 37 74  1  0  0  0  0
 37 79  2  0  0  0  0
 38 63  1  0  0  0  0
 38 71  1  0  0  0  0
 38 80  2  0  0  0  0
 39 68  1  0  0  0  0
 39 72  1  0  0  0  0
 39 81  2  0  0  0  0
 40 43  1  0  0  0  0
 41 50  1  0  0  0  0
 42 67  1  0  0  0  0
 43 45  1  0  0  0  0
 44 46  1  0  0  0  0
 44 47  1  0  0  0  0
 45 49  1  0  0  0  0
 46 51  1  0  0  0  0
 47 68  1  0  0  0  0
 48 51  1  0  0  0  0
 48 68  1  0  0  0  0
 49 73  1  0  0  0  0
 50 67  1  0  0  0  0
 51 66  1  0  0  0  0
 52 59  1  0  0  0  0
 53 62  1  0  0  0  0
 54 64  1  0  0  0  0
 55 64  1  0  0  0  0
 56 64  1  0  0  0  0
 57 75  1  0  0  0  0
 58 83  1  0  0  0  0
 59 63  1  0  0  0  0
 60 63  1  0  0  0  0
 60 84  1  0  0  0  0
 61 64  1  0  0  0  0
 61 74  1  0  0  0  0
 62 75  1  0  0  0  0
 63 88  1  0  0  0  0
 65 66  1  0  0  0  0
M  CHG  1  75   1
M  ISO  4  39 100  60 101  72 100  84 101
M  END
> <Batch ID>
0173

> <Smiles>
CCC(F)(C(=O)Nc1c(F)cc([100NH:0][100C:0](=O)N2CCCC(n3nc(-c4ccc(Oc5ccc(F)cc5F)cc4)c(C(N)=O)c3N)C2)cc1OC)[101CH2:1][101O:1]c1ccc2c(c1)CN(C(=O)C(NC(=O)C(C)NC)C(C)(C)C)C(C(=O)NC1CCCc3ccccc31)C2

> <Shape>
0.251

> <Color>
0.199

> <Negative vol penalty>
0.000

$$$$

  -OEChem-04052304293D

 87 95  0     1  0  0  0  0  0999 V2000
  -27.3089  -37.2691   19.2591 C   0  0  0  0  0  0  0  0  0  0  0  0
  -27.7869  -35.9767   19.0674 C   0  0  0  0  0  0  0  0  0  0  0  0
  -24.8254   -9.0829   21.6324 C   0  0  0  0  0  0  0  0  0  0  0  0
  -23.2291  -10.5755   20.6024 C   0  0  0  0  0  0  0  0  0  0  0  0
  -26.5078  -37.5582   20.3629 C   0  0  0  0  0  0  0  0  0  0  0  0
  -27.4649  -34.9729   19.9802 C   0  0  0  0  0  0  0  0  0  0  0  0
  -26.4877  -29.0536   18.7502 C   0  0  0  0  0  0  0  0  0  0  0  0
  -23.8156   -8.5606   22.4405 C   0  0  0  0  0  0  0  0  0  0  0  0
  -22.2192  -10.0531   21.4104 C   0  0  0  0  0  0  0  0  0  0  0  0
  -27.3040  -27.9278   18.8495 C   0  0  0  0  0  0  0  0  0  0  0  0
  -21.5861   -6.5822   24.5213 C   0  0  0  0  0  0  0  0  0  0  0  0
  -21.5214   -5.1961   24.6640 C   0  0  0  0  0  0  0  0  0  0  0  0
  -26.3639  -27.4450   21.0180 C   0  0  0  0  0  0  0  0  0  0  0  0
  -21.2081   -4.9654   22.2795 C   0  0  0  0  0  0  0  0  0  0  0  0
  -24.5322  -10.0905   20.7133 C   0  0  0  0  0  0  0  0  0  0  0  0
  -25.9682  -10.1738   18.6066 C   0  0  0  0  0  0  0  0  0  0  0  0
  -26.1679  -36.5553   21.2845 C   0  0  0  0  0  0  0  0  0  0  0  0
  -25.6097  -29.3903   19.7905 C   0  0  0  0  0  0  0  0  0  0  0  0
  -26.6596  -35.2492   21.0981 C   0  0  0  0  0  0  0  0  0  0  0  0
  -25.5357  -28.5742   20.9283 C   0  0  0  0  0  0  0  0  0  0  0  0
  -22.5125   -9.0456   22.3295 C   0  0  0  0  0  0  0  0  0  0  0  0
  -27.2443  -27.1249   19.9848 C   0  0  0  0  0  0  0  0  0  0  0  0
  -21.4617   -7.1598   23.2578 C   0  0  0  0  0  0  0  0  0  0  0  0
  -21.3324   -4.3878   23.5431 C   0  0  0  0  0  0  0  0  0  0  0  0
  -21.2727   -6.3515   22.1369 C   0  0  0  0  0  0  0  0  0  0  0  0
  -25.5750  -10.6308   19.8787 C   0  0  0  0  0  0  0  0  0  0  0  0
  -26.6069  -20.1285   17.8282 C   0  0  0  0  0  0  0  0  0  0  0  0
  -26.9901  -11.0153   18.2402 C   0  0  0  0  0  0  0  0  0  0  0  0
  -25.3571  -19.6871   17.4470 C   0  0  0  0  0  0  0  0  0  0  0  0
  -26.7423  -18.0705   18.5740 C   0  0  0  0  0  0  0  0  0  0  0  0
  -25.4555   -9.0860   17.8258 C   0  0  0  0  0  0  0  0  0  0  0  0
  -27.1111  -21.5040   17.5816 C   0  0  0  0  0  0  0  0  0  0  0  0
  -25.2986  -31.8759   21.7472 C   0  0  0  0  0  0  0  0  0  0  0  0
  -30.5210  -22.9680   17.7129 C   0  0  0  0  0  0  0  0  0  0  0  0
  -28.6127  -23.8863   19.1046 C   0  0  0  0  0  0  0  0  0  0  0  0
  -22.6104  -30.3142   22.6729 C   0  0  0  0  0  0  0  0  0  0  0  0
  -20.9179  -27.3618   22.9294 C   0  0  0  0  0  0  0  0  0  0  0  0
  -28.4149  -16.6135   19.7682 C   0  0  0  0  0  0  0  0  0  0  0  0
  -25.3381  -36.9264   22.4880 C   0  0  0  0  0  0  0  0  0  0  0  0
  -24.7166  -30.5931   19.6563 C   0  0  0  0  0  0  0  0  0  0  0  0
  -24.5954  -28.8807   22.0642 C   0  0  0  0  0  0  0  0  0  0  0  0
  -24.7341  -35.7223   23.2061 C   0  0  0  0  0  0  0  0  0  0  0  0
  -30.4657  -13.7238   20.1159 C   0  0  0  0  0  0  0  0  0  0  0  0
  -25.7855  -34.6344   23.4011 C   0  0  0  0  0  0  0  0  0  0  0  0
  -29.4809  -12.5610   19.9727 C   0  0  0  0  0  0  0  0  0  0  0  0
  -29.8460  -14.9029   20.8639 C   0  0  0  0  0  0  0  0  0  0  0  0
  -27.5815  -14.2152   20.1796 C   0  0  0  0  0  0  0  0  0  0  0  0
  -26.3118  -34.1278   22.0528 C   0  0  1  0  0  0  0  0  0  0  0  0
  -24.2305  -31.1291   20.9994 C   0  0  1  0  0  0  0  0  0  0  0  0
  -28.1392  -13.0291   19.3759 C   0  0  2  0  0  0  0  0  0  0  0  0
  -31.2271  -23.9813   16.8481 C   0  0  0  0  0  0  0  0  0  0  0  0
  -18.7577  -26.3957   23.7646 C   0  0  0  0  0  0  0  0  0  0  0  0
  -23.6337  -30.5117   25.5406 C   0  0  0  0  0  0  0  0  0  0  0  0
  -21.9728  -28.7510   26.1807 C   0  0  0  0  0  0  0  0  0  0  0  0
  -21.1836  -30.9375   25.2756 C   0  0  0  0  0  0  0  0  0  0  0  0
  -20.1548  -26.4305   20.2258 C   0  0  0  0  0  0  0  0  0  0  0  0
  -28.3948  -25.3679   18.8689 C   0  0  0  0  0  0  0  0  0  1  0  0
  -29.0144  -23.0651   17.8925 C   0  0  2  0  0  0  0  0  0  0  0  0
  -22.2837  -29.2762   23.7193 C   0  0  1  0  0  0  0  0  0  0  0  0
  -19.4925  -26.9834   22.5698 C   0  0  2  0  0  0  0  0  0  0  0  0
  -22.2877  -29.8641   25.1587 C   0  0  0  0  0  0  0  0  0  0  0  0
  -26.2889  -11.6810   20.2927 N   0  0  0  0  0  0  0  0  0  0  0  0
  -27.4024  -19.2029   18.4750 N   0  0  0  0  0  0  0  0  0  0  0  0
  -27.1411  -11.8908   19.2750 N   0  0  0  0  0  0  0  0  0  0  0  0
  -23.7470  -30.0711   21.8887 N   0  0  0  0  0  0  0  0  0  0  0  0
  -28.5802  -15.2940   20.2397 N   0  0  0  0  0  0  0  0  0  0  0  0
  -27.7652  -11.0842   17.1371 N   0  0  0  0  0  0  0  0  0  0  0  0
  -24.4040   -8.3233   18.3520 N   0  0  0  0  0  0  0  0  0  0  0  0
  -27.1822  -16.8599   19.1645 N   0  0  0  0  0  0  0  0  0  0  0  0
  -28.3974  -21.7759   18.0349 N   0  0  0  0  0  0  0  0  0  0  0  0
  -25.3589  -33.2232   21.4460 N   0  0  0  0  0  0  0  0  0  0  0  0
  -21.0130  -28.6806   23.3206 N   0  0  0  0  0  0  0  0  0  0  0  0
  -19.4853  -25.9760   21.4716 N   0  3  0  0  0  0  0  0  0  0  0  0
  -25.9272   -8.7886   16.7022 O   0  0  0  0  0  0  0  0  0  0  0  0
  -26.3817  -22.3193   17.0234 O   0  0  0  0  0  0  0  0  0  0  0  0
  -26.0140  -31.2746   22.5398 O   0  0  0  0  0  0  0  0  0  0  0  0
  -31.1662  -22.0966   18.3014 O   0  0  0  0  0  0  0  0  0  0  0  0
  -28.5028  -23.3837   20.2232 O   0  0  0  0  0  0  0  0  0  0  0  0
  -21.8799  -31.3006   22.5509 O   0  0  0  0  0  0  0  0  0  0  0  0
  -21.8528  -26.5660   22.8727 O   0  0  0  0  0  0  0  0  0  0  0  0
  -29.3117  -17.4549   19.8665 O   0  0  0  0  0  0  0  0  0  0  0  0
  -21.5269   -8.5360   23.1177 O   0  0  0  0  0  0  0  0  0  0  0  0
  -28.0404  -26.0257   20.0846 O   0  0  0  0  0  0  0  0  0  1  0  0
  -21.2719   -3.0567   23.6800 F   0  0  0  0  0  0  0  0  0  0  0  0
  -21.1538   -6.9006   20.9203 F   0  0  0  0  0  0  0  0  0  0  0  0
  -24.4362  -20.4180   16.8131 F   0  0  0  0  0  0  0  0  0  0  0  0
  -25.1599  -18.0477   17.9103 S   0  0  0  0  0  0  0  0  0  0  0  0
  1  2  1  0  0  0  0
  1  5  2  0  0  0  0
  2  6  2  0  0  0  0
  3  8  2  0  0  0  0
  3 15  1  0  0  0  0
  4  9  1  0  0  0  0
  4 15  2  0  0  0  0
  5 17  1  0  0  0  0
  6 19  1  0  0  0  0
  7 10  2  0  0  0  0
  7 18  1  0  0  0  0
  8 21  1  0  0  0  0
  9 21  2  0  0  0  0
 10 22  1  0  0  0  0
 11 12  2  0  0  0  0
 11 23  1  0  0  0  0
 12 24  1  0  0  0  0
 13 20  1  0  0  0  0
 13 22  2  0  0  0  0
 14 24  2  0  0  0  0
 14 25  1  0  0  0  0
 15 26  1  0  0  0  0
 16 26  1  0  0  0  0
 16 28  2  0  0  0  0
 16 31  1  0  0  0  0
 17 19  2  0  0  0  0
 17 39  1  0  0  0  0
 18 20  2  0  0  0  0
 18 40  1  0  0  0  0
 19 48  1  0  0  0  0
 20 41  1  0  0  0  0
 21 82  1  0  0  0  0
 22 83  1  0  0  0  0
 23 25  2  0  0  0  0
 23 82  1  0  0  0  0
 24 84  1  0  0  0  0
 25 85  1  0  0  0  0
 26 62  2  0  0  0  0
 27 29  2  0  0  0  0
 27 32  1  0  0  0  0
 27 63  1  0  0  0  0
 28 64  1  0  0  0  0
 28 67  1  0  0  0  0
 29 86  1  0  0  0  0
 29 87  1  0  0  0  0
 30 63  2  0  0  0  0
 30 69  1  0  0  0  0
 30 87  1  0  0  0  0
 31 68  1  0  0  0  0
 31 74  2  0  0  0  0
 32 70  1  0  0  0  0
 32 75  2  0  0  0  0
 33 49  1  0  0  0  0
 33 71  1  0  0  0  0
 33 76  2  0  0  0  0
 34 51  1  0  0  0  0
 34 58  1  0  0  0  0
 34 77  2  0  0  0  0
 35 57  1  0  0  0  0
 35 58  1  0  0  0  0
 35 78  2  0  0  0  0
 36 59  1  0  0  0  0
 36 65  1  0  0  0  0
 36 79  2  0  0  0  0
 37 60  1  0  0  0  0
 37 72  1  0  0  0  0
 37 80  2  0  0  0  0
 38 66  1  0  0  0  0
 38 69  1  0  0  0  0
 38 81  2  0  0  0  0
 39 42  1  0  0  0  0
 40 49  1  0  0  0  0
 41 65  1  0  0  0  0
 42 44  1  0  0  0  0
 43 45  1  0  0  0  0
 43 46  1  0  0  0  0
 44 48  1  0  0  0  0
 45 50  1  0  0  0  0
 46 66  1  0  0  0  0
 47 50  1  0  0  0  0
 47 66  1  0  0  0  0
 48 71  1  0  0  0  0
 49 65  1  0  0  0  0
 50 64  1  0  0  0  0
 52 60  1  0  0  0  0
 53 61  1  0  0  0  0
 54 61  1  0  0  0  0
 55 61  1  0  0  0  0
 56 73  1  0  0  0  0
 57 83  1  0  0  0  0
 58 70  1  0  0  0  0
 59 61  1  0  0  0  0
 59 72  1  0  0  0  0
 60 73  1  0  0  0  0
 62 64  1  0  0  0  0
M  CHG  1  73   1
M  ISO  4  38 100  57 101  69 100  83 101
M  END
> <Batch ID>
0173

> <Smiles>
CNC(C)C(=O)NC(C(=O)N1Cc2cc([101O:1][101CH2:1]C(=O)C(NC(=O)c3nc([100NH:0][100C:0](=O)N4CCCC(n5nc(-c6ccc(Oc7ccc(F)cc7F)cc6)c(C(N)=O)c5N)C4)sc3F)C(C)=O)ccc2CC1C(=O)NC1CCCc2ccccc21)C(C)(C)C

> <Shape>
0.321

> <Color>
0.096

> <Negative vol penalty>
0.000

$$$$

  -OEChem-04052304293D

 83 91  0     1  0  0  0  0  0999 V2000
  -26.3629  -37.7745   21.5995 C   0  0  0  0  0  0  0  0  0  0  0  0
  -27.0674  -36.6243   21.2587 C   0  0  0  0  0  0  0  0  0  0  0  0
  -24.1837  -10.3586   23.0977 C   0  0  0  0  0  0  0  0  0  0  0  0
  -23.4953  -12.6663   23.2913 C   0  0  0  0  0  0  0  0  0  0  0  0
  -25.3165  -37.7032   22.5180 C   0  0  0  0  0  0  0  0  0  0  0  0
  -26.7264  -35.4022   21.8371 C   0  0  0  0  0  0  0  0  0  0  0  0
  -26.9671  -29.8832   19.1935 C   0  0  0  0  0  0  0  0  0  0  0  0
  -23.5815  -10.0760   24.3237 C   0  0  0  0  0  0  0  0  0  0  0  0
  -22.8930  -12.3838   24.5173 C   0  0  0  0  0  0  0  0  0  0  0  0
  -27.9122  -28.8595   19.2437 C   0  0  0  0  0  0  0  0  0  0  0  0
  -20.4595   -9.5155   25.4949 C   0  0  0  0  0  0  0  0  0  0  0  0
  -19.6793   -8.3626   25.5835 C   0  0  0  0  0  0  0  0  0  0  0  0
  -26.6338  -27.7726   20.9768 C   0  0  0  0  0  0  0  0  0  0  0  0
  -30.4388  -18.5531   19.5126 C   0  0  0  0  0  0  0  0  0  0  0  0
  -21.1302   -7.5142   27.3191 C   0  0  0  0  0  0  0  0  0  0  0  0
  -28.1916  -18.8381   20.2376 C   0  0  0  0  0  0  0  0  0  0  0  0
  -24.1407  -11.6538   22.5815 C   0  0  0  0  0  0  0  0  0  0  0  0
  -24.1703  -11.8767   20.0405 C   0  0  0  0  0  0  0  0  0  0  0  0
  -24.9562  -36.4779   23.1008 C   0  0  0  0  0  0  0  0  0  0  0  0
  -25.8520  -29.8648   20.0435 C   0  0  0  0  0  0  0  0  0  0  0  0
  -25.6750  -35.3146   22.7654 C   0  0  0  0  0  0  0  0  0  0  0  0
  -25.6747  -28.7959   20.9335 C   0  0  0  0  0  0  0  0  0  0  0  0
  -30.5448  -19.9347   19.3973 C   0  0  0  0  0  0  0  0  0  0  0  0
  -29.2432  -17.9864   19.9401 C   0  0  0  0  0  0  0  0  0  0  0  0
  -22.9361  -11.0886   25.0335 C   0  0  0  0  0  0  0  0  0  0  0  0
  -27.7472  -27.8054   20.1375 C   0  0  0  0  0  0  0  0  0  0  0  0
  -21.5750   -9.6677   26.3183 C   0  0  0  0  0  0  0  0  0  0  0  0
  -20.0147   -7.3620   26.4956 C   0  0  0  0  0  0  0  0  0  0  0  0
  -21.9104   -8.6671   27.2305 C   0  0  0  0  0  0  0  0  0  0  0  0
  -24.7631  -11.9464   21.3154 C   0  0  0  0  0  0  0  0  0  0  0  0
  -29.4349  -20.6992   19.7190 C   0  0  0  0  0  0  0  0  0  0  0  0
  -25.1706  -12.2486   19.1759 C   0  0  0  0  0  0  0  0  0  0  0  0
  -22.8347  -11.5089   19.6707 C   0  0  0  0  0  0  0  0  0  0  0  0
  -24.7577  -31.7596   22.3492 C   0  0  0  0  0  0  0  0  0  0  0  0
  -29.0511  -24.4260   19.9326 C   0  0  0  0  0  0  0  0  0  0  0  0
  -22.2164  -29.7454   22.2630 C   0  0  0  0  0  0  0  0  0  0  0  0
  -20.9934  -26.6558   21.4847 C   0  0  0  0  0  0  0  0  0  0  0  0
  -30.0702  -15.6105   19.8058 C   0  0  0  0  0  0  0  0  0  0  0  0
  -23.8486  -36.4586   24.1242 C   0  0  0  0  0  0  0  0  0  0  0  0
  -24.8277  -30.9630   19.9583 C   0  0  0  0  0  0  0  0  0  0  0  0
  -24.4844  -28.7189   21.8532 C   0  0  0  0  0  0  0  0  0  0  0  0
  -23.3069  -35.0601   24.4092 C   0  0  0  0  0  0  0  0  0  0  0  0
  -29.9388  -12.2187   18.7310 C   0  0  0  0  0  0  0  0  0  0  0  0
  -24.4534  -34.0750   24.6138 C   0  0  0  0  0  0  0  0  0  0  0  0
  -28.5404  -11.7594   19.1503 C   0  0  0  0  0  0  0  0  0  0  0  0
  -30.5525  -13.1734   19.7535 C   0  0  0  0  0  0  0  0  0  0  0  0
  -28.3182  -13.8694   20.5234 C   0  0  0  0  0  0  0  0  0  0  0  0
  -25.3190  -33.9661   23.3527 C   0  0  1  0  0  0  0  0  0  0  0  0
  -23.9975  -31.1057   21.2301 C   0  0  1  0  0  0  0  0  0  0  0  0
  -27.6330  -12.9572   19.4929 C   0  0  2  0  0  0  0  0  0  0  0  0
  -31.8280  -20.5389   18.9382 C   0  0  0  0  0  0  0  0  0  0  0  0
  -18.8871  -25.2940   21.5628 C   0  0  0  0  0  0  0  0  0  0  0  0
  -22.5834  -29.3547   25.2668 C   0  0  0  0  0  0  0  0  0  0  0  0
  -21.1244  -27.3260   25.1106 C   0  0  0  0  0  0  0  0  0  0  0  0
  -20.2045  -29.5697   24.5257 C   0  0  0  0  0  0  0  0  0  0  0  0
  -20.9595  -26.3266   18.5437 C   0  0  0  0  0  0  0  0  0  0  0  0
  -28.6570  -23.0043   20.2728 C   0  0  0  0  0  0  0  0  0  0  0  0
  -28.2013  -25.5106   20.5657 C   0  0  0  0  0  0  0  0  0  1  0  0
  -21.8488  -28.4577   22.9599 C   0  0  1  0  0  0  0  0  0  0  0  0
  -19.7502  -26.2262   20.7269 C   0  0  2  0  0  0  0  0  0  0  0  0
  -21.4638  -28.6792   24.4499 C   0  0  0  0  0  0  0  0  0  0  0  0
  -28.2569  -20.1847   20.1377 N   0  0  0  0  0  0  0  0  0  0  0  0
  -26.0411  -12.3320   21.2695 N   0  0  0  0  0  0  0  0  0  0  0  0
  -26.2595  -12.5079   19.9551 N   0  0  0  0  0  0  0  0  0  0  0  0
  -23.5139  -29.8198   21.7367 N   0  0  0  0  0  0  0  0  0  0  0  0
  -29.6388  -14.2852   20.0254 N   0  0  0  0  0  0  0  0  0  0  0  0
  -25.2163  -12.3756   17.8327 N   0  0  0  0  0  0  0  0  0  0  0  0
  -21.9344  -11.1544   20.6847 N   0  0  0  0  0  0  0  0  0  0  0  0
  -29.1046  -16.5820   20.0677 N   0  0  0  0  0  0  0  0  0  0  0  0
  -29.5357  -22.0783   19.6052 N   0  0  0  0  0  0  0  0  0  0  0  0
  -24.6659  -33.1383   22.3614 N   0  0  0  0  0  0  0  0  0  0  0  0
  -20.7973  -27.8442   22.1559 N   0  0  0  0  0  0  0  0  0  0  0  0
  -20.1278  -25.5175   19.4715 N   0  3  0  0  0  0  0  0  0  0  0  0
  -22.4559  -11.4790   18.4753 O   0  0  0  0  0  0  0  0  0  0  0  0
  -25.3801  -31.0646   23.1437 O   0  0  0  0  0  0  0  0  0  0  0  0
  -29.9963  -24.6954   19.1924 O   0  0  0  0  0  0  0  0  0  0  0  0
  -21.3808  -30.6491   22.1821 O   0  0  0  0  0  0  0  0  0  0  0  0
  -22.0333  -26.0007   21.4845 O   0  0  0  0  0  0  0  0  0  0  0  0
  -31.2031  -15.8635   19.3883 O   0  0  0  0  0  0  0  0  0  0  0  0
  -22.3481  -10.8132   26.2297 O   0  0  0  0  0  0  0  0  0  0  0  0
  -28.6685  -26.8053   20.1891 O   0  0  0  0  0  0  0  0  0  1  0  0
  -19.2645   -6.2556   26.5816 F   0  0  0  0  0  0  0  0  0  0  0  0
  -22.9802   -8.8082   28.0250 F   0  0  0  0  0  0  0  0  0  0  0  0
  1  2  1  0  0  0  0
  1  5  2  0  0  0  0
  2  6  2  0  0  0  0
  3  8  2  0  0  0  0
  3 17  1  0  0  0  0
  4  9  1  0  0  0  0
  4 17  2  0  0  0  0
  5 19  1  0  0  0  0
  6 21  1  0  0  0  0
  7 10  2  0  0  0  0
  7 20  1  0  0  0  0
  8 25  1  0  0  0  0
  9 25  2  0  0  0  0
 10 26  1  0  0  0  0
 11 12  2  0  0  0  0
 11 27  1  0  0  0  0
 12 28  1  0  0  0  0
 13 22  1  0  0  0  0
 13 26  2  0  0  0  0
 14 23  1  0  0  0  0
 14 24  2  0  0  0  0
 15 28  2  0  0  0  0
 15 29  1  0  0  0  0
 16 24  1  0  0  0  0
 16 62  2  0  0  0  0
 17 30  1  0  0  0  0
 18 30  1  0  0  0  0
 18 32  2  0  0  0  0
 18 33  1  0  0  0  0
 19 21  2  0  0  0  0
 19 39  1  0  0  0  0
 20 22  2  0  0  0  0
 20 40  1  0  0  0  0
 21 48  1  0  0  0  0
 22 41  1  0  0  0  0
 23 31  2  0  0  0  0
 23 51  1  0  0  0  0
 24 69  1  0  0  0  0
 25 80  1  0  0  0  0
 26 81  1  0  0  0  0
 27 29  2  0  0  0  0
 27 80  1  0  0  0  0
 28 82  1  0  0  0  0
 29 83  1  0  0  0  0
 30 63  2  0  0  0  0
 31 62  1  0  0  0  0
 31 70  1  0  0  0  0
 32 64  1  0  0  0  0
 32 67  1  0  0  0  0
 33 68  1  0  0  0  0
 33 74  2  0  0  0  0
 34 49  1  0  0  0  0
 34 71  1  0  0  0  0
 34 75  2  0  0  0  0
 35 57  1  0  0  0  0
 35 58  1  0  0  0  0
 35 76  2  0  0  0  0
 36 59  1  0  0  0  0
 36 65  1  0  0  0  0
 36 77  2  0  0  0  0
 37 60  1  0  0  0  0
 37 72  1  0  0  0  0
 37 78  2  0  0  0  0
 38 66  1  0  0  0  0
 38 69  1  0  0  0  0
 38 79  2  0  0  0  0
 39 42  1  0  0  0  0
 40 49  1  0  0  0  0
 41 65  1  0  0  0  0
 42 44  1  0  0  0  0
 43 45  1  0  0  0  0
 43 46  1  0  0  0  0
 44 48  1  0  0  0  0
 45 50  1  0  0  0  0
 46 66  1  0  0  0  0
 47 50  1  0  0  0  0
 47 66  1  0  0  0  0
 48 71  1  0  0  0  0
 49 65  1  0  0  0  0
 50 64  1  0  0  0  0
 52 60  1  0  0  0  0
 53 61  1  0  0  0  0
 54 61  1  0  0  0  0
 55 61  1  0  0  0  0
 56 73  1  0  0  0  0
 57 70  1  0  0  0  0
 58 81  1  0  0  0  0
 59 61  1  0  0  0  0
 59 72  1  0  0  0  0
 60 73  1  0  0  0  0
 63 64  1  0  0  0  0
M  CHG  1  73   1
M  ISO  4  38 100  58 101  69 100  81 101
M  END
> <Batch ID>
0173

> <Smiles>
CNC(C)C(=O)NC(C(=O)N1Cc2cc([101O:1][101CH2:1]C(=O)CNc3ncc([100NH:0][100C:0](=O)N4CCCC(n5nc(-c6ccc(Oc7ccc(F)cc7F)cc6)c(C(N)=O)c5N)C4)cc3C)ccc2CC1C(=O)NC1CCCc2ccccc21)C(C)(C)C

> <Shape>
0.316

> <Color>
0.099

> <Negative vol penalty>
0.000

$$$$

  -OEChem-04052304293D

 90 98  0     1  0  0  0  0  0999 V2000
  -17.4084  -14.7384   22.5773 C   0  0  0  0  0  0  0  0  0  0  0  0
  -18.5118  -15.5664   22.7571 C   0  0  0  0  0  0  0  0  0  0  0  0
  -20.8555  -28.9222   20.9108 C   0  0  0  0  0  0  0  0  0  0  0  0
  -22.1770  -27.3092   22.1310 C   0  0  0  0  0  0  0  0  0  0  0  0
  -17.5643  -13.3534   22.6135 C   0  0  0  0  0  0  0  0  0  0  0  0
  -19.7717  -15.0097   22.9744 C   0  0  0  0  0  0  0  0  0  0  0  0
  -23.3872  -17.2557   20.2305 C   0  0  0  0  0  0  0  0  0  0  0  0
  -19.7034  -28.1850   21.1839 C   0  0  0  0  0  0  0  0  0  0  0  0
  -21.0249  -26.5720   22.4042 C   0  0  0  0  0  0  0  0  0  0  0  0
  -23.8602  -18.4858   20.6855 C   0  0  0  0  0  0  0  0  0  0  0  0
  -16.3648  -26.9188   21.8663 C   0  0  0  0  0  0  0  0  0  0  0  0
  -15.2321  -27.6170   22.2847 C   0  0  0  0  0  0  0  0  0  0  0  0
  -25.7836  -17.3864   21.6400 C   0  0  0  0  0  0  0  0  0  0  0  0
  -29.6476  -25.2025   19.6974 C   0  0  0  0  0  0  0  0  0  0  0  0
  -30.1179  -25.3781   17.3342 C   0  0  0  0  0  0  0  0  0  0  0  0
  -16.4499  -28.4446   24.2002 C   0  0  0  0  0  0  0  0  0  0  0  0
  -22.0924  -28.4843   21.3843 C   0  0  0  0  0  0  0  0  0  0  0  0
  -23.8328  -30.2827   21.8784 C   0  0  0  0  0  0  0  0  0  0  0  0
  -18.8284  -12.7794   22.8217 C   0  0  0  0  0  0  0  0  0  0  0  0
  -24.1046  -16.0784   20.4868 C   0  0  0  0  0  0  0  0  0  0  0  0
  -19.9445  -13.6157   23.0147 C   0  0  0  0  0  0  0  0  0  0  0  0
  -25.3188  -16.1429   21.1850 C   0  0  0  0  0  0  0  0  0  0  0  0
  -30.3852  -24.0202   19.7564 C   0  0  0  0  0  0  0  0  0  0  0  0
  -29.5139  -25.8815   18.4863 C   0  0  0  0  0  0  0  0  0  0  0  0
  -19.7880  -27.0099   21.9307 C   0  0  0  0  0  0  0  0  0  0  0  0
  -25.0571  -18.5509   21.3929 C   0  0  0  0  0  0  0  0  0  0  0  0
  -17.5400  -26.9834   22.6148 C   0  0  0  0  0  0  0  0  0  0  0  0
  -15.2747  -28.3800   23.4517 C   0  0  0  0  0  0  0  0  0  0  0  0
  -30.8556  -24.1957   17.3932 C   0  0  0  0  0  0  0  0  0  0  0  0
  -17.5826  -27.7464   23.7818 C   0  0  0  0  0  0  0  0  0  0  0  0
  -30.9892  -23.5168   18.6043 C   0  0  0  0  0  0  0  0  0  0  0  0
  -23.2830  -29.2451   21.1020 C   0  0  0  0  0  0  0  0  0  0  0  0
  -24.9521  -30.6741   21.1853 C   0  0  0  0  0  0  0  0  0  0  0  0
  -26.7417  -20.1734   21.3942 C   0  0  0  0  0  0  0  0  0  1  0  0
  -23.3730  -30.8426   23.1156 C   0  0  0  0  0  0  0  0  0  0  0  0
  -27.3613  -21.3188   21.7193 C   0  0  0  0  0  0  0  0  0  0  0  0
  -28.7039  -21.5877   21.1118 C   0  0  0  0  0  0  0  0  0  0  0  0
  -23.5126  -13.3929   22.0810 C   0  0  0  0  0  0  0  0  0  0  0  0
  -31.8172  -23.3651   23.2819 C   0  0  0  0  0  0  0  0  0  0  0  0
  -26.3624  -12.4807   20.8285 C   0  0  0  0  0  0  0  0  0  0  0  0
  -29.3850  -13.3964   19.5355 C   0  0  0  0  0  0  0  0  0  0  0  0
  -28.5355  -27.8799   17.3049 C   0  0  0  0  0  0  0  0  0  0  0  0
  -18.9396  -11.2774   22.8998 C   0  0  0  0  0  0  0  0  0  0  0  0
  -23.5944  -14.7627   19.9661 C   0  0  0  0  0  0  0  0  0  0  0  0
  -26.1370  -14.9106   21.4686 C   0  0  0  0  0  0  0  0  0  0  0  0
  -20.3708  -10.7646   22.7617 C   0  0  0  0  0  0  0  0  0  0  0  0
  -26.7188  -30.8893   16.7393 C   0  0  0  0  0  0  0  0  0  0  0  0
  -21.3154  -11.5738   23.6448 C   0  0  0  0  0  0  0  0  0  0  0  0
  -25.6856  -30.9067   17.8681 C   0  0  0  0  0  0  0  0  0  0  0  0
  -26.9682  -29.4743   16.2204 C   0  0  0  0  0  0  0  0  0  0  0  0
  -26.2838  -28.5051   18.3794 C   0  0  0  0  0  0  0  0  0  0  0  0
  -21.3315  -13.0495   23.2282 C   0  0  1  0  0  0  0  0  0  0  0  0
  -24.1470  -13.5631   20.7296 C   0  0  1  0  0  0  0  0  0  0  0  0
  -26.0473  -29.9010   18.9787 C   0  0  2  0  0  0  0  0  0  0  0  0
  -32.5448  -24.1681   24.3294 C   0  0  0  0  0  0  0  0  0  0  0  0
  -31.5177  -12.4275   18.6355 C   0  0  0  0  0  0  0  0  0  0  0  0
  -27.2563  -11.8162   23.6691 C   0  0  0  0  0  0  0  0  0  0  0  0
  -29.6188  -11.7749   22.8415 C   0  0  0  0  0  0  0  0  0  0  0  0
  -27.9545  -10.1505   21.9393 C   0  0  0  0  0  0  0  0  0  0  0  0
  -28.9783  -14.6590   16.8898 C   0  0  0  0  0  0  0  0  0  0  0  0
  -31.1955  -24.1612   22.1428 C   0  0  0  0  0  0  0  0  0  0  0  0
  -30.5275  -23.2840   21.0732 C   0  0  1  0  0  0  0  0  0  0  0  0
  -27.8038  -12.5826   21.2652 C   0  0  1  0  0  0  0  0  0  0  0  0
  -30.1283  -12.9417   18.2924 C   0  0  2  0  0  0  0  0  0  0  0  0
  -28.1422  -11.6042   22.4253 C   0  0  0  0  0  0  0  0  0  0  0  0
  -23.9943  -28.9934   19.9998 N   0  0  0  0  0  0  0  0  0  0  0  0
  -25.0025  -29.8784   20.0787 N   0  0  0  0  0  0  0  0  0  0  0  0
  -25.5930  -13.6471   20.9443 N   0  0  0  0  0  0  0  0  0  0  0  0
  -27.3097  -28.5783   17.3273 N   0  0  0  0  0  0  0  0  0  0  0  0
  -25.8883  -31.6179   21.4204 N   0  0  0  0  0  0  0  0  0  0  0  0
  -22.2056  -30.3228   23.6913 N   0  0  0  0  0  0  0  0  0  0  0  0
  -28.7658  -27.0834   18.4262 N   0  0  0  0  0  0  0  0  0  0  0  0
  -29.2424  -22.7957   21.5204 N   0  0  0  0  0  0  0  0  0  0  0  0
  -22.1408  -13.2310   22.0422 N   0  0  0  0  0  0  0  0  0  0  0  0
  -28.6090  -12.3869   20.0644 N   0  0  0  0  0  0  0  0  0  0  0  0
  -30.2696  -14.0717   17.3310 N   0  3  0  0  0  0  0  0  0  0  0  0
  -23.9703  -31.7873   23.6852 O   0  0  0  0  0  0  0  0  0  0  0  0
  -29.2408  -20.8012   20.3367 O   0  0  0  0  0  0  0  0  0  0  0  0
  -24.2157  -13.4059   23.0845 O   0  0  0  0  0  0  0  0  0  0  0  0
  -31.7548  -22.1391   23.3563 O   0  0  0  0  0  0  0  0  0  0  0  0
  -25.9366  -11.4076   20.3937 O   0  0  0  0  0  0  0  0  0  0  0  0
  -29.4858  -14.5324   19.9937 O   0  0  0  0  0  0  0  0  0  0  0  0
  -29.3350  -28.0020   16.3734 O   0  0  0  0  0  0  0  0  0  0  0  0
  -26.8430  -22.2658   22.5751 O   0  0  0  0  0  0  0  0  0  0  0  0
  -18.6640  -26.2903   22.1976 O   0  0  0  0  0  0  0  0  0  0  0  0
  -25.5206  -19.7502   21.8386 O   0  0  0  0  0  0  0  0  0  1  0  0
  -14.1873  -29.0516   23.8526 F   0  0  0  0  0  0  0  0  0  0  0  0
  -31.4358  -23.7124   16.2870 F   0  0  0  0  0  0  0  0  0  0  0  0
  -18.7092  -27.8132   24.5044 F   0  0  0  0  0  0  0  0  0  0  0  0
  -31.6994  -22.3810   18.6510 F   0  0  0  0  0  0  0  0  0  0  0  0
  1  2  1  0  0  0  0
  1  5  2  0  0  0  0
  2  6  2  0  0  0  0
  3  8  2  0  0  0  0
  3 17  1  0  0  0  0
  4  9  1  0  0  0  0
  4 17  2  0  0  0  0
  5 19  1  0  0  0  0
  6 21  1  0  0  0  0
  7 10  2  0  0  0  0
  7 20  1  0  0  0  0
  8 25  1  0  0  0  0
  9 25  2  0  0  0  0
 10 26  1  0  0  0  0
 11 12  2  0  0  0  0
 11 27  1  0  0  0  0
 12 28  1  0  0  0  0
 13 22  1  0  0  0  0
 13 26  2  0  0  0  0
 14 23  1  0  0  0  0
 14 24  2  0  0  0  0
 15 24  1  0  0  0  0
 15 29  2  0  0  0  0
 16 28  2  0  0  0  0
 16 30  1  0  0  0  0
 17 32  1  0  0  0  0
 18 32  1  0  0  0  0
 18 33  2  0  0  0  0
 18 35  1  0  0  0  0
 19 21  2  0  0  0  0
 19 43  1  0  0  0  0
 20 22  2  0  0  0  0
 20 44  1  0  0  0  0
 21 52  1  0  0  0  0
 22 45  1  0  0  0  0
 23 31  2  0  0  0  0
 23 62  1  0  0  0  0
 24 72  1  0  0  0  0
 25 85  1  0  0  0  0
 26 86  1  0  0  0  0
 27 30  2  0  0  0  0
 27 85  1  0  0  0  0
 28 87  1  0  0  0  0
 29 31  1  0  0  0  0
 29 88  1  0  0  0  0
 30 89  1  0  0  0  0
 31 90  1  0  0  0  0
 32 66  2  0  0  0  0
 33 67  1  0  0  0  0
 33 70  1  0  0  0  0
 34 36  2  0  0  0  0
 34 86  1  0  0  0  0
 35 71  1  0  0  0  0
 35 77  2  0  0  0  0
 36 37  1  0  0  0  0
 36 84  1  0  0  0  0
 37 73  1  0  0  0  0
 37 78  2  0  0  0  0
 38 53  1  0  0  0  0
 38 74  1  0  0  0  0
 38 79  2  0  0  0  0
 39 55  1  0  0  0  0
 39 61  1  0  0  0  0
 39 80  2  0  0  0  0
 40 63  1  0  0  0  0
 40 68  1  0  0  0  0
 40 81  2  0  0  0  0
 41 64  1  0  0  0  0
 41 75  1  0  0  0  0
 41 82  2  0  0  0  0
 42 69  1  0  0  0  0
 42 72  1  0  0  0  0
 42 83  2  0  0  0  0
 43 46  1  0  0  0  0
 44 53  1  0  0  0  0
 45 68  1  0  0  0  0
 46 48  1  0  0  0  0
 47 49  1  0  0  0  0
 47 50  1  0  0  0  0
 48 52  1  0  0  0  0
 49 54  1  0  0  0  0
 50 69  1  0  0  0  0
 51 54  1  0  0  0  0
 51 69  1  0  0  0  0
 52 74  1  0  0  0  0
 53 68  1  0  0  0  0
 54 67  1  0  0  0  0
 56 64  1  0  0  0  0
 57 65  1  0  0  0  0
 58 65  1  0  0  0  0
 59 65  1  0  0  0  0
 60 76  1  0  0  0  0
 61 62  1  0  0  0  0
 62 73  1  0  0  0  0
 63 65  1  0  0  0  0
 63 75  1  0  0  0  0
 64 76  1  0  0  0  0
 66 67  1  0  0  0  0
M  CHG  1  76   1
M  ISO  4  34 101  42 100  72 100  86 101
M  END
> <Batch ID>
0173

> <Smiles>
CNC(C)C(=O)NC(C(=O)N1Cc2cc([101O:1][101CH2:1]C(=O)C(=O)NC(CC(C)=O)c3cc([100NH:0][100C:0](=O)N4CCCC(n5nc(-c6ccc(Oc7ccc(F)cc7F)cc6)c(C(N)=O)c5N)C4)cc(F)c3F)ccc2CC1C(=O)NC1CCCc2ccccc21)C(C)(C)C

> <Shape>
0.270

> <Color>
0.073

> <Negative vol penalty>
0.000

$$$$

  -OEChem-04052304293D

 92100  0     1  0  0  0  0  0999 V2000
  -22.9202  -28.5756   31.3026 C   0  0  0  0  0  0  0  0  0  0  0  0
  -23.8633  -27.5727   31.1023 C   0  0  0  0  0  0  0  0  0  0  0  0
  -23.0002   -9.8944   19.9810 C   0  0  0  0  0  0  0  0  0  0  0  0
  -23.7257   -9.9448   22.2849 C   0  0  0  0  0  0  0  0  0  0  0  0
  -32.6632  -17.4261   23.4433 C   0  0  0  0  0  0  0  0  0  0  0  0
  -21.7199  -28.2831   31.9489 C   0  0  0  0  0  0  0  0  0  0  0  0
  -23.6072  -26.2769   31.5493 C   0  0  0  0  0  0  0  0  0  0  0  0
  -24.8171  -22.7612   28.1111 C   0  0  0  0  0  0  0  0  0  0  0  0
  -32.0604  -16.5372   22.5534 C   0  0  0  0  0  0  0  0  0  0  0  0
  -22.2335   -8.7600   20.2472 C   0  0  0  0  0  0  0  0  0  0  0  0
  -22.9589   -8.8105   22.5512 C   0  0  0  0  0  0  0  0  0  0  0  0
  -26.1672  -22.4402   27.9767 C   0  0  0  0  0  0  0  0  0  0  0  0
  -23.2023   -5.4715   22.0787 C   0  0  0  0  0  0  0  0  0  0  0  0
  -23.7897   -4.4541   22.8306 C   0  0  0  0  0  0  0  0  0  0  0  0
  -30.4968  -18.3408   23.9974 C   0  0  0  0  0  0  0  0  0  0  0  0
  -25.8273  -20.4710   29.3280 C   0  0  0  0  0  0  0  0  0  0  0  0
  -22.0661   -4.6972   24.5061 C   0  0  0  0  0  0  0  0  0  0  0  0
  -23.7464  -10.4867   20.9998 C   0  0  0  0  0  0  0  0  0  0  0  0
  -31.8814  -18.3279   24.1654 C   0  0  0  0  0  0  0  0  0  0  0  0
  -24.1323  -13.0023   20.8242 C   0  0  0  0  0  0  0  0  0  0  0  0
  -21.4448  -26.9810   32.3954 C   0  0  0  0  0  0  0  0  0  0  0  0
  -23.9629  -21.9440   28.8654 C   0  0  0  0  0  0  0  0  0  0  0  0
  -22.4027  -25.9671   32.2033 C   0  0  0  0  0  0  0  0  0  0  0  0
  -24.4663  -20.7825   29.4683 C   0  0  0  0  0  0  0  0  0  0  0  0
  -30.6757  -16.5501   22.3854 C   0  0  0  0  0  0  0  0  0  0  0  0
  -22.2127   -8.2181   21.5323 C   0  0  0  0  0  0  0  0  0  0  0  0
  -26.6731  -21.2965   28.5875 C   0  0  0  0  0  0  0  0  0  0  0  0
  -22.0469   -6.1019   22.5405 C   0  0  0  0  0  0  0  0  0  0  0  0
  -29.8939  -17.4519   23.1074 C   0  0  0  0  0  0  0  0  0  0  0  0
  -23.2216   -4.0669   24.0443 C   0  0  0  0  0  0  0  0  0  0  0  0
  -21.4787   -5.7147   23.7542 C   0  0  0  0  0  0  0  0  0  0  0  0
  -24.5391  -11.6582   20.7253 C   0  0  0  0  0  0  0  0  0  0  0  0
  -25.2422  -13.7246   20.4598 C   0  0  0  0  0  0  0  0  0  0  0  0
  -32.5235  -19.2744   25.1135 C   0  0  0  0  0  0  0  0  0  0  0  0
  -22.8645  -13.5489   21.2109 C   0  0  0  0  0  0  0  0  0  0  0  0
  -22.2027  -22.3489   31.4810 C   0  0  0  0  0  0  0  0  0  0  0  0
  -30.2378  -21.3942   27.6518 C   0  0  0  0  0  0  0  0  0  0  0  0
  -21.1661  -19.3574   30.7747 C   0  0  0  0  0  0  0  0  0  0  0  0
  -21.7604  -16.3761   29.2237 C   0  0  0  0  0  0  0  0  0  0  0  0
  -30.7219  -14.6844   20.6933 C   0  0  0  0  0  0  0  0  0  0  0  0
  -20.1536  -26.7234   33.1310 C   0  0  0  0  0  0  0  0  0  0  0  0
  -22.5034  -22.2898   28.9786 C   0  0  0  0  0  0  0  0  0  0  0  0
  -23.5867  -19.8611   30.2719 C   0  0  0  0  0  0  0  0  0  0  0  0
  -19.8000  -25.2425   33.2406 C   0  0  0  0  0  0  0  0  0  0  0  0
  -29.6028  -12.2321   18.3671 C   0  0  0  0  0  0  0  0  0  0  0  0
  -21.0172  -24.4340   33.6785 C   0  0  0  0  0  0  0  0  0  0  0  0
  -28.1522  -11.9748   18.7814 C   0  0  0  0  0  0  0  0  0  0  0  0
  -30.5035  -12.4751   19.5768 C   0  0  0  0  0  0  0  0  0  0  0  0
  -28.5885  -13.2642   20.9107 C   0  0  0  0  0  0  0  0  0  0  0  0
  -22.1508  -24.5438   32.6517 C   0  0  1  0  0  0  0  0  0  0  0  0
  -21.8333  -21.6618   30.1968 C   0  0  1  0  0  0  0  0  0  0  0  0
  -27.6307  -13.0783   19.7225 C   0  0  2  0  0  0  0  0  0  0  0  0
  -20.7460  -14.1106   28.8554 C   0  0  0  0  0  0  0  0  0  0  0  0
  -33.2689  -22.4276   25.4357 C   0  0  0  0  0  0  0  0  0  0  0  0
  -21.9245  -18.5580   33.6200 C   0  0  0  0  0  0  0  0  0  0  0  0
  -21.7948  -16.1616   32.9069 C   0  0  0  0  0  0  0  0  0  0  0  0
  -19.7604  -17.6019   32.8095 C   0  0  0  0  0  0  0  0  0  0  0  0
  -21.6764  -16.7625   26.2906 C   0  0  0  0  0  0  0  0  0  0  0  0
  -31.2007  -22.2703   26.8613 C   0  0  0  0  0  0  0  0  0  0  0  0
  -28.7973  -21.8666   27.6828 C   0  0  0  0  0  0  0  0  0  1  0  0
  -27.7552  -17.2254   24.1224 C   0  0  0  0  0  0  0  0  0  0  0  0
  -21.6140  -17.9596   31.1277 C   0  0  1  0  0  0  0  0  0  0  0  0
  -20.8943  -15.5238   28.3137 C   0  0  2  0  0  0  0  0  0  0  0  0
  -32.3498  -21.4913   26.2140 C   0  0  1  0  0  0  0  0  0  0  0  0
  -21.2907  -17.5885   32.6026 C   0  0  0  0  0  0  0  0  0  0  0  0
  -26.4469  -16.5955   23.6941 C   0  0  0  0  0  0  0  0  0  0  0  0
  -25.8083  -11.5315   20.3289 N   0  0  0  0  0  0  0  0  0  0  0  0
  -26.2086  -12.8052   20.1755 N   0  0  0  0  0  0  0  0  0  0  0  0
  -22.1681  -20.2455   30.3587 N   0  0  0  0  0  0  0  0  0  0  0  0
  -29.9488  -13.5361   20.4203 N   0  0  0  0  0  0  0  0  0  0  0  0
  -25.4760  -15.0503   20.3579 N   0  0  0  0  0  0  0  0  0  0  0  0
  -21.8326  -12.6650   21.5544 N   0  0  0  0  0  0  0  0  0  0  0  0
  -30.0780  -15.6396   21.4790 N   0  0  0  0  0  0  0  0  0  0  0  0
  -31.8421  -20.4599   25.3377 N   0  0  0  0  0  0  0  0  0  0  0  0
  -21.8842  -23.6932   31.5116 N   0  0  0  0  0  0  0  0  0  0  0  0
  -21.0043  -17.0743   30.1414 N   0  0  0  0  0  0  0  0  0  0  0  0
  -21.4948  -15.4447   26.9521 N   0  3  0  0  0  0  0  0  0  0  0  0
  -33.6025  -18.9773   25.6196 O   0  0  0  0  0  0  0  0  0  0  0  0
  -22.6481  -14.7843   21.2349 O   0  0  0  0  0  0  0  0  0  0  0  0
  -22.7357  -21.7066   32.3782 O   0  0  0  0  0  0  0  0  0  0  0  0
  -30.5971  -20.3762   28.2409 O   0  0  0  0  0  0  0  0  0  0  0  0
  -19.9703  -19.6484   30.8579 O   0  0  0  0  0  0  0  0  0  0  0  0
  -22.9853  -16.4155   29.1321 O   0  0  0  0  0  0  0  0  0  0  0  0
  -31.8606  -14.8231   20.2391 O   0  0  0  0  0  0  0  0  0  0  0  0
  -21.4645   -7.1113   21.7925 O   0  0  0  0  0  0  0  0  0  0  0  0
  -27.9906  -20.9812   28.4584 O   0  0  0  0  0  0  0  0  0  1  0  0
  -28.5393  -17.4804   22.9591 O   0  0  0  0  0  0  0  0  0  0  0  0
  -23.7849   -3.0887   24.7654 F   0  0  0  0  0  0  0  0  0  0  0  0
  -20.3680   -6.3157   24.2024 F   0  0  0  0  0  0  0  0  0  0  0  0
  -25.7792  -17.4384   22.8674 F   0  0  0  0  0  0  0  0  0  0  0  0
  -26.6908  -15.4615   22.9909 F   0  0  0  0  0  0  0  0  0  0  0  0
  -25.4327  -16.2153   25.0945 Cl  0  0  0  0  0  0  0  0  0  0  0  0
  1  2  1  0  0  0  0
  1  6  2  0  0  0  0
  2  7  2  0  0  0  0
  3 10  2  0  0  0  0
  3 18  1  0  0  0  0
  4 11  1  0  0  0  0
  4 18  2  0  0  0  0
  5  9  2  0  0  0  0
  5 19  1  0  0  0  0
  6 21  1  0  0  0  0
  7 23  1  0  0  0  0
  8 12  2  0  0  0  0
  8 22  1  0  0  0  0
  9 25  1  0  0  0  0
 10 26  1  0  0  0  0
 11 26  2  0  0  0  0
 12 27  1  0  0  0  0
 13 14  2  0  0  0  0
 13 28  1  0  0  0  0
 14 30  1  0  0  0  0
 15 19  2  0  0  0  0
 15 29  1  0  0  0  0
 16 24  1  0  0  0  0
 16 27  2  0  0  0  0
 17 30  2  0  0  0  0
 17 31  1  0  0  0  0
 18 32  1  0  0  0  0
 19 34  1  0  0  0  0
 20 32  1  0  0  0  0
 20 33  2  0  0  0  0
 20 35  1  0  0  0  0
 21 23  2  0  0  0  0
 21 41  1  0  0  0  0
 22 24  2  0  0  0  0
 22 42  1  0  0  0  0
 23 50  1  0  0  0  0
 24 43  1  0  0  0  0
 25 29  2  0  0  0  0
 25 73  1  0  0  0  0
 26 85  1  0  0  0  0
 27 86  1  0  0  0  0
 28 31  2  0  0  0  0
 28 85  1  0  0  0  0
 29 87  1  0  0  0  0
 30 88  1  0  0  0  0
 31 89  1  0  0  0  0
 32 67  2  0  0  0  0
 33 68  1  0  0  0  0
 33 71  1  0  0  0  0
 34 74  1  0  0  0  0
 34 78  2  0  0  0  0
 35 72  1  0  0  0  0
 35 79  2  0  0  0  0
 36 51  1  0  0  0  0
 36 75  1  0  0  0  0
 36 80  2  0  0  0  0
 37 59  1  0  0  0  0
 37 60  1  0  0  0  0
 37 81  2  0  0  0  0
 38 62  1  0  0  0  0
 38 69  1  0  0  0  0
 38 82  2  0  0  0  0
 39 63  1  0  0  0  0
 39 76  1  0  0  0  0
 39 83  2  0  0  0  0
 40 70  1  0  0  0  0
 40 73  1  0  0  0  0
 40 84  2  0  0  0  0
 41 44  1  0  0  0  0
 42 51  1  0  0  0  0
 43 69  1  0  0  0  0
 44 46  1  0  0  0  0
 45 47  1  0  0  0  0
 45 48  1  0  0  0  0
 46 50  1  0  0  0  0
 47 52  1  0  0  0  0
 48 70  1  0  0  0  0
 49 52  1  0  0  0  0
 49 70  1  0  0  0  0
 50 75  1  0  0  0  0
 51 69  1  0  0  0  0
 52 68  1  0  0  0  0
 53 63  1  0  0  0  0
 54 64  1  0  0  0  0
 55 65  1  0  0  0  0
 56 65  1  0  0  0  0
 57 65  1  0  0  0  0
 58 77  1  0  0  0  0
 59 64  1  0  0  0  0
 60 86  1  0  0  0  0
 61 66  1  0  0  0  0
 61 87  1  0  0  0  0
 62 65  1  0  0  0  0
 62 76  1  0  0  0  0
 63 77  1  0  0  0  0
 64 74  1  0  0  0  0
 66 90  1  0  0  0  0
 66 91  1  0  0  0  0
 66 92  1  0  0  0  0
 67 68  1  0  0  0  0
M  CHG  1  77   1
M  ISO  4  40 100  60 101  73 100  86 101
M  END
> <Batch ID>
0173

> <Smiles>
CNC(C)C(=O)NC(C(=O)N1Cc2cc([101O:1][101CH2:1]C(=O)CC(C)NC(=O)c3ccc([100NH:0][100C:0](=O)N4CCCC(n5nc(-c6ccc(Oc7ccc(F)cc7F)cc6)c(C(N)=O)c5N)C4)c(OCC(F)(F)Cl)c3)ccc2CC1C(=O)NC1CCCc2ccccc21)C(C)(C)C

> <Shape>
0.169

> <Color>
0.189

> <Negative vol penalty>
0.000

$$$$

  -OEChem-04052304293D

 85 93  0     1  0  0  0  0  0999 V2000
  -19.4623  -23.7948   13.6052 C   0  0  0  0  0  0  0  0  0  0  0  0
  -19.7685  -24.4051   14.8173 C   0  0  0  0  0  0  0  0  0  0  0  0
  -29.4223  -17.6735   18.8948 C   0  0  0  0  0  0  0  0  0  0  0  0
  -30.1052  -18.2174   21.1475 C   0  0  0  0  0  0  0  0  0  0  0  0
  -18.8223  -22.5562   13.5916 C   0  0  0  0  0  0  0  0  0  0  0  0
  -19.4338  -23.7775   16.0167 C   0  0  0  0  0  0  0  0  0  0  0  0
  -23.1929  -23.9346   19.4063 C   0  0  0  0  0  0  0  0  0  0  0  0
  -29.8661  -16.3637   19.0764 C   0  0  0  0  0  0  0  0  0  0  0  0
  -30.5490  -16.9075   21.3292 C   0  0  0  0  0  0  0  0  0  0  0  0
  -23.3805  -25.1328   20.0940 C   0  0  0  0  0  0  0  0  0  0  0  0
  -28.7563  -13.5428   20.5744 C   0  0  0  0  0  0  0  0  0  0  0  0
  -27.9245  -12.5105   20.1408 C   0  0  0  0  0  0  0  0  0  0  0  0
  -22.2036  -24.2209   21.9919 C   0  0  0  0  0  0  0  0  0  0  0  0
  -29.6548  -11.7478   18.6371 C   0  0  0  0  0  0  0  0  0  0  0  0
  -29.1486  -29.2471   20.9481 C   0  0  0  0  0  0  0  0  0  0  0  0
  -29.5419  -18.6004   19.9303 C   0  0  0  0  0  0  0  0  0  0  0  0
  -27.7985  -20.4609   20.0106 C   0  0  0  0  0  0  0  0  0  0  0  0
  -18.4883  -21.9087   14.7916 C   0  0  0  0  0  0  0  0  0  0  0  0
  -22.4985  -22.8725   20.0033 C   0  0  0  0  0  0  0  0  0  0  0  0
  -18.7875  -22.5297   16.0192 C   0  0  0  0  0  0  0  0  0  0  0  0
  -22.0107  -23.0093   21.3107 C   0  0  0  0  0  0  0  0  0  0  0  0
  -30.4294  -15.9807   20.2936 C   0  0  0  0  0  0  0  0  0  0  0  0
  -22.8833  -25.2771   21.3859 C   0  0  0  0  0  0  0  0  0  0  0  0
  -30.0374  -13.6776   20.0393 C   0  0  0  0  0  0  0  0  0  0  0  0
  -28.3737  -11.6130   19.1722 C   0  0  0  0  0  0  0  0  0  0  0  0
  -30.4867  -12.7801   19.0706 C   0  0  0  0  0  0  0  0  0  0  0  0
  -28.2932  -30.0949   21.7095 C   0  0  0  0  0  0  0  0  0  0  0  0
  -29.0841  -19.9537   19.7431 C   0  0  0  0  0  0  0  0  0  0  0  0
  -27.4055  -29.3768   22.4802 C   0  0  0  0  0  0  0  0  0  0  0  0
  -27.8750  -21.7887   19.6678 C   0  0  0  0  0  0  0  0  0  0  0  0
  -28.8822  -27.9131   21.1662 C   0  0  0  0  0  0  0  0  0  0  0  0
  -26.6387  -19.7917   20.5233 C   0  0  0  0  0  0  0  0  0  0  0  0
  -19.8249  -21.2863   19.3405 C   0  0  0  0  0  0  0  0  0  0  0  0
  -23.8647  -28.7241   22.2489 C   0  0  0  0  0  0  0  0  0  0  0  0
  -20.7749  -19.4261   21.8223 C   0  0  0  0  0  0  0  0  0  0  0  0
  -22.5957  -19.1352   24.6940 C   0  0  0  0  0  0  0  0  0  0  0  0
  -30.5274  -26.6843   19.7068 C   0  0  0  0  0  0  0  0  0  0  0  0
  -17.7546  -20.5926   14.7264 C   0  0  0  0  0  0  0  0  0  0  0  0
  -22.3278  -21.5771   19.2581 C   0  0  0  0  0  0  0  0  0  0  0  0
  -21.2760  -21.8921   22.0039 C   0  0  0  0  0  0  0  0  0  0  0  0
  -17.7705  -19.8205   16.0431 C   0  0  0  0  0  0  0  0  0  0  0  0
  -31.4706  -24.3490   17.1901 C   0  0  0  0  0  0  0  0  0  0  0  0
  -17.4290  -20.7444   17.2079 C   0  0  0  0  0  0  0  0  0  0  0  0
  -30.8280  -23.0390   17.6519 C   0  0  0  0  0  0  0  0  0  0  0  0
  -31.9805  -25.1769   18.3684 C   0  0  0  0  0  0  0  0  0  0  0  0
  -30.3470  -24.1246   19.8829 C   0  0  0  0  0  0  0  0  0  0  0  0
  -18.4629  -21.8690   17.3414 C   0  0  1  0  0  0  0  0  0  0  0  0
  -21.1580  -20.7427   19.7706 C   0  0  1  0  0  0  0  0  0  0  0  0
  -29.7601  -23.2865   18.7354 C   0  0  2  0  0  0  0  0  0  0  0  0
  -26.9154  -30.7722   24.5309 C   0  0  0  0  0  0  0  0  0  0  0  0
  -23.6401  -30.8687   20.9272 C   0  0  0  0  0  0  0  0  0  0  0  0
  -23.1450  -17.5057   26.5217 C   0  0  0  0  0  0  0  0  0  0  0  0
  -18.0266  -19.8941   23.0622 C   0  0  0  0  0  0  0  0  0  0  0  0
  -18.9474  -19.0751   25.2416 C   0  0  0  0  0  0  0  0  0  0  0  0
  -18.8784  -17.5518   23.2674 C   0  0  0  0  0  0  0  0  0  0  0  0
  -25.4807  -19.1920   24.0363 C   0  0  0  0  0  0  0  0  0  0  0  0
  -23.7732  -27.4826   21.3814 C   0  0  0  0  0  0  0  0  0  1  0  0
  -26.3420  -29.8961   23.4200 C   0  0  1  0  0  0  0  0  0  0  0  0
  -24.5857  -29.9175   21.6441 C   0  0  1  0  0  0  0  0  0  0  0  0
  -20.5560  -19.4427   23.3158 C   0  0  1  0  0  0  0  0  0  0  0  0
  -23.5615  -18.0652   25.1703 C   0  0  2  0  0  0  0  0  0  0  0  0
  -19.1142  -19.0128   23.7083 C   0  0  0  0  0  0  0  0  0  0  0  0
  -29.9165  -20.8835   19.2668 N   0  0  0  0  0  0  0  0  0  0  0  0
  -29.1521  -21.9883   19.2323 N   0  0  0  0  0  0  0  0  0  0  0  0
  -21.1290  -20.6474   21.2316 N   0  0  0  0  0  0  0  0  0  0  0  0
  -30.9136  -25.3744   19.3520 N   0  0  0  0  0  0  0  0  0  0  0  0
  -26.9739  -22.7934   19.6992 N   0  0  0  0  0  0  0  0  0  0  0  0
  -26.7335  -18.4260   20.8235 N   0  0  0  0  0  0  0  0  0  0  0  0
  -29.4811  -26.7478   20.6264 N   0  0  0  0  0  0  0  0  0  0  0  0
  -19.6690  -21.3747   17.9703 N   0  0  0  0  0  0  0  0  0  0  0  0
  -21.6056  -18.6089   23.8916 N   0  0  0  0  0  0  0  0  0  0  0  0
  -24.9358  -18.6276   25.2978 N   0  3  0  0  0  0  0  0  0  0  0  0
  -25.2858  -30.6721   22.7185 N   0  3  0  0  0  0  0  0  0  0  0  0
  -25.5460  -20.3835   20.6943 O   0  0  0  0  0  0  0  0  0  0  0  0
  -18.9984  -21.6008   20.1888 O   0  0  0  0  0  0  0  0  0  0  0  0
  -23.3937  -28.7525   23.3858 O   0  0  0  0  0  0  0  0  0  0  0  0
  -20.6439  -18.3670   21.2036 O   0  0  0  0  0  0  0  0  0  0  0  0
  -22.7063  -20.3189   25.0059 O   0  0  0  0  0  0  0  0  0  0  0  0
  -31.0656  -27.6767   19.2093 O   0  0  0  0  0  0  0  0  0  0  0  0
  -30.8624  -14.7026   20.4713 O   0  0  0  0  0  0  0  0  0  0  0  0
  -23.0645  -26.4458   22.0591 O   0  0  0  0  0  0  0  0  0  1  0  0
  -27.5754  -10.6208   18.7570 F   0  0  0  0  0  0  0  0  0  0  0  0
  -31.7168  -12.9039   18.5537 F   0  0  0  0  0  0  0  0  0  0  0  0
  -28.3490  -31.4278   21.6775 F   0  0  0  0  0  0  0  0  0  0  0  0
  -27.6053  -27.6873   22.2845 S   0  0  0  0  0  0  0  0  0  0  0  0
  1  2  1  0  0  0  0
  1  5  2  0  0  0  0
  2  6  2  0  0  0  0
  3  8  2  0  0  0  0
  3 16  1  0  0  0  0
  4  9  1  0  0  0  0
  4 16  2  0  0  0  0
  5 18  1  0  0  0  0
  6 20  1  0  0  0  0
  7 10  2  0  0  0  0
  7 19  1  0  0  0  0
  8 22  1  0  0  0  0
  9 22  2  0  0  0  0
 10 23  1  0  0  0  0
 11 12  2  0  0  0  0
 11 24  1  0  0  0  0
 12 25  1  0  0  0  0
 13 21  1  0  0  0  0
 13 23  2  0  0  0  0
 14 25  2  0  0  0  0
 14 26  1  0  0  0  0
 15 27  1  0  0  0  0
 15 31  2  0  0  0  0
 16 28  1  0  0  0  0
 17 28  1  0  0  0  0
 17 30  2  0  0  0  0
 17 32  1  0  0  0  0
 18 20  2  0  0  0  0
 18 38  1  0  0  0  0
 19 21  2  0  0  0  0
 19 39  1  0  0  0  0
 20 47  1  0  0  0  0
 21 40  1  0  0  0  0
 22 80  1  0  0  0  0
 23 81  1  0  0  0  0
 24 26  2  0  0  0  0
 24 80  1  0  0  0  0
 25 82  1  0  0  0  0
 26 83  1  0  0  0  0
 27 29  2  0  0  0  0
 27 84  1  0  0  0  0
 28 63  2  0  0  0  0
 29 58  1  0  0  0  0
 29 85  1  0  0  0  0
 30 64  1  0  0  0  0
 30 67  1  0  0  0  0
 31 69  1  0  0  0  0
 31 85  1  0  0  0  0
 32 68  1  0  0  0  0
 32 74  2  0  0  0  0
 33 48  1  0  0  0  0
 33 70  1  0  0  0  0
 33 75  2  0  0  0  0
 34 57  1  0  0  0  0
 34 59  1  0  0  0  0
 34 76  2  0  0  0  0
 35 60  1  0  0  0  0
 35 65  1  0  0  0  0
 35 77  2  0  0  0  0
 36 61  1  0  0  0  0
 36 71  1  0  0  0  0
 36 78  2  0  0  0  0
 37 66  1  0  0  0  0
 37 69  1  0  0  0  0
 37 79  2  0  0  0  0
 38 41  1  0  0  0  0
 39 48  1  0  0  0  0
 40 65  1  0  0  0  0
 41 43  1  0  0  0  0
 42 44  1  0  0  0  0
 42 45  1  0  0  0  0
 43 47  1  0  0  0  0
 44 49  1  0  0  0  0
 45 66  1  0  0  0  0
 46 49  1  0  0  0  0
 46 66  1  0  0  0  0
 47 70  1  0  0  0  0
 48 65  1  0  0  0  0
 49 64  1  0  0  0  0
 50 58  1  0  0  0  0
 51 59  1  0  0  0  0
 52 61  1  0  0  0  0
 53 62  1  0  0  0  0
 54 62  1  0  0  0  0
 55 62  1  0  0  0  0
 56 72  1  0  0  0  0
 57 81  1  0  0  0  0
 58 73  1  0  0  0  0
 59 73  1  0  0  0  0
 60 62  1  0  0  0  0
 60 71  1  0  0  0  0
 61 72  1  0  0  0  0
 63 64  1  0  0  0  0
M  CHG  2  72   1  73   1
M  ISO  4  37 100  57 101  69 100  81 101
M  END
> <Batch ID>
0173

> <Smiles>
CNC(C)C(=O)NC(C(=O)N1Cc2cc([101O:1][101CH2:1]C(=O)C(C)NC(C)c3sc([100NH:0][100C:0](=O)N4CCCC(n5nc(-c6ccc(Oc7ccc(F)cc7F)cc6)c(C(N)=O)c5N)C4)cc3F)ccc2CC1C(=O)NC1CCCc2ccccc21)C(C)(C)C

> <Shape>
0.212

> <Color>
0.050

> <Negative vol penalty>
0.000

$$$$

  -OEChem-04052304293D

 86 94  0     1  0  0  0  0  0999 V2000
  -28.3192  -24.0307   17.3580 C   0  0  0  0  0  0  0  0  0  0  0  0
  -27.1654  -24.7472   17.6551 C   0  0  0  0  0  0  0  0  0  0  0  0
  -25.0943  -12.7153   19.4206 C   0  0  0  0  0  0  0  0  0  0  0  0
  -24.9016  -13.2015   21.7794 C   0  0  0  0  0  0  0  0  0  0  0  0
  -29.4427  -24.1572   18.1723 C   0  0  0  0  0  0  0  0  0  0  0  0
  -27.1385  -25.5995   18.7594 C   0  0  0  0  0  0  0  0  0  0  0  0
  -23.1448  -28.4193   19.3096 C   0  0  0  0  0  0  0  0  0  0  0  0
  -25.3018  -11.3678   19.7153 C   0  0  0  0  0  0  0  0  0  0  0  0
  -25.1091  -11.8540   22.0741 C   0  0  0  0  0  0  0  0  0  0  0  0
  -21.9085  -27.9070   19.7006 C   0  0  0  0  0  0  0  0  0  0  0  0
  -23.3053   -8.9962   22.0592 C   0  0  0  0  0  0  0  0  0  0  0  0
  -22.4698   -8.4056   23.0072 C   0  0  0  0  0  0  0  0  0  0  0  0
  -22.2565  -28.7792   21.9226 C   0  0  0  0  0  0  0  0  0  0  0  0
  -23.5422  -22.8346   22.5470 C   0  0  0  0  0  0  0  0  0  0  0  0
  -24.3904   -7.8924   24.3802 C   0  0  0  0  0  0  0  0  0  0  0  0
  -25.7248  -23.7731   22.6565 C   0  0  0  0  0  0  0  0  0  0  0  0
  -24.8942  -13.6321   20.4527 C   0  0  0  0  0  0  0  0  0  0  0  0
  -23.4481  -15.6641   19.9166 C   0  0  0  0  0  0  0  0  0  0  0  0
  -29.4246  -25.0022   19.2942 C   0  0  0  0  0  0  0  0  0  0  0  0
  -23.9524  -29.1071   20.2267 C   0  0  0  0  0  0  0  0  0  0  0  0
  -28.2700  -25.7591   19.5797 C   0  0  0  0  0  0  0  0  0  0  0  0
  -23.5015  -29.3015   21.5401 C   0  0  0  0  0  0  0  0  0  0  0  0
  -23.0920  -23.8626   23.3679 C   0  0  0  0  0  0  0  0  0  0  0  0
  -24.8823  -22.7818   22.1799 C   0  0  0  0  0  0  0  0  0  0  0  0
  -25.3092  -10.9371   21.0420 C   0  0  0  0  0  0  0  0  0  0  0  0
  -21.4654  -28.0844   21.0080 C   0  0  0  0  0  0  0  0  0  0  0  0
  -24.6834   -9.0349   22.2717 C   0  0  0  0  0  0  0  0  0  0  0  0
  -23.0123   -7.8537   24.1677 C   0  0  0  0  0  0  0  0  0  0  0  0
  -25.2259   -8.4830   23.4321 C   0  0  0  0  0  0  0  0  0  0  0  0
  -24.6803  -15.0243   20.1489 C   0  0  0  0  0  0  0  0  0  0  0  0
  -24.0148  -24.8054   23.7915 C   0  0  0  0  0  0  0  0  0  0  0  0
  -23.7817  -16.9743   19.6746 C   0  0  0  0  0  0  0  0  0  0  0  0
  -22.1205  -15.1226   19.9193 C   0  0  0  0  0  0  0  0  0  0  0  0
  -26.8461  -28.6418   21.4572 C   0  0  0  0  0  0  0  0  0  0  0  0
  -26.3300  -31.5621   22.7719 C   0  0  0  0  0  0  0  0  0  0  0  0
  -24.0886  -33.9188   23.8057 C   0  0  0  0  0  0  0  0  0  0  0  0
  -19.6669  -25.1678   22.9415 C   0  0  0  0  0  0  0  0  0  0  0  0
  -26.6800  -21.5684   20.8984 C   0  0  0  0  0  0  0  0  0  0  0  0
  -30.6712  -25.1075   20.1369 C   0  0  0  0  0  0  0  0  0  0  0  0
  -25.2716  -29.6768   19.7821 C   0  0  0  0  0  0  0  0  0  0  0  0
  -24.3217  -30.0501   22.5575 C   0  0  0  0  0  0  0  0  0  0  0  0
  -30.4046  -25.6845   21.5233 C   0  0  0  0  0  0  0  0  0  0  0  0
  -28.2893  -19.1297   18.8637 C   0  0  0  0  0  0  0  0  0  0  0  0
  -29.5831  -26.9597   21.4064 C   0  0  0  0  0  0  0  0  0  0  0  0
  -27.3925  -17.8969   18.9976 C   0  0  0  0  0  0  0  0  0  0  0  0
  -28.3819  -19.9087   20.1745 C   0  0  0  0  0  0  0  0  0  0  0  0
  -26.1944  -19.0426   20.9052 C   0  0  0  0  0  0  0  0  0  0  0  0
  -28.2075  -26.6689   20.7933 C   0  0  1  0  0  0  0  0  0  0  0  0
  -26.2395  -29.9144   20.9371 C   0  0  1  0  0  0  0  0  0  0  0  0
  -26.0183  -18.2616   19.5926 C   0  0  2  0  0  0  0  0  0  0  0  0
  -23.9661  -36.1863   24.8737 C   0  0  0  0  0  0  0  0  0  0  0  0
  -17.6607  -26.4031   22.0490 C   0  0  0  0  0  0  0  0  0  0  0  0
  -18.4242  -24.3052   20.9316 C   0  0  0  0  0  0  0  0  0  0  0  0
  -26.9763  -30.3178   25.4818 C   0  0  0  0  0  0  0  0  0  0  0  0
  -25.9339  -32.3171   26.5702 C   0  0  0  0  0  0  0  0  0  0  0  0
  -27.9456  -32.5949   25.1216 C   0  0  0  0  0  0  0  0  0  0  0  0
  -22.7329  -35.0844   21.4472 C   0  0  0  0  0  0  0  0  0  0  0  0
  -21.6504  -23.9428   23.7796 C   0  0  0  0  0  0  0  0  0  0  0  0
  -19.8039  -26.4056   20.7301 C   0  0  0  0  0  0  0  0  0  1  0  0
  -25.7153  -32.0626   24.0566 C   0  0  1  0  0  0  0  0  0  0  0  0
  -24.0173  -35.4158   23.5636 C   0  0  2  0  0  0  0  0  0  0  0  0
  -18.8994  -25.5760   21.6637 C   0  0  0  0  0  0  0  0  0  0  0  0
  -26.6280  -31.8073   25.2892 C   0  0  0  0  0  0  0  0  0  0  0  0
  -25.3242  -24.7872   23.4557 N   0  0  0  0  0  0  0  0  0  0  0  0
  -25.7192  -15.8592   20.0622 N   0  0  0  0  0  0  0  0  0  0  0  0
  -25.1406  -17.0371   19.7726 N   0  0  0  0  0  0  0  0  0  0  0  0
  -25.6071  -30.5827   22.0762 N   0  0  0  0  0  0  0  0  0  0  0  0
  -27.0424  -20.2230   20.6764 N   0  0  0  0  0  0  0  0  0  0  0  0
  -23.0424  -18.0673   19.3897 N   0  0  0  0  0  0  0  0  0  0  0  0
  -21.9567  -13.7566   20.1867 N   0  0  0  0  0  0  0  0  0  0  0  0
  -25.3709  -21.7468   21.3446 N   0  0  0  0  0  0  0  0  0  0  0  0
  -27.5440  -27.9217   20.5066 N   0  0  0  0  0  0  0  0  0  0  0  0
  -20.8073  -24.4142   22.7063 N   0  0  0  0  0  0  0  0  0  0  0  0
  -25.3913  -33.4675   23.8338 N   0  0  0  0  0  0  0  0  0  0  0  0
  -22.8017  -35.7550   22.7711 N   0  3  0  0  0  0  0  0  0  0  0  0
  -21.1108  -15.8257   19.6751 O   0  0  0  0  0  0  0  0  0  0  0  0
  -26.6934  -28.3368   22.6342 O   0  0  0  0  0  0  0  0  0  0  0  0
  -27.4083  -32.0282   22.3956 O   0  0  0  0  0  0  0  0  0  0  0  0
  -23.0890  -33.2204   23.9584 O   0  0  0  0  0  0  0  0  0  0  0  0
  -19.2867  -25.4911   24.0673 O   0  0  0  0  0  0  0  0  0  0  0  0
  -27.4637  -22.4960   20.6808 O   0  0  0  0  0  0  0  0  0  0  0  0
  -25.5115   -9.6223   21.3299 O   0  0  0  0  0  0  0  0  0  0  0  0
  -20.2594  -27.5848   21.3924 O   0  0  0  0  0  0  0  0  0  1  0  0
  -22.2097   -7.2879   25.0787 F   0  0  0  0  0  0  0  0  0  0  0  0
  -26.5489   -8.5182   23.6423 F   0  0  0  0  0  0  0  0  0  0  0  0
  -23.6029  -25.8069   24.5854 F   0  0  0  0  0  0  0  0  0  0  0  0
  1  2  1  0  0  0  0
  1  5  2  0  0  0  0
  2  6  2  0  0  0  0
  3  8  2  0  0  0  0
  3 17  1  0  0  0  0
  4  9  1  0  0  0  0
  4 17  2  0  0  0  0
  5 19  1  0  0  0  0
  6 21  1  0  0  0  0
  7 10  2  0  0  0  0
  7 20  1  0  0  0  0
  8 25  1  0  0  0  0
  9 25  2  0  0  0  0
 10 26  1  0  0  0  0
 11 12  2  0  0  0  0
 11 27  1  0  0  0  0
 12 28  1  0  0  0  0
 13 22  1  0  0  0  0
 13 26  2  0  0  0  0
 14 23  1  0  0  0  0
 14 24  2  0  0  0  0
 15 28  2  0  0  0  0
 15 29  1  0  0  0  0
 16 24  1  0  0  0  0
 16 64  2  0  0  0  0
 17 30  1  0  0  0  0
 18 30  1  0  0  0  0
 18 32  2  0  0  0  0
 18 33  1  0  0  0  0
 19 21  2  0  0  0  0
 19 39  1  0  0  0  0
 20 22  2  0  0  0  0
 20 40  1  0  0  0  0
 21 48  1  0  0  0  0
 22 41  1  0  0  0  0
 23 31  2  0  0  0  0
 23 58  1  0  0  0  0
 24 71  1  0  0  0  0
 25 82  1  0  0  0  0
 26 83  1  0  0  0  0
 27 29  2  0  0  0  0
 27 82  1  0  0  0  0
 28 84  1  0  0  0  0
 29 85  1  0  0  0  0
 30 65  2  0  0  0  0
 31 64  1  0  0  0  0
 31 86  1  0  0  0  0
 32 66  1  0  0  0  0
 32 69  1  0  0  0  0
 33 70  1  0  0  0  0
 33 76  2  0  0  0  0
 34 49  1  0  0  0  0
 34 72  1  0  0  0  0
 34 77  2  0  0  0  0
 35 60  1  0  0  0  0
 35 67  1  0  0  0  0
 35 78  2  0  0  0  0
 36 61  1  0  0  0  0
 36 74  1  0  0  0  0
 36 79  2  0  0  0  0
 37 62  1  0  0  0  0
 37 73  1  0  0  0  0
 37 80  2  0  0  0  0
 38 68  1  0  0  0  0
 38 71  1  0  0  0  0
 38 81  2  0  0  0  0
 39 42  1  0  0  0  0
 40 49  1  0  0  0  0
 41 67  1  0  0  0  0
 42 44  1  0  0  0  0
 43 45  1  0  0  0  0
 43 46  1  0  0  0  0
 44 48  1  0  0  0  0
 45 50  1  0  0  0  0
 46 68  1  0  0  0  0
 47 50  1  0  0  0  0
 47 68  1  0  0  0  0
 48 72  1  0  0  0  0
 49 67  1  0  0  0  0
 50 66  1  0  0  0  0
 51 61  1  0  0  0  0
 52 62  1  0  0  0  0
 53 62  1  0  0  0  0
 54 63  1  0  0  0  0
 55 63  1  0  0  0  0
 56 63  1  0  0  0  0
 57 75  1  0  0  0  0
 58 73  1  0  0  0  0
 59 62  1  0  0  0  0
 59 83  1  0  0  0  0
 60 63  1  0  0  0  0
 60 74  1  0  0  0  0
 61 75  1  0  0  0  0
 65 66  1  0  0  0  0
M  CHG  1  75   1
M  ISO  4  38 100  59 101  71 100  83 101
M  END
> <Batch ID>
0173

> <Smiles>
CNC(C)C(=O)NC(C(=O)N1Cc2cc([101O:1][101CH2:1]C(C)(C)C(=O)NCc3cc([100NH:0][100C:0](=O)N4CCCC(n5nc(-c6ccc(Oc7ccc(F)cc7F)cc6)c(C(N)=O)c5N)C4)cnc3F)ccc2CC1C(=O)NC1CCCc2ccccc21)C(C)(C)C

> <Shape>
0.296

> <Color>
0.074

> <Negative vol penalty>
0.000

$$$$

  -OEChem-04052304293D

 87 95  0     1  0  0  0  0  0999 V2000
  -30.8151  -36.1870   21.0374 C   0  0  0  0  0  0  0  0  0  0  0  0
  -30.6616  -34.9015   20.5283 C   0  0  0  0  0  0  0  0  0  0  0  0
  -23.6410   -9.4116   22.8682 C   0  0  0  0  0  0  0  0  0  0  0  0
  -23.8562   -9.4750   20.4627 C   0  0  0  0  0  0  0  0  0  0  0  0
  -30.2449  -36.5222   22.2647 C   0  0  0  0  0  0  0  0  0  0  0  0
  -29.9385  -33.9500   21.2468 C   0  0  0  0  0  0  0  0  0  0  0  0
  -26.3983  -29.5113   18.9512 C   0  0  0  0  0  0  0  0  0  0  0  0
  -22.7278   -8.3630   22.7590 C   0  0  0  0  0  0  0  0  0  0  0  0
  -22.9431   -8.4262   20.3534 C   0  0  0  0  0  0  0  0  0  0  0  0
  -26.6262  -28.1556   18.7186 C   0  0  0  0  0  0  0  0  0  0  0  0
  -20.6137   -5.4292   23.1316 C   0  0  0  0  0  0  0  0  0  0  0  0
  -20.7659   -4.3442   23.9947 C   0  0  0  0  0  0  0  0  0  0  0  0
  -25.6025  -27.6261   20.8378 C   0  0  0  0  0  0  0  0  0  0  0  0
  -22.9713   -3.9383   23.0956 C   0  0  0  0  0  0  0  0  0  0  0  0
  -30.2312  -16.7879   18.8694 C   0  0  0  0  0  0  0  0  0  0  0  0
  -24.2052   -9.9677   21.7201 C   0  0  0  0  0  0  0  0  0  0  0  0
  -26.5470  -10.9518   21.9546 C   0  0  0  0  0  0  0  0  0  0  0  0
  -29.5063  -35.5772   22.9941 C   0  0  0  0  0  0  0  0  0  0  0  0
  -25.7796  -29.9360   20.1358 C   0  0  0  0  0  0  0  0  0  0  0  0
  -29.3590  -34.2725   22.4857 C   0  0  0  0  0  0  0  0  0  0  0  0
  -25.3656  -28.9875   21.0819 C   0  0  0  0  0  0  0  0  0  0  0  0
  -22.3789   -7.8702   21.5015 C   0  0  0  0  0  0  0  0  0  0  0  0
  -26.2309  -27.2130   19.6633 C   0  0  0  0  0  0  0  0  0  0  0  0
  -21.6403   -5.7688   22.2503 C   0  0  0  0  0  0  0  0  0  0  0  0
  -21.9447   -3.5987   23.9768 C   0  0  0  0  0  0  0  0  0  0  0  0
  -22.8191   -5.0233   22.2324 C   0  0  0  0  0  0  0  0  0  0  0  0
  -31.3893  -17.4170   18.4262 C   0  0  0  0  0  0  0  0  0  0  0  0
  -31.4707  -18.8049   18.4454 C   0  0  0  0  0  0  0  0  0  0  0  0
  -25.1481  -11.0514   21.8323 C   0  0  0  0  0  0  0  0  0  0  0  0
  -29.1911  -17.5856   19.3184 C   0  0  0  0  0  0  0  0  0  0  0  0
  -30.3750  -19.5123   18.9133 C   0  0  0  0  0  0  0  0  0  0  0  0
  -26.9789  -12.2536   22.0267 C   0  0  0  0  0  0  0  0  0  0  0  0
  -27.3814   -9.7867   21.9991 C   0  0  0  0  0  0  0  0  0  0  0  0
  -28.8878  -24.2872   19.6847 C   0  0  0  0  0  0  0  0  0  0  0  0
  -29.8559  -23.2001   19.2606 C   0  0  0  0  0  0  0  0  0  0  0  0
  -26.6430  -31.7693   22.5847 C   0  0  0  0  0  0  0  0  0  0  0  0
  -23.5546  -31.3496   23.4837 C   0  0  0  0  0  0  0  0  0  0  0  0
  -20.7244  -29.4490   23.3277 C   0  0  0  0  0  0  0  0  0  0  0  0
  -26.8544  -17.5319   20.2582 C   0  0  0  0  0  0  0  0  0  0  0  0
  -28.9486  -35.9724   24.3385 C   0  0  0  0  0  0  0  0  0  0  0  0
  -25.5168  -31.4000   20.3596 C   0  0  0  0  0  0  0  0  0  0  0  0
  -24.6792  -29.3903   22.3606 C   0  0  0  0  0  0  0  0  0  0  0  0
  -27.8808  -35.0144   24.8604 C   0  0  0  0  0  0  0  0  0  0  0  0
  -24.3826  -16.5570   22.6283 C   0  0  0  0  0  0  0  0  0  0  0  0
  -28.3374  -33.5677   24.7005 C   0  0  0  0  0  0  0  0  0  0  0  0
  -24.4765  -15.0295   22.6425 C   0  0  0  0  0  0  0  0  0  0  0  0
  -24.6026  -17.1257   21.2276 C   0  0  0  0  0  0  0  0  0  0  0  0
  -25.9284  -15.1536   20.5777 C   0  0  0  0  0  0  0  0  0  0  0  0
  -28.5609  -33.2198   23.2239 C   0  0  1  0  0  0  0  0  0  0  0  0
  -25.3424  -31.7575   21.8324 C   0  0  1  0  0  0  0  0  0  0  0  0
  -25.7781  -14.5387   21.9788 C   0  0  2  0  0  0  0  0  0  0  0  0
  -18.3732  -29.3416   24.1982 C   0  0  0  0  0  0  0  0  0  0  0  0
  -24.6016  -30.3995   26.1876 C   0  0  0  0  0  0  0  0  0  0  0  0
  -22.3386  -29.4314   26.6454 C   0  0  0  0  0  0  0  0  0  0  0  0
  -22.5971  -31.8898   26.3103 C   0  0  0  0  0  0  0  0  0  0  0  0
  -19.5842  -29.6093   20.6012 C   0  0  0  0  0  0  0  0  0  0  0  0
  -27.5253  -23.8704   20.1972 C   0  0  0  0  0  0  0  0  0  0  0  0
  -29.4125  -21.7654   19.3852 C   0  0  0  0  0  0  0  0  0  0  0  0
  -26.6603  -25.0625   20.5835 C   0  0  0  0  0  0  0  0  0  1  0  0
  -22.8141  -30.3387   24.3256 C   0  0  1  0  0  0  0  0  0  0  0  0
  -19.2749  -29.8199   23.0708 C   0  0  2  0  0  0  0  0  0  0  0  0
  -23.1025  -30.5071   25.8441 C   0  0  0  0  0  0  0  0  0  0  0  0
  -24.7198  -12.3165   21.8268 N   0  0  0  0  0  0  0  0  0  0  0  0
  -29.2333  -18.9364   19.3519 N   0  0  0  0  0  0  0  0  0  0  0  0
  -25.8562  -13.0238   21.9466 N   0  0  0  0  0  0  0  0  0  0  0  0
  -24.4503  -30.8340   22.5363 N   0  0  0  0  0  0  0  0  0  0  0  0
  -25.8563  -16.6207   20.6636 N   0  0  0  0  0  0  0  0  0  0  0  0
  -28.2057  -12.8032   22.1502 N   0  0  0  0  0  0  0  0  0  0  0  0
  -26.7744   -8.5264   21.9123 N   0  0  0  0  0  0  0  0  0  0  0  0
  -28.0153  -16.9349   19.7680 N   0  0  0  0  0  0  0  0  0  0  0  0
  -30.4679  -20.8957   18.9275 N   0  0  0  0  0  0  0  0  0  0  0  0
  -27.2949  -32.9874   22.5622 N   0  0  0  0  0  0  0  0  0  0  0  0
  -21.4053  -30.4630   23.9676 N   0  0  0  0  0  0  0  0  0  0  0  0
  -18.8011  -29.2067   21.7978 N   0  3  0  0  0  0  0  0  0  0  0  0
  -28.6269   -9.8606   22.1289 O   0  0  0  0  0  0  0  0  0  0  0  0
  -29.2700  -25.4456   19.5801 O   0  0  0  0  0  0  0  0  0  0  0  0
  -30.9498  -23.5606   18.8443 O   0  0  0  0  0  0  0  0  0  0  0  0
  -27.0258  -30.7492   23.1455 O   0  0  0  0  0  0  0  0  0  0  0  0
  -23.3407  -32.5523   23.6553 O   0  0  0  0  0  0  0  0  0  0  0  0
  -21.2036  -28.3666   22.9972 O   0  0  0  0  0  0  0  0  0  0  0  0
  -26.7018  -18.7514   20.3653 O   0  0  0  0  0  0  0  0  0  0  0  0
  -21.4880   -6.8468   21.3945 O   0  0  0  0  0  0  0  0  0  0  0  0
  -26.4527  -25.8893   19.4390 O   0  0  0  0  0  0  0  0  0  1  0  0
  -22.0913   -2.5577   24.8068 F   0  0  0  0  0  0  0  0  0  0  0  0
  -23.8093   -5.3454   21.3889 F   0  0  0  0  0  0  0  0  0  0  0  0
  -32.4222  -16.6891   17.9827 F   0  0  0  0  0  0  0  0  0  0  0  0
  -32.5798  -19.4241   18.0217 F   0  0  0  0  0  0  0  0  0  0  0  0
  1  2  1  0  0  0  0
  1  5  2  0  0  0  0
  2  6  2  0  0  0  0
  3  8  2  0  0  0  0
  3 16  1  0  0  0  0
  4  9  1  0  0  0  0
  4 16  2  0  0  0  0
  5 18  1  0  0  0  0
  6 20  1  0  0  0  0
  7 10  2  0  0  0  0
  7 19  1  0  0  0  0
  8 22  1  0  0  0  0
  9 22  2  0  0  0  0
 10 23  1  0  0  0  0
 11 12  2  0  0  0  0
 11 24  1  0  0  0  0
 12 25  1  0  0  0  0
 13 21  1  0  0  0  0
 13 23  2  0  0  0  0
 14 25  2  0  0  0  0
 14 26  1  0  0  0  0
 15 27  2  0  0  0  0
 15 30  1  0  0  0  0
 16 29  1  0  0  0  0
 17 29  1  0  0  0  0
 17 32  2  0  0  0  0
 17 33  1  0  0  0  0
 18 20  2  0  0  0  0
 18 40  1  0  0  0  0
 19 21  2  0  0  0  0
 19 41  1  0  0  0  0
 20 49  1  0  0  0  0
 21 42  1  0  0  0  0
 22 82  1  0  0  0  0
 23 83  1  0  0  0  0
 24 26  2  0  0  0  0
 24 82  1  0  0  0  0
 25 84  1  0  0  0  0
 26 85  1  0  0  0  0
 27 28  1  0  0  0  0
 27 86  1  0  0  0  0
 28 31  2  0  0  0  0
 28 87  1  0  0  0  0
 29 63  2  0  0  0  0
 30 64  2  0  0  0  0
 30 70  1  0  0  0  0
 31 64  1  0  0  0  0
 31 71  1  0  0  0  0
 32 65  1  0  0  0  0
 32 68  1  0  0  0  0
 33 69  1  0  0  0  0
 33 75  2  0  0  0  0
 34 35  1  0  0  0  0
 34 57  1  0  0  0  0
 34 76  2  0  0  0  0
 35 58  1  0  0  0  0
 35 77  2  0  0  0  0
 36 50  1  0  0  0  0
 36 72  1  0  0  0  0
 36 78  2  0  0  0  0
 37 60  1  0  0  0  0
 37 66  1  0  0  0  0
 37 79  2  0  0  0  0
 38 61  1  0  0  0  0
 38 73  1  0  0  0  0
 38 80  2  0  0  0  0
 39 67  1  0  0  0  0
 39 70  1  0  0  0  0
 39 81  2  0  0  0  0
 40 43  1  0  0  0  0
 41 50  1  0  0  0  0
 42 66  1  0  0  0  0
 43 45  1  0  0  0  0
 44 46  1  0  0  0  0
 44 47  1  0  0  0  0
 45 49  1  0  0  0  0
 46 51  1  0  0  0  0
 47 67  1  0  0  0  0
 48 51  1  0  0  0  0
 48 67  1  0  0  0  0
 49 72  1  0  0  0  0
 50 66  1  0  0  0  0
 51 65  1  0  0  0  0
 52 61  1  0  0  0  0
 53 62  1  0  0  0  0
 54 62  1  0  0  0  0
 55 62  1  0  0  0  0
 56 74  1  0  0  0  0
 57 59  1  0  0  0  0
 58 71  1  0  0  0  0
 59 83  1  0  0  0  0
 60 62  1  0  0  0  0
 60 73  1  0  0  0  0
 61 74  1  0  0  0  0
 63 65  1  0  0  0  0
M  CHG  1  74   1
M  ISO  4  39 100  59 101  70 100  83 101
M  END
> <Batch ID>
0173

> <Smiles>
CNC(C)C(=O)NC(C(=O)N1Cc2cc([101O:1][101CH2:1]CC(=O)C(=O)CNc3nc([100NH:0][100C:0](=O)N4CCCC(n5nc(-c6ccc(Oc7ccc(F)cc7F)cc6)c(C(N)=O)c5N)C4)cc(F)c3F)ccc2CC1C(=O)NC1CCCc2ccccc21)C(C)(C)C

> <Shape>
0.277

> <Color>
0.096

> <Negative vol penalty>
0.000

$$$$

  -OEChem-04052304293D

 86 94  0     1  0  0  0  0  0999 V2000
  -26.7324  -37.9420   18.7512 C   0  0  0  0  0  0  0  0  0  0  0  0
  -27.1857  -36.7131   18.2824 C   0  0  0  0  0  0  0  0  0  0  0  0
  -24.7701   -6.6879   23.0968 C   0  0  0  0  0  0  0  0  0  0  0  0
  -23.7942   -6.2359   20.9334 C   0  0  0  0  0  0  0  0  0  0  0  0
  -27.7731  -19.0530   21.4588 C   0  0  0  0  0  0  0  0  0  0  0  0
  -26.2564  -38.0563   20.0566 C   0  0  0  0  0  0  0  0  0  0  0  0
  -27.1643  -35.5979   19.1193 C   0  0  0  0  0  0  0  0  0  0  0  0
  -26.2735  -28.4925   18.9306 C   0  0  0  0  0  0  0  0  0  0  0  0
  -27.6996  -20.4311   21.2564 C   0  0  0  0  0  0  0  0  0  0  0  0
  -24.0020   -5.6669   23.6566 C   0  0  0  0  0  0  0  0  0  0  0  0
  -23.0261   -5.2149   21.4931 C   0  0  0  0  0  0  0  0  0  0  0  0
  -26.8986  -27.3172   19.3451 C   0  0  0  0  0  0  0  0  0  0  0  0
  -24.0873   -2.2908   23.8230 C   0  0  0  0  0  0  0  0  0  0  0  0
  -24.7216   -1.4063   24.6953 C   0  0  0  0  0  0  0  0  0  0  0  0
  -25.9808  -27.6158   21.5559 C   0  0  0  0  0  0  0  0  0  0  0  0
  -28.0631  -20.1029   18.8905 C   0  0  0  0  0  0  0  0  0  0  0  0
  -23.2007   -2.0534   26.4574 C   0  0  0  0  0  0  0  0  0  0  0  0
  -24.6661   -6.9724   21.7352 C   0  0  0  0  0  0  0  0  0  0  0  0
  -27.9918  -18.1998   20.3771 C   0  0  0  0  0  0  0  0  0  0  0  0
  -26.7465   -7.9149   20.5989 C   0  0  0  0  0  0  0  0  0  0  0  0
  -26.2202  -36.9398   20.9069 C   0  0  0  0  0  0  0  0  0  0  0  0
  -25.5050  -29.2453   19.8301 C   0  0  0  0  0  0  0  0  0  0  0  0
  -26.6887  -35.6977   20.4378 C   0  0  0  0  0  0  0  0  0  0  0  0
  -25.3449  -28.7989   21.1496 C   0  0  0  0  0  0  0  0  0  0  0  0
  -28.1367  -18.7248   19.0930 C   0  0  0  0  0  0  0  0  0  0  0  0
  -27.8445  -20.9561   19.9722 C   0  0  0  0  0  0  0  0  0  0  0  0
  -23.1301   -4.9304   22.8547 C   0  0  0  0  0  0  0  0  0  0  0  0
  -26.7547  -26.8802   20.6586 C   0  0  0  0  0  0  0  0  0  0  0  0
  -23.0098   -3.0568   24.2680 C   0  0  0  0  0  0  0  0  0  0  0  0
  -24.2783   -1.2875   26.0125 C   0  0  0  0  0  0  0  0  0  0  0  0
  -22.5664   -2.9380   25.5852 C   0  0  0  0  0  0  0  0  0  0  0  0
  -25.4588   -8.0273   21.1565 C   0  0  0  0  0  0  0  0  0  0  0  0
  -27.0569   -9.1894   20.1918 C   0  0  0  0  0  0  0  0  0  0  0  0
  -28.0631  -16.7652   20.6208 C   0  0  0  0  0  0  0  0  0  0  0  0
  -27.0701  -16.0099   21.1331 C   0  0  0  0  0  0  0  0  0  0  0  0
  -27.5870   -6.7615   20.4612 C   0  0  0  0  0  0  0  0  0  0  0  0
  -27.2933  -14.5611   21.3118 C   0  0  0  0  0  0  0  0  0  0  0  0
  -25.6826  -32.1895   21.0149 C   0  0  0  0  0  0  0  0  0  0  0  0
  -22.8154  -31.4177   22.3210 C   0  0  0  0  0  0  0  0  0  0  0  0
  -27.5656  -23.3413   20.7251 C   0  0  0  0  0  0  0  0  0  0  0  0
  -20.6759  -28.9781   23.3782 C   0  0  0  0  0  0  0  0  0  0  0  0
  -25.7411  -37.1227   22.3252 C   0  0  0  0  0  0  0  0  0  0  0  0
  -24.8152  -30.4966   19.3603 C   0  0  0  0  0  0  0  0  0  0  0  0
  -24.5138  -29.5600   22.1489 C   0  0  0  0  0  0  0  0  0  0  0  0
  -25.4025  -35.8105   23.0278 C   0  0  0  0  0  0  0  0  0  0  0  0
  -24.1947  -13.3225   19.7965 C   0  0  0  0  0  0  0  0  0  0  0  0
  -26.5057  -34.7822   22.7988 C   0  0  0  0  0  0  0  0  0  0  0  0
  -24.3401  -11.8193   20.0177 C   0  0  0  0  0  0  0  0  0  0  0  0
  -24.8047  -14.1304   20.9409 C   0  0  0  0  0  0  0  0  0  0  0  0
  -26.3728  -12.2791   21.4450 C   0  0  0  0  0  0  0  0  0  0  0  0
  -26.6582  -34.4596   21.3074 C   0  0  1  0  0  0  0  0  0  0  0  0
  -24.4777  -31.4558   20.4976 C   0  0  1  0  0  0  0  0  0  0  0  0
  -25.8076  -11.4475   20.2828 C   0  0  1  0  0  0  0  0  0  0  0  0
  -18.4226  -28.6565   24.4350 C   0  0  0  0  0  0  0  0  0  0  0  0
  -23.9722  -32.2234   25.0270 C   0  0  0  0  0  0  0  0  0  0  0  0
  -22.0736  -31.0121   26.1210 C   0  0  0  0  0  0  0  0  0  0  0  0
  -21.6156  -32.9646   24.6374 C   0  0  0  0  0  0  0  0  0  0  0  0
  -19.6625  -27.4795   21.0359 C   0  0  0  0  0  0  0  0  0  0  0  0
  -27.5573  -24.7166   20.0839 C   0  0  0  0  0  0  0  0  0  1  0  0
  -22.3664  -30.7786   23.6128 C   0  0  1  0  0  0  0  0  0  0  0  0
  -19.1944  -28.7601   23.1287 C   0  0  2  0  0  0  0  0  0  0  0  0
  -28.3715  -17.8408   17.9106 C   0  0  0  0  0  0  0  0  0  0  0  0
  -22.5243  -31.7311   24.8315 C   0  0  0  0  0  0  0  0  0  0  0  0
  -24.9837   -9.2748   21.1097 N   0  0  0  0  0  0  0  0  0  0  0  0
  -25.9783   -9.9579   20.5178 N   0  0  0  0  0  0  0  0  0  0  0  0
  -26.1891  -13.7163   21.2140 N   0  0  0  0  0  0  0  0  0  0  0  0
  -23.8645  -30.7807   21.6432 N   0  0  0  0  0  0  0  0  0  0  0  0
  -28.1444   -9.7165   19.5903 N   0  0  0  0  0  0  0  0  0  0  0  0
  -27.1135   -5.5296   20.9330 N   0  0  0  0  0  0  0  0  0  0  0  0
  -27.7727  -22.3544   19.7674 N   0  0  0  0  0  0  0  0  0  0  0  0
  -25.6086  -33.5621   20.8746 N   0  0  0  0  0  0  0  0  0  0  0  0
  -21.0005  -30.3182   23.3873 N   0  0  0  0  0  0  0  0  0  0  0  0
  -18.9787  -27.5051   22.3546 N   0  3  0  0  0  0  0  0  0  0  0  0
  -28.7309   -6.8246   19.9503 O   0  0  0  0  0  0  0  0  0  0  0  0
  -28.4448  -14.1873   21.5420 O   0  0  0  0  0  0  0  0  0  0  0  0
  -26.6101  -31.5571   21.5065 O   0  0  0  0  0  0  0  0  0  0  0  0
  -22.2512  -32.4403   21.9241 O   0  0  0  0  0  0  0  0  0  0  0  0
  -27.4048  -23.1942   21.9322 O   0  0  0  0  0  0  0  0  0  0  0  0
  -21.4655  -28.0524   23.5517 O   0  0  0  0  0  0  0  0  0  0  0  0
  -22.3806   -3.9339   23.4005 O   0  0  0  0  0  0  0  0  0  0  0  0
  -27.3644  -25.7338   21.0659 O   0  0  0  0  0  0  0  0  0  1  0  0
  -24.8864   -0.4369   26.8495 F   0  0  0  0  0  0  0  0  0  0  0  0
  -21.5310   -3.6703   26.0180 F   0  0  0  0  0  0  0  0  0  0  0  0
  -28.4887  -18.5241   16.7352 F   0  0  0  0  0  0  0  0  0  0  0  0
  -29.5101  -17.0950   18.0074 F   0  0  0  0  0  0  0  0  0  0  0  0
  -27.3599  -16.9469   17.7185 F   0  0  0  0  0  0  0  0  0  0  0  0
  1  2  1  0  0  0  0
  1  6  2  0  0  0  0
  2  7  2  0  0  0  0
  3 10  2  0  0  0  0
  3 18  1  0  0  0  0
  4 11  1  0  0  0  0
  4 18  2  0  0  0  0
  5  9  2  0  0  0  0
  5 19  1  0  0  0  0
  6 21  1  0  0  0  0
  7 23  1  0  0  0  0
  8 12  2  0  0  0  0
  8 22  1  0  0  0  0
  9 26  1  0  0  0  0
 10 27  1  0  0  0  0
 11 27  2  0  0  0  0
 12 28  1  0  0  0  0
 13 14  2  0  0  0  0
 13 29  1  0  0  0  0
 14 30  1  0  0  0  0
 15 24  1  0  0  0  0
 15 28  2  0  0  0  0
 16 25  1  0  0  0  0
 16 26  2  0  0  0  0
 17 30  2  0  0  0  0
 17 31  1  0  0  0  0
 18 32  1  0  0  0  0
 19 25  2  0  0  0  0
 19 34  1  0  0  0  0
 20 32  1  0  0  0  0
 20 33  2  0  0  0  0
 20 36  1  0  0  0  0
 21 23  2  0  0  0  0
 21 42  1  0  0  0  0
 22 24  2  0  0  0  0
 22 43  1  0  0  0  0
 23 51  1  0  0  0  0
 24 44  1  0  0  0  0
 25 62  1  0  0  0  0
 26 70  1  0  0  0  0
 27 80  1  0  0  0  0
 28 81  1  0  0  0  0
 29 31  2  0  0  0  0
 29 80  1  0  0  0  0
 30 82  1  0  0  0  0
 31 83  1  0  0  0  0
 32 64  2  0  0  0  0
 33 65  1  0  0  0  0
 33 68  1  0  0  0  0
 34 35  2  0  0  0  0
 35 37  1  0  0  0  0
 36 69  1  0  0  0  0
 36 74  2  0  0  0  0
 37 66  1  0  0  0  0
 37 75  2  0  0  0  0
 38 52  1  0  0  0  0
 38 71  1  0  0  0  0
 38 76  2  0  0  0  0
 39 60  1  0  0  0  0
 39 67  1  0  0  0  0
 39 77  2  0  0  0  0
 40 59  1  0  0  0  0
 40 70  1  0  0  0  0
 40 78  2  0  0  0  0
 41 61  1  0  0  0  0
 41 72  1  0  0  0  0
 41 79  2  0  0  0  0
 42 45  1  0  0  0  0
 43 52  1  0  0  0  0
 44 67  1  0  0  0  0
 45 47  1  0  0  0  0
 46 48  1  0  0  0  0
 46 49  1  0  0  0  0
 47 51  1  0  0  0  0
 48 53  1  0  0  0  0
 49 66  1  0  0  0  0
 50 53  1  0  0  0  0
 50 66  1  0  0  0  0
 51 71  1  0  0  0  0
 52 67  1  0  0  0  0
 53 65  1  0  0  0  0
 54 61  1  0  0  0  0
 55 63  1  0  0  0  0
 56 63  1  0  0  0  0
 57 63  1  0  0  0  0
 58 73  1  0  0  0  0
 59 81  1  0  0  0  0
 60 63  1  0  0  0  0
 60 72  1  0  0  0  0
 61 73  1  0  0  0  0
 62 84  1  0  0  0  0
 62 85  1  0  0  0  0
 62 86  1  0  0  0  0
 64 65  1  0  0  0  0
M  CHG  1  73   1
M  ISO  4  35 100  37 100  59 101  81 101
M  END
> <Batch ID>
0173

> <Smiles>
CNC(C)C(=O)NC(C(=O)N1Cc2cc([101O:1][101CH2:1]C(=O)Nc3ccc(C=[100CH:0][100C:0](=O)N4CCCC(n5nc(-c6ccc(Oc7ccc(F)cc7F)cc6)c(C(N)=O)c5N)C4)c(C(F)(F)F)c3)ccc2CC1C(=O)NC1CCCc2ccccc21)C(C)(C)C

> <Shape>
0.240

> <Color>
0.059

> <Negative vol penalty>
0.000

$$$$

  -OEChem-04052304293D

 87 95  0     1  0  0  0  0  0999 V2000
  -29.2089  -32.7242   25.3322 C   0  0  0  0  0  0  0  0  0  0  0  0
  -29.0910  -31.5431   24.6067 C   0  0  0  0  0  0  0  0  0  0  0  0
  -22.6205  -10.2974   22.4868 C   0  0  0  0  0  0  0  0  0  0  0  0
  -24.7714  -10.3557   23.5856 C   0  0  0  0  0  0  0  0  0  0  0  0
  -28.0950  -33.2580   25.9788 C   0  0  0  0  0  0  0  0  0  0  0  0
  -27.8591  -30.8945   24.5281 C   0  0  0  0  0  0  0  0  0  0  0  0
  -26.7696  -29.3563   19.8279 C   0  0  0  0  0  0  0  0  0  0  0  0
  -22.7078   -8.9087   22.3895 C   0  0  0  0  0  0  0  0  0  0  0  0
  -24.8587   -8.9669   23.4883 C   0  0  0  0  0  0  0  0  0  0  0  0
  -27.4000  -28.1983   19.3747 C   0  0  0  0  0  0  0  0  0  0  0  0
  -22.2513   -6.2363   24.4102 C   0  0  0  0  0  0  0  0  0  0  0  0
  -21.1211   -5.4907   24.7452 C   0  0  0  0  0  0  0  0  0  0  0  0
  -25.4043  -26.9311   19.8551 C   0  0  0  0  0  0  0  0  0  0  0  0
  -21.0680   -4.5681   22.5129 C   0  0  0  0  0  0  0  0  0  0  0  0
  -29.9300  -16.7079   22.5165 C   0  0  0  0  0  0  0  0  0  0  0  0
  -23.6523  -11.0209   23.0848 C   0  0  0  0  0  0  0  0  0  0  0  0
  -23.0038  -13.2006   24.2406 C   0  0  0  0  0  0  0  0  0  0  0  0
  -26.8466  -32.6208   25.9001 C   0  0  0  0  0  0  0  0  0  0  0  0
  -25.4533  -29.3083   20.3091 C   0  0  0  0  0  0  0  0  0  0  0  0
  -26.7276  -31.4196   25.1753 C   0  0  0  0  0  0  0  0  0  0  0  0
  -24.7586  -28.0904   20.3114 C   0  0  0  0  0  0  0  0  0  0  0  0
  -23.8269   -8.2434   22.8902 C   0  0  0  0  0  0  0  0  0  0  0  0
  -26.7184  -26.9850   19.3909 C   0  0  0  0  0  0  0  0  0  0  0  0
  -22.7898   -6.1480   23.1264 C   0  0  0  0  0  0  0  0  0  0  0  0
  -20.5295   -4.6566   23.7966 C   0  0  0  0  0  0  0  0  0  0  0  0
  -22.1982   -5.3139   22.1778 C   0  0  0  0  0  0  0  0  0  0  0  0
  -31.1794  -17.2275   22.8367 C   0  0  0  0  0  0  0  0  0  0  0  0
  -31.6582  -18.3412   22.1558 C   0  0  0  0  0  0  0  0  0  0  0  0
  -23.5629  -12.4555   23.1852 C   0  0  0  0  0  0  0  0  0  0  0  0
  -30.8553  -18.8940   21.1711 C   0  0  0  0  0  0  0  0  0  0  0  0
  -29.2045  -17.3340   21.5158 C   0  0  0  0  0  0  0  0  0  0  0  0
  -23.1642  -14.5102   23.8589 C   0  0  0  0  0  0  0  0  0  0  0  0
  -28.0287  -25.1041   19.8558 C   0  0  0  0  0  0  0  0  0  1  0  0
  -30.6740  -21.3537   20.9030 C   0  0  0  0  0  0  0  0  0  0  0  0
  -22.3940  -12.7494   25.4572 C   0  0  0  0  0  0  0  0  0  0  0  0
  -28.6692  -23.9743   19.5323 C   0  0  0  0  0  0  0  0  0  0  0  0
  -29.4049  -23.2291   20.5987 C   0  0  0  0  0  0  0  0  0  0  0  0
  -24.0608  -29.9266   23.0988 C   0  0  0  0  0  0  0  0  0  0  0  0
  -21.3389  -29.4011   21.4143 C   0  0  0  0  0  0  0  0  0  0  0  0
  -19.8332  -27.9341   18.7259 C   0  0  0  0  0  0  0  0  0  0  0  0
  -27.0371  -17.2607   20.2338 C   0  0  0  0  0  0  0  0  0  0  0  0
  -25.6817  -33.2106   26.6549 C   0  0  0  0  0  0  0  0  0  0  0  0
  -24.7782  -30.5712   20.7695 C   0  0  0  0  0  0  0  0  0  0  0  0
  -23.3372  -27.9891   20.7991 C   0  0  0  0  0  0  0  0  0  0  0  0
  -24.3280  -32.6614   26.2119 C   0  0  0  0  0  0  0  0  0  0  0  0
  -23.4879  -17.2590   19.9508 C   0  0  0  0  0  0  0  0  0  0  0  0
  -24.3795  -31.1410   26.0998 C   0  0  0  0  0  0  0  0  0  0  0  0
  -23.0531  -16.0987   20.8489 C   0  0  0  0  0  0  0  0  0  0  0  0
  -24.7913  -16.9502   19.2164 C   0  0  0  0  0  0  0  0  0  0  0  0
  -25.4674  -15.3625   20.9746 C   0  0  0  0  0  0  0  0  0  0  0  0
  -25.4027  -30.6999   25.0462 C   0  0  1  0  0  0  0  0  0  0  0  0
  -23.6116  -30.3134   21.7181 C   0  0  1  0  0  0  0  0  0  0  0  0
  -24.1935  -15.6525   21.7848 C   0  0  2  0  0  0  0  0  0  0  0  0
  -17.5909  -27.6520   17.6351 C   0  0  0  0  0  0  0  0  0  0  0  0
  -20.5591  -27.3656   23.5493 C   0  0  0  0  0  0  0  0  0  0  0  0
  -18.8483  -26.4597   21.9616 C   0  0  0  0  0  0  0  0  0  0  0  0
  -18.6832  -28.8180   22.7579 C   0  0  0  0  0  0  0  0  0  0  0  0
  -20.7435  -29.2653   16.2443 C   0  0  0  0  0  0  0  0  0  0  0  0
  -31.3396  -20.0986   20.4110 C   0  0  0  0  0  0  0  0  0  0  0  0
  -20.4902  -28.1918   21.1042 C   0  0  1  0  0  0  0  0  0  0  0  0
  -18.8653  -28.4798   17.6915 C   0  0  2  0  0  0  0  0  0  0  0  0
  -19.6726  -27.7100   22.3358 C   0  0  0  0  0  0  0  0  0  0  0  0
  -24.0425  -13.2275   22.2064 N   0  0  0  0  0  0  0  0  0  0  0  0
  -29.6365  -18.4174   20.8323 N   0  0  0  0  0  0  0  0  0  0  0  0
  -30.0011  -22.0974   20.0891 N   0  0  0  0  0  0  0  0  0  0  0  0
  -23.7852  -14.4714   22.6452 N   0  0  0  0  0  0  0  0  0  0  0  0
  -22.7226  -29.2504   21.2449 N   0  0  0  0  0  0  0  0  0  0  0  0
  -25.8267  -16.5387   20.1669 N   0  0  0  0  0  0  0  0  0  0  0  0
  -22.8332  -15.6797   24.4464 N   0  0  0  0  0  0  0  0  0  0  0  0
  -22.3110  -11.3700   25.6914 N   0  0  0  0  0  0  0  0  0  0  0  0
  -27.9324  -16.7971   21.1972 N   0  0  0  0  0  0  0  0  0  0  0  0
  -24.8619  -30.8692   23.7145 N   0  0  0  0  0  0  0  0  0  0  0  0
  -19.6747  -28.5508   19.9490 N   0  0  0  0  0  0  0  0  0  0  0  0
  -19.4923  -28.4701   16.3395 N   0  3  0  0  0  0  0  0  0  0  0  0
  -21.9216  -13.5453   26.3039 O   0  0  0  0  0  0  0  0  0  0  0  0
  -29.4353  -23.6220   21.7608 O   0  0  0  0  0  0  0  0  0  0  0  0
  -23.7056  -28.8531   23.5711 O   0  0  0  0  0  0  0  0  0  0  0  0
  -20.7937  -30.4434   21.7860 O   0  0  0  0  0  0  0  0  0  0  0  0
  -20.6457  -27.0468   18.4751 O   0  0  0  0  0  0  0  0  0  0  0  0
  -27.2516  -18.2363   19.5099 O   0  0  0  0  0  0  0  0  0  0  0  0
  -28.6806  -23.4667   18.2493 O   0  0  0  0  0  0  0  0  0  0  0  0
  -23.9124   -6.8883   22.7956 O   0  0  0  0  0  0  0  0  0  0  0  0
  -27.3316  -25.8531   18.9498 O   0  0  0  0  0  0  0  0  0  1  0  0
  -19.4451   -3.9394   24.1189 F   0  0  0  0  0  0  0  0  0  0  0  0
  -22.7118   -5.2239   20.9433 F   0  0  0  0  0  0  0  0  0  0  0  0
  -31.9190  -16.6575   23.7966 F   0  0  0  0  0  0  0  0  0  0  0  0
  -32.8589  -18.8548   22.4499 F   0  0  0  0  0  0  0  0  0  0  0  0
  1  2  1  0  0  0  0
  1  5  2  0  0  0  0
  2  6  2  0  0  0  0
  3  8  2  0  0  0  0
  3 16  1  0  0  0  0
  4  9  1  0  0  0  0
  4 16  2  0  0  0  0
  5 18  1  0  0  0  0
  6 20  1  0  0  0  0
  7 10  2  0  0  0  0
  7 19  1  0  0  0  0
  8 22  1  0  0  0  0
  9 22  2  0  0  0  0
 10 23  1  0  0  0  0
 11 12  2  0  0  0  0
 11 24  1  0  0  0  0
 12 25  1  0  0  0  0
 13 21  1  0  0  0  0
 13 23  2  0  0  0  0
 14 25  2  0  0  0  0
 14 26  1  0  0  0  0
 15 27  2  0  0  0  0
 15 31  1  0  0  0  0
 16 29  1  0  0  0  0
 17 29  1  0  0  0  0
 17 32  2  0  0  0  0
 17 35  1  0  0  0  0
 18 20  2  0  0  0  0
 18 42  1  0  0  0  0
 19 21  2  0  0  0  0
 19 43  1  0  0  0  0
 20 51  1  0  0  0  0
 21 44  1  0  0  0  0
 22 82  1  0  0  0  0
 23 83  1  0  0  0  0
 24 26  2  0  0  0  0
 24 82  1  0  0  0  0
 25 84  1  0  0  0  0
 26 85  1  0  0  0  0
 27 28  1  0  0  0  0
 27 86  1  0  0  0  0
 28 30  2  0  0  0  0
 28 87  1  0  0  0  0
 29 63  2  0  0  0  0
 30 59  1  0  0  0  0
 30 64  1  0  0  0  0
 31 64  2  0  0  0  0
 31 71  1  0  0  0  0
 32 66  1  0  0  0  0
 32 69  1  0  0  0  0
 33 36  2  0  0  0  0
 33 83  1  0  0  0  0
 34 59  1  0  0  0  0
 34 65  2  0  0  0  0
 35 70  1  0  0  0  0
 35 75  2  0  0  0  0
 36 37  1  0  0  0  0
 36 81  1  0  0  0  0
 37 65  1  0  0  0  0
 37 76  2  0  0  0  0
 38 52  1  0  0  0  0
 38 72  1  0  0  0  0
 38 77  2  0  0  0  0
 39 60  1  0  0  0  0
 39 67  1  0  0  0  0
 39 78  2  0  0  0  0
 40 61  1  0  0  0  0
 40 73  1  0  0  0  0
 40 79  2  0  0  0  0
 41 68  1  0  0  0  0
 41 71  1  0  0  0  0
 41 80  2  0  0  0  0
 42 45  1  0  0  0  0
 43 52  1  0  0  0  0
 44 67  1  0  0  0  0
 45 47  1  0  0  0  0
 46 48  1  0  0  0  0
 46 49  1  0  0  0  0
 47 51  1  0  0  0  0
 48 53  1  0  0  0  0
 49 68  1  0  0  0  0
 50 53  1  0  0  0  0
 50 68  1  0  0  0  0
 51 72  1  0  0  0  0
 52 67  1  0  0  0  0
 53 66  1  0  0  0  0
 54 61  1  0  0  0  0
 55 62  1  0  0  0  0
 56 62  1  0  0  0  0
 57 62  1  0  0  0  0
 58 74  1  0  0  0  0
 60 62  1  0  0  0  0
 60 73  1  0  0  0  0
 61 74  1  0  0  0  0
 63 66  1  0  0  0  0
M  CHG  1  74   1
M  ISO  4  33 101  41 100  71 100  83 101
M  END
> <Batch ID>
0173

> <Smiles>
CNC(C)C(=O)NC(C(=O)N1Cc2cc([101O:1][101CH2:1]C(=O)C(=O)NC=Cc3nc([100NH:0][100C:0](=O)N4CCCC(n5nc(-c6ccc(Oc7ccc(F)cc7F)cc6)c(C(N)=O)c5N)C4)cc(F)c3F)ccc2CC1C(=O)NC1CCCc2ccccc21)C(C)(C)C

> <Shape>
0.300

> <Color>
0.060

> <Negative vol penalty>
0.000

$$$$

  -OEChem-04052304293D

 86 94  0     1  0  0  0  0  0999 V2000
  -18.8592  -33.9237   23.9133 C   0  0  0  0  0  0  0  0  0  0  0  0
  -20.1882  -33.9265   23.5021 C   0  0  0  0  0  0  0  0  0  0  0  0
  -24.4166  -12.6844   19.7986 C   0  0  0  0  0  0  0  0  0  0  0  0
  -25.8629  -13.2481   21.6500 C   0  0  0  0  0  0  0  0  0  0  0  0
  -18.2595  -32.7330   24.3215 C   0  0  0  0  0  0  0  0  0  0  0  0
  -20.9187  -32.7387   23.5000 C   0  0  0  0  0  0  0  0  0  0  0  0
  -26.1488  -29.4075   19.9130 C   0  0  0  0  0  0  0  0  0  0  0  0
  -24.6597  -11.3291   20.0213 C   0  0  0  0  0  0  0  0  0  0  0  0
  -26.1059  -11.8928   21.8728 C   0  0  0  0  0  0  0  0  0  0  0  0
  -27.3717  -28.7751   20.1325 C   0  0  0  0  0  0  0  0  0  0  0  0
  -23.6088   -8.9282   22.1578 C   0  0  0  0  0  0  0  0  0  0  0  0
  -22.5159   -8.0618   22.1377 C   0  0  0  0  0  0  0  0  0  0  0  0
  -26.2083  -26.7645   20.7832 C   0  0  0  0  0  0  0  0  0  0  0  0
  -30.8049  -21.5328   19.6280 C   0  0  0  0  0  0  0  0  0  0  0  0
  -23.5188   -6.8392   20.3111 C   0  0  0  0  0  0  0  0  0  0  0  0
  -32.0091  -21.8962   21.6465 C   0  0  0  0  0  0  0  0  0  0  0  0
  -30.4659  -20.1961   21.5658 C   0  0  0  0  0  0  0  0  0  0  0  0
  -25.0183  -13.6439   20.6128 C   0  0  0  0  0  0  0  0  0  0  0  0
  -23.7429  -15.8281   20.9452 C   0  0  0  0  0  0  0  0  0  0  0  0
  -18.9802  -31.5284   24.3152 C   0  0  0  0  0  0  0  0  0  0  0  0
  -24.9443  -28.7255   20.1378 C   0  0  0  0  0  0  0  0  0  0  0  0
  -20.3285  -31.5311   23.9098 C   0  0  0  0  0  0  0  0  0  0  0  0
  -24.9715  -27.3897   20.5633 C   0  0  0  0  0  0  0  0  0  0  0  0
  -31.7577  -22.2595   20.3333 C   0  0  0  0  0  0  0  0  0  0  0  0
  -30.1420  -20.4799   20.2488 C   0  0  0  0  0  0  0  0  0  0  0  0
  -25.5043  -10.9333   21.0584 C   0  0  0  0  0  0  0  0  0  0  0  0
  -27.4016  -27.4543   20.5704 C   0  0  0  0  0  0  0  0  0  0  0  0
  -24.6567   -8.7503   21.2545 C   0  0  0  0  0  0  0  0  0  0  0  0
  -22.4709   -7.0173   21.2144 C   0  0  0  0  0  0  0  0  0  0  0  0
  -24.6117   -7.7057   20.3312 C   0  0  0  0  0  0  0  0  0  0  0  0
  -24.7680  -15.0442   20.3828 C   0  0  0  0  0  0  0  0  0  0  0  0
  -23.9369  -17.0796   20.4137 C   0  0  0  0  0  0  0  0  0  0  0  0
  -22.7079  -15.4581   21.8658 C   0  0  0  0  0  0  0  0  0  0  0  0
  -22.4671  -29.1311   22.0878 C   0  0  0  0  0  0  0  0  0  0  0  0
  -21.2194  -26.6704   20.3817 C   0  0  0  0  0  0  0  0  0  0  0  0
  -31.0905  -25.4436   19.9977 C   0  0  0  0  0  0  0  0  0  0  0  0
  -21.7689  -23.9380   18.4122 C   0  0  0  0  0  0  0  0  0  0  0  0
  -28.7401  -19.8919   18.2400 C   0  0  0  0  0  0  0  0  0  0  0  0
  -18.3031  -30.2748   24.8101 C   0  0  0  0  0  0  0  0  0  0  0  0
  -23.6336  -29.4134   19.8707 C   0  0  0  0  0  0  0  0  0  0  0  0
  -23.7067  -26.6069   20.7999 C   0  0  0  0  0  0  0  0  0  0  0  0
  -19.0359  -28.9931   24.4224 C   0  0  0  0  0  0  0  0  0  0  0  0
  -25.6812  -19.2686   16.5278 C   0  0  0  0  0  0  0  0  0  0  0  0
  -20.5297  -29.1270   24.7010 C   0  0  0  0  0  0  0  0  0  0  0  0
  -25.0038  -18.1903   17.3766 C   0  0  0  0  0  0  0  0  0  0  0  0
  -27.1958  -19.0778   16.4715 C   0  0  0  0  0  0  0  0  0  0  0  0
  -27.1788  -17.8849   18.6270 C   0  0  0  0  0  0  0  0  0  0  0  0
  -21.1466  -30.2585   23.8699 C   0  0  1  0  0  0  0  0  0  0  0  0
  -22.4652  -28.7866   20.6253 C   0  0  1  0  0  0  0  0  0  0  0  0
  -25.6593  -18.0729   18.7667 C   0  0  2  0  0  0  0  0  0  0  0  0
  -34.0067  -23.1859   19.6434 C   0  0  0  0  0  0  0  0  0  0  0  0
  -20.5543  -22.1061   17.2014 C   0  0  0  0  0  0  0  0  0  0  0  0
  -20.7380  -25.2401   23.0336 C   0  0  0  0  0  0  0  0  0  0  0  0
  -20.4321  -23.1121   21.7505 C   0  0  0  0  0  0  0  0  0  0  0  0
  -18.8749  -25.0252   21.3792 C   0  0  0  0  0  0  0  0  0  0  0  0
  -22.8218  -24.8153   15.7891 C   0  0  0  0  0  0  0  0  0  0  0  0
  -31.0146  -26.6981   20.8524 C   0  0  0  0  0  0  0  0  0  0  0  0
  -32.4966  -23.4109   19.6861 C   0  0  2  0  0  0  0  0  0  0  0  0
  -21.2421  -25.1658   20.5025 C   0  0  1  0  0  0  0  0  0  0  0  0
  -21.1474  -23.5026   17.0975 C   0  0  2  0  0  0  0  0  0  0  0  0
  -20.3457  -24.6509   21.6640 C   0  0  0  0  0  0  0  0  0  0  0  0
  -29.8018  -27.5625   20.5554 C   0  0  0  0  0  0  0  0  0  1  0  0
  -31.3855  -20.8797   22.2832 N   0  0  0  0  0  0  0  0  0  0  0  0
  -25.5548  -15.7394   19.5572 N   0  0  0  0  0  0  0  0  0  0  0  0
  -25.0239  -16.9733   19.5968 N   0  0  0  0  0  0  0  0  0  0  0  0
  -22.4501  -27.3254   20.5308 N   0  0  0  0  0  0  0  0  0  0  0  0
  -27.7477  -18.9790   17.8245 N   0  0  0  0  0  0  0  0  0  0  0  0
  -23.2819  -18.2497   20.5700 N   0  0  0  0  0  0  0  0  0  0  0  0
  -22.6534  -14.1305   22.3116 N   0  0  0  0  0  0  0  0  0  0  0  0
  -29.1655  -19.7212   19.5570 N   0  0  0  0  0  0  0  0  0  0  0  0
  -21.3490  -29.8290   22.5028 N   0  0  0  0  0  0  0  0  0  0  0  0
  -32.1873  -24.6640   20.3359 N   0  0  0  0  0  0  0  0  0  0  0  0
  -20.8764  -24.6453   19.1896 N   0  0  0  0  0  0  0  0  0  0  0  0
  -22.1728  -23.4984   16.0160 N   0  3  0  0  0  0  0  0  0  0  0  0
  -21.8466  -16.2766   22.2681 O   0  0  0  0  0  0  0  0  0  0  0  0
  -23.4122  -28.7877   22.7882 O   0  0  0  0  0  0  0  0  0  0  0  0
  -20.1503  -27.2429   20.1560 O   0  0  0  0  0  0  0  0  0  0  0  0
  -30.2692  -25.1707   19.1266 O   0  0  0  0  0  0  0  0  0  0  0  0
  -22.9290  -23.6737   18.7205 O   0  0  0  0  0  0  0  0  0  0  0  0
  -29.1607  -20.7782   17.4919 O   0  0  0  0  0  0  0  0  0  0  0  0
  -25.7415   -9.6108   21.2763 O   0  0  0  0  0  0  0  0  0  0  0  0
  -28.5940  -26.8349   20.7860 O   0  0  0  0  0  0  0  0  0  1  0  0
  -21.4221   -6.1844   21.1962 F   0  0  0  0  0  0  0  0  0  0  0  0
  -25.6160   -7.5290   19.4617 F   0  0  0  0  0  0  0  0  0  0  0  0
  -29.8309  -28.6791   21.3233 F   0  0  0  0  0  0  0  0  0  0  0  0
  -29.8526  -27.9453   19.2536 F   0  0  0  0  0  0  0  0  0  0  0  0
  1  2  1  0  0  0  0
  1  5  2  0  0  0  0
  2  6  2  0  0  0  0
  3  8  2  0  0  0  0
  3 18  1  0  0  0  0
  4  9  1  0  0  0  0
  4 18  2  0  0  0  0
  5 20  1  0  0  0  0
  6 22  1  0  0  0  0
  7 10  2  0  0  0  0
  7 21  1  0  0  0  0
  8 26  1  0  0  0  0
  9 26  2  0  0  0  0
 10 27  1  0  0  0  0
 11 12  2  0  0  0  0
 11 28  1  0  0  0  0
 12 29  1  0  0  0  0
 13 23  1  0  0  0  0
 13 27  2  0  0  0  0
 14 24  2  0  0  0  0
 14 25  1  0  0  0  0
 15 29  2  0  0  0  0
 15 30  1  0  0  0  0
 16 24  1  0  0  0  0
 16 63  2  0  0  0  0
 17 25  2  0  0  0  0
 17 63  1  0  0  0  0
 18 31  1  0  0  0  0
 19 31  1  0  0  0  0
 19 32  2  0  0  0  0
 19 33  1  0  0  0  0
 20 22  2  0  0  0  0
 20 39  1  0  0  0  0
 21 23  2  0  0  0  0
 21 40  1  0  0  0  0
 22 48  1  0  0  0  0
 23 41  1  0  0  0  0
 24 58  1  0  0  0  0
 25 70  1  0  0  0  0
 26 81  1  0  0  0  0
 27 82  1  0  0  0  0
 28 30  2  0  0  0  0
 28 81  1  0  0  0  0
 29 83  1  0  0  0  0
 30 84  1  0  0  0  0
 31 64  2  0  0  0  0
 32 65  1  0  0  0  0
 32 68  1  0  0  0  0
 33 69  1  0  0  0  0
 33 75  2  0  0  0  0
 34 49  1  0  0  0  0
 34 71  1  0  0  0  0
 34 76  2  0  0  0  0
 35 59  1  0  0  0  0
 35 66  1  0  0  0  0
 35 77  2  0  0  0  0
 36 57  1  0  0  0  0
 36 72  1  0  0  0  0
 36 78  2  0  0  0  0
 37 60  1  0  0  0  0
 37 73  1  0  0  0  0
 37 79  2  0  0  0  0
 38 67  1  0  0  0  0
 38 70  1  0  0  0  0
 38 80  2  0  0  0  0
 39 42  1  0  0  0  0
 40 49  1  0  0  0  0
 41 66  1  0  0  0  0
 42 44  1  0  0  0  0
 43 45  1  0  0  0  0
 43 46  1  0  0  0  0
 44 48  1  0  0  0  0
 45 50  1  0  0  0  0
 46 67  1  0  0  0  0
 47 50  1  0  0  0  0
 47 67  1  0  0  0  0
 48 71  1  0  0  0  0
 49 66  1  0  0  0  0
 50 65  1  0  0  0  0
 51 58  1  0  0  0  0
 52 60  1  0  0  0  0
 53 61  1  0  0  0  0
 54 61  1  0  0  0  0
 55 61  1  0  0  0  0
 56 74  1  0  0  0  0
 57 62  1  0  0  0  0
 58 72  1  0  0  0  0
 59 61  1  0  0  0  0
 59 73  1  0  0  0  0
 60 74  1  0  0  0  0
 62 82  1  0  0  0  0
 62 85  1  0  0  0  0
 62 86  1  0  0  0  0
 64 65  1  0  0  0  0
M  CHG  1  74   1
M  ISO  4  38 100  62 101  70 100  82 101
M  END
> <Batch ID>
0173

> <Smiles>
CNC(C)C(=O)NC(C(=O)N1Cc2cc([101O:1][101C:1](F)(F)CC(=O)NC(C)c3cncc([100NH:0][100C:0](=O)N4CCCC(n5nc(-c6ccc(Oc7ccc(F)cc7F)cc6)c(C(N)=O)c5N)C4)c3)ccc2CC1C(=O)NC1CCCc2ccccc21)C(C)(C)C

> <Shape>
0.226

> <Color>
0.099

> <Negative vol penalty>
0.000

$$$$

  -OEChem-04052304293D

 87 95  0     1  0  0  0  0  0999 V2000
  -27.5163  -32.8419   27.3803 C   0  0  0  0  0  0  0  0  0  0  0  0
  -27.6990  -31.7102   26.5920 C   0  0  0  0  0  0  0  0  0  0  0  0
  -23.2205   -9.7551   21.4445 C   0  0  0  0  0  0  0  0  0  0  0  0
  -23.9633  -10.6861   23.5465 C   0  0  0  0  0  0  0  0  0  0  0  0
  -26.2464  -33.4028   27.5090 C   0  0  0  0  0  0  0  0  0  0  0  0
  -26.6115  -31.1382   25.9327 C   0  0  0  0  0  0  0  0  0  0  0  0
  -27.6709  -29.9204   21.1327 C   0  0  0  0  0  0  0  0  0  0  0  0
  -22.5549   -8.7388   22.1299 C   0  0  0  0  0  0  0  0  0  0  0  0
  -23.2976   -9.6699   24.2319 C   0  0  0  0  0  0  0  0  0  0  0  0
  -28.4048  -28.7545   20.9188 C   0  0  0  0  0  0  0  0  0  0  0  0
  -23.3488   -5.8274   23.6522 C   0  0  0  0  0  0  0  0  0  0  0  0
  -23.4913   -4.5242   23.1757 C   0  0  0  0  0  0  0  0  0  0  0  0
  -31.3796  -19.7799   21.9699 C   0  0  0  0  0  0  0  0  0  0  0  0
  -26.3685  -27.5792   20.3788 C   0  0  0  0  0  0  0  0  0  0  0  0
  -31.7137  -17.5484   21.1063 C   0  0  0  0  0  0  0  0  0  0  0  0
  -21.1034   -4.3877   22.8349 C   0  0  0  0  0  0  0  0  0  0  0  0
  -23.9248  -10.7287   22.1529 C   0  0  0  0  0  0  0  0  0  0  0  0
  -29.9988  -19.6159   21.8594 C   0  0  0  0  0  0  0  0  0  0  0  0
  -24.0956  -13.0334   21.0727 C   0  0  0  0  0  0  0  0  0  0  0  0
  -25.1445  -32.8430   26.8432 C   0  0  0  0  0  0  0  0  0  0  0  0
  -26.2768  -29.9218   20.9817 C   0  0  0  0  0  0  0  0  0  0  0  0
  -25.3254  -31.6914   26.0537 C   0  0  0  0  0  0  0  0  0  0  0  0
  -25.6196  -28.7471   20.5889 C   0  0  0  0  0  0  0  0  0  0  0  0
  -30.3329  -17.3844   20.9959 C   0  0  0  0  0  0  0  0  0  0  0  0
  -22.5934   -8.6962   23.5236 C   0  0  0  0  0  0  0  0  0  0  0  0
  -27.7533  -27.5829   20.5446 C   0  0  0  0  0  0  0  0  0  0  0  0
  -22.0835   -6.4107   23.7201 C   0  0  0  0  0  0  0  0  0  0  0  0
  -22.3686   -3.8044   22.7670 C   0  0  0  0  0  0  0  0  0  0  0  0
  -32.2370  -18.7461   21.5932 C   0  0  0  0  0  0  0  0  0  0  0  0
  -20.9608   -5.6909   23.3114 C   0  0  0  0  0  0  0  0  0  0  0  0
  -29.4755  -18.4182   21.3724 C   0  0  0  0  0  0  0  0  0  0  0  0
  -24.6131  -11.7785   21.4455 C   0  0  0  0  0  0  0  0  0  0  0  0
  -25.1368  -13.6569   20.4295 C   0  0  0  0  0  0  0  0  0  0  0  0
  -28.1799  -25.3534   21.1087 C   0  0  0  0  0  0  0  0  0  1  0  0
  -29.0937  -20.7125   22.2597 C   0  0  0  0  0  0  0  0  0  0  0  0
  -22.7904  -13.5862   21.2886 C   0  0  0  0  0  0  0  0  0  0  0  0
  -28.8176  -24.1836   20.9896 C   0  0  0  0  0  0  0  0  0  0  0  0
  -28.4221  -23.0698   21.8837 C   0  0  0  0  0  0  0  0  0  0  0  0
  -23.8118  -30.4672   22.9131 C   0  0  0  0  0  0  0  0  0  0  0  0
  -22.1021  -30.1896   20.1704 C   0  0  0  0  0  0  0  0  0  0  0  0
  -21.9007  -28.9580   16.9940 C   0  0  0  0  0  0  0  0  0  0  0  0
  -30.5183  -15.0434   20.0837 C   0  0  0  0  0  0  0  0  0  0  0  0
  -23.7825  -33.4568   27.0506 C   0  0  0  0  0  0  0  0  0  0  0  0
  -25.5027  -31.1944   21.1902 C   0  0  0  0  0  0  0  0  0  0  0  0
  -24.1269  -28.7010   20.3936 C   0  0  0  0  0  0  0  0  0  0  0  0
  -22.7498  -33.0104   26.0188 C   0  0  0  0  0  0  0  0  0  0  0  0
  -29.5853  -11.8415   18.8370 C   0  0  0  0  0  0  0  0  0  0  0  0
  -22.8039  -31.4979   25.8292 C   0  0  0  0  0  0  0  0  0  0  0  0
  -28.1660  -11.6429   19.3738 C   0  0  0  0  0  0  0  0  0  0  0  0
  -30.4750  -12.5706   19.8422 C   0  0  0  0  0  0  0  0  0  0  0  0
  -28.5145  -13.6416   20.8807 C   0  0  0  0  0  0  0  0  0  0  0  0
  -24.1750  -31.0565   25.3030 C   0  0  1  0  0  0  0  0  0  0  0  0
  -24.0302  -30.9529   21.5080 C   0  0  1  0  0  0  0  0  0  0  0  0
  -27.5633  -12.9690   19.8774 C   0  0  2  0  0  0  0  0  0  0  0  0
  -20.3651  -28.8636   15.0115 C   0  0  0  0  0  0  0  0  0  0  0  0
  -20.4031  -28.0898   21.5896 C   0  0  0  0  0  0  0  0  0  0  0  0
  -19.5466  -27.3699   19.3498 C   0  0  0  0  0  0  0  0  0  0  0  0
  -19.1111  -29.6874   20.1637 C   0  0  0  0  0  0  0  0  0  0  0  0
  -23.8507  -30.3669   15.2702 C   0  0  0  0  0  0  0  0  0  0  0  0
  -21.4452  -29.0491   19.4309 C   0  0  1  0  0  0  0  0  0  0  0  0
  -21.5054  -29.6130   15.6829 C   0  0  2  0  0  0  0  0  0  0  0  0
  -20.1544  -28.5491   20.1390 C   0  0  0  0  0  0  0  0  0  0  0  0
  -25.8842  -11.6128   21.0702 N   0  0  0  0  0  0  0  0  0  0  0  0
  -26.1741  -12.7718   20.4549 N   0  0  0  0  0  0  0  0  0  0  0  0
  -23.4133  -29.9695   20.6156 N   0  0  0  0  0  0  0  0  0  0  0  0
  -29.8419  -13.8195   20.2714 N   0  0  0  0  0  0  0  0  0  0  0  0
  -25.2569  -14.8704   19.8504 N   0  0  0  0  0  0  0  0  0  0  0  0
  -21.8402  -12.8108   21.9669 N   0  0  0  0  0  0  0  0  0  0  0  0
  -29.8045  -16.1665   20.5005 N   0  0  0  0  0  0  0  0  0  0  0  0
  -29.2052  -21.8874   21.6241 N   0  0  0  0  0  0  0  0  0  0  0  0
  -24.2836  -31.3280   23.8856 N   0  0  0  0  0  0  0  0  0  0  0  0
  -21.2348  -29.5158   18.0648 N   0  0  0  0  0  0  0  0  0  0  0  0
  -28.2147  -20.4684   23.2311 N   0  3  0  0  0  0  0  0  0  0  0  0
  -22.6651  -29.6404   14.7472 N   0  3  0  0  0  0  0  0  0  0  0  0
  -22.4709  -14.7274   20.8772 O   0  0  0  0  0  0  0  0  0  0  0  0
  -27.5528  -23.1102   22.7388 O   0  0  0  0  0  0  0  0  0  0  0  0
  -23.2551  -29.3918   23.1009 O   0  0  0  0  0  0  0  0  0  0  0  0
  -21.4776  -31.2397   20.3404 O   0  0  0  0  0  0  0  0  0  0  0  0
  -22.7158  -28.0405   17.0612 O   0  0  0  0  0  0  0  0  0  0  0  0
  -31.6364  -15.0940   19.5648 O   0  0  0  0  0  0  0  0  0  0  0  0
  -29.8247  -23.9662   20.0751 O   0  0  0  0  0  0  0  0  0  0  0  0
  -21.9438   -7.7048   24.1927 O   0  0  0  0  0  0  0  0  0  0  0  0
  -28.4671  -26.4432   20.3357 O   0  0  0  0  0  0  0  0  0  1  0  0
  -22.5058   -2.5535   22.3080 F   0  0  0  0  0  0  0  0  0  0  0  0
  -33.5628  -18.9036   21.6995 F   0  0  0  0  0  0  0  0  0  0  0  0
  -19.7429   -6.2464   23.3732 F   0  0  0  0  0  0  0  0  0  0  0  0
  -28.1472  -18.2620   21.2664 F   0  0  0  0  0  0  0  0  0  0  0  0
  1  2  1  0  0  0  0
  1  5  2  0  0  0  0
  2  6  2  0  0  0  0
  3  8  2  0  0  0  0
  3 17  1  0  0  0  0
  4  9  1  0  0  0  0
  4 17  2  0  0  0  0
  5 20  1  0  0  0  0
  6 22  1  0  0  0  0
  7 10  2  0  0  0  0
  7 21  1  0  0  0  0
  8 25  1  0  0  0  0
  9 25  2  0  0  0  0
 10 26  1  0  0  0  0
 11 12  2  0  0  0  0
 11 27  1  0  0  0  0
 12 28  1  0  0  0  0
 13 18  1  0  0  0  0
 13 29  2  0  0  0  0
 14 23  1  0  0  0  0
 14 26  2  0  0  0  0
 15 24  2  0  0  0  0
 15 29  1  0  0  0  0
 16 28  2  0  0  0  0
 16 30  1  0  0  0  0
 17 32  1  0  0  0  0
 18 31  2  0  0  0  0
 18 35  1  0  0  0  0
 19 32  1  0  0  0  0
 19 33  2  0  0  0  0
 19 36  1  0  0  0  0
 20 22  2  0  0  0  0
 20 43  1  0  0  0  0
 21 23  2  0  0  0  0
 21 44  1  0  0  0  0
 22 52  1  0  0  0  0
 23 45  1  0  0  0  0
 24 31  1  0  0  0  0
 24 69  1  0  0  0  0
 25 82  1  0  0  0  0
 26 83  1  0  0  0  0
 27 30  2  0  0  0  0
 27 82  1  0  0  0  0
 28 84  1  0  0  0  0
 29 85  1  0  0  0  0
 30 86  1  0  0  0  0
 31 87  1  0  0  0  0
 32 63  2  0  0  0  0
 33 64  1  0  0  0  0
 33 67  1  0  0  0  0
 34 37  2  0  0  0  0
 34 83  1  0  0  0  0
 35 70  1  0  0  0  0
 35 73  2  0  0  0  0
 36 68  1  0  0  0  0
 36 75  2  0  0  0  0
 37 38  1  0  0  0  0
 37 81  1  0  0  0  0
 38 70  1  0  0  0  0
 38 76  2  0  0  0  0
 39 53  1  0  0  0  0
 39 71  1  0  0  0  0
 39 77  2  0  0  0  0
 40 60  1  0  0  0  0
 40 65  1  0  0  0  0
 40 78  2  0  0  0  0
 41 61  1  0  0  0  0
 41 72  1  0  0  0  0
 41 79  2  0  0  0  0
 42 66  1  0  0  0  0
 42 69  1  0  0  0  0
 42 80  2  0  0  0  0
 43 46  1  0  0  0  0
 44 53  1  0  0  0  0
 45 65  1  0  0  0  0
 46 48  1  0  0  0  0
 47 49  1  0  0  0  0
 47 50  1  0  0  0  0
 48 52  1  0  0  0  0
 49 54  1  0  0  0  0
 50 66  1  0  0  0  0
 51 54  1  0  0  0  0
 51 66  1  0  0  0  0
 52 71  1  0  0  0  0
 53 65  1  0  0  0  0
 54 64  1  0  0  0  0
 55 61  1  0  0  0  0
 56 62  1  0  0  0  0
 57 62  1  0  0  0  0
 58 62  1  0  0  0  0
 59 74  1  0  0  0  0
 60 62  1  0  0  0  0
 60 72  1  0  0  0  0
 61 74  1  0  0  0  0
 63 64  1  0  0  0  0
M  CHG  2  73   1  74   1
M  ISO  4  34 101  42 100  69 100  83 101
M  END
> <Batch ID>
0173

> <Smiles>
CNC(C)C(=O)NC(C(=O)N1Cc2cc([101O:1][101CH2:1]C(=O)C(=O)NC(=N)c3cc(F)cc([100NH:0][100C:0](=O)N4CCCC(n5nc(-c6ccc(Oc7ccc(F)cc7F)cc6)c(C(N)=O)c5N)C4)c3F)ccc2CC1C(=O)NC1CCCc2ccccc21)C(C)(C)C

> <Shape>
0.340

> <Color>
0.203

> <Negative vol penalty>
0.000

$$$$

  -OEChem-04052304293D

 85 93  0     1  0  0  0  0  0999 V2000
  -26.1074  -37.7717   21.0448 C   0  0  0  0  0  0  0  0  0  0  0  0
  -26.8298  -36.6081   20.8006 C   0  0  0  0  0  0  0  0  0  0  0  0
  -23.5598   -8.9742   19.6570 C   0  0  0  0  0  0  0  0  0  0  0  0
  -23.3403  -10.2129   21.7197 C   0  0  0  0  0  0  0  0  0  0  0  0
  -25.0317  -37.7499   21.9316 C   0  0  0  0  0  0  0  0  0  0  0  0
  -26.4775  -35.4222   21.4440 C   0  0  0  0  0  0  0  0  0  0  0  0
  -26.8391  -29.7495   19.1645 C   0  0  0  0  0  0  0  0  0  0  0  0
  -22.8452   -7.9153   20.2168 C   0  0  0  0  0  0  0  0  0  0  0  0
  -22.6256   -9.1539   22.2795 C   0  0  0  0  0  0  0  0  0  0  0  0
  -27.7884  -28.7388   19.3102 C   0  0  0  0  0  0  0  0  0  0  0  0
  -23.3039   -6.1345   23.6411 C   0  0  0  0  0  0  0  0  0  0  0  0
  -23.6394   -5.7389   24.9359 C   0  0  0  0  0  0  0  0  0  0  0  0
  -26.4603  -27.7530   21.0663 C   0  0  0  0  0  0  0  0  0  0  0  0
  -21.3917   -6.2349   25.6700 C   0  0  0  0  0  0  0  0  0  0  0  0
  -23.8074  -10.1230   20.4084 C   0  0  0  0  0  0  0  0  0  0  0  0
  -24.0239  -12.3127   19.1176 C   0  0  0  0  0  0  0  0  0  0  0  0
  -24.6601  -36.5609   22.5788 C   0  0  0  0  0  0  0  0  0  0  0  0
  -25.6968  -29.7756   19.9774 C   0  0  0  0  0  0  0  0  0  0  0  0
  -25.3967  -35.3847   22.3413 C   0  0  0  0  0  0  0  0  0  0  0  0
  -25.4968  -28.7636   20.9272 C   0  0  0  0  0  0  0  0  0  0  0  0
  -22.3780   -8.0051   21.5281 C   0  0  0  0  0  0  0  0  0  0  0  0
  -27.6005  -27.7420   20.2632 C   0  0  0  0  0  0  0  0  0  0  0  0
  -22.0122   -6.5804   23.3607 C   0  0  0  0  0  0  0  0  0  0  0  0
  -22.6833   -5.7891   25.9503 C   0  0  0  0  0  0  0  0  0  0  0  0
  -21.0562   -6.6306   24.3751 C   0  0  0  0  0  0  0  0  0  0  0  0
  -30.1427  -19.9353   19.7506 C   0  0  0  0  0  0  0  0  0  0  0  0
  -30.3979  -18.5368   19.8459 C   0  0  0  0  0  0  0  0  0  0  0  0
  -24.5461  -11.2171   19.8309 C   0  0  0  0  0  0  0  0  0  0  0  0
  -28.7955  -20.2197   19.7948 C   0  0  0  0  0  0  0  0  0  0  0  0
  -25.1256  -13.0627   18.7855 C   0  0  0  0  0  0  0  0  0  0  0  0
  -29.2360  -17.8054   19.9597 C   0  0  0  0  0  0  0  0  0  0  0  0
  -22.6646  -12.6246   18.7851 C   0  0  0  0  0  0  0  0  0  0  0  0
  -28.1196  -21.5403   19.7259 C   0  0  0  0  0  0  0  0  0  0  0  0
  -24.5155  -31.8031   22.1217 C   0  0  0  0  0  0  0  0  0  0  0  0
  -21.9909  -29.7666   22.0809 C   0  0  0  0  0  0  0  0  0  0  0  0
  -28.5246  -23.9662   19.4880 C   0  0  0  0  0  0  0  0  0  0  0  0
  -20.8133  -26.6241   21.4606 C   0  0  0  0  0  0  0  0  0  0  0  0
  -29.9992  -15.4091   20.1068 C   0  0  0  0  0  0  0  0  0  0  0  0
  -23.5195  -36.5971   23.5650 C   0  0  0  0  0  0  0  0  0  0  0  0
  -24.6691  -30.8578   19.7896 C   0  0  0  0  0  0  0  0  0  0  0  0
  -24.2775  -28.7350   21.8108 C   0  0  0  0  0  0  0  0  0  0  0  0
  -22.9774  -35.2150   23.9202 C   0  0  0  0  0  0  0  0  0  0  0  0
  -30.0615  -11.9903   19.1144 C   0  0  0  0  0  0  0  0  0  0  0  0
  -24.1226  -34.2542   24.2239 C   0  0  0  0  0  0  0  0  0  0  0  0
  -28.5892  -11.5745   19.1536 C   0  0  0  0  0  0  0  0  0  0  0  0
  -30.4068  -12.9616   20.2418 C   0  0  0  0  0  0  0  0  0  0  0  0
  -28.0692  -13.7290   20.3679 C   0  0  0  0  0  0  0  0  0  0  0  0
  -25.0298  -34.0731   23.0010 C   0  0  1  0  0  0  0  0  0  0  0  0
  -23.7966  -31.0737   21.0222 C   0  0  1  0  0  0  0  0  0  0  0  0
  -27.6585  -12.8016   19.2126 C   0  0  2  0  0  0  0  0  0  0  0  0
  -18.7140  -25.2526   21.5565 C   0  0  0  0  0  0  0  0  0  0  0  0
  -22.2612  -29.5693   25.1137 C   0  0  0  0  0  0  0  0  0  0  0  0
  -20.8208  -27.5229   25.0391 C   0  0  0  0  0  0  0  0  0  0  0  0
  -19.9067  -29.7175   24.2836 C   0  0  0  0  0  0  0  0  0  0  0  0
  -20.8782  -26.1096   18.5468 C   0  0  0  0  0  0  0  0  0  0  0  0
  -29.6971  -24.9276   19.3684 C   0  0  0  0  0  0  0  0  0  0  0  0
  -29.2631  -26.3800   19.2450 C   0  0  0  0  0  0  0  0  0  1  0  0
  -21.6085  -28.5224   22.8456 C   0  0  1  0  0  0  0  0  0  0  0  0
  -19.5983  -26.1372   20.6916 C   0  0  2  0  0  0  0  0  0  0  0  0
  -21.1733  -28.8344   24.3053 C   0  0  0  0  0  0  0  0  0  0  0  0
  -25.8761  -11.2630   19.9455 N   0  0  0  0  0  0  0  0  0  0  0  0
  -26.1989  -12.3965   19.2997 N   0  0  0  0  0  0  0  0  0  0  0  0
  -23.3045  -29.8183   21.5933 N   0  0  0  0  0  0  0  0  0  0  0  0
  -29.4864  -14.1007   20.2330 N   0  0  0  0  0  0  0  0  0  0  0  0
  -25.2712  -14.2204   18.1066 N   0  0  0  0  0  0  0  0  0  0  0  0
  -21.6558  -11.7465   19.2042 N   0  0  0  0  0  0  0  0  0  0  0  0
  -29.0274  -16.4089   20.0777 N   0  0  0  0  0  0  0  0  0  0  0  0
  -28.9619  -22.6436   19.5992 N   0  0  0  0  0  0  0  0  0  0  0  0
  -24.4149  -33.1790   22.0435 N   0  0  0  0  0  0  0  0  0  0  0  0
  -20.5878  -27.8508   22.0484 N   0  0  0  0  0  0  0  0  0  0  0  0
  -20.0215  -25.3539   19.4965 N   0  3  0  0  0  0  0  0  0  0  0  0
  -22.3552  -13.6431   18.1214 O   0  0  0  0  0  0  0  0  0  0  0  0
  -26.8928  -21.5862   19.7562 O   0  0  0  0  0  0  0  0  0  0  0  0
  -25.1157  -31.1648   22.9784 O   0  0  0  0  0  0  0  0  0  0  0  0
  -21.1528  -30.6565   21.9158 O   0  0  0  0  0  0  0  0  0  0  0  0
  -27.3518  -24.3295   19.4871 O   0  0  0  0  0  0  0  0  0  0  0  0
  -21.8566  -25.9788   21.5357 O   0  0  0  0  0  0  0  0  0  0  0  0
  -31.2094  -15.6246   20.0028 O   0  0  0  0  0  0  0  0  0  0  0  0
  -21.6804   -6.9720   22.0746 O   0  0  0  0  0  0  0  0  0  0  0  0
  -28.5258  -26.7547   20.4079 O   0  0  0  0  0  0  0  0  0  1  0  0
  -23.0053   -5.4077   27.1933 F   0  0  0  0  0  0  0  0  0  0  0  0
  -19.8133   -7.0569   24.1116 F   0  0  0  0  0  0  0  0  0  0  0  0
  -31.1008  -20.8567   19.6323 F   0  0  0  0  0  0  0  0  0  0  0  0
  -31.6209  -18.0032   19.8269 F   0  0  0  0  0  0  0  0  0  0  0  0
  -27.8449  -18.8040   19.9509 S   0  0  0  0  0  0  0  0  0  0  0  0
  1  2  1  0  0  0  0
  1  5  2  0  0  0  0
  2  6  2  0  0  0  0
  3  8  2  0  0  0  0
  3 15  1  0  0  0  0
  4  9  1  0  0  0  0
  4 15  2  0  0  0  0
  5 17  1  0  0  0  0
  6 19  1  0  0  0  0
  7 10  2  0  0  0  0
  7 18  1  0  0  0  0
  8 21  1  0  0  0  0
  9 21  2  0  0  0  0
 10 22  1  0  0  0  0
 11 12  2  0  0  0  0
 11 23  1  0  0  0  0
 12 24  1  0  0  0  0
 13 20  1  0  0  0  0
 13 22  2  0  0  0  0
 14 24  2  0  0  0  0
 14 25  1  0  0  0  0
 15 28  1  0  0  0  0
 16 28  1  0  0  0  0
 16 30  2  0  0  0  0
 16 32  1  0  0  0  0
 17 19  2  0  0  0  0
 17 39  1  0  0  0  0
 18 20  2  0  0  0  0
 18 40  1  0  0  0  0
 19 48  1  0  0  0  0
 20 41  1  0  0  0  0
 21 79  1  0  0  0  0
 22 80  1  0  0  0  0
 23 25  2  0  0  0  0
 23 79  1  0  0  0  0
 24 81  1  0  0  0  0
 25 82  1  0  0  0  0
 26 27  1  0  0  0  0
 26 29  2  0  0  0  0
 26 83  1  0  0  0  0
 27 31  2  0  0  0  0
 27 84  1  0  0  0  0
 28 61  2  0  0  0  0
 29 33  1  0  0  0  0
 29 85  1  0  0  0  0
 30 62  1  0  0  0  0
 30 65  1  0  0  0  0
 31 67  1  0  0  0  0
 31 85  1  0  0  0  0
 32 66  1  0  0  0  0
 32 72  2  0  0  0  0
 33 68  1  0  0  0  0
 33 73  2  0  0  0  0
 34 49  1  0  0  0  0
 34 69  1  0  0  0  0
 34 74  2  0  0  0  0
 35 58  1  0  0  0  0
 35 63  1  0  0  0  0
 35 75  2  0  0  0  0
 36 56  1  0  0  0  0
 36 68  1  0  0  0  0
 36 76  2  0  0  0  0
 37 59  1  0  0  0  0
 37 70  1  0  0  0  0
 37 77  2  0  0  0  0
 38 64  1  0  0  0  0
 38 67  1  0  0  0  0
 38 78  2  0  0  0  0
 39 42  1  0  0  0  0
 40 49  1  0  0  0  0
 41 63  1  0  0  0  0
 42 44  1  0  0  0  0
 43 45  1  0  0  0  0
 43 46  1  0  0  0  0
 44 48  1  0  0  0  0
 45 50  1  0  0  0  0
 46 64  1  0  0  0  0
 47 50  1  0  0  0  0
 47 64  1  0  0  0  0
 48 69  1  0  0  0  0
 49 63  1  0  0  0  0
 50 62  1  0  0  0  0
 51 59  1  0  0  0  0
 52 60  1  0  0  0  0
 53 60  1  0  0  0  0
 54 60  1  0  0  0  0
 55 71  1  0  0  0  0
 56 57  1  0  0  0  0
 57 80  1  0  0  0  0
 58 60  1  0  0  0  0
 58 70  1  0  0  0  0
 59 71  1  0  0  0  0
 61 62  1  0  0  0  0
M  CHG  1  71   1
M  ISO  4  38 100  57 101  67 100  80 101
M  END
> <Batch ID>
0173

> <Smiles>
CNC(C)C(=O)NC(C(=O)N1Cc2cc([101O:1][101CH2:1]CC(=O)NC(=O)c3sc([100NH:0][100C:0](=O)N4CCCC(n5nc(-c6ccc(Oc7ccc(F)cc7F)cc6)c(C(N)=O)c5N)C4)c(F)c3F)ccc2CC1C(=O)NC1CCCc2ccccc21)C(C)(C)C

> <Shape>
0.356

> <Color>
0.117

> <Negative vol penalty>
0.000

$$$$

  -OEChem-04052304293D

 85 93  0     1  0  0  0  0  0999 V2000
  -18.0226  -13.5384   18.6812 C   0  0  0  0  0  0  0  0  0  0  0  0
  -19.2370  -14.2147   18.7387 C   0  0  0  0  0  0  0  0  0  0  0  0
  -32.6507  -17.4432   23.4525 C   0  0  0  0  0  0  0  0  0  0  0  0
  -23.0002   -9.8946   19.9814 C   0  0  0  0  0  0  0  0  0  0  0  0
  -23.7251   -9.9459   22.2855 C   0  0  0  0  0  0  0  0  0  0  0  0
  -16.8401  -14.2025   19.0047 C   0  0  0  0  0  0  0  0  0  0  0  0
  -19.2694  -15.5560   19.1187 C   0  0  0  0  0  0  0  0  0  0  0  0
  -23.6608  -18.3669   22.3313 C   0  0  0  0  0  0  0  0  0  0  0  0
  -31.8584  -18.3425   24.1660 C   0  0  0  0  0  0  0  0  0  0  0  0
  -32.0595  -16.5472   22.5617 C   0  0  0  0  0  0  0  0  0  0  0  0
  -22.2332   -8.7604   20.2479 C   0  0  0  0  0  0  0  0  0  0  0  0
  -22.9581   -8.8118   22.5521 C   0  0  0  0  0  0  0  0  0  0  0  0
  -24.7390  -19.1635   21.9485 C   0  0  0  0  0  0  0  0  0  0  0  0
  -23.2013   -5.4726   22.0811 C   0  0  0  0  0  0  0  0  0  0  0  0
  -23.7884   -4.4554   22.8336 C   0  0  0  0  0  0  0  0  0  0  0  0
  -23.4203  -21.1394   22.3676 C   0  0  0  0  0  0  0  0  0  0  0  0
  -22.0644   -4.6994   24.5085 C   0  0  0  0  0  0  0  0  0  0  0  0
  -23.7462  -10.4873   21.0002 C   0  0  0  0  0  0  0  0  0  0  0  0
  -24.1324  -13.0027   20.8235 C   0  0  0  0  0  0  0  0  0  0  0  0
  -16.8592  -15.5499   19.3982 C   0  0  0  0  0  0  0  0  0  0  0  0
  -22.4486  -18.9514   22.7254 C   0  0  0  0  0  0  0  0  0  0  0  0
  -18.0860  -16.2391   19.4465 C   0  0  0  0  0  0  0  0  0  0  0  0
  -22.3290  -20.3481   22.7574 C   0  0  0  0  0  0  0  0  0  0  0  0
  -30.4748  -18.3457   23.9888 C   0  0  0  0  0  0  0  0  0  0  0  0
  -30.6759  -16.5504   22.3846 C   0  0  0  0  0  0  0  0  0  0  0  0
  -22.2121   -8.2190   21.5333 C   0  0  0  0  0  0  0  0  0  0  0  0
  -24.6180  -20.5499   21.9638 C   0  0  0  0  0  0  0  0  0  0  0  0
  -22.0457   -6.1033   22.5424 C   0  0  0  0  0  0  0  0  0  0  0  0
  -23.2199   -4.0688   24.0473 C   0  0  0  0  0  0  0  0  0  0  0  0
  -21.4773   -5.7167   23.7561 C   0  0  0  0  0  0  0  0  0  0  0  0
  -29.8836  -17.4497   23.0982 C   0  0  0  0  0  0  0  0  0  0  0  0
  -24.5391  -11.6585   20.7253 C   0  0  0  0  0  0  0  0  0  0  0  0
  -25.2425  -13.7248   20.4590 C   0  0  0  0  0  0  0  0  0  0  0  0
  -22.8646  -13.5497   21.2097 C   0  0  0  0  0  0  0  0  0  0  0  0
  -19.4640  -18.8789   21.6340 C   0  0  0  0  0  0  0  0  0  0  0  0
  -18.8502  -20.5738   24.3308 C   0  0  0  0  0  0  0  0  0  0  0  0
  -27.8258  -20.7069   23.7414 C   0  0  0  0  0  0  0  0  0  0  0  0
  -20.0180  -22.6414   26.7820 C   0  0  0  0  0  0  0  0  0  0  0  0
  -30.7223  -14.6839   20.6933 C   0  0  0  0  0  0  0  0  0  0  0  0
  -15.5502  -16.2387   19.6928 C   0  0  0  0  0  0  0  0  0  0  0  0
  -21.3036  -18.0787   23.1610 C   0  0  0  0  0  0  0  0  0  0  0  0
  -21.0557  -21.0252   23.1917 C   0  0  0  0  0  0  0  0  0  0  0  0
  -15.7113  -17.5558   20.4476 C   0  0  0  0  0  0  0  0  0  0  0  0
  -29.6034  -12.2308   18.3680 C   0  0  0  0  0  0  0  0  0  0  0  0
  -16.8101  -18.4031   19.8140 C   0  0  0  0  0  0  0  0  0  0  0  0
  -28.1527  -11.9738   18.7820 C   0  0  0  0  0  0  0  0  0  0  0  0
  -30.5039  -12.4742   19.5778 C   0  0  0  0  0  0  0  0  0  0  0  0
  -28.5886  -13.2641   20.9109 C   0  0  0  0  0  0  0  0  0  0  0  0
  -18.1648  -17.6874   19.8781 C   0  0  1  0  0  0  0  0  0  0  0  0
  -19.9489  -18.7718   23.0521 C   0  0  1  0  0  0  0  0  0  0  0  0
  -27.6311  -13.0778   19.7226 C   0  0  2  0  0  0  0  0  0  0  0  0
  -19.2718  -23.8901   28.8269 C   0  0  0  0  0  0  0  0  0  0  0  0
  -26.0256  -23.6589   22.0242 C   0  0  0  0  0  0  0  0  0  0  0  0
  -17.5088  -22.6660   22.5607 C   0  0  0  0  0  0  0  0  0  0  0  0
  -17.6427  -24.2718   24.4769 C   0  0  0  0  0  0  0  0  0  0  0  0
  -16.3032  -22.1790   24.6970 C   0  0  0  0  0  0  0  0  0  0  0  0
  -21.8872  -21.1438   28.5205 C   0  0  0  0  0  0  0  0  0  0  0  0
  -29.6250  -19.3152   24.7583 C   0  0  0  0  0  0  0  0  0  0  0  0
  -27.6466  -21.9064   22.8223 C   0  0  0  0  0  0  0  0  0  0  0  0
  -18.8276  -22.0399   24.6903 C   0  0  1  0  0  0  0  0  0  0  0  0
  -19.8691  -22.5978   28.2921 C   0  0  2  0  0  0  0  0  0  0  0  0
  -26.1784  -22.2421   22.5617 C   0  0  2  0  0  0  0  0  0  1  0  0
  -17.5941  -22.7767   24.0961 C   0  0  0  0  0  0  0  0  0  0  0  0
  -25.8084  -11.5315   20.3293 N   0  0  0  0  0  0  0  0  0  0  0  0
  -26.2089  -12.8050   20.1754 N   0  0  0  0  0  0  0  0  0  0  0  0
  -19.9625  -20.1287   23.6024 N   0  0  0  0  0  0  0  0  0  0  0  0
  -29.9491  -13.5356   20.4207 N   0  0  0  0  0  0  0  0  0  0  0  0
  -25.4765  -15.0504   20.3566 N   0  0  0  0  0  0  0  0  0  0  0  0
  -21.8325  -12.6660   21.5534 N   0  0  0  0  0  0  0  0  0  0  0  0
  -30.0783  -15.6396   21.4786 N   0  0  0  0  0  0  0  0  0  0  0  0
  -18.7282  -17.7900   21.2072 N   0  0  0  0  0  0  0  0  0  0  0  0
  -29.1677  -20.4083   23.9311 N   0  0  0  0  0  0  0  0  0  0  0  0
  -18.9191  -22.1050   26.1448 N   0  0  0  0  0  0  0  0  0  0  0  0
  -21.1963  -22.3911   28.9377 N   0  3  0  0  0  0  0  0  0  0  0  0
  -22.6484  -14.7851   21.2331 O   0  0  0  0  0  0  0  0  0  0  0  0
  -19.7360  -19.8764   20.9762 O   0  0  0  0  0  0  0  0  0  0  0  0
  -17.9190  -19.8488   24.6896 O   0  0  0  0  0  0  0  0  0  0  0  0
  -26.8865  -20.0938   24.2409 O   0  0  0  0  0  0  0  0  0  0  0  0
  -21.0083  -23.1082   26.2235 O   0  0  0  0  0  0  0  0  0  0  0  0
  -31.8611  -14.8223   20.2394 O   0  0  0  0  0  0  0  0  0  0  0  0
  -21.4636   -7.1125   21.7938 O   0  0  0  0  0  0  0  0  0  0  0  0
  -25.6687  -21.3298   21.5900 O   0  0  0  0  0  0  0  0  0  1  0  0
  -23.7829   -3.0909   24.7690 F   0  0  0  0  0  0  0  0  0  0  0  0
  -20.3666   -6.3181   24.2038 F   0  0  0  0  0  0  0  0  0  0  0  0
  -28.5529  -17.4545   22.9274 F   0  0  0  0  0  0  0  0  0  0  0  0
  1  2  1  0  0  0  0
  1  6  2  0  0  0  0
  2  7  2  0  0  0  0
  3  9  2  0  0  0  0
  3 10  1  0  0  0  0
  4 11  2  0  0  0  0
  4 18  1  0  0  0  0
  5 12  1  0  0  0  0
  5 18  2  0  0  0  0
  6 20  1  0  0  0  0
  7 22  1  0  0  0  0
  8 13  2  0  0  0  0
  8 21  1  0  0  0  0
  9 24  1  0  0  0  0
 10 25  2  0  0  0  0
 11 26  1  0  0  0  0
 12 26  2  0  0  0  0
 13 27  1  0  0  0  0
 14 15  2  0  0  0  0
 14 28  1  0  0  0  0
 15 29  1  0  0  0  0
 16 23  1  0  0  0  0
 16 27  2  0  0  0  0
 17 29  2  0  0  0  0
 17 30  1  0  0  0  0
 18 32  1  0  0  0  0
 19 32  1  0  0  0  0
 19 33  2  0  0  0  0
 19 34  1  0  0  0  0
 20 22  2  0  0  0  0
 20 40  1  0  0  0  0
 21 23  2  0  0  0  0
 21 41  1  0  0  0  0
 22 49  1  0  0  0  0
 23 42  1  0  0  0  0
 24 31  2  0  0  0  0
 24 58  1  0  0  0  0
 25 31  1  0  0  0  0
 25 70  1  0  0  0  0
 26 81  1  0  0  0  0
 27 82  1  0  0  0  0
 28 30  2  0  0  0  0
 28 81  1  0  0  0  0
 29 83  1  0  0  0  0
 30 84  1  0  0  0  0
 31 85  1  0  0  0  0
 32 64  2  0  0  0  0
 33 65  1  0  0  0  0
 33 68  1  0  0  0  0
 34 69  1  0  0  0  0
 34 75  2  0  0  0  0
 35 50  1  0  0  0  0
 35 71  1  0  0  0  0
 35 76  2  0  0  0  0
 36 60  1  0  0  0  0
 36 66  1  0  0  0  0
 36 77  2  0  0  0  0
 37 59  1  0  0  0  0
 37 72  1  0  0  0  0
 37 78  2  0  0  0  0
 38 61  1  0  0  0  0
 38 73  1  0  0  0  0
 38 79  2  0  0  0  0
 39 67  1  0  0  0  0
 39 70  1  0  0  0  0
 39 80  2  0  0  0  0
 40 43  1  0  0  0  0
 41 50  1  0  0  0  0
 42 66  1  0  0  0  0
 43 45  1  0  0  0  0
 44 46  1  0  0  0  0
 44 47  1  0  0  0  0
 45 49  1  0  0  0  0
 46 51  1  0  0  0  0
 47 67  1  0  0  0  0
 48 51  1  0  0  0  0
 48 67  1  0  0  0  0
 49 71  1  0  0  0  0
 50 66  1  0  0  0  0
 51 65  1  0  0  0  0
 52 61  1  0  0  0  0
 53 62  1  0  0  0  0
 54 63  1  0  0  0  0
 55 63  1  0  0  0  0
 56 63  1  0  0  0  0
 57 74  1  0  0  0  0
 58 72  1  0  0  0  0
 59 62  1  0  0  0  0
 60 63  1  0  0  0  0
 60 73  1  0  0  0  0
 61 74  1  0  0  0  0
 62 82  1  0  0  0  0
 64 65  1  0  0  0  0
M  CHG  1  74   1
M  ISO  4  39 100  62 101  70 100  82 101
M  END
> <Batch ID>
0173

> <Smiles>
CNC(C)C(=O)NC(C(=O)N1Cc2cc([101O:1][101CH:1](C)CC(=O)NCc3cccc([100NH:0][100C:0](=O)N4CCCC(n5nc(-c6ccc(Oc7ccc(F)cc7F)cc6)c(C(N)=O)c5N)C4)c3F)ccc2CC1C(=O)NC1CCCc2ccccc21)C(C)(C)C

> <Shape>
0.175

> <Color>
0.198

> <Negative vol penalty>
0.000

$$$$

  -OEChem-04052304293D

 89 97  0     1  0  0  0  0  0999 V2000
  -34.2972  -17.7763   23.1305 C   0  0  0  0  0  0  0  0  0  0  0  0
  -33.3641  -18.8035   23.2294 C   0  0  0  0  0  0  0  0  0  0  0  0
  -28.1448  -25.5293   17.9489 C   0  0  0  0  0  0  0  0  0  0  0  0
  -26.4666  -24.1290   18.9784 C   0  0  0  0  0  0  0  0  0  0  0  0
  -34.1114  -16.7546   22.2003 C   0  0  0  0  0  0  0  0  0  0  0  0
  -32.2452  -18.8100   22.3973 C   0  0  0  0  0  0  0  0  0  0  0  0
  -25.3483  -20.7452   22.3311 C   0  0  0  0  0  0  0  0  0  0  0  0
  -29.0554  -24.4738   17.9975 C   0  0  0  0  0  0  0  0  0  0  0  0
  -27.3772  -23.0734   19.0269 C   0  0  0  0  0  0  0  0  0  0  0  0
  -24.4463  -21.4916   21.5741 C   0  0  0  0  0  0  0  0  0  0  0  0
  -31.9316  -22.2562   18.1792 C   0  0  0  0  0  0  0  0  0  0  0  0
  -33.2262  -22.5341   18.6179 C   0  0  0  0  0  0  0  0  0  0  0  0
  -18.9439  -28.5792   25.0234 C   0  0  0  0  0  0  0  0  0  0  0  0
  -24.1886  -19.6321   20.0590 C   0  0  0  0  0  0  0  0  0  0  0  0
  -32.3463  -23.2851   20.7389 C   0  0  0  0  0  0  0  0  0  0  0  0
  -17.8285  -28.2121   24.2880 C   0  0  0  0  0  0  0  0  0  0  0  0
  -26.8505  -25.3569   18.4394 C   0  0  0  0  0  0  0  0  0  0  0  0
  -25.0151  -26.7514   17.3465 C   0  0  0  0  0  0  0  0  0  0  0  0
  -32.9847  -16.7434   21.3630 C   0  0  0  0  0  0  0  0  0  0  0  0
  -25.6861  -19.4384   21.9510 C   0  0  0  0  0  0  0  0  0  0  0  0
  -32.0448  -17.7878   21.4541 C   0  0  0  0  0  0  0  0  0  0  0  0
  -25.0932  -18.8704   20.8144 C   0  0  0  0  0  0  0  0  0  0  0  0
  -20.0840  -28.9421   22.9371 C   0  0  0  0  0  0  0  0  0  0  0  0
  -28.6716  -23.2458   18.5364 C   0  0  0  0  0  0  0  0  0  0  0  0
  -23.8685  -20.9361   20.4362 C   0  0  0  0  0  0  0  0  0  0  0  0
  -30.8443  -22.4928   19.0204 C   0  0  0  0  0  0  0  0  0  0  0  0
  -33.4336  -23.0485   19.8977 C   0  0  0  0  0  0  0  0  0  0  0  0
  -20.0891  -28.9499   24.3275 C   0  0  0  0  0  0  0  0  0  0  0  0
  -31.0517  -23.0072   20.3003 C   0  0  0  0  0  0  0  0  0  0  0  0
  -25.9096  -26.4471   18.3901 C   0  0  0  0  0  0  0  0  0  0  0  0
  -18.9176  -28.5585   22.2951 C   0  0  0  0  0  0  0  0  0  0  0  0
  -24.3475  -27.8701   17.7818 C   0  0  0  0  0  0  0  0  0  0  0  0
  -24.8064  -26.0828   16.0955 C   0  0  0  0  0  0  0  0  0  0  0  0
  -20.3258  -25.7541   18.6820 C   0  0  0  0  0  0  0  0  0  0  0  0
  -19.9379  -27.1632   19.0277 C   0  0  0  0  0  0  0  0  0  0  0  0
  -28.3733  -17.9780   21.0848 C   0  0  0  0  0  0  0  0  0  0  0  0
  -21.7018  -23.6609   19.2217 C   0  0  0  0  0  0  0  0  0  0  0  0
  -26.5001  -15.3308   21.1615 C   0  0  0  0  0  0  0  0  0  0  0  0
  -23.3657  -13.9932   20.9780 C   0  0  0  0  0  0  0  0  0  0  0  0
  -22.2301  -30.2213   22.6138 C   0  0  0  0  0  0  0  0  0  0  0  0
  -32.8511  -15.6429   20.3403 C   0  0  0  0  0  0  0  0  0  0  0  0
  -26.6405  -18.6370   22.7933 C   0  0  0  0  0  0  0  0  0  0  0  0
  -25.4070  -17.4644   20.3750 C   0  0  0  0  0  0  0  0  0  0  0  0
  -31.4468  -15.5237   19.7538 C   0  0  0  0  0  0  0  0  0  0  0  0
  -25.2579  -31.3837   21.1446 C   0  0  0  0  0  0  0  0  0  0  0  0
  -30.9131  -16.8981   19.3628 C   0  0  0  0  0  0  0  0  0  0  0  0
  -25.6485  -30.2600   20.1820 C   0  0  0  0  0  0  0  0  0  0  0  0
  -24.6296  -30.8397   22.4264 C   0  0  0  0  0  0  0  0  0  0  0  0
  -23.8917  -28.7984   21.2611 C   0  0  0  0  0  0  0  0  0  0  0  0
  -30.8056  -17.8166   20.5860 C   0  0  1  0  0  0  0  0  0  0  0  0
  -27.3040  -17.4982   22.0251 C   0  0  1  0  0  0  0  0  0  0  0  0
  -24.4695  -29.3004   19.9277 C   0  0  2  0  0  0  0  0  0  0  0  0
  -17.4452  -28.8244   20.2571 C   0  0  0  0  0  0  0  0  0  0  0  0
  -22.1551  -11.7959   21.0370 C   0  0  0  0  0  0  0  0  0  0  0  0
  -27.4183  -14.7512   18.3101 C   0  0  0  0  0  0  0  0  0  0  0  0
  -25.5073  -13.1480   18.0949 C   0  0  0  0  0  0  0  0  0  0  0  0
  -27.2888  -12.7417   19.7931 C   0  0  0  0  0  0  0  0  0  0  0  0
  -21.8232  -14.7755   23.3797 C   0  0  0  0  0  0  0  0  0  0  0  0
  -21.3038  -25.0723   19.6052 C   0  0  0  0  0  0  0  0  0  0  0  0
  -22.7021  -22.9876   20.1412 C   0  0  0  0  0  0  0  0  0  1  0  0
  -18.8485  -28.5302   20.7834 C   0  0  2  0  0  0  0  0  0  0  0  0
  -25.6263  -14.6101   20.1634 C   0  0  1  0  0  0  0  0  0  0  0  0
  -22.6502  -12.9799   21.8530 C   0  0  2  0  0  0  0  0  0  0  0  0
  -26.4555  -13.8400   19.0973 C   0  0  0  0  0  0  0  0  0  0  0  0
  -17.7857  -28.1921   22.9370 N   0  0  0  0  0  0  0  0  0  0  0  0
  -25.8209  -27.3033   19.4114 N   0  0  0  0  0  0  0  0  0  0  0  0
  -24.8628  -28.1568   19.0116 N   0  0  0  0  0  0  0  0  0  0  0  0
  -26.3508  -16.7233   21.2280 N   0  0  0  0  0  0  0  0  0  0  0  0
  -23.5172  -29.9420   22.1076 N   0  0  0  0  0  0  0  0  0  0  0  0
  -23.3759  -28.6266   17.2286 N   0  0  0  0  0  0  0  0  0  0  0  0
  -25.5774  -24.9483   15.8075 N   0  0  0  0  0  0  0  0  0  0  0  0
  -21.2458  -29.3165   22.2174 N   0  0  0  0  0  0  0  0  0  0  0  0
  -19.3349  -27.2750   20.2598 N   0  0  0  0  0  0  0  0  0  0  0  0
  -29.6328  -17.4842   21.3662 N   0  0  0  0  0  0  0  0  0  0  0  0
  -24.7256  -13.7678   20.9428 N   0  0  0  0  0  0  0  0  0  0  0  0
  -21.4787  -13.6107   22.5243 N   0  3  0  0  0  0  0  0  0  0  0  0
  -23.9727  -26.4891   15.2509 O   0  0  0  0  0  0  0  0  0  0  0  0
  -19.8057  -25.2605   17.6926 O   0  0  0  0  0  0  0  0  0  0  0  0
  -20.1625  -28.0333   18.2009 O   0  0  0  0  0  0  0  0  0  0  0  0
  -28.0772  -18.7387   20.1708 O   0  0  0  0  0  0  0  0  0  0  0  0
  -21.2694  -23.0998   18.2163 O   0  0  0  0  0  0  0  0  0  0  0  0
  -27.2809  -14.6814   21.8616 O   0  0  0  0  0  0  0  0  0  0  0  0
  -22.7768  -14.8925   20.3822 O   0  0  0  0  0  0  0  0  0  0  0  0
  -22.0114  -31.2069   23.3228 O   0  0  0  0  0  0  0  0  0  0  0  0
  -29.5598  -22.2156   18.5837 O   0  0  0  0  0  0  0  0  0  0  0  0
  -22.9883  -21.6626   19.6951 O   0  0  0  0  0  0  0  0  0  1  0  0
  -34.6769  -23.3139   20.3194 F   0  0  0  0  0  0  0  0  0  0  0  0
  -21.1875  -29.3124   25.0049 F   0  0  0  0  0  0  0  0  0  0  0  0
  -30.0112  -23.2354   21.1133 F   0  0  0  0  0  0  0  0  0  0  0  0
  1  2  1  0  0  0  0
  1  5  2  0  0  0  0
  2  6  2  0  0  0  0
  3  8  2  0  0  0  0
  3 17  1  0  0  0  0
  4  9  1  0  0  0  0
  4 17  2  0  0  0  0
  5 19  1  0  0  0  0
  6 21  1  0  0  0  0
  7 10  2  0  0  0  0
  7 20  1  0  0  0  0
  8 24  1  0  0  0  0
  9 24  2  0  0  0  0
 10 25  1  0  0  0  0
 11 12  2  0  0  0  0
 11 26  1  0  0  0  0
 12 27  1  0  0  0  0
 13 16  1  0  0  0  0
 13 28  2  0  0  0  0
 14 22  1  0  0  0  0
 14 25  2  0  0  0  0
 15 27  2  0  0  0  0
 15 29  1  0  0  0  0
 16 65  2  0  0  0  0
 17 30  1  0  0  0  0
 18 30  1  0  0  0  0
 18 32  2  0  0  0  0
 18 33  1  0  0  0  0
 19 21  2  0  0  0  0
 19 41  1  0  0  0  0
 20 22  2  0  0  0  0
 20 42  1  0  0  0  0
 21 50  1  0  0  0  0
 22 43  1  0  0  0  0
 23 28  1  0  0  0  0
 23 31  2  0  0  0  0
 23 72  1  0  0  0  0
 24 85  1  0  0  0  0
 25 86  1  0  0  0  0
 26 29  2  0  0  0  0
 26 85  1  0  0  0  0
 27 87  1  0  0  0  0
 28 88  1  0  0  0  0
 29 89  1  0  0  0  0
 30 66  2  0  0  0  0
 31 61  1  0  0  0  0
 31 65  1  0  0  0  0
 32 67  1  0  0  0  0
 32 70  1  0  0  0  0
 33 71  1  0  0  0  0
 33 77  2  0  0  0  0
 34 35  1  0  0  0  0
 34 59  1  0  0  0  0
 34 78  2  0  0  0  0
 35 73  1  0  0  0  0
 35 79  2  0  0  0  0
 36 51  1  0  0  0  0
 36 74  1  0  0  0  0
 36 80  2  0  0  0  0
 37 59  1  0  0  0  0
 37 60  1  0  0  0  0
 37 81  2  0  0  0  0
 38 62  1  0  0  0  0
 38 68  1  0  0  0  0
 38 82  2  0  0  0  0
 39 63  1  0  0  0  0
 39 75  1  0  0  0  0
 39 83  2  0  0  0  0
 40 69  1  0  0  0  0
 40 72  1  0  0  0  0
 40 84  2  0  0  0  0
 41 44  1  0  0  0  0
 42 51  1  0  0  0  0
 43 68  1  0  0  0  0
 44 46  1  0  0  0  0
 45 47  1  0  0  0  0
 45 48  1  0  0  0  0
 46 50  1  0  0  0  0
 47 52  1  0  0  0  0
 48 69  1  0  0  0  0
 49 52  1  0  0  0  0
 49 69  1  0  0  0  0
 50 74  1  0  0  0  0
 51 68  1  0  0  0  0
 52 67  1  0  0  0  0
 53 61  1  0  0  0  0
 54 63  1  0  0  0  0
 55 64  1  0  0  0  0
 56 64  1  0  0  0  0
 57 64  1  0  0  0  0
 58 76  1  0  0  0  0
 60 86  1  0  0  0  0
 61 73  1  0  0  0  0
 62 64  1  0  0  0  0
 62 75  1  0  0  0  0
 63 76  1  0  0  0  0
 66 67  1  0  0  0  0
M  CHG  1  76   1
M  ISO  4  40 100  60 101  72 100  86 101
M  END
> <Batch ID>
0173

> <Smiles>
CNC(C)C(=O)NC(C(=O)N1Cc2cc([101O:1][101CH2:1]C(=O)CC(=O)C(=O)NC(C)c3nccc(F)c3[100NH:0][100C:0](=O)N3CCCC(n4nc(-c5ccc(Oc6ccc(F)cc6F)cc5)c(C(N)=O)c4N)C3)ccc2CC1C(=O)NC1CCCc2ccccc21)C(C)(C)C

> <Shape>
0.223

> <Color>
0.065

> <Negative vol penalty>
0.000

$$$$

  -OEChem-04052304293D

 87 95  0     1  0  0  0  0  0999 V2000
  -19.0916  -29.7212   26.2713 C   0  0  0  0  0  0  0  0  0  0  0  0
  -20.1814  -28.8615   26.1772 C   0  0  0  0  0  0  0  0  0  0  0  0
  -22.9254  -10.0975   19.9499 C   0  0  0  0  0  0  0  0  0  0  0  0
  -23.8642   -9.8114   22.1576 C   0  0  0  0  0  0  0  0  0  0  0  0
  -32.4135  -17.6952   24.3723 C   0  0  0  0  0  0  0  0  0  0  0  0
  -18.3172  -29.9892   25.1433 C   0  0  0  0  0  0  0  0  0  0  0  0
  -20.4967  -28.2685   24.9552 C   0  0  0  0  0  0  0  0  0  0  0  0
  -26.0905  -26.9622   22.8317 C   0  0  0  0  0  0  0  0  0  0  0  0
  -22.1488   -8.9532   20.1318 C   0  0  0  0  0  0  0  0  0  0  0  0
  -23.0876   -8.6671   22.3395 C   0  0  0  0  0  0  0  0  0  0  0  0
  -26.8346  -25.7834   22.8118 C   0  0  0  0  0  0  0  0  0  0  0  0
  -23.1724   -5.4223   21.3937 C   0  0  0  0  0  0  0  0  0  0  0  0
  -32.9372  -16.4856   23.9160 C   0  0  0  0  0  0  0  0  0  0  0  0
  -23.7925   -4.2981   21.9387 C   0  0  0  0  0  0  0  0  0  0  0  0
  -26.0779  -25.3508   20.5625 C   0  0  0  0  0  0  0  0  0  0  0  0
  -22.2422   -4.3409   23.7912 C   0  0  0  0  0  0  0  0  0  0  0  0
  -23.7832  -10.5265   20.9627 C   0  0  0  0  0  0  0  0  0  0  0  0
  -31.1898  -18.1537   23.8845 C   0  0  0  0  0  0  0  0  0  0  0  0
  -24.2362  -13.0335   21.0959 C   0  0  0  0  0  0  0  0  0  0  0  0
  -18.6290  -29.4068   23.9047 C   0  0  0  0  0  0  0  0  0  0  0  0
  -25.3246  -27.3393   21.7192 C   0  0  0  0  0  0  0  0  0  0  0  0
  -19.7249  -28.5280   23.8099 C   0  0  0  0  0  0  0  0  0  0  0  0
  -25.3270  -26.5362   20.5698 C   0  0  0  0  0  0  0  0  0  0  0  0
  -31.0135  -16.1930   22.4839 C   0  0  0  0  0  0  0  0  0  0  0  0
  -22.2299   -8.2380   21.3266 C   0  0  0  0  0  0  0  0  0  0  0  0
  -26.8261  -24.9760   21.6782 C   0  0  0  0  0  0  0  0  0  0  0  0
  -22.0871   -6.0059   22.0474 C   0  0  0  0  0  0  0  0  0  0  0  0
  -23.3275   -3.7574   23.1374 C   0  0  0  0  0  0  0  0  0  0  0  0
  -32.2372  -15.7345   22.9718 C   0  0  0  0  0  0  0  0  0  0  0  0
  -21.6221   -5.4652   23.2461 C   0  0  0  0  0  0  0  0  0  0  0  0
  -30.4898  -17.4026   22.9403 C   0  0  0  0  0  0  0  0  0  0  0  0
  -24.5861  -11.7082   20.7752 C   0  0  0  0  0  0  0  0  0  0  0  0
  -25.3310  -13.7765   20.7275 C   0  0  0  0  0  0  0  0  0  0  0  0
  -30.6384  -19.4349   24.3695 C   0  0  0  0  0  0  0  0  0  0  0  0
  -23.0293  -13.5470   21.6752 C   0  0  0  0  0  0  0  0  0  0  0  0
  -22.2278  -27.8180   21.1860 C   0  0  0  0  0  0  0  0  0  0  0  0
  -29.0362  -22.1912   22.6523 C   0  0  0  0  0  0  0  0  0  0  0  0
  -23.2808  -28.8234   18.2872 C   0  0  0  0  0  0  0  0  0  0  0  0
  -25.7156  -28.7313   15.8977 C   0  0  0  0  0  0  0  0  0  0  0  0
  -30.8380  -14.5807   20.5562 C   0  0  0  0  0  0  0  0  0  0  0  0
  -17.7344  -29.6896   22.7238 C   0  0  0  0  0  0  0  0  0  0  0  0
  -24.5486  -28.6275   21.7467 C   0  0  0  0  0  0  0  0  0  0  0  0
  -24.5375  -26.9067   19.3418 C   0  0  0  0  0  0  0  0  0  0  0  0
  -18.3594  -29.3144   21.3826 C   0  0  0  0  0  0  0  0  0  0  0  0
  -29.4239  -12.5001   18.0366 C   0  0  0  0  0  0  0  0  0  0  0  0
  -18.9878  -27.9264   21.4560 C   0  0  0  0  0  0  0  0  0  0  0  0
  -28.0104  -12.2177   18.5508 C   0  0  0  0  0  0  0  0  0  0  0  0
  -30.4414  -12.5535   19.1748 C   0  0  0  0  0  0  0  0  0  0  0  0
  -28.6873  -13.1886   20.7838 C   0  0  0  0  0  0  0  0  0  0  0  0
  -20.1137  -27.8849   22.4963 C   0  0  1  0  0  0  0  0  0  0  0  0
  -23.3971  -28.6529   20.7463 C   0  0  1  0  0  0  0  0  0  0  0  0
  -27.6169  -13.1898   19.6802 C   0  0  2  0  0  0  0  0  0  0  0  0
  -30.9972  -22.6608   24.1497 C   0  0  0  0  0  0  0  0  0  0  0  0
  -26.2766  -29.6264   13.6214 C   0  0  0  0  0  0  0  0  0  0  0  0
  -21.3241  -26.8479   17.0307 C   0  0  0  0  0  0  0  0  0  0  0  0
  -22.5744  -27.0880   14.8749 C   0  0  0  0  0  0  0  0  0  0  0  0
  -21.4440  -29.0684   15.8864 C   0  0  0  0  0  0  0  0  0  0  0  0
  -28.1335  -30.1072   16.9073 C   0  0  0  0  0  0  0  0  0  0  0  0
  -28.2973  -23.5046   22.8298 C   0  0  0  0  0  0  0  0  0  1  0  0
  -29.8552  -21.7148   23.8354 C   0  0  2  0  0  0  0  0  0  0  0  0
  -23.5464  -28.1602   16.9573 C   0  0  1  0  0  0  0  0  0  0  0  0
  -26.4079  -29.8373   15.1218 C   0  0  2  0  0  0  0  0  0  0  0  0
  -22.2356  -27.7829   16.2110 C   0  0  0  0  0  0  0  0  0  0  0  0
  -25.8077  -11.6116   20.2437 N   0  0  0  0  0  0  0  0  0  0  0  0
  -26.2349  -12.8857   20.2277 N   0  0  0  0  0  0  0  0  0  0  0  0
  -23.7900  -28.1726   19.4199 N   0  0  0  0  0  0  0  0  0  0  0  0
  -30.0043  -13.4979   20.2054 N   0  0  0  0  0  0  0  0  0  0  0  0
  -25.5992  -15.0983   20.7856 N   0  0  0  0  0  0  0  0  0  0  0  0
  -22.0046  -12.6454   21.9933 N   0  0  0  0  0  0  0  0  0  0  0  0
  -30.3031  -15.4302   21.5241 N   0  0  0  0  0  0  0  0  0  0  0  0
  -30.4133  -20.4137   23.4805 N   0  0  0  0  0  0  0  0  0  0  0  0
  -21.3132  -28.4979   21.9675 N   0  0  0  0  0  0  0  0  0  0  0  0
  -24.4165  -29.0665   16.2158 N   0  0  0  0  0  0  0  0  0  0  0  0
  -30.3919  -19.5592   25.6738 N   0  3  0  0  0  0  0  0  0  0  0  0
  -27.8574  -29.8818   15.4651 N   0  3  0  0  0  0  0  0  0  0  0  0
  -22.8582  -14.7712   21.8887 O   0  0  0  0  0  0  0  0  0  0  0  0
  -22.1595  -26.6443   20.8404 O   0  0  0  0  0  0  0  0  0  0  0  0
  -28.9692  -21.5530   21.6016 O   0  0  0  0  0  0  0  0  0  0  0  0
  -22.6511  -29.8837   18.3192 O   0  0  0  0  0  0  0  0  0  0  0  0
  -26.2705  -27.6740   16.1889 O   0  0  0  0  0  0  0  0  0  0  0  0
  -31.9333  -14.7577   20.0168 O   0  0  0  0  0  0  0  0  0  0  0  0
  -21.4720   -7.1216   21.5046 O   0  0  0  0  0  0  0  0  0  0  0  0
  -27.5510  -23.8245   21.6564 O   0  0  0  0  0  0  0  0  0  1  0  0
  -23.9221   -2.6768   23.6599 F   0  0  0  0  0  0  0  0  0  0  0  0
  -32.7502  -14.5733   22.5405 F   0  0  0  0  0  0  0  0  0  0  0  0
  -20.5791   -6.0208   23.8782 F   0  0  0  0  0  0  0  0  0  0  0  0
  -29.3131  -17.8458   22.4715 F   0  0  0  0  0  0  0  0  0  0  0  0
  1  2  1  0  0  0  0
  1  6  2  0  0  0  0
  2  7  2  0  0  0  0
  3  9  2  0  0  0  0
  3 17  1  0  0  0  0
  4 10  1  0  0  0  0
  4 17  2  0  0  0  0
  5 13  2  0  0  0  0
  5 18  1  0  0  0  0
  6 20  1  0  0  0  0
  7 22  1  0  0  0  0
  8 11  2  0  0  0  0
  8 21  1  0  0  0  0
  9 25  1  0  0  0  0
 10 25  2  0  0  0  0
 11 26  1  0  0  0  0
 12 14  2  0  0  0  0
 12 27  1  0  0  0  0
 13 29  1  0  0  0  0
 14 28  1  0  0  0  0
 15 23  1  0  0  0  0
 15 26  2  0  0  0  0
 16 28  2  0  0  0  0
 16 30  1  0  0  0  0
 17 32  1  0  0  0  0
 18 31  2  0  0  0  0
 18 34  1  0  0  0  0
 19 32  1  0  0  0  0
 19 33  2  0  0  0  0
 19 35  1  0  0  0  0
 20 22  2  0  0  0  0
 20 41  1  0  0  0  0
 21 23  2  0  0  0  0
 21 42  1  0  0  0  0
 22 50  1  0  0  0  0
 23 43  1  0  0  0  0
 24 29  2  0  0  0  0
 24 31  1  0  0  0  0
 24 70  1  0  0  0  0
 25 82  1  0  0  0  0
 26 83  1  0  0  0  0
 27 30  2  0  0  0  0
 27 82  1  0  0  0  0
 28 84  1  0  0  0  0
 29 85  1  0  0  0  0
 30 86  1  0  0  0  0
 31 87  1  0  0  0  0
 32 64  2  0  0  0  0
 33 65  1  0  0  0  0
 33 68  1  0  0  0  0
 34 71  1  0  0  0  0
 34 74  2  0  0  0  0
 35 69  1  0  0  0  0
 35 76  2  0  0  0  0
 36 51  1  0  0  0  0
 36 72  1  0  0  0  0
 36 77  2  0  0  0  0
 37 59  1  0  0  0  0
 37 60  1  0  0  0  0
 37 78  2  0  0  0  0
 38 61  1  0  0  0  0
 38 66  1  0  0  0  0
 38 79  2  0  0  0  0
 39 62  1  0  0  0  0
 39 73  1  0  0  0  0
 39 80  2  0  0  0  0
 40 67  1  0  0  0  0
 40 70  1  0  0  0  0
 40 81  2  0  0  0  0
 41 44  1  0  0  0  0
 42 51  1  0  0  0  0
 43 66  1  0  0  0  0
 44 46  1  0  0  0  0
 45 47  1  0  0  0  0
 45 48  1  0  0  0  0
 46 50  1  0  0  0  0
 47 52  1  0  0  0  0
 48 67  1  0  0  0  0
 49 52  1  0  0  0  0
 49 67  1  0  0  0  0
 50 72  1  0  0  0  0
 51 66  1  0  0  0  0
 52 65  1  0  0  0  0
 53 60  1  0  0  0  0
 54 62  1  0  0  0  0
 55 63  1  0  0  0  0
 56 63  1  0  0  0  0
 57 63  1  0  0  0  0
 58 75  1  0  0  0  0
 59 83  1  0  0  0  0
 60 71  1  0  0  0  0
 61 63  1  0  0  0  0
 61 73  1  0  0  0  0
 62 75  1  0  0  0  0
 64 65  1  0  0  0  0
M  CHG  2  74   1  75   1
M  ISO  4  40 100  59 101  70 100  83 101
M  END
> <Batch ID>
0173

> <Smiles>
CNC(C)C(=O)NC(C(=O)N1Cc2cc([101O:1][101CH2:1]C(=O)C(C)NC(=N)c3ccc(F)c([100NH:0][100C:0](=O)N4CCCC(n5nc(-c6ccc(Oc7ccc(F)cc7F)cc6)c(C(N)=O)c5N)C4)c3F)ccc2CC1C(=O)NC1CCCc2ccccc21)C(C)(C)C

> <Shape>
0.271

> <Color>
0.193

> <Negative vol penalty>
0.000

$$$$

  -OEChem-04052304293D

 89 97  0     1  0  0  0  0  0999 V2000
  -30.7467  -10.8885   19.9016 C   0  0  0  0  0  0  0  0  0  0  0  0
  -30.5056  -11.8600   20.8677 C   0  0  0  0  0  0  0  0  0  0  0  0
  -27.6450  -26.3158   17.8072 C   0  0  0  0  0  0  0  0  0  0  0  0
  -27.2740  -25.9000   20.1581 C   0  0  0  0  0  0  0  0  0  0  0  0
  -29.9601  -10.8405   18.7514 C   0  0  0  0  0  0  0  0  0  0  0  0
  -29.4784  -12.7849   20.6837 C   0  0  0  0  0  0  0  0  0  0  0  0
  -26.6942  -13.4529   24.8606 C   0  0  0  0  0  0  0  0  0  0  0  0
  -26.5731  -27.2081   17.7958 C   0  0  0  0  0  0  0  0  0  0  0  0
  -26.2020  -26.7924   20.1467 C   0  0  0  0  0  0  0  0  0  0  0  0
  -27.2320  -14.2603   25.8619 C   0  0  0  0  0  0  0  0  0  0  0  0
  -23.5939  -29.2339   20.8211 C   0  0  0  0  0  0  0  0  0  0  0  0
  -23.5024  -30.1522   21.8670 C   0  0  0  0  0  0  0  0  0  0  0  0
  -30.7778  -16.7956   25.2145 C   0  0  0  0  0  0  0  0  0  0  0  0
  -25.8665  -16.0990   25.1044 C   0  0  0  0  0  0  0  0  0  0  0  0
  -30.3276  -16.7615   22.8411 C   0  0  0  0  0  0  0  0  0  0  0  0
  -25.6564  -31.0611   21.2575 C   0  0  0  0  0  0  0  0  0  0  0  0
  -27.9955  -25.6617   18.9884 C   0  0  0  0  0  0  0  0  0  0  0  0
  -31.1799  -18.1278   25.1191 C   0  0  0  0  0  0  0  0  0  0  0  0
  -30.4527  -25.0354   19.2663 C   0  0  0  0  0  0  0  0  0  0  0  0
  -28.9165  -11.7592   18.5577 C   0  0  0  0  0  0  0  0  0  0  0  0
  -25.7450  -13.9665   23.9653 C   0  0  0  0  0  0  0  0  0  0  0  0
  -28.6780  -12.7500   19.5292 C   0  0  0  0  0  0  0  0  0  0  0  0
  -25.3163  -15.2953   24.0942 C   0  0  0  0  0  0  0  0  0  0  0  0
  -30.7296  -18.0937   22.7457 C   0  0  0  0  0  0  0  0  0  0  0  0
  -25.8516  -27.4465   18.9656 C   0  0  0  0  0  0  0  0  0  0  0  0
  -26.8204  -15.5844   25.9821 C   0  0  0  0  0  0  0  0  0  0  0  0
  -24.7166  -29.2292   19.9934 C   0  0  0  0  0  0  0  0  0  0  0  0
  -24.5336  -31.0658   22.0852 C   0  0  0  0  0  0  0  0  0  0  0  0
  -30.3517  -16.1124   24.0755 C   0  0  0  0  0  0  0  0  0  0  0  0
  -25.7479  -30.1427   20.2116 C   0  0  0  0  0  0  0  0  0  0  0  0
  -31.1558  -18.7769   23.8848 C   0  0  0  0  0  0  0  0  0  0  0  0
  -29.1024  -24.7393   19.0006 C   0  0  0  0  0  0  0  0  0  0  0  0
  -31.0973  -23.8277   19.1553 C   0  0  0  0  0  0  0  0  0  0  0  0
  -31.0693  -26.2900   19.5850 C   0  0  0  0  0  0  0  0  0  0  0  0
  -31.6290  -18.8447   26.3248 C   0  0  0  0  0  0  0  0  0  0  0  0
  -25.6350  -14.4024   20.8186 C   0  0  0  0  0  0  0  0  0  0  0  0
  -28.6455  -20.9137   27.2162 C   0  0  0  0  0  0  0  0  0  0  0  0
  -28.6052  -18.3887   27.4263 C   0  0  0  0  0  0  0  0  0  0  0  0
  -22.5666  -15.2544   21.4361 C   0  0  0  0  0  0  0  0  0  0  0  0
  -20.2815  -16.4264   23.6836 C   0  0  0  0  0  0  0  0  0  0  0  0
  -30.3079  -18.2147   20.2650 C   0  0  0  0  0  0  0  0  0  0  0  0
  -28.1235  -11.6975   17.2763 C   0  0  0  0  0  0  0  0  0  0  0  0
  -25.1547  -13.0749   22.9074 C   0  0  0  0  0  0  0  0  0  0  0  0
  -24.2849  -15.8890   23.1710 C   0  0  0  0  0  0  0  0  0  0  0  0
  -26.8140  -12.4799   17.3321 C   0  0  0  0  0  0  0  0  0  0  0  0
  -30.0650  -19.5153   16.9595 C   0  0  0  0  0  0  0  0  0  0  0  0
  -27.0430  -13.8617   17.9364 C   0  0  0  0  0  0  0  0  0  0  0  0
  -29.9241  -21.0242   17.1731 C   0  0  0  0  0  0  0  0  0  0  0  0
  -29.3306  -18.7190   18.0367 C   0  0  0  0  0  0  0  0  0  0  0  0
  -29.5368  -20.5853   19.6316 C   0  0  0  0  0  0  0  0  0  0  0  0
  -27.5571  -13.7553   19.3772 C   0  0  1  0  0  0  0  0  0  0  0  0
  -24.5744  -13.8500   21.7284 C   0  0  1  0  0  0  0  0  0  0  0  0
  -30.3141  -21.4291   18.6082 C   0  0  2  0  0  0  0  0  0  0  0  0
  -27.5130  -21.5070   26.4170 C   0  0  0  0  0  0  0  0  0  0  0  0
  -17.8603  -17.0548   23.8855 C   0  0  0  0  0  0  0  0  0  0  0  0
  -23.1191  -17.8550   19.9390 C   0  0  0  0  0  0  0  0  0  0  0  0
  -21.0475  -18.8085   20.9721 C   0  0  0  0  0  0  0  0  0  0  0  0
  -20.8886  -16.8299   19.4612 C   0  0  0  0  0  0  0  0  0  0  0  0
  -19.8008  -14.3698   25.7569 C   0  0  0  0  0  0  0  0  0  0  0  0
  -27.4372  -17.7718   26.6825 C   0  0  0  0  0  0  0  0  0  1  0  0
  -29.2568  -19.5942   26.7727 C   0  0  2  0  0  0  0  0  0  0  0  0
  -21.8636  -16.5462   21.7766 C   0  0  1  0  0  0  0  0  0  0  0  0
  -18.8882  -15.9457   24.0473 C   0  0  2  0  0  0  0  0  0  0  0  0
  -21.7506  -17.4996   20.5535 C   0  0  0  0  0  0  0  0  0  0  0  0
  -28.8998  -23.4450   18.7403 N   0  0  0  0  0  0  0  0  0  0  0  0
  -30.1316  -22.9171   18.8417 N   0  0  0  0  0  0  0  0  0  0  0  0
  -23.7421  -14.9790   22.1489 N   0  0  0  0  0  0  0  0  0  0  0  0
  -29.7539  -19.1538   19.3696 N   0  0  0  0  0  0  0  0  0  0  0  0
  -32.3904  -23.4664   19.2962 N   0  0  0  0  0  0  0  0  0  0  0  0
  -30.2606  -27.4323   19.6587 N   0  0  0  0  0  0  0  0  0  0  0  0
  -30.7037  -18.7501   21.4902 N   0  0  0  0  0  0  0  0  0  0  0  0
  -30.6621  -19.5197   27.0599 N   0  0  0  0  0  0  0  0  0  0  0  0
  -26.4700  -13.4423   20.2799 N   0  0  0  0  0  0  0  0  0  0  0  0
  -20.5811  -16.1710   22.3622 N   0  0  0  0  0  0  0  0  0  0  0  0
  -18.8548  -15.4766   25.4614 N   0  3  0  0  0  0  0  0  0  0  0  0
  -32.3034  -26.3978   19.7821 O   0  0  0  0  0  0  0  0  0  0  0  0
  -25.6905  -15.6102   20.6190 O   0  0  0  0  0  0  0  0  0  0  0  0
  -29.0413  -21.4730   28.2422 O   0  0  0  0  0  0  0  0  0  0  0  0
  -28.9824  -17.9565   28.5158 O   0  0  0  0  0  0  0  0  0  0  0  0
  -22.0864  -14.5134   20.5747 O   0  0  0  0  0  0  0  0  0  0  0  0
  -21.0278  -16.9770   24.4901 O   0  0  0  0  0  0  0  0  0  0  0  0
  -30.4478  -17.0283   19.9568 O   0  0  0  0  0  0  0  0  0  0  0  0
  -24.8056  -28.3174   18.9549 O   0  0  0  0  0  0  0  0  0  0  0  0
  -27.3442  -16.3748   26.9582 O   0  0  0  0  0  0  0  0  0  1  0  0
  -24.4449  -31.9486   23.0887 F   0  0  0  0  0  0  0  0  0  0  0  0
  -29.9656  -14.8330   24.1671 F   0  0  0  0  0  0  0  0  0  0  0  0
  -26.8284  -30.1438   19.4190 F   0  0  0  0  0  0  0  0  0  0  0  0
  -31.5423  -20.0586   23.7932 F   0  0  0  0  0  0  0  0  0  0  0  0
  -33.2419  -18.8529   26.7913 S   0  0  0  0  0  0  0  0  0  0  0  0
  1  2  1  0  0  0  0
  1  5  2  0  0  0  0
  2  6  2  0  0  0  0
  3  8  2  0  0  0  0
  3 17  1  0  0  0  0
  4  9  1  0  0  0  0
  4 17  2  0  0  0  0
  5 20  1  0  0  0  0
  6 22  1  0  0  0  0
  7 10  2  0  0  0  0
  7 21  1  0  0  0  0
  8 25  1  0  0  0  0
  9 25  2  0  0  0  0
 10 26  1  0  0  0  0
 11 12  2  0  0  0  0
 11 27  1  0  0  0  0
 12 28  1  0  0  0  0
 13 18  1  0  0  0  0
 13 29  2  0  0  0  0
 14 23  1  0  0  0  0
 14 26  2  0  0  0  0
 15 24  2  0  0  0  0
 15 29  1  0  0  0  0
 16 28  2  0  0  0  0
 16 30  1  0  0  0  0
 17 32  1  0  0  0  0
 18 31  2  0  0  0  0
 18 35  1  0  0  0  0
 19 32  1  0  0  0  0
 19 33  2  0  0  0  0
 19 34  1  0  0  0  0
 20 22  2  0  0  0  0
 20 42  1  0  0  0  0
 21 23  2  0  0  0  0
 21 43  1  0  0  0  0
 22 51  1  0  0  0  0
 23 44  1  0  0  0  0
 24 31  1  0  0  0  0
 24 71  1  0  0  0  0
 25 83  1  0  0  0  0
 26 84  1  0  0  0  0
 27 30  2  0  0  0  0
 27 83  1  0  0  0  0
 28 85  1  0  0  0  0
 29 86  1  0  0  0  0
 30 87  1  0  0  0  0
 31 88  1  0  0  0  0
 32 65  2  0  0  0  0
 33 66  1  0  0  0  0
 33 69  1  0  0  0  0
 34 70  1  0  0  0  0
 34 76  2  0  0  0  0
 35 72  1  0  0  0  0
 35 89  2  0  0  0  0
 36 52  1  0  0  0  0
 36 73  1  0  0  0  0
 36 77  2  0  0  0  0
 37 54  1  0  0  0  0
 37 61  1  0  0  0  0
 37 78  2  0  0  0  0
 38 60  1  0  0  0  0
 38 61  1  0  0  0  0
 38 79  2  0  0  0  0
 39 62  1  0  0  0  0
 39 67  1  0  0  0  0
 39 80  2  0  0  0  0
 40 63  1  0  0  0  0
 40 74  1  0  0  0  0
 40 81  2  0  0  0  0
 41 68  1  0  0  0  0
 41 71  1  0  0  0  0
 41 82  2  0  0  0  0
 42 45  1  0  0  0  0
 43 52  1  0  0  0  0
 44 67  1  0  0  0  0
 45 47  1  0  0  0  0
 46 48  1  0  0  0  0
 46 49  1  0  0  0  0
 47 51  1  0  0  0  0
 48 53  1  0  0  0  0
 49 68  1  0  0  0  0
 50 53  1  0  0  0  0
 50 68  1  0  0  0  0
 51 73  1  0  0  0  0
 52 67  1  0  0  0  0
 53 66  1  0  0  0  0
 55 63  1  0  0  0  0
 56 64  1  0  0  0  0
 57 64  1  0  0  0  0
 58 64  1  0  0  0  0
 59 75  1  0  0  0  0
 60 84  1  0  0  0  0
 61 72  1  0  0  0  0
 62 64  1  0  0  0  0
 62 74  1  0  0  0  0
 63 75  1  0  0  0  0
 65 66  1  0  0  0  0
M  CHG  1  75   1
M  ISO  4  41 100  60 101  71 100  84 101
M  END
> <Batch ID>
0173

> <Smiles>
CNC(C)C(=O)NC(C(=O)N1Cc2cc([101O:1][101CH2:1]C(=O)C(NC(=S)c3cc(F)cc([100NH:0][100C:0](=O)N4CCCC(n5nc(-c6ccc(Oc7ccc(F)cc7F)cc6)c(C(N)=O)c5N)C4)c3F)C(C)=O)ccc2CC1C(=O)NC1CCCc2ccccc21)C(C)(C)C

> <Shape>
0.226

> <Color>
0.083

> <Negative vol penalty>
0.000

$$$$

  -OEChem-04052304293D

 84 92  0     1  0  0  0  0  0999 V2000
  -20.8145  -33.1761   27.9325 C   0  0  0  0  0  0  0  0  0  0  0  0
  -21.4010  -31.9237   28.0838 C   0  0  0  0  0  0  0  0  0  0  0  0
  -23.1722   -9.6910   19.9971 C   0  0  0  0  0  0  0  0  0  0  0  0
  -23.8234   -9.8892   22.3153 C   0  0  0  0  0  0  0  0  0  0  0  0
  -20.5706  -33.6807   26.6559 C   0  0  0  0  0  0  0  0  0  0  0  0
  -21.7430  -31.1747   26.9585 C   0  0  0  0  0  0  0  0  0  0  0  0
  -26.5499  -27.4289   26.3508 C   0  0  0  0  0  0  0  0  0  0  0  0
  -22.4656   -8.5259   20.2952 C   0  0  0  0  0  0  0  0  0  0  0  0
  -23.1168   -8.7242   22.6134 C   0  0  0  0  0  0  0  0  0  0  0  0
  -26.6804  -26.0452   26.4603 C   0  0  0  0  0  0  0  0  0  0  0  0
  -19.8996   -7.8274   23.1293 C   0  0  0  0  0  0  0  0  0  0  0  0
  -19.0912   -7.8345   24.2659 C   0  0  0  0  0  0  0  0  0  0  0  0
  -31.0553  -19.7301   22.4961 C   0  0  0  0  0  0  0  0  0  0  0  0
  -26.4491  -25.8402   24.0678 C   0  0  0  0  0  0  0  0  0  0  0  0
  -20.3756   -6.0092   25.1910 C   0  0  0  0  0  0  0  0  0  0  0  0
  -31.8662  -18.8703   21.7729 C   0  0  0  0  0  0  0  0  0  0  0  0
  -23.8512  -10.3726   21.0071 C   0  0  0  0  0  0  0  0  0  0  0  0
  -24.0940  -12.8962   20.7240 C   0  0  0  0  0  0  0  0  0  0  0  0
  -20.9187  -32.9417   25.5142 C   0  0  0  0  0  0  0  0  0  0  0  0
  -26.3567  -28.0287   25.0981 C   0  0  0  0  0  0  0  0  0  0  0  0
  -21.5024  -31.6693   25.6654 C   0  0  0  0  0  0  0  0  0  0  0  0
  -26.3189  -27.2320   23.9449 C   0  0  0  0  0  0  0  0  0  0  0  0
  -29.7933  -19.2780   22.8653 C   0  0  0  0  0  0  0  0  0  0  0  0
  -22.4379   -8.0425   21.6034 C   0  0  0  0  0  0  0  0  0  0  0  0
  -26.6272  -25.2503   25.3190 C   0  0  0  0  0  0  0  0  0  0  0  0
  -20.9460   -6.9111   23.0234 C   0  0  0  0  0  0  0  0  0  0  0  0
  -19.3292   -6.9254   25.2968 C   0  0  0  0  0  0  0  0  0  0  0  0
  -21.1840   -6.0020   24.0543 C   0  0  0  0  0  0  0  0  0  0  0  0
  -29.3865  -17.9981   22.5051 C   0  0  0  0  0  0  0  0  0  0  0  0
  -24.5818  -11.5759   20.6997 C   0  0  0  0  0  0  0  0  0  0  0  0
  -30.2721  -17.2160   21.7814 C   0  0  0  0  0  0  0  0  0  0  0  0
  -25.1701  -13.6666   20.3567 C   0  0  0  0  0  0  0  0  0  0  0  0
  -27.7891  -23.2975   24.7646 C   0  0  0  0  0  0  0  0  0  1  0  0
  -22.7852  -13.3828   21.0496 C   0  0  0  0  0  0  0  0  0  0  0  0
  -28.0082  -21.9775   24.7975 C   0  0  0  0  0  0  0  0  0  0  0  0
  -29.1739  -21.4145   24.0410 C   0  0  0  0  0  0  0  0  0  0  0  0
  -24.0500  -29.7721   23.7777 C   0  0  0  0  0  0  0  0  0  0  0  0
  -26.1743  -30.0284   21.3397 C   0  0  0  0  0  0  0  0  0  0  0  0
  -28.8695  -28.7307   19.6969 C   0  0  0  0  0  0  0  0  0  0  0  0
  -30.5745  -14.9630   20.6955 C   0  0  0  0  0  0  0  0  0  0  0  0
  -20.5924  -33.5084   24.1552 C   0  0  0  0  0  0  0  0  0  0  0  0
  -26.2443  -29.5251   24.9941 C   0  0  0  0  0  0  0  0  0  0  0  0
  -26.1336  -27.8287   22.5745 C   0  0  0  0  0  0  0  0  0  0  0  0
  -21.3274  -32.8125   23.0125 C   0  0  0  0  0  0  0  0  0  0  0  0
  -29.6721  -12.3451   18.4573 C   0  0  0  0  0  0  0  0  0  0  0  0
  -21.2422  -31.2973   23.1674 C   0  0  0  0  0  0  0  0  0  0  0  0
  -28.2272  -12.0203   18.8432 C   0  0  0  0  0  0  0  0  0  0  0  0
  -30.5200  -12.6963   19.6786 C   0  0  0  0  0  0  0  0  0  0  0  0
  -28.5225  -13.4288   20.9207 C   0  0  0  0  0  0  0  0  0  0  0  0
  -21.9103  -30.8374   24.4688 C   0  0  1  0  0  0  0  0  0  0  0  0
  -25.5365  -29.9842   23.7231 C   0  0  1  0  0  0  0  0  0  0  0  0
  -27.6136  -13.1320   19.7167 C   0  0  2  0  0  0  0  0  0  0  0  0
  -30.3554  -29.1427   17.7170 C   0  0  0  0  0  0  0  0  0  0  0  0
  -23.9722  -29.0248   19.4813 C   0  0  0  0  0  0  0  0  0  0  0  0
  -25.7320  -28.5563   17.7631 C   0  0  0  0  0  0  0  0  0  0  0  0
  -25.3515  -30.8923   18.5513 C   0  0  0  0  0  0  0  0  0  0  0  0
  -31.2729  -28.9792   21.4059 C   0  0  0  0  0  0  0  0  0  0  0  0
  -26.4721  -29.2310   20.0929 C   0  0  1  0  0  0  0  0  0  0  0  0
  -30.1552  -29.3722   19.2070 C   0  0  2  0  0  0  0  0  0  0  0  0
  -25.3835  -29.4144   18.9980 C   0  0  0  0  0  0  0  0  0  0  0  0
  -31.5059  -17.6205   21.4047 N   0  0  0  0  0  0  0  0  0  0  0  0
  -25.8676  -11.5077   20.3448 N   0  0  0  0  0  0  0  0  0  0  0  0
  -26.1969  -12.7949   20.1427 N   0  0  0  0  0  0  0  0  0  0  0  0
  -26.0223  -29.2959   22.5255 N   0  0  0  0  0  0  0  0  0  0  0  0
  -29.8787  -13.7592   20.4557 N   0  0  0  0  0  0  0  0  0  0  0  0
  -25.3287  -14.9980   20.1990 N   0  0  0  0  0  0  0  0  0  0  0  0
  -21.7969  -12.4550   21.4058 N   0  0  0  0  0  0  0  0  0  0  0  0
  -28.9281  -20.1197   23.6053 N   0  0  0  0  0  0  0  0  0  0  0  0
  -29.8521  -15.9126   21.4174 N   0  0  0  0  0  0  0  0  0  0  0  0
  -23.3501  -30.8314   24.3231 N   0  0  0  0  0  0  0  0  0  0  0  0
  -27.8143  -29.6180   19.6718 N   0  0  0  0  0  0  0  0  0  0  0  0
  -31.3266  -28.8034   19.9317 N   0  3  0  0  0  0  0  0  0  0  0  0
  -22.4961  -14.6028   21.0094 O   0  0  0  0  0  0  0  0  0  0  0  0
  -30.1911  -22.0770   23.8666 O   0  0  0  0  0  0  0  0  0  0  0  0
  -23.5731  -28.7255   23.3548 O   0  0  0  0  0  0  0  0  0  0  0  0
  -26.0870  -31.2566   21.2656 O   0  0  0  0  0  0  0  0  0  0  0  0
  -28.8066  -27.5587   20.0615 O   0  0  0  0  0  0  0  0  0  0  0  0
  -31.7163  -15.1491   20.2668 O   0  0  0  0  0  0  0  0  0  0  0  0
  -27.2017  -21.1087   25.5042 O   0  0  0  0  0  0  0  0  0  0  0  0
  -21.7483   -6.9058   21.8947 O   0  0  0  0  0  0  0  0  0  0  0  0
  -26.7537  -23.8994   25.4231 O   0  0  0  0  0  0  0  0  0  1  0  0
  -18.5537   -6.9334   26.3889 F   0  0  0  0  0  0  0  0  0  0  0  0
  -22.1886   -5.1202   23.9588 F   0  0  0  0  0  0  0  0  0  0  0  0
  -28.1749  -17.5393   22.8492 F   0  0  0  0  0  0  0  0  0  0  0  0
  1  2  1  0  0  0  0
  1  5  2  0  0  0  0
  2  6  2  0  0  0  0
  3  8  2  0  0  0  0
  3 17  1  0  0  0  0
  4  9  1  0  0  0  0
  4 17  2  0  0  0  0
  5 19  1  0  0  0  0
  6 21  1  0  0  0  0
  7 10  2  0  0  0  0
  7 20  1  0  0  0  0
  8 24  1  0  0  0  0
  9 24  2  0  0  0  0
 10 25  1  0  0  0  0
 11 12  2  0  0  0  0
 11 26  1  0  0  0  0
 12 27  1  0  0  0  0
 13 16  2  0  0  0  0
 13 23  1  0  0  0  0
 14 22  1  0  0  0  0
 14 25  2  0  0  0  0
 15 27  2  0  0  0  0
 15 28  1  0  0  0  0
 16 61  1  0  0  0  0
 17 30  1  0  0  0  0
 18 30  1  0  0  0  0
 18 32  2  0  0  0  0
 18 34  1  0  0  0  0
 19 21  2  0  0  0  0
 19 41  1  0  0  0  0
 20 22  2  0  0  0  0
 20 42  1  0  0  0  0
 21 50  1  0  0  0  0
 22 43  1  0  0  0  0
 23 29  2  0  0  0  0
 23 68  1  0  0  0  0
 24 80  1  0  0  0  0
 25 81  1  0  0  0  0
 26 28  2  0  0  0  0
 26 80  1  0  0  0  0
 27 82  1  0  0  0  0
 28 83  1  0  0  0  0
 29 31  1  0  0  0  0
 29 84  1  0  0  0  0
 30 62  2  0  0  0  0
 31 61  2  0  0  0  0
 31 69  1  0  0  0  0
 32 63  1  0  0  0  0
 32 66  1  0  0  0  0
 33 35  2  0  0  0  0
 33 81  1  0  0  0  0
 34 67  1  0  0  0  0
 34 73  2  0  0  0  0
 35 36  1  0  0  0  0
 35 79  1  0  0  0  0
 36 68  1  0  0  0  0
 36 74  2  0  0  0  0
 37 51  1  0  0  0  0
 37 70  1  0  0  0  0
 37 75  2  0  0  0  0
 38 58  1  0  0  0  0
 38 64  1  0  0  0  0
 38 76  2  0  0  0  0
 39 59  1  0  0  0  0
 39 71  1  0  0  0  0
 39 77  2  0  0  0  0
 40 65  1  0  0  0  0
 40 69  1  0  0  0  0
 40 78  2  0  0  0  0
 41 44  1  0  0  0  0
 42 51  1  0  0  0  0
 43 64  1  0  0  0  0
 44 46  1  0  0  0  0
 45 47  1  0  0  0  0
 45 48  1  0  0  0  0
 46 50  1  0  0  0  0
 47 52  1  0  0  0  0
 48 65  1  0  0  0  0
 49 52  1  0  0  0  0
 49 65  1  0  0  0  0
 50 70  1  0  0  0  0
 51 64  1  0  0  0  0
 52 63  1  0  0  0  0
 53 59  1  0  0  0  0
 54 60  1  0  0  0  0
 55 60  1  0  0  0  0
 56 60  1  0  0  0  0
 57 72  1  0  0  0  0
 58 60  1  0  0  0  0
 58 71  1  0  0  0  0
 59 72  1  0  0  0  0
 62 63  1  0  0  0  0
M  CHG  1  72   1
M  ISO  4  33 101  40 100  69 100  81 101
M  END
> <Batch ID>
0173

> <Smiles>
CNC(C)C(=O)NC(C(=O)N1Cc2cc([101O:1][101CH2:1]C(=O)C(=O)Nc3ccnc([100NH:0][100C:0](=O)N4CCCC(n5nc(-c6ccc(Oc7ccc(F)cc7F)cc6)c(C(N)=O)c5N)C4)c3F)ccc2CC1C(=O)NC1CCCc2ccccc21)C(C)(C)C

> <Shape>
0.255

> <Color>
0.211

> <Negative vol penalty>
0.000

$$$$

  -OEChem-04052304293D

 89 97  0     1  0  0  0  0  0999 V2000
  -22.6311  -30.4936   14.4502 C   0  0  0  0  0  0  0  0  0  0  0  0
  -22.9784  -29.4105   15.2514 C   0  0  0  0  0  0  0  0  0  0  0  0
  -23.2485   -9.9079   19.7998 C   0  0  0  0  0  0  0  0  0  0  0  0
  -24.1574   -9.6306   22.0211 C   0  0  0  0  0  0  0  0  0  0  0  0
  -22.9800  -31.7865   14.8383 C   0  0  0  0  0  0  0  0  0  0  0  0
  -23.6758  -29.6198   16.4407 C   0  0  0  0  0  0  0  0  0  0  0  0
  -21.7982  -26.9231   20.2939 C   0  0  0  0  0  0  0  0  0  0  0  0
  -22.6366   -8.6580   19.8941 C   0  0  0  0  0  0  0  0  0  0  0  0
  -23.5455   -8.3807   22.1154 C   0  0  0  0  0  0  0  0  0  0  0  0
  -22.1304  -25.5700   20.3456 C   0  0  0  0  0  0  0  0  0  0  0  0
  -20.4562   -7.1627   22.7427 C   0  0  0  0  0  0  0  0  0  0  0  0
  -19.7873   -6.8581   23.9282 C   0  0  0  0  0  0  0  0  0  0  0  0
  -23.8235  -26.0548   21.9941 C   0  0  0  0  0  0  0  0  0  0  0  0
  -30.9365  -19.1161   20.8779 C   0  0  0  0  0  0  0  0  0  0  0  0
  -29.3146  -20.7985   20.2648 C   0  0  0  0  0  0  0  0  0  0  0  0
  -21.2547   -4.9696   24.2710 C   0  0  0  0  0  0  0  0  0  0  0  0
  -24.0090  -10.3941   20.8633 C   0  0  0  0  0  0  0  0  0  0  0  0
  -24.0996  -12.9281   21.1435 C   0  0  0  0  0  0  0  0  0  0  0  0
  -23.6735  -32.0125   16.0377 C   0  0  0  0  0  0  0  0  0  0  0  0
  -22.4848  -27.8553   21.0852 C   0  0  0  0  0  0  0  0  0  0  0  0
  -24.0354  -30.9168   16.8445 C   0  0  0  0  0  0  0  0  0  0  0  0
  -23.4964  -27.4188   21.9525 C   0  0  0  0  0  0  0  0  0  0  0  0
  -30.0010  -18.5233   21.7259 C   0  0  0  0  0  0  0  0  0  0  0  0
  -28.7223  -19.0681   21.8433 C   0  0  0  0  0  0  0  0  0  0  0  0
  -28.3791  -20.2057   21.1127 C   0  0  0  0  0  0  0  0  0  0  0  0
  -22.7850   -7.8944   21.0520 C   0  0  0  0  0  0  0  0  0  0  0  0
  -23.1451  -25.1361   21.1937 C   0  0  0  0  0  0  0  0  0  0  0  0
  -21.5243   -6.3707   22.3213 C   0  0  0  0  0  0  0  0  0  0  0  0
  -20.1866   -5.7616   24.6924 C   0  0  0  0  0  0  0  0  0  0  0  0
  -30.5933  -20.2538   20.1474 C   0  0  0  0  0  0  0  0  0  0  0  0
  -21.9236   -5.2742   23.0854 C   0  0  0  0  0  0  0  0  0  0  0  0
  -24.6418  -11.6850   20.7662 C   0  0  0  0  0  0  0  0  0  0  0  0
  -25.0882  -13.8363   20.8532 C   0  0  0  0  0  0  0  0  0  0  0  0
  -24.7488  -23.4559   20.9184 C   0  0  0  0  0  0  0  0  0  1  0  0
  -22.8169  -13.2345   21.7061 C   0  0  0  0  0  0  0  0  0  0  0  0
  -25.1783  -22.1883   20.9350 C   0  0  0  0  0  0  0  0  0  0  0  0
  -26.6005  -21.8972   20.5596 C   0  0  0  0  0  0  0  0  0  0  0  0
  -24.3061  -30.3919   20.4920 C   0  0  0  0  0  0  0  0  0  0  0  0
  -24.1917  -30.7413   23.7149 C   0  0  0  0  0  0  0  0  0  0  0  0
  -23.7401  -29.2929   26.7719 C   0  0  0  0  0  0  0  0  0  0  0  0
  -30.4500  -15.3829   20.9260 C   0  0  0  0  0  0  0  0  0  0  0  0
  -24.0703  -33.4238   16.3920 C   0  0  0  0  0  0  0  0  0  0  0  0
  -22.0964  -29.3076   21.0376 C   0  0  0  0  0  0  0  0  0  0  0  0
  -24.2501  -28.3765   22.8375 C   0  0  0  0  0  0  0  0  0  0  0  0
  -24.4808  -33.5927   17.8525 C   0  0  0  0  0  0  0  0  0  0  0  0
  -29.3863  -13.3013   18.2404 C   0  0  0  0  0  0  0  0  0  0  0  0
  -25.4381  -32.4808   18.2700 C   0  0  0  0  0  0  0  0  0  0  0  0
  -28.0160  -12.7932   18.6921 C   0  0  0  0  0  0  0  0  0  0  0  0
  -30.3572  -13.4238   19.4128 C   0  0  0  0  0  0  0  0  0  0  0  0
  -28.4925  -13.7217   20.9963 C   0  0  0  0  0  0  0  0  0  0  0  0
  -24.7702  -31.1053   18.1539 C   0  0  1  0  0  0  0  0  0  0  0  0
  -23.2092  -30.2394   21.5075 C   0  0  1  0  0  0  0  0  0  0  0  0
  -27.4621  -13.6348   19.8574 C   0  0  2  0  0  0  0  0  0  0  0  0
  -23.7446  -29.8258   29.2241 C   0  0  0  0  0  0  0  0  0  0  0  0
  -27.2416  -30.8254   23.6885 C   0  0  0  0  0  0  0  0  0  0  0  0
  -27.2052  -30.4007   26.1556 C   0  0  0  0  0  0  0  0  0  0  0  0
  -26.1659  -32.4723   25.2329 C   0  0  0  0  0  0  0  0  0  0  0  0
  -20.9064  -28.4927   27.0692 C   0  0  0  0  0  0  0  0  0  0  0  0
  -30.3938  -17.3047   22.4952 C   0  0  0  0  0  0  0  0  0  0  0  0
  -25.0224  -30.2461   24.8741 C   0  0  1  0  0  0  0  0  0  0  0  0
  -22.8983  -29.7035   27.9665 C   0  0  2  0  0  0  0  0  0  0  0  0
  -27.7215  -18.4287   22.7543 C   0  0  0  0  0  0  0  0  0  0  0  0
  -26.3961  -30.9681   24.9698 C   0  0  0  0  0  0  0  0  0  0  0  0
  -25.8789  -11.7901   20.2737 N   0  0  0  0  0  0  0  0  0  0  0  0
  -26.1222  -13.1102   20.3394 N   0  0  0  0  0  0  0  0  0  0  0  0
  -23.8379  -29.7872   22.7503 N   0  0  0  0  0  0  0  0  0  0  0  0
  -29.7722  -14.2351   20.4831 N   0  0  0  0  0  0  0  0  0  0  0  0
  -25.1653  -15.1771   20.9899 N   0  0  0  0  0  0  0  0  0  0  0  0
  -21.9214  -12.1821   21.9404 N   0  0  0  0  0  0  0  0  0  0  0  0
  -27.0876  -20.7763   21.2177 N   0  0  0  0  0  0  0  0  0  0  0  0
  -23.8791  -30.8802   19.2718 N   0  0  0  0  0  0  0  0  0  0  0  0
  -24.1890  -30.3873   26.0632 N   0  0  0  0  0  0  0  0  0  0  0  0
  -29.8232  -16.0981   21.9391 N   0  0  0  0  0  0  0  0  0  0  0  0
  -21.8280  -28.6970   28.2163 N   0  3  0  0  0  0  0  0  0  0  0  0
  -22.4688  -14.4087   21.9774 O   0  0  0  0  0  0  0  0  0  0  0  0
  -27.1991  -22.6081   19.7594 O   0  0  0  0  0  0  0  0  0  0  0  0
  -25.4549  -30.0904   20.7935 O   0  0  0  0  0  0  0  0  0  0  0  0
  -23.8626  -31.9293   23.6706 O   0  0  0  0  0  0  0  0  0  0  0  0
  -23.9790  -28.1191   26.4971 O   0  0  0  0  0  0  0  0  0  0  0  0
  -31.5308  -15.7465   20.4499 O   0  0  0  0  0  0  0  0  0  0  0  0
  -24.3620  -21.1326   21.2866 O   0  0  0  0  0  0  0  0  0  0  0  0
  -22.1878   -6.6748   21.1444 O   0  0  0  0  0  0  0  0  0  0  0  0
  -23.4717  -23.8161   21.2456 O   0  0  0  0  0  0  0  0  0  1  0  0
  -19.5452   -5.4702   25.8316 F   0  0  0  0  0  0  0  0  0  0  0  0
  -31.4922  -20.8244   19.3347 F   0  0  0  0  0  0  0  0  0  0  0  0
  -22.9497   -4.5103   22.6862 F   0  0  0  0  0  0  0  0  0  0  0  0
  -28.2017  -17.3272   23.3995 F   0  0  0  0  0  0  0  0  0  0  0  0
  -27.2785  -19.2599   23.7405 F   0  0  0  0  0  0  0  0  0  0  0  0
  -26.6060  -18.0128   22.0909 F   0  0  0  0  0  0  0  0  0  0  0  0
  1  2  1  0  0  0  0
  1  5  2  0  0  0  0
  2  6  2  0  0  0  0
  3  8  2  0  0  0  0
  3 17  1  0  0  0  0
  4  9  1  0  0  0  0
  4 17  2  0  0  0  0
  5 19  1  0  0  0  0
  6 21  1  0  0  0  0
  7 10  2  0  0  0  0
  7 20  1  0  0  0  0
  8 26  1  0  0  0  0
  9 26  2  0  0  0  0
 10 27  1  0  0  0  0
 11 12  2  0  0  0  0
 11 28  1  0  0  0  0
 12 29  1  0  0  0  0
 13 22  1  0  0  0  0
 13 27  2  0  0  0  0
 14 23  2  0  0  0  0
 14 30  1  0  0  0  0
 15 25  1  0  0  0  0
 15 30  2  0  0  0  0
 16 29  2  0  0  0  0
 16 31  1  0  0  0  0
 17 32  1  0  0  0  0
 18 32  1  0  0  0  0
 18 33  2  0  0  0  0
 18 35  1  0  0  0  0
 19 21  2  0  0  0  0
 19 42  1  0  0  0  0
 20 22  2  0  0  0  0
 20 43  1  0  0  0  0
 21 51  1  0  0  0  0
 22 44  1  0  0  0  0
 23 24  1  0  0  0  0
 23 59  1  0  0  0  0
 24 25  2  0  0  0  0
 24 62  1  0  0  0  0
 25 70  1  0  0  0  0
 26 82  1  0  0  0  0
 27 83  1  0  0  0  0
 28 31  2  0  0  0  0
 28 82  1  0  0  0  0
 29 84  1  0  0  0  0
 30 85  1  0  0  0  0
 31 86  1  0  0  0  0
 32 64  2  0  0  0  0
 33 65  1  0  0  0  0
 33 68  1  0  0  0  0
 34 36  2  0  0  0  0
 34 83  1  0  0  0  0
 35 69  1  0  0  0  0
 35 75  2  0  0  0  0
 36 37  1  0  0  0  0
 36 81  1  0  0  0  0
 37 70  1  0  0  0  0
 37 76  2  0  0  0  0
 38 52  1  0  0  0  0
 38 71  1  0  0  0  0
 38 77  2  0  0  0  0
 39 60  1  0  0  0  0
 39 66  1  0  0  0  0
 39 78  2  0  0  0  0
 40 61  1  0  0  0  0
 40 72  1  0  0  0  0
 40 79  2  0  0  0  0
 41 67  1  0  0  0  0
 41 73  1  0  0  0  0
 41 80  2  0  0  0  0
 42 45  1  0  0  0  0
 43 52  1  0  0  0  0
 44 66  1  0  0  0  0
 45 47  1  0  0  0  0
 46 48  1  0  0  0  0
 46 49  1  0  0  0  0
 47 51  1  0  0  0  0
 48 53  1  0  0  0  0
 49 67  1  0  0  0  0
 50 53  1  0  0  0  0
 50 67  1  0  0  0  0
 51 71  1  0  0  0  0
 52 66  1  0  0  0  0
 53 65  1  0  0  0  0
 54 61  1  0  0  0  0
 55 63  1  0  0  0  0
 56 63  1  0  0  0  0
 57 63  1  0  0  0  0
 58 74  1  0  0  0  0
 59 73  1  0  0  0  0
 60 63  1  0  0  0  0
 60 72  1  0  0  0  0
 61 74  1  0  0  0  0
 62 87  1  0  0  0  0
 62 88  1  0  0  0  0
 62 89  1  0  0  0  0
 64 65  1  0  0  0  0
M  CHG  1  74   1
M  ISO  4  34 101  41 100  73 100  83 101
M  END
> <Batch ID>
0173

> <Smiles>
CNC(C)C(=O)NC(C(=O)N1Cc2cc([101O:1][101CH2:1]C(=O)C(=O)Nc3cc(F)cc(C[100NH:0][100C:0](=O)N4CCCC(n5nc(-c6ccc(Oc7ccc(F)cc7F)cc6)c(C(N)=O)c5N)C4)c3C(F)(F)F)ccc2CC1C(=O)NC1CCCc2ccccc21)C(C)(C)C

> <Shape>
0.297

> <Color>
0.172

> <Negative vol penalty>
0.000

$$$$

  -OEChem-04052304293D

 87 95  0     1  0  0  0  0  0999 V2000
  -18.5510  -24.5918   23.3422 C   0  0  0  0  0  0  0  0  0  0  0  0
  -19.8231  -24.4532   22.7963 C   0  0  0  0  0  0  0  0  0  0  0  0
  -23.3101  -12.6129   20.5096 C   0  0  0  0  0  0  0  0  0  0  0  0
  -24.7664  -14.0061   21.8419 C   0  0  0  0  0  0  0  0  0  0  0  0
  -17.9376  -25.8436   23.3685 C   0  0  0  0  0  0  0  0  0  0  0  0
  -20.4821  -25.5662   22.2753 C   0  0  0  0  0  0  0  0  0  0  0  0
  -26.5011  -26.6860   22.4271 C   0  0  0  0  0  0  0  0  0  0  0  0
  -24.3998  -11.8221   20.1452 C   0  0  0  0  0  0  0  0  0  0  0  0
  -25.8562  -13.2153   21.4776 C   0  0  0  0  0  0  0  0  0  0  0  0
  -27.5126  -26.5066   21.4846 C   0  0  0  0  0  0  0  0  0  0  0  0
  -27.8962  -12.8638   18.8045 C   0  0  0  0  0  0  0  0  0  0  0  0
  -29.0699  -13.5138   18.4233 C   0  0  0  0  0  0  0  0  0  0  0  0
  -27.2851  -28.8116   20.8105 C   0  0  0  0  0  0  0  0  0  0  0  0
  -30.2561  -12.4303   20.2277 C   0  0  0  0  0  0  0  0  0  0  0  0
  -24.0836  -23.4786   22.6597 C   0  0  0  0  0  0  0  0  0  0  0  0
  -23.4934  -13.7049   21.3579 C   0  0  0  0  0  0  0  0  0  0  0  0
  -21.5220  -14.3448   22.8452 C   0  0  0  0  0  0  0  0  0  0  0  0
  -18.5933  -26.9742   22.8563 C   0  0  0  0  0  0  0  0  0  0  0  0
  -25.8654  -27.9287   22.5612 C   0  0  0  0  0  0  0  0  0  0  0  0
  -19.8763  -26.8340   22.2935 C   0  0  0  0  0  0  0  0  0  0  0  0
  -26.2676  -29.0049   21.7573 C   0  0  0  0  0  0  0  0  0  0  0  0
  -22.7271  -22.0513   21.3258 C   0  0  0  0  0  0  0  0  0  0  0  0
  -25.6729  -12.1233   20.6293 C   0  0  0  0  0  0  0  0  0  0  0  0
  -27.9028  -27.5686   20.6741 C   0  0  0  0  0  0  0  0  0  0  0  0
  -27.9024  -11.9970   19.8974 C   0  0  0  0  0  0  0  0  0  0  0  0
  -30.2499  -13.2971   19.1348 C   0  0  0  0  0  0  0  0  0  0  0  0
  -29.0823  -11.7802   20.6089 C   0  0  0  0  0  0  0  0  0  0  0  0
  -23.2247  -22.3944   22.5780 C   0  0  0  0  0  0  0  0  0  0  0  0
  -23.0982  -22.7924   20.2094 C   0  0  0  0  0  0  0  0  0  0  0  0
  -22.3682  -14.5224   21.7342 C   0  0  0  0  0  0  0  0  0  0  0  0
  -23.9626  -23.8590   20.3972 C   0  0  0  0  0  0  0  0  0  0  0  0
  -20.6184  -15.3754   22.7568 C   0  0  0  0  0  0  0  0  0  0  0  0
  -21.5504  -13.3382   23.8659 C   0  0  0  0  0  0  0  0  0  0  0  0
  -22.8862  -28.9751   22.1970 C   0  0  0  0  0  0  0  0  0  0  0  0
  -24.1264  -31.7343   23.3678 C   0  0  0  0  0  0  0  0  0  0  0  0
  -26.4649  -25.3849   18.0353 C   0  0  0  0  0  0  0  0  0  0  0  0
  -26.8745  -33.6982   23.8555 C   0  0  0  0  0  0  0  0  0  0  0  0
  -20.8356  -20.7905   20.2401 C   0  0  0  0  0  0  0  0  0  0  0  0
  -17.8707  -28.2980   22.8638 C   0  0  0  0  0  0  0  0  0  0  0  0
  -24.7944  -28.1132   23.6011 C   0  0  0  0  0  0  0  0  0  0  0  0
  -25.6307  -30.3646   21.8758 C   0  0  0  0  0  0  0  0  0  0  0  0
  -18.7894  -29.4947   22.6311 C   0  0  0  0  0  0  0  0  0  0  0  0
  -18.4776  -18.2139   19.5485 C   0  0  0  0  0  0  0  0  0  0  0  0
  -19.7280  -29.2271   21.4588 C   0  0  0  0  0  0  0  0  0  0  0  0
  -19.1279  -16.9598   20.1370 C   0  0  0  0  0  0  0  0  0  0  0  0
  -19.5117  -19.1496   18.9249 C   0  0  0  0  0  0  0  0  0  0  0  0
  -21.2788  -18.2616   20.3938 C   0  0  0  0  0  0  0  0  0  0  0  0
  -20.6334  -28.0221   21.7410 C   0  0  1  0  0  0  0  0  0  0  0  0
  -23.8619  -29.2818   23.2976 C   0  0  1  0  0  0  0  0  0  0  0  0
  -20.2840  -17.3192   21.0909 C   0  0  2  0  0  0  0  0  0  0  0  0
  -27.5684  -35.9141   24.8071 C   0  0  0  0  0  0  0  0  0  0  0  0
  -29.3881  -28.7836   17.8629 C   0  0  0  0  0  0  0  0  0  0  0  0
  -22.9797  -33.1435   20.9164 C   0  0  0  0  0  0  0  0  0  0  0  0
  -24.4758  -35.0867   21.4200 C   0  0  0  0  0  0  0  0  0  0  0  0
  -22.7240  -34.4058   23.0601 C   0  0  0  0  0  0  0  0  0  0  0  0
  -28.6548  -32.4180   25.8431 C   0  0  0  0  0  0  0  0  0  0  0  0
  -24.3866  -24.6835   19.2163 C   0  0  0  0  0  0  0  0  0  0  0  0
  -27.9668  -25.1536   18.0623 C   0  0  0  0  0  0  0  0  0  0  0  0
  -28.7809  -26.3501   17.5642 C   0  0  0  0  0  0  0  0  0  0  0  0
  -24.7742  -32.9565   22.7632 C   0  0  1  0  0  0  0  0  0  0  0  0
  -27.3845  -34.4300   25.0838 C   0  0  2  0  0  0  0  0  0  0  0  0
  -28.5490  -27.6249   18.3861 C   0  0  1  0  0  0  0  0  0  1  0  0
  -23.7493  -33.8721   22.0361 C   0  0  0  0  0  0  0  0  0  0  0  0
  -24.4667  -24.2224   21.5978 N   0  0  0  0  0  0  0  0  0  0  0  0
  -22.0319  -15.5824   20.9943 N   0  0  0  0  0  0  0  0  0  0  0  0
  -20.9645  -16.0800   21.6416 N   0  0  0  0  0  0  0  0  0  0  0  0
  -24.5838  -30.4932   22.9029 N   0  0  0  0  0  0  0  0  0  0  0  0
  -20.5738  -19.4496   19.8876 N   0  0  0  0  0  0  0  0  0  0  0  0
  -19.5694  -15.7384   23.5251 N   0  0  0  0  0  0  0  0  0  0  0  0
  -22.5461  -12.3536   23.8057 N   0  0  0  0  0  0  0  0  0  0  0  0
  -21.8453  -20.9508   21.1885 N   0  0  0  0  0  0  0  0  0  0  0  0
  -21.7096  -28.3965   22.6333 N   0  0  0  0  0  0  0  0  0  0  0  0
  -25.8199  -24.6680   19.0327 N   0  0  0  0  0  0  0  0  0  0  0  0
  -25.4984  -33.6127   23.8465 N   0  0  0  0  0  0  0  0  0  0  0  0
  -28.6947  -33.8665   25.5158 N   0  3  0  0  0  0  0  0  0  0  0  0
  -20.7076  -13.3031   24.7942 O   0  0  0  0  0  0  0  0  0  0  0  0
  -23.1784  -29.2449   21.0379 O   0  0  0  0  0  0  0  0  0  0  0  0
  -23.2519  -31.8755   24.2263 O   0  0  0  0  0  0  0  0  0  0  0  0
  -25.9098  -26.1023   17.2076 O   0  0  0  0  0  0  0  0  0  0  0  0
  -27.6221  -33.2505   22.9887 O   0  0  0  0  0  0  0  0  0  0  0  0
  -20.1916  -21.7259   19.7580 O   0  0  0  0  0  0  0  0  0  0  0  0
  -26.7364  -11.3518   20.2741 O   0  0  0  0  0  0  0  0  0  0  0  0
  -28.8894  -27.3961   19.7528 O   0  0  0  0  0  0  0  0  0  1  0  0
  -31.3773  -13.9202   18.7677 F   0  0  0  0  0  0  0  0  0  0  0  0
  -29.0947  -10.9478   21.6590 F   0  0  0  0  0  0  0  0  0  0  0  0
  -22.8910  -21.7057   23.6765 F   0  0  0  0  0  0  0  0  0  0  0  0
  -22.6345  -22.4854   18.9905 F   0  0  0  0  0  0  0  0  0  0  0  0
  1  2  1  0  0  0  0
  1  5  2  0  0  0  0
  2  6  2  0  0  0  0
  3  8  2  0  0  0  0
  3 16  1  0  0  0  0
  4  9  1  0  0  0  0
  4 16  2  0  0  0  0
  5 18  1  0  0  0  0
  6 20  1  0  0  0  0
  7 10  2  0  0  0  0
  7 19  1  0  0  0  0
  8 23  1  0  0  0  0
  9 23  2  0  0  0  0
 10 24  1  0  0  0  0
 11 12  2  0  0  0  0
 11 25  1  0  0  0  0
 12 26  1  0  0  0  0
 13 21  1  0  0  0  0
 13 24  2  0  0  0  0
 14 26  2  0  0  0  0
 14 27  1  0  0  0  0
 15 28  1  0  0  0  0
 15 64  2  0  0  0  0
 16 30  1  0  0  0  0
 17 30  1  0  0  0  0
 17 32  2  0  0  0  0
 17 33  1  0  0  0  0
 18 20  2  0  0  0  0
 18 39  1  0  0  0  0
 19 21  2  0  0  0  0
 19 40  1  0  0  0  0
 20 48  1  0  0  0  0
 21 41  1  0  0  0  0
 22 28  2  0  0  0  0
 22 29  1  0  0  0  0
 22 71  1  0  0  0  0
 23 82  1  0  0  0  0
 24 83  1  0  0  0  0
 25 27  2  0  0  0  0
 25 82  1  0  0  0  0
 26 84  1  0  0  0  0
 27 85  1  0  0  0  0
 28 86  1  0  0  0  0
 29 31  2  0  0  0  0
 29 87  1  0  0  0  0
 30 65  2  0  0  0  0
 31 57  1  0  0  0  0
 31 64  1  0  0  0  0
 32 66  1  0  0  0  0
 32 69  1  0  0  0  0
 33 70  1  0  0  0  0
 33 76  2  0  0  0  0
 34 49  1  0  0  0  0
 34 72  1  0  0  0  0
 34 77  2  0  0  0  0
 35 60  1  0  0  0  0
 35 67  1  0  0  0  0
 35 78  2  0  0  0  0
 36 58  1  0  0  0  0
 36 73  1  0  0  0  0
 36 79  2  0  0  0  0
 37 61  1  0  0  0  0
 37 74  1  0  0  0  0
 37 80  2  0  0  0  0
 38 68  1  0  0  0  0
 38 71  1  0  0  0  0
 38 81  2  0  0  0  0
 39 42  1  0  0  0  0
 40 49  1  0  0  0  0
 41 67  1  0  0  0  0
 42 44  1  0  0  0  0
 43 45  1  0  0  0  0
 43 46  1  0  0  0  0
 44 48  1  0  0  0  0
 45 50  1  0  0  0  0
 46 68  1  0  0  0  0
 47 50  1  0  0  0  0
 47 68  1  0  0  0  0
 48 72  1  0  0  0  0
 49 67  1  0  0  0  0
 50 66  1  0  0  0  0
 51 61  1  0  0  0  0
 52 62  1  0  0  0  0
 53 63  1  0  0  0  0
 54 63  1  0  0  0  0
 55 63  1  0  0  0  0
 56 75  1  0  0  0  0
 57 73  1  0  0  0  0
 58 59  1  0  0  0  0
 59 62  1  0  0  0  0
 60 63  1  0  0  0  0
 60 74  1  0  0  0  0
 61 75  1  0  0  0  0
 62 83  1  0  0  0  0
 65 66  1  0  0  0  0
M  CHG  1  75   1
M  ISO  4  38 100  62 101  71 100  83 101
M  END
> <Batch ID>
0173

> <Smiles>
CNC(C)C(=O)NC(C(=O)N1Cc2cc([101O:1][101CH:1](C)CCC(=O)NCc3ncc(F)c([100NH:0][100C:0](=O)N4CCCC(n5nc(-c6ccc(Oc7ccc(F)cc7F)cc6)c(C(N)=O)c5N)C4)c3F)ccc2CC1C(=O)NC1CCCc2ccccc21)C(C)(C)C

> <Shape>
0.236

> <Color>
0.105

> <Negative vol penalty>
0.000

$$$$

  -OEChem-04052304293D

 87 95  0     1  0  0  0  0  0999 V2000
  -18.0628  -30.8512   19.2150 C   0  0  0  0  0  0  0  0  0  0  0  0
  -19.3110  -30.3535   18.8549 C   0  0  0  0  0  0  0  0  0  0  0  0
  -24.9032  -13.4835   21.7041 C   0  0  0  0  0  0  0  0  0  0  0  0
  -26.0947  -13.4673   19.6024 C   0  0  0  0  0  0  0  0  0  0  0  0
  -17.8216  -31.2380   20.5327 C   0  0  0  0  0  0  0  0  0  0  0  0
  -20.3190  -30.2432   19.8120 C   0  0  0  0  0  0  0  0  0  0  0  0
  -24.6255  -25.9012   20.1394 C   0  0  0  0  0  0  0  0  0  0  0  0
  -24.1175  -12.4172   21.2669 C   0  0  0  0  0  0  0  0  0  0  0  0
  -25.3090  -12.4009   19.1652 C   0  0  0  0  0  0  0  0  0  0  0  0
  -25.9586  -25.8697   19.7326 C   0  0  0  0  0  0  0  0  0  0  0  0
  -24.4217   -9.0646   20.9503 C   0  0  0  0  0  0  0  0  0  0  0  0
  -24.2066   -8.0110   21.8387 C   0  0  0  0  0  0  0  0  0  0  0  0
  -26.6480  -26.4664   21.9660 C   0  0  0  0  0  0  0  0  0  0  0  0
  -21.8257   -8.4078   21.7328 C   0  0  0  0  0  0  0  0  0  0  0  0
  -30.0678  -21.2788   15.5239 C   0  0  0  0  0  0  0  0  0  0  0  0
  -25.8918  -14.0086   20.8718 C   0  0  0  0  0  0  0  0  0  0  0  0
  -27.9262  -15.0377   22.0162 C   0  0  0  0  0  0  0  0  0  0  0  0
  -18.8242  -31.1233   21.5085 C   0  0  0  0  0  0  0  0  0  0  0  0
  -24.2925  -26.2267   21.4622 C   0  0  0  0  0  0  0  0  0  0  0  0
  -20.0914  -30.6300   21.1436 C   0  0  0  0  0  0  0  0  0  0  0  0
  -25.3100  -26.4988   22.3877 C   0  0  0  0  0  0  0  0  0  0  0  0
  -28.7934  -21.2149   17.5310 C   0  0  0  0  0  0  0  0  0  0  0  0
  -24.3203  -11.8758   19.9975 C   0  0  0  0  0  0  0  0  0  0  0  0
  -26.9700  -26.1552   20.6452 C   0  0  0  0  0  0  0  0  0  0  0  0
  -23.3388   -9.7899   20.4532 C   0  0  0  0  0  0  0  0  0  0  0  0
  -22.9086   -7.6826   22.2299 C   0  0  0  0  0  0  0  0  0  0  0  0
  -22.0409   -9.4615   20.8444 C   0  0  0  0  0  0  0  0  0  0  0  0
  -28.9764  -20.7862   16.2210 C   0  0  0  0  0  0  0  0  0  0  0  0
  -29.6947  -22.1104   18.0958 C   0  0  0  0  0  0  0  0  0  0  0  0
  -26.7034  -15.1106   21.3226 C   0  0  0  0  0  0  0  0  0  0  0  0
  -30.7541  -22.5435   17.3149 C   0  0  0  0  0  0  0  0  0  0  0  0
  -28.2891  -16.3480   22.2108 C   0  0  0  0  0  0  0  0  0  0  0  0
  -28.6678  -13.8884   22.4460 C   0  0  0  0  0  0  0  0  0  0  0  0
  -22.6266  -28.5518   22.8486 C   0  0  0  0  0  0  0  0  0  0  0  0
  -30.0192  -25.8343   18.5985 C   0  0  0  0  0  0  0  0  0  0  0  0
  -23.1441  -26.7953   25.5261 C   0  0  0  0  0  0  0  0  0  0  0  0
  -25.0616  -24.4865   27.1508 C   0  0  0  0  0  0  0  0  0  0  0  0
  -27.0155  -21.4115   19.3049 C   0  0  0  0  0  0  0  0  0  0  0  0
  -18.5312  -31.5984   22.9096 C   0  0  0  0  0  0  0  0  0  0  0  0
  -22.8510  -26.2301   21.8918 C   0  0  0  0  0  0  0  0  0  0  0  0
  -25.0064  -26.8340   23.8244 C   0  0  0  0  0  0  0  0  0  0  0  0
  -19.5359  -31.0989   23.9447 C   0  0  0  0  0  0  0  0  0  0  0  0
  -26.4017  -20.7171   22.7427 C   0  0  0  0  0  0  0  0  0  0  0  0
  -20.9623  -31.2842   23.4369 C   0  0  0  0  0  0  0  0  0  0  0  0
  -26.5267  -19.1945   22.8329 C   0  0  0  0  0  0  0  0  0  0  0  0
  -25.7541  -21.1562   21.4306 C   0  0  0  0  0  0  0  0  0  0  0  0
  -26.5092  -19.0976   20.3076 C   0  0  0  0  0  0  0  0  0  0  0  0
  -21.2027  -30.4720   22.1586 C   0  0  1  0  0  0  0  0  0  0  0  0
  -22.6003  -27.0771   23.1357 C   0  0  1  0  0  0  0  0  0  0  0  0
  -27.2150  -18.6105   21.5836 C   0  0  2  0  0  0  0  0  0  0  0  0
  -33.1806  -22.9701   17.8832 C   0  0  0  0  0  0  0  0  0  0  0  0
  -30.5555  -26.7575   16.3058 C   0  0  0  0  0  0  0  0  0  0  0  0
  -25.7534  -22.8945   28.9631 C   0  0  0  0  0  0  0  0  0  0  0  0
  -24.2704  -29.3214   26.8146 C   0  0  0  0  0  0  0  0  0  0  0  0
  -25.2944  -27.8778   28.5854 C   0  0  0  0  0  0  0  0  0  0  0  0
  -22.8157  -27.9456   28.3131 C   0  0  0  0  0  0  0  0  0  0  0  0
  -23.5058  -22.2696   25.9574 C   0  0  0  0  0  0  0  0  0  0  0  0
  -28.5300  -25.7949   18.8866 C   0  0  0  0  0  0  0  0  0  1  0  0
  -31.7553  -23.5169   17.8929 C   0  0  1  0  0  0  0  0  0  0  0  0
  -30.4389  -25.5139   17.1733 C   0  0  1  0  0  0  0  0  0  0  0  0
  -24.2204  -26.7504   26.5838 C   0  0  1  0  0  0  0  0  0  0  0  0
  -24.6903  -23.2386   27.9315 C   0  0  2  0  0  0  0  0  0  0  0  0
  -24.1561  -27.9694   27.5468 C   0  0  0  0  0  0  0  0  0  0  0  0
  -30.9646  -22.1495   16.0389 N   0  0  0  0  0  0  0  0  0  0  0  0
  -26.3153  -16.3677   21.0922 N   0  0  0  0  0  0  0  0  0  0  0  0
  -27.2999  -17.0969   21.6443 N   0  0  0  0  0  0  0  0  0  0  0  0
  -23.5814  -26.8307   24.1944 N   0  0  0  0  0  0  0  0  0  0  0  0
  -26.4616  -20.5681   20.2911 N   0  0  0  0  0  0  0  0  0  0  0  0
  -29.3547  -16.9211   22.8096 N   0  0  0  0  0  0  0  0  0  0  0  0
  -28.1515  -12.6163   22.1640 N   0  0  0  0  0  0  0  0  0  0  0  0
  -27.6926  -20.7409   18.2869 N   0  0  0  0  0  0  0  0  0  0  0  0
  -21.4024  -29.0746   22.4778 N   0  0  0  0  0  0  0  0  0  0  0  0
  -24.0875  -25.4576   27.2468 N   0  0  0  0  0  0  0  0  0  0  0  0
  -24.5367  -22.0776   27.0098 N   0  3  0  0  0  0  0  0  0  0  0  0
  -31.7575  -24.8248   17.1864 N   0  3  0  0  0  0  0  0  0  0  0  0
  -29.7479  -13.9867   23.0763 O   0  0  0  0  0  0  0  0  0  0  0  0
  -23.6792  -29.1698   22.9571 O   0  0  0  0  0  0  0  0  0  0  0  0
  -30.8395  -26.0955   19.4783 O   0  0  0  0  0  0  0  0  0  0  0  0
  -21.9591  -26.7916   25.8686 O   0  0  0  0  0  0  0  0  0  0  0  0
  -26.1124  -24.5908   26.5220 O   0  0  0  0  0  0  0  0  0  0  0  0
  -26.9212  -22.6396   19.3738 O   0  0  0  0  0  0  0  0  0  0  0  0
  -23.5540  -10.8351   19.5707 O   0  0  0  0  0  0  0  0  0  0  0  0
  -28.2720  -26.1258   20.2506 O   0  0  0  0  0  0  0  0  0  1  0  0
  -22.7020   -6.6698   23.0818 F   0  0  0  0  0  0  0  0  0  0  0  0
  -20.9965  -10.1539   20.3693 F   0  0  0  0  0  0  0  0  0  0  0  0
  -28.1307  -19.9249   15.6419 F   0  0  0  0  0  0  0  0  0  0  0  0
  -29.5439  -22.5407   19.3557 F   0  0  0  0  0  0  0  0  0  0  0  0
  1  2  1  0  0  0  0
  1  5  2  0  0  0  0
  2  6  2  0  0  0  0
  3  8  2  0  0  0  0
  3 16  1  0  0  0  0
  4  9  1  0  0  0  0
  4 16  2  0  0  0  0
  5 18  1  0  0  0  0
  6 20  1  0  0  0  0
  7 10  2  0  0  0  0
  7 19  1  0  0  0  0
  8 23  1  0  0  0  0
  9 23  2  0  0  0  0
 10 24  1  0  0  0  0
 11 12  2  0  0  0  0
 11 25  1  0  0  0  0
 12 26  1  0  0  0  0
 13 21  1  0  0  0  0
 13 24  2  0  0  0  0
 14 26  2  0  0  0  0
 14 27  1  0  0  0  0
 15 28  1  0  0  0  0
 15 64  2  0  0  0  0
 16 30  1  0  0  0  0
 17 30  1  0  0  0  0
 17 32  2  0  0  0  0
 17 33  1  0  0  0  0
 18 20  2  0  0  0  0
 18 39  1  0  0  0  0
 19 21  2  0  0  0  0
 19 40  1  0  0  0  0
 20 48  1  0  0  0  0
 21 41  1  0  0  0  0
 22 28  2  0  0  0  0
 22 29  1  0  0  0  0
 22 71  1  0  0  0  0
 23 82  1  0  0  0  0
 24 83  1  0  0  0  0
 25 27  2  0  0  0  0
 25 82  1  0  0  0  0
 26 84  1  0  0  0  0
 27 85  1  0  0  0  0
 28 86  1  0  0  0  0
 29 31  2  0  0  0  0
 29 87  1  0  0  0  0
 30 65  2  0  0  0  0
 31 59  1  0  0  0  0
 31 64  1  0  0  0  0
 32 66  1  0  0  0  0
 32 69  1  0  0  0  0
 33 70  1  0  0  0  0
 33 76  2  0  0  0  0
 34 49  1  0  0  0  0
 34 72  1  0  0  0  0
 34 77  2  0  0  0  0
 35 58  1  0  0  0  0
 35 60  1  0  0  0  0
 35 78  2  0  0  0  0
 36 61  1  0  0  0  0
 36 67  1  0  0  0  0
 36 79  2  0  0  0  0
 37 62  1  0  0  0  0
 37 73  1  0  0  0  0
 37 80  2  0  0  0  0
 38 68  1  0  0  0  0
 38 71  1  0  0  0  0
 38 81  2  0  0  0  0
 39 42  1  0  0  0  0
 40 49  1  0  0  0  0
 41 67  1  0  0  0  0
 42 44  1  0  0  0  0
 43 45  1  0  0  0  0
 43 46  1  0  0  0  0
 44 48  1  0  0  0  0
 45 50  1  0  0  0  0
 46 68  1  0  0  0  0
 47 50  1  0  0  0  0
 47 68  1  0  0  0  0
 48 72  1  0  0  0  0
 49 67  1  0  0  0  0
 50 66  1  0  0  0  0
 51 59  1  0  0  0  0
 52 60  1  0  0  0  0
 53 62  1  0  0  0  0
 54 63  1  0  0  0  0
 55 63  1  0  0  0  0
 56 63  1  0  0  0  0
 57 74  1  0  0  0  0
 58 83  1  0  0  0  0
 59 75  1  0  0  0  0
 60 75  1  0  0  0  0
 61 63  1  0  0  0  0
 61 73  1  0  0  0  0
 62 74  1  0  0  0  0
 65 66  1  0  0  0  0
M  CHG  2  74   1  75   1
M  ISO  4  38 100  58 101  71 100  83 101
M  END
> <Batch ID>
0173

> <Smiles>
CNC(C)C(=O)NC(C(=O)N1Cc2cc([101O:1][101CH2:1]C(=O)C(C)NC(C)c3ncc(F)c([100NH:0][100C:0](=O)N4CCCC(n5nc(-c6ccc(Oc7ccc(F)cc7F)cc6)c(C(N)=O)c5N)C4)c3F)ccc2CC1C(=O)NC1CCCc2ccccc21)C(C)(C)C

> <Shape>
0.187

> <Color>
0.085

> <Negative vol penalty>
0.000

$$$$

  -OEChem-04052304293D

 86 94  0     1  0  0  0  0  0999 V2000
  -25.7712  -23.6466   16.5802 C   0  0  0  0  0  0  0  0  0  0  0  0
  -26.5165  -23.4228   17.7334 C   0  0  0  0  0  0  0  0  0  0  0  0
  -23.0770   -9.8676   19.9387 C   0  0  0  0  0  0  0  0  0  0  0  0
  -23.8368   -9.8721   22.2320 C   0  0  0  0  0  0  0  0  0  0  0  0
  -26.4172  -23.9409   15.3803 C   0  0  0  0  0  0  0  0  0  0  0  0
  -27.9085  -23.4923   17.6871 C   0  0  0  0  0  0  0  0  0  0  0  0
  -29.8548  -26.0863   21.5765 C   0  0  0  0  0  0  0  0  0  0  0  0
  -22.3338   -8.7137   20.1871 C   0  0  0  0  0  0  0  0  0  0  0  0
  -23.0936   -8.7182   22.4806 C   0  0  0  0  0  0  0  0  0  0  0  0
  -29.9357  -25.4291   22.8034 C   0  0  0  0  0  0  0  0  0  0  0  0
  -19.8660   -7.9176   23.0820 C   0  0  0  0  0  0  0  0  0  0  0  0
  -19.1090   -7.8757   24.2528 C   0  0  0  0  0  0  0  0  0  0  0  0
  -32.2741  -24.9888   22.4065 C   0  0  0  0  0  0  0  0  0  0  0  0
  -32.0602  -16.6091   22.5540 C   0  0  0  0  0  0  0  0  0  0  0  0
  -30.4672  -18.3399   24.0539 C   0  0  0  0  0  0  0  0  0  0  0  0
  -20.3516   -5.9381   24.9868 C   0  0  0  0  0  0  0  0  0  0  0  0
  -23.8286  -10.4468   20.9611 C   0  0  0  0  0  0  0  0  0  0  0  0
  -24.1688  -12.9723   20.8443 C   0  0  0  0  0  0  0  0  0  0  0  0
  -27.8173  -24.0236   15.3213 C   0  0  0  0  0  0  0  0  0  0  0  0
  -30.9822  -26.1904   20.7491 C   0  0  0  0  0  0  0  0  0  0  0  0
  -28.5739  -23.7867   16.4849 C   0  0  0  0  0  0  0  0  0  0  0  0
  -32.2055  -25.6501   21.1708 C   0  0  0  0  0  0  0  0  0  0  0  0
  -30.6742  -16.5927   22.3981 C   0  0  0  0  0  0  0  0  0  0  0  0
  -31.8533  -18.3562   24.2099 C   0  0  0  0  0  0  0  0  0  0  0  0
  -22.3421   -8.1390   21.4581 C   0  0  0  0  0  0  0  0  0  0  0  0
  -31.1447  -24.8777   23.2173 C   0  0  0  0  0  0  0  0  0  0  0  0
  -20.8657   -6.9697   22.8635 C   0  0  0  0  0  0  0  0  0  0  0  0
  -19.3519   -6.8860   25.2053 C   0  0  0  0  0  0  0  0  0  0  0  0
  -29.8777  -17.4581   23.1480 C   0  0  0  0  0  0  0  0  0  0  0  0
  -32.6497  -17.4908   23.4599 C   0  0  0  0  0  0  0  0  0  0  0  0
  -21.1085   -5.9800   23.8159 C   0  0  0  0  0  0  0  0  0  0  0  0
  -24.5969  -11.6385   20.7049 C   0  0  0  0  0  0  0  0  0  0  0  0
  -25.2605  -13.7229   20.4820 C   0  0  0  0  0  0  0  0  0  0  0  0
  -22.8980  -13.4868   21.2639 C   0  0  0  0  0  0  0  0  0  0  0  0
  -31.7223  -25.1779   17.8284 C   0  0  0  0  0  0  0  0  0  0  0  0
  -31.2727  -21.3666   25.0664 C   0  0  0  0  0  0  0  0  0  0  0  0
  -34.3993  -26.9433   18.3172 C   0  0  0  0  0  0  0  0  0  0  0  0
  -36.5706  -28.3597   20.5368 C   0  0  0  0  0  0  0  0  0  0  0  0
  -30.7261  -14.7716   20.6581 C   0  0  0  0  0  0  0  0  0  0  0  0
  -28.4729  -24.2981   13.9910 C   0  0  0  0  0  0  0  0  0  0  0  0
  -30.8850  -26.9258   19.4406 C   0  0  0  0  0  0  0  0  0  0  0  0
  -33.4500  -25.7524   20.3286 C   0  0  0  0  0  0  0  0  0  0  0  0
  -29.9346  -24.7223   14.1084 C   0  0  0  0  0  0  0  0  0  0  0  0
  -29.6132  -12.3602   18.2868 C   0  0  0  0  0  0  0  0  0  0  0  0
  -30.6817  -23.8034   15.0697 C   0  0  0  0  0  0  0  0  0  0  0  0
  -28.1737  -12.0672   18.7159 C   0  0  0  0  0  0  0  0  0  0  0  0
  -30.5281  -12.5880   19.4887 C   0  0  0  0  0  0  0  0  0  0  0  0
  -28.6207  -13.3095   20.8709 C   0  0  0  0  0  0  0  0  0  0  0  0
  -30.0844  -23.8776   16.4802 C   0  0  1  0  0  0  0  0  0  0  0  0
  -31.9710  -26.5242   18.4473 C   0  0  1  0  0  0  0  0  0  0  0  0
  -27.6480  -13.1372   19.6928 C   0  0  2  0  0  0  0  0  0  0  0  0
  -38.6841  -29.7089   20.6371 C   0  0  0  0  0  0  0  0  0  0  0  0
  -36.0181  -24.4556   17.6096 C   0  0  0  0  0  0  0  0  0  0  0  0
  -38.0230  -25.5553   18.6290 C   0  0  0  0  0  0  0  0  0  0  0  0
  -36.9079  -26.5869   16.6504 C   0  0  0  0  0  0  0  0  0  0  0  0
  -33.8994  -19.2605   25.2850 C   0  0  0  0  0  0  0  0  0  0  0  0
  -35.2205  -30.5848   21.9457 C   0  0  0  0  0  0  0  0  0  0  0  0
  -30.4344  -22.4185   25.7806 C   0  0  0  0  0  0  0  0  0  0  0  0
  -31.6505  -20.1602   25.9024 C   0  0  0  0  0  0  0  0  0  0  0  0
  -30.0464  -23.5838   24.8833 C   0  0  0  0  0  0  0  0  0  1  0  0
  -35.7644  -26.6754   18.9035 C   0  0  1  0  0  0  0  0  0  0  0  0
  -37.1642  -29.7547   20.6146 C   0  0  2  0  0  0  0  0  0  0  0  0
  -36.6546  -25.8145   17.9633 C   0  0  0  0  0  0  0  0  0  0  0  0
  -25.8618  -11.5440   20.2865 N   0  0  0  0  0  0  0  0  0  0  0  0
  -26.2379  -12.8279   20.1598 N   0  0  0  0  0  0  0  0  0  0  0  0
  -33.3025  -26.4756   19.0547 N   0  0  0  0  0  0  0  0  0  0  0  0
  -29.9685  -13.6174   20.3674 N   0  0  0  0  0  0  0  0  0  0  0  0
  -25.4701  -15.0546   20.4107 N   0  0  0  0  0  0  0  0  0  0  0  0
  -21.8867  -12.5766   21.6000 N   0  0  0  0  0  0  0  0  0  0  0  0
  -30.0781  -15.6952   21.4777 N   0  0  0  0  0  0  0  0  0  0  0  0
  -30.5215  -25.0831   17.1513 N   0  0  0  0  0  0  0  0  0  0  0  0
  -36.3300  -27.9791   19.2335 N   0  0  0  0  0  0  0  0  0  0  0  0
  -32.4435  -19.2442   25.1221 N   0  0  3  0  0  0  0  0  0  0  0  0
  -36.6966  -30.4485   21.8479 N   0  3  0  0  0  0  0  0  0  0  0  0
  -22.6610  -14.7172   21.3228 O   0  0  0  0  0  0  0  0  0  0  0  0
  -32.5587  -24.2911   17.9544 O   0  0  0  0  0  0  0  0  0  0  0  0
  -31.6204  -21.4896   23.8927 O   0  0  0  0  0  0  0  0  0  0  0  0
  -34.3092  -27.5517   17.2479 O   0  0  0  0  0  0  0  0  0  0  0  0
  -36.3464  -27.6747   21.5322 O   0  0  0  0  0  0  0  0  0  0  0  0
  -31.8551  -14.9417   20.1908 O   0  0  0  0  0  0  0  0  0  0  0  0
  -21.6168   -7.0131   21.7009 O   0  0  0  0  0  0  0  0  0  0  0  0
  -31.2263  -24.2351   24.4140 O   0  0  0  0  0  0  0  0  0  1  0  0
  -18.6259   -6.8468   26.3303 F   0  0  0  0  0  0  0  0  0  0  0  0
  -28.5444  -17.4492   23.0080 F   0  0  0  0  0  0  0  0  0  0  0  0
  -33.9828  -17.4982   23.6027 F   0  0  0  0  0  0  0  0  0  0  0  0
  -22.0684   -5.0673   23.6122 F   0  0  0  0  0  0  0  0  0  0  0  0
  1  2  1  0  0  0  0
  1  5  2  0  0  0  0
  2  6  2  0  0  0  0
  3  8  2  0  0  0  0
  3 17  1  0  0  0  0
  4  9  1  0  0  0  0
  4 17  2  0  0  0  0
  5 19  1  0  0  0  0
  6 21  1  0  0  0  0
  7 10  2  0  0  0  0
  7 20  1  0  0  0  0
  8 25  1  0  0  0  0
  9 25  2  0  0  0  0
 10 26  1  0  0  0  0
 11 12  2  0  0  0  0
 11 27  1  0  0  0  0
 12 28  1  0  0  0  0
 13 22  1  0  0  0  0
 13 26  2  0  0  0  0
 14 23  2  0  0  0  0
 14 30  1  0  0  0  0
 15 24  1  0  0  0  0
 15 29  2  0  0  0  0
 16 28  2  0  0  0  0
 16 31  1  0  0  0  0
 17 32  1  0  0  0  0
 18 32  1  0  0  0  0
 18 33  2  0  0  0  0
 18 34  1  0  0  0  0
 19 21  2  0  0  0  0
 19 40  1  0  0  0  0
 20 22  2  0  0  0  0
 20 41  1  0  0  0  0
 21 49  1  0  0  0  0
 22 42  1  0  0  0  0
 23 29  1  0  0  0  0
 23 70  1  0  0  0  0
 24 30  2  0  0  0  0
 24 73  1  0  0  0  0
 25 81  1  0  0  0  0
 26 82  1  0  0  0  0
 27 31  2  0  0  0  0
 27 81  1  0  0  0  0
 28 83  1  0  0  0  0
 29 84  1  0  0  0  0
 30 85  1  0  0  0  0
 31 86  1  0  0  0  0
 32 64  2  0  0  0  0
 33 65  1  0  0  0  0
 33 68  1  0  0  0  0
 34 69  1  0  0  0  0
 34 75  2  0  0  0  0
 35 50  1  0  0  0  0
 35 71  1  0  0  0  0
 35 76  2  0  0  0  0
 36 58  1  0  0  0  0
 36 59  1  0  0  0  0
 36 77  2  0  0  0  0
 37 61  1  0  0  0  0
 37 66  1  0  0  0  0
 37 78  2  0  0  0  0
 38 62  1  0  0  0  0
 38 72  1  0  0  0  0
 38 79  2  0  0  0  0
 39 67  1  0  0  0  0
 39 70  1  0  0  0  0
 39 80  2  0  0  0  0
 40 43  1  0  0  0  0
 41 50  1  0  0  0  0
 42 66  1  0  0  0  0
 43 45  1  0  0  0  0
 44 46  1  0  0  0  0
 44 47  1  0  0  0  0
 45 49  1  0  0  0  0
 46 51  1  0  0  0  0
 47 67  1  0  0  0  0
 48 51  1  0  0  0  0
 48 67  1  0  0  0  0
 49 71  1  0  0  0  0
 50 66  1  0  0  0  0
 51 65  1  0  0  0  0
 52 62  1  0  0  0  0
 53 63  1  0  0  0  0
 54 63  1  0  0  0  0
 55 63  1  0  0  0  0
 56 73  1  0  0  0  0
 57 74  1  0  0  0  0
 58 60  1  0  0  0  0
 59 73  1  0  0  0  0
 60 82  1  0  0  0  0
 61 63  1  0  0  0  0
 61 72  1  0  0  0  0
 62 74  1  0  0  0  0
 64 65  1  0  0  0  0
M  CHG  1  74   1
M  ISO  4  39 100  60 101  70 100  82 101
M  END
> <Batch ID>
0173

> <Smiles>
CNC(C)C(=O)NC(C(=O)N1Cc2cc([101O:1][101CH2:1]CC(=O)CN(C)c3cc(F)c([100NH:0][100C:0](=O)N4CCCC(n5nc(-c6ccc(Oc7ccc(F)cc7F)cc6)c(C(N)=O)c5N)C4)cc3F)ccc2CC1C(=O)NC1CCCc2ccccc21)C(C)(C)C

> <Shape>
0.209

> <Color>
0.196

> <Negative vol penalty>
0.000

$$$$

  -OEChem-04052304293D

 89 97  0     1  0  0  0  0  0999 V2000
  -19.9679  -24.7018   36.2976 C   0  0  0  0  0  0  0  0  0  0  0  0
  -20.5787  -24.5242   35.0604 C   0  0  0  0  0  0  0  0  0  0  0  0
  -23.0748   -9.8677   19.9422 C   0  0  0  0  0  0  0  0  0  0  0  0
  -23.8387   -9.8750   22.2342 C   0  0  0  0  0  0  0  0  0  0  0  0
  -20.5488  -25.5423   37.2463 C   0  0  0  0  0  0  0  0  0  0  0  0
  -21.7704  -25.1879   34.7707 C   0  0  0  0  0  0  0  0  0  0  0  0
  -25.1864  -22.1721   32.5615 C   0  0  0  0  0  0  0  0  0  0  0  0
  -29.7374  -17.4150   24.0818 C   0  0  0  0  0  0  0  0  0  0  0  0
  -28.9317  -18.2097   24.8971 C   0  0  0  0  0  0  0  0  0  0  0  0
  -22.3325   -8.7138   20.1932 C   0  0  0  0  0  0  0  0  0  0  0  0
  -23.0963   -8.7211   22.4853 C   0  0  0  0  0  0  0  0  0  0  0  0
  -25.0149  -21.9029   31.2043 C   0  0  0  0  0  0  0  0  0  0  0  0
  -19.8700   -7.9201   23.0933 C   0  0  0  0  0  0  0  0  0  0  0  0
  -19.1151   -7.8792   24.2655 C   0  0  0  0  0  0  0  0  0  0  0  0
  -26.6816  -23.5631   30.6705 C   0  0  0  0  0  0  0  0  0  0  0  0
  -28.5301  -19.7051   23.0424 C   0  0  0  0  0  0  0  0  0  0  0  0
  -20.3597   -5.9429   24.9995 C   0  0  0  0  0  0  0  0  0  0  0  0
  -23.8280  -10.4483   20.9627 C   0  0  0  0  0  0  0  0  0  0  0  0
  -24.1672  -12.9738   20.8424 C   0  0  0  0  0  0  0  0  0  0  0  0
  -21.7532  -26.2091   36.9717 C   0  0  0  0  0  0  0  0  0  0  0  0
  -26.1005  -23.1482   32.9835 C   0  0  0  0  0  0  0  0  0  0  0  0
  -22.3673  -26.0392   35.7161 C   0  0  0  0  0  0  0  0  0  0  0  0
  -26.8647  -23.8410   32.0337 C   0  0  0  0  0  0  0  0  0  0  0  0
  -29.9395  -17.7653   22.7468 C   0  0  0  0  0  0  0  0  0  0  0  0
  -29.3359  -18.9103   22.2271 C   0  0  0  0  0  0  0  0  0  0  0  0
  -28.3281  -19.3548   24.3774 C   0  0  0  0  0  0  0  0  0  0  0  0
  -22.3433   -8.1405   21.4648 C   0  0  0  0  0  0  0  0  0  0  0  0
  -25.7604  -22.6004   30.2585 C   0  0  0  0  0  0  0  0  0  0  0  0
  -20.8697   -6.9723   22.8741 C   0  0  0  0  0  0  0  0  0  0  0  0
  -19.3600   -6.8907   25.2186 C   0  0  0  0  0  0  0  0  0  0  0  0
  -21.1146   -5.9837   23.8272 C   0  0  0  0  0  0  0  0  0  0  0  0
  -24.5955  -11.6400   20.7038 C   0  0  0  0  0  0  0  0  0  0  0  0
  -25.2579  -13.7244   20.4774 C   0  0  0  0  0  0  0  0  0  0  0  0
  -26.3771  -21.3749   28.3641 C   0  0  0  0  0  0  0  0  0  1  0  0
  -22.8969  -13.4883   21.2637 C   0  0  0  0  0  0  0  0  0  0  0  0
  -26.2985  -21.0376   27.0712 C   0  0  0  0  0  0  0  0  0  0  0  0
  -27.2018  -19.9634   26.5434 C   0  0  0  0  0  0  0  0  0  0  0  0
  -25.8780  -25.8917   34.5733 C   0  0  0  0  0  0  0  0  0  0  0  0
  -29.1172  -25.7823   34.4392 C   0  0  0  0  0  0  0  0  0  0  0  0
  -31.9141  -24.6206   32.8662 C   0  0  0  0  0  0  0  0  0  0  0  0
  -30.7410  -14.7487   20.6564 C   0  0  0  0  0  0  0  0  0  0  0  0
  -22.3185  -27.1443   38.0112 C   0  0  0  0  0  0  0  0  0  0  0  0
  -26.2930  -23.4080   34.4525 C   0  0  0  0  0  0  0  0  0  0  0  0
  -27.8738  -24.8843   32.4359 C   0  0  0  0  0  0  0  0  0  0  0  0
  -23.7779  -27.5182   37.7649 C   0  0  0  0  0  0  0  0  0  0  0  0
  -29.6016  -12.3635   18.2712 C   0  0  0  0  0  0  0  0  0  0  0  0
  -23.9920  -27.8996   36.3035 C   0  0  0  0  0  0  0  0  0  0  0  0
  -28.1652  -12.0683   18.7066 C   0  0  0  0  0  0  0  0  0  0  0  0
  -30.5206  -12.5850   19.4706 C   0  0  0  0  0  0  0  0  0  0  0  0
  -28.6205  -13.3140   20.8606 C   0  0  0  0  0  0  0  0  0  0  0  0
  -23.6734  -26.7224   35.3738 C   0  0  1  0  0  0  0  0  0  0  0  0
  -26.8804  -24.7855   34.7437 C   0  0  1  0  0  0  0  0  0  0  0  0
  -27.6445  -13.1387   19.6846 C   0  0  2  0  0  0  0  0  0  0  0  0
  -34.4192  -24.7323   32.9642 C   0  0  0  0  0  0  0  0  0  0  0  0
  -30.0142  -21.7450   21.1940 C   0  0  0  0  0  0  0  0  0  0  0  0
  -31.9318  -20.1500   21.1485 C   0  0  0  0  0  0  0  0  0  0  0  0
  -30.7235  -20.7282   19.0291 C   0  0  0  0  0  0  0  0  0  0  0  0
  -29.0370  -28.5834   33.2321 C   0  0  0  0  0  0  0  0  0  0  0  0
  -31.4053  -28.2555   32.4893 C   0  0  0  0  0  0  0  0  0  0  0  0
  -30.8471  -28.2265   34.9204 C   0  0  0  0  0  0  0  0  0  0  0  0
  -32.1431  -21.7021   33.3006 C   0  0  0  0  0  0  0  0  0  0  0  0
  -29.5363  -19.3039   20.8004 C   0  0  0  0  0  0  0  0  0  0  0  0
  -30.8069  -16.8992   21.8935 C   0  0  0  0  0  0  0  0  0  0  0  0
  -30.1642  -26.2727   33.4684 C   0  0  1  0  0  0  0  0  0  0  0  0
  -33.1772  -23.9733   33.4048 C   0  0  2  0  0  0  0  0  0  0  0  0
  -30.5553  -20.4588   20.5345 C   0  0  0  0  0  0  0  0  0  0  0  0
  -30.3431  -27.8163   33.5196 C   0  0  0  0  0  0  0  0  0  0  0  0
  -25.8597  -11.5454   20.2833 N   0  0  0  0  0  0  0  0  0  0  0  0
  -26.2351  -12.8294   20.1545 N   0  0  0  0  0  0  0  0  0  0  0  0
  -28.0212  -25.1068   33.8838 N   0  0  0  0  0  0  0  0  0  0  0  0
  -29.9706  -13.6129   20.3577 N   0  0  0  0  0  0  0  0  0  0  0  0
  -25.4669  -15.0561   20.4042 N   0  0  0  0  0  0  0  0  0  0  0  0
  -21.8865  -12.5781   21.6025 N   0  0  0  0  0  0  0  0  0  0  0  0
  -27.5086  -20.1608   25.2041 N   0  0  0  0  0  0  0  0  0  0  0  0
  -24.7608  -25.7673   35.3769 N   0  0  0  0  0  0  0  0  0  0  0  0
  -31.3787  -25.5203   33.7635 N   0  0  0  0  0  0  0  0  0  0  0  0
  -30.1424  -15.6768   21.4996 N   0  0  0  0  0  0  0  0  0  0  0  0
  -33.2875  -22.5689   32.9184 N   0  3  0  0  0  0  0  0  0  0  0  0
  -22.6596  -14.7187   21.3216 O   0  0  0  0  0  0  0  0  0  0  0  0
  -27.5841  -19.0500   27.2669 O   0  0  0  0  0  0  0  0  0  0  0  0
  -26.1022  -26.7923   33.7730 O   0  0  0  0  0  0  0  0  0  0  0  0
  -29.2697  -25.9847   35.6464 O   0  0  0  0  0  0  0  0  0  0  0  0
  -31.4510  -24.3574   31.7586 O   0  0  0  0  0  0  0  0  0  0  0  0
  -31.8760  -14.9254   20.2008 O   0  0  0  0  0  0  0  0  0  0  0  0
  -25.4146  -21.6402   26.1994 O   0  0  0  0  0  0  0  0  0  0  0  0
  -21.6188   -7.0147   21.7102 O   0  0  0  0  0  0  0  0  0  0  0  0
  -25.5945  -22.3400   28.9331 O   0  0  0  0  0  0  0  0  0  1  0  0
  -18.6360   -6.8525   26.3450 F   0  0  0  0  0  0  0  0  0  0  0  0
  -22.0744   -5.0712   23.6228 F   0  0  0  0  0  0  0  0  0  0  0  0
  1  2  1  0  0  0  0
  1  5  2  0  0  0  0
  2  6  2  0  0  0  0
  3 10  2  0  0  0  0
  3 18  1  0  0  0  0
  4 11  1  0  0  0  0
  4 18  2  0  0  0  0
  5 20  1  0  0  0  0
  6 22  1  0  0  0  0
  7 12  2  0  0  0  0
  7 21  1  0  0  0  0
  8  9  2  0  0  0  0
  8 24  1  0  0  0  0
  9 26  1  0  0  0  0
 10 27  1  0  0  0  0
 11 27  2  0  0  0  0
 12 28  1  0  0  0  0
 13 14  2  0  0  0  0
 13 29  1  0  0  0  0
 14 30  1  0  0  0  0
 15 23  1  0  0  0  0
 15 28  2  0  0  0  0
 16 25  1  0  0  0  0
 16 26  2  0  0  0  0
 17 30  2  0  0  0  0
 17 31  1  0  0  0  0
 18 32  1  0  0  0  0
 19 32  1  0  0  0  0
 19 33  2  0  0  0  0
 19 35  1  0  0  0  0
 20 22  2  0  0  0  0
 20 42  1  0  0  0  0
 21 23  2  0  0  0  0
 21 43  1  0  0  0  0
 22 51  1  0  0  0  0
 23 44  1  0  0  0  0
 24 25  2  0  0  0  0
 24 63  1  0  0  0  0
 25 62  1  0  0  0  0
 26 74  1  0  0  0  0
 27 86  1  0  0  0  0
 28 87  1  0  0  0  0
 29 31  2  0  0  0  0
 29 86  1  0  0  0  0
 30 88  1  0  0  0  0
 31 89  1  0  0  0  0
 32 68  2  0  0  0  0
 33 69  1  0  0  0  0
 33 72  1  0  0  0  0
 34 36  2  0  0  0  0
 34 87  1  0  0  0  0
 35 73  1  0  0  0  0
 35 79  2  0  0  0  0
 36 37  1  0  0  0  0
 36 85  1  0  0  0  0
 37 74  1  0  0  0  0
 37 80  2  0  0  0  0
 38 52  1  0  0  0  0
 38 75  1  0  0  0  0
 38 81  2  0  0  0  0
 39 64  1  0  0  0  0
 39 70  1  0  0  0  0
 39 82  2  0  0  0  0
 40 65  1  0  0  0  0
 40 76  1  0  0  0  0
 40 83  2  0  0  0  0
 41 71  1  0  0  0  0
 41 77  1  0  0  0  0
 41 84  2  0  0  0  0
 42 45  1  0  0  0  0
 43 52  1  0  0  0  0
 44 70  1  0  0  0  0
 45 47  1  0  0  0  0
 46 48  1  0  0  0  0
 46 49  1  0  0  0  0
 47 51  1  0  0  0  0
 48 53  1  0  0  0  0
 49 71  1  0  0  0  0
 50 53  1  0  0  0  0
 50 71  1  0  0  0  0
 51 75  1  0  0  0  0
 52 70  1  0  0  0  0
 53 69  1  0  0  0  0
 54 65  1  0  0  0  0
 55 66  1  0  0  0  0
 56 66  1  0  0  0  0
 57 66  1  0  0  0  0
 58 67  1  0  0  0  0
 59 67  1  0  0  0  0
 60 67  1  0  0  0  0
 61 78  1  0  0  0  0
 62 66  1  0  0  0  0
 63 77  1  0  0  0  0
 64 67  1  0  0  0  0
 64 76  1  0  0  0  0
 65 78  1  0  0  0  0
 68 69  1  0  0  0  0
M  CHG  1  78   1
M  ISO  4  34 101  41 100  77 100  87 101
M  END
> <Batch ID>
0173

> <Smiles>
CNC(C)C(=O)NC(C(=O)N1Cc2cc([101O:1][101CH2:1]C(=O)C(=O)Nc3ccc(C[100NH:0][100C:0](=O)N4CCCC(n5nc(-c6ccc(Oc7ccc(F)cc7F)cc6)c(C(N)=O)c5N)C4)c(CC(C)(C)C)c3)ccc2CC1C(=O)NC1CCCc2ccccc21)C(C)(C)C

> <Shape>
0.179

> <Color>
0.184

> <Negative vol penalty>
0.000

$$$$

  -OEChem-04052304293D

 86 94  0     1  0  0  0  0  0999 V2000
  -27.1494  -30.4997   28.7939 C   0  0  0  0  0  0  0  0  0  0  0  0
  -27.4665  -29.7327   27.6774 C   0  0  0  0  0  0  0  0  0  0  0  0
  -22.6363  -11.4525   19.1699 C   0  0  0  0  0  0  0  0  0  0  0  0
  -22.8518  -10.6113   21.4245 C   0  0  0  0  0  0  0  0  0  0  0  0
  -25.8398  -30.9367   28.9888 C   0  0  0  0  0  0  0  0  0  0  0  0
  -26.4740  -29.4012   26.7558 C   0  0  0  0  0  0  0  0  0  0  0  0
  -27.1241  -28.8216   20.6939 C   0  0  0  0  0  0  0  0  0  0  0  0
  -21.5368  -10.6193   18.9641 C   0  0  0  0  0  0  0  0  0  0  0  0
  -21.7522   -9.7781   21.2187 C   0  0  0  0  0  0  0  0  0  0  0  0
  -27.2946  -27.7092   19.8709 C   0  0  0  0  0  0  0  0  0  0  0  0
  -18.3854  -10.0660   21.1703 C   0  0  0  0  0  0  0  0  0  0  0  0
  -17.4212  -10.0076   22.1765 C   0  0  0  0  0  0  0  0  0  0  0  0
  -28.7996  -17.8985   17.8821 C   0  0  0  0  0  0  0  0  0  0  0  0
  -24.9219  -27.6742   19.4368 C   0  0  0  0  0  0  0  0  0  0  0  0
  -29.7951  -20.3337   18.8105 C   0  0  0  0  0  0  0  0  0  0  0  0
  -17.8143   -7.6358   22.4155 C   0  0  0  0  0  0  0  0  0  0  0  0
  -23.2939  -11.4485   20.4001 C   0  0  0  0  0  0  0  0  0  0  0  0
  -30.0712  -17.9604   18.4518 C   0  0  0  0  0  0  0  0  0  0  0  0
  -24.4176  -13.6270   21.1065 C   0  0  0  0  0  0  0  0  0  0  0  0
  -24.8327  -30.6185   28.0641 C   0  0  0  0  0  0  0  0  0  0  0  0
  -25.8476  -29.3629   20.9035 C   0  0  0  0  0  0  0  0  0  0  0  0
  -25.1494  -29.8332   26.9393 C   0  0  0  0  0  0  0  0  0  0  0  0
  -24.7383  -28.7951   20.2608 C   0  0  0  0  0  0  0  0  0  0  0  0
  -28.5234  -20.2717   18.2407 C   0  0  0  0  0  0  0  0  0  0  0  0
  -21.0947   -9.7821   19.9885 C   0  0  0  0  0  0  0  0  0  0  0  0
  -26.1931  -27.1336   19.2445 C   0  0  0  0  0  0  0  0  0  0  0  0
  -19.0641   -8.9093   20.7866 C   0  0  0  0  0  0  0  0  0  0  0  0
  -17.1357   -8.7925   22.7991 C   0  0  0  0  0  0  0  0  0  0  0  0
  -28.0256  -19.0542   17.7765 C   0  0  0  0  0  0  0  0  0  0  0  0
  -30.5690  -19.1780   18.9160 C   0  0  0  0  0  0  0  0  0  0  0  0
  -18.7785   -7.6942   21.4092 C   0  0  0  0  0  0  0  0  0  0  0  0
  -24.4301  -12.3085   20.6131 C   0  0  0  0  0  0  0  0  0  0  0  0
  -25.7392  -14.0008   21.1205 C   0  0  0  0  0  0  0  0  0  0  0  0
  -30.8923  -16.7273   18.5620 C   0  0  0  0  0  0  0  0  0  0  0  0
  -23.3105  -14.4409   21.5155 C   0  0  0  0  0  0  0  0  0  0  0  0
  -23.9722  -29.7701   23.4374 C   0  0  0  0  0  0  0  0  0  0  0  0
  -27.1107  -23.7474   18.3200 C   0  0  0  0  0  0  0  0  0  0  0  0
  -22.1081  -31.3642   21.3146 C   0  0  0  0  0  0  0  0  0  0  0  0
  -21.1896  -31.8584   18.0652 C   0  0  0  0  0  0  0  0  0  0  0  0
  -30.7550  -14.2663   18.7819 C   0  0  0  0  0  0  0  0  0  0  0  0
  -23.4219  -31.0737   28.3421 C   0  0  0  0  0  0  0  0  0  0  0  0
  -25.6841  -30.5794   21.7729 C   0  0  0  0  0  0  0  0  0  0  0  0
  -23.3495  -29.3507   20.4370 C   0  0  0  0  0  0  0  0  0  0  0  0
  -22.5053  -30.9948   27.1239 C   0  0  0  0  0  0  0  0  0  0  0  0
  -29.9478  -11.2613   20.4598 C   0  0  0  0  0  0  0  0  0  0  0  0
  -22.6714  -29.6535   26.4168 C   0  0  0  0  0  0  0  0  0  0  0  0
  -28.4397  -11.3749   20.6987 C   0  0  0  0  0  0  0  0  0  0  0  0
  -30.3532  -11.8415   19.1056 C   0  0  0  0  0  0  0  0  0  0  0  0
  -28.3863  -13.3211   19.0882 C   0  0  0  0  0  0  0  0  0  0  0  0
  -24.1055  -29.4739   25.9043 C   0  0  1  0  0  0  0  0  0  0  0  0
  -24.2700  -30.7342   22.3241 C   0  0  1  0  0  0  0  0  0  0  0  0
  -27.9374  -12.8144   20.4684 C   0  0  1  0  0  0  0  0  0  0  0  0
  -19.6137  -33.1997   16.6458 C   0  0  0  0  0  0  0  0  0  0  0  0
  -19.8012  -29.5640   22.1790 C   0  0  0  0  0  0  0  0  0  0  0  0
  -18.5658  -30.2766   20.1213 C   0  0  0  0  0  0  0  0  0  0  0  0
  -19.1841  -31.9651   21.8503 C   0  0  0  0  0  0  0  0  0  0  0  0
  -23.4177  -33.1425   16.6004 C   0  0  0  0  0  0  0  0  0  0  0  0
  -28.1893  -22.7197   18.5893 C   0  0  0  0  0  0  0  0  0  0  0  0
  -27.4327  -25.1641   18.7544 C   0  0  0  0  0  0  0  0  0  1  0  0
  -20.9883  -30.9818   20.3772 C   0  0  1  0  0  0  0  0  0  0  0  0
  -21.0065  -33.1271   17.2520 C   0  0  2  0  0  0  0  0  0  0  0  0
  -19.6606  -30.6850   21.1300 C   0  0  0  0  0  0  0  0  0  0  0  0
  -25.6619  -11.8741   20.3338 N   0  0  0  0  0  0  0  0  0  0  0  0
  -26.4357  -12.9256   20.6527 N   0  0  0  0  0  0  0  0  0  0  0  0
  -23.2402  -30.5371   21.3018 N   0  0  0  0  0  0  0  0  0  0  0  0
  -29.8479  -13.2089   18.9701 N   0  0  0  0  0  0  0  0  0  0  0  0
  -26.3618  -15.1411   21.4873 N   0  0  0  0  0  0  0  0  0  0  0  0
  -22.0194  -13.9013   21.4368 N   0  0  0  0  0  0  0  0  0  0  0  0
  -27.7554  -21.4227   18.1369 N   0  0  0  0  0  0  0  0  0  0  0  0
  -30.1768  -15.5383   18.7066 N   0  0  0  0  0  0  0  0  0  0  0  0
  -24.3089  -30.2391   24.6929 N   0  0  0  0  0  0  0  0  0  0  0  0
  -20.8915  -32.0577   19.3966 N   0  0  0  0  0  0  0  0  0  0  0  0
  -22.0039  -33.1819   16.1460 N   0  3  0  0  0  0  0  0  0  0  0  0
  -32.1146  -16.8135   18.4823 O   0  0  0  0  0  0  0  0  0  0  0  0
  -23.4601  -15.6179   21.9229 O   0  0  0  0  0  0  0  0  0  0  0  0
  -23.4726  -28.6819   23.1769 O   0  0  0  0  0  0  0  0  0  0  0  0
  -26.0398  -23.4634   17.7849 O   0  0  0  0  0  0  0  0  0  0  0  0
  -21.9860  -32.3641   22.0266 O   0  0  0  0  0  0  0  0  0  0  0  0
  -21.5565  -30.7958   17.5683 O   0  0  0  0  0  0  0  0  0  0  0  0
  -31.9770  -14.0972   18.7241 O   0  0  0  0  0  0  0  0  0  0  0  0
  -20.0217   -8.9691   19.7881 O   0  0  0  0  0  0  0  0  0  0  0  0
  -26.3566  -26.0474   18.4412 O   0  0  0  0  0  0  0  0  0  1  0  0
  -16.2108   -8.7368   23.7664 F   0  0  0  0  0  0  0  0  0  0  0  0
  -26.8047  -18.9833   17.2272 F   0  0  0  0  0  0  0  0  0  0  0  0
  -31.7898  -19.2490   19.4655 F   0  0  0  0  0  0  0  0  0  0  0  0
  -19.4281   -6.5799   21.0457 F   0  0  0  0  0  0  0  0  0  0  0  0
  1  2  1  0  0  0  0
  1  5  2  0  0  0  0
  2  6  2  0  0  0  0
  3  8  2  0  0  0  0
  3 17  1  0  0  0  0
  4  9  1  0  0  0  0
  4 17  2  0  0  0  0
  5 20  1  0  0  0  0
  6 22  1  0  0  0  0
  7 10  2  0  0  0  0
  7 21  1  0  0  0  0
  8 25  1  0  0  0  0
  9 25  2  0  0  0  0
 10 26  1  0  0  0  0
 11 12  2  0  0  0  0
 11 27  1  0  0  0  0
 12 28  1  0  0  0  0
 13 18  2  0  0  0  0
 13 29  1  0  0  0  0
 14 23  1  0  0  0  0
 14 26  2  0  0  0  0
 15 24  1  0  0  0  0
 15 30  2  0  0  0  0
 16 28  2  0  0  0  0
 16 31  1  0  0  0  0
 17 32  1  0  0  0  0
 18 30  1  0  0  0  0
 18 34  1  0  0  0  0
 19 32  1  0  0  0  0
 19 33  2  0  0  0  0
 19 35  1  0  0  0  0
 20 22  2  0  0  0  0
 20 41  1  0  0  0  0
 21 23  2  0  0  0  0
 21 42  1  0  0  0  0
 22 50  1  0  0  0  0
 23 43  1  0  0  0  0
 24 29  2  0  0  0  0
 24 69  1  0  0  0  0
 25 81  1  0  0  0  0
 26 82  1  0  0  0  0
 27 31  2  0  0  0  0
 27 81  1  0  0  0  0
 28 83  1  0  0  0  0
 29 84  1  0  0  0  0
 30 85  1  0  0  0  0
 31 86  1  0  0  0  0
 32 63  2  0  0  0  0
 33 64  1  0  0  0  0
 33 67  1  0  0  0  0
 34 70  1  0  0  0  0
 34 74  2  0  0  0  0
 35 68  1  0  0  0  0
 35 75  2  0  0  0  0
 36 51  1  0  0  0  0
 36 71  1  0  0  0  0
 36 76  2  0  0  0  0
 37 58  1  0  0  0  0
 37 59  1  0  0  0  0
 37 77  2  0  0  0  0
 38 60  1  0  0  0  0
 38 65  1  0  0  0  0
 38 78  2  0  0  0  0
 39 61  1  0  0  0  0
 39 72  1  0  0  0  0
 39 79  2  0  0  0  0
 40 66  1  0  0  0  0
 40 70  1  0  0  0  0
 40 80  2  0  0  0  0
 41 44  1  0  0  0  0
 42 51  1  0  0  0  0
 43 65  1  0  0  0  0
 44 46  1  0  0  0  0
 45 47  1  0  0  0  0
 45 48  1  0  0  0  0
 46 50  1  0  0  0  0
 47 52  1  0  0  0  0
 48 66  1  0  0  0  0
 49 52  1  0  0  0  0
 49 66  1  0  0  0  0
 50 71  1  0  0  0  0
 51 65  1  0  0  0  0
 52 64  1  0  0  0  0
 53 61  1  0  0  0  0
 54 62  1  0  0  0  0
 55 62  1  0  0  0  0
 56 62  1  0  0  0  0
 57 73  1  0  0  0  0
 58 69  1  0  0  0  0
 59 82  1  0  0  0  0
 60 62  1  0  0  0  0
 60 72  1  0  0  0  0
 61 73  1  0  0  0  0
 63 64  1  0  0  0  0
M  CHG  1  73   1
M  ISO  4  40 100  59 101  70 100  82 101
M  END
> <Batch ID>
0173

> <Smiles>
CNC(C)C(=O)NC(C(=O)N1Cc2cc([101O:1][101CH2:1]C(=O)CNc3cc(F)c(C(=O)[100NH:0][100C:0](=O)N4CCCC(n5nc(-c6ccc(Oc7ccc(F)cc7F)cc6)c(C(N)=O)c5N)C4)cc3F)ccc2CC1C(=O)NC1CCCc2ccccc21)C(C)(C)C

> <Shape>
0.231

> <Color>
0.117

> <Negative vol penalty>
0.000

$$$$

  -OEChem-04052304293D

 85 93  0     1  0  0  0  0  0999 V2000
  -20.9937  -25.9747   16.8207 C   0  0  0  0  0  0  0  0  0  0  0  0
  -22.1878  -25.7428   17.4958 C   0  0  0  0  0  0  0  0  0  0  0  0
  -24.6126   -8.8078   21.4375 C   0  0  0  0  0  0  0  0  0  0  0  0
  -23.1488  -10.7069   21.1414 C   0  0  0  0  0  0  0  0  0  0  0  0
  -20.4578  -27.2611   16.7764 C   0  0  0  0  0  0  0  0  0  0  0  0
  -22.8473  -26.7974   18.1262 C   0  0  0  0  0  0  0  0  0  0  0  0
  -24.4729  -25.5771   22.7644 C   0  0  0  0  0  0  0  0  0  0  0  0
  -23.7508   -8.2946   22.4068 C   0  0  0  0  0  0  0  0  0  0  0  0
  -22.2869  -10.1937   22.1107 C   0  0  0  0  0  0  0  0  0  0  0  0
  -25.6334  -24.8093   22.8509 C   0  0  0  0  0  0  0  0  0  0  0  0
  -20.8166   -6.6166   22.4942 C   0  0  0  0  0  0  0  0  0  0  0  0
  -20.5058   -5.2583   22.4316 C   0  0  0  0  0  0  0  0  0  0  0  0
  -26.9079  -26.8005   23.3303 C   0  0  0  0  0  0  0  0  0  0  0  0
  -21.4408   -4.9428   24.6370 C   0  0  0  0  0  0  0  0  0  0  0  0
  -26.8498  -20.4291   18.9037 C   0  0  0  0  0  0  0  0  0  0  0  0
  -26.1599  -18.1483   19.2300 C   0  0  0  0  0  0  0  0  0  0  0  0
  -24.3116  -10.0139   20.8048 C   0  0  0  0  0  0  0  0  0  0  0  0
  -25.1649  -10.3006   18.4179 C   0  0  0  0  0  0  0  0  0  0  0  0
  -21.1060  -28.3302   17.4147 C   0  0  0  0  0  0  0  0  0  0  0  0
  -24.5231  -26.9662   22.9498 C   0  0  0  0  0  0  0  0  0  0  0  0
  -22.3202  -28.0995   18.0893 C   0  0  0  0  0  0  0  0  0  0  0  0
  -25.7462  -27.5834   23.2482 C   0  0  0  0  0  0  0  0  0  0  0  0
  -22.5879   -8.9876   22.7434 C   0  0  0  0  0  0  0  0  0  0  0  0
  -26.8516  -25.4213   23.1310 C   0  0  0  0  0  0  0  0  0  0  0  0
  -21.4395   -7.1381   23.6281 C   0  0  0  0  0  0  0  0  0  0  0  0
  -20.8179   -4.4214   23.5030 C   0  0  0  0  0  0  0  0  0  0  0  0
  -21.7515   -6.3012   24.6995 C   0  0  0  0  0  0  0  0  0  0  0  0
  -25.8382  -19.4787   18.9851 C   0  0  0  0  0  0  0  0  0  0  0  0
  -25.2017  -10.5448   19.8038 C   0  0  0  0  0  0  0  0  0  0  0  0
  -28.1568  -20.0013   19.0732 C   0  0  0  0  0  0  0  0  0  0  0  0
  -27.4977  -17.8226   19.3847 C   0  0  0  0  0  0  0  0  0  0  0  0
  -26.2129  -11.0307   17.9127 C   0  0  0  0  0  0  0  0  0  0  0  0
  -24.2639   -9.4867   17.6554 C   0  0  0  0  0  0  0  0  0  0  0  0
  -29.4793  -23.1905   22.0638 C   0  0  0  0  0  0  0  0  0  0  0  0
  -29.7242  -21.9697   21.2262 C   0  0  0  0  0  0  0  0  0  0  0  0
  -23.8688  -29.4958   21.1397 C   0  0  0  0  0  0  0  0  0  0  0  0
  -24.4439  -31.1224   23.8867 C   0  0  0  0  0  0  0  0  0  0  0  0
  -25.9677  -31.2063   26.9392 C   0  0  0  0  0  0  0  0  0  0  0  0
  -29.0817  -15.9128   19.8205 C   0  0  0  0  0  0  0  0  0  0  0  0
  -20.5128  -29.7120   17.2994 C   0  0  0  0  0  0  0  0  0  0  0  0
  -23.2580  -27.7768   22.8797 C   0  0  0  0  0  0  0  0  0  0  0  0
  -25.8504  -29.0686   23.4757 C   0  0  0  0  0  0  0  0  0  0  0  0
  -21.0799  -30.7048   18.3108 C   0  0  0  0  0  0  0  0  0  0  0  0
  -30.5219  -12.7311   19.1274 C   0  0  0  0  0  0  0  0  0  0  0  0
  -22.6016  -30.6084   18.3579 C   0  0  0  0  0  0  0  0  0  0  0  0
  -29.3170  -11.7882   19.0901 C   0  0  0  0  0  0  0  0  0  0  0  0
  -30.3610  -13.8150   20.1919 C   0  0  0  0  0  0  0  0  0  0  0  0
  -27.9064  -13.6392   20.0755 C   0  0  0  0  0  0  0  0  0  0  0  0
  -23.0523  -29.2130   18.8064 C   0  0  1  0  0  0  0  0  0  0  0  0
  -23.5089  -29.2510   22.5778 C   0  0  1  0  0  0  0  0  0  0  0  0
  -27.9934  -12.5694   18.9748 C   0  0  2  0  0  0  0  0  0  0  0  0
  -26.2857  -32.6842   28.9422 C   0  0  0  0  0  0  0  0  0  0  0  0
  -26.4492  -32.8076   22.3218 C   0  0  0  0  0  0  0  0  0  0  0  0
  -27.3951  -33.5844   24.5059 C   0  0  0  0  0  0  0  0  0  0  0  0
  -25.0251  -34.0988   23.9216 C   0  0  0  0  0  0  0  0  0  0  0  0
  -24.6714  -29.2450   28.7369 C   0  0  0  0  0  0  0  0  0  0  0  0
  -29.2751  -20.9997   18.9913 C   0  0  0  0  0  0  0  0  0  0  0  0
  -28.0463  -23.4927   22.4174 C   0  0  0  0  0  0  0  0  0  1  0  0
  -25.6649  -31.7306   24.5334 C   0  0  1  0  0  0  0  0  0  0  0  0
  -25.4471  -31.5815   28.3149 C   0  0  2  0  0  0  0  0  0  0  0  0
  -26.1322  -33.0276   23.8145 C   0  0  0  0  0  0  0  0  0  0  0  0
  -26.1946  -11.3657   20.1566 N   0  0  0  0  0  0  0  0  0  0  0  0
  -28.5080  -18.7180   19.3124 N   0  0  0  0  0  0  0  0  0  0  0  0
  -26.7914  -11.6436   18.9850 N   0  0  0  0  0  0  0  0  0  0  0  0
  -24.5866  -29.8189   23.3903 N   0  0  0  0  0  0  0  0  0  0  0  0
  -29.0868  -14.5157   20.0174 N   0  0  0  0  0  0  0  0  0  0  0  0
  -26.6868  -11.2016   16.6602 N   0  0  0  0  0  0  0  0  0  0  0  0
  -23.2436   -8.8049   18.3324 N   0  0  0  0  0  0  0  0  0  0  0  0
  -27.8146  -16.4641   19.6337 N   0  0  0  0  0  0  0  0  0  0  0  0
  -29.1421  -22.0427   19.9816 N   0  0  0  0  0  0  0  0  0  0  0  0
  -22.9097  -29.0722   20.2397 N   0  0  0  0  0  0  0  0  0  0  0  0
  -25.3318  -31.9149   25.9417 N   0  0  0  0  0  0  0  0  0  0  0  0
  -25.4748  -30.3976   29.2197 N   0  3  0  0  0  0  0  0  0  0  0  0
  -24.3708   -9.3545   16.4125 O   0  0  0  0  0  0  0  0  0  0  0  0
  -30.4538  -23.8377   22.4165 O   0  0  0  0  0  0  0  0  0  0  0  0
  -30.4129  -21.0814   21.7028 O   0  0  0  0  0  0  0  0  0  0  0  0
  -24.9370  -30.0309   20.8669 O   0  0  0  0  0  0  0  0  0  0  0  0
  -23.3998  -31.7770   23.8306 O   0  0  0  0  0  0  0  0  0  0  0  0
  -26.8528  -30.3711   26.7668 O   0  0  0  0  0  0  0  0  0  0  0  0
  -30.1268  -16.5677   19.7906 O   0  0  0  0  0  0  0  0  0  0  0  0
  -21.7466   -8.4870   23.6890 O   0  0  0  0  0  0  0  0  0  0  0  0
  -27.9859  -24.6743   23.2153 O   0  0  0  0  0  0  0  0  0  1  0  0
  -20.5180   -3.1173   23.4434 F   0  0  0  0  0  0  0  0  0  0  0  0
  -22.3489   -6.7966   25.7920 F   0  0  0  0  0  0  0  0  0  0  0  0
  -24.5593  -19.8439   18.8288 F   0  0  0  0  0  0  0  0  0  0  0  0
  1  2  1  0  0  0  0
  1  5  2  0  0  0  0
  2  6  2  0  0  0  0
  3  8  2  0  0  0  0
  3 17  1  0  0  0  0
  4  9  1  0  0  0  0
  4 17  2  0  0  0  0
  5 19  1  0  0  0  0
  6 21  1  0  0  0  0
  7 10  2  0  0  0  0
  7 20  1  0  0  0  0
  8 23  1  0  0  0  0
  9 23  2  0  0  0  0
 10 24  1  0  0  0  0
 11 12  2  0  0  0  0
 11 25  1  0  0  0  0
 12 26  1  0  0  0  0
 13 22  1  0  0  0  0
 13 24  2  0  0  0  0
 14 26  2  0  0  0  0
 14 27  1  0  0  0  0
 15 28  2  0  0  0  0
 15 30  1  0  0  0  0
 16 28  1  0  0  0  0
 16 31  2  0  0  0  0
 17 29  1  0  0  0  0
 18 29  1  0  0  0  0
 18 32  2  0  0  0  0
 18 33  1  0  0  0  0
 19 21  2  0  0  0  0
 19 40  1  0  0  0  0
 20 22  2  0  0  0  0
 20 41  1  0  0  0  0
 21 49  1  0  0  0  0
 22 42  1  0  0  0  0
 23 81  1  0  0  0  0
 24 82  1  0  0  0  0
 25 27  2  0  0  0  0
 25 81  1  0  0  0  0
 26 83  1  0  0  0  0
 27 84  1  0  0  0  0
 28 85  1  0  0  0  0
 29 62  2  0  0  0  0
 30 57  1  0  0  0  0
 30 63  2  0  0  0  0
 31 63  1  0  0  0  0
 31 69  1  0  0  0  0
 32 64  1  0  0  0  0
 32 67  1  0  0  0  0
 33 68  1  0  0  0  0
 33 74  2  0  0  0  0
 34 35  1  0  0  0  0
 34 58  1  0  0  0  0
 34 75  2  0  0  0  0
 35 70  1  0  0  0  0
 35 76  2  0  0  0  0
 36 50  1  0  0  0  0
 36 71  1  0  0  0  0
 36 77  2  0  0  0  0
 37 59  1  0  0  0  0
 37 65  1  0  0  0  0
 37 78  2  0  0  0  0
 38 60  1  0  0  0  0
 38 72  1  0  0  0  0
 38 79  2  0  0  0  0
 39 66  1  0  0  0  0
 39 69  1  0  0  0  0
 39 80  2  0  0  0  0
 40 43  1  0  0  0  0
 41 50  1  0  0  0  0
 42 65  1  0  0  0  0
 43 45  1  0  0  0  0
 44 46  1  0  0  0  0
 44 47  1  0  0  0  0
 45 49  1  0  0  0  0
 46 51  1  0  0  0  0
 47 66  1  0  0  0  0
 48 51  1  0  0  0  0
 48 66  1  0  0  0  0
 49 71  1  0  0  0  0
 50 65  1  0  0  0  0
 51 64  1  0  0  0  0
 52 60  1  0  0  0  0
 53 61  1  0  0  0  0
 54 61  1  0  0  0  0
 55 61  1  0  0  0  0
 56 73  1  0  0  0  0
 57 70  1  0  0  0  0
 58 82  1  0  0  0  0
 59 61  1  0  0  0  0
 59 72  1  0  0  0  0
 60 73  1  0  0  0  0
 62 64  1  0  0  0  0
M  CHG  1  73   1
M  ISO  4  39 100  58 101  69 100  82 101
M  END
> <Batch ID>
0173

> <Smiles>
CNC(C)C(=O)NC(C(=O)N1Cc2cc([101O:1][101CH2:1]C(=O)C(=O)NCc3cc(F)cc([100NH:0][100C:0](=O)N4CCCC(n5nc(-c6ccc(Oc7ccc(F)cc7F)cc6)c(C(N)=O)c5N)C4)n3)ccc2CC1C(=O)NC1CCCc2ccccc21)C(C)(C)C

> <Shape>
0.255

> <Color>
0.071

> <Negative vol penalty>
0.000

$$$$

  -OEChem-04052304293D

 84 92  0     1  0  0  0  0  0999 V2000
  -26.6772  -30.7422   23.3321 C   0  0  0  0  0  0  0  0  0  0  0  0
  -26.4046  -29.5170   23.9322 C   0  0  0  0  0  0  0  0  0  0  0  0
  -28.3578  -12.1804   19.0070 C   0  0  0  0  0  0  0  0  0  0  0  0
  -28.5756  -13.4263   21.0654 C   0  0  0  0  0  0  0  0  0  0  0  0
  -26.7099  -30.8442   21.9420 C   0  0  0  0  0  0  0  0  0  0  0  0
  -26.1635  -28.3934   23.1425 C   0  0  0  0  0  0  0  0  0  0  0  0
  -28.6209  -24.2885   24.8026 C   0  0  0  0  0  0  0  0  0  0  0  0
  -29.7327  -12.2861   18.7975 C   0  0  0  0  0  0  0  0  0  0  0  0
  -29.9506  -13.5320   20.8560 C   0  0  0  0  0  0  0  0  0  0  0  0
  -28.0793  -23.6233   25.9017 C   0  0  0  0  0  0  0  0  0  0  0  0
  -32.6824  -11.5775   21.2268 C   0  0  0  0  0  0  0  0  0  0  0  0
  -33.5227  -11.3304   22.3124 C   0  0  0  0  0  0  0  0  0  0  0  0
  -27.1035  -21.9864   24.4226 C   0  0  0  0  0  0  0  0  0  0  0  0
  -34.4106  -13.5704   22.1349 C   0  0  0  0  0  0  0  0  0  0  0  0
  -20.7739  -19.3104   22.5564 C   0  0  0  0  0  0  0  0  0  0  0  0
  -27.7792  -12.7505   20.1409 C   0  0  0  0  0  0  0  0  0  0  0  0
  -25.6797  -11.6205   21.0480 C   0  0  0  0  0  0  0  0  0  0  0  0
  -26.4786  -29.7192   21.1349 C   0  0  0  0  0  0  0  0  0  0  0  0
  -28.3983  -23.8130   23.5023 C   0  0  0  0  0  0  0  0  0  0  0  0
  -26.1918  -28.4807   21.7403 C   0  0  0  0  0  0  0  0  0  0  0  0
  -27.6454  -22.6459   23.3089 C   0  0  0  0  0  0  0  0  0  0  0  0
  -30.5291  -12.9618   19.7220 C   0  0  0  0  0  0  0  0  0  0  0  0
  -27.3181  -22.4737   25.7117 C   0  0  0  0  0  0  0  0  0  0  0  0
  -32.7063  -12.8210   20.5952 C   0  0  0  0  0  0  0  0  0  0  0  0
  -34.3867  -12.3269   22.7665 C   0  0  0  0  0  0  0  0  0  0  0  0
  -33.5703  -13.8174   21.0493 C   0  0  0  0  0  0  0  0  0  0  0  0
  -26.3588  -12.6422   20.3576 C   0  0  0  0  0  0  0  0  0  0  0  0
  -24.3554  -11.9771   20.9733 C   0  0  0  0  0  0  0  0  0  0  0  0
  -21.8118  -18.4043   22.4946 C   0  0  0  0  0  0  0  0  0  0  0  0
  -21.7063  -19.7445   24.4934 C   0  0  0  0  0  0  0  0  0  0  0  0
  -26.1995  -10.4535   21.6989 C   0  0  0  0  0  0  0  0  0  0  0  0
  -21.9384  -20.3790   25.8166 C   0  0  0  0  0  0  0  0  0  0  0  0
  -26.9803  -24.9693   20.9031 C   0  0  0  0  0  0  0  0  0  0  0  0
  -24.7324  -21.1137   27.8462 C   0  0  0  0  0  0  0  0  0  0  0  0
  -28.1556  -22.2722   19.5368 C   0  0  0  0  0  0  0  0  0  0  0  0
  -29.2640  -19.0691   19.9348 C   0  0  0  0  0  0  0  0  0  0  0  0
  -21.5723  -17.2197   20.2842 C   0  0  0  0  0  0  0  0  0  0  0  0
  -26.4777  -29.8886   19.6362 C   0  0  0  0  0  0  0  0  0  0  0  0
  -29.0117  -24.5269   22.3291 C   0  0  0  0  0  0  0  0  0  0  0  0
  -27.3942  -22.0830   21.9347 C   0  0  0  0  0  0  0  0  0  0  0  0
  -26.5812  -28.5701   18.8741 C   0  0  0  0  0  0  0  0  0  0  0  0
  -21.2693  -14.3565   18.1896 C   0  0  0  0  0  0  0  0  0  0  0  0
  -25.6151  -27.5415   19.4532 C   0  0  0  0  0  0  0  0  0  0  0  0
  -22.4749  -13.4962   18.5750 C   0  0  0  0  0  0  0  0  0  0  0  0
  -21.6052  -15.8466   18.2134 C   0  0  0  0  0  0  0  0  0  0  0  0
  -23.4059  -15.4687   19.8516 C   0  0  0  0  0  0  0  0  0  0  0  0
  -25.9495  -27.2338   20.9178 C   0  0  1  0  0  0  0  0  0  0  0  0
  -28.2915  -24.2440   21.0143 C   0  0  1  0  0  0  0  0  0  0  0  0
  -23.0985  -13.9633   19.9049 C   0  0  2  0  0  0  0  0  0  0  0  0
  -23.3400  -19.2858   28.8624 C   0  0  0  0  0  0  0  0  0  0  0  0
  -30.1218  -17.1050   18.6296 C   0  0  0  0  0  0  0  0  0  0  0  0
  -25.3192  -21.6661   18.5894 C   0  0  0  0  0  0  0  0  0  0  0  0
  -26.0443  -19.3106   18.1490 C   0  0  0  0  0  0  0  0  0  0  0  0
  -27.1054  -21.1938   16.9039 C   0  0  0  0  0  0  0  0  0  0  0  0
  -31.8520  -19.0979   21.3702 C   0  0  0  0  0  0  0  0  0  0  0  0
  -25.5624  -21.1217   26.5751 C   0  0  0  0  0  0  0  0  0  1  0  0
  -23.3747  -20.4111   27.8394 C   0  0  2  0  0  0  0  0  0  0  0  0
  -27.6516  -20.8615   19.3499 C   0  0  1  0  0  0  0  0  0  0  0  0
  -30.4965  -18.3569   19.4075 C   0  0  2  0  0  0  0  0  0  0  0  0
  -26.5331  -20.7694   18.2739 C   0  0  0  0  0  0  0  0  0  0  0  0
  -20.7115  -20.0795   23.7020 N   0  0  0  0  0  0  0  0  0  0  0  0
  -25.5340  -13.5776   19.8792 N   0  0  0  0  0  0  0  0  0  0  0  0
  -24.3230  -13.1451   20.2697 N   0  0  0  0  0  0  0  0  0  0  0  0
  -28.0098  -22.8204   20.8191 N   0  0  0  0  0  0  0  0  0  0  0  0
  -22.1876  -16.2173   19.5050 N   0  0  0  0  0  0  0  0  0  0  0  0
  -23.2271  -11.4024   21.4414 N   0  0  0  0  0  0  0  0  0  0  0  0
  -27.5844  -10.2395   21.6810 N   0  0  0  0  0  0  0  0  0  0  0  0
  -22.1967  -17.4640   21.5070 N   0  0  0  0  0  0  0  0  0  0  0  0
  -23.0337  -19.9133   26.5332 N   0  0  0  0  0  0  0  0  0  0  0  0
  -27.0875  -26.3435   21.0001 N   0  0  0  0  0  0  0  0  0  0  0  0
  -28.8251  -20.0434   19.0634 N   0  0  0  0  0  0  0  0  0  0  0  0
  -31.3878  -17.9609   20.5343 N   0  3  0  0  0  0  0  0  0  0  0  0
  -25.4562   -9.6165   22.2650 O   0  0  0  0  0  0  0  0  0  0  0  0
  -21.1619  -21.2449   26.2113 O   0  0  0  0  0  0  0  0  0  0  0  0
  -25.9479  -24.3296   20.7398 O   0  0  0  0  0  0  0  0  0  0  0  0
  -25.1188  -21.7078   28.8566 O   0  0  0  0  0  0  0  0  0  0  0  0
  -28.6664  -22.8633   18.5822 O   0  0  0  0  0  0  0  0  0  0  0  0
  -28.7405  -18.7867   21.0104 O   0  0  0  0  0  0  0  0  0  0  0  0
  -20.5499  -17.7984   19.9076 O   0  0  0  0  0  0  0  0  0  0  0  0
  -31.8709  -13.0650   19.5180 O   0  0  0  0  0  0  0  0  0  0  0  0
  -26.7878  -21.8229   26.7827 O   0  0  0  0  0  0  0  0  0  1  0  0
  -35.1925  -12.0900   23.8099 F   0  0  0  0  0  0  0  0  0  0  0  0
  -33.5969  -15.0144   20.4473 F   0  0  0  0  0  0  0  0  0  0  0  0
  -22.7555  -18.5123   23.9226 S   0  0  0  0  0  0  0  0  0  0  0  0
  1  2  1  0  0  0  0
  1  5  2  0  0  0  0
  2  6  2  0  0  0  0
  3  8  2  0  0  0  0
  3 16  1  0  0  0  0
  4  9  1  0  0  0  0
  4 16  2  0  0  0  0
  5 18  1  0  0  0  0
  6 20  1  0  0  0  0
  7 10  2  0  0  0  0
  7 19  1  0  0  0  0
  8 22  1  0  0  0  0
  9 22  2  0  0  0  0
 10 23  1  0  0  0  0
 11 12  2  0  0  0  0
 11 24  1  0  0  0  0
 12 25  1  0  0  0  0
 13 21  1  0  0  0  0
 13 23  2  0  0  0  0
 14 25  2  0  0  0  0
 14 26  1  0  0  0  0
 15 29  2  0  0  0  0
 15 61  1  0  0  0  0
 16 27  1  0  0  0  0
 17 27  1  0  0  0  0
 17 28  2  0  0  0  0
 17 31  1  0  0  0  0
 18 20  2  0  0  0  0
 18 38  1  0  0  0  0
 19 21  2  0  0  0  0
 19 39  1  0  0  0  0
 20 47  1  0  0  0  0
 21 40  1  0  0  0  0
 22 80  1  0  0  0  0
 23 81  1  0  0  0  0
 24 26  2  0  0  0  0
 24 80  1  0  0  0  0
 25 82  1  0  0  0  0
 26 83  1  0  0  0  0
 27 62  2  0  0  0  0
 28 63  1  0  0  0  0
 28 66  1  0  0  0  0
 29 68  1  0  0  0  0
 29 84  1  0  0  0  0
 30 32  1  0  0  0  0
 30 61  2  0  0  0  0
 30 84  1  0  0  0  0
 31 67  1  0  0  0  0
 31 73  2  0  0  0  0
 32 69  1  0  0  0  0
 32 74  2  0  0  0  0
 33 48  1  0  0  0  0
 33 70  1  0  0  0  0
 33 75  2  0  0  0  0
 34 56  1  0  0  0  0
 34 57  1  0  0  0  0
 34 76  2  0  0  0  0
 35 58  1  0  0  0  0
 35 64  1  0  0  0  0
 35 77  2  0  0  0  0
 36 59  1  0  0  0  0
 36 71  1  0  0  0  0
 36 78  2  0  0  0  0
 37 65  1  0  0  0  0
 37 68  1  0  0  0  0
 37 79  2  0  0  0  0
 38 41  1  0  0  0  0
 39 48  1  0  0  0  0
 40 64  1  0  0  0  0
 41 43  1  0  0  0  0
 42 44  1  0  0  0  0
 42 45  1  0  0  0  0
 43 47  1  0  0  0  0
 44 49  1  0  0  0  0
 45 65  1  0  0  0  0
 46 49  1  0  0  0  0
 46 65  1  0  0  0  0
 47 70  1  0  0  0  0
 48 64  1  0  0  0  0
 49 63  1  0  0  0  0
 50 57  1  0  0  0  0
 51 59  1  0  0  0  0
 52 60  1  0  0  0  0
 53 60  1  0  0  0  0
 54 60  1  0  0  0  0
 55 72  1  0  0  0  0
 56 81  1  0  0  0  0
 57 69  1  0  0  0  0
 58 60  1  0  0  0  0
 58 71  1  0  0  0  0
 59 72  1  0  0  0  0
 62 63  1  0  0  0  0
M  CHG  1  72   1
M  ISO  4  37 100  56 101  68 100  81 101
M  END
> <Batch ID>
0173

> <Smiles>
CNC(C)C(=O)NC(C(=O)N1Cc2cc([101O:1][101CH2:1]C(=O)C(C)NC(=O)c3ncc([100NH:0][100C:0](=O)N4CCCC(n5nc(-c6ccc(Oc7ccc(F)cc7F)cc6)c(C(N)=O)c5N)C4)s3)ccc2CC1C(=O)NC1CCCc2ccccc21)C(C)(C)C

> <Shape>
0.185

> <Color>
0.068

> <Negative vol penalty>
0.000

$$$$

  -OEChem-04052304293D

 91 99  0     1  0  0  0  0  0999 V2000
  -25.9112  -36.2388   25.5705 C   0  0  0  0  0  0  0  0  0  0  0  0
  -26.6594  -35.2621   24.9213 C   0  0  0  0  0  0  0  0  0  0  0  0
  -25.0026   -8.2339   21.7006 C   0  0  0  0  0  0  0  0  0  0  0  0
  -23.5204  -10.0743   21.1979 C   0  0  0  0  0  0  0  0  0  0  0  0
  -24.6453  -35.9304   26.0667 C   0  0  0  0  0  0  0  0  0  0  0  0
  -26.1426  -33.9759   24.7690 C   0  0  0  0  0  0  0  0  0  0  0  0
  -27.0113  -30.1968   20.0287 C   0  0  0  0  0  0  0  0  0  0  0  0
  -29.1023  -18.9032   23.1594 C   0  0  0  0  0  0  0  0  0  0  0  0
  -29.1829  -20.2174   22.6990 C   0  0  0  0  0  0  0  0  0  0  0  0
  -23.9166   -7.3586   21.6983 C   0  0  0  0  0  0  0  0  0  0  0  0
  -22.4343   -9.1990   21.1956 C   0  0  0  0  0  0  0  0  0  0  0  0
  -27.8815  -29.1258   19.8302 C   0  0  0  0  0  0  0  0  0  0  0  0
  -21.4082   -6.4969   23.7935 C   0  0  0  0  0  0  0  0  0  0  0  0
  -21.3245   -5.5664   24.8293 C   0  0  0  0  0  0  0  0  0  0  0  0
  -26.1403  -27.5953   20.4974 C   0  0  0  0  0  0  0  0  0  0  0  0
  -21.4019   -3.7669   23.2190 C   0  0  0  0  0  0  0  0  0  0  0  0
  -24.8045   -9.5918   21.4505 C   0  0  0  0  0  0  0  0  0  0  0  0
  -26.7359  -10.8498   20.3574 C   0  0  0  0  0  0  0  0  0  0  0  0
  -24.1087  -34.6425   25.9119 C   0  0  0  0  0  0  0  0  0  0  0  0
  -25.7002  -29.9755   20.4743 C   0  0  0  0  0  0  0  0  0  0  0  0
  -24.8689  -33.6496   25.2648 C   0  0  0  0  0  0  0  0  0  0  0  0
  -25.2547  -28.6650   20.6983 C   0  0  0  0  0  0  0  0  0  0  0  0
  -29.0468  -18.1077   20.8788 C   0  0  0  0  0  0  0  0  0  0  0  0
  -29.0343  -17.8483   22.2492 C   0  0  0  0  0  0  0  0  0  0  0  0
  -29.1953  -20.4768   21.3285 C   0  0  0  0  0  0  0  0  0  0  0  0
  -22.6325   -7.8411   21.4458 C   0  0  0  0  0  0  0  0  0  0  0  0
  -27.4470  -27.8250   20.0673 C   0  0  0  0  0  0  0  0  0  0  0  0
  -21.4887   -6.0623   22.4704 C   0  0  0  0  0  0  0  0  0  0  0  0
  -21.3214   -4.2015   24.5421 C   0  0  0  0  0  0  0  0  0  0  0  0
  -21.4856   -4.6974   22.1832 C   0  0  0  0  0  0  0  0  0  0  0  0
  -29.1273  -19.4219   20.4184 C   0  0  0  0  0  0  0  0  0  0  0  0
  -25.9259  -10.4965   21.4533 C   0  0  0  0  0  0  0  0  0  0  0  0
  -27.6521  -11.7309   20.8776 C   0  0  0  0  0  0  0  0  0  0  0  0
  -26.6662  -10.4200   18.9913 C   0  0  0  0  0  0  0  0  0  0  0  0
  -24.0343  -30.8134   23.0485 C   0  0  0  0  0  0  0  0  0  0  0  0
  -30.7000  -26.8509   19.7264 C   0  0  0  0  0  0  0  0  0  0  0  0
  -21.5815  -29.4420   21.4281 C   0  0  0  0  0  0  0  0  0  0  0  0
  -29.3506  -22.9724   21.6294 C   0  0  0  0  0  0  0  0  0  0  0  0
  -20.5668  -27.2223   19.0427 C   0  0  0  0  0  0  0  0  0  0  0  0
  -28.9299  -16.1104   24.0699 C   0  0  0  0  0  0  0  0  0  0  0  0
  -22.7554  -34.3435   26.5068 C   0  0  0  0  0  0  0  0  0  0  0  0
  -24.7656  -31.1396   20.6579 C   0  0  0  0  0  0  0  0  0  0  0  0
  -23.8505  -28.3724   21.1579 C   0  0  0  0  0  0  0  0  0  0  0  0
  -22.1261  -33.0589   25.9738 C   0  0  0  0  0  0  0  0  0  0  0  0
  -28.6980  -12.9430   25.6796 C   0  0  0  0  0  0  0  0  0  0  0  0
  -23.1461  -31.9248   25.9739 C   0  0  0  0  0  0  0  0  0  0  0  0
  -28.0228  -12.0532   24.6334 C   0  0  0  0  0  0  0  0  0  0  0  0
  -28.1440  -14.3664   25.6562 C   0  0  0  0  0  0  0  0  0  0  0  0
  -27.4862  -14.1281   23.2940 C   0  0  0  0  0  0  0  0  0  0  0  0
  -24.3325  -32.2498   25.0582 C   0  0  1  0  0  0  0  0  0  0  0  0
  -23.6108  -30.8348   21.6070 C   0  0  1  0  0  0  0  0  0  0  0  0
  -28.0568  -12.7017   23.2356 C   0  0  2  0  0  0  0  0  0  0  0  0
  -32.0596  -26.9205   20.3732 C   0  0  0  0  0  0  0  0  0  0  0  0
  -18.4976  -26.2934   17.9691 C   0  0  0  0  0  0  0  0  0  0  0  0
  -21.0700  -27.7297   23.9013 C   0  0  0  0  0  0  0  0  0  0  0  0
  -19.6741  -26.2150   22.4781 C   0  0  0  0  0  0  0  0  0  0  0  0
  -19.0055  -28.5981   22.7884 C   0  0  0  0  0  0  0  0  0  0  0  0
  -21.3647  -28.2189   16.3727 C   0  0  0  0  0  0  0  0  0  0  0  0
  -29.4242  -24.1999   20.7302 C   0  0  0  0  0  0  0  0  0  0  0  0
  -29.5070  -25.5056   21.5271 C   0  0  0  0  0  0  0  0  0  0  0  0
  -29.4916  -26.7600   20.6516 C   0  0  2  0  0  0  0  0  0  1  0  0
  -21.0041  -28.0500   21.3402 C   0  0  1  0  0  0  0  0  0  0  0  0
  -19.5821  -27.3569   17.8953 C   0  0  2  0  0  0  0  0  0  0  0  0
  -28.9735  -16.9943   19.8845 C   0  0  0  0  0  0  0  0  0  0  0  0
  -20.2155  -27.6535   22.6202 C   0  0  0  0  0  0  0  0  0  0  0  0
  -26.2952  -11.1035   22.5843 N   0  0  0  0  0  0  0  0  0  0  0  0
  -27.3474  -11.8470   22.2019 N   0  0  0  0  0  0  0  0  0  0  0  0
  -22.9764  -29.5446   21.3292 N   0  0  0  0  0  0  0  0  0  0  0  0
  -28.2123  -14.9177   24.3011 N   0  0  0  0  0  0  0  0  0  0  0  0
  -28.6808  -12.4099   20.3269 N   0  0  0  0  0  0  0  0  0  0  0  0
  -25.6630   -9.5116   18.6271 N   0  0  0  0  0  0  0  0  0  0  0  0
  -29.2767  -21.8114   20.8649 N   0  0  0  0  0  0  0  0  0  0  0  0
  -28.9525  -16.5206   22.7374 N   0  0  0  0  0  0  0  0  0  0  0  0
  -23.9716  -32.0451   23.6717 N   0  0  0  0  0  0  0  0  0  0  0  0
  -20.2125  -28.0131   20.1153 N   0  0  0  0  0  0  0  0  0  0  0  0
  -20.2867  -27.2198   16.5893 N   0  3  0  0  0  0  0  0  0  0  0  0
  -27.4800  -10.8168   18.1230 O   0  0  0  0  0  0  0  0  0  0  0  0
  -24.3903  -29.7573   23.5580 O   0  0  0  0  0  0  0  0  0  0  0  0
  -30.5832  -26.8761   18.5008 O   0  0  0  0  0  0  0  0  0  0  0  0
  -20.8225  -30.4037   21.5719 O   0  0  0  0  0  0  0  0  0  0  0  0
  -29.3597  -23.0594   22.8528 O   0  0  0  0  0  0  0  0  0  0  0  0
  -21.5499  -26.4863   18.9940 O   0  0  0  0  0  0  0  0  0  0  0  0
  -29.5064  -16.7080   24.9823 O   0  0  0  0  0  0  0  0  0  0  0  0
  -21.5725   -6.9873   21.4433 O   0  0  0  0  0  0  0  0  0  0  0  0
  -28.2945  -26.7778   19.8750 O   0  0  0  0  0  0  0  0  0  1  0  0
  -21.2425   -3.3081   25.5370 F   0  0  0  0  0  0  0  0  0  0  0  0
  -21.5639   -4.2739   20.9142 F   0  0  0  0  0  0  0  0  0  0  0  0
  -29.1387  -19.6709   19.1000 F   0  0  0  0  0  0  0  0  0  0  0  0
  -28.8970  -15.7576   20.4568 F   0  0  0  0  0  0  0  0  0  0  0  0
  -27.8911  -17.0744   19.0574 F   0  0  0  0  0  0  0  0  0  0  0  0
  -30.0624  -16.9543   19.0644 F   0  0  0  0  0  0  0  0  0  0  0  0
  1  2  1  0  0  0  0
  1  5  2  0  0  0  0
  2  6  2  0  0  0  0
  3 10  2  0  0  0  0
  3 17  1  0  0  0  0
  4 11  1  0  0  0  0
  4 17  2  0  0  0  0
  5 19  1  0  0  0  0
  6 21  1  0  0  0  0
  7 12  2  0  0  0  0
  7 20  1  0  0  0  0
  8  9  2  0  0  0  0
  8 24  1  0  0  0  0
  9 25  1  0  0  0  0
 10 26  1  0  0  0  0
 11 26  2  0  0  0  0
 12 27  1  0  0  0  0
 13 14  2  0  0  0  0
 13 28  1  0  0  0  0
 14 29  1  0  0  0  0
 15 22  1  0  0  0  0
 15 27  2  0  0  0  0
 16 29  2  0  0  0  0
 16 30  1  0  0  0  0
 17 32  1  0  0  0  0
 18 32  1  0  0  0  0
 18 33  2  0  0  0  0
 18 34  1  0  0  0  0
 19 21  2  0  0  0  0
 19 41  1  0  0  0  0
 20 22  2  0  0  0  0
 20 42  1  0  0  0  0
 21 50  1  0  0  0  0
 22 43  1  0  0  0  0
 23 24  2  0  0  0  0
 23 31  1  0  0  0  0
 23 64  1  0  0  0  0
 24 73  1  0  0  0  0
 25 31  2  0  0  0  0
 25 72  1  0  0  0  0
 26 84  1  0  0  0  0
 27 85  1  0  0  0  0
 28 30  2  0  0  0  0
 28 84  1  0  0  0  0
 29 86  1  0  0  0  0
 30 87  1  0  0  0  0
 31 88  1  0  0  0  0
 32 66  2  0  0  0  0
 33 67  1  0  0  0  0
 33 70  1  0  0  0  0
 34 71  1  0  0  0  0
 34 77  2  0  0  0  0
 35 51  1  0  0  0  0
 35 74  1  0  0  0  0
 35 78  2  0  0  0  0
 36 53  1  0  0  0  0
 36 61  1  0  0  0  0
 36 79  2  0  0  0  0
 37 62  1  0  0  0  0
 37 68  1  0  0  0  0
 37 80  2  0  0  0  0
 38 59  1  0  0  0  0
 38 72  1  0  0  0  0
 38 81  2  0  0  0  0
 39 63  1  0  0  0  0
 39 75  1  0  0  0  0
 39 82  2  0  0  0  0
 40 69  1  0  0  0  0
 40 73  1  0  0  0  0
 40 83  2  0  0  0  0
 41 44  1  0  0  0  0
 42 51  1  0  0  0  0
 43 68  1  0  0  0  0
 44 46  1  0  0  0  0
 45 47  1  0  0  0  0
 45 48  1  0  0  0  0
 46 50  1  0  0  0  0
 47 52  1  0  0  0  0
 48 69  1  0  0  0  0
 49 52  1  0  0  0  0
 49 69  1  0  0  0  0
 50 74  1  0  0  0  0
 51 68  1  0  0  0  0
 52 67  1  0  0  0  0
 54 63  1  0  0  0  0
 55 65  1  0  0  0  0
 56 65  1  0  0  0  0
 57 65  1  0  0  0  0
 58 76  1  0  0  0  0
 59 60  1  0  0  0  0
 60 61  1  0  0  0  0
 61 85  1  0  0  0  0
 62 65  1  0  0  0  0
 62 75  1  0  0  0  0
 63 76  1  0  0  0  0
 64 89  1  0  0  0  0
 64 90  1  0  0  0  0
 64 91  1  0  0  0  0
 66 67  1  0  0  0  0
M  CHG  1  76   1
M  ISO  4  40 100  61 101  73 100  85 101
M  END
> <Batch ID>
0173

> <Smiles>
CNC(C)C(=O)NC(C(=O)N1Cc2cc([101O:1][101CH:1](CCC(=O)Nc3ccc([100NH:0][100C:0](=O)N4CCCC(n5nc(-c6ccc(Oc7ccc(F)cc7F)cc6)c(C(N)=O)c5N)C4)c(C(F)(F)F)c3F)C(C)=O)ccc2CC1C(=O)NC1CCCc2ccccc21)C(C)(C)C

> <Shape>
0.342

> <Color>
0.094

> <Negative vol penalty>
0.000

$$$$

  -OEChem-04052304293D

 86 94  0     1  0  0  0  0  0999 V2000
  -25.6565  -37.4931   20.7964 C   0  0  0  0  0  0  0  0  0  0  0  0
  -26.3889  -36.3392   20.5366 C   0  0  0  0  0  0  0  0  0  0  0  0
  -23.5553   -9.1036   20.2929 C   0  0  0  0  0  0  0  0  0  0  0  0
  -23.1419  -11.0687   21.6362 C   0  0  0  0  0  0  0  0  0  0  0  0
  -24.6486  -37.4755   21.7596 C   0  0  0  0  0  0  0  0  0  0  0  0
  -26.1145  -35.1673   21.2407 C   0  0  0  0  0  0  0  0  0  0  0  0
  -26.4558  -29.4324   19.1193 C   0  0  0  0  0  0  0  0  0  0  0  0
  -22.6074   -8.3978   21.0337 C   0  0  0  0  0  0  0  0  0  0  0  0
  -22.1940  -10.3629   22.3770 C   0  0  0  0  0  0  0  0  0  0  0  0
  -27.4387  -28.4494   19.2269 C   0  0  0  0  0  0  0  0  0  0  0  0
  -22.4374   -6.8576   24.0376 C   0  0  0  0  0  0  0  0  0  0  0  0
  -22.7706   -5.5691   24.4551 C   0  0  0  0  0  0  0  0  0  0  0  0
  -26.2666  -27.4915   21.1051 C   0  0  0  0  0  0  0  0  0  0  0  0
  -20.8903   -4.6838   23.2232 C   0  0  0  0  0  0  0  0  0  0  0  0
  -31.1461  -19.3485   19.3701 C   0  0  0  0  0  0  0  0  0  0  0  0
  -23.8226  -10.4391   20.5941 C   0  0  0  0  0  0  0  0  0  0  0  0
  -29.9741  -19.4400   18.6521 C   0  0  0  0  0  0  0  0  0  0  0  0
  -24.5798  -11.9211   18.6607 C   0  0  0  0  0  0  0  0  0  0  0  0
  -24.3552  -36.3002   22.4690 C   0  0  0  0  0  0  0  0  0  0  0  0
  -25.3749  -29.4587   20.0123 C   0  0  0  0  0  0  0  0  0  0  0  0
  -25.1026  -35.1343   22.2153 C   0  0  0  0  0  0  0  0  0  0  0  0
  -25.2700  -28.4743   21.0052 C   0  0  0  0  0  0  0  0  0  0  0  0
  -29.3602  -18.1679   18.4651 C   0  0  0  0  0  0  0  0  0  0  0  0
  -21.9267   -9.0274   22.0758 C   0  0  0  0  0  0  0  0  0  0  0  0
  -27.3457  -27.4805   20.2217 C   0  0  0  0  0  0  0  0  0  0  0  0
  -21.3306   -7.0592   23.2130 C   0  0  0  0  0  0  0  0  0  0  0  0
  -21.9971   -4.4822   24.0479 C   0  0  0  0  0  0  0  0  0  0  0  0
  -20.5570   -5.9723   22.8058 C   0  0  0  0  0  0  0  0  0  0  0  0
  -24.8021  -11.1686   19.8296 C   0  0  0  0  0  0  0  0  0  0  0  0
  -25.8188  -12.4109   18.3269 C   0  0  0  0  0  0  0  0  0  0  0  0
  -30.0866  -17.1524   19.0473 C   0  0  0  0  0  0  0  0  0  0  0  0
  -28.1314  -25.3579   19.6316 C   0  0  0  0  0  0  0  0  0  1  0  0
  -29.4540  -20.7449   18.1527 C   0  0  0  0  0  0  0  0  0  0  0  0
  -23.3622  -12.1563   17.9411 C   0  0  0  0  0  0  0  0  0  0  0  0
  -29.0091  -24.3483   19.6640 C   0  0  0  0  0  0  0  0  0  0  0  0
  -28.7312  -23.1125   18.8659 C   0  0  0  0  0  0  0  0  0  0  0  0
  -24.2999  -31.5278   22.1726 C   0  0  0  0  0  0  0  0  0  0  0  0
  -21.8320  -29.4329   22.3798 C   0  0  0  0  0  0  0  0  0  0  0  0
  -20.6936  -26.2450   21.9457 C   0  0  0  0  0  0  0  0  0  0  0  0
  -30.6533  -14.7932   19.7253 C   0  0  0  0  0  0  0  0  0  0  0  0
  -23.2883  -36.3424   23.5342 C   0  0  0  0  0  0  0  0  0  0  0  0
  -24.3089  -30.5098   19.8662 C   0  0  0  0  0  0  0  0  0  0  0  0
  -24.1188  -28.4464   21.9759 C   0  0  0  0  0  0  0  0  0  0  0  0
  -22.8088  -34.9606   23.9711 C   0  0  0  0  0  0  0  0  0  0  0  0
  -30.4087  -11.2639   20.1267 C   0  0  0  0  0  0  0  0  0  0  0  0
  -23.9972  -34.0373   24.2203 C   0  0  0  0  0  0  0  0  0  0  0  0
  -28.9100  -10.9864   19.9890 C   0  0  0  0  0  0  0  0  0  0  0  0
  -30.6773  -12.5798   20.8546 C   0  0  0  0  0  0  0  0  0  0  0  0
  -28.4891  -13.4725   20.1587 C   0  0  0  0  0  0  0  0  0  0  0  0
  -24.8181  -33.8370   22.9407 C   0  0  1  0  0  0  0  0  0  0  0  0
  -23.5224  -30.7460   21.1519 C   0  0  1  0  0  0  0  0  0  0  0  0
  -28.1681  -12.1896   19.3747 C   0  0  2  0  0  0  0  0  0  0  0  0
  -26.8616  -18.3570   18.5530 C   0  0  0  0  0  0  0  0  0  0  0  0
  -18.6425  -24.8289   22.2374 C   0  0  0  0  0  0  0  0  0  0  0  0
  -22.3256  -29.3422   25.3895 C   0  0  0  0  0  0  0  0  0  0  0  0
  -20.9364  -27.2615   25.4843 C   0  0  0  0  0  0  0  0  0  0  0  0
  -19.9143  -29.4081   24.7293 C   0  0  0  0  0  0  0  0  0  0  0  0
  -20.5610  -25.6362   19.0525 C   0  0  0  0  0  0  0  0  0  0  0  0
  -28.0875  -17.9595   17.7300 C   0  0  0  0  0  0  0  0  0  0  0  0
  -29.7665  -22.0024   18.9450 C   0  0  0  0  0  0  0  0  0  0  0  0
  -21.5378  -28.2061   23.2090 C   0  0  1  0  0  0  0  0  0  0  0  0
  -19.4392  -25.7049   21.2830 C   0  0  2  0  0  0  0  0  0  0  0  0
  -21.2014  -28.5559   24.6861 C   0  0  0  0  0  0  0  0  0  0  0  0
  -26.0817  -11.1766   20.2124 N   0  0  0  0  0  0  0  0  0  0  0  0
  -26.6746  -11.9401   19.2788 N   0  0  0  0  0  0  0  0  0  0  0  0
  -23.1052  -29.4990   21.7963 N   0  0  0  0  0  0  0  0  0  0  0  0
  -29.9454  -13.6750   20.2145 N   0  0  0  0  0  0  0  0  0  0  0  0
  -26.2488  -13.1940   17.3149 N   0  0  0  0  0  0  0  0  0  0  0  0
  -22.1796  -11.5780   18.4219 N   0  0  0  0  0  0  0  0  0  0  0  0
  -29.8553  -15.7557   19.1077 N   0  0  0  0  0  0  0  0  0  0  0  0
  -24.1587  -32.8977   22.0590 N   0  0  0  0  0  0  0  0  0  0  0  0
  -20.4798  -27.4849   22.5098 N   0  0  0  0  0  0  0  0  0  0  0  0
  -19.7948  -24.8925   20.0853 N   0  3  0  0  0  0  0  0  0  0  0  0
  -28.7685  -20.7608   17.1335 O   0  0  0  0  0  0  0  0  0  0  0  0
  -23.3270  -12.8451   16.8933 O   0  0  0  0  0  0  0  0  0  0  0  0
  -27.7278  -23.0277   18.1606 O   0  0  0  0  0  0  0  0  0  0  0  0
  -24.9766  -30.9323   23.0027 O   0  0  0  0  0  0  0  0  0  0  0  0
  -20.9617  -30.2971   22.2487 O   0  0  0  0  0  0  0  0  0  0  0  0
  -21.7558  -25.6271   21.9645 O   0  0  0  0  0  0  0  0  0  0  0  0
  -31.8804  -14.8772   19.8213 O   0  0  0  0  0  0  0  0  0  0  0  0
  -30.1687  -24.3914   20.4075 O   0  0  0  0  0  0  0  0  0  0  0  0
  -21.0015   -8.3390   22.7988 O   0  0  0  0  0  0  0  0  0  0  0  0
  -28.3041  -26.5203   20.3293 O   0  0  0  0  0  0  0  0  0  1  0  0
  -22.3181   -3.2447   24.4476 F   0  0  0  0  0  0  0  0  0  0  0  0
  -19.4932   -6.1596   22.0127 F   0  0  0  0  0  0  0  0  0  0  0  0
  -31.5023  -17.7338   19.8155 S   0  0  0  0  0  0  0  0  0  0  0  0
  1  2  1  0  0  0  0
  1  5  2  0  0  0  0
  2  6  2  0  0  0  0
  3  8  2  0  0  0  0
  3 16  1  0  0  0  0
  4  9  1  0  0  0  0
  4 16  2  0  0  0  0
  5 19  1  0  0  0  0
  6 21  1  0  0  0  0
  7 10  2  0  0  0  0
  7 20  1  0  0  0  0
  8 24  1  0  0  0  0
  9 24  2  0  0  0  0
 10 25  1  0  0  0  0
 11 12  2  0  0  0  0
 11 26  1  0  0  0  0
 12 27  1  0  0  0  0
 13 22  1  0  0  0  0
 13 25  2  0  0  0  0
 14 27  2  0  0  0  0
 14 28  1  0  0  0  0
 15 17  2  0  0  0  0
 15 86  1  0  0  0  0
 16 29  1  0  0  0  0
 17 23  1  0  0  0  0
 17 33  1  0  0  0  0
 18 29  1  0  0  0  0
 18 30  2  0  0  0  0
 18 34  1  0  0  0  0
 19 21  2  0  0  0  0
 19 41  1  0  0  0  0
 20 22  2  0  0  0  0
 20 42  1  0  0  0  0
 21 50  1  0  0  0  0
 22 43  1  0  0  0  0
 23 31  2  0  0  0  0
 23 59  1  0  0  0  0
 24 82  1  0  0  0  0
 25 83  1  0  0  0  0
 26 28  2  0  0  0  0
 26 82  1  0  0  0  0
 27 84  1  0  0  0  0
 28 85  1  0  0  0  0
 29 64  2  0  0  0  0
 30 65  1  0  0  0  0
 30 68  1  0  0  0  0
 31 70  1  0  0  0  0
 31 86  1  0  0  0  0
 32 35  2  0  0  0  0
 32 83  1  0  0  0  0
 33 60  1  0  0  0  0
 33 74  2  0  0  0  0
 34 69  1  0  0  0  0
 34 75  2  0  0  0  0
 35 36  1  0  0  0  0
 35 81  1  0  0  0  0
 36 60  1  0  0  0  0
 36 76  2  0  0  0  0
 37 51  1  0  0  0  0
 37 71  1  0  0  0  0
 37 77  2  0  0  0  0
 38 61  1  0  0  0  0
 38 66  1  0  0  0  0
 38 78  2  0  0  0  0
 39 62  1  0  0  0  0
 39 72  1  0  0  0  0
 39 79  2  0  0  0  0
 40 67  1  0  0  0  0
 40 70  1  0  0  0  0
 40 80  2  0  0  0  0
 41 44  1  0  0  0  0
 42 51  1  0  0  0  0
 43 66  1  0  0  0  0
 44 46  1  0  0  0  0
 45 47  1  0  0  0  0
 45 48  1  0  0  0  0
 46 50  1  0  0  0  0
 47 52  1  0  0  0  0
 48 67  1  0  0  0  0
 49 52  1  0  0  0  0
 49 67  1  0  0  0  0
 50 71  1  0  0  0  0
 51 66  1  0  0  0  0
 52 65  1  0  0  0  0
 53 59  1  0  0  0  0
 54 62  1  0  0  0  0
 55 63  1  0  0  0  0
 56 63  1  0  0  0  0
 57 63  1  0  0  0  0
 58 73  1  0  0  0  0
 61 63  1  0  0  0  0
 61 72  1  0  0  0  0
 62 73  1  0  0  0  0
 64 65  1  0  0  0  0
M  CHG  1  73   1
M  ISO  4  32 101  40 100  70 100  83 101
M  END
> <Batch ID>
0173

> <Smiles>
CCc1c(C(=O)CC(=O)C(=O)[101CH2:1][101O:1]c2ccc3c(c2)CN(C(=O)C(NC(=O)C(C)NC)C(C)(C)C)C(C(=O)NC2CCCc4ccccc42)C3)csc1[100NH:0][100C:0](=O)N1CCCC(n2nc(-c3ccc(Oc4ccc(F)cc4F)cc3)c(C(N)=O)c2N)C1

> <Shape>
0.325

> <Color>
0.114

> <Negative vol penalty>
0.000

$$$$

  -OEChem-04052304293D

 86 94  0     1  0  0  0  0  0999 V2000
  -28.0422  -33.4379   22.0589 C   0  0  0  0  0  0  0  0  0  0  0  0
  -27.3939  -32.3649   22.6621 C   0  0  0  0  0  0  0  0  0  0  0  0
  -22.9366   -9.8508   20.0298 C   0  0  0  0  0  0  0  0  0  0  0  0
  -23.6497   -9.9662   22.3352 C   0  0  0  0  0  0  0  0  0  0  0  0
  -28.5894  -33.2933   20.7847 C   0  0  0  0  0  0  0  0  0  0  0  0
  -27.2914  -31.1469   21.9909 C   0  0  0  0  0  0  0  0  0  0  0  0
  -27.4220  -25.5514   24.4766 C   0  0  0  0  0  0  0  0  0  0  0  0
  -22.1558   -8.7339   20.3271 C   0  0  0  0  0  0  0  0  0  0  0  0
  -22.8689   -8.8492   22.6326 C   0  0  0  0  0  0  0  0  0  0  0  0
  -26.4117  -24.6568   24.8268 C   0  0  0  0  0  0  0  0  0  0  0  0
  -23.0780   -5.4946   22.2672 C   0  0  0  0  0  0  0  0  0  0  0  0
  -23.6499   -4.4951   23.0543 C   0  0  0  0  0  0  0  0  0  0  0  0
  -26.6883  -23.5264   22.7138 C   0  0  0  0  0  0  0  0  0  0  0  0
  -29.1286  -19.1104   24.1796 C   0  0  0  0  0  0  0  0  0  0  0  0
  -21.9198   -4.8098   24.7111 C   0  0  0  0  0  0  0  0  0  0  0  0
  -23.6836  -10.4670   21.0338 C   0  0  0  0  0  0  0  0  0  0  0  0
  -24.0983  -12.9713   20.7811 C   0  0  0  0  0  0  0  0  0  0  0  0
  -28.5020  -32.0701   20.1015 C   0  0  0  0  0  0  0  0  0  0  0  0
  -28.0667  -25.4467   23.2356 C   0  0  0  0  0  0  0  0  0  0  0  0
  -27.8368  -30.9862   20.7058 C   0  0  0  0  0  0  0  0  0  0  0  0
  -27.7082  -24.4193   22.3512 C   0  0  0  0  0  0  0  0  0  0  0  0
  -30.1793  -18.2309   23.7890 C   0  0  0  0  0  0  0  0  0  0  0  0
  -22.1220   -8.2331   21.6286 C   0  0  0  0  0  0  0  0  0  0  0  0
  -26.0426  -23.6459   23.9443 C   0  0  0  0  0  0  0  0  0  0  0  0
  -21.9270   -6.1518   22.7021 C   0  0  0  0  0  0  0  0  0  0  0  0
  -23.0708   -4.1527   24.2762 C   0  0  0  0  0  0  0  0  0  0  0  0
  -21.3479   -5.8094   23.9240 C   0  0  0  0  0  0  0  0  0  0  0  0
  -24.4907  -11.6205   20.7271 C   0  0  0  0  0  0  0  0  0  0  0  0
  -29.9754  -17.7075   22.5312 C   0  0  0  0  0  0  0  0  0  0  0  0
  -25.2181  -13.6697   20.4006 C   0  0  0  0  0  0  0  0  0  0  0  0
  -28.1616  -19.2260   23.2051 C   0  0  0  0  0  0  0  0  0  0  0  0
  -22.8345  -13.5437   21.1429 C   0  0  0  0  0  0  0  0  0  0  0  0
  -28.3475  -27.3268   20.6881 C   0  0  0  0  0  0  0  0  0  0  0  0
  -30.3906  -25.0132   19.6904 C   0  0  0  0  0  0  0  0  0  0  0  0
  -31.3908  -21.7555   19.8733 C   0  0  0  0  0  0  0  0  0  0  0  0
  -26.4670  -20.8237   24.1615 C   0  0  0  0  0  0  0  0  0  0  0  0
  -30.7233  -14.5504   20.6515 C   0  0  0  0  0  0  0  0  0  0  0  0
  -29.0675  -31.9757   18.7065 C   0  0  0  0  0  0  0  0  0  0  0  0
  -29.1729  -26.4031   22.8839 C   0  0  0  0  0  0  0  0  0  0  0  0
  -28.3833  -24.2514   21.0154 C   0  0  0  0  0  0  0  0  0  0  0  0
  -29.2437  -30.5408   18.2165 C   0  0  0  0  0  0  0  0  0  0  0  0
  -29.5680  -12.0670   18.3767 C   0  0  0  0  0  0  0  0  0  0  0  0
  -27.9933  -29.7185   18.5117 C   0  0  0  0  0  0  0  0  0  0  0  0
  -28.1144  -11.8366   18.7939 C   0  0  0  0  0  0  0  0  0  0  0  0
  -30.4664  -12.3302   19.5832 C   0  0  0  0  0  0  0  0  0  0  0  0
  -28.5582  -13.1887   20.8853 C   0  0  0  0  0  0  0  0  0  0  0  0
  -27.7269  -29.6418   20.0199 C   0  0  1  0  0  0  0  0  0  0  0  0
  -29.4078  -26.5184   21.3809 C   0  0  1  0  0  0  0  0  0  0  0  0
  -27.6036  -12.9744   19.6982 C   0  0  2  0  0  0  0  0  0  0  0  0
  -33.0641  -20.1515   18.9114 C   0  0  0  0  0  0  0  0  0  0  0  0
  -23.9530  -20.6349   24.2224 C   0  0  0  0  0  0  0  0  0  0  0  0
  -28.7543  -24.8513   17.1201 C   0  0  0  0  0  0  0  0  0  0  0  0
  -29.8522  -22.6526   16.6420 C   0  0  0  0  0  0  0  0  0  0  0  0
  -31.2302  -24.7268   16.7901 C   0  0  0  0  0  0  0  0  0  0  0  0
  -32.6033  -21.2490   22.5252 C   0  0  0  0  0  0  0  0  0  0  0  0
  -30.8242  -16.7645   21.7681 C   0  0  0  0  0  0  0  0  0  0  0  0
  -30.2538  -23.7341   18.9004 C   0  0  1  0  0  0  0  0  0  0  0  0
  -32.7651  -21.1313   20.0355 C   0  0  2  0  0  0  0  0  0  0  0  0
  -25.1417  -21.4543   23.7419 C   0  0  1  0  0  0  0  0  0  1  0  0
  -31.3498  -17.9229   24.6448 C   0  0  0  0  0  0  0  0  0  0  0  0
  -30.0084  -23.9953   17.3874 C   0  0  0  0  0  0  0  0  0  0  0  0
  -25.7606  -11.4674   20.3425 N   0  0  0  0  0  0  0  0  0  0  0  0
  -26.1758  -12.7312   20.1512 N   0  0  0  0  0  0  0  0  0  0  0  0
  -29.4548  -25.2153   20.7146 N   0  0  0  0  0  0  0  0  0  0  0  0
  -29.9270  -13.4212   20.3984 N   0  0  0  0  0  0  0  0  0  0  0  0
  -25.4671  -14.9888   20.2583 N   0  0  0  0  0  0  0  0  0  0  0  0
  -21.7909  -12.6824   21.5081 N   0  0  0  0  0  0  0  0  0  0  0  0
  -26.9643  -19.9799   23.1737 N   0  0  0  0  0  0  0  0  0  0  0  0
  -28.6138  -28.6819   20.6417 N   0  0  0  0  0  0  0  0  0  0  0  0
  -31.4499  -22.9487   19.1848 N   0  0  0  0  0  0  0  0  0  0  0  0
  -30.1334  -15.5407   21.4274 N   0  0  0  0  0  0  0  0  0  0  0  0
  -32.8525  -20.4006   21.3314 N   0  3  0  0  0  0  0  0  0  0  0  0
  -22.6316  -14.7815   21.1266 O   0  0  0  0  0  0  0  0  0  0  0  0
  -27.3616  -26.7626   20.2283 O   0  0  0  0  0  0  0  0  0  0  0  0
  -31.2990  -25.8006   19.4137 O   0  0  0  0  0  0  0  0  0  0  0  0
  -30.3669  -21.2346   20.3102 O   0  0  0  0  0  0  0  0  0  0  0  0
  -26.9821  -21.0863   25.2445 O   0  0  0  0  0  0  0  0  0  0  0  0
  -31.8726  -14.6696   20.2137 O   0  0  0  0  0  0  0  0  0  0  0  0
  -21.3600   -7.1434   21.9192 O   0  0  0  0  0  0  0  0  0  0  0  0
  -25.0563  -22.7718   24.2834 O   0  0  0  0  0  0  0  0  0  1  0  0
  -23.6192   -3.1918   25.0312 F   0  0  0  0  0  0  0  0  0  0  0  0
  -20.2415   -6.4364   24.3465 F   0  0  0  0  0  0  0  0  0  0  0  0
  -31.3370  -18.5617   25.8563 F   0  0  0  0  0  0  0  0  0  0  0  0
  -31.4786  -16.5948   24.9534 F   0  0  0  0  0  0  0  0  0  0  0  0
  -32.5402  -18.2735   24.0681 F   0  0  0  0  0  0  0  0  0  0  0  0
  -28.5220  -18.2763   21.8265 S   0  0  0  0  0  0  0  0  0  0  0  0
  1  2  1  0  0  0  0
  1  5  2  0  0  0  0
  2  6  2  0  0  0  0
  3  8  2  0  0  0  0
  3 16  1  0  0  0  0
  4  9  1  0  0  0  0
  4 16  2  0  0  0  0
  5 18  1  0  0  0  0
  6 20  1  0  0  0  0
  7 10  2  0  0  0  0
  7 19  1  0  0  0  0
  8 23  1  0  0  0  0
  9 23  2  0  0  0  0
 10 24  1  0  0  0  0
 11 12  2  0  0  0  0
 11 25  1  0  0  0  0
 12 26  1  0  0  0  0
 13 21  1  0  0  0  0
 13 24  2  0  0  0  0
 14 22  1  0  0  0  0
 14 31  2  0  0  0  0
 15 26  2  0  0  0  0
 15 27  1  0  0  0  0
 16 28  1  0  0  0  0
 17 28  1  0  0  0  0
 17 30  2  0  0  0  0
 17 32  1  0  0  0  0
 18 20  2  0  0  0  0
 18 38  1  0  0  0  0
 19 21  2  0  0  0  0
 19 39  1  0  0  0  0
 20 47  1  0  0  0  0
 21 40  1  0  0  0  0
 22 29  2  0  0  0  0
 22 60  1  0  0  0  0
 23 79  1  0  0  0  0
 24 80  1  0  0  0  0
 25 27  2  0  0  0  0
 25 79  1  0  0  0  0
 26 81  1  0  0  0  0
 27 82  1  0  0  0  0
 28 62  2  0  0  0  0
 29 56  1  0  0  0  0
 29 86  1  0  0  0  0
 30 63  1  0  0  0  0
 30 66  1  0  0  0  0
 31 68  1  0  0  0  0
 31 86  1  0  0  0  0
 32 67  1  0  0  0  0
 32 73  2  0  0  0  0
 33 48  1  0  0  0  0
 33 69  1  0  0  0  0
 33 74  2  0  0  0  0
 34 57  1  0  0  0  0
 34 64  1  0  0  0  0
 34 75  2  0  0  0  0
 35 58  1  0  0  0  0
 35 70  1  0  0  0  0
 35 76  2  0  0  0  0
 36 59  1  0  0  0  0
 36 68  1  0  0  0  0
 36 77  2  0  0  0  0
 37 65  1  0  0  0  0
 37 71  1  0  0  0  0
 37 78  2  0  0  0  0
 38 41  1  0  0  0  0
 39 48  1  0  0  0  0
 40 64  1  0  0  0  0
 41 43  1  0  0  0  0
 42 44  1  0  0  0  0
 42 45  1  0  0  0  0
 43 47  1  0  0  0  0
 44 49  1  0  0  0  0
 45 65  1  0  0  0  0
 46 49  1  0  0  0  0
 46 65  1  0  0  0  0
 47 69  1  0  0  0  0
 48 64  1  0  0  0  0
 49 63  1  0  0  0  0
 50 58  1  0  0  0  0
 51 59  1  0  0  0  0
 52 61  1  0  0  0  0
 53 61  1  0  0  0  0
 54 61  1  0  0  0  0
 55 72  1  0  0  0  0
 56 71  1  0  0  0  0
 57 61  1  0  0  0  0
 57 70  1  0  0  0  0
 58 72  1  0  0  0  0
 59 80  1  0  0  0  0
 60 83  1  0  0  0  0
 60 84  1  0  0  0  0
 60 85  1  0  0  0  0
 62 63  1  0  0  0  0
M  CHG  1  72   1
M  ISO  4  37 100  59 101  71 100  80 101
M  END
> <Batch ID>
0173

> <Smiles>
CNC(C)C(=O)NC(C(=O)N1Cc2cc([101O:1][101CH:1](C)C(=O)Nc3cc(C(F)(F)F)c(C[100NH:0][100C:0](=O)N4CCCC(n5nc(-c6ccc(Oc7ccc(F)cc7F)cc6)c(C(N)=O)c5N)C4)s3)ccc2CC1C(=O)NC1CCCc2ccccc21)C(C)(C)C

> <Shape>
0.274

> <Color>
0.223

> <Negative vol penalty>
0.000

$$$$

  -OEChem-04052304293D

 88 97  0     1  0  0  0  0  0999 V2000
  -26.6598  -37.6820   27.1441 C   0  0  0  0  0  0  0  0  0  0  0  0
  -26.3745  -36.3922   27.5803 C   0  0  0  0  0  0  0  0  0  0  0  0
  -22.4968  -11.7313   21.3073 C   0  0  0  0  0  0  0  0  0  0  0  0
  -23.9502  -10.0140   22.1881 C   0  0  0  0  0  0  0  0  0  0  0  0
  -26.2232  -38.1049   25.8893 C   0  0  0  0  0  0  0  0  0  0  0  0
  -25.6514  -35.5247   26.7624 C   0  0  0  0  0  0  0  0  0  0  0  0
  -28.4248  -29.2085   24.6875 C   0  0  0  0  0  0  0  0  0  0  0  0
  -21.5758  -11.4725   22.3224 C   0  0  0  0  0  0  0  0  0  0  0  0
  -23.0292   -9.7552   23.2032 C   0  0  0  0  0  0  0  0  0  0  0  0
  -28.8015  -27.8920   24.4206 C   0  0  0  0  0  0  0  0  0  0  0  0
  -22.1255  -11.1312   26.1546 C   0  0  0  0  0  0  0  0  0  0  0  0
  -22.6171  -10.9839   27.4515 C   0  0  0  0  0  0  0  0  0  0  0  0
  -26.7908  -27.5698   23.1162 C   0  0  0  0  0  0  0  0  0  0  0  0
  -21.7187   -8.7427   27.5376 C   0  0  0  0  0  0  0  0  0  0  0  0
  -30.4495  -18.0941   19.8721 C   0  0  0  0  0  0  0  0  0  0  0  0
  -23.6840  -11.0020   21.2402 C   0  0  0  0  0  0  0  0  0  0  0  0
  -24.4225  -11.1650   18.8038 C   0  0  0  0  0  0  0  0  0  0  0  0
  -25.5028  -37.2390   25.0516 C   0  0  0  0  0  0  0  0  0  0  0  0
  -27.2357  -29.7159   24.1563 C   0  0  0  0  0  0  0  0  0  0  0  0
  -25.2036  -35.9368   25.4957 C   0  0  0  0  0  0  0  0  0  0  0  0
  -26.4144  -28.8915   23.3698 C   0  0  0  0  0  0  0  0  0  0  0  0
  -21.8420  -10.4844   23.2703 C   0  0  0  0  0  0  0  0  0  0  0  0
  -27.9863  -27.0747   23.6371 C   0  0  0  0  0  0  0  0  0  0  0  0
  -21.4304  -10.0843   25.5491 C   0  0  0  0  0  0  0  0  0  0  0  0
  -22.4138   -9.7897   28.1430 C   0  0  0  0  0  0  0  0  0  0  0  0
  -21.2270   -8.8901   26.2406 C   0  0  0  0  0  0  0  0  0  0  0  0
  -24.6356  -11.2685   20.1915 C   0  0  0  0  0  0  0  0  0  0  0  0
  -25.6248  -11.5226   18.2443 C   0  0  0  0  0  0  0  0  0  0  0  0
  -29.3251  -17.3023   19.9754 C   0  0  0  0  0  0  0  0  0  0  0  0
  -28.9276  -19.6717   19.8014 C   0  0  0  0  0  0  0  0  0  0  0  0
  -23.2433  -10.7802   18.0849 C   0  0  0  0  0  0  0  0  0  0  0  0
  -28.9167  -24.1872   21.6531 C   0  0  0  0  0  0  0  0  0  0  0  0
  -24.9259  -32.6536   23.8235 C   0  0  0  0  0  0  0  0  0  0  0  0
  -25.0354  -31.2906   21.0775 C   0  0  0  0  0  0  0  0  0  0  0  0
  -25.0154  -30.5573   17.7459 C   0  0  0  0  0  0  0  0  0  0  0  0
  -30.1552  -14.9292   20.1354 C   0  0  0  0  0  0  0  0  0  0  0  0
  -25.0110  -37.7566   23.7231 C   0  0  0  0  0  0  0  0  0  0  0  0
  -26.7601  -31.1088   24.4685 C   0  0  0  0  0  0  0  0  0  0  0  0
  -25.1272  -29.4694   22.8482 C   0  0  0  0  0  0  0  0  0  0  0  0
  -24.5737  -36.6529   22.7635 C   0  0  0  0  0  0  0  0  0  0  0  0
  -30.3274  -11.5121   19.1498 C   0  0  0  0  0  0  0  0  0  0  0  0
  -23.6860  -35.6416   23.4819 C   0  0  0  0  0  0  0  0  0  0  0  0
  -27.9352  -21.4324   18.2669 C   0  0  0  0  0  0  0  0  0  0  0  0
  -28.8673  -11.0541   19.1729 C   0  0  0  0  0  0  0  0  0  0  0  0
  -28.9370  -22.3051   17.5094 C   0  0  0  0  0  0  0  0  0  0  0  0
  -29.2474  -24.2380   19.2084 C   0  0  0  0  0  0  0  0  0  0  0  0
  -30.6316  -12.4945   20.2794 C   0  0  0  0  0  0  0  0  0  0  0  0
  -28.2716  -13.1945   20.3774 C   0  0  0  0  0  0  0  0  0  0  0  0
  -24.4432  -34.9584   24.6271 C   0  0  1  0  0  0  0  0  0  0  0  0
  -28.2850  -21.0457   19.7147 C   0  0  2  0  0  0  0  0  0  0  0  0
  -28.5783  -23.5036   20.3651 C   0  0  1  0  0  0  0  0  0  0  0  0
  -26.0171  -31.7703   23.2940 C   0  0  1  0  0  0  0  0  0  0  0  0
  -27.9010  -12.2540   19.2191 C   0  0  2  0  0  0  0  0  0  0  0  0
  -28.8190  -23.7906   17.8213 C   0  0  0  0  0  0  0  0  0  0  0  0
  -23.5994  -30.7871   15.6869 C   0  0  0  0  0  0  0  0  0  0  0  0
  -23.2424  -29.0282   22.0626 C   0  0  0  0  0  0  0  0  0  0  0  0
  -22.5155  -28.6681   19.6941 C   0  0  0  0  0  0  0  0  0  0  0  0
  -22.0477  -30.8425   20.8236 C   0  0  0  0  0  0  0  0  0  0  0  0
  -27.0732  -32.1802   16.3709 C   0  0  0  0  0  0  0  0  0  0  0  0
  -27.9308  -25.2282   22.1388 C   0  0  0  0  0  0  0  0  0  1  0  0
  -24.4168  -30.2864   20.1382 C   0  0  1  0  0  0  0  0  0  0  0  0
  -24.7028  -31.4089   16.5287 C   0  0  2  0  0  0  0  0  0  0  0  0
  -23.0832  -29.7051   20.6866 C   0  0  0  0  0  0  0  0  0  0  0  0
  -30.2236  -19.4530   19.7718 N   0  0  0  0  0  0  0  0  0  0  0  0
  -25.8757  -11.6610   20.4950 N   0  0  0  0  0  0  0  0  0  0  0  0
  -26.4528  -11.8071   19.2901 N   0  0  0  0  0  0  0  0  0  0  0  0
  -25.3517  -30.8409   22.3652 N   0  0  0  0  0  0  0  0  0  0  0  0
  -29.6789  -13.6067   20.2580 N   0  0  0  0  0  0  0  0  0  0  0  0
  -26.0440  -11.6182   16.9646 N   0  0  0  0  0  0  0  0  0  0  0  0
  -23.0583   -9.4244   17.7817 N   0  0  0  0  0  0  0  0  0  0  0  0
  -29.1555  -15.9004   20.0934 N   0  0  0  0  0  0  0  0  0  0  0  0
  -25.3342  -33.9426   24.1087 N   0  0  0  0  0  0  0  0  0  0  0  0
  -24.2908  -30.9573   18.8488 N   0  0  0  0  0  0  0  0  0  0  0  0
  -29.0940  -22.0967   20.4219 N   0  3  0  0  0  0  0  0  0  0  0  0
  -25.9160  -31.5594   15.6764 N   0  3  0  0  0  0  0  0  0  0  0  0
  -22.3872  -11.6159   17.7078 O   0  0  0  0  0  0  0  0  0  0  0  0
  -29.9422  -23.9101   22.2733 O   0  0  0  0  0  0  0  0  0  0  0  0
  -23.7957  -32.2007   23.9621 O   0  0  0  0  0  0  0  0  0  0  0  0
  -25.2289  -32.4445   20.6846 O   0  0  0  0  0  0  0  0  0  0  0  0
  -25.8191  -29.6278   17.7200 O   0  0  0  0  0  0  0  0  0  0  0  0
  -31.3599  -15.1793   20.0449 O   0  0  0  0  0  0  0  0  0  0  0  0
  -20.9436  -10.2318   24.2611 O   0  0  0  0  0  0  0  0  0  0  0  0
  -28.3623  -25.7919   23.3767 O   0  0  0  0  0  0  0  0  0  1  0  0
  -22.8873   -9.6478   29.3880 F   0  0  0  0  0  0  0  0  0  0  0  0
  -20.5611   -7.8804   25.6636 F   0  0  0  0  0  0  0  0  0  0  0  0
  -27.5383  -24.1931   17.6018 F   0  0  0  0  0  0  0  0  0  0  0  0
  -29.5796  -24.4716   16.9161 F   0  0  0  0  0  0  0  0  0  0  0  0
  -27.9224  -18.2887   19.9489 S   0  0  0  0  0  0  0  0  0  0  0  0
  1  2  1  0  0  0  0
  1  5  2  0  0  0  0
  2  6  2  0  0  0  0
  3  8  2  0  0  0  0
  3 16  1  0  0  0  0
  4  9  1  0  0  0  0
  4 16  2  0  0  0  0
  5 18  1  0  0  0  0
  6 20  1  0  0  0  0
  7 10  2  0  0  0  0
  7 19  1  0  0  0  0
  8 22  1  0  0  0  0
  9 22  2  0  0  0  0
 10 23  1  0  0  0  0
 11 12  2  0  0  0  0
 11 24  1  0  0  0  0
 12 25  1  0  0  0  0
 13 21  1  0  0  0  0
 13 23  2  0  0  0  0
 14 25  2  0  0  0  0
 14 26  1  0  0  0  0
 15 29  2  0  0  0  0
 15 64  1  0  0  0  0
 16 27  1  0  0  0  0
 17 27  1  0  0  0  0
 17 28  2  0  0  0  0
 17 31  1  0  0  0  0
 18 20  2  0  0  0  0
 18 37  1  0  0  0  0
 19 21  2  0  0  0  0
 19 38  1  0  0  0  0
 20 49  1  0  0  0  0
 21 39  1  0  0  0  0
 22 82  1  0  0  0  0
 23 83  1  0  0  0  0
 24 26  2  0  0  0  0
 24 82  1  0  0  0  0
 25 84  1  0  0  0  0
 26 85  1  0  0  0  0
 27 65  2  0  0  0  0
 28 66  1  0  0  0  0
 28 69  1  0  0  0  0
 29 71  1  0  0  0  0
 29 88  1  0  0  0  0
 30 50  1  0  0  0  0
 30 64  2  0  0  0  0
 30 88  1  0  0  0  0
 31 70  1  0  0  0  0
 31 76  2  0  0  0  0
 32 51  1  0  0  0  0
 32 60  1  0  0  0  0
 32 77  2  0  0  0  0
 33 52  1  0  0  0  0
 33 72  1  0  0  0  0
 33 78  2  0  0  0  0
 34 61  1  0  0  0  0
 34 67  1  0  0  0  0
 34 79  2  0  0  0  0
 35 62  1  0  0  0  0
 35 73  1  0  0  0  0
 35 80  2  0  0  0  0
 36 68  1  0  0  0  0
 36 71  1  0  0  0  0
 36 81  2  0  0  0  0
 37 40  1  0  0  0  0
 38 52  1  0  0  0  0
 39 67  1  0  0  0  0
 40 42  1  0  0  0  0
 41 44  1  0  0  0  0
 41 47  1  0  0  0  0
 42 49  1  0  0  0  0
 43 45  1  0  0  0  0
 43 50  1  0  0  0  0
 44 53  1  0  0  0  0
 45 54  1  0  0  0  0
 46 51  1  0  0  0  0
 46 54  1  0  0  0  0
 47 68  1  0  0  0  0
 48 53  1  0  0  0  0
 48 68  1  0  0  0  0
 49 72  1  0  0  0  0
 50 74  1  0  0  0  0
 51 74  1  0  0  0  0
 52 67  1  0  0  0  0
 53 66  1  0  0  0  0
 54 86  1  0  0  0  0
 54 87  1  0  0  0  0
 55 62  1  0  0  0  0
 56 63  1  0  0  0  0
 57 63  1  0  0  0  0
 58 63  1  0  0  0  0
 59 75  1  0  0  0  0
 60 83  1  0  0  0  0
 61 63  1  0  0  0  0
 61 73  1  0  0  0  0
 62 75  1  0  0  0  0
 65 66  1  0  0  0  0
M  CHG  2  74   1  75   1
M  ISO  4  36 100  60 101  71 100  83 101
M  END
> <Batch ID>
0173

> <Smiles>
CNC(C)C(=O)NC(C(=O)N1Cc2cc([101O:1][101CH2:1]C(=O)C3CC(F)(F)CCC(c4ncc([100NH:0][100C:0](=O)N5CCCC(n6nc(-c7ccc(Oc8ccc(F)cc8F)cc7)c(C(N)=O)c6N)C5)s4)N3)ccc2CC1C(=O)NC1CCCc2ccccc21)C(C)(C)C

> <Shape>
0.285

> <Color>
0.084

> <Negative vol penalty>
0.000

$$$$

  -OEChem-04052304293D

 86 94  0     1  0  0  0  0  0999 V2000
  -27.9959  -33.3331   14.8379 C   0  0  0  0  0  0  0  0  0  0  0  0
  -27.7024  -31.9887   15.0427 C   0  0  0  0  0  0  0  0  0  0  0  0
  -23.0068  -10.1203   19.9201 C   0  0  0  0  0  0  0  0  0  0  0  0
  -23.8639   -9.9397   22.1717 C   0  0  0  0  0  0  0  0  0  0  0  0
  -28.3441  -34.1419   15.9189 C   0  0  0  0  0  0  0  0  0  0  0  0
  -27.7581  -31.4521   16.3286 C   0  0  0  0  0  0  0  0  0  0  0  0
  -24.1605  -27.0728   18.6492 C   0  0  0  0  0  0  0  0  0  0  0  0
  -22.2342   -8.9768   20.1224 C   0  0  0  0  0  0  0  0  0  0  0  0
  -23.0912   -8.7962   22.3741 C   0  0  0  0  0  0  0  0  0  0  0  0
  -24.3408  -25.7001   18.8135 C   0  0  0  0  0  0  0  0  0  0  0  0
  -19.8657   -8.0616   23.0647 C   0  0  0  0  0  0  0  0  0  0  0  0
  -19.1586   -7.9628   24.2629 C   0  0  0  0  0  0  0  0  0  0  0  0
  -25.0483  -26.0717   21.0896 C   0  0  0  0  0  0  0  0  0  0  0  0
  -31.8383  -18.3100   20.2404 C   0  0  0  0  0  0  0  0  0  0  0  0
  -30.4336  -20.1185   19.4704 C   0  0  0  0  0  0  0  0  0  0  0  0
  -20.3613   -5.9390   24.8058 C   0  0  0  0  0  0  0  0  0  0  0  0
  -23.8218  -10.6018   20.9447 C   0  0  0  0  0  0  0  0  0  0  0  0
  -24.2468  -13.1168   20.9856 C   0  0  0  0  0  0  0  0  0  0  0  0
  -28.3947  -33.6172   17.2199 C   0  0  0  0  0  0  0  0  0  0  0  0
  -24.4337  -27.9577   19.7022 C   0  0  0  0  0  0  0  0  0  0  0  0
  -28.1086  -32.2544   17.4277 C   0  0  0  0  0  0  0  0  0  0  0  0
  -24.8683  -27.4549   20.9369 C   0  0  0  0  0  0  0  0  0  0  0  0
  -30.8404  -17.9140   21.1309 C   0  0  0  0  0  0  0  0  0  0  0  0
  -29.4356  -19.7226   20.3609 C   0  0  0  0  0  0  0  0  0  0  0  0
  -22.2764   -8.3147   21.3494 C   0  0  0  0  0  0  0  0  0  0  0  0
  -24.7875  -25.1996   20.0330 C   0  0  0  0  0  0  0  0  0  0  0  0
  -20.8206   -7.0991   22.7369 C   0  0  0  0  0  0  0  0  0  0  0  0
  -19.4064   -6.9015   25.1335 C   0  0  0  0  0  0  0  0  0  0  0  0
  -31.6349  -19.4123   19.4102 C   0  0  0  0  0  0  0  0  0  0  0  0
  -21.0684   -6.0378   23.6075 C   0  0  0  0  0  0  0  0  0  0  0  0
  -29.6390  -18.6203   21.1911 C   0  0  0  0  0  0  0  0  0  0  0  0
  -24.6206  -11.7826   20.7361 C   0  0  0  0  0  0  0  0  0  0  0  0
  -25.3482  -13.8547   20.6265 C   0  0  0  0  0  0  0  0  0  0  0  0
  -26.1899  -23.3326   19.8982 C   0  0  0  0  0  0  0  0  0  1  0  0
  -23.0144  -13.6420   21.4964 C   0  0  0  0  0  0  0  0  0  0  0  0
  -26.4751  -22.0306   20.0213 C   0  0  0  0  0  0  0  0  0  0  0  0
  -27.8515  -21.5509   19.6695 C   0  0  0  0  0  0  0  0  0  0  0  0
  -26.4683  -30.3597   20.1430 C   0  0  0  0  0  0  0  0  0  0  0  0
  -24.8271  -30.7270   22.9168 C   0  0  0  0  0  0  0  0  0  0  0  0
  -22.8603  -29.3238   25.3270 C   0  0  0  0  0  0  0  0  0  0  0  0
  -30.8674  -14.6812   20.6376 C   0  0  0  0  0  0  0  0  0  0  0  0
  -28.8223  -34.5194   18.3504 C   0  0  0  0  0  0  0  0  0  0  0  0
  -24.2086  -29.4333   19.5172 C   0  0  0  0  0  0  0  0  0  0  0  0
  -25.1562  -28.3610   22.1050 C   0  0  0  0  0  0  0  0  0  0  0  0
  -28.4935  -33.9614   19.7327 C   0  0  0  0  0  0  0  0  0  0  0  0
  -29.5455  -12.5103   18.1443 C   0  0  0  0  0  0  0  0  0  0  0  0
  -28.9022  -32.4948   19.8274 C   0  0  0  0  0  0  0  0  0  0  0  0
  -28.1185  -12.2328   18.6202 C   0  0  0  0  0  0  0  0  0  0  0  0
  -30.5204  -12.6155   19.3150 C   0  0  0  0  0  0  0  0  0  0  0  0
  -28.7066  -13.3068   20.8336 C   0  0  0  0  0  0  0  0  0  0  0  0
  -28.1340  -31.6413   18.8111 C   0  0  1  0  0  0  0  0  0  0  0  0
  -25.0095  -30.2871   20.4955 C   0  0  1  0  0  0  0  0  0  0  0  0
  -27.6774  -13.2478   19.6919 C   0  0  2  0  0  0  0  0  0  0  0  0
  -21.7080  -29.8632   27.4900 C   0  0  0  0  0  0  0  0  0  0  0  0
  -27.5056  -30.5990   24.3727 C   0  0  0  0  0  0  0  0  0  0  0  0
  -26.2507  -30.1861   26.4995 C   0  0  0  0  0  0  0  0  0  0  0  0
  -25.9209  -32.3217   25.2532 C   0  0  0  0  0  0  0  0  0  0  0  0
  -20.1943  -28.7232   24.1907 C   0  0  0  0  0  0  0  0  0  0  0  0
  -31.0618  -16.7350   22.0171 C   0  0  0  0  0  0  0  0  0  0  0  0
  -24.9586  -30.1792   24.3174 C   0  0  1  0  0  0  0  0  0  0  0  0
  -21.5721  -29.7957   25.9768 C   0  0  2  0  0  0  0  0  0  0  0  0
  -26.1555  -30.8044   25.0883 C   0  0  0  0  0  0  0  0  0  0  0  0
  -25.8622  -11.6762   20.2555 N   0  0  0  0  0  0  0  0  0  0  0  0
  -26.2783  -12.9529   20.2000 N   0  0  0  0  0  0  0  0  0  0  0  0
  -24.9269  -29.7966   21.8727 N   0  0  0  0  0  0  0  0  0  0  0  0
  -30.0448  -13.5956   20.2945 N   0  0  0  0  0  0  0  0  0  0  0  0
  -25.6020  -15.1806   20.6370 N   0  0  0  0  0  0  0  0  0  0  0  0
  -21.9864  -12.7441   21.8148 N   0  0  0  0  0  0  0  0  0  0  0  0
  -28.2174  -20.4415   20.4193 N   0  0  0  0  0  0  0  0  0  0  0  0
  -26.7876  -31.3890   19.2781 N   0  0  0  0  0  0  0  0  0  0  0  0
  -23.6638  -30.3819   24.9582 N   0  0  0  0  0  0  0  0  0  0  0  0
  -30.3379  -15.5665   21.5685 N   0  0  0  0  0  0  0  0  0  0  0  0
  -20.4546  -28.8669   25.6463 N   0  3  0  0  0  0  0  0  0  0  0  0
  -22.8243  -14.8724   21.6499 O   0  0  0  0  0  0  0  0  0  0  0  0
  -28.5169  -22.1203   18.8111 O   0  0  0  0  0  0  0  0  0  0  0  0
  -27.2469  -29.5433   20.6215 O   0  0  0  0  0  0  0  0  0  0  0  0
  -24.6356  -31.9348   22.7554 O   0  0  0  0  0  0  0  0  0  0  0  0
  -23.1286  -28.1352   25.1662 O   0  0  0  0  0  0  0  0  0  0  0  0
  -31.9884  -14.8519   20.1465 O   0  0  0  0  0  0  0  0  0  0  0  0
  -25.5497  -21.1066   20.4623 O   0  0  0  0  0  0  0  0  0  0  0  0
  -21.5224   -7.1990   21.5473 O   0  0  0  0  0  0  0  0  0  0  0  0
  -24.9649  -23.8602   20.1959 O   0  0  0  0  0  0  0  0  0  1  0  0
  -18.7284   -6.8076   26.2848 F   0  0  0  0  0  0  0  0  0  0  0  0
  -32.5932  -19.7923   18.5548 F   0  0  0  0  0  0  0  0  0  0  0  0
  -21.9855   -5.1107   23.2986 F   0  0  0  0  0  0  0  0  0  0  0  0
  -28.6804  -18.2380   22.0484 F   0  0  0  0  0  0  0  0  0  0  0  0
  1  2  1  0  0  0  0
  1  5  2  0  0  0  0
  2  6  2  0  0  0  0
  3  8  2  0  0  0  0
  3 17  1  0  0  0  0
  4  9  1  0  0  0  0
  4 17  2  0  0  0  0
  5 19  1  0  0  0  0
  6 21  1  0  0  0  0
  7 10  2  0  0  0  0
  7 20  1  0  0  0  0
  8 25  1  0  0  0  0
  9 25  2  0  0  0  0
 10 26  1  0  0  0  0
 11 12  2  0  0  0  0
 11 27  1  0  0  0  0
 12 28  1  0  0  0  0
 13 22  1  0  0  0  0
 13 26  2  0  0  0  0
 14 23  2  0  0  0  0
 14 29  1  0  0  0  0
 15 24  1  0  0  0  0
 15 29  2  0  0  0  0
 16 28  2  0  0  0  0
 16 30  1  0  0  0  0
 17 32  1  0  0  0  0
 18 32  1  0  0  0  0
 18 33  2  0  0  0  0
 18 35  1  0  0  0  0
 19 21  2  0  0  0  0
 19 42  1  0  0  0  0
 20 22  2  0  0  0  0
 20 43  1  0  0  0  0
 21 51  1  0  0  0  0
 22 44  1  0  0  0  0
 23 31  1  0  0  0  0
 23 59  1  0  0  0  0
 24 31  2  0  0  0  0
 24 69  1  0  0  0  0
 25 81  1  0  0  0  0
 26 82  1  0  0  0  0
 27 30  2  0  0  0  0
 27 81  1  0  0  0  0
 28 83  1  0  0  0  0
 29 84  1  0  0  0  0
 30 85  1  0  0  0  0
 31 86  1  0  0  0  0
 32 63  2  0  0  0  0
 33 64  1  0  0  0  0
 33 67  1  0  0  0  0
 34 36  2  0  0  0  0
 34 82  1  0  0  0  0
 35 68  1  0  0  0  0
 35 74  2  0  0  0  0
 36 37  1  0  0  0  0
 36 80  1  0  0  0  0
 37 69  1  0  0  0  0
 37 75  2  0  0  0  0
 38 52  1  0  0  0  0
 38 70  1  0  0  0  0
 38 76  2  0  0  0  0
 39 60  1  0  0  0  0
 39 65  1  0  0  0  0
 39 77  2  0  0  0  0
 40 61  1  0  0  0  0
 40 71  1  0  0  0  0
 40 78  2  0  0  0  0
 41 66  1  0  0  0  0
 41 72  1  0  0  0  0
 41 79  2  0  0  0  0
 42 45  1  0  0  0  0
 43 52  1  0  0  0  0
 44 65  1  0  0  0  0
 45 47  1  0  0  0  0
 46 48  1  0  0  0  0
 46 49  1  0  0  0  0
 47 51  1  0  0  0  0
 48 53  1  0  0  0  0
 49 66  1  0  0  0  0
 50 53  1  0  0  0  0
 50 66  1  0  0  0  0
 51 70  1  0  0  0  0
 52 65  1  0  0  0  0
 53 64  1  0  0  0  0
 54 61  1  0  0  0  0
 55 62  1  0  0  0  0
 56 62  1  0  0  0  0
 57 62  1  0  0  0  0
 58 73  1  0  0  0  0
 59 72  1  0  0  0  0
 60 62  1  0  0  0  0
 60 71  1  0  0  0  0
 61 73  1  0  0  0  0
 63 64  1  0  0  0  0
M  CHG  1  73   1
M  ISO  4  34 101  41 100  72 100  82 101
M  END
> <Batch ID>
0173

> <Smiles>
CNC(C)C(=O)NC(C(=O)N1Cc2cc([101O:1][101CH2:1]C(=O)C(=O)Nc3cc(F)cc(C[100NH:0][100C:0](=O)N4CCCC(n5nc(-c6ccc(Oc7ccc(F)cc7F)cc6)c(C(N)=O)c5N)C4)c3F)ccc2CC1C(=O)NC1CCCc2ccccc21)C(C)(C)C

> <Shape>
0.322

> <Color>
0.219

> <Negative vol penalty>
0.000

$$$$

  -OEChem-04052304293D

 85 93  0     1  0  0  0  0  0999 V2000
  -30.3466  -18.3680   16.0315 C   0  0  0  0  0  0  0  0  0  0  0  0
  -29.9627  -18.7216   17.3211 C   0  0  0  0  0  0  0  0  0  0  0  0
  -23.0743   -9.8672   19.9435 C   0  0  0  0  0  0  0  0  0  0  0  0
  -23.8313   -9.8789   22.2378 C   0  0  0  0  0  0  0  0  0  0  0  0
  -32.6479  -17.4960   23.4523 C   0  0  0  0  0  0  0  0  0  0  0  0
  -31.6217  -18.6937   15.5710 C   0  0  0  0  0  0  0  0  0  0  0  0
  -30.8542  -19.4001   18.1514 C   0  0  0  0  0  0  0  0  0  0  0  0
  -28.6757  -23.2624   20.5970 C   0  0  0  0  0  0  0  0  0  0  0  0
  -32.0607  -16.6105   22.5486 C   0  0  0  0  0  0  0  0  0  0  0  0
  -22.3297   -8.7149   20.1950 C   0  0  0  0  0  0  0  0  0  0  0  0
  -23.0866   -8.7266   22.4893 C   0  0  0  0  0  0  0  0  0  0  0  0
  -27.8902  -22.9519   21.7062 C   0  0  0  0  0  0  0  0  0  0  0  0
  -19.3793   -7.9225   21.6442 C   0  0  0  0  0  0  0  0  0  0  0  0
  -18.0730   -7.8757   21.1573 C   0  0  0  0  0  0  0  0  0  0  0  0
  -29.7204  -23.5461   23.1610 C   0  0  0  0  0  0  0  0  0  0  0  0
  -29.8766  -17.4615   23.1341 C   0  0  0  0  0  0  0  0  0  0  0  0
  -18.6337   -5.9296   19.8400 C   0  0  0  0  0  0  0  0  0  0  0  0
  -23.8252  -10.4492   20.9649 C   0  0  0  0  0  0  0  0  0  0  0  0
  -31.8495  -18.3642   24.1969 C   0  0  0  0  0  0  0  0  0  0  0  0
  -24.1681  -12.9740   20.8399 C   0  0  0  0  0  0  0  0  0  0  0  0
  -32.5258  -19.3850   16.3927 C   0  0  0  0  0  0  0  0  0  0  0  0
  -29.9953  -23.7075   20.7614 C   0  0  0  0  0  0  0  0  0  0  0  0
  -32.1431  -19.7341   17.7019 C   0  0  0  0  0  0  0  0  0  0  0  0
  -30.5197  -23.8641   22.0524 C   0  0  0  0  0  0  0  0  0  0  0  0
  -30.6750  -16.5933   22.3895 C   0  0  0  0  0  0  0  0  0  0  0  0
  -30.4638  -18.3470   24.0378 C   0  0  0  0  0  0  0  0  0  0  0  0
  -22.3358   -8.1446   21.4679 C   0  0  0  0  0  0  0  0  0  0  0  0
  -28.4135  -23.0909   22.9884 C   0  0  0  0  0  0  0  0  0  0  0  0
  -20.3128   -6.9729   21.2289 C   0  0  0  0  0  0  0  0  0  0  0  0
  -17.7002   -6.8793   20.2553 C   0  0  0  0  0  0  0  0  0  0  0  0
  -19.9400   -5.9764   20.3268 C   0  0  0  0  0  0  0  0  0  0  0  0
  -24.5950  -11.6392   20.7056 C   0  0  0  0  0  0  0  0  0  0  0  0
  -25.2610  -13.7222   20.4764 C   0  0  0  0  0  0  0  0  0  0  0  0
  -32.4949  -19.2766   25.1328 C   0  0  0  0  0  0  0  0  0  0  0  0
  -22.8973  -13.4912   21.2560 C   0  0  0  0  0  0  0  0  0  0  0  0
  -32.8543  -22.6151   19.9035 C   0  0  0  0  0  0  0  0  0  0  0  0
  -33.8675  -25.4527   21.1052 C   0  0  0  0  0  0  0  0  0  0  0  0
  -28.2464  -19.3166   24.7346 C   0  0  0  0  0  0  0  0  0  0  0  0
  -33.2949  -28.0782   23.2089 C   0  0  0  0  0  0  0  0  0  0  0  0
  -30.7273  -14.7662   20.6559 C   0  0  0  0  0  0  0  0  0  0  0  0
  -33.9098  -19.6735   15.8673 C   0  0  0  0  0  0  0  0  0  0  0  0
  -30.8206  -24.0639   19.5555 C   0  0  0  0  0  0  0  0  0  0  0  0
  -31.9238  -24.3576   22.2834 C   0  0  0  0  0  0  0  0  0  0  0  0
  -34.6631  -20.7237   16.6797 C   0  0  0  0  0  0  0  0  0  0  0  0
  -29.6151  -12.3477   18.2914 C   0  0  0  0  0  0  0  0  0  0  0  0
  -34.5374  -20.4351   18.1723 C   0  0  0  0  0  0  0  0  0  0  0  0
  -28.1748  -12.0576   18.7197 C   0  0  0  0  0  0  0  0  0  0  0  0
  -30.5287  -12.5787   19.4937 C   0  0  0  0  0  0  0  0  0  0  0  0
  -28.6203  -13.3069   20.8710 C   0  0  0  0  0  0  0  0  0  0  0  0
  -33.0731  -20.4924   18.6239 C   0  0  1  0  0  0  0  0  0  0  0  0
  -32.3217  -24.0178   19.8240 C   0  0  1  0  0  0  0  0  0  0  0  0
  -27.6489  -13.1314   19.6923 C   0  0  2  0  0  0  0  0  0  0  0  0
  -34.3206  -30.2266   24.0024 C   0  0  0  0  0  0  0  0  0  0  0  0
  -35.8120  -23.8768   22.8503 C   0  0  0  0  0  0  0  0  0  0  0  0
  -36.1054  -25.9286   24.2547 C   0  0  0  0  0  0  0  0  0  0  0  0
  -36.7634  -25.9615   21.8487 C   0  0  0  0  0  0  0  0  0  0  0  0
  -31.0220  -29.6754   22.1881 C   0  0  0  0  0  0  0  0  0  0  0  0
  -27.7530  -20.3842   25.7012 C   0  0  0  0  0  0  0  0  0  0  0  0
  -26.4654  -21.0521   25.2314 C   0  0  0  0  0  0  0  0  0  0  0  0
  -26.6580  -21.7749   23.9062 C   0  0  0  0  0  0  0  0  0  1  0  0
  -34.3110  -25.9415   22.4629 C   0  0  1  0  0  0  0  0  0  0  0  0
  -33.3839  -29.5784   22.9948 C   0  0  2  0  0  0  0  0  0  0  0  0
  -35.7221  -25.4159   22.8501 C   0  0  0  0  0  0  0  0  0  0  0  0
  -25.8604  -11.5420   20.2891 N   0  0  0  0  0  0  0  0  0  0  0  0
  -33.7800  -19.3242   25.3108 N   0  0  0  0  0  0  0  0  0  0  0  0
  -26.2379  -12.8252   20.1585 N   0  0  0  0  0  0  0  0  0  0  0  0
  -32.6934  -24.6870   21.0723 N   0  0  0  0  0  0  0  0  0  0  0  0
  -29.9690  -13.6117   20.3682 N   0  0  0  0  0  0  0  0  0  0  0  0
  -25.4720  -15.0535   20.4007 N   0  0  0  0  0  0  0  0  0  0  0  0
  -21.8846  -12.5831   21.5939 N   0  0  0  0  0  0  0  0  0  0  0  0
  -29.6342  -19.2183   24.7829 N   0  0  0  0  0  0  0  0  0  0  0  0
  -30.0793  -15.6933   21.4715 N   0  0  0  0  0  0  0  0  0  0  0  0
  -32.6402  -21.8665   18.7619 N   0  0  0  0  0  0  0  0  0  0  0  0
  -34.2039  -27.3960   22.4280 N   0  0  0  0  0  0  0  0  0  0  0  0
  -32.0379  -30.2025   23.1353 N   0  3  0  0  0  0  0  0  0  0  0  0
  -22.6614  -14.7220   21.3104 O   0  0  0  0  0  0  0  0  0  0  0  0
  -33.4191  -22.2402   20.9243 O   0  0  0  0  0  0  0  0  0  0  0  0
  -34.5342  -25.7456   20.1095 O   0  0  0  0  0  0  0  0  0  0  0  0
  -27.4773  -18.6658   24.0352 O   0  0  0  0  0  0  0  0  0  0  0  0
  -32.5011  -27.5632   23.9933 O   0  0  0  0  0  0  0  0  0  0  0  0
  -31.8571  -14.9335   20.1894 O   0  0  0  0  0  0  0  0  0  0  0  0
  -21.6091   -7.0203   21.7137 O   0  0  0  0  0  0  0  0  0  0  0  0
  -27.6492  -22.7879   24.0728 O   0  0  0  0  0  0  0  0  0  1  0  0
  -16.4453   -6.8335   19.7890 F   0  0  0  0  0  0  0  0  0  0  0  0
  -20.8322   -5.0607   19.9251 F   0  0  0  0  0  0  0  0  0  0  0  0
  1  2  1  0  0  0  0
  1  6  2  0  0  0  0
  2  7  2  0  0  0  0
  3 10  2  0  0  0  0
  3 18  1  0  0  0  0
  4 11  1  0  0  0  0
  4 18  2  0  0  0  0
  5  9  2  0  0  0  0
  5 19  1  0  0  0  0
  6 21  1  0  0  0  0
  7 23  1  0  0  0  0
  8 12  2  0  0  0  0
  8 22  1  0  0  0  0
  9 25  1  0  0  0  0
 10 27  1  0  0  0  0
 11 27  2  0  0  0  0
 12 28  1  0  0  0  0
 13 14  2  0  0  0  0
 13 29  1  0  0  0  0
 14 30  1  0  0  0  0
 15 24  1  0  0  0  0
 15 28  2  0  0  0  0
 16 25  2  0  0  0  0
 16 26  1  0  0  0  0
 17 30  2  0  0  0  0
 17 31  1  0  0  0  0
 18 32  1  0  0  0  0
 19 26  2  0  0  0  0
 19 34  1  0  0  0  0
 20 32  1  0  0  0  0
 20 33  2  0  0  0  0
 20 35  1  0  0  0  0
 21 23  2  0  0  0  0
 21 41  1  0  0  0  0
 22 24  2  0  0  0  0
 22 42  1  0  0  0  0
 23 50  1  0  0  0  0
 24 43  1  0  0  0  0
 25 72  1  0  0  0  0
 26 71  1  0  0  0  0
 27 82  1  0  0  0  0
 28 83  1  0  0  0  0
 29 31  2  0  0  0  0
 29 82  1  0  0  0  0
 30 84  1  0  0  0  0
 31 85  1  0  0  0  0
 32 64  2  0  0  0  0
 33 66  1  0  0  0  0
 33 69  1  0  0  0  0
 34 65  2  0  0  0  0
 35 70  1  0  0  0  0
 35 76  2  0  0  0  0
 36 51  1  0  0  0  0
 36 73  1  0  0  0  0
 36 77  2  0  0  0  0
 37 61  1  0  0  0  0
 37 67  1  0  0  0  0
 37 78  2  0  0  0  0
 38 58  1  0  0  0  0
 38 71  1  0  0  0  0
 38 79  2  0  0  0  0
 39 62  1  0  0  0  0
 39 74  1  0  0  0  0
 39 80  2  0  0  0  0
 40 68  1  0  0  0  0
 40 72  1  0  0  0  0
 40 81  2  0  0  0  0
 41 44  1  0  0  0  0
 42 51  1  0  0  0  0
 43 67  1  0  0  0  0
 44 46  1  0  0  0  0
 45 47  1  0  0  0  0
 45 48  1  0  0  0  0
 46 50  1  0  0  0  0
 47 52  1  0  0  0  0
 48 68  1  0  0  0  0
 49 52  1  0  0  0  0
 49 68  1  0  0  0  0
 50 73  1  0  0  0  0
 51 67  1  0  0  0  0
 52 66  1  0  0  0  0
 53 62  1  0  0  0  0
 54 63  1  0  0  0  0
 55 63  1  0  0  0  0
 56 63  1  0  0  0  0
 57 75  1  0  0  0  0
 58 59  1  0  0  0  0
 59 60  1  0  0  0  0
 60 83  1  0  0  0  0
 61 63  1  0  0  0  0
 61 74  1  0  0  0  0
 62 75  1  0  0  0  0
 64 66  1  0  0  0  0
M  CHG  1  75   1
M  ISO  4  40 100  60 101  72 100  83 101
M  END
> <Batch ID>
0173

> <Smiles>
CNC(C)C(=O)NC(C(=O)N1Cc2cc([101O:1][101CH2:1]CCC(=O)Nc3cc([100NH:0][100C:0](=O)N4CCCC(n5nc(-c6ccc(Oc7ccc(F)cc7F)cc6)c(C(N)=O)c5N)C4)ccc3C=N)ccc2CC1C(=O)NC1CCCc2ccccc21)C(C)(C)C

> <Shape>
0.174

> <Color>
0.184

> <Negative vol penalty>
0.000

$$$$

  -OEChem-04052304293D

 86 94  0     1  0  0  0  0  0999 V2000
  -27.7586  -24.1626   17.2302 C   0  0  0  0  0  0  0  0  0  0  0  0
  -26.5685  -24.4886   17.8728 C   0  0  0  0  0  0  0  0  0  0  0  0
  -27.5523  -17.8345   22.0367 C   0  0  0  0  0  0  0  0  0  0  0  0
  -26.1295  -16.8370   20.3581 C   0  0  0  0  0  0  0  0  0  0  0  0
  -28.9744  -24.6020   17.7524 C   0  0  0  0  0  0  0  0  0  0  0  0
  -26.5937  -25.2533   19.0385 C   0  0  0  0  0  0  0  0  0  0  0  0
  -23.0951  -28.9146   19.0361 C   0  0  0  0  0  0  0  0  0  0  0  0
  -17.0265  -21.0152   24.4849 C   0  0  0  0  0  0  0  0  0  0  0  0
  -28.6285  -17.0770   21.5746 C   0  0  0  0  0  0  0  0  0  0  0  0
  -27.2057  -16.0795   19.8959 C   0  0  0  0  0  0  0  0  0  0  0  0
  -21.7820  -28.5407   19.3184 C   0  0  0  0  0  0  0  0  0  0  0  0
  -29.4893  -13.6174   18.5056 C   0  0  0  0  0  0  0  0  0  0  0  0
  -16.1933  -22.1329   24.4387 C   0  0  0  0  0  0  0  0  0  0  0  0
  -29.2648  -12.2667   18.2397 C   0  0  0  0  0  0  0  0  0  0  0  0
  -22.0559  -29.3135   21.5870 C   0  0  0  0  0  0  0  0  0  0  0  0
  -28.6266  -11.9192   20.5438 C   0  0  0  0  0  0  0  0  0  0  0  0
  -26.3027  -17.7145   21.4284 C   0  0  0  0  0  0  0  0  0  0  0  0
  -24.8039  -19.7783   21.4712 C   0  0  0  0  0  0  0  0  0  0  0  0
  -29.0138  -25.3807   18.9198 C   0  0  0  0  0  0  0  0  0  0  0  0
  -23.9033  -29.4817   20.0319 C   0  0  0  0  0  0  0  0  0  0  0  0
  -27.8113  -25.7024   19.5775 C   0  0  0  0  0  0  0  0  0  0  0  0
  -23.3781  -29.6961   21.3142 C   0  0  0  0  0  0  0  0  0  0  0  0
  -16.7406  -22.4443   22.1061 C   0  0  0  0  0  0  0  0  0  0  0  0
  -17.7168  -20.6121   23.3418 C   0  0  0  0  0  0  0  0  0  0  0  0
  -28.4553  -16.1995   20.5042 C   0  0  0  0  0  0  0  0  0  0  0  0
  -21.2631  -28.7375   20.5947 C   0  0  0  0  0  0  0  0  0  0  0  0
  -29.2826  -14.1190   19.7907 C   0  0  0  0  0  0  0  0  0  0  0  0
  -28.8334  -11.4176   19.2588 C   0  0  0  0  0  0  0  0  0  0  0  0
  -16.0504  -22.8474   23.2493 C   0  0  0  0  0  0  0  0  0  0  0  0
  -28.8513  -13.2699   20.8098 C   0  0  0  0  0  0  0  0  0  0  0  0
  -17.5738  -21.3266   22.1524 C   0  0  0  0  0  0  0  0  0  0  0  0
  -25.1905  -18.4962   21.9057 C   0  0  0  0  0  0  0  0  0  0  0  0
  -23.6983  -20.0787   22.2287 C   0  0  0  0  0  0  0  0  0  0  0  0
  -19.6388  -27.0590   20.7184 C   0  0  0  0  0  0  0  0  0  1  0  0
  -25.3917  -20.6222   20.4722 C   0  0  0  0  0  0  0  0  0  0  0  0
  -18.4335  -26.5126   20.9419 C   0  0  0  0  0  0  0  0  0  0  0  0
  -18.2757  -25.0412   20.7094 C   0  0  0  0  0  0  0  0  0  0  0  0
  -26.6217  -28.6536   21.4560 C   0  0  0  0  0  0  0  0  0  0  0  0
  -26.3437  -31.5821   22.8231 C   0  0  0  0  0  0  0  0  0  0  0  0
  -24.3139  -34.1587   23.7652 C   0  0  0  0  0  0  0  0  0  0  0  0
  -18.8142  -18.6592   24.4945 C   0  0  0  0  0  0  0  0  0  0  0  0
  -30.3552  -25.7927   19.4726 C   0  0  0  0  0  0  0  0  0  0  0  0
  -25.3092  -29.9043   19.7041 C   0  0  0  0  0  0  0  0  0  0  0  0
  -24.1980  -30.3198   22.4129 C   0  0  0  0  0  0  0  0  0  0  0  0
  -30.2702  -26.9145   20.5044 C   0  0  0  0  0  0  0  0  0  0  0  0
  -21.7560  -17.7583   26.2864 C   0  0  0  0  0  0  0  0  0  0  0  0
  -29.1654  -26.6267   21.5160 C   0  0  0  0  0  0  0  0  0  0  0  0
  -22.8800  -17.9754   25.2707 C   0  0  0  0  0  0  0  0  0  0  0  0
  -20.4908  -17.2149   25.6248 C   0  0  0  0  0  0  0  0  0  0  0  0
  -21.1283  -18.2129   23.4645 C   0  0  0  0  0  0  0  0  0  0  0  0
  -27.7958  -26.5509   20.8305 C   0  0  1  0  0  0  0  0  0  0  0  0
  -26.2064  -30.0001   20.9342 C   0  0  1  0  0  0  0  0  0  0  0  0
  -22.4023  -18.8208   24.0737 C   0  0  2  0  0  0  0  0  0  0  0  0
  -24.3699  -36.3991   24.8943 C   0  0  0  0  0  0  0  0  0  0  0  0
  -26.6336  -30.2071   25.5315 C   0  0  0  0  0  0  0  0  0  0  0  0
  -25.7462  -32.2878   26.6046 C   0  0  0  0  0  0  0  0  0  0  0  0
  -27.8817  -32.3637   25.3175 C   0  0  0  0  0  0  0  0  0  0  0  0
  -23.2853  -35.5298   21.3526 C   0  0  0  0  0  0  0  0  0  0  0  0
  -16.5868  -23.2139   20.8262 C   0  0  0  0  0  0  0  0  0  0  0  0
  -25.6935  -32.1202   24.0747 C   0  0  1  0  0  0  0  0  0  0  0  0
  -24.4330  -35.6591   23.5673 C   0  0  2  0  0  0  0  0  0  0  0  0
  -26.4737  -31.7312   25.3621 C   0  0  0  0  0  0  0  0  0  0  0  0
  -24.3951  -18.0153   22.8649 N   0  0  0  0  0  0  0  0  0  0  0  0
  -23.4978  -19.0004   23.0395 N   0  0  0  0  0  0  0  0  0  0  0  0
  -25.5690  -30.7103   22.0449 N   0  0  0  0  0  0  0  0  0  0  0  0
  -20.0956  -18.0687   24.5025 N   0  0  0  0  0  0  0  0  0  0  0  0
  -22.8878  -21.1573   22.2737 N   0  0  0  0  0  0  0  0  0  0  0  0
  -26.5242  -20.1592   19.7885 N   0  0  0  0  0  0  0  0  0  0  0  0
  -18.5628  -19.4766   23.3929 N   0  0  0  0  0  0  0  0  0  0  0  0
  -16.9923  -24.5938   20.9725 N   0  0  0  0  0  0  0  0  0  0  0  0
  -27.3036  -27.8797   20.5364 N   0  0  0  0  0  0  0  0  0  0  0  0
  -25.5503  -33.5582   23.8744 N   0  0  0  0  0  0  0  0  0  0  0  0
  -23.3286  -36.1563   22.6989 N   0  3  0  0  0  0  0  0  0  0  0  0
  -24.9362  -21.7601   20.2055 O   0  0  0  0  0  0  0  0  0  0  0  0
  -19.2053  -24.3355   20.3280 O   0  0  0  0  0  0  0  0  0  0  0  0
  -26.3454  -28.3406   22.6081 O   0  0  0  0  0  0  0  0  0  0  0  0
  -27.4939  -31.9282   22.5424 O   0  0  0  0  0  0  0  0  0  0  0  0
  -23.2321  -33.5780   23.8214 O   0  0  0  0  0  0  0  0  0  0  0  0
  -18.0097  -18.4767   25.4118 O   0  0  0  0  0  0  0  0  0  0  0  0
  -17.3302  -27.2160   21.3729 O   0  0  0  0  0  0  0  0  0  0  0  0
  -29.5053  -15.4604   20.0529 O   0  0  0  0  0  0  0  0  0  0  0  0
  -19.9819  -28.3728   20.8731 O   0  0  0  0  0  0  0  0  0  1  0  0
  -28.6163  -10.1208   19.0029 F   0  0  0  0  0  0  0  0  0  0  0  0
  -15.2459  -23.9189   23.2142 F   0  0  0  0  0  0  0  0  0  0  0  0
  -28.6498  -13.7462   22.0460 F   0  0  0  0  0  0  0  0  0  0  0  0
  -18.2378  -20.9405   21.0523 F   0  0  0  0  0  0  0  0  0  0  0  0
  1  2  1  0  0  0  0
  1  5  2  0  0  0  0
  2  6  2  0  0  0  0
  3  9  2  0  0  0  0
  3 17  1  0  0  0  0
  4 10  1  0  0  0  0
  4 17  2  0  0  0  0
  5 19  1  0  0  0  0
  6 21  1  0  0  0  0
  7 11  2  0  0  0  0
  7 20  1  0  0  0  0
  8 13  1  0  0  0  0
  8 24  2  0  0  0  0
  9 25  1  0  0  0  0
 10 25  2  0  0  0  0
 11 26  1  0  0  0  0
 12 14  2  0  0  0  0
 12 27  1  0  0  0  0
 13 29  2  0  0  0  0
 14 28  1  0  0  0  0
 15 22  1  0  0  0  0
 15 26  2  0  0  0  0
 16 28  2  0  0  0  0
 16 30  1  0  0  0  0
 17 32  1  0  0  0  0
 18 32  1  0  0  0  0
 18 33  2  0  0  0  0
 18 35  1  0  0  0  0
 19 21  2  0  0  0  0
 19 42  1  0  0  0  0
 20 22  2  0  0  0  0
 20 43  1  0  0  0  0
 21 51  1  0  0  0  0
 22 44  1  0  0  0  0
 23 29  1  0  0  0  0
 23 31  2  0  0  0  0
 23 59  1  0  0  0  0
 24 31  1  0  0  0  0
 24 69  1  0  0  0  0
 25 81  1  0  0  0  0
 26 82  1  0  0  0  0
 27 30  2  0  0  0  0
 27 81  1  0  0  0  0
 28 83  1  0  0  0  0
 29 84  1  0  0  0  0
 30 85  1  0  0  0  0
 31 86  1  0  0  0  0
 32 63  2  0  0  0  0
 33 64  1  0  0  0  0
 33 67  1  0  0  0  0
 34 36  2  0  0  0  0
 34 82  1  0  0  0  0
 35 68  1  0  0  0  0
 35 74  2  0  0  0  0
 36 37  1  0  0  0  0
 36 80  1  0  0  0  0
 37 70  1  0  0  0  0
 37 75  2  0  0  0  0
 38 52  1  0  0  0  0
 38 71  1  0  0  0  0
 38 76  2  0  0  0  0
 39 60  1  0  0  0  0
 39 65  1  0  0  0  0
 39 77  2  0  0  0  0
 40 61  1  0  0  0  0
 40 72  1  0  0  0  0
 40 78  2  0  0  0  0
 41 66  1  0  0  0  0
 41 69  1  0  0  0  0
 41 79  2  0  0  0  0
 42 45  1  0  0  0  0
 43 52  1  0  0  0  0
 44 65  1  0  0  0  0
 45 47  1  0  0  0  0
 46 48  1  0  0  0  0
 46 49  1  0  0  0  0
 47 51  1  0  0  0  0
 48 53  1  0  0  0  0
 49 66  1  0  0  0  0
 50 53  1  0  0  0  0
 50 66  1  0  0  0  0
 51 71  1  0  0  0  0
 52 65  1  0  0  0  0
 53 64  1  0  0  0  0
 54 61  1  0  0  0  0
 55 62  1  0  0  0  0
 56 62  1  0  0  0  0
 57 62  1  0  0  0  0
 58 73  1  0  0  0  0
 59 70  1  0  0  0  0
 60 62  1  0  0  0  0
 60 72  1  0  0  0  0
 61 73  1  0  0  0  0
 63 64  1  0  0  0  0
M  CHG  1  73   1
M  ISO  4  34 101  41 100  69 100  82 101
M  END
> <Batch ID>
0173

> <Smiles>
CNC(C)C(=O)NC(C(=O)N1Cc2cc([101O:1][101CH2:1]C(=O)C(=O)NCc3c(F)ccc([100NH:0][100C:0](=O)N4CCCC(n5nc(-c6ccc(Oc7ccc(F)cc7F)cc6)c(C(N)=O)c5N)C4)c3F)ccc2CC1C(=O)NC1CCCc2ccccc21)C(C)(C)C

> <Shape>
0.251

> <Color>
0.071

> <Negative vol penalty>
0.000

$$$$

  -OEChem-04052304293D

 88 96  0     1  0  0  0  0  0999 V2000
  -26.8935  -35.4582   17.0333 C   0  0  0  0  0  0  0  0  0  0  0  0
  -27.4228  -34.2680   17.5217 C   0  0  0  0  0  0  0  0  0  0  0  0
  -23.3792   -9.6682   20.2315 C   0  0  0  0  0  0  0  0  0  0  0  0
  -23.9338  -10.1103   22.5410 C   0  0  0  0  0  0  0  0  0  0  0  0
  -26.0078  -36.1986   17.8152 C   0  0  0  0  0  0  0  0  0  0  0  0
  -27.0676  -33.8180   18.7929 C   0  0  0  0  0  0  0  0  0  0  0  0
  -25.9889  -28.8708   18.8712 C   0  0  0  0  0  0  0  0  0  0  0  0
  -22.7388   -8.4887   20.6110 C   0  0  0  0  0  0  0  0  0  0  0  0
  -23.2934   -8.9307   22.9206 C   0  0  0  0  0  0  0  0  0  0  0  0
  -27.0649  -27.9843   18.8660 C   0  0  0  0  0  0  0  0  0  0  0  0
  -20.1242   -7.8682   23.4187 C   0  0  0  0  0  0  0  0  0  0  0  0
  -19.2773   -7.9198   24.5258 C   0  0  0  0  0  0  0  0  0  0  0  0
  -26.8312  -27.6959   21.2495 C   0  0  0  0  0  0  0  0  0  0  0  0
  -28.7792  -20.0425   21.5552 C   0  0  0  0  0  0  0  0  0  0  0  0
  -30.5288  -18.3628   20.1767 C   0  0  0  0  0  0  0  0  0  0  0  0
  -20.6427   -6.2720   25.6472 C   0  0  0  0  0  0  0  0  0  0  0  0
  -23.9768  -10.4790   21.1965 C   0  0  0  0  0  0  0  0  0  0  0  0
  -24.0668  -12.9791   20.6972 C   0  0  0  0  0  0  0  0  0  0  0  0
  -25.6341  -35.7526   19.0927 C   0  0  0  0  0  0  0  0  0  0  0  0
  -25.3317  -29.1854   20.0694 C   0  0  0  0  0  0  0  0  0  0  0  0
  -26.1772  -34.5538   19.5931 C   0  0  0  0  0  0  0  0  0  0  0  0
  -25.7454  -28.5847   21.2669 C   0  0  0  0  0  0  0  0  0  0  0  0
  -28.7405  -18.6653   21.7728 C   0  0  0  0  0  0  0  0  0  0  0  0
  -29.6927  -20.5799   20.6483 C   0  0  0  0  0  0  0  0  0  0  0  0
  -29.6152  -17.8255   21.0836 C   0  0  0  0  0  0  0  0  0  0  0  0
  -22.6958   -8.1199   21.9555 C   0  0  0  0  0  0  0  0  0  0  0  0
  -27.4881  -27.3989   20.0557 C   0  0  0  0  0  0  0  0  0  0  0  0
  -21.2304   -7.0185   23.4258 C   0  0  0  0  0  0  0  0  0  0  0  0
  -19.5365   -7.1217   25.6400 C   0  0  0  0  0  0  0  0  0  0  0  0
  -30.5675  -19.7401   19.9591 C   0  0  0  0  0  0  0  0  0  0  0  0
  -21.4897   -6.2204   24.5401 C   0  0  0  0  0  0  0  0  0  0  0  0
  -24.6390  -11.6974   20.8050 C   0  0  0  0  0  0  0  0  0  0  0  0
  -25.1036  -13.7852   20.2948 C   0  0  0  0  0  0  0  0  0  0  0  0
  -28.3215  -25.2570   20.4898 C   0  0  0  0  0  0  0  0  0  1  0  0
  -22.7188  -13.4032   20.9393 C   0  0  0  0  0  0  0  0  0  0  0  0
  -29.2811  -24.3248   20.5303 C   0  0  0  0  0  0  0  0  0  0  0  0
  -28.9403  -22.9510   21.0253 C   0  0  0  0  0  0  0  0  0  0  0  0
  -24.8767  -31.8472   21.7462 C   0  0  0  0  0  0  0  0  0  0  0  0
  -22.9826  -29.9255   23.5467 C   0  0  0  0  0  0  0  0  0  0  0  0
  -22.2148  -26.7675   24.5882 C   0  0  0  0  0  0  0  0  0  0  0  0
  -30.3981  -15.4658   20.6768 C   0  0  0  0  0  0  0  0  0  0  0  0
  -24.7103  -36.6111   19.9199 C   0  0  0  0  0  0  0  0  0  0  0  0
  -24.1556  -30.1230   20.0541 C   0  0  0  0  0  0  0  0  0  0  0  0
  -25.0607  -28.8736   22.5769 C   0  0  0  0  0  0  0  0  0  0  0  0
  -24.0938  -35.8745   21.1064 C   0  0  0  0  0  0  0  0  0  0  0  0
  -29.7456  -12.6088   18.6548 C   0  0  0  0  0  0  0  0  0  0  0  0
  -25.1612  -35.0858   21.8582 C   0  0  0  0  0  0  0  0  0  0  0  0
  -28.3118  -12.2224   19.0250 C   0  0  0  0  0  0  0  0  0  0  0  0
  -30.5254  -13.1208   19.8645 C   0  0  0  0  0  0  0  0  0  0  0  0
  -28.4422  -13.8227   20.9768 C   0  0  0  0  0  0  0  0  0  0  0  0
  -25.7968  -34.0201   20.9571 C   0  0  1  0  0  0  0  0  0  0  0  0
  -23.8874  -30.7672   21.4107 C   0  0  1  0  0  0  0  0  0  0  0  0
  -27.5975  -13.3622   19.7776 C   0  0  2  0  0  0  0  0  0  0  0  0
  -20.6409  -25.5167   26.0900 C   0  0  0  0  0  0  0  0  0  0  0  0
  -24.5816  -30.8392   25.9794 C   0  0  0  0  0  0  0  0  0  0  0  0
  -23.6312  -28.8996   27.2455 C   0  0  0  0  0  0  0  0  0  0  0  0
  -22.1150  -30.6695   26.3559 C   0  0  0  0  0  0  0  0  0  0  0  0
  -21.0866  -25.2344   22.3220 C   0  0  0  0  0  0  0  0  0  0  0  0
  -23.1944  -29.0409   24.7515 C   0  0  1  0  0  0  0  0  0  0  0  0
  -20.8904  -26.0316   24.6810 C   0  0  2  0  0  0  0  0  0  0  0  0
  -27.7515  -18.1170   22.7498 C   0  0  0  0  0  0  0  0  0  0  0  0
  -23.3949  -29.8582   26.0589 C   0  0  0  0  0  0  0  0  0  0  0  0
  -25.9383  -11.6851   20.4958 N   0  0  0  0  0  0  0  0  0  0  0  0
  -26.1912  -12.9690   20.1898 N   0  0  0  0  0  0  0  0  0  0  0  0
  -23.9197  -29.8017   22.5112 N   0  0  0  0  0  0  0  0  0  0  0  0
  -29.7900  -14.2018   20.5246 N   0  0  0  0  0  0  0  0  0  0  0  0
  -25.1818  -15.1054   20.0241 N   0  0  0  0  0  0  0  0  0  0  0  0
  -21.7802  -12.4456   21.3472 N   0  0  0  0  0  0  0  0  0  0  0  0
  -29.7303  -21.9781   20.4286 N   0  0  0  0  0  0  0  0  0  0  0  0
  -29.5912  -16.4238   21.2897 N   0  0  0  0  0  0  0  0  0  0  0  0
  -24.9172  -32.8782   20.8271 N   0  0  0  0  0  0  0  0  0  0  0  0
  -22.0610  -28.1231   24.7884 N   0  0  0  0  0  0  0  0  0  0  0  0
  -20.8764  -24.8704   23.7469 N   0  3  0  0  0  0  0  0  0  0  0  0
  -22.3535  -14.5929   20.7822 O   0  0  0  0  0  0  0  0  0  0  0  0
  -28.0568  -22.7829   21.8590 O   0  0  0  0  0  0  0  0  0  0  0  0
  -25.5521  -31.7528   22.7643 O   0  0  0  0  0  0  0  0  0  0  0  0
  -22.0170  -30.6928   23.5221 O   0  0  0  0  0  0  0  0  0  0  0  0
  -23.2799  -26.1965   24.3644 O   0  0  0  0  0  0  0  0  0  0  0  0
  -31.5401  -15.6901   20.2673 O   0  0  0  0  0  0  0  0  0  0  0  0
  -30.5781  -24.5769   20.1318 O   0  0  0  0  0  0  0  0  0  0  0  0
  -22.0708   -6.9691   22.3263 O   0  0  0  0  0  0  0  0  0  0  0  0
  -28.5386  -26.5338   20.0535 O   0  0  0  0  0  0  0  0  0  1  0  0
  -18.7239   -7.1724   26.7036 F   0  0  0  0  0  0  0  0  0  0  0  0
  -31.4498  -20.2465   19.0859 F   0  0  0  0  0  0  0  0  0  0  0  0
  -22.5515   -5.4030   24.5532 F   0  0  0  0  0  0  0  0  0  0  0  0
  -26.9744  -19.0751   23.3338 F   0  0  0  0  0  0  0  0  0  0  0  0
  -26.8732  -17.2316   22.1956 F   0  0  0  0  0  0  0  0  0  0  0  0
  -28.3486  -17.4494   23.7782 F   0  0  0  0  0  0  0  0  0  0  0  0
  1  2  1  0  0  0  0
  1  5  2  0  0  0  0
  2  6  2  0  0  0  0
  3  8  2  0  0  0  0
  3 17  1  0  0  0  0
  4  9  1  0  0  0  0
  4 17  2  0  0  0  0
  5 19  1  0  0  0  0
  6 21  1  0  0  0  0
  7 10  2  0  0  0  0
  7 20  1  0  0  0  0
  8 26  1  0  0  0  0
  9 26  2  0  0  0  0
 10 27  1  0  0  0  0
 11 12  2  0  0  0  0
 11 28  1  0  0  0  0
 12 29  1  0  0  0  0
 13 22  1  0  0  0  0
 13 27  2  0  0  0  0
 14 23  2  0  0  0  0
 14 24  1  0  0  0  0
 15 25  2  0  0  0  0
 15 30  1  0  0  0  0
 16 29  2  0  0  0  0
 16 31  1  0  0  0  0
 17 32  1  0  0  0  0
 18 32  1  0  0  0  0
 18 33  2  0  0  0  0
 18 35  1  0  0  0  0
 19 21  2  0  0  0  0
 19 42  1  0  0  0  0
 20 22  2  0  0  0  0
 20 43  1  0  0  0  0
 21 51  1  0  0  0  0
 22 44  1  0  0  0  0
 23 25  1  0  0  0  0
 23 61  1  0  0  0  0
 24 30  2  0  0  0  0
 24 69  1  0  0  0  0
 25 70  1  0  0  0  0
 26 81  1  0  0  0  0
 27 82  1  0  0  0  0
 28 31  2  0  0  0  0
 28 81  1  0  0  0  0
 29 83  1  0  0  0  0
 30 84  1  0  0  0  0
 31 85  1  0  0  0  0
 32 63  2  0  0  0  0
 33 64  1  0  0  0  0
 33 67  1  0  0  0  0
 34 36  2  0  0  0  0
 34 82  1  0  0  0  0
 35 68  1  0  0  0  0
 35 74  2  0  0  0  0
 36 37  1  0  0  0  0
 36 80  1  0  0  0  0
 37 69  1  0  0  0  0
 37 75  2  0  0  0  0
 38 52  1  0  0  0  0
 38 71  1  0  0  0  0
 38 76  2  0  0  0  0
 39 59  1  0  0  0  0
 39 65  1  0  0  0  0
 39 77  2  0  0  0  0
 40 60  1  0  0  0  0
 40 72  1  0  0  0  0
 40 78  2  0  0  0  0
 41 66  1  0  0  0  0
 41 70  1  0  0  0  0
 41 79  2  0  0  0  0
 42 45  1  0  0  0  0
 43 52  1  0  0  0  0
 44 65  1  0  0  0  0
 45 47  1  0  0  0  0
 46 48  1  0  0  0  0
 46 49  1  0  0  0  0
 47 51  1  0  0  0  0
 48 53  1  0  0  0  0
 49 66  1  0  0  0  0
 50 53  1  0  0  0  0
 50 66  1  0  0  0  0
 51 71  1  0  0  0  0
 52 65  1  0  0  0  0
 53 64  1  0  0  0  0
 54 60  1  0  0  0  0
 55 62  1  0  0  0  0
 56 62  1  0  0  0  0
 57 62  1  0  0  0  0
 58 73  1  0  0  0  0
 59 62  1  0  0  0  0
 59 72  1  0  0  0  0
 60 73  1  0  0  0  0
 61 86  1  0  0  0  0
 61 87  1  0  0  0  0
 61 88  1  0  0  0  0
 63 64  1  0  0  0  0
M  CHG  1  73   1
M  ISO  4  34 101  41 100  70 100  82 101
M  END
> <Batch ID>
0173

> <Smiles>
CNC(C)C(=O)NC(C(=O)N1Cc2cc([101O:1][101CH2:1]C(=O)C(=O)Nc3cc(C(F)(F)F)c([100NH:0][100C:0](=O)N4CCCC(n5nc(-c6ccc(Oc7ccc(F)cc7F)cc6)c(C(N)=O)c5N)C4)cc3F)ccc2CC1C(=O)NC1CCCc2ccccc21)C(C)(C)C

> <Shape>
0.317

> <Color>
0.211

> <Negative vol penalty>
0.000

$$$$

  -OEChem-04052304293D

 87 95  0     1  0  0  0  0  0999 V2000
  -27.6843  -36.2296   20.1494 C   0  0  0  0  0  0  0  0  0  0  0  0
  -28.0465  -34.8940   20.2918 C   0  0  0  0  0  0  0  0  0  0  0  0
  -24.7929   -8.8926   22.0776 C   0  0  0  0  0  0  0  0  0  0  0  0
  -23.1200  -10.5390   21.5051 C   0  0  0  0  0  0  0  0  0  0  0  0
  -26.5999  -36.7367   20.8642 C   0  0  0  0  0  0  0  0  0  0  0  0
  -27.3252  -34.0649   21.1501 C   0  0  0  0  0  0  0  0  0  0  0  0
  -26.2968  -29.5561   19.0864 C   0  0  0  0  0  0  0  0  0  0  0  0
  -23.8500   -7.8778   21.9146 C   0  0  0  0  0  0  0  0  0  0  0  0
  -22.1771   -9.5242   21.3420 C   0  0  0  0  0  0  0  0  0  0  0  0
  -27.3281  -28.6183   19.0590 C   0  0  0  0  0  0  0  0  0  0  0  0
  -21.2922   -6.5479   23.6792 C   0  0  0  0  0  0  0  0  0  0  0  0
  -21.2387   -5.5514   24.6537 C   0  0  0  0  0  0  0  0  0  0  0  0
  -26.3848  -27.5332   20.9959 C   0  0  0  0  0  0  0  0  0  0  0  0
  -27.1463  -19.9245   24.4740 C   0  0  0  0  0  0  0  0  0  0  0  0
  -27.2008  -21.5858   22.7206 C   0  0  0  0  0  0  0  0  0  0  0  0
  -21.7370   -3.8849   22.9769 C   0  0  0  0  0  0  0  0  0  0  0  0
  -24.4279  -10.2233   21.8729 C   0  0  0  0  0  0  0  0  0  0  0  0
  -26.2590  -11.8021   21.0592 C   0  0  0  0  0  0  0  0  0  0  0  0
  -25.8590  -35.9110   21.7243 C   0  0  0  0  0  0  0  0  0  0  0  0
  -25.3061  -29.4958   20.0771 C   0  0  0  0  0  0  0  0  0  0  0  0
  -26.2307  -34.5617   21.8781 C   0  0  0  0  0  0  0  0  0  0  0  0
  -25.3406  -28.4698   21.0322 C   0  0  0  0  0  0  0  0  0  0  0  0
  -27.3230  -18.9174   23.5253 C   0  0  0  0  0  0  0  0  0  0  0  0
  -27.3775  -20.5786   21.7718 C   0  0  0  0  0  0  0  0  0  0  0  0
  -22.5421   -8.1935   21.5468 C   0  0  0  0  0  0  0  0  0  0  0  0
  -27.3738  -27.6084   20.0155 C   0  0  0  0  0  0  0  0  0  0  0  0
  -21.5681   -6.2129   22.3535 C   0  0  0  0  0  0  0  0  0  0  0  0
  -21.4611   -4.2199   24.3026 C   0  0  0  0  0  0  0  0  0  0  0  0
  -27.0851  -21.2587   24.0716 C   0  0  0  0  0  0  0  0  0  0  0  0
  -21.7905   -4.8814   22.0024 C   0  0  0  0  0  0  0  0  0  0  0  0
  -27.4386  -19.2444   22.1742 C   0  0  0  0  0  0  0  0  0  0  0  0
  -25.4014  -11.2721   22.0418 C   0  0  0  0  0  0  0  0  0  0  0  0
  -26.9815  -12.7666   21.7182 C   0  0  0  0  0  0  0  0  0  0  0  0
  -26.3907  -11.4538   19.6747 C   0  0  0  0  0  0  0  0  0  0  0  0
  -28.9491  -24.3706   19.7918 C   0  0  0  0  0  0  0  0  0  0  0  0
  -28.7814  -22.9202   20.1811 C   0  0  0  0  0  0  0  0  0  0  0  0
  -24.3520  -31.4257   22.4157 C   0  0  0  0  0  0  0  0  0  0  0  0
  -22.0107  -29.2076   22.7631 C   0  0  0  0  0  0  0  0  0  0  0  0
  -20.9785  -25.9877   22.3010 C   0  0  0  0  0  0  0  0  0  0  0  0
  -27.2856  -17.0703   25.2379 C   0  0  0  0  0  0  0  0  0  0  0  0
  -24.7239  -36.5159   22.5120 C   0  0  0  0  0  0  0  0  0  0  0  0
  -24.1855  -30.4991   20.0769 C   0  0  0  0  0  0  0  0  0  0  0  0
  -24.2898  -28.3491   22.1045 C   0  0  0  0  0  0  0  0  0  0  0  0
  -23.7806  -35.4785   23.1155 C   0  0  0  0  0  0  0  0  0  0  0  0
  -27.3498  -13.8061   26.6584 C   0  0  0  0  0  0  0  0  0  0  0  0
  -24.5739  -34.3650   23.7918 C   0  0  0  0  0  0  0  0  0  0  0  0
  -26.9192  -12.8994   25.5031 C   0  0  0  0  0  0  0  0  0  0  0  0
  -26.6021  -15.1381   26.6431 C   0  0  0  0  0  0  0  0  0  0  0  0
  -26.2283  -14.9608   24.2145 C   0  0  0  0  0  0  0  0  0  0  0  0
  -25.4576  -33.6247   22.7805 C   0  0  1  0  0  0  0  0  0  0  0  0
  -23.5159  -30.6472   21.4397 C   0  0  1  0  0  0  0  0  0  0  0  0
  -27.0011  -13.6332   24.1502 C   0  0  2  0  0  0  0  0  0  0  0  0
  -27.1134  -22.2406   18.4468 C   0  0  0  0  0  0  0  0  0  0  0  0
  -19.0296  -24.4641   22.7225 C   0  0  0  0  0  0  0  0  0  0  0  0
  -22.7934  -29.0248   25.7066 C   0  0  0  0  0  0  0  0  0  0  0  0
  -21.5134  -26.8773   25.8416 C   0  0  0  0  0  0  0  0  0  0  0  0
  -20.3295  -28.9997   25.2788 C   0  0  0  0  0  0  0  0  0  0  0  0
  -20.5969  -25.4854   19.4094 C   0  0  0  0  0  0  0  0  0  0  0  0
  -28.0820  -25.3876   20.4874 C   0  0  0  0  0  0  0  0  0  1  0  0
  -27.4394  -22.2636   19.9327 C   0  0  1  0  0  0  0  0  0  0  0  0
  -21.8519  -27.9370   23.5627 C   0  0  1  0  0  0  0  0  0  0  0  0
  -19.6917  -25.4137   21.7363 C   0  0  2  0  0  0  0  0  0  0  0  0
  -21.6431  -28.2129   25.0785 C   0  0  0  0  0  0  0  0  0  0  0  0
  -25.5629  -11.8516   23.2342 N   0  0  0  0  0  0  0  0  0  0  0  0
  -26.5305  -12.7558   23.0053 N   0  0  0  0  0  0  0  0  0  0  0  0
  -23.2180  -29.3576   22.0662 N   0  0  0  0  0  0  0  0  0  0  0  0
  -26.7274  -15.7779   25.3316 N   0  0  0  0  0  0  0  0  0  0  0  0
  -27.9522  -13.6143   21.3165 N   0  0  0  0  0  0  0  0  0  0  0  0
  -25.5708  -10.4405   19.1597 N   0  0  0  0  0  0  0  0  0  0  0  0
  -27.3840  -17.5630   23.9371 N   0  0  0  0  0  0  0  0  0  0  0  0
  -27.4921  -20.9059   20.4325 N   0  0  0  0  0  0  0  0  0  0  0  0
  -24.6641  -32.7043   21.9946 N   0  0  0  0  0  0  0  0  0  0  0  0
  -20.7649  -27.1932   22.9354 N   0  0  0  0  0  0  0  0  0  0  0  0
  -19.9668  -24.6663   20.4767 N   0  3  0  0  0  0  0  0  0  0  0  0
  -27.2227  -12.0130   18.9206 O   0  0  0  0  0  0  0  0  0  0  0  0
  -29.8013  -24.6333   18.9543 O   0  0  0  0  0  0  0  0  0  0  0  0
  -29.7605  -22.3637   20.6619 O   0  0  0  0  0  0  0  0  0  0  0  0
  -24.6878  -30.9055   23.4732 O   0  0  0  0  0  0  0  0  0  0  0  0
  -21.0943  -30.0333   22.7515 O   0  0  0  0  0  0  0  0  0  0  0  0
  -22.0641  -25.4215   22.1935 O   0  0  0  0  0  0  0  0  0  0  0  0
  -27.6747  -17.6830   26.2355 O   0  0  0  0  0  0  0  0  0  0  0  0
  -21.6217   -7.2035   21.3873 O   0  0  0  0  0  0  0  0  0  0  0  0
  -28.3797  -26.6921   19.9914 O   0  0  0  0  0  0  0  0  0  1  0  0
  -21.4111   -3.2632   25.2388 F   0  0  0  0  0  0  0  0  0  0  0  0
  -26.9168  -22.2259   24.9829 F   0  0  0  0  0  0  0  0  0  0  0  0
  -22.0572   -4.5536   20.7307 F   0  0  0  0  0  0  0  0  0  0  0  0
  -27.6080  -18.2759   21.2609 F   0  0  0  0  0  0  0  0  0  0  0  0
  1  2  1  0  0  0  0
  1  5  2  0  0  0  0
  2  6  2  0  0  0  0
  3  8  2  0  0  0  0
  3 17  1  0  0  0  0
  4  9  1  0  0  0  0
  4 17  2  0  0  0  0
  5 19  1  0  0  0  0
  6 21  1  0  0  0  0
  7 10  2  0  0  0  0
  7 20  1  0  0  0  0
  8 25  1  0  0  0  0
  9 25  2  0  0  0  0
 10 26  1  0  0  0  0
 11 12  2  0  0  0  0
 11 27  1  0  0  0  0
 12 28  1  0  0  0  0
 13 22  1  0  0  0  0
 13 26  2  0  0  0  0
 14 23  2  0  0  0  0
 14 29  1  0  0  0  0
 15 24  1  0  0  0  0
 15 29  2  0  0  0  0
 16 28  2  0  0  0  0
 16 30  1  0  0  0  0
 17 32  1  0  0  0  0
 18 32  1  0  0  0  0
 18 33  2  0  0  0  0
 18 34  1  0  0  0  0
 19 21  2  0  0  0  0
 19 41  1  0  0  0  0
 20 22  2  0  0  0  0
 20 42  1  0  0  0  0
 21 50  1  0  0  0  0
 22 43  1  0  0  0  0
 23 31  1  0  0  0  0
 23 70  1  0  0  0  0
 24 31  2  0  0  0  0
 24 71  1  0  0  0  0
 25 82  1  0  0  0  0
 26 83  1  0  0  0  0
 27 30  2  0  0  0  0
 27 82  1  0  0  0  0
 28 84  1  0  0  0  0
 29 85  1  0  0  0  0
 30 86  1  0  0  0  0
 31 87  1  0  0  0  0
 32 64  2  0  0  0  0
 33 65  1  0  0  0  0
 33 68  1  0  0  0  0
 34 69  1  0  0  0  0
 34 75  2  0  0  0  0
 35 36  1  0  0  0  0
 35 59  1  0  0  0  0
 35 76  2  0  0  0  0
 36 60  1  0  0  0  0
 36 77  2  0  0  0  0
 37 51  1  0  0  0  0
 37 72  1  0  0  0  0
 37 78  2  0  0  0  0
 38 61  1  0  0  0  0
 38 66  1  0  0  0  0
 38 79  2  0  0  0  0
 39 62  1  0  0  0  0
 39 73  1  0  0  0  0
 39 80  2  0  0  0  0
 40 67  1  0  0  0  0
 40 70  1  0  0  0  0
 40 81  2  0  0  0  0
 41 44  1  0  0  0  0
 42 51  1  0  0  0  0
 43 66  1  0  0  0  0
 44 46  1  0  0  0  0
 45 47  1  0  0  0  0
 45 48  1  0  0  0  0
 46 50  1  0  0  0  0
 47 52  1  0  0  0  0
 48 67  1  0  0  0  0
 49 52  1  0  0  0  0
 49 67  1  0  0  0  0
 50 72  1  0  0  0  0
 51 66  1  0  0  0  0
 52 65  1  0  0  0  0
 53 60  1  0  0  0  0
 54 62  1  0  0  0  0
 55 63  1  0  0  0  0
 56 63  1  0  0  0  0
 57 63  1  0  0  0  0
 58 74  1  0  0  0  0
 59 83  1  0  0  0  0
 60 71  1  0  0  0  0
 61 63  1  0  0  0  0
 61 73  1  0  0  0  0
 62 74  1  0  0  0  0
 64 65  1  0  0  0  0
M  CHG  1  74   1
M  ISO  4  40 100  59 101  70 100  83 101
M  END
> <Batch ID>
0173

> <Smiles>
CNC(C)C(=O)NC(C(=O)N1Cc2cc([101O:1][101CH2:1]C(=O)C(=O)C(C)Nc3cc(F)cc([100NH:0][100C:0](=O)N4CCCC(n5nc(-c6ccc(Oc7ccc(F)cc7F)cc6)c(C(N)=O)c5N)C4)c3F)ccc2CC1C(=O)NC1CCCc2ccccc21)C(C)(C)C

> <Shape>
0.283

> <Color>
0.101

> <Negative vol penalty>
0.000

$$$$

  -OEChem-04052304293D

 87 95  0     1  0  0  0  0  0999 V2000
  -14.0421  -25.4993   27.8212 C   0  0  0  0  0  0  0  0  0  0  0  0
  -15.2369  -24.8708   27.4853 C   0  0  0  0  0  0  0  0  0  0  0  0
  -22.9819   -9.9409   19.9824 C   0  0  0  0  0  0  0  0  0  0  0  0
  -23.7421   -9.9487   22.2756 C   0  0  0  0  0  0  0  0  0  0  0  0
  -13.2793  -26.1183   26.8318 C   0  0  0  0  0  0  0  0  0  0  0  0
  -15.6690  -24.8599   26.1596 C   0  0  0  0  0  0  0  0  0  0  0  0
  -21.4558  -25.1194   24.1716 C   0  0  0  0  0  0  0  0  0  0  0  0
  -22.2183   -8.8023   20.2393 C   0  0  0  0  0  0  0  0  0  0  0  0
  -22.9785   -8.8101   22.5326 C   0  0  0  0  0  0  0  0  0  0  0  0
  -22.3469  -24.1346   23.7475 C   0  0  0  0  0  0  0  0  0  0  0  0
  -23.2121   -5.4803   21.9955 C   0  0  0  0  0  0  0  0  0  0  0  0
  -23.8100   -4.4489   22.7196 C   0  0  0  0  0  0  0  0  0  0  0  0
  -21.7319  -24.5731   21.4565 C   0  0  0  0  0  0  0  0  0  0  0  0
  -30.4043  -18.0768   24.0313 C   0  0  0  0  0  0  0  0  0  0  0  0
  -28.3979  -19.3888   24.3312 C   0  0  0  0  0  0  0  0  0  0  0  0
  -22.1120   -4.6621   24.4251 C   0  0  0  0  0  0  0  0  0  0  0  0
  -23.7438  -10.5141   21.0005 C   0  0  0  0  0  0  0  0  0  0  0  0
  -24.1290  -13.0322   20.8651 C   0  0  0  0  0  0  0  0  0  0  0  0
  -13.7071  -26.1234   25.4948 C   0  0  0  0  0  0  0  0  0  0  0  0
  -20.6867  -25.8321   23.2404 C   0  0  0  0  0  0  0  0  0  0  0  0
  -14.9106  -25.4784   25.1512 C   0  0  0  0  0  0  0  0  0  0  0  0
  -20.8336  -25.5682   21.8712 C   0  0  0  0  0  0  0  0  0  0  0  0
  -29.9863  -17.7311   22.7462 C   0  0  0  0  0  0  0  0  0  0  0  0
  -27.9798  -19.0432   23.0461 C   0  0  0  0  0  0  0  0  0  0  0  0
  -22.2166   -8.2369   21.5145 C   0  0  0  0  0  0  0  0  0  0  0  0
  -22.4830  -23.8593   22.3901 C   0  0  0  0  0  0  0  0  0  0  0  0
  -22.0642   -6.1027   22.4862 C   0  0  0  0  0  0  0  0  0  0  0  0
  -23.2599   -4.0398   23.9344 C   0  0  0  0  0  0  0  0  0  0  0  0
  -29.6101  -18.9055   24.8238 C   0  0  0  0  0  0  0  0  0  0  0  0
  -21.5142   -5.6935   23.7010 C   0  0  0  0  0  0  0  0  0  0  0  0
  -28.7740  -18.2144   22.2536 C   0  0  0  0  0  0  0  0  0  0  0  0
  -24.5332  -11.6900   20.7355 C   0  0  0  0  0  0  0  0  0  0  0  0
  -25.2339  -13.7606   20.4973 C   0  0  0  0  0  0  0  0  0  0  0  0
  -22.8677  -13.5724   21.2809 C   0  0  0  0  0  0  0  0  0  0  0  0
  -17.5744  -26.1581   22.6825 C   0  0  0  0  0  0  0  0  0  0  0  0
  -25.0203  -21.1855   22.3564 C   0  0  0  0  0  0  0  0  0  0  0  0
  -18.5885  -28.3554   20.5223 C   0  0  0  0  0  0  0  0  0  0  0  0
  -21.0965  -29.4943   18.5075 C   0  0  0  0  0  0  0  0  0  0  0  0
  -30.7343  -14.6863   20.6792 C   0  0  0  0  0  0  0  0  0  0  0  0
  -12.8252  -26.7646   24.4528 C   0  0  0  0  0  0  0  0  0  0  0  0
  -19.7495  -26.9098   23.7122 C   0  0  0  0  0  0  0  0  0  0  0  0
  -20.0460  -26.3191   20.8299 C   0  0  0  0  0  0  0  0  0  0  0  0
  -13.5400  -27.0323   23.1309 C   0  0  0  0  0  0  0  0  0  0  0  0
  -29.5556  -12.3072   18.3070 C   0  0  0  0  0  0  0  0  0  0  0  0
  -14.3404  -25.8076   22.6992 C   0  0  0  0  0  0  0  0  0  0  0  0
  -28.1133  -12.0409   18.7418 C   0  0  0  0  0  0  0  0  0  0  0  0
  -30.4765  -12.5195   19.5065 C   0  0  0  0  0  0  0  0  0  0  0  0
  -28.5878  -13.2916   20.8887 C   0  0  0  0  0  0  0  0  0  0  0  0
  -15.4251  -25.4668   23.7281 C   0  0  1  0  0  0  0  0  0  0  0  0
  -18.6400  -27.2171   22.7112 C   0  0  1  0  0  0  0  0  0  0  0  0
  -27.6106  -13.1267   19.7122 C   0  0  2  0  0  0  0  0  0  0  0  0
  -24.1655  -18.5272   23.6925 C   0  0  0  0  0  0  0  0  0  0  0  0
  -21.6156  -31.2878   16.8308 C   0  0  0  0  0  0  0  0  0  0  0  0
  -16.9501  -26.8645   18.4240 C   0  0  0  0  0  0  0  0  0  0  0  0
  -18.2330  -28.0864   16.6550 C   0  0  0  0  0  0  0  0  0  0  0  0
  -16.8203  -29.3573   18.2711 C   0  0  0  0  0  0  0  0  0  0  0  0
  -23.2784  -30.5889   20.1808 C   0  0  0  0  0  0  0  0  0  0  0  0
  -30.8374  -16.8428   21.9030 C   0  0  0  0  0  0  0  0  0  0  0  0
  -24.0918  -22.2107   22.9814 C   0  0  0  0  0  0  0  0  0  1  0  0
  -25.0831  -19.5689   24.3231 C   0  0  0  0  0  0  0  0  0  0  0  0
  -25.8954  -20.3877   23.3169 C   0  0  1  0  0  0  0  0  0  0  0  0
  -18.9842  -28.3192   19.0659 C   0  0  1  0  0  0  0  0  0  0  0  0
  -21.6659  -30.8856   18.2966 C   0  0  2  0  0  0  0  0  0  0  0  0
  -17.7605  -28.1412   18.1235 C   0  0  0  0  0  0  0  0  0  0  0  0
  -25.7962  -11.5699   20.3178 N   0  0  0  0  0  0  0  0  0  0  0  0
  -26.1951  -12.8460   20.1816 N   0  0  0  0  0  0  0  0  0  0  0  0
  -19.1380  -27.3590   21.3415 N   0  0  0  0  0  0  0  0  0  0  0  0
  -29.9439  -13.5627   20.3863 N   0  0  0  0  0  0  0  0  0  0  0  0
  -25.4671  -15.0878   20.4161 N   0  0  0  0  0  0  0  0  0  0  0  0
  -21.8403  -12.6828   21.6238 N   0  0  0  0  0  0  0  0  0  0  0  0
  -26.7771  -19.5240   22.5600 N   0  0  0  0  0  0  0  0  0  0  0  0
  -16.5526  -26.3635   23.5898 N   0  0  0  0  0  0  0  0  0  0  0  0
  -19.7546  -29.5339   18.8220 N   0  0  0  0  0  0  0  0  0  0  0  0
  -30.1514  -15.6304   21.5156 N   0  0  0  0  0  0  0  0  0  0  0  0
  -23.0845  -30.9390   18.7502 N   0  3  0  0  0  0  0  0  0  0  0  0
  -22.6526  -14.8072   21.3308 O   0  0  0  0  0  0  0  0  0  0  0  0
  -17.6713  -25.2247   21.8944 O   0  0  0  0  0  0  0  0  0  0  0  0
  -25.0617  -21.0174   21.1372 O   0  0  0  0  0  0  0  0  0  0  0  0
  -17.8257  -29.2395   20.9199 O   0  0  0  0  0  0  0  0  0  0  0  0
  -21.7735  -28.4742   18.4001 O   0  0  0  0  0  0  0  0  0  0  0  0
  -31.8731  -14.8394   20.2245 O   0  0  0  0  0  0  0  0  0  0  0  0
  -21.4714   -7.1259   21.7657 O   0  0  0  0  0  0  0  0  0  0  0  0
  -23.3516  -22.8982   21.9735 O   0  0  0  0  0  0  0  0  0  1  0  0
  -23.8333   -3.0483   24.6290 F   0  0  0  0  0  0  0  0  0  0  0  0
  -30.0121  -19.2386   26.0573 F   0  0  0  0  0  0  0  0  0  0  0  0
  -20.4109   -6.2869   24.1769 F   0  0  0  0  0  0  0  0  0  0  0  0
  -28.3734  -17.8811   21.0174 F   0  0  0  0  0  0  0  0  0  0  0  0
  1  2  1  0  0  0  0
  1  5  2  0  0  0  0
  2  6  2  0  0  0  0
  3  8  2  0  0  0  0
  3 17  1  0  0  0  0
  4  9  1  0  0  0  0
  4 17  2  0  0  0  0
  5 19  1  0  0  0  0
  6 21  1  0  0  0  0
  7 10  2  0  0  0  0
  7 20  1  0  0  0  0
  8 25  1  0  0  0  0
  9 25  2  0  0  0  0
 10 26  1  0  0  0  0
 11 12  2  0  0  0  0
 11 27  1  0  0  0  0
 12 28  1  0  0  0  0
 13 22  1  0  0  0  0
 13 26  2  0  0  0  0
 14 23  2  0  0  0  0
 14 29  1  0  0  0  0
 15 24  1  0  0  0  0
 15 29  2  0  0  0  0
 16 28  2  0  0  0  0
 16 30  1  0  0  0  0
 17 32  1  0  0  0  0
 18 32  1  0  0  0  0
 18 33  2  0  0  0  0
 18 34  1  0  0  0  0
 19 21  2  0  0  0  0
 19 40  1  0  0  0  0
 20 22  2  0  0  0  0
 20 41  1  0  0  0  0
 21 49  1  0  0  0  0
 22 42  1  0  0  0  0
 23 31  1  0  0  0  0
 23 58  1  0  0  0  0
 24 31  2  0  0  0  0
 24 71  1  0  0  0  0
 25 82  1  0  0  0  0
 26 83  1  0  0  0  0
 27 30  2  0  0  0  0
 27 82  1  0  0  0  0
 28 84  1  0  0  0  0
 29 85  1  0  0  0  0
 30 86  1  0  0  0  0
 31 87  1  0  0  0  0
 32 65  2  0  0  0  0
 33 66  1  0  0  0  0
 33 69  1  0  0  0  0
 34 70  1  0  0  0  0
 34 76  2  0  0  0  0
 35 50  1  0  0  0  0
 35 72  1  0  0  0  0
 35 77  2  0  0  0  0
 36 59  1  0  0  0  0
 36 61  1  0  0  0  0
 36 78  2  0  0  0  0
 37 62  1  0  0  0  0
 37 67  1  0  0  0  0
 37 79  2  0  0  0  0
 38 63  1  0  0  0  0
 38 73  1  0  0  0  0
 38 80  2  0  0  0  0
 39 68  1  0  0  0  0
 39 74  1  0  0  0  0
 39 81  2  0  0  0  0
 40 43  1  0  0  0  0
 41 50  1  0  0  0  0
 42 67  1  0  0  0  0
 43 45  1  0  0  0  0
 44 46  1  0  0  0  0
 44 47  1  0  0  0  0
 45 49  1  0  0  0  0
 46 51  1  0  0  0  0
 47 68  1  0  0  0  0
 48 51  1  0  0  0  0
 48 68  1  0  0  0  0
 49 72  1  0  0  0  0
 50 67  1  0  0  0  0
 51 66  1  0  0  0  0
 52 60  1  0  0  0  0
 53 63  1  0  0  0  0
 54 64  1  0  0  0  0
 55 64  1  0  0  0  0
 56 64  1  0  0  0  0
 57 75  1  0  0  0  0
 58 74  1  0  0  0  0
 59 83  1  0  0  0  0
 60 61  1  0  0  0  0
 61 71  1  0  0  0  0
 62 64  1  0  0  0  0
 62 73  1  0  0  0  0
 63 75  1  0  0  0  0
 65 66  1  0  0  0  0
M  CHG  1  75   1
M  ISO  4  39 100  59 101  74 100  83 101
M  END
> <Batch ID>
0173

> <Smiles>
CCC(Nc1cc(F)cc(C[100NH:0][100C:0](=O)N2CCCC(n3nc(-c4ccc(Oc5ccc(F)cc5F)cc4)c(C(N)=O)c3N)C2)c1F)C(=O)[101CH2:1][101O:1]c1ccc2c(c1)CN(C(=O)C(NC(=O)C(C)NC)C(C)(C)C)C(C(=O)NC1CCCc3ccccc31)C2

> <Shape>
0.241

> <Color>
0.198

> <Negative vol penalty>
0.000

$$$$

  -OEChem-04052304293D

 89 97  0     1  0  0  0  0  0999 V2000
  -31.8192  -32.0473   18.3081 C   0  0  0  0  0  0  0  0  0  0  0  0
  -31.3809  -31.1063   19.2344 C   0  0  0  0  0  0  0  0  0  0  0  0
  -23.0759   -9.8719   19.9268 C   0  0  0  0  0  0  0  0  0  0  0  0
  -23.8371   -9.8595   22.2198 C   0  0  0  0  0  0  0  0  0  0  0  0
  -31.6245  -31.8256   16.9455 C   0  0  0  0  0  0  0  0  0  0  0  0
  -30.7467  -29.9434   18.7984 C   0  0  0  0  0  0  0  0  0  0  0  0
  -32.4367  -25.8020   21.1727 C   0  0  0  0  0  0  0  0  0  0  0  0
  -22.3359   -8.7140   20.1662 C   0  0  0  0  0  0  0  0  0  0  0  0
  -23.0970   -8.7016   22.4592 C   0  0  0  0  0  0  0  0  0  0  0  0
  -31.9615  -25.5690   22.4625 C   0  0  0  0  0  0  0  0  0  0  0  0
  -19.3911   -7.8941   21.6114 C   0  0  0  0  0  0  0  0  0  0  0  0
  -18.0841   -7.8482   21.1265 C   0  0  0  0  0  0  0  0  0  0  0  0
  -32.0381  -16.6177   22.5945 C   0  0  0  0  0  0  0  0  0  0  0  0
  -30.3817  -23.9709   21.5853 C   0  0  0  0  0  0  0  0  0  0  0  0
  -18.6493   -5.9197   19.7855 C   0  0  0  0  0  0  0  0  0  0  0  0
  -32.5729  -17.5070   23.5127 C   0  0  0  0  0  0  0  0  0  0  0  0
  -23.8265  -10.4447   20.9536 C   0  0  0  0  0  0  0  0  0  0  0  0
  -24.1601  -12.9719   20.8574 C   0  0  0  0  0  0  0  0  0  0  0  0
  -30.9963  -30.6550   16.4921 C   0  0  0  0  0  0  0  0  0  0  0  0
  -31.8796  -25.1281   20.0763 C   0  0  0  0  0  0  0  0  0  0  0  0
  -30.5423  -29.7065   17.4284 C   0  0  0  0  0  0  0  0  0  0  0  0
  -30.8534  -24.1952   20.2828 C   0  0  0  0  0  0  0  0  0  0  0  0
  -30.6568  -16.5965   22.4373 C   0  0  0  0  0  0  0  0  0  0  0  0
  -22.3464   -8.1289   21.4324 C   0  0  0  0  0  0  0  0  0  0  0  0
  -30.9319  -24.6554   22.6686 C   0  0  0  0  0  0  0  0  0  0  0  0
  -20.3273   -6.9528   21.1834 C   0  0  0  0  0  0  0  0  0  0  0  0
  -17.7132   -6.8610   20.2135 C   0  0  0  0  0  0  0  0  0  0  0  0
  -19.9564   -5.9656   20.2704 C   0  0  0  0  0  0  0  0  0  0  0  0
  -29.8636  -17.4531   23.1925 C   0  0  0  0  0  0  0  0  0  0  0  0
  -24.5916  -11.6404   20.7068 C   0  0  0  0  0  0  0  0  0  0  0  0
  -30.4956  -18.3049   24.0841 C   0  0  0  0  0  0  0  0  0  0  0  0
  -25.2496  -13.7284   20.5007 C   0  0  0  0  0  0  0  0  0  0  0  0
  -22.8882  -13.4796   21.2820 C   0  0  0  0  0  0  0  0  0  0  0  0
  -29.7205  -19.2429   24.9208 C   0  0  0  0  0  0  0  0  0  0  0  0
  -30.3271  -26.0179   17.4493 C   0  0  0  0  0  0  0  0  0  0  0  0
  -29.9196  -21.0387   27.5227 C   0  0  0  0  0  0  0  0  0  0  0  0
  -30.1367  -22.7701   25.6633 C   0  0  0  0  0  0  0  0  0  0  0  0
  -30.5763  -22.8703   16.7057 C   0  0  0  0  0  0  0  0  0  0  0  0
  -30.9606  -19.6582   17.7926 C   0  0  0  0  0  0  0  0  0  0  0  0
  -30.7125  -14.7900   20.6824 C   0  0  0  0  0  0  0  0  0  0  0  0
  -30.7658  -30.4815   15.0118 C   0  0  0  0  0  0  0  0  0  0  0  0
  -32.4216  -25.3709   18.6944 C   0  0  0  0  0  0  0  0  0  0  0  0
  -30.2352  -23.4308   19.1418 C   0  0  0  0  0  0  0  0  0  0  0  0
  -30.4205  -29.0490   14.6128 C   0  0  0  0  0  0  0  0  0  0  0  0
  -29.6045  -12.3952   18.2919 C   0  0  0  0  0  0  0  0  0  0  0  0
  -29.3614  -28.4748   15.5485 C   0  0  0  0  0  0  0  0  0  0  0  0
  -28.1661  -12.0949   18.7194 C   0  0  0  0  0  0  0  0  0  0  0  0
  -30.5196  -12.6156   19.4952 C   0  0  0  0  0  0  0  0  0  0  0  0
  -28.6111  -13.3206   20.8843 C   0  0  0  0  0  0  0  0  0  0  0  0
  -29.8723  -28.4212   16.9933 C   0  0  1  0  0  0  0  0  0  0  0  0
  -31.4312  -25.0088   17.5920 C   0  0  1  0  0  0  0  0  0  0  0  0
  -27.6382  -13.1554   19.7054 C   0  0  2  0  0  0  0  0  0  0  0  0
  -29.2123  -20.9272   29.9481 C   0  0  0  0  0  0  0  0  0  0  0  0
  -31.0883  -17.2966   16.9535 C   0  0  0  0  0  0  0  0  0  0  0  0
  -27.5541  -22.8585   16.2862 C   0  0  0  0  0  0  0  0  0  0  0  0
  -27.6190  -20.3580   16.3934 C   0  0  0  0  0  0  0  0  0  0  0  0
  -28.8484  -21.5595   14.5857 C   0  0  0  0  0  0  0  0  0  0  0  0
  -33.6985  -19.3044   18.8591 C   0  0  0  0  0  0  0  0  0  0  0  0
  -28.8383  -21.3610   28.5421 C   0  0  0  0  0  0  0  0  0  0  0  0
  -29.9479  -23.1254   24.2005 C   0  0  0  0  0  0  0  0  0  1  0  0
  -29.6202  -21.4154   26.0900 C   0  0  1  0  0  0  0  0  0  0  0  0
  -29.7323  -21.6433   16.9529 C   0  0  1  0  0  0  0  0  0  0  0  0
  -31.8778  -18.5409   17.3291 C   0  0  2  0  0  0  0  0  0  0  0  0
  -28.4486  -21.6205   16.0760 C   0  0  0  0  0  0  0  0  0  0  0  0
  -31.8345  -18.3542   24.2642 N   0  0  0  0  0  0  0  0  0  0  0  0
  -25.8565  -11.5527   20.2869 N   0  0  0  0  0  0  0  0  0  0  0  0
  -26.2292  -12.8386   20.1706 N   0  0  0  0  0  0  0  0  0  0  0  0
  -30.7951  -23.7077   17.8087 N   0  0  0  0  0  0  0  0  0  0  0  0
  -29.9578  -13.6362   20.3826 N   0  0  0  0  0  0  0  0  0  0  0  0
  -25.4557  -15.0611   20.4403 N   0  0  0  0  0  0  0  0  0  0  0  0
  -21.8794  -12.5640   21.6111 N   0  0  0  0  0  0  0  0  0  0  0  0
  -30.0626  -15.7051   21.5100 N   0  0  0  0  0  0  0  0  0  0  0  0
  -30.2889  -20.4051   25.2839 N   0  0  0  0  0  0  0  0  0  0  0  0
  -30.7673  -27.2979   17.1716 N   0  0  0  0  0  0  0  0  0  0  0  0
  -30.6118  -20.4962   16.7547 N   0  0  0  0  0  0  0  0  0  0  0  0
  -28.4865  -18.8905   25.2815 N   0  3  0  0  0  0  0  0  0  0  0  0
  -32.8397  -18.1791   18.4084 N   0  3  0  0  0  0  0  0  0  0  0  0
  -22.6480  -14.7088   21.3511 O   0  0  0  0  0  0  0  0  0  0  0  0
  -29.1620  -25.6612   17.5798 O   0  0  0  0  0  0  0  0  0  0  0  0
  -30.9742  -20.4876   27.8376 O   0  0  0  0  0  0  0  0  0  0  0  0
  -30.6774  -23.5459   26.4512 O   0  0  0  0  0  0  0  0  0  0  0  0
  -31.0308  -23.0743   15.5772 O   0  0  0  0  0  0  0  0  0  0  0  0
  -30.5876  -19.7736   18.9580 O   0  0  0  0  0  0  0  0  0  0  0  0
  -31.8407  -14.9668   20.2158 O   0  0  0  0  0  0  0  0  0  0  0  0
  -21.6243   -6.9992   21.6664 O   0  0  0  0  0  0  0  0  0  0  0  0
  -30.4658  -24.4266   23.9265 O   0  0  0  0  0  0  0  0  0  1  0  0
  -16.4576   -6.8161   19.7491 F   0  0  0  0  0  0  0  0  0  0  0  0
  -20.8510   -5.0578   19.8564 F   0  0  0  0  0  0  0  0  0  0  0  0
  -28.5302  -17.4561   23.0634 F   0  0  0  0  0  0  0  0  0  0  0  0
  1  2  1  0  0  0  0
  1  5  2  0  0  0  0
  2  6  2  0  0  0  0
  3  8  2  0  0  0  0
  3 17  1  0  0  0  0
  4  9  1  0  0  0  0
  4 17  2  0  0  0  0
  5 19  1  0  0  0  0
  6 21  1  0  0  0  0
  7 10  2  0  0  0  0
  7 20  1  0  0  0  0
  8 24  1  0  0  0  0
  9 24  2  0  0  0  0
 10 25  1  0  0  0  0
 11 12  2  0  0  0  0
 11 26  1  0  0  0  0
 12 27  1  0  0  0  0
 13 16  1  0  0  0  0
 13 23  2  0  0  0  0
 14 22  1  0  0  0  0
 14 25  2  0  0  0  0
 15 27  2  0  0  0  0
 15 28  1  0  0  0  0
 16 65  2  0  0  0  0
 17 30  1  0  0  0  0
 18 30  1  0  0  0  0
 18 32  2  0  0  0  0
 18 33  1  0  0  0  0
 19 21  2  0  0  0  0
 19 41  1  0  0  0  0
 20 22  2  0  0  0  0
 20 42  1  0  0  0  0
 21 50  1  0  0  0  0
 22 43  1  0  0  0  0
 23 29  1  0  0  0  0
 23 72  1  0  0  0  0
 24 85  1  0  0  0  0
 25 86  1  0  0  0  0
 26 28  2  0  0  0  0
 26 85  1  0  0  0  0
 27 87  1  0  0  0  0
 28 88  1  0  0  0  0
 29 31  2  0  0  0  0
 29 89  1  0  0  0  0
 30 66  2  0  0  0  0
 31 34  1  0  0  0  0
 31 65  1  0  0  0  0
 32 67  1  0  0  0  0
 32 70  1  0  0  0  0
 33 71  1  0  0  0  0
 33 78  2  0  0  0  0
 34 73  1  0  0  0  0
 34 76  2  0  0  0  0
 35 51  1  0  0  0  0
 35 74  1  0  0  0  0
 35 79  2  0  0  0  0
 36 59  1  0  0  0  0
 36 61  1  0  0  0  0
 36 80  2  0  0  0  0
 37 60  1  0  0  0  0
 37 61  1  0  0  0  0
 37 81  2  0  0  0  0
 38 62  1  0  0  0  0
 38 68  1  0  0  0  0
 38 82  2  0  0  0  0
 39 63  1  0  0  0  0
 39 75  1  0  0  0  0
 39 83  2  0  0  0  0
 40 69  1  0  0  0  0
 40 72  1  0  0  0  0
 40 84  2  0  0  0  0
 41 44  1  0  0  0  0
 42 51  1  0  0  0  0
 43 68  1  0  0  0  0
 44 46  1  0  0  0  0
 45 47  1  0  0  0  0
 45 48  1  0  0  0  0
 46 50  1  0  0  0  0
 47 52  1  0  0  0  0
 48 69  1  0  0  0  0
 49 52  1  0  0  0  0
 49 69  1  0  0  0  0
 50 74  1  0  0  0  0
 51 68  1  0  0  0  0
 52 67  1  0  0  0  0
 53 59  1  0  0  0  0
 54 63  1  0  0  0  0
 55 64  1  0  0  0  0
 56 64  1  0  0  0  0
 57 64  1  0  0  0  0
 58 77  1  0  0  0  0
 60 86  1  0  0  0  0
 61 73  1  0  0  0  0
 62 64  1  0  0  0  0
 62 75  1  0  0  0  0
 63 77  1  0  0  0  0
 66 67  1  0  0  0  0
M  CHG  2  76   1  77   1
M  ISO  4  40 100  60 101  72 100  86 101
M  END
> <Batch ID>
0173

> <Smiles>
CCC(=O)C(NC(=N)c1nccc([100NH:0][100C:0](=O)N2CCCC(n3nc(-c4ccc(Oc5ccc(F)cc5F)cc4)c(C(N)=O)c3N)C2)c1F)C(=O)[101CH2:1][101O:1]c1ccc2c(c1)CN(C(=O)C(NC(=O)C(C)NC)C(C)(C)C)C(C(=O)NC1CCCc3ccccc31)C2

> <Shape>
0.197

> <Color>
0.171

> <Negative vol penalty>
0.000

$$$$

  -OEChem-04052304293D

 85 93  0     1  0  0  0  0  0999 V2000
  -26.9904  -32.6657   22.7903 C   0  0  0  0  0  0  0  0  0  0  0  0
  -27.6408  -31.4579   22.5587 C   0  0  0  0  0  0  0  0  0  0  0  0
  -23.0674   -9.8642   19.9004 C   0  0  0  0  0  0  0  0  0  0  0  0
  -23.8591   -9.7930   22.1819 C   0  0  0  0  0  0  0  0  0  0  0  0
  -25.6668  -32.8322   22.3849 C   0  0  0  0  0  0  0  0  0  0  0  0
  -26.9676  -30.4155   21.9227 C   0  0  0  0  0  0  0  0  0  0  0  0
  -29.7788  -28.1795   18.3530 C   0  0  0  0  0  0  0  0  0  0  0  0
  -30.2267  -18.8533   23.3339 C   0  0  0  0  0  0  0  0  0  0  0  0
  -22.3317   -8.6995   20.1193 C   0  0  0  0  0  0  0  0  0  0  0  0
  -23.1233   -8.6284   22.4008 C   0  0  0  0  0  0  0  0  0  0  0  0
  -30.7534  -27.2791   18.7812 C   0  0  0  0  0  0  0  0  0  0  0  0
  -19.9071   -7.7952   23.0189 C   0  0  0  0  0  0  0  0  0  0  0  0
  -19.1666   -7.7103   24.1979 C   0  0  0  0  0  0  0  0  0  0  0  0
  -29.7509  -17.6334   22.8661 C   0  0  0  0  0  0  0  0  0  0  0  0
  -29.2819  -25.4429   18.2499 C   0  0  0  0  0  0  0  0  0  0  0  0
  -20.4259   -5.7535   24.8478 C   0  0  0  0  0  0  0  0  0  0  0  0
  -23.8311  -10.4109   20.9316 C   0  0  0  0  0  0  0  0  0  0  0  0
  -24.1612  -12.9402   20.8969 C   0  0  0  0  0  0  0  0  0  0  0  0
  -24.9801  -31.7947   21.7349 C   0  0  0  0  0  0  0  0  0  0  0  0
  -28.5422  -27.7179   17.8795 C   0  0  0  0  0  0  0  0  0  0  0  0
  -25.6332  -30.5679   21.5094 C   0  0  0  0  0  0  0  0  0  0  0  0
  -28.2943  -26.3393   17.8139 C   0  0  0  0  0  0  0  0  0  0  0  0
  -31.4825  -19.3010   22.9389 C   0  0  0  0  0  0  0  0  0  0  0  0
  -22.3596   -8.0817   21.3695 C   0  0  0  0  0  0  0  0  0  0  0  0
  -30.5040  -25.9107   18.7324 C   0  0  0  0  0  0  0  0  0  0  0  0
  -20.9069   -6.8592   22.7543 C   0  0  0  0  0  0  0  0  0  0  0  0
  -19.4261   -6.6894   25.1124 C   0  0  0  0  0  0  0  0  0  0  0  0
  -21.1663   -5.8384   23.6687 C   0  0  0  0  0  0  0  0  0  0  0  0
  -24.5918  -11.6136   20.7059 C   0  0  0  0  0  0  0  0  0  0  0  0
  -30.5632  -16.9049   22.0121 C   0  0  0  0  0  0  0  0  0  0  0  0
  -32.2173  -18.4977   22.0819 C   0  0  0  0  0  0  0  0  0  0  0  0
  -25.2452  -13.7071   20.5455 C   0  0  0  0  0  0  0  0  0  0  0  0
  -31.1424  -24.1912   20.1837 C   0  0  0  0  0  0  0  0  0  1  0  0
  -22.8946  -13.4351   21.3513 C   0  0  0  0  0  0  0  0  0  0  0  0
  -31.9411  -23.2617   20.7310 C   0  0  0  0  0  0  0  0  0  0  0  0
  -31.3952  -22.4447   21.8618 C   0  0  0  0  0  0  0  0  0  0  0  0
  -25.5190  -28.0577   18.8004 C   0  0  0  0  0  0  0  0  0  0  0  0
  -24.9077  -26.4657   16.0410 C   0  0  0  0  0  0  0  0  0  0  0  0
  -26.0177  -24.3307   13.6210 C   0  0  0  0  0  0  0  0  0  0  0  0
  -30.7090  -14.7703   20.6822 C   0  0  0  0  0  0  0  0  0  0  0  0
  -23.5352  -32.0053   21.3575 C   0  0  0  0  0  0  0  0  0  0  0  0
  -27.5116  -28.7010   17.3962 C   0  0  0  0  0  0  0  0  0  0  0  0
  -26.9907  -25.7919   17.2949 C   0  0  0  0  0  0  0  0  0  0  0  0
  -23.0121  -30.9804   20.3543 C   0  0  0  0  0  0  0  0  0  0  0  0
  -29.5715  -12.4372   18.2450 C   0  0  0  0  0  0  0  0  0  0  0  0
  -23.4185  -29.5703   20.7706 C   0  0  0  0  0  0  0  0  0  0  0  0
  -28.1391  -12.1241   18.6837 C   0  0  0  0  0  0  0  0  0  0  0  0
  -30.5023  -12.6273   19.4414 C   0  0  0  0  0  0  0  0  0  0  0  0
  -28.6118  -13.2936   20.8736 C   0  0  0  0  0  0  0  0  0  0  0  0
  -24.9445  -29.4221   20.8002 C   0  0  1  0  0  0  0  0  0  0  0  0
  -26.0939  -28.1379   17.4145 C   0  0  1  0  0  0  0  0  0  0  0  0
  -27.6234  -13.1580   19.7039 C   0  0  2  0  0  0  0  0  0  0  0  0
  -25.2786  -23.1865   11.5134 C   0  0  0  0  0  0  0  0  0  0  0  0
  -23.2748  -24.4859   17.6914 C   0  0  0  0  0  0  0  0  0  0  0  0
  -23.3694  -22.9011   15.7555 C   0  0  0  0  0  0  0  0  0  0  0  0
  -22.2471  -25.1142   15.4997 C   0  0  0  0  0  0  0  0  0  0  0  0
  -28.1175  -25.6682   12.0208 C   0  0  0  0  0  0  0  0  0  0  0  0
  -32.0209  -20.6136   23.4303 C   0  0  0  0  0  0  0  0  0  0  0  0
  -24.7687  -25.0135   15.6528 C   0  0  1  0  0  0  0  0  0  0  0  0
  -25.9622  -24.4089   12.1060 C   0  0  2  0  0  0  0  0  0  0  0  0
  -23.4390  -24.3887   16.1615 C   0  0  0  0  0  0  0  0  0  0  0  0
  -25.8511  -11.5384   20.2671 N   0  0  0  0  0  0  0  0  0  0  0  0
  -31.7884  -17.3070   21.6065 N   0  0  0  0  0  0  0  0  0  0  0  0
  -26.2210  -12.8274   20.1794 N   0  0  0  0  0  0  0  0  0  0  0  0
  -26.0123  -26.7935   16.8399 N   0  0  0  0  0  0  0  0  0  0  0  0
  -29.9514  -13.6238   20.3625 N   0  0  0  0  0  0  0  0  0  0  0  0
  -25.4492  -15.0412   20.5171 N   0  0  0  0  0  0  0  0  0  0  0  0
  -21.8911  -12.5100   21.6699 N   0  0  0  0  0  0  0  0  0  0  0  0
  -30.0694  -15.6628   21.5418 N   0  0  0  0  0  0  0  0  0  0  0  0
  -32.3080  -21.5218   22.3428 N   0  0  0  0  0  0  0  0  0  0  0  0
  -25.4638  -29.2719   19.4577 N   0  0  0  0  0  0  0  0  0  0  0  0
  -24.9386  -24.9599   14.2048 N   0  0  0  0  0  0  0  0  0  0  0  0
  -27.3384  -24.4978   11.5411 N   0  3  0  0  0  0  0  0  0  0  0  0
  -22.6542  -14.6619   21.4557 O   0  0  0  0  0  0  0  0  0  0  0  0
  -30.2555  -22.6007   22.2912 O   0  0  0  0  0  0  0  0  0  0  0  0
  -25.1513  -26.9746   19.2402 O   0  0  0  0  0  0  0  0  0  0  0  0
  -24.0711  -27.2806   15.6438 O   0  0  0  0  0  0  0  0  0  0  0  0
  -26.9255  -23.7646   14.2259 O   0  0  0  0  0  0  0  0  0  0  0  0
  -31.8308  -14.9606   20.2054 O   0  0  0  0  0  0  0  0  0  0  0  0
  -33.2313  -23.0076   20.3203 O   0  0  0  0  0  0  0  0  0  0  0  0
  -21.6417   -6.9453   21.5836 O   0  0  0  0  0  0  0  0  0  0  0  0
  -31.4533  -25.0298   19.1504 O   0  0  0  0  0  0  0  0  0  1  0  0
  -18.7160   -6.6089   26.2453 F   0  0  0  0  0  0  0  0  0  0  0  0
  -22.1264   -4.9370   23.4205 F   0  0  0  0  0  0  0  0  0  0  0  0
  -33.4337  -18.9094   21.6890 F   0  0  0  0  0  0  0  0  0  0  0  0
  1  2  1  0  0  0  0
  1  5  2  0  0  0  0
  2  6  2  0  0  0  0
  3  9  2  0  0  0  0
  3 17  1  0  0  0  0
  4 10  1  0  0  0  0
  4 17  2  0  0  0  0
  5 19  1  0  0  0  0
  6 21  1  0  0  0  0
  7 11  2  0  0  0  0
  7 20  1  0  0  0  0
  8 14  2  0  0  0  0
  8 23  1  0  0  0  0
  9 24  1  0  0  0  0
 10 24  2  0  0  0  0
 11 25  1  0  0  0  0
 12 13  2  0  0  0  0
 12 26  1  0  0  0  0
 13 27  1  0  0  0  0
 14 30  1  0  0  0  0
 15 22  1  0  0  0  0
 15 25  2  0  0  0  0
 16 27  2  0  0  0  0
 16 28  1  0  0  0  0
 17 29  1  0  0  0  0
 18 29  1  0  0  0  0
 18 32  2  0  0  0  0
 18 34  1  0  0  0  0
 19 21  2  0  0  0  0
 19 41  1  0  0  0  0
 20 22  2  0  0  0  0
 20 42  1  0  0  0  0
 21 50  1  0  0  0  0
 22 43  1  0  0  0  0
 23 31  2  0  0  0  0
 23 58  1  0  0  0  0
 24 81  1  0  0  0  0
 25 82  1  0  0  0  0
 26 28  2  0  0  0  0
 26 81  1  0  0  0  0
 27 83  1  0  0  0  0
 28 84  1  0  0  0  0
 29 62  2  0  0  0  0
 30 63  2  0  0  0  0
 30 69  1  0  0  0  0
 31 63  1  0  0  0  0
 31 85  1  0  0  0  0
 32 64  1  0  0  0  0
 32 67  1  0  0  0  0
 33 35  2  0  0  0  0
 33 82  1  0  0  0  0
 34 68  1  0  0  0  0
 34 74  2  0  0  0  0
 35 36  1  0  0  0  0
 35 80  1  0  0  0  0
 36 70  1  0  0  0  0
 36 75  2  0  0  0  0
 37 51  1  0  0  0  0
 37 71  1  0  0  0  0
 37 76  2  0  0  0  0
 38 59  1  0  0  0  0
 38 65  1  0  0  0  0
 38 77  2  0  0  0  0
 39 60  1  0  0  0  0
 39 72  1  0  0  0  0
 39 78  2  0  0  0  0
 40 66  1  0  0  0  0
 40 69  1  0  0  0  0
 40 79  2  0  0  0  0
 41 44  1  0  0  0  0
 42 51  1  0  0  0  0
 43 65  1  0  0  0  0
 44 46  1  0  0  0  0
 45 47  1  0  0  0  0
 45 48  1  0  0  0  0
 46 50  1  0  0  0  0
 47 52  1  0  0  0  0
 48 66  1  0  0  0  0
 49 52  1  0  0  0  0
 49 66  1  0  0  0  0
 50 71  1  0  0  0  0
 51 65  1  0  0  0  0
 52 64  1  0  0  0  0
 53 60  1  0  0  0  0
 54 61  1  0  0  0  0
 55 61  1  0  0  0  0
 56 61  1  0  0  0  0
 57 73  1  0  0  0  0
 58 70  1  0  0  0  0
 59 61  1  0  0  0  0
 59 72  1  0  0  0  0
 60 73  1  0  0  0  0
 62 64  1  0  0  0  0
M  CHG  1  73   1
M  ISO  4  33 101  40 100  69 100  82 101
M  END
> <Batch ID>
0173

> <Smiles>
CNC(C)C(=O)NC(C(=O)N1Cc2cc([101O:1][101CH2:1]C(=O)C(=O)NCc3ccc([100NH:0][100C:0](=O)N4CCCC(n5nc(-c6ccc(Oc7ccc(F)cc7F)cc6)c(C(N)=O)c5N)C4)nc3F)ccc2CC1C(=O)NC1CCCc2ccccc21)C(C)(C)C

> <Shape>
0.288

> <Color>
0.209

> <Negative vol penalty>
0.000

$$$$

  -OEChem-04052304293D

 86 94  0     1  0  0  0  0  0999 V2000
  -16.6145  -29.4030   23.9437 C   0  0  0  0  0  0  0  0  0  0  0  0
  -17.6838  -29.8876   24.6902 C   0  0  0  0  0  0  0  0  0  0  0  0
  -23.9228  -13.9086   21.3429 C   0  0  0  0  0  0  0  0  0  0  0  0
  -25.9446  -13.8955   20.0203 C   0  0  0  0  0  0  0  0  0  0  0  0
  -16.8458  -28.5264   22.8845 C   0  0  0  0  0  0  0  0  0  0  0  0
  -18.9850  -29.4949   24.3786 C   0  0  0  0  0  0  0  0  0  0  0  0
  -25.7169  -31.9436   24.4211 C   0  0  0  0  0  0  0  0  0  0  0  0
  -30.9373  -23.5959   22.2453 C   0  0  0  0  0  0  0  0  0  0  0  0
  -23.6113  -12.6305   20.8793 C   0  0  0  0  0  0  0  0  0  0  0  0
  -25.6331  -12.6174   19.5567 C   0  0  0  0  0  0  0  0  0  0  0  0
  -26.9862  -31.5969   24.8820 C   0  0  0  0  0  0  0  0  0  0  0  0
  -22.4658   -9.2254   20.3242 C   0  0  0  0  0  0  0  0  0  0  0  0
  -22.0252   -8.2867   21.2571 C   0  0  0  0  0  0  0  0  0  0  0  0
  -29.9842  -22.6759   21.8229 C   0  0  0  0  0  0  0  0  0  0  0  0
  -27.2723  -30.1403   22.9805 C   0  0  0  0  0  0  0  0  0  0  0  0
  -24.1072   -8.5077   22.4627 C   0  0  0  0  0  0  0  0  0  0  0  0
  -25.0895  -14.5412   20.9133 C   0  0  0  0  0  0  0  0  0  0  0  0
  -26.1624  -16.1919   22.5355 C   0  0  0  0  0  0  0  0  0  0  0  0
  -18.1513  -28.1303   22.5536 C   0  0  0  0  0  0  0  0  0  0  0  0
  -25.2106  -31.3819   23.2401 C   0  0  0  0  0  0  0  0  0  0  0  0
  -19.2338  -28.6111   23.3148 C   0  0  0  0  0  0  0  0  0  0  0  0
  -25.9974  -30.4834   22.5054 C   0  0  0  0  0  0  0  0  0  0  0  0
  -30.7771  -24.9434   21.9419 C   0  0  0  0  0  0  0  0  0  0  0  0
  -24.4664  -11.9849   19.9863 C   0  0  0  0  0  0  0  0  0  0  0  0
  -27.7630  -30.6930   24.1633 C   0  0  0  0  0  0  0  0  0  0  0  0
  -23.7271   -9.8052   20.4605 C   0  0  0  0  0  0  0  0  0  0  0  0
  -22.8458   -7.9279   22.3264 C   0  0  0  0  0  0  0  0  0  0  0  0
  -24.5478   -9.4464   21.5298 C   0  0  0  0  0  0  0  0  0  0  0  0
  -25.4116  -15.8617   21.3914 C   0  0  0  0  0  0  0  0  0  0  0  0
  -28.8979  -23.1504   21.1055 C   0  0  0  0  0  0  0  0  0  0  0  0
  -29.6554  -25.3163   21.2190 C   0  0  0  0  0  0  0  0  0  0  0  0
  -26.1813  -17.5652   22.5492 C   0  0  0  0  0  0  0  0  0  0  0  0
  -26.7871  -15.3340   23.4996 C   0  0  0  0  0  0  0  0  0  0  0  0
  -22.7192  -29.5445   22.5185 C   0  0  0  0  0  0  0  0  0  0  0  0
  -31.3671  -26.7536   23.6020 C   0  0  0  0  0  0  0  0  0  0  0  0
  -31.0853  -29.1270   24.4648 C   0  0  0  0  0  0  0  0  0  0  0  0
  -23.7005  -30.0813   19.4737 C   0  0  0  0  0  0  0  0  0  0  0  0
  -26.2449  -30.8990   17.3514 C   0  0  0  0  0  0  0  0  0  0  0  0
  -26.7696  -22.4547   19.9511 C   0  0  0  0  0  0  0  0  0  0  0  0
  -18.3478  -27.1438   21.4299 C   0  0  0  0  0  0  0  0  0  0  0  0
  -23.8502  -31.7866   22.7422 C   0  0  0  0  0  0  0  0  0  0  0  0
  -25.5080  -29.8678   21.2208 C   0  0  0  0  0  0  0  0  0  0  0  0
  -19.7877  -27.0708   20.9283 C   0  0  0  0  0  0  0  0  0  0  0  0
  -23.5582  -20.9230   19.8168 C   0  0  0  0  0  0  0  0  0  0  0  0
  -20.7581  -26.9828   22.1019 C   0  0  0  0  0  0  0  0  0  0  0  0
  -23.8159  -19.4969   20.3086 C   0  0  0  0  0  0  0  0  0  0  0  0
  -24.7177  -21.4503   18.9734 C   0  0  0  0  0  0  0  0  0  0  0  0
  -26.2968  -19.9308   20.0990 C   0  0  0  0  0  0  0  0  0  0  0  0
  -20.6618  -28.2278   22.9920 C   0  0  1  0  0  0  0  0  0  0  0  0
  -23.2296  -30.7607   21.7988 C   0  0  1  0  0  0  0  0  0  0  0  0
  -25.1849  -19.3803   21.0070 C   0  0  2  0  0  0  0  0  0  0  0  0
  -26.7510  -31.2214   14.9147 C   0  0  0  0  0  0  0  0  0  0  0  0
  -23.7242  -27.0556   19.0807 C   0  0  0  0  0  0  0  0  0  0  0  0
  -25.1097  -27.4035   17.0245 C   0  0  0  0  0  0  0  0  0  0  0  0
  -22.8055  -28.3513   17.1490 C   0  0  0  0  0  0  0  0  0  0  0  0
  -28.3708  -27.1792   20.1676 C   0  0  0  0  0  0  0  0  0  0  0  0
  -26.9931  -33.7327   17.7627 C   0  0  0  0  0  0  0  0  0  0  0  0
  -31.8111  -25.9371   22.4016 C   0  0  0  0  0  0  0  0  0  0  0  0
  -31.9639  -28.1378   23.7313 C   0  0  0  0  0  0  0  0  0  0  0  0
  -29.7434  -29.4205   23.8252 C   0  0  0  0  0  0  0  0  0  1  0  0
  -24.6525  -29.3990   18.5213 C   0  0  1  0  0  0  0  0  0  0  0  0
  -26.3227  -31.8956   16.2089 C   0  0  2  0  0  0  0  0  0  0  0  0
  -24.0817  -28.0623   17.9691 C   0  0  0  0  0  0  0  0  0  0  0  0
  -24.9843  -16.9385   20.7266 N   0  0  0  0  0  0  0  0  0  0  0  0
  -28.7083  -24.4515   20.7916 N   0  0  0  0  0  0  0  0  0  0  0  0
  -25.4681  -17.9588   21.4553 N   0  0  0  0  0  0  0  0  0  0  0  0
  -24.1688  -30.2903   20.7786 N   0  0  0  0  0  0  0  0  0  0  0  0
  -25.9813  -21.3116   19.7007 N   0  0  0  0  0  0  0  0  0  0  0  0
  -26.7382  -18.4625   23.3903 N   0  0  0  0  0  0  0  0  0  0  0  0
  -26.6696  -13.9471   23.3352 N   0  0  0  0  0  0  0  0  0  0  0  0
  -27.9325  -22.2049   20.6791 N   0  0  0  0  0  0  0  0  0  0  0  0
  -29.4874  -26.6887   20.9076 N   0  0  0  0  0  0  0  0  0  0  0  0
  -21.3594  -29.3398   22.3827 N   0  0  0  0  0  0  0  0  0  0  0  0
  -24.9745  -30.3817   17.4922 N   0  0  0  0  0  0  0  0  0  0  0  0
  -27.3044  -32.9711   16.5257 N   0  3  0  0  0  0  0  0  0  0  0  0
  -27.4164  -15.7840   24.4870 O   0  0  0  0  0  0  0  0  0  0  0  0
  -23.5013  -28.8430   23.1492 O   0  0  0  0  0  0  0  0  0  0  0  0
  -30.5519  -26.3420   24.4273 O   0  0  0  0  0  0  0  0  0  0  0  0
  -31.4396  -29.6676   25.5115 O   0  0  0  0  0  0  0  0  0  0  0  0
  -22.5851  -30.4230   19.0726 O   0  0  0  0  0  0  0  0  0  0  0  0
  -27.2149  -30.6058   18.0468 O   0  0  0  0  0  0  0  0  0  0  0  0
  -26.4239  -23.5769   19.5729 O   0  0  0  0  0  0  0  0  0  0  0  0
  -24.1628  -10.7376   19.5339 O   0  0  0  0  0  0  0  0  0  0  0  0
  -29.0020  -30.3524   24.6113 O   0  0  0  0  0  0  0  0  0  1  0  0
  -22.4220   -7.0276   23.2230 F   0  0  0  0  0  0  0  0  0  0  0  0
  -25.7601  -10.0008   21.6666 F   0  0  0  0  0  0  0  0  0  0  0  0
  1  2  1  0  0  0  0
  1  5  2  0  0  0  0
  2  6  2  0  0  0  0
  3  9  2  0  0  0  0
  3 17  1  0  0  0  0
  4 10  1  0  0  0  0
  4 17  2  0  0  0  0
  5 19  1  0  0  0  0
  6 21  1  0  0  0  0
  7 11  2  0  0  0  0
  7 20  1  0  0  0  0
  8 14  2  0  0  0  0
  8 23  1  0  0  0  0
  9 24  1  0  0  0  0
 10 24  2  0  0  0  0
 11 25  1  0  0  0  0
 12 13  2  0  0  0  0
 12 26  1  0  0  0  0
 13 27  1  0  0  0  0
 14 30  1  0  0  0  0
 15 22  1  0  0  0  0
 15 25  2  0  0  0  0
 16 27  2  0  0  0  0
 16 28  1  0  0  0  0
 17 29  1  0  0  0  0
 18 29  1  0  0  0  0
 18 32  2  0  0  0  0
 18 33  1  0  0  0  0
 19 21  2  0  0  0  0
 19 40  1  0  0  0  0
 20 22  2  0  0  0  0
 20 41  1  0  0  0  0
 21 49  1  0  0  0  0
 22 42  1  0  0  0  0
 23 31  2  0  0  0  0
 23 58  1  0  0  0  0
 24 83  1  0  0  0  0
 25 84  1  0  0  0  0
 26 28  2  0  0  0  0
 26 83  1  0  0  0  0
 27 85  1  0  0  0  0
 28 86  1  0  0  0  0
 29 64  2  0  0  0  0
 30 65  2  0  0  0  0
 30 71  1  0  0  0  0
 31 65  1  0  0  0  0
 31 72  1  0  0  0  0
 32 66  1  0  0  0  0
 32 69  1  0  0  0  0
 33 70  1  0  0  0  0
 33 76  2  0  0  0  0
 34 50  1  0  0  0  0
 34 73  1  0  0  0  0
 34 77  2  0  0  0  0
 35 58  1  0  0  0  0
 35 59  1  0  0  0  0
 35 78  2  0  0  0  0
 36 59  1  0  0  0  0
 36 60  1  0  0  0  0
 36 79  2  0  0  0  0
 37 61  1  0  0  0  0
 37 67  1  0  0  0  0
 37 80  2  0  0  0  0
 38 62  1  0  0  0  0
 38 74  1  0  0  0  0
 38 81  2  0  0  0  0
 39 68  1  0  0  0  0
 39 71  1  0  0  0  0
 39 82  2  0  0  0  0
 40 43  1  0  0  0  0
 41 50  1  0  0  0  0
 42 67  1  0  0  0  0
 43 45  1  0  0  0  0
 44 46  1  0  0  0  0
 44 47  1  0  0  0  0
 45 49  1  0  0  0  0
 46 51  1  0  0  0  0
 47 68  1  0  0  0  0
 48 51  1  0  0  0  0
 48 68  1  0  0  0  0
 49 73  1  0  0  0  0
 50 67  1  0  0  0  0
 51 66  1  0  0  0  0
 52 62  1  0  0  0  0
 53 63  1  0  0  0  0
 54 63  1  0  0  0  0
 55 63  1  0  0  0  0
 56 72  1  0  0  0  0
 57 75  1  0  0  0  0
 60 84  1  0  0  0  0
 61 63  1  0  0  0  0
 61 74  1  0  0  0  0
 62 75  1  0  0  0  0
 64 66  1  0  0  0  0
M  CHG  1  75   1
M  ISO  4  39 100  60 101  71 100  84 101
M  END
> <Batch ID>
0173

> <Smiles>
CNc1nc([100NH:0][100C:0](=O)N2CCCC(n3nc(-c4ccc(Oc5ccc(F)cc5F)cc4)c(C(N)=O)c3N)C2)ccc1CC(=O)CC(=O)[101CH2:1][101O:1]c1ccc2c(c1)CN(C(=O)C(NC(=O)C(C)NC)C(C)(C)C)C(C(=O)NC1CCCc3ccccc31)C2

> <Shape>
0.280

> <Color>
0.098

> <Negative vol penalty>
0.000

$$$$

  -OEChem-04052304293D

 87 95  0     1  0  0  0  0  0999 V2000
  -30.2406  -20.9484   21.9444 C   0  0  0  0  0  0  0  0  0  0  0  0
  -28.8669  -21.0917   21.7780 C   0  0  0  0  0  0  0  0  0  0  0  0
  -29.6530  -27.2940   20.6762 C   0  0  0  0  0  0  0  0  0  0  0  0
  -27.8714  -26.5088   19.2456 C   0  0  0  0  0  0  0  0  0  0  0  0
  -30.8662  -19.7589   21.5735 C   0  0  0  0  0  0  0  0  0  0  0  0
  -28.1181  -20.0459   21.2395 C   0  0  0  0  0  0  0  0  0  0  0  0
  -23.8237  -19.2161   23.7920 C   0  0  0  0  0  0  0  0  0  0  0  0
  -30.3047  -26.0686   20.5372 C   0  0  0  0  0  0  0  0  0  0  0  0
  -28.5232  -25.2835   19.1065 C   0  0  0  0  0  0  0  0  0  0  0  0
  -22.7628  -20.0887   23.5539 C   0  0  0  0  0  0  0  0  0  0  0  0
  -29.8952  -22.0759   18.0833 C   0  0  0  0  0  0  0  0  0  0  0  0
  -29.9797  -21.5269   16.8038 C   0  0  0  0  0  0  0  0  0  0  0  0
  -21.7648  -18.4630   22.0774 C   0  0  0  0  0  0  0  0  0  0  0  0
  -31.1930  -23.4747   16.0482 C   0  0  0  0  0  0  0  0  0  0  0  0
  -28.4363  -27.5141   20.0304 C   0  0  0  0  0  0  0  0  0  0  0  0
  -27.9120  -29.9194   19.3618 C   0  0  0  0  0  0  0  0  0  0  0  0
  -30.1233  -18.6944   21.0392 C   0  0  0  0  0  0  0  0  0  0  0  0
  -23.8688  -17.9626   23.1650 C   0  0  0  0  0  0  0  0  0  0  0  0
  -28.7345  -18.8415   20.8599 C   0  0  0  0  0  0  0  0  0  0  0  0
  -22.8261  -17.5753   22.3111 C   0  0  0  0  0  0  0  0  0  0  0  0
  -29.7398  -25.0634   19.7523 C   0  0  0  0  0  0  0  0  0  0  0  0
  -21.7346  -19.7134   22.6943 C   0  0  0  0  0  0  0  0  0  0  0  0
  -30.4596  -23.3243   18.3452 C   0  0  0  0  0  0  0  0  0  0  0  0
  -30.6286  -22.2263   15.7863 C   0  0  0  0  0  0  0  0  0  0  0  0
  -31.1085  -24.0237   17.3277 C   0  0  0  0  0  0  0  0  0  0  0  0
  -27.7623  -28.7795   20.1741 C   0  0  0  0  0  0  0  0  0  0  0  0
  -18.6003  -28.4151   23.3706 C   0  0  0  0  0  0  0  0  0  0  0  0
  -19.5716  -28.4367   22.3916 C   0  0  0  0  0  0  0  0  0  0  0  0
  -27.0609  -30.8468   19.9113 C   0  0  0  0  0  0  0  0  0  0  0  0
  -19.3185  -26.2645   22.5573 C   0  0  0  0  0  0  0  0  0  0  0  0
  -28.7458  -30.1219   18.2131 C   0  0  0  0  0  0  0  0  0  0  0  0
  -17.9601  -29.4841   24.0620 C   0  0  0  0  0  0  0  0  0  0  0  0
  -20.0758  -22.7094   21.5845 C   0  0  0  0  0  0  0  0  0  0  0  0
  -20.2610  -24.1977   21.5166 C   0  0  0  0  0  0  0  0  0  0  0  0
  -25.8531  -16.5440   21.1269 C   0  0  0  0  0  0  0  0  0  0  0  0
  -23.9450  -13.9759   21.6623 C   0  0  0  0  0  0  0  0  0  0  0  0
  -20.8941  -12.7825   22.6187 C   0  0  0  0  0  0  0  0  0  0  0  0
  -22.0996  -30.3663   23.2288 C   0  0  0  0  0  0  0  0  0  0  0  0
  -30.8508  -17.4452   20.6090 C   0  0  0  0  0  0  0  0  0  0  0  0
  -25.0067  -17.0221   23.4531 C   0  0  0  0  0  0  0  0  0  0  0  0
  -22.8171  -16.2324   21.6291 C   0  0  0  0  0  0  0  0  0  0  0  0
  -29.9294  -16.2473   20.3940 C   0  0  0  0  0  0  0  0  0  0  0  0
  -25.0854  -32.1077   24.0825 C   0  0  0  0  0  0  0  0  0  0  0  0
  -28.7091  -16.6528   19.5735 C   0  0  0  0  0  0  0  0  0  0  0  0
  -26.1236  -31.5551   23.1043 C   0  0  0  0  0  0  0  0  0  0  0  0
  -24.1009  -31.0294   24.5294 C   0  0  0  0  0  0  0  0  0  0  0  0
  -24.4702  -29.7549   22.4526 C   0  0  0  0  0  0  0  0  0  0  0  0
  -27.8844  -17.7206   20.3022 C   0  0  1  0  0  0  0  0  0  0  0  0
  -25.2092  -15.9769   22.3604 C   0  0  1  0  0  0  0  0  0  0  0  0
  -25.4513  -30.8184   21.9302 C   0  0  2  0  0  0  0  0  0  0  0  0
  -16.5375  -29.2845   24.5428 C   0  0  0  0  0  0  0  0  0  0  0  0
  -19.9722  -29.7755   20.2919 C   0  0  0  0  0  0  0  0  0  0  0  0
  -19.6229  -10.6398   22.9192 C   0  0  0  0  0  0  0  0  0  0  0  0
  -23.5994  -13.7597   18.6385 C   0  0  0  0  0  0  0  0  0  0  0  0
  -21.6305  -12.2663   19.0403 C   0  0  0  0  0  0  0  0  0  0  0  0
  -23.8984  -11.5723   19.8134 C   0  0  0  0  0  0  0  0  0  0  0  0
  -20.5079  -13.2817   25.5102 C   0  0  0  0  0  0  0  0  0  0  0  0
  -20.9752  -21.9614   22.5337 C   0  0  0  0  0  0  0  0  0  1  0  0
  -20.1952  -29.6437   21.8111 C   0  0  2  0  0  0  0  0  0  0  0  0
  -22.6879  -13.4279   21.0312 C   0  0  1  0  0  0  0  0  0  0  0  0
  -20.5015  -11.6841   23.5902 C   0  0  2  0  0  0  0  0  0  0  0  0
  -22.9549  -12.7827   19.6420 C   0  0  0  0  0  0  0  0  0  0  0  0
  -26.8852  -28.9636   21.1645 N   0  0  0  0  0  0  0  0  0  0  0  0
  -19.9849  -27.2044   21.9243 N   0  0  0  0  0  0  0  0  0  0  0  0
  -26.4762  -30.2301   20.9781 N   0  0  0  0  0  0  0  0  0  0  0  0
  -23.9548  -15.3506   21.9379 N   0  0  0  0  0  0  0  0  0  0  0  0
  -23.4972  -30.3704   23.3687 N   0  0  0  0  0  0  0  0  0  0  0  0
  -26.7631  -32.1215   19.5813 N   0  0  0  0  0  0  0  0  0  0  0  0
  -29.5585  -29.0643   17.7827 N   0  0  0  0  0  0  0  0  0  0  0  0
  -19.4268  -24.8644   22.3879 N   0  0  0  0  0  0  0  0  0  0  0  0
  -27.0902  -17.1173   21.3509 N   0  0  0  0  0  0  0  0  0  0  0  0
  -22.1028  -12.5181   22.0101 N   0  0  0  0  0  0  0  0  0  0  0  0
  -21.6102  -29.7258   22.0971 N   0  0  0  0  0  0  0  0  0  0  0  0
  -19.7528  -12.2568   24.7445 N   0  3  0  0  0  0  0  0  0  0  0  0
  -28.7816  -31.2139   17.5968 O   0  0  0  0  0  0  0  0  0  0  0  0
  -18.4610  -30.6006   24.3161 O   0  0  0  0  0  0  0  0  0  0  0  0
  -19.2301  -22.2111   20.8570 O   0  0  0  0  0  0  0  0  0  0  0  0
  -21.0773  -24.6105   20.7096 O   0  0  0  0  0  0  0  0  0  0  0  0
  -25.2712  -16.4657   20.0513 O   0  0  0  0  0  0  0  0  0  0  0  0
  -24.8810  -13.2110   21.9086 O   0  0  0  0  0  0  0  0  0  0  0  0
  -20.1964  -13.7740   22.4169 O   0  0  0  0  0  0  0  0  0  0  0  0
  -21.3441  -30.8991   24.0489 O   0  0  0  0  0  0  0  0  0  0  0  0
  -30.3756  -23.8676   19.6162 O   0  0  0  0  0  0  0  0  0  0  0  0
  -20.6982  -20.5635   22.4596 O   0  0  0  0  0  0  0  0  0  1  0  0
  -30.7109  -21.6983   14.5580 F   0  0  0  0  0  0  0  0  0  0  0  0
  -31.6536  -25.2229   17.5736 F   0  0  0  0  0  0  0  0  0  0  0  0
  -18.1787  -26.7914   23.7269 S   0  0  0  0  0  0  0  0  0  0  0  0
  1  2  1  0  0  0  0
  1  5  2  0  0  0  0
  2  6  2  0  0  0  0
  3  8  2  0  0  0  0
  3 15  1  0  0  0  0
  4  9  1  0  0  0  0
  4 15  2  0  0  0  0
  5 17  1  0  0  0  0
  6 19  1  0  0  0  0
  7 10  2  0  0  0  0
  7 18  1  0  0  0  0
  8 21  1  0  0  0  0
  9 21  2  0  0  0  0
 10 22  1  0  0  0  0
 11 12  2  0  0  0  0
 11 23  1  0  0  0  0
 12 24  1  0  0  0  0
 13 20  1  0  0  0  0
 13 22  2  0  0  0  0
 14 24  2  0  0  0  0
 14 25  1  0  0  0  0
 15 26  1  0  0  0  0
 16 26  1  0  0  0  0
 16 29  2  0  0  0  0
 16 31  1  0  0  0  0
 17 19  2  0  0  0  0
 17 39  1  0  0  0  0
 18 20  2  0  0  0  0
 18 40  1  0  0  0  0
 19 48  1  0  0  0  0
 20 41  1  0  0  0  0
 21 83  1  0  0  0  0
 22 84  1  0  0  0  0
 23 25  2  0  0  0  0
 23 83  1  0  0  0  0
 24 85  1  0  0  0  0
 25 86  1  0  0  0  0
 26 63  2  0  0  0  0
 27 28  2  0  0  0  0
 27 32  1  0  0  0  0
 27 87  1  0  0  0  0
 28 59  1  0  0  0  0
 28 64  1  0  0  0  0
 29 65  1  0  0  0  0
 29 68  1  0  0  0  0
 30 64  2  0  0  0  0
 30 70  1  0  0  0  0
 30 87  1  0  0  0  0
 31 69  1  0  0  0  0
 31 75  2  0  0  0  0
 32 51  1  0  0  0  0
 32 76  2  0  0  0  0
 33 34  1  0  0  0  0
 33 58  1  0  0  0  0
 33 77  2  0  0  0  0
 34 70  1  0  0  0  0
 34 78  2  0  0  0  0
 35 49  1  0  0  0  0
 35 71  1  0  0  0  0
 35 79  2  0  0  0  0
 36 60  1  0  0  0  0
 36 66  1  0  0  0  0
 36 80  2  0  0  0  0
 37 61  1  0  0  0  0
 37 72  1  0  0  0  0
 37 81  2  0  0  0  0
 38 67  1  0  0  0  0
 38 73  1  0  0  0  0
 38 82  2  0  0  0  0
 39 42  1  0  0  0  0
 40 49  1  0  0  0  0
 41 66  1  0  0  0  0
 42 44  1  0  0  0  0
 43 45  1  0  0  0  0
 43 46  1  0  0  0  0
 44 48  1  0  0  0  0
 45 50  1  0  0  0  0
 46 67  1  0  0  0  0
 47 50  1  0  0  0  0
 47 67  1  0  0  0  0
 48 71  1  0  0  0  0
 49 66  1  0  0  0  0
 50 65  1  0  0  0  0
 52 59  1  0  0  0  0
 53 61  1  0  0  0  0
 54 62  1  0  0  0  0
 55 62  1  0  0  0  0
 56 62  1  0  0  0  0
 57 74  1  0  0  0  0
 58 84  1  0  0  0  0
 59 73  1  0  0  0  0
 60 62  1  0  0  0  0
 60 72  1  0  0  0  0
 61 74  1  0  0  0  0
 63 65  1  0  0  0  0
M  CHG  1  74   1
M  ISO  4  38 100  58 101  73 100  84 101
M  END
> <Batch ID>
0173

> <Smiles>
CNC(C)C(=O)NC(C(=O)N1Cc2cc([101O:1][101CH2:1]C(=O)C(=O)Nc3nc(C(C)[100NH:0][100C:0](=O)N4CCCC(n5nc(-c6ccc(Oc7ccc(F)cc7F)cc6)c(C(N)=O)c5N)C4)c(C(C)=O)s3)ccc2CC1C(=O)NC1CCCc2ccccc21)C(C)(C)C

> <Shape>
0.258

> <Color>
0.052

> <Negative vol penalty>
0.000

$$$$

  -OEChem-04052304293D

 87 95  0     1  0  0  0  0  0999 V2000
  -30.1084  -24.3776   18.8241 C   0  0  0  0  0  0  0  0  0  0  0  0
  -28.9157  -25.0327   18.5387 C   0  0  0  0  0  0  0  0  0  0  0  0
  -26.8064  -13.1290   18.5206 C   0  0  0  0  0  0  0  0  0  0  0  0
  -24.6310  -13.8233   19.3098 C   0  0  0  0  0  0  0  0  0  0  0  0
  -30.6565  -24.4613   20.1023 C   0  0  0  0  0  0  0  0  0  0  0  0
  -28.2771  -25.7813   19.5279 C   0  0  0  0  0  0  0  0  0  0  0  0
  -22.9397  -28.7195   19.4454 C   0  0  0  0  0  0  0  0  0  0  0  0
  -26.7596  -12.0210   19.3665 C   0  0  0  0  0  0  0  0  0  0  0  0
  -24.5842  -12.7152   20.1557 C   0  0  0  0  0  0  0  0  0  0  0  0
  -21.6101  -28.4473   19.7647 C   0  0  0  0  0  0  0  0  0  0  0  0
  -23.9296   -9.4101   19.8944 C   0  0  0  0  0  0  0  0  0  0  0  0
  -22.7422   -8.6794   19.9377 C   0  0  0  0  0  0  0  0  0  0  0  0
  -21.9291  -29.4606   21.9305 C   0  0  0  0  0  0  0  0  0  0  0  0
  -21.9766  -22.3663   21.2728 C   0  0  0  0  0  0  0  0  0  0  0  0
  -24.6180  -23.1687   20.8707 C   0  0  0  0  0  0  0  0  0  0  0  0
  -22.5433   -9.1426   22.3005 C   0  0  0  0  0  0  0  0  0  0  0  0
  -25.7421  -14.0303   18.4923 C   0  0  0  0  0  0  0  0  0  0  0  0
  -25.3318  -15.2509   16.2901 C   0  0  0  0  0  0  0  0  0  0  0  0
  -30.0171  -25.2013   21.1105 C   0  0  0  0  0  0  0  0  0  0  0  0
  -23.7783  -29.3556   20.3720 C   0  0  0  0  0  0  0  0  0  0  0  0
  -28.8269  -25.8976   20.8174 C   0  0  0  0  0  0  0  0  0  0  0  0
  -23.2682  -29.7420   21.6196 C   0  0  0  0  0  0  0  0  0  0  0  0
  -22.4887  -23.4570   21.9754 C   0  0  0  0  0  0  0  0  0  0  0  0
  -24.1058  -22.0779   20.1682 C   0  0  0  0  0  0  0  0  0  0  0  0
  -25.6485  -11.8140   20.1840 C   0  0  0  0  0  0  0  0  0  0  0  0
  -21.1054  -28.8153   21.0085 C   0  0  0  0  0  0  0  0  0  0  0  0
  -24.4239  -10.0070   21.0542 C   0  0  0  0  0  0  0  0  0  0  0  0
  -22.0491   -8.5457   21.1407 C   0  0  0  0  0  0  0  0  0  0  0  0
  -22.7851  -21.6767   20.3693 C   0  0  0  0  0  0  0  0  0  0  0  0
  -23.8094  -23.8583   21.7743 C   0  0  0  0  0  0  0  0  0  0  0  0
  -23.7308   -9.8732   22.2572 C   0  0  0  0  0  0  0  0  0  0  0  0
  -25.7901  -15.1754   17.6191 C   0  0  0  0  0  0  0  0  0  0  0  0
  -25.6034  -16.5413   15.9061 C   0  0  0  0  0  0  0  0  0  0  0  0
  -24.7157  -14.2445   15.4757 C   0  0  0  0  0  0  0  0  0  0  0  0
  -26.4553  -28.5600   21.8900 C   0  0  0  0  0  0  0  0  0  0  0  0
  -26.3296  -31.6363   22.9111 C   0  0  0  0  0  0  0  0  0  0  0  0
  -19.9090  -26.0123   22.7349 C   0  0  0  0  0  0  0  0  0  0  0  0
  -24.4353  -34.4033   23.5452 C   0  0  0  0  0  0  0  0  0  0  0  0
  -26.2608  -21.6496   18.9357 C   0  0  0  0  0  0  0  0  0  0  0  0
  -30.6584  -25.2647   22.4743 C   0  0  0  0  0  0  0  0  0  0  0  0
  -25.2028  -29.6661   20.0022 C   0  0  0  0  0  0  0  0  0  0  0  0
  -24.1217  -30.4454   22.6420 C   0  0  0  0  0  0  0  0  0  0  0  0
  -29.6903  -25.7074   23.5665 C   0  0  0  0  0  0  0  0  0  0  0  0
  -28.6431  -20.1419   16.7612 C   0  0  0  0  0  0  0  0  0  0  0  0
  -28.9538  -26.9649   23.1298 C   0  0  0  0  0  0  0  0  0  0  0  0
  -28.1367  -18.7057   16.6086 C   0  0  0  0  0  0  0  0  0  0  0  0
  -28.4165  -20.6759   18.1744 C   0  0  0  0  0  0  0  0  0  0  0  0
  -26.5316  -19.1267   18.5147 C   0  0  0  0  0  0  0  0  0  0  0  0
  -28.0985  -26.6927   21.8859 C   0  0  1  0  0  0  0  0  0  0  0  0
  -26.1072  -29.8569   21.2159 C   0  0  1  0  0  0  0  0  0  0  0  0
  -26.6790  -18.5680   17.0900 C   0  0  2  0  0  0  0  0  0  0  0  0
  -21.1081  -23.3110   24.0883 C   0  0  0  0  0  0  0  0  0  0  0  0
  -24.6077  -36.7528   24.4099 C   0  0  0  0  0  0  0  0  0  0  0  0
  -18.0350  -27.8508   19.8712 C   0  0  0  0  0  0  0  0  0  0  0  0
  -26.5571  -30.5684   25.7603 C   0  0  0  0  0  0  0  0  0  0  0  0
  -25.7791  -32.8007   26.5848 C   0  0  0  0  0  0  0  0  0  0  0  0
  -27.9121  -32.6203   25.3040 C   0  0  0  0  0  0  0  0  0  0  0  0
  -23.4707  -35.5388   20.9880 C   0  0  0  0  0  0  0  0  0  0  0  0
  -18.7668  -26.4471   21.8283 C   0  0  0  0  0  0  0  0  0  0  0  0
  -21.6084  -24.2035   22.9544 C   0  0  2  0  0  0  0  0  0  0  0  0
  -25.7109  -32.3467   24.0908 C   0  0  1  0  0  0  0  0  0  0  0  0
  -24.6296  -35.8631   23.1767 C   0  0  2  0  0  0  0  0  0  0  0  0
  -19.2159  -27.4000   20.7208 C   0  0  2  0  0  0  0  0  0  1  0  0
  -26.4740  -32.0690   25.4167 C   0  0  0  0  0  0  0  0  0  0  0  0
  -26.3132  -16.3262   18.0503 N   0  0  0  0  0  0  0  0  0  0  0  0
  -26.1855  -17.1370   16.9861 N   0  0  0  0  0  0  0  0  0  0  0  0
  -25.5096  -30.7212   22.2357 N   0  0  0  0  0  0  0  0  0  0  0  0
  -27.0129  -20.5163   18.5607 N   0  0  0  0  0  0  0  0  0  0  0  0
  -25.3989  -17.2132   14.7532 N   0  0  0  0  0  0  0  0  0  0  0  0
  -24.5104  -12.9723   16.0267 N   0  0  0  0  0  0  0  0  0  0  0  0
  -24.9295  -21.3795   19.2508 N   0  0  0  0  0  0  0  0  0  0  0  0
  -27.5851  -27.9475   21.3821 N   0  0  0  0  0  0  0  0  0  0  0  0
  -20.4995  -24.8411   22.2820 N   0  0  0  0  0  0  0  0  0  0  0  0
  -25.6401  -33.7576   23.7263 N   0  0  0  0  0  0  0  0  0  0  0  0
  -23.5493  -36.3126   22.2537 N   0  3  0  0  0  0  0  0  0  0  0  0
  -24.3728  -14.4621   14.2888 O   0  0  0  0  0  0  0  0  0  0  0  0
  -25.7519  -28.1464   22.8042 O   0  0  0  0  0  0  0  0  0  0  0  0
  -27.4951  -31.8893   22.5961 O   0  0  0  0  0  0  0  0  0  0  0  0
  -20.2483  -26.6346   23.7376 O   0  0  0  0  0  0  0  0  0  0  0  0
  -23.3257  -33.8884   23.6643 O   0  0  0  0  0  0  0  0  0  0  0  0
  -26.7536  -22.7805   18.9481 O   0  0  0  0  0  0  0  0  0  0  0  0
  -25.6024  -10.7327   21.0094 O   0  0  0  0  0  0  0  0  0  0  0  0
  -19.8082  -28.5502   21.3229 O   0  0  0  0  0  0  0  0  0  1  0  0
  -20.9081   -7.8453   21.1818 F   0  0  0  0  0  0  0  0  0  0  0  0
  -22.2825  -20.6296   19.6995 F   0  0  0  0  0  0  0  0  0  0  0  0
  -24.3103  -24.9050   22.4449 F   0  0  0  0  0  0  0  0  0  0  0  0
  -24.2001  -10.4454   23.3745 F   0  0  0  0  0  0  0  0  0  0  0  0
  1  2  1  0  0  0  0
  1  5  2  0  0  0  0
  2  6  2  0  0  0  0
  3  8  2  0  0  0  0
  3 17  1  0  0  0  0
  4  9  1  0  0  0  0
  4 17  2  0  0  0  0
  5 19  1  0  0  0  0
  6 21  1  0  0  0  0
  7 10  2  0  0  0  0
  7 20  1  0  0  0  0
  8 25  1  0  0  0  0
  9 25  2  0  0  0  0
 10 26  1  0  0  0  0
 11 12  2  0  0  0  0
 11 27  1  0  0  0  0
 12 28  1  0  0  0  0
 13 22  1  0  0  0  0
 13 26  2  0  0  0  0
 14 23  1  0  0  0  0
 14 29  2  0  0  0  0
 15 24  2  0  0  0  0
 15 30  1  0  0  0  0
 16 28  2  0  0  0  0
 16 31  1  0  0  0  0
 17 32  1  0  0  0  0
 18 32  1  0  0  0  0
 18 33  2  0  0  0  0
 18 34  1  0  0  0  0
 19 21  2  0  0  0  0
 19 40  1  0  0  0  0
 20 22  2  0  0  0  0
 20 41  1  0  0  0  0
 21 49  1  0  0  0  0
 22 42  1  0  0  0  0
 23 30  2  0  0  0  0
 23 60  1  0  0  0  0
 24 29  1  0  0  0  0
 24 71  1  0  0  0  0
 25 82  1  0  0  0  0
 26 83  1  0  0  0  0
 27 31  2  0  0  0  0
 27 82  1  0  0  0  0
 28 84  1  0  0  0  0
 29 85  1  0  0  0  0
 30 86  1  0  0  0  0
 31 87  1  0  0  0  0
 32 65  2  0  0  0  0
 33 66  1  0  0  0  0
 33 69  1  0  0  0  0
 34 70  1  0  0  0  0
 34 76  2  0  0  0  0
 35 50  1  0  0  0  0
 35 72  1  0  0  0  0
 35 77  2  0  0  0  0
 36 61  1  0  0  0  0
 36 67  1  0  0  0  0
 36 78  2  0  0  0  0
 37 59  1  0  0  0  0
 37 73  1  0  0  0  0
 37 79  2  0  0  0  0
 38 62  1  0  0  0  0
 38 74  1  0  0  0  0
 38 80  2  0  0  0  0
 39 68  1  0  0  0  0
 39 71  1  0  0  0  0
 39 81  2  0  0  0  0
 40 43  1  0  0  0  0
 41 50  1  0  0  0  0
 42 67  1  0  0  0  0
 43 45  1  0  0  0  0
 44 46  1  0  0  0  0
 44 47  1  0  0  0  0
 45 49  1  0  0  0  0
 46 51  1  0  0  0  0
 47 68  1  0  0  0  0
 48 51  1  0  0  0  0
 48 68  1  0  0  0  0
 49 72  1  0  0  0  0
 50 67  1  0  0  0  0
 51 66  1  0  0  0  0
 52 60  1  0  0  0  0
 53 62  1  0  0  0  0
 54 63  1  0  0  0  0
 55 64  1  0  0  0  0
 56 64  1  0  0  0  0
 57 64  1  0  0  0  0
 58 75  1  0  0  0  0
 59 63  1  0  0  0  0
 60 73  1  0  0  0  0
 61 64  1  0  0  0  0
 61 74  1  0  0  0  0
 62 75  1  0  0  0  0
 63 83  1  0  0  0  0
 65 66  1  0  0  0  0
M  CHG  1  75   1
M  ISO  4  39 100  63 101  71 100  83 101
M  END
> <Batch ID>
0173

> <Smiles>
CNC(C)C(=O)NC(C(=O)N1Cc2cc([101O:1][101CH:1](C)CC(=O)NC(C)c3cc(F)c([100NH:0][100C:0](=O)N4CCCC(n5nc(-c6ccc(Oc7ccc(F)cc7F)cc6)c(C(N)=O)c5N)C4)cc3F)ccc2CC1C(=O)NC1CCCc2ccccc21)C(C)(C)C

> <Shape>
0.260

> <Color>
0.071

> <Negative vol penalty>
0.000

$$$$

  -OEChem-04052304293D

 87 95  0     1  0  0  0  0  0999 V2000
  -17.2630  -28.7773   32.9510 C   0  0  0  0  0  0  0  0  0  0  0  0
  -18.1017  -27.7398   32.5565 C   0  0  0  0  0  0  0  0  0  0  0  0
  -23.2274   -9.7304   21.4632 C   0  0  0  0  0  0  0  0  0  0  0  0
  -23.8167  -10.7654   23.5652 C   0  0  0  0  0  0  0  0  0  0  0  0
  -16.5388  -29.4885   31.9952 C   0  0  0  0  0  0  0  0  0  0  0  0
  -18.2157  -27.4122   31.2059 C   0  0  0  0  0  0  0  0  0  0  0  0
  -23.2306  -25.4157   28.3126 C   0  0  0  0  0  0  0  0  0  0  0  0
  -22.5463   -8.7249   22.1493 C   0  0  0  0  0  0  0  0  0  0  0  0
  -23.1356   -9.7599   24.2513 C   0  0  0  0  0  0  0  0  0  0  0  0
  -23.6582  -24.1395   27.9490 C   0  0  0  0  0  0  0  0  0  0  0  0
  -23.3172   -5.8999   23.8374 C   0  0  0  0  0  0  0  0  0  0  0  0
  -23.5209   -4.5830   23.4255 C   0  0  0  0  0  0  0  0  0  0  0  0
  -29.5151  -20.2695   23.1054 C   0  0  0  0  0  0  0  0  0  0  0  0
  -22.7368  -24.4657   25.7436 C   0  0  0  0  0  0  0  0  0  0  0  0
  -21.1624   -4.3678   22.9475 C   0  0  0  0  0  0  0  0  0  0  0  0
  -23.8626  -10.7507   22.1712 C   0  0  0  0  0  0  0  0  0  0  0  0
  -30.3860  -19.6002   22.1978 C   0  0  0  0  0  0  0  0  0  0  0  0
  -24.0422  -13.0137   21.0075 C   0  0  0  0  0  0  0  0  0  0  0  0
  -16.6514  -29.1758   30.6314 C   0  0  0  0  0  0  0  0  0  0  0  0
  -22.5421  -26.2237   27.3963 C   0  0  0  0  0  0  0  0  0  0  0  0
  -17.4912  -28.1190   30.2311 C   0  0  0  0  0  0  0  0  0  0  0  0
  -22.3038  -25.7527   26.0972 C   0  0  0  0  0  0  0  0  0  0  0  0
  -22.5004   -8.7396   23.5433 C   0  0  0  0  0  0  0  0  0  0  0  0
  -23.4088  -23.6632   26.6653 C   0  0  0  0  0  0  0  0  0  0  0  0
  -22.0361   -6.4508   23.8045 C   0  0  0  0  0  0  0  0  0  0  0  0
  -22.4435   -3.8169   22.9805 C   0  0  0  0  0  0  0  0  0  0  0  0
  -20.9588   -5.6848   23.3595 C   0  0  0  0  0  0  0  0  0  0  0  0
  -24.5668  -11.7893   21.4631 C   0  0  0  0  0  0  0  0  0  0  0  0
  -29.7638  -18.5463   21.5655 C   0  0  0  0  0  0  0  0  0  0  0  0
  -25.1051  -13.6388   20.4027 C   0  0  0  0  0  0  0  0  0  0  0  0
  -28.2602  -19.7017   23.1321 C   0  0  0  0  0  0  0  0  0  0  0  0
  -25.0719  -22.2868   25.7650 C   0  0  0  0  0  0  0  0  0  1  0  0
  -31.7580  -19.9625   21.9514 C   0  0  0  0  0  0  0  0  0  0  0  0
  -22.7130  -13.5390   21.1210 C   0  0  0  0  0  0  0  0  0  0  0  0
  -25.5817  -21.1111   25.3785 C   0  0  0  0  0  0  0  0  0  0  0  0
  -26.9622  -21.0735   24.7945 C   0  0  0  0  0  0  0  0  0  0  0  0
  -19.6432  -27.5229   27.2872 C   0  0  0  0  0  0  0  0  0  0  0  0
  -20.8065  -28.9441   24.6134 C   0  0  0  0  0  0  0  0  0  0  0  0
  -23.0541  -28.8867   22.0459 C   0  0  0  0  0  0  0  0  0  0  0  0
  -30.4801  -15.1397   20.3481 C   0  0  0  0  0  0  0  0  0  0  0  0
  -15.8125  -29.9417   29.6393 C   0  0  0  0  0  0  0  0  0  0  0  0
  -22.1110  -27.6082   27.7957 C   0  0  0  0  0  0  0  0  0  0  0  0
  -21.5866  -26.5886   25.0699 C   0  0  0  0  0  0  0  0  0  0  0  0
  -16.2759  -29.7769   28.1942 C   0  0  0  0  0  0  0  0  0  0  0  0
  -29.6811  -11.8825   19.1528 C   0  0  0  0  0  0  0  0  0  0  0  0
  -16.5431  -28.3076   27.8835 C   0  0  0  0  0  0  0  0  0  0  0  0
  -28.2389  -11.6668   19.6150 C   0  0  0  0  0  0  0  0  0  0  0  0
  -30.4918  -12.6682   20.1811 C   0  0  0  0  0  0  0  0  0  0  0  0
  -28.4497  -13.7350   21.0560 C   0  0  0  0  0  0  0  0  0  0  0  0
  -17.6606  -27.7499   28.7733 C   0  0  1  0  0  0  0  0  0  0  0  0
  -20.9661  -28.1467   26.9432 C   0  0  1  0  0  0  0  0  0  0  0  0
  -27.5775  -12.9956   20.0270 C   0  0  2  0  0  0  0  0  0  0  0  0
  -32.1447  -21.4121   22.1003 C   0  0  0  0  0  0  0  0  0  0  0  0
  -30.1315  -18.0940   19.1116 C   0  0  0  0  0  0  0  0  0  0  0  0
  -23.7364  -30.1637   19.9962 C   0  0  0  0  0  0  0  0  0  0  0  0
  -18.3771  -27.8502   23.1262 C   0  0  0  0  0  0  0  0  0  0  0  0
  -19.5687  -28.3215   20.9754 C   0  0  0  0  0  0  0  0  0  0  0  0
  -19.0017  -30.1952   22.5216 C   0  0  0  0  0  0  0  0  0  0  0  0
  -25.7725  -29.3711   23.1110 C   0  0  0  0  0  0  0  0  0  0  0  0
  -30.3117  -17.6066   20.5611 C   0  0  2  0  0  0  0  0  0  0  0  0
  -20.8510  -28.5886   23.1468 C   0  0  1  0  0  0  0  0  0  0  0  0
  -23.9702  -29.9594   21.4850 C   0  0  2  0  0  0  0  0  0  0  0  0
  -19.4615  -28.7221   22.4622 C   0  0  0  0  0  0  0  0  0  0  0  0
  -25.8623  -11.6434   21.1724 N   0  0  0  0  0  0  0  0  0  0  0  0
  -26.1606  -12.7841   20.5276 N   0  0  0  0  0  0  0  0  0  0  0  0
  -21.1793  -27.9330   25.5104 N   0  0  0  0  0  0  0  0  0  0  0  0
  -29.8107  -13.9179   20.5277 N   0  0  0  0  0  0  0  0  0  0  0  0
  -25.2305  -14.8308   19.7814 N   0  0  0  0  0  0  0  0  0  0  0  0
  -21.7425  -12.7659   21.7729 N   0  0  0  0  0  0  0  0  0  0  0  0
  -27.1054  -20.0414   23.8774 N   0  0  0  0  0  0  0  0  0  0  0  0
  -18.9546  -28.1802   28.2888 N   0  0  0  0  0  0  0  0  0  0  0  0
  -21.8910  -29.4238   22.5558 N   0  0  0  0  0  0  0  0  0  0  0  0
  -29.7605  -16.2765   20.6953 N   0  0  0  0  0  0  0  0  0  0  0  0
  -25.3970  -29.5807   21.6891 N   0  3  0  0  0  0  0  0  0  0  0  0
  -32.6614  -19.1795   21.6187 O   0  0  0  0  0  0  0  0  0  0  0  0
  -22.3912  -14.6535   20.6437 O   0  0  0  0  0  0  0  0  0  0  0  0
  -27.8122  -21.8897   25.1338 O   0  0  0  0  0  0  0  0  0  0  0  0
  -19.2738  -26.5203   26.6872 O   0  0  0  0  0  0  0  0  0  0  0  0
  -20.4607  -30.0792   24.9503 O   0  0  0  0  0  0  0  0  0  0  0  0
  -23.3400  -27.6915   22.0298 O   0  0  0  0  0  0  0  0  0  0  0  0
  -31.6316  -15.2123   19.9059 O   0  0  0  0  0  0  0  0  0  0  0  0
  -24.8857  -19.9253   25.4972 O   0  0  0  0  0  0  0  0  0  0  0  0
  -21.8357   -7.7587   24.2130 O   0  0  0  0  0  0  0  0  0  0  0  0
  -23.8246  -22.4176   26.3080 O   0  0  0  0  0  0  0  0  0  1  0  0
  -22.6395   -2.5527   22.5835 F   0  0  0  0  0  0  0  0  0  0  0  0
  -19.7259   -6.2089   23.3244 F   0  0  0  0  0  0  0  0  0  0  0  0
  -28.1361  -18.3672   22.0663 S   0  0  0  0  0  0  0  0  0  0  0  0
  1  2  1  0  0  0  0
  1  5  2  0  0  0  0
  2  6  2  0  0  0  0
  3  8  2  0  0  0  0
  3 16  1  0  0  0  0
  4  9  1  0  0  0  0
  4 16  2  0  0  0  0
  5 19  1  0  0  0  0
  6 21  1  0  0  0  0
  7 10  2  0  0  0  0
  7 20  1  0  0  0  0
  8 23  1  0  0  0  0
  9 23  2  0  0  0  0
 10 24  1  0  0  0  0
 11 12  2  0  0  0  0
 11 25  1  0  0  0  0
 12 26  1  0  0  0  0
 13 17  1  0  0  0  0
 13 31  2  0  0  0  0
 14 22  1  0  0  0  0
 14 24  2  0  0  0  0
 15 26  2  0  0  0  0
 15 27  1  0  0  0  0
 16 28  1  0  0  0  0
 17 29  2  0  0  0  0
 17 33  1  0  0  0  0
 18 28  1  0  0  0  0
 18 30  2  0  0  0  0
 18 34  1  0  0  0  0
 19 21  2  0  0  0  0
 19 41  1  0  0  0  0
 20 22  2  0  0  0  0
 20 42  1  0  0  0  0
 21 50  1  0  0  0  0
 22 43  1  0  0  0  0
 23 83  1  0  0  0  0
 24 84  1  0  0  0  0
 25 27  2  0  0  0  0
 25 83  1  0  0  0  0
 26 85  1  0  0  0  0
 27 86  1  0  0  0  0
 28 64  2  0  0  0  0
 29 60  1  0  0  0  0
 29 87  1  0  0  0  0
 30 65  1  0  0  0  0
 30 68  1  0  0  0  0
 31 70  1  0  0  0  0
 31 87  1  0  0  0  0
 32 35  2  0  0  0  0
 32 84  1  0  0  0  0
 33 53  1  0  0  0  0
 33 75  2  0  0  0  0
 34 69  1  0  0  0  0
 34 76  2  0  0  0  0
 35 36  1  0  0  0  0
 35 82  1  0  0  0  0
 36 70  1  0  0  0  0
 36 77  2  0  0  0  0
 37 51  1  0  0  0  0
 37 71  1  0  0  0  0
 37 78  2  0  0  0  0
 38 61  1  0  0  0  0
 38 66  1  0  0  0  0
 38 79  2  0  0  0  0
 39 62  1  0  0  0  0
 39 72  1  0  0  0  0
 39 80  2  0  0  0  0
 40 67  1  0  0  0  0
 40 73  1  0  0  0  0
 40 81  2  0  0  0  0
 41 44  1  0  0  0  0
 42 51  1  0  0  0  0
 43 66  1  0  0  0  0
 44 46  1  0  0  0  0
 45 47  1  0  0  0  0
 45 48  1  0  0  0  0
 46 50  1  0  0  0  0
 47 52  1  0  0  0  0
 48 67  1  0  0  0  0
 49 52  1  0  0  0  0
 49 67  1  0  0  0  0
 50 71  1  0  0  0  0
 51 66  1  0  0  0  0
 52 65  1  0  0  0  0
 54 60  1  0  0  0  0
 55 62  1  0  0  0  0
 56 63  1  0  0  0  0
 57 63  1  0  0  0  0
 58 63  1  0  0  0  0
 59 74  1  0  0  0  0
 60 73  1  0  0  0  0
 61 63  1  0  0  0  0
 61 72  1  0  0  0  0
 62 74  1  0  0  0  0
 64 65  1  0  0  0  0
M  CHG  1  74   1
M  ISO  4  32 101  40 100  73 100  84 101
M  END
> <Batch ID>
0173

> <Smiles>
CNC(C)C(=O)NC(C(=O)N1Cc2cc([101O:1][101CH2:1]C(=O)C(=O)Nc3cc(C(C)=O)c(C(C)[100NH:0][100C:0](=O)N4CCCC(n5nc(-c6ccc(Oc7ccc(F)cc7F)cc6)c(C(N)=O)c5N)C4)s3)ccc2CC1C(=O)NC1CCCc2ccccc21)C(C)(C)C

> <Shape>
0.232

> <Color>
0.152

> <Negative vol penalty>
0.000

$$$$

  -OEChem-04052304293D

 92100  0     1  0  0  0  0  0999 V2000
  -28.2194  -37.4839   25.6896 C   0  0  0  0  0  0  0  0  0  0  0  0
  -28.7265  -36.3948   24.9879 C   0  0  0  0  0  0  0  0  0  0  0  0
  -26.3491  -12.6246   21.4910 C   0  0  0  0  0  0  0  0  0  0  0  0
  -26.0858  -13.0437   19.1262 C   0  0  0  0  0  0  0  0  0  0  0  0
  -27.0109  -37.3685   26.3751 C   0  0  0  0  0  0  0  0  0  0  0  0
  -28.0258  -35.1894   24.9724 C   0  0  0  0  0  0  0  0  0  0  0  0
  -27.6732  -31.1957   20.3429 C   0  0  0  0  0  0  0  0  0  0  0  0
  -25.0905  -12.0242   21.5247 C   0  0  0  0  0  0  0  0  0  0  0  0
  -24.8272  -12.4432   19.1599 C   0  0  0  0  0  0  0  0  0  0  0  0
  -28.3537  -30.0089   20.0740 C   0  0  0  0  0  0  0  0  0  0  0  0
  -23.7296   -9.0435   20.6903 C   0  0  0  0  0  0  0  0  0  0  0  0
  -23.6047   -7.8383   21.3813 C   0  0  0  0  0  0  0  0  0  0  0  0
  -26.5414  -28.7546   21.0545 C   0  0  0  0  0  0  0  0  0  0  0  0
  -30.1922  -21.6531   16.5474 C   0  0  0  0  0  0  0  0  0  0  0  0
  -21.9746   -8.8495   22.8502 C   0  0  0  0  0  0  0  0  0  0  0  0
  -26.8467  -13.1345   20.2918 C   0  0  0  0  0  0  0  0  0  0  0  0
  -29.3818  -13.1279   20.0075 C   0  0  0  0  0  0  0  0  0  0  0  0
  -26.2902  -36.1639   26.3600 C   0  0  0  0  0  0  0  0  0  0  0  0
  -26.4245  -31.1713   20.9805 C   0  0  0  0  0  0  0  0  0  0  0  0
  -26.8072  -35.0573   25.6595 C   0  0  0  0  0  0  0  0  0  0  0  0
  -25.8459  -29.9423   21.3281 C   0  0  0  0  0  0  0  0  0  0  0  0
  -30.1383  -22.0029   15.1673 C   0  0  0  0  0  0  0  0  0  0  0  0
  -24.3296  -11.9334   20.3592 C   0  0  0  0  0  0  0  0  0  0  0  0
  -27.7891  -28.7883   20.4324 C   0  0  0  0  0  0  0  0  0  0  0  0
  -22.9771  -10.1517   21.0793 C   0  0  0  0  0  0  0  0  0  0  0  0
  -22.7272   -7.7413   22.4613 C   0  0  0  0  0  0  0  0  0  0  0  0
  -22.0996  -10.0547   22.1592 C   0  0  0  0  0  0  0  0  0  0  0  0
  -28.1464  -13.7554   20.2564 C   0  0  0  0  0  0  0  0  0  0  0  0
  -29.6423  -20.9776   14.3925 C   0  0  0  0  0  0  0  0  0  0  0  0
  -30.3040  -14.1429   20.0838 C   0  0  0  0  0  0  0  0  0  0  0  0
  -29.7349  -20.3736   16.7750 C   0  0  0  0  0  0  0  0  0  0  0  0
  -29.4315  -20.9273   12.9804 C   0  0  0  0  0  0  0  0  0  0  0  0
  -29.6700  -11.7507   19.7318 C   0  0  0  0  0  0  0  0  0  0  0  0
  -25.2836  -32.3041   23.7226 C   0  0  0  0  0  0  0  0  0  0  0  0
  -29.3918  -26.2035   18.4526 C   0  0  0  0  0  0  0  0  0  0  0  0
  -29.9095  -24.9674   16.2537 C   0  0  0  0  0  0  0  0  0  0  0  0
  -22.4577  -31.2426   22.5353 C   0  0  0  0  0  0  0  0  0  0  0  0
  -20.8149  -29.1201   20.4274 C   0  0  0  0  0  0  0  0  0  0  0  0
  -29.9487  -20.0512   19.2644 C   0  0  0  0  0  0  0  0  0  0  0  0
  -25.0118  -36.0727   27.1550 C   0  0  0  0  0  0  0  0  0  0  0  0
  -25.6911  -32.4588   21.2395 C   0  0  0  0  0  0  0  0  0  0  0  0
  -24.4986  -29.8607   21.9963 C   0  0  0  0  0  0  0  0  0  0  0  0
  -24.1449  -34.8738   26.7791 C   0  0  0  0  0  0  0  0  0  0  0  0
  -31.0516  -18.3716   22.2037 C   0  0  0  0  0  0  0  0  0  0  0  0
  -24.9931  -33.6092   26.6881 C   0  0  0  0  0  0  0  0  0  0  0  0
  -30.5495  -16.9386   22.0124 C   0  0  0  0  0  0  0  0  0  0  0  0
  -30.0594  -19.3976   21.6593 C   0  0  0  0  0  0  0  0  0  0  0  0
  -29.1410  -17.7482   20.0765 C   0  0  0  0  0  0  0  0  0  0  0  0
  -26.0640  -33.7405   25.5984 C   0  0  1  0  0  0  0  0  0  0  0  0
  -24.6587  -32.3441   22.3568 C   0  0  1  0  0  0  0  0  0  0  0  0
  -30.1362  -16.6766   20.5508 C   0  0  2  0  0  0  0  0  0  0  0  0
  -18.5047  -28.4584   19.7048 C   0  0  0  0  0  0  0  0  0  0  0  0
  -32.3946  -28.1006   13.5184 C   0  0  0  0  0  0  0  0  0  0  0  0
  -30.9765  -27.5452   11.5380 C   0  0  0  0  0  0  0  0  0  0  0  0
  -33.0699  -26.2417   11.9926 C   0  0  0  0  0  0  0  0  0  0  0  0
  -22.0925  -29.6876   25.1350 C   0  0  0  0  0  0  0  0  0  0  0  0
  -20.3123  -28.3427   23.9990 C   0  0  0  0  0  0  0  0  0  0  0  0
  -20.0212  -30.8034   24.2871 C   0  0  0  0  0  0  0  0  0  0  0  0
  -21.3360  -29.9213   17.6264 C   0  0  0  0  0  0  0  0  0  0  0  0
  -30.2917  -26.0542   17.2424 C   0  0  0  0  0  0  0  0  0  0  0  0
  -29.3070  -27.5986   19.0408 C   0  0  0  0  0  0  0  0  0  1  0  0
  -31.8741  -25.2910   14.6656 C   0  0  0  0  0  0  0  0  0  0  0  0
  -31.0663  -25.9765   13.5490 C   0  0  0  0  0  0  0  0  0  0  0  0
  -31.0585  -24.2975   15.5046 C   0  0  2  0  0  0  0  0  0  0  0  0
  -21.6929  -29.9425   22.5970 C   0  0  1  0  0  0  0  0  0  0  0  0
  -19.6986  -29.3583   19.4266 C   0  0  2  0  0  0  0  0  0  0  0  0
  -31.8674  -26.9486   12.6398 C   0  0  0  0  0  0  0  0  0  0  0  0
  -21.0560  -29.6954   23.9937 C   0  0  0  0  0  0  0  0  0  0  0  0
  -28.2692  -15.0673   20.4747 N   0  0  0  0  0  0  0  0  0  0  0  0
  -29.6964  -21.9152   12.1550 N   0  0  0  0  0  0  0  0  0  0  0  0
  -29.5926  -15.2726   20.3633 N   0  0  0  0  0  0  0  0  0  0  0  0
  -23.8237  -31.1474   22.2340 N   0  0  0  0  0  0  0  0  0  0  0  0
  -29.7173  -19.0882   20.2693 N   0  0  0  0  0  0  0  0  0  0  0  0
  -31.6458  -14.1704   19.9386 N   0  0  0  0  0  0  0  0  0  0  0  0
  -28.6049  -10.8407   19.6898 N   0  0  0  0  0  0  0  0  0  0  0  0
  -30.5390  -23.2310   14.6733 N   0  0  0  0  0  0  0  0  0  0  0  0
  -29.6148  -19.6326   17.9768 N   0  0  0  0  0  0  0  0  0  0  0  0
  -25.4785  -33.5495   24.2888 N   0  0  0  0  0  0  0  0  0  0  0  0
  -20.7315  -29.9820   21.5004 N   0  0  0  0  0  0  0  0  0  0  0  0
  -20.1782  -29.0882   18.0417 N   0  3  0  0  0  0  0  0  0  0  0  0
  -30.8391  -11.3365   19.5449 O   0  0  0  0  0  0  0  0  0  0  0  0
  -25.5665  -31.2233   24.2262 O   0  0  0  0  0  0  0  0  0  0  0  0
  -28.7929  -25.2536   18.9543 O   0  0  0  0  0  0  0  0  0  0  0  0
  -28.7339  -24.6664   16.0451 O   0  0  0  0  0  0  0  0  0  0  0  0
  -21.8634  -32.3041   22.7395 O   0  0  0  0  0  0  0  0  0  0  0  0
  -21.6729  -28.2534   20.2745 O   0  0  0  0  0  0  0  0  0  0  0  0
  -30.4345  -21.1553   19.5231 O   0  0  0  0  0  0  0  0  0  0  0  0
  -23.1016  -11.3473   20.3917 O   0  0  0  0  0  0  0  0  0  0  0  0
  -28.4584  -27.6165   20.1690 O   0  0  0  0  0  0  0  0  0  1  0  0
  -22.6062   -6.5835   23.1238 F   0  0  0  0  0  0  0  0  0  0  0  0
  -21.3731  -11.1156   22.5368 F   0  0  0  0  0  0  0  0  0  0  0  0
  -29.2438  -19.6000   15.3284 S   0  0  0  0  0  0  0  0  0  0  0  0
  1  2  1  0  0  0  0
  1  5  2  0  0  0  0
  2  6  2  0  0  0  0
  3  8  2  0  0  0  0
  3 16  1  0  0  0  0
  4  9  1  0  0  0  0
  4 16  2  0  0  0  0
  5 18  1  0  0  0  0
  6 20  1  0  0  0  0
  7 10  2  0  0  0  0
  7 19  1  0  0  0  0
  8 23  1  0  0  0  0
  9 23  2  0  0  0  0
 10 24  1  0  0  0  0
 11 12  2  0  0  0  0
 11 25  1  0  0  0  0
 12 26  1  0  0  0  0
 13 21  1  0  0  0  0
 13 24  2  0  0  0  0
 14 22  1  0  0  0  0
 14 31  2  0  0  0  0
 15 26  2  0  0  0  0
 15 27  1  0  0  0  0
 16 28  1  0  0  0  0
 17 28  1  0  0  0  0
 17 30  2  0  0  0  0
 17 33  1  0  0  0  0
 18 20  2  0  0  0  0
 18 40  1  0  0  0  0
 19 21  2  0  0  0  0
 19 41  1  0  0  0  0
 20 49  1  0  0  0  0
 21 42  1  0  0  0  0
 22 29  2  0  0  0  0
 22 76  1  0  0  0  0
 23 88  1  0  0  0  0
 24 89  1  0  0  0  0
 25 27  2  0  0  0  0
 25 88  1  0  0  0  0
 26 90  1  0  0  0  0
 27 91  1  0  0  0  0
 28 69  2  0  0  0  0
 29 32  1  0  0  0  0
 29 92  1  0  0  0  0
 30 71  1  0  0  0  0
 30 74  1  0  0  0  0
 31 77  1  0  0  0  0
 31 92  1  0  0  0  0
 32 70  2  0  0  0  0
 33 75  1  0  0  0  0
 33 81  2  0  0  0  0
 34 50  1  0  0  0  0
 34 78  1  0  0  0  0
 34 82  2  0  0  0  0
 35 60  1  0  0  0  0
 35 61  1  0  0  0  0
 35 83  2  0  0  0  0
 36 60  1  0  0  0  0
 36 64  1  0  0  0  0
 36 84  2  0  0  0  0
 37 65  1  0  0  0  0
 37 72  1  0  0  0  0
 37 85  2  0  0  0  0
 38 66  1  0  0  0  0
 38 79  1  0  0  0  0
 38 86  2  0  0  0  0
 39 73  1  0  0  0  0
 39 77  1  0  0  0  0
 39 87  2  0  0  0  0
 40 43  1  0  0  0  0
 41 50  1  0  0  0  0
 42 72  1  0  0  0  0
 43 45  1  0  0  0  0
 44 46  1  0  0  0  0
 44 47  1  0  0  0  0
 45 49  1  0  0  0  0
 46 51  1  0  0  0  0
 47 73  1  0  0  0  0
 48 51  1  0  0  0  0
 48 73  1  0  0  0  0
 49 78  1  0  0  0  0
 50 72  1  0  0  0  0
 51 71  1  0  0  0  0
 52 66  1  0  0  0  0
 53 67  1  0  0  0  0
 54 67  1  0  0  0  0
 55 67  1  0  0  0  0
 56 68  1  0  0  0  0
 57 68  1  0  0  0  0
 58 68  1  0  0  0  0
 59 80  1  0  0  0  0
 61 89  1  0  0  0  0
 62 63  1  0  0  0  0
 62 64  1  0  0  0  0
 63 67  1  0  0  0  0
 64 76  1  0  0  0  0
 65 68  1  0  0  0  0
 65 79  1  0  0  0  0
 66 80  1  0  0  0  0
 69 71  1  0  0  0  0
M  CHG  1  80   1
M  ISO  4  39 100  61 101  77 100  89 101
M  END
> <Batch ID>
0173

> <Smiles>
CNC(C)C(=O)NC(C(=O)N1Cc2cc([101O:1][101CH2:1]C(=O)CC(=O)C(CCC(C)(C)C)Nc3cc([100NH:0][100C:0](=O)N4CCCC(n5nc(-c6ccc(Oc7ccc(F)cc7F)cc6)c(C(N)=O)c5N)C4)sc3C=N)ccc2CC1C(=O)NC1CCCc2ccccc21)C(C)(C)C

> <Shape>
0.310

> <Color>
0.073

> <Negative vol penalty>
0.000

$$$$

  -OEChem-04052304293D

 90 98  0     1  0  0  0  0  0999 V2000
  -23.4771   -7.9973   22.0176 C   0  0  0  0  0  0  0  0  0  0  0  0
  -24.3546   -9.0206   21.6737 C   0  0  0  0  0  0  0  0  0  0  0  0
  -19.5253  -28.5352   23.5625 C   0  0  0  0  0  0  0  0  0  0  0  0
  -20.6926  -26.7244   22.4691 C   0  0  0  0  0  0  0  0  0  0  0  0
  -22.1007   -8.2097   21.9526 C   0  0  0  0  0  0  0  0  0  0  0  0
  -23.8561  -10.2566   21.2635 C   0  0  0  0  0  0  0  0  0  0  0  0
  -26.3154  -15.7604   22.3434 C   0  0  0  0  0  0  0  0  0  0  0  0
  -18.3568  -28.1930   22.8819 C   0  0  0  0  0  0  0  0  0  0  0  0
  -19.5241  -26.3821   21.7885 C   0  0  0  0  0  0  0  0  0  0  0  0
  -27.1135  -16.5998   21.5674 C   0  0  0  0  0  0  0  0  0  0  0  0
  -16.7559  -24.8073   20.0349 C   0  0  0  0  0  0  0  0  0  0  0  0
  -16.4121  -23.4569   19.9736 C   0  0  0  0  0  0  0  0  0  0  0  0
  -25.1490  -17.8154   20.8728 C   0  0  0  0  0  0  0  0  0  0  0  0
  -28.7437  -27.3525   20.5110 C   0  0  0  0  0  0  0  0  0  0  0  0
  -29.9776  -29.4286   20.5747 C   0  0  0  0  0  0  0  0  0  0  0  0
  -16.3073  -23.3741   22.3860 C   0  0  0  0  0  0  0  0  0  0  0  0
  -20.6932  -27.8010   23.3560 C   0  0  0  0  0  0  0  0  0  0  0  0
  -22.3276  -27.6732   25.3105 C   0  0  0  0  0  0  0  0  0  0  0  0
  -21.5851   -9.4520   21.5506 C   0  0  0  0  0  0  0  0  0  0  0  0
  -24.9246  -15.9357   22.3815 C   0  0  0  0  0  0  0  0  0  0  0  0
  -22.4715  -10.4853   21.1917 C   0  0  0  0  0  0  0  0  0  0  0  0
  -24.3358  -16.9785   21.6522 C   0  0  0  0  0  0  0  0  0  0  0  0
  -30.9838  -27.4544   19.6118 C   0  0  0  0  0  0  0  0  0  0  0  0
  -28.8196  -28.7026   20.8532 C   0  0  0  0  0  0  0  0  0  0  0  0
  -29.8258  -26.7284   19.8904 C   0  0  0  0  0  0  0  0  0  0  0  0
  -18.3562  -27.1164   21.9950 C   0  0  0  0  0  0  0  0  0  0  0  0
  -26.5300  -17.6256   20.8296 C   0  0  0  0  0  0  0  0  0  0  0  0
  -16.8755  -25.4411   21.2717 C   0  0  0  0  0  0  0  0  0  0  0  0
  -16.1878  -22.7403   21.1491 C   0  0  0  0  0  0  0  0  0  0  0  0
  -31.0597  -28.8045   19.9540 C   0  0  0  0  0  0  0  0  0  0  0  0
  -16.6512  -24.7245   22.4472 C   0  0  0  0  0  0  0  0  0  0  0  0
  -21.9007  -28.1544   24.0583 C   0  0  0  0  0  0  0  0  0  0  0  0
  -23.5244  -28.3093   25.5329 C   0  0  0  0  0  0  0  0  0  0  0  0
  -21.6986  -26.7351   26.1937 C   0  0  0  0  0  0  0  0  0  0  0  0
  -22.4169  -14.1609   21.5658 C   0  0  0  0  0  0  0  0  0  0  0  0
  -28.8090  -23.1589   19.3250 C   0  0  0  0  0  0  0  0  0  0  0  0
  -28.0176  -20.7358   19.7179 C   0  0  0  0  0  0  0  0  0  0  0  0
  -20.7488  -16.5904   22.9214 C   0  0  0  0  0  0  0  0  0  0  0  0
  -20.6424  -19.8777   23.8319 C   0  0  0  0  0  0  0  0  0  0  0  0
  -27.6325  -30.6676   21.8905 C   0  0  0  0  0  0  0  0  0  0  0  0
  -20.0895   -9.6192   21.4506 C   0  0  0  0  0  0  0  0  0  0  0  0
  -24.0805  -15.0385   23.2446 C   0  0  0  0  0  0  0  0  0  0  0  0
  -22.8496  -17.2215   21.6750 C   0  0  0  0  0  0  0  0  0  0  0  0
  -19.6439  -11.0767   21.3654 C   0  0  0  0  0  0  0  0  0  0  0  0
  -25.8682  -32.3518   24.4843 C   0  0  0  0  0  0  0  0  0  0  0  0
  -20.4930  -11.8361   20.3509 C   0  0  0  0  0  0  0  0  0  0  0  0
  -24.6928  -31.4198   24.7876 C   0  0  0  0  0  0  0  0  0  0  0  0
  -26.2037  -32.3751   22.9942 C   0  0  0  0  0  0  0  0  0  0  0  0
  -25.2490  -30.1245   22.6900 C   0  0  0  0  0  0  0  0  0  0  0  0
  -21.9693  -11.8479   20.7657 C   0  0  1  0  0  0  0  0  0  0  0  0
  -22.6207  -14.9867   22.8044 C   0  0  1  0  0  0  0  0  0  0  0  0
  -24.9157  -30.0179   24.1871 C   0  0  2  0  0  0  0  0  0  0  0  0
  -19.1315  -21.5821   24.8853 C   0  0  0  0  0  0  0  0  0  0  0  0
  -19.1543  -16.7770   20.3267 C   0  0  0  0  0  0  0  0  0  0  0  0
  -18.3579  -19.0344   21.0600 C   0  0  0  0  0  0  0  0  0  0  0  0
  -17.7898  -17.0144   22.4090 C   0  0  0  0  0  0  0  0  0  0  0  0
  -22.5277  -20.3381   26.0664 C   0  0  0  0  0  0  0  0  0  0  0  0
  -27.6554  -22.1954   19.5296 C   0  0  0  0  0  0  0  0  0  0  0  0
  -28.5699  -24.5738   19.8124 C   0  0  0  0  0  0  0  0  0  0  0  0
  -26.8483  -19.7844   19.8839 C   0  0  0  0  0  0  0  0  0  1  0  0
  -20.1614  -17.8903   22.4272 C   0  0  1  0  0  0  0  0  0  0  0  0
  -20.2235  -20.5514   25.1262 C   0  0  2  0  0  0  0  0  0  0  0  0
  -32.1558  -26.8085   18.9468 C   0  0  0  0  0  0  0  0  0  0  0  0
  -18.8937  -17.6735   21.5536 C   0  0  0  0  0  0  0  0  0  0  0  0
  -22.7566  -29.0288   23.5228 N   0  0  0  0  0  0  0  0  0  0  0  0
  -23.7333  -29.1022   24.4430 N   0  0  0  0  0  0  0  0  0  0  0  0
  -22.0661  -16.3137   22.5290 N   0  0  0  0  0  0  0  0  0  0  0  0
  -26.4056  -31.0128   22.4958 N   0  0  0  0  0  0  0  0  0  0  0  0
  -24.4080  -28.2622   26.5525 N   0  0  0  0  0  0  0  0  0  0  0  0
  -20.4716  -26.1763   25.8109 N   0  0  0  0  0  0  0  0  0  0  0  0
  -27.7210  -29.3363   21.4851 N   0  0  0  0  0  0  0  0  0  0  0  0
  -29.7326  -25.3850   19.5564 N   0  0  0  0  0  0  0  0  0  0  0  0
  -22.1919  -12.8203   21.8141 N   0  0  0  0  0  0  0  0  0  0  0  0
  -19.9378  -18.7133   23.6109 N   0  0  0  0  0  0  0  0  0  0  0  0
  -21.3880  -21.2382   25.7532 N   0  3  0  0  0  0  0  0  0  0  0  0
  -22.2015  -26.4146   27.2973 O   0  0  0  0  0  0  0  0  0  0  0  0
  -22.4591  -14.7004   20.4663 O   0  0  0  0  0  0  0  0  0  0  0  0
  -29.8521  -22.8243   18.7651 O   0  0  0  0  0  0  0  0  0  0  0  0
  -29.1816  -20.3424   19.7718 O   0  0  0  0  0  0  0  0  0  0  0  0
  -20.0665  -15.8512   23.6354 O   0  0  0  0  0  0  0  0  0  0  0  0
  -21.5056  -20.3402   23.0893 O   0  0  0  0  0  0  0  0  0  0  0  0
  -28.5481  -31.4853   21.7672 O   0  0  0  0  0  0  0  0  0  0  0  0
  -17.2161  -26.7821   21.3309 O   0  0  0  0  0  0  0  0  0  0  0  0
  -27.3066  -18.4460   20.0708 O   0  0  0  0  0  0  0  0  0  1  0  0
  -15.8561  -21.4439   21.0901 F   0  0  0  0  0  0  0  0  0  0  0  0
  -32.1676  -29.5114   19.6899 F   0  0  0  0  0  0  0  0  0  0  0  0
  -16.7635  -25.3283   23.6383 F   0  0  0  0  0  0  0  0  0  0  0  0
  -31.9607  -25.4883   18.6614 F   0  0  0  0  0  0  0  0  0  0  0  0
  -32.4928  -27.3865   17.7573 F   0  0  0  0  0  0  0  0  0  0  0  0
  -33.2831  -26.8573   19.7129 F   0  0  0  0  0  0  0  0  0  0  0  0
  1  2  1  0  0  0  0
  1  5  2  0  0  0  0
  2  6  2  0  0  0  0
  3  8  2  0  0  0  0
  3 17  1  0  0  0  0
  4  9  1  0  0  0  0
  4 17  2  0  0  0  0
  5 19  1  0  0  0  0
  6 21  1  0  0  0  0
  7 10  2  0  0  0  0
  7 20  1  0  0  0  0
  8 26  1  0  0  0  0
  9 26  2  0  0  0  0
 10 27  1  0  0  0  0
 11 12  2  0  0  0  0
 11 28  1  0  0  0  0
 12 29  1  0  0  0  0
 13 22  1  0  0  0  0
 13 27  2  0  0  0  0
 14 24  2  0  0  0  0
 14 25  1  0  0  0  0
 15 24  1  0  0  0  0
 15 30  2  0  0  0  0
 16 29  2  0  0  0  0
 16 31  1  0  0  0  0
 17 32  1  0  0  0  0
 18 32  1  0  0  0  0
 18 33  2  0  0  0  0
 18 34  1  0  0  0  0
 19 21  2  0  0  0  0
 19 41  1  0  0  0  0
 20 22  2  0  0  0  0
 20 42  1  0  0  0  0
 21 50  1  0  0  0  0
 22 43  1  0  0  0  0
 23 25  2  0  0  0  0
 23 30  1  0  0  0  0
 23 63  1  0  0  0  0
 24 71  1  0  0  0  0
 25 72  1  0  0  0  0
 26 83  1  0  0  0  0
 27 84  1  0  0  0  0
 28 31  2  0  0  0  0
 28 83  1  0  0  0  0
 29 85  1  0  0  0  0
 30 86  1  0  0  0  0
 31 87  1  0  0  0  0
 32 65  2  0  0  0  0
 33 66  1  0  0  0  0
 33 69  1  0  0  0  0
 34 70  1  0  0  0  0
 34 76  2  0  0  0  0
 35 51  1  0  0  0  0
 35 73  1  0  0  0  0
 35 77  2  0  0  0  0
 36 58  1  0  0  0  0
 36 59  1  0  0  0  0
 36 78  2  0  0  0  0
 37 58  1  0  0  0  0
 37 60  1  0  0  0  0
 37 79  2  0  0  0  0
 38 61  1  0  0  0  0
 38 67  1  0  0  0  0
 38 80  2  0  0  0  0
 39 62  1  0  0  0  0
 39 74  1  0  0  0  0
 39 81  2  0  0  0  0
 40 68  1  0  0  0  0
 40 71  1  0  0  0  0
 40 82  2  0  0  0  0
 41 44  1  0  0  0  0
 42 51  1  0  0  0  0
 43 67  1  0  0  0  0
 44 46  1  0  0  0  0
 45 47  1  0  0  0  0
 45 48  1  0  0  0  0
 46 50  1  0  0  0  0
 47 52  1  0  0  0  0
 48 68  1  0  0  0  0
 49 52  1  0  0  0  0
 49 68  1  0  0  0  0
 50 73  1  0  0  0  0
 51 67  1  0  0  0  0
 52 66  1  0  0  0  0
 53 62  1  0  0  0  0
 54 64  1  0  0  0  0
 55 64  1  0  0  0  0
 56 64  1  0  0  0  0
 57 75  1  0  0  0  0
 59 72  1  0  0  0  0
 60 84  1  0  0  0  0
 61 64  1  0  0  0  0
 61 74  1  0  0  0  0
 62 75  1  0  0  0  0
 63 88  1  0  0  0  0
 63 89  1  0  0  0  0
 63 90  1  0  0  0  0
 65 66  1  0  0  0  0
M  CHG  1  75   1
M  ISO  4  40 100  60 101  71 100  84 101
M  END
> <Batch ID>
0173

> <Smiles>
CNC(C)C(=O)NC(C(=O)N1Cc2cc([101O:1][101CH2:1]C(=O)CC(=O)CNc3cc([100NH:0][100C:0](=O)N4CCCC(n5nc(-c6ccc(Oc7ccc(F)cc7F)cc6)c(C(N)=O)c5N)C4)cc(F)c3C(F)(F)F)ccc2CC1C(=O)NC1CCCc2ccccc21)C(C)(C)C

> <Shape>
0.228

> <Color>
0.107

> <Negative vol penalty>
0.000

$$$$

  -OEChem-04052304293D

 84 92  0     1  0  0  0  0  0999 V2000
  -19.9138  -14.5345   16.8231 C   0  0  0  0  0  0  0  0  0  0  0  0
  -20.7231  -15.6315   17.1005 C   0  0  0  0  0  0  0  0  0  0  0  0
  -19.9370  -28.7458   23.5194 C   0  0  0  0  0  0  0  0  0  0  0  0
  -20.9437  -27.3436   21.8290 C   0  0  0  0  0  0  0  0  0  0  0  0
  -20.1781  -13.3048   17.4247 C   0  0  0  0  0  0  0  0  0  0  0  0
  -21.7966  -15.4998   17.9807 C   0  0  0  0  0  0  0  0  0  0  0  0
  -27.2025  -18.3583   17.6477 C   0  0  0  0  0  0  0  0  0  0  0  0
  -29.5866  -26.4429   17.6668 C   0  0  0  0  0  0  0  0  0  0  0  0
  -18.7344  -28.7342   22.8129 C   0  0  0  0  0  0  0  0  0  0  0  0
  -19.7411  -27.3319   21.1225 C   0  0  0  0  0  0  0  0  0  0  0  0
  -27.7071  -19.4883   18.2898 C   0  0  0  0  0  0  0  0  0  0  0  0
  -16.1274  -26.6274   22.3676 C   0  0  0  0  0  0  0  0  0  0  0  0
  -29.3031  -27.7306   17.2118 C   0  0  0  0  0  0  0  0  0  0  0  0
  -14.9532  -26.4156   23.0900 C   0  0  0  0  0  0  0  0  0  0  0  0
  -28.7612  -18.0747   19.9360 C   0  0  0  0  0  0  0  0  0  0  0  0
  -29.7273  -27.2739   19.9310 C   0  0  0  0  0  0  0  0  0  0  0  0
  -14.1180  -28.5626   22.3620 C   0  0  0  0  0  0  0  0  0  0  0  0
  -21.0417  -28.0506   23.0274 C   0  0  0  0  0  0  0  0  0  0  0  0
  -22.6947  -27.1564   24.7524 C   0  0  0  0  0  0  0  0  0  0  0  0
  -21.2612  -13.1555   18.3052 C   0  0  0  0  0  0  0  0  0  0  0  0
  -27.4648  -17.0764   18.1520 C   0  0  0  0  0  0  0  0  0  0  0  0
  -22.0748  -14.2673   18.5957 C   0  0  0  0  0  0  0  0  0  0  0  0
  -28.2608  -16.9300   19.2970 C   0  0  0  0  0  0  0  0  0  0  0  0
  -29.4439  -28.5616   19.4760 C   0  0  0  0  0  0  0  0  0  0  0  0
  -29.7986  -26.2145   19.0265 C   0  0  0  0  0  0  0  0  0  0  0  0
  -18.6364  -28.0272   21.6145 C   0  0  0  0  0  0  0  0  0  0  0  0
  -28.4842  -19.3468   19.4357 C   0  0  0  0  0  0  0  0  0  0  0  0
  -16.2970  -27.8069   21.6423 C   0  0  0  0  0  0  0  0  0  0  0  0
  -13.9485  -27.3831   23.0872 C   0  0  0  0  0  0  0  0  0  0  0  0
  -29.2318  -28.7899   18.1164 C   0  0  0  0  0  0  0  0  0  0  0  0
  -15.2922  -28.7744   21.6395 C   0  0  0  0  0  0  0  0  0  0  0  0
  -22.2845  -28.0628   23.7565 C   0  0  0  0  0  0  0  0  0  0  0  0
  -23.9403  -27.5980   25.1266 C   0  0  0  0  0  0  0  0  0  0  0  0
  -29.0629  -24.2046   19.8083 C   0  0  0  0  0  0  0  0  0  0  0  0
  -22.0111  -26.0170   25.2910 C   0  0  0  0  0  0  0  0  0  0  0  0
  -29.2932  -22.8149   20.3066 C   0  0  0  0  0  0  0  0  0  0  0  0
  -25.6792  -14.7021   19.2826 C   0  0  0  0  0  0  0  0  0  0  0  0
  -28.0732  -30.8679   22.2390 C   0  0  0  0  0  0  0  0  0  0  0  0
  -28.5071  -13.1133   19.3203 C   0  0  0  0  0  0  0  0  0  0  0  0
  -31.9143  -13.2654   19.4395 C   0  0  0  0  0  0  0  0  0  0  0  0
  -21.4789  -11.8184   18.9680 C   0  0  0  0  0  0  0  0  0  0  0  0
  -26.9353  -15.8663   17.4325 C   0  0  0  0  0  0  0  0  0  0  0  0
  -28.5884  -15.5750   19.8671 C   0  0  0  0  0  0  0  0  0  0  0  0
  -22.8609  -11.6692   19.5989 C   0  0  0  0  0  0  0  0  0  0  0  0
  -26.5821  -31.5669   25.4215 C   0  0  0  0  0  0  0  0  0  0  0  0
  -23.2121  -12.9094   20.4146 C   0  0  0  0  0  0  0  0  0  0  0  0
  -25.3331  -30.6865   25.4338 C   0  0  0  0  0  0  0  0  0  0  0  0
  -26.8784  -32.0961   24.0218 C   0  0  0  0  0  0  0  0  0  0  0  0
  -25.7526  -30.1479   22.9927 C   0  0  0  0  0  0  0  0  0  0  0  0
  -23.2635  -14.1579   19.5258 C   0  0  1  0  0  0  0  0  0  0  0  0
  -26.8370  -14.6346   18.3273 C   0  0  1  0  0  0  0  0  0  0  0  0
  -25.4352  -29.5675   24.3822 C   0  0  2  0  0  0  0  0  0  0  0  0
  -33.9509  -11.8001   19.4945 C   0  0  0  0  0  0  0  0  0  0  0  0
  -27.9691  -12.4799   22.2562 C   0  0  0  0  0  0  0  0  0  0  0  0
  -30.3865  -11.8745   22.4964 C   0  0  0  0  0  0  0  0  0  0  0  0
  -28.9280  -10.5829   20.9384 C   0  0  0  0  0  0  0  0  0  0  0  0
  -32.9354  -14.3912   16.9000 C   0  0  0  0  0  0  0  0  0  0  0  0
  -29.3676  -29.6926   20.4452 C   0  0  0  0  0  0  0  0  0  0  0  0
  -28.6597  -21.7177   19.4961 C   0  0  0  0  0  0  0  0  0  1  0  0
  -28.0705  -29.7179   21.2636 C   0  0  0  0  0  0  0  0  0  0  0  0
  -29.6203  -12.9357   20.3244 C   0  0  1  0  0  0  0  0  0  0  0  0
  -32.9830  -12.5736   18.6125 C   0  0  2  0  0  0  0  0  0  0  0  0
  -29.2184  -11.9940   21.4945 C   0  0  0  0  0  0  0  0  0  0  0  0
  -23.1955  -29.0089   23.5135 N   0  0  0  0  0  0  0  0  0  0  0  0
  -30.0852  -24.9174   19.4841 N   0  0  0  0  0  0  0  0  0  0  0  0
  -24.1905  -28.6994   24.3621 N   0  0  0  0  0  0  0  0  0  0  0  0
  -28.0423  -14.4225   19.1314 N   0  0  0  0  0  0  0  0  0  0  0  0
  -26.9452  -31.0048   23.0483 N   0  0  0  0  0  0  0  0  0  0  0  0
  -24.8349  -27.1478   26.0319 N   0  0  0  0  0  0  0  0  0  0  0  0
  -20.7386  -25.7045   24.7935 N   0  0  0  0  0  0  0  0  0  0  0  0
  -24.4998  -14.1926   18.7741 N   0  0  0  0  0  0  0  0  0  0  0  0
  -30.7841  -12.4861   19.5683 N   0  0  0  0  0  0  0  0  0  0  0  0
  -33.7596  -13.5747   17.8279 N   0  3  0  0  0  0  0  0  0  0  0  0
  -22.5067  -25.3069   26.1986 O   0  0  0  0  0  0  0  0  0  0  0  0
  -29.9761  -22.6659   21.3076 O   0  0  0  0  0  0  0  0  0  0  0  0
  -25.8442  -15.1797   20.3991 O   0  0  0  0  0  0  0  0  0  0  0  0
  -29.0508  -31.6194   22.2810 O   0  0  0  0  0  0  0  0  0  0  0  0
  -28.0710  -12.1277   18.7203 O   0  0  0  0  0  0  0  0  0  0  0  0
  -32.0683  -14.3835   19.9259 O   0  0  0  0  0  0  0  0  0  0  0  0
  -17.4630  -28.0153   20.9249 O   0  0  0  0  0  0  0  0  0  0  0  0
  -28.9775  -20.4481   20.0647 O   0  0  0  0  0  0  0  0  0  1  0  0
  -12.8203  -27.1789   23.7798 F   0  0  0  0  0  0  0  0  0  0  0  0
  -28.9594  -30.0239   17.6699 F   0  0  0  0  0  0  0  0  0  0  0  0
  -15.4489  -29.9089   20.9437 F   0  0  0  0  0  0  0  0  0  0  0  0
  1  2  1  0  0  0  0
  1  5  2  0  0  0  0
  2  6  2  0  0  0  0
  3  9  2  0  0  0  0
  3 18  1  0  0  0  0
  4 10  1  0  0  0  0
  4 18  2  0  0  0  0
  5 20  1  0  0  0  0
  6 22  1  0  0  0  0
  7 11  2  0  0  0  0
  7 21  1  0  0  0  0
  8 13  2  0  0  0  0
  8 25  1  0  0  0  0
  9 26  1  0  0  0  0
 10 26  2  0  0  0  0
 11 27  1  0  0  0  0
 12 14  2  0  0  0  0
 12 28  1  0  0  0  0
 13 30  1  0  0  0  0
 14 29  1  0  0  0  0
 15 23  1  0  0  0  0
 15 27  2  0  0  0  0
 16 24  1  0  0  0  0
 16 25  2  0  0  0  0
 17 29  2  0  0  0  0
 17 31  1  0  0  0  0
 18 32  1  0  0  0  0
 19 32  1  0  0  0  0
 19 33  2  0  0  0  0
 19 35  1  0  0  0  0
 20 22  2  0  0  0  0
 20 41  1  0  0  0  0
 21 23  2  0  0  0  0
 21 42  1  0  0  0  0
 22 50  1  0  0  0  0
 23 43  1  0  0  0  0
 24 30  2  0  0  0  0
 24 58  1  0  0  0  0
 25 65  1  0  0  0  0
 26 80  1  0  0  0  0
 27 81  1  0  0  0  0
 28 31  2  0  0  0  0
 28 80  1  0  0  0  0
 29 82  1  0  0  0  0
 30 83  1  0  0  0  0
 31 84  1  0  0  0  0
 32 64  2  0  0  0  0
 33 66  1  0  0  0  0
 33 69  1  0  0  0  0
 34 36  1  0  0  0  0
 34 65  2  0  0  0  0
 35 70  1  0  0  0  0
 35 74  2  0  0  0  0
 36 59  1  0  0  0  0
 36 75  2  0  0  0  0
 37 51  1  0  0  0  0
 37 71  1  0  0  0  0
 37 76  2  0  0  0  0
 38 60  1  0  0  0  0
 38 68  1  0  0  0  0
 38 77  2  0  0  0  0
 39 61  1  0  0  0  0
 39 67  1  0  0  0  0
 39 78  2  0  0  0  0
 40 62  1  0  0  0  0
 40 72  1  0  0  0  0
 40 79  2  0  0  0  0
 41 44  1  0  0  0  0
 42 51  1  0  0  0  0
 43 67  1  0  0  0  0
 44 46  1  0  0  0  0
 45 47  1  0  0  0  0
 45 48  1  0  0  0  0
 46 50  1  0  0  0  0
 47 52  1  0  0  0  0
 48 68  1  0  0  0  0
 49 52  1  0  0  0  0
 49 68  1  0  0  0  0
 50 71  1  0  0  0  0
 51 67  1  0  0  0  0
 52 66  1  0  0  0  0
 53 62  1  0  0  0  0
 54 63  1  0  0  0  0
 55 63  1  0  0  0  0
 56 63  1  0  0  0  0
 57 73  1  0  0  0  0
 58 60  1  0  0  0  0
 59 81  1  0  0  0  0
 61 63  1  0  0  0  0
 61 72  1  0  0  0  0
 62 73  1  0  0  0  0
 64 66  1  0  0  0  0
M  CHG  1  73   1
M  ISO  4  38 100  59 101  60 100  81 101
M  END
> <Batch ID>
0173

> <Smiles>
CNC(C)C(=O)NC(C(=O)N1Cc2cc([101O:1][101CH2:1]C(=O)CNc3ccc(F)c(C=[100CH:0][100C:0](=O)N4CCCC(n5nc(-c6ccc(Oc7ccc(F)cc7F)cc6)c(C(N)=O)c5N)C4)c3)ccc2CC1C(=O)NC1CCCc2ccccc21)C(C)(C)C

> <Shape>
0.257

> <Color>
0.090

> <Negative vol penalty>
0.000

$$$$

  -OEChem-04052304293D

 86 94  0     1  0  0  0  0  0999 V2000
  -22.8594  -30.3203   22.1268 C   0  0  0  0  0  0  0  0  0  0  0  0
  -23.8498  -29.3539   21.9841 C   0  0  0  0  0  0  0  0  0  0  0  0
  -23.0112   -9.9166   20.0219 C   0  0  0  0  0  0  0  0  0  0  0  0
  -23.7592   -9.9789   22.3183 C   0  0  0  0  0  0  0  0  0  0  0  0
  -32.0859  -18.2174   24.0264 C   0  0  0  0  0  0  0  0  0  0  0  0
  -22.9461  -31.5160   21.4150 C   0  0  0  0  0  0  0  0  0  0  0  0
  -24.9270  -29.5821   21.1286 C   0  0  0  0  0  0  0  0  0  0  0  0
  -29.3616  -28.2797   23.1981 C   0  0  0  0  0  0  0  0  0  0  0  0
  -22.2224   -8.8027   20.3090 C   0  0  0  0  0  0  0  0  0  0  0  0
  -22.9703   -8.8650   22.6055 C   0  0  0  0  0  0  0  0  0  0  0  0
  -29.6784  -26.9222   23.2231 C   0  0  0  0  0  0  0  0  0  0  0  0
  -19.7108   -8.2137   23.2158 C   0  0  0  0  0  0  0  0  0  0  0  0
  -32.6472  -16.9602   23.8030 C   0  0  0  0  0  0  0  0  0  0  0  0
  -18.9470   -8.2458   24.3824 C   0  0  0  0  0  0  0  0  0  0  0  0
  -31.0895  -27.2221   21.2897 C   0  0  0  0  0  0  0  0  0  0  0  0
  -20.1093   -6.2908   25.1972 C   0  0  0  0  0  0  0  0  0  0  0  0
  -23.7797  -10.5047   21.0266 C   0  0  0  0  0  0  0  0  0  0  0  0
  -30.9078  -18.5811   23.3740 C   0  0  0  0  0  0  0  0  0  0  0  0
  -24.2189  -13.0088   20.8166 C   0  0  0  0  0  0  0  0  0  0  0  0
  -24.0298  -31.7630   20.5576 C   0  0  0  0  0  0  0  0  0  0  0  0
  -29.8988  -29.1179   22.2105 C   0  0  0  0  0  0  0  0  0  0  0  0
  -25.0276  -30.7816   20.4035 C   0  0  0  0  0  0  0  0  0  0  0  0
  -30.7800  -28.5903   21.2559 C   0  0  0  0  0  0  0  0  0  0  0  0
  -30.8527  -16.4306   22.2745 C   0  0  0  0  0  0  0  0  0  0  0  0
  -22.2018   -8.2769   21.6008 C   0  0  0  0  0  0  0  0  0  0  0  0
  -30.5402  -26.3926   22.2670 C   0  0  0  0  0  0  0  0  0  0  0  0
  -20.6739   -7.2201   23.0398 C   0  0  0  0  0  0  0  0  0  0  0  0
  -19.1462   -7.2844   25.3732 C   0  0  0  0  0  0  0  0  0  0  0  0
  -32.0307  -16.0668   22.9270 C   0  0  0  0  0  0  0  0  0  0  0  0
  -20.8731   -6.2587   24.0305 C   0  0  0  0  0  0  0  0  0  0  0  0
  -30.2913  -17.6878   22.4981 C   0  0  0  0  0  0  0  0  0  0  0  0
  -24.5952  -11.6551   20.7305 C   0  0  0  0  0  0  0  0  0  0  0  0
  -25.3408  -13.7022   20.4332 C   0  0  0  0  0  0  0  0  0  0  0  0
  -30.3136  -19.9213   23.6148 C   0  0  0  0  0  0  0  0  0  0  0  0
  -22.9670  -13.5879   21.2081 C   0  0  0  0  0  0  0  0  0  0  0  0
  -28.6826  -30.8964   19.8736 C   0  0  0  0  0  0  0  0  0  0  0  0
  -29.9728  -22.8141   22.1511 C   0  0  0  0  0  0  0  0  0  0  0  0
  -31.7607  -31.8619   19.5345 C   0  0  0  0  0  0  0  0  0  0  0  0
  -35.0747  -31.1942   20.0018 C   0  0  0  0  0  0  0  0  0  0  0  0
  -30.8422  -14.5440   20.6051 C   0  0  0  0  0  0  0  0  0  0  0  0
  -24.0558  -33.0508   19.7729 C   0  0  0  0  0  0  0  0  0  0  0  0
  -29.5682  -30.5852   22.2134 C   0  0  0  0  0  0  0  0  0  0  0  0
  -31.3993  -29.4517   20.1868 C   0  0  0  0  0  0  0  0  0  0  0  0
  -25.4225  -33.3709   19.1729 C   0  0  0  0  0  0  0  0  0  0  0  0
  -29.6480  -12.0890   18.3194 C   0  0  0  0  0  0  0  0  0  0  0  0
  -26.0101  -32.1372   18.4949 C   0  0  0  0  0  0  0  0  0  0  0  0
  -28.1960  -11.8687   18.7500 C   0  0  0  0  0  0  0  0  0  0  0  0
  -30.5651  -12.3267   19.5178 C   0  0  0  0  0  0  0  0  0  0  0  0
  -28.6803  -13.1738   20.8593 C   0  0  0  0  0  0  0  0  0  0  0  0
  -26.2243  -31.0026   19.5040 C   0  0  1  0  0  0  0  0  0  0  0  0
  -29.7677  -31.2453   20.8525 C   0  0  1  0  0  0  0  0  0  0  0  0
  -27.7076  -12.9947   19.6823 C   0  0  2  0  0  0  0  0  0  0  0  0
  -37.3554  -32.1553   19.5870 C   0  0  0  0  0  0  0  0  0  0  0  0
  -31.5451  -31.0961   16.5888 C   0  0  0  0  0  0  0  0  0  0  0  0
  -34.0444  -31.1685   16.4590 C   0  0  0  0  0  0  0  0  0  0  0  0
  -32.7661  -33.2348   17.0240 C   0  0  0  0  0  0  0  0  0  0  0  0
  -35.6935  -31.2762   22.8947 C   0  0  0  0  0  0  0  0  0  0  0  0
  -28.9856  -21.7707   22.6289 C   0  0  0  0  0  0  0  0  0  0  0  0
  -29.8614  -24.1774   22.8037 C   0  0  0  0  0  0  0  0  0  1  0  0
  -32.9494  -31.3837   18.7362 C   0  0  1  0  0  0  0  0  0  0  0  0
  -36.2017  -32.0373   20.5707 C   0  0  2  0  0  0  0  0  0  0  0  0
  -32.8132  -31.7039   17.2208 C   0  0  0  0  0  0  0  0  0  0  0  0
  -25.8576  -11.4957   20.3242 N   0  0  0  0  0  0  0  0  0  0  0  0
  -26.2842  -12.7583   20.1515 N   0  0  0  0  0  0  0  0  0  0  0  0
  -31.0404  -30.8789   20.2277 N   0  0  0  0  0  0  0  0  0  0  0  0
  -30.0416  -13.4097   20.3533 N   0  0  0  0  0  0  0  0  0  0  0  0
  -25.6026  -15.0211   20.3130 N   0  0  0  0  0  0  0  0  0  0  0  0
  -21.9192  -12.7310   21.5718 N   0  0  0  0  0  0  0  0  0  0  0  0
  -30.2267  -15.5225   21.3849 N   0  0  0  0  0  0  0  0  0  0  0  0
  -29.5963  -20.4767   22.5582 N   0  0  0  0  0  0  0  0  0  0  0  0
  -27.4130  -31.2455   20.2929 N   0  0  0  0  0  0  0  0  0  0  0  0
  -34.1272  -31.9694   19.3672 N   0  0  0  0  0  0  0  0  0  0  0  0
  -36.7180  -31.4301   21.8300 N   0  3  0  0  0  0  0  0  0  0  0  0
  -30.4946  -20.4721   24.6976 O   0  0  0  0  0  0  0  0  0  0  0  0
  -22.7779  -14.8279   21.2189 O   0  0  0  0  0  0  0  0  0  0  0  0
  -28.9755  -30.3523   18.8154 O   0  0  0  0  0  0  0  0  0  0  0  0
  -30.7823  -22.5903   21.2514 O   0  0  0  0  0  0  0  0  0  0  0  0
  -31.4859  -33.0644   19.5484 O   0  0  0  0  0  0  0  0  0  0  0  0
  -35.0404  -29.9701   20.1063 O   0  0  0  0  0  0  0  0  0  0  0  0
  -31.9793  -14.6521   20.1389 O   0  0  0  0  0  0  0  0  0  0  0  0
  -21.4320   -7.1901   21.8813 O   0  0  0  0  0  0  0  0  0  0  0  0
  -30.8505  -25.0678   22.2887 O   0  0  0  0  0  0  0  0  0  1  0  0
  -18.4137   -7.3162   26.4941 F   0  0  0  0  0  0  0  0  0  0  0  0
  -32.5794  -14.8613   22.7200 F   0  0  0  0  0  0  0  0  0  0  0  0
  -21.7977   -5.3024   23.8676 F   0  0  0  0  0  0  0  0  0  0  0  0
  -29.1580  -18.0379   21.8705 F   0  0  0  0  0  0  0  0  0  0  0  0
  1  2  1  0  0  0  0
  1  6  2  0  0  0  0
  2  7  2  0  0  0  0
  3  9  2  0  0  0  0
  3 17  1  0  0  0  0
  4 10  1  0  0  0  0
  4 17  2  0  0  0  0
  5 13  2  0  0  0  0
  5 18  1  0  0  0  0
  6 20  1  0  0  0  0
  7 22  1  0  0  0  0
  8 11  2  0  0  0  0
  8 21  1  0  0  0  0
  9 25  1  0  0  0  0
 10 25  2  0  0  0  0
 11 26  1  0  0  0  0
 12 14  2  0  0  0  0
 12 27  1  0  0  0  0
 13 29  1  0  0  0  0
 14 28  1  0  0  0  0
 15 23  1  0  0  0  0
 15 26  2  0  0  0  0
 16 28  2  0  0  0  0
 16 30  1  0  0  0  0
 17 32  1  0  0  0  0
 18 31  2  0  0  0  0
 18 34  1  0  0  0  0
 19 32  1  0  0  0  0
 19 33  2  0  0  0  0
 19 35  1  0  0  0  0
 20 22  2  0  0  0  0
 20 41  1  0  0  0  0
 21 23  2  0  0  0  0
 21 42  1  0  0  0  0
 22 50  1  0  0  0  0
 23 43  1  0  0  0  0
 24 29  2  0  0  0  0
 24 31  1  0  0  0  0
 24 69  1  0  0  0  0
 25 81  1  0  0  0  0
 26 82  1  0  0  0  0
 27 30  2  0  0  0  0
 27 81  1  0  0  0  0
 28 83  1  0  0  0  0
 29 84  1  0  0  0  0
 30 85  1  0  0  0  0
 31 86  1  0  0  0  0
 32 63  2  0  0  0  0
 33 64  1  0  0  0  0
 33 67  1  0  0  0  0
 34 70  1  0  0  0  0
 34 74  2  0  0  0  0
 35 68  1  0  0  0  0
 35 75  2  0  0  0  0
 36 51  1  0  0  0  0
 36 71  1  0  0  0  0
 36 76  2  0  0  0  0
 37 58  1  0  0  0  0
 37 59  1  0  0  0  0
 37 77  2  0  0  0  0
 38 60  1  0  0  0  0
 38 65  1  0  0  0  0
 38 78  2  0  0  0  0
 39 61  1  0  0  0  0
 39 72  1  0  0  0  0
 39 79  2  0  0  0  0
 40 66  1  0  0  0  0
 40 69  1  0  0  0  0
 40 80  2  0  0  0  0
 41 44  1  0  0  0  0
 42 51  1  0  0  0  0
 43 65  1  0  0  0  0
 44 46  1  0  0  0  0
 45 47  1  0  0  0  0
 45 48  1  0  0  0  0
 46 50  1  0  0  0  0
 47 52  1  0  0  0  0
 48 66  1  0  0  0  0
 49 52  1  0  0  0  0
 49 66  1  0  0  0  0
 50 71  1  0  0  0  0
 51 65  1  0  0  0  0
 52 64  1  0  0  0  0
 53 61  1  0  0  0  0
 54 62  1  0  0  0  0
 55 62  1  0  0  0  0
 56 62  1  0  0  0  0
 57 73  1  0  0  0  0
 58 70  1  0  0  0  0
 59 82  1  0  0  0  0
 60 62  1  0  0  0  0
 60 72  1  0  0  0  0
 61 73  1  0  0  0  0
 63 64  1  0  0  0  0
M  CHG  1  73   1
M  ISO  4  40 100  59 101  69 100  82 101
M  END
> <Batch ID>
0173

> <Smiles>
CNC(C)C(=O)NC(C(=O)N1Cc2cc([101O:1][101CH2:1]C(=O)CNC(=O)c3ccc(F)c([100NH:0][100C:0](=O)N4CCCC(n5nc(-c6ccc(Oc7ccc(F)cc7F)cc6)c(C(N)=O)c5N)C4)c3F)ccc2CC1C(=O)NC1CCCc2ccccc21)C(C)(C)C

> <Shape>
0.237

> <Color>
0.190

> <Negative vol penalty>
0.000

$$$$

  -OEChem-04052304293D

 86 94  0     1  0  0  0  0  0999 V2000
  -20.2211  -29.0106   30.6884 C   0  0  0  0  0  0  0  0  0  0  0  0
  -20.6676  -28.0299   29.8085 C   0  0  0  0  0  0  0  0  0  0  0  0
  -22.9952   -9.8279   20.0434 C   0  0  0  0  0  0  0  0  0  0  0  0
  -23.6271  -10.0583   22.3639 C   0  0  0  0  0  0  0  0  0  0  0  0
  -32.5519  -17.5880   23.3011 C   0  0  0  0  0  0  0  0  0  0  0  0
  -20.1340  -30.3367   30.2667 C   0  0  0  0  0  0  0  0  0  0  0  0
  -21.0262  -28.3746   28.5058 C   0  0  0  0  0  0  0  0  0  0  0  0
  -25.3586  -26.1985   27.0430 C   0  0  0  0  0  0  0  0  0  0  0  0
  -31.9926  -16.6267   22.4594 C   0  0  0  0  0  0  0  0  0  0  0  0
  -22.2097   -8.7217   20.3671 C   0  0  0  0  0  0  0  0  0  0  0  0
  -22.8414   -8.9521   22.6876 C   0  0  0  0  0  0  0  0  0  0  0  0
  -25.3018  -24.8578   26.6649 C   0  0  0  0  0  0  0  0  0  0  0  0
  -23.0784   -5.5851   22.4919 C   0  0  0  0  0  0  0  0  0  0  0  0
  -23.6270   -4.6282   23.3456 C   0  0  0  0  0  0  0  0  0  0  0  0
  -25.2814  -25.5192   24.3451 C   0  0  0  0  0  0  0  0  0  0  0  0
  -29.8019  -17.5748   22.8324 C   0  0  0  0  0  0  0  0  0  0  0  0
  -21.8388   -5.0114   24.9244 C   0  0  0  0  0  0  0  0  0  0  0  0
  -23.7040  -10.4962   21.0418 C   0  0  0  0  0  0  0  0  0  0  0  0
  -31.7363  -18.5427   23.9086 C   0  0  0  0  0  0  0  0  0  0  0  0
  -24.1159  -12.9880   20.6831 C   0  0  0  0  0  0  0  0  0  0  0  0
  -20.5009  -30.6993   28.9611 C   0  0  0  0  0  0  0  0  0  0  0  0
  -25.3663  -27.2117   26.0736 C   0  0  0  0  0  0  0  0  0  0  0  0
  -20.9426  -29.7066   28.0657 C   0  0  0  0  0  0  0  0  0  0  0  0
  -25.3410  -26.8719   24.7135 C   0  0  0  0  0  0  0  0  0  0  0  0
  -30.6175  -16.6201   22.2250 C   0  0  0  0  0  0  0  0  0  0  0  0
  -30.3613  -18.5361   23.6742 C   0  0  0  0  0  0  0  0  0  0  0  0
  -22.1327   -8.2838   21.6892 C   0  0  0  0  0  0  0  0  0  0  0  0
  -25.2602  -24.5180   25.3158 C   0  0  0  0  0  0  0  0  0  0  0  0
  -21.9099   -6.2553   22.8545 C   0  0  0  0  0  0  0  0  0  0  0  0
  -23.0072   -4.3413   24.5618 C   0  0  0  0  0  0  0  0  0  0  0  0
  -21.2901   -5.9684   24.0707 C   0  0  0  0  0  0  0  0  0  0  0  0
  -24.5161  -11.6386   20.7079 C   0  0  0  0  0  0  0  0  0  0  0  0
  -25.2451  -13.6742   20.3084 C   0  0  0  0  0  0  0  0  0  0  0  0
  -32.3527  -19.5329   24.7828 C   0  0  0  0  0  0  0  0  0  0  0  0
  -27.6127  -20.7586   24.9489 C   0  0  0  0  0  0  0  0  0  0  0  0
  -22.8377  -13.5693   20.9730 C   0  0  0  0  0  0  0  0  0  0  0  0
  -26.3148  -21.0996   24.9989 C   0  0  0  0  0  0  0  0  0  0  0  0
  -28.1355  -19.6111   24.1419 C   0  0  0  0  0  0  0  0  0  0  0  0
  -23.4389  -29.6314   25.3426 C   0  0  0  0  0  0  0  0  0  0  0  0
  -25.8068  -30.3765   23.2544 C   0  0  0  0  0  0  0  0  0  0  0  0
  -28.4637  -29.3218   21.3903 C   0  0  0  0  0  0  0  0  0  0  0  0
  -30.7180  -14.6254   20.6895 C   0  0  0  0  0  0  0  0  0  0  0  0
  -20.3448  -32.1381   28.5364 C   0  0  0  0  0  0  0  0  0  0  0  0
  -25.4548  -28.6523   26.4973 C   0  0  0  0  0  0  0  0  0  0  0  0
  -25.3676  -27.9211   23.6333 C   0  0  0  0  0  0  0  0  0  0  0  0
  -21.0998  -32.4800   27.2544 C   0  0  0  0  0  0  0  0  0  0  0  0
  -29.6754  -12.0008   18.5213 C   0  0  0  0  0  0  0  0  0  0  0  0
  -20.8541  -31.4153   26.1901 C   0  0  0  0  0  0  0  0  0  0  0  0
  -28.2073  -11.7836   18.8948 C   0  0  0  0  0  0  0  0  0  0  0  0
  -30.5282  -12.3353   19.7438 C   0  0  0  0  0  0  0  0  0  0  0  0
  -28.5668  -13.2365   20.9312 C   0  0  0  0  0  0  0  0  0  0  0  0
  -21.3643  -30.0451   26.6523 C   0  0  1  0  0  0  0  0  0  0  0  0
  -24.9385  -29.6198   25.4368 C   0  0  1  0  0  0  0  0  0  0  0  0
  -27.6565  -12.9608   19.7233 C   0  0  2  0  0  0  0  0  0  0  0  0
  -30.1762  -30.1525   19.7548 C   0  0  0  0  0  0  0  0  0  0  0  0
  -23.6878  -30.4158   21.0593 C   0  0  0  0  0  0  0  0  0  0  0  0
  -25.5336  -30.2987   19.3719 C   0  0  0  0  0  0  0  0  0  0  0  0
  -25.3765  -32.2546   20.9122 C   0  0  0  0  0  0  0  0  0  0  0  0
  -30.7006  -28.6024   23.1897 C   0  0  0  0  0  0  0  0  0  0  0  0
  -25.8236  -22.2612   25.8112 C   0  0  0  0  0  0  0  0  0  1  0  0
  -26.1218  -30.0168   21.8225 C   0  0  1  0  0  0  0  0  0  0  0  0
  -29.8619  -29.8876   21.2190 C   0  0  2  0  0  0  0  0  0  0  0  0
  -25.1775  -30.7265   20.8116 C   0  0  0  0  0  0  0  0  0  0  0  0
  -25.7993  -11.4751   20.3753 N   0  0  0  0  0  0  0  0  0  0  0  0
  -33.6270  -19.5736   25.0271 N   0  0  0  0  0  0  0  0  0  0  0  0
  -26.2152  -12.7308   20.1378 N   0  0  0  0  0  0  0  0  0  0  0  0
  -25.4481  -29.3157   24.0981 N   0  0  0  0  0  0  0  0  0  0  0  0
  -29.9479  -13.4625   20.4771 N   0  0  0  0  0  0  0  0  0  0  0  0
  -25.4930  -14.9865   20.1113 N   0  0  0  0  0  0  0  0  0  0  0  0
  -21.7859  -12.7200   21.3429 N   0  0  0  0  0  0  0  0  0  0  0  0
  -29.5135  -19.4956   24.2808 N   0  0  0  0  0  0  0  0  0  0  0  0
  -30.0501  -15.6430   21.3700 N   0  0  0  0  0  0  0  0  0  0  0  0
  -22.8037  -29.9713   26.5217 N   0  0  0  0  0  0  0  0  0  0  0  0
  -27.5368  -30.3144   21.6287 N   0  0  0  0  0  0  0  0  0  0  0  0
  -30.8755  -28.9340   21.7522 N   0  3  0  0  0  0  0  0  0  0  0  0
  -22.6299  -14.8036   20.8900 O   0  0  0  0  0  0  0  0  0  0  0  0
  -27.3928  -18.9063   23.4698 O   0  0  0  0  0  0  0  0  0  0  0  0
  -22.8983  -29.3539   24.2784 O   0  0  0  0  0  0  0  0  0  0  0  0
  -25.8832  -31.5543   23.6129 O   0  0  0  0  0  0  0  0  0  0  0  0
  -28.2178  -28.1200   21.3160 O   0  0  0  0  0  0  0  0  0  0  0  0
  -31.8752  -14.7226   20.2729 O   0  0  0  0  0  0  0  0  0  0  0  0
  -25.3448  -20.4174   24.2915 O   0  0  0  0  0  0  0  0  0  0  0  0
  -21.3661   -7.2046   22.0055 O   0  0  0  0  0  0  0  0  0  0  0  0
  -25.2040  -23.2102   24.9440 O   0  0  0  0  0  0  0  0  0  1  0  0
  -23.5333   -3.4211   25.3808 F   0  0  0  0  0  0  0  0  0  0  0  0
  -20.1668   -6.6081   24.4239 F   0  0  0  0  0  0  0  0  0  0  0  0
  1  2  1  0  0  0  0
  1  6  2  0  0  0  0
  2  7  2  0  0  0  0
  3 10  2  0  0  0  0
  3 18  1  0  0  0  0
  4 11  1  0  0  0  0
  4 18  2  0  0  0  0
  5  9  2  0  0  0  0
  5 19  1  0  0  0  0
  6 21  1  0  0  0  0
  7 23  1  0  0  0  0
  8 12  2  0  0  0  0
  8 22  1  0  0  0  0
  9 25  1  0  0  0  0
 10 27  1  0  0  0  0
 11 27  2  0  0  0  0
 12 28  1  0  0  0  0
 13 14  2  0  0  0  0
 13 29  1  0  0  0  0
 14 30  1  0  0  0  0
 15 24  1  0  0  0  0
 15 28  2  0  0  0  0
 16 25  2  0  0  0  0
 16 26  1  0  0  0  0
 17 30  2  0  0  0  0
 17 31  1  0  0  0  0
 18 32  1  0  0  0  0
 19 26  2  0  0  0  0
 19 34  1  0  0  0  0
 20 32  1  0  0  0  0
 20 33  2  0  0  0  0
 20 36  1  0  0  0  0
 21 23  2  0  0  0  0
 21 43  1  0  0  0  0
 22 24  2  0  0  0  0
 22 44  1  0  0  0  0
 23 52  1  0  0  0  0
 24 45  1  0  0  0  0
 25 72  1  0  0  0  0
 26 71  1  0  0  0  0
 27 83  1  0  0  0  0
 28 84  1  0  0  0  0
 29 31  2  0  0  0  0
 29 83  1  0  0  0  0
 30 85  1  0  0  0  0
 31 86  1  0  0  0  0
 32 64  2  0  0  0  0
 33 66  1  0  0  0  0
 33 69  1  0  0  0  0
 34 65  2  0  0  0  0
 35 37  2  0  0  0  0
 35 38  1  0  0  0  0
 36 70  1  0  0  0  0
 36 76  2  0  0  0  0
 37 60  1  0  0  0  0
 37 82  1  0  0  0  0
 38 71  1  0  0  0  0
 38 77  2  0  0  0  0
 39 53  1  0  0  0  0
 39 73  1  0  0  0  0
 39 78  2  0  0  0  0
 40 61  1  0  0  0  0
 40 67  1  0  0  0  0
 40 79  2  0  0  0  0
 41 62  1  0  0  0  0
 41 74  1  0  0  0  0
 41 80  2  0  0  0  0
 42 68  1  0  0  0  0
 42 72  1  0  0  0  0
 42 81  2  0  0  0  0
 43 46  1  0  0  0  0
 44 53  1  0  0  0  0
 45 67  1  0  0  0  0
 46 48  1  0  0  0  0
 47 49  1  0  0  0  0
 47 50  1  0  0  0  0
 48 52  1  0  0  0  0
 49 54  1  0  0  0  0
 50 68  1  0  0  0  0
 51 54  1  0  0  0  0
 51 68  1  0  0  0  0
 52 73  1  0  0  0  0
 53 67  1  0  0  0  0
 54 66  1  0  0  0  0
 55 62  1  0  0  0  0
 56 63  1  0  0  0  0
 57 63  1  0  0  0  0
 58 63  1  0  0  0  0
 59 75  1  0  0  0  0
 60 84  1  0  0  0  0
 61 63  1  0  0  0  0
 61 74  1  0  0  0  0
 62 75  1  0  0  0  0
 64 66  1  0  0  0  0
M  CHG  1  75   1
M  ISO  4  42 100  60 101  72 100  84 101
M  END
> <Batch ID>
0173

> <Smiles>
CNC(C)C(=O)NC(C(=O)N1Cc2cc([101O:1][101CH2:1]C(=O)CC(=O)Nc3cc([100NH:0][100C:0](=O)N4CCCC(n5nc(-c6ccc(Oc7ccc(F)cc7F)cc6)c(C(N)=O)c5N)C4)ccc3C=N)ccc2CC1C(=O)NC1CCCc2ccccc21)C(C)(C)C

> <Shape>
0.246

> <Color>
0.184

> <Negative vol penalty>
0.000

$$$$

  -OEChem-04052304293D

 88 96  0     1  0  0  0  0  0999 V2000
  -25.2317  -28.8228   20.6768 C   0  0  0  0  0  0  0  0  0  0  0  0
  -24.7693  -27.7164   19.9715 C   0  0  0  0  0  0  0  0  0  0  0  0
  -20.7739  -23.5023   23.8041 C   0  0  0  0  0  0  0  0  0  0  0  0
  -21.9022  -23.1007   21.7058 C   0  0  0  0  0  0  0  0  0  0  0  0
  -26.5949  -28.9656   20.9319 C   0  0  0  0  0  0  0  0  0  0  0  0
  -25.6702  -26.7526   19.5198 C   0  0  0  0  0  0  0  0  0  0  0  0
  -24.7036  -20.7199   19.0986 C   0  0  0  0  0  0  0  0  0  0  0  0
  -20.8364  -24.8767   23.5746 C   0  0  0  0  0  0  0  0  0  0  0  0
  -21.9646  -24.4751   21.4763 C   0  0  0  0  0  0  0  0  0  0  0  0
  -24.3518  -19.8988   18.0282 C   0  0  0  0  0  0  0  0  0  0  0  0
  -20.3769  -28.4771   23.3710 C   0  0  0  0  0  0  0  0  0  0  0  0
  -19.2275  -29.2284   23.6158 C   0  0  0  0  0  0  0  0  0  0  0  0
  -26.6787  -19.3664   17.6797 C   0  0  0  0  0  0  0  0  0  0  0  0
  -24.7351  -13.7453   20.0974 C   0  0  0  0  0  0  0  0  0  0  0  0
  -25.8643  -12.2461   21.6186 C   0  0  0  0  0  0  0  0  0  0  0  0
  -18.0259  -27.9249   21.9744 C   0  0  0  0  0  0  0  0  0  0  0  0
  -21.3068  -22.6143   22.8697 C   0  0  0  0  0  0  0  0  0  0  0  0
  -20.2144  -20.3138   22.7216 C   0  0  0  0  0  0  0  0  0  0  0  0
  -27.5119  -27.9982   20.4914 C   0  0  0  0  0  0  0  0  0  0  0  0
  -26.0487  -20.8792   19.4613 C   0  0  0  0  0  0  0  0  0  0  0  0
  -27.0471  -26.8833   19.7680 C   0  0  0  0  0  0  0  0  0  0  0  0
  -27.0447  -20.1881   18.7567 C   0  0  0  0  0  0  0  0  0  0  0  0
  -24.8176  -13.1265   21.3447 C   0  0  0  0  0  0  0  0  0  0  0  0
  -25.6991  -13.4836   19.1238 C   0  0  0  0  0  0  0  0  0  0  0  0
  -21.4317  -25.3632   22.4108 C   0  0  0  0  0  0  0  0  0  0  0  0
  -25.3396  -19.2241   17.3167 C   0  0  0  0  0  0  0  0  0  0  0  0
  -20.3509  -27.4497   22.4278 C   0  0  0  0  0  0  0  0  0  0  0  0
  -18.0519  -28.9523   22.9176 C   0  0  0  0  0  0  0  0  0  0  0  0
  -26.8283  -11.9843   20.6450 C   0  0  0  0  0  0  0  0  0  0  0  0
  -19.1754  -27.1736   21.7295 C   0  0  0  0  0  0  0  0  0  0  0  0
  -26.7457  -12.6031   19.3976 C   0  0  0  0  0  0  0  0  0  0  0  0
  -21.2431  -21.1944   23.1064 C   0  0  0  0  0  0  0  0  0  0  0  0
  -20.6260  -19.0851   23.1771 C   0  0  0  0  0  0  0  0  0  0  0  0
  -18.9958  -20.5823   22.0155 C   0  0  0  0  0  0  0  0  0  0  0  0
  -28.0627  -23.3353   19.5855 C   0  0  0  0  0  0  0  0  0  0  0  0
  -24.7837  -15.4975   16.0931 C   0  0  0  0  0  0  0  0  0  0  0  0
  -30.0371  -21.1455   20.9378 C   0  0  0  0  0  0  0  0  0  0  0  0
  -30.8817  -17.8634   21.3395 C   0  0  0  0  0  0  0  0  0  0  0  0
  -24.6027  -15.2294   23.8584 C   0  0  0  0  0  0  0  0  0  0  0  0
  -28.9812  -28.2198   20.7500 C   0  0  0  0  0  0  0  0  0  0  0  0
  -26.4095  -21.7476   20.6353 C   0  0  0  0  0  0  0  0  0  0  0  0
  -28.5016  -20.3094   19.1189 C   0  0  0  0  0  0  0  0  0  0  0  0
  -29.8288  -26.9642   20.5620 C   0  0  0  0  0  0  0  0  0  0  0  0
  -24.4113  -17.8258   26.2871 C   0  0  0  0  0  0  0  0  0  0  0  0
  -29.4552  -26.2574   19.2629 C   0  0  0  0  0  0  0  0  0  0  0  0
  -23.4907  -18.8631   25.6418 C   0  0  0  0  0  0  0  0  0  0  0  0
  -25.3104  -17.1493   25.2546 C   0  0  0  0  0  0  0  0  0  0  0  0
  -23.6776  -17.5924   23.4626 C   0  0  0  0  0  0  0  0  0  0  0  0
  -27.9905  -25.8039   19.2830 C   0  0  1  0  0  0  0  0  0  0  0  0
  -27.8527  -22.2404   20.5928 C   0  0  1  0  0  0  0  0  0  0  0  0
  -22.7125  -18.2617   24.4560 C   0  0  2  0  0  0  0  0  0  0  0  0
  -22.3701  -13.0128   21.9433 C   0  0  0  0  0  0  0  0  0  0  0  0
  -32.5652  -16.3870   22.4725 C   0  0  0  0  0  0  0  0  0  0  0  0
  -32.1138  -21.9038   18.8349 C   0  0  0  0  0  0  0  0  0  0  0  0
  -33.3496  -19.8004   19.3976 C   0  0  0  0  0  0  0  0  0  0  0  0
  -33.0347  -21.5626   21.1349 C   0  0  0  0  0  0  0  0  0  0  0  0
  -28.7894  -16.4993   22.9270 C   0  0  0  0  0  0  0  0  0  0  0  0
  -24.5702  -15.0223   17.5165 C   0  0  0  0  0  0  0  0  0  0  0  0
  -23.7227  -17.7871   16.3287 C   0  0  0  0  0  0  0  0  0  1  0  0
  -23.7871  -13.4056   22.3860 C   0  0  2  0  0  0  0  0  0  0  0  0
  -23.7555  -16.4836   15.5433 C   0  0  1  0  0  0  0  0  0  0  0  0
  -31.0565  -20.1604   20.4188 C   0  0  1  0  0  0  0  0  0  0  0  0
  -31.2009  -17.0501   22.5810 C   0  0  2  0  0  0  0  0  0  0  0  0
  -32.3614  -20.8558   19.9383 C   0  0  0  0  0  0  0  0  0  0  0  0
  -22.2336  -20.5777   23.7565 N   0  0  0  0  0  0  0  0  0  0  0  0
  -21.8291  -19.2964   23.7838 N   0  0  0  0  0  0  0  0  0  0  0  0
  -28.8044  -21.1753   20.2704 N   0  0  0  0  0  0  0  0  0  0  0  0
  -24.5108  -16.5987   24.1576 N   0  0  0  0  0  0  0  0  0  0  0  0
  -20.0724  -17.8555   23.1140 N   0  0  0  0  0  0  0  0  0  0  0  0
  -18.7290  -21.9003   21.6206 N   0  0  0  0  0  0  0  0  0  0  0  0
  -25.6150  -14.1005   17.8841 N   0  0  0  0  0  0  0  0  0  0  0  0
  -27.8432  -24.6061   20.0818 N   0  0  0  0  0  0  0  0  0  0  0  0
  -31.2575  -19.1824   21.4825 N   0  0  0  0  0  0  0  0  0  0  0  0
  -23.8067  -14.7884   22.8083 N   0  0  0  0  0  0  0  0  0  0  0  0
  -30.1761  -15.9868   22.7812 N   0  3  0  0  0  0  0  0  0  0  0  0
  -18.1604  -19.6830   21.7572 O   0  0  0  0  0  0  0  0  0  0  0  0
  -28.4004  -23.0485   18.4429 O   0  0  0  0  0  0  0  0  0  0  0  0
  -25.7292  -15.1087   15.4065 O   0  0  0  0  0  0  0  0  0  0  0  0
  -30.3214  -21.8572   21.9045 O   0  0  0  0  0  0  0  0  0  0  0  0
  -30.3554  -17.3765   20.3413 O   0  0  0  0  0  0  0  0  0  0  0  0
  -25.3356  -14.4560   24.4843 O   0  0  0  0  0  0  0  0  0  0  0  0
  -24.0599  -16.7783   14.1891 O   0  0  0  0  0  0  0  0  0  0  0  0
  -21.4926  -26.7043   22.1864 O   0  0  0  0  0  0  0  0  0  0  0  0
  -24.9991  -18.4226   16.2711 O   0  0  0  0  0  0  0  0  0  1  0  0
  -16.9478  -29.6728   23.1539 F   0  0  0  0  0  0  0  0  0  0  0  0
  -27.8332  -11.1386   20.9078 F   0  0  0  0  0  0  0  0  0  0  0  0
  -19.1439  -26.1871   20.8231 F   0  0  0  0  0  0  0  0  0  0  0  0
  -27.6775  -12.3441   18.4692 F   0  0  0  0  0  0  0  0  0  0  0  0
  1  2  1  0  0  0  0
  1  5  2  0  0  0  0
  2  6  2  0  0  0  0
  3  8  2  0  0  0  0
  3 17  1  0  0  0  0
  4  9  1  0  0  0  0
  4 17  2  0  0  0  0
  5 19  1  0  0  0  0
  6 21  1  0  0  0  0
  7 10  2  0  0  0  0
  7 20  1  0  0  0  0
  8 25  1  0  0  0  0
  9 25  2  0  0  0  0
 10 26  1  0  0  0  0
 11 12  2  0  0  0  0
 11 27  1  0  0  0  0
 12 28  1  0  0  0  0
 13 22  1  0  0  0  0
 13 26  2  0  0  0  0
 14 23  2  0  0  0  0
 14 24  1  0  0  0  0
 15 23  1  0  0  0  0
 15 29  2  0  0  0  0
 16 28  2  0  0  0  0
 16 30  1  0  0  0  0
 17 32  1  0  0  0  0
 18 32  1  0  0  0  0
 18 33  2  0  0  0  0
 18 34  1  0  0  0  0
 19 21  2  0  0  0  0
 19 40  1  0  0  0  0
 20 22  2  0  0  0  0
 20 41  1  0  0  0  0
 21 49  1  0  0  0  0
 22 42  1  0  0  0  0
 23 60  1  0  0  0  0
 24 31  2  0  0  0  0
 24 71  1  0  0  0  0
 25 83  1  0  0  0  0
 26 84  1  0  0  0  0
 27 30  2  0  0  0  0
 27 83  1  0  0  0  0
 28 85  1  0  0  0  0
 29 31  1  0  0  0  0
 29 86  1  0  0  0  0
 30 87  1  0  0  0  0
 31 88  1  0  0  0  0
 32 65  2  0  0  0  0
 33 66  1  0  0  0  0
 33 69  1  0  0  0  0
 34 70  1  0  0  0  0
 34 76  2  0  0  0  0
 35 50  1  0  0  0  0
 35 72  1  0  0  0  0
 35 77  2  0  0  0  0
 36 58  1  0  0  0  0
 36 61  1  0  0  0  0
 36 78  2  0  0  0  0
 37 62  1  0  0  0  0
 37 67  1  0  0  0  0
 37 79  2  0  0  0  0
 38 63  1  0  0  0  0
 38 73  1  0  0  0  0
 38 80  2  0  0  0  0
 39 68  1  0  0  0  0
 39 74  1  0  0  0  0
 39 81  2  0  0  0  0
 40 43  1  0  0  0  0
 41 50  1  0  0  0  0
 42 67  1  0  0  0  0
 43 45  1  0  0  0  0
 44 46  1  0  0  0  0
 44 47  1  0  0  0  0
 45 49  1  0  0  0  0
 46 51  1  0  0  0  0
 47 68  1  0  0  0  0
 48 51  1  0  0  0  0
 48 68  1  0  0  0  0
 49 72  1  0  0  0  0
 50 67  1  0  0  0  0
 51 66  1  0  0  0  0
 52 60  1  0  0  0  0
 53 63  1  0  0  0  0
 54 64  1  0  0  0  0
 55 64  1  0  0  0  0
 56 64  1  0  0  0  0
 57 75  1  0  0  0  0
 58 71  1  0  0  0  0
 59 61  1  0  0  0  0
 59 84  1  0  0  0  0
 60 74  1  0  0  0  0
 61 82  1  0  0  0  0
 62 64  1  0  0  0  0
 62 73  1  0  0  0  0
 63 75  1  0  0  0  0
 65 66  1  0  0  0  0
M  CHG  1  75   1
M  ISO  4  39 100  59 101  74 100  84 101
M  END
> <Batch ID>
0173

> <Smiles>
CNC(C)C(=O)NC(C(=O)N1Cc2cc([101O:1][101CH2:1]C(O)C(=O)CNc3cc(C(C)[100NH:0][100C:0](=O)N4CCCC(n5nc(-c6ccc(Oc7ccc(F)cc7F)cc6)c(C(N)=O)c5N)C4)cc(F)c3F)ccc2CC1C(=O)NC1CCCc2ccccc21)C(C)(C)C

> <Shape>
0.221

> <Color>
0.066

> <Negative vol penalty>
0.000

$$$$

  -OEChem-04052304293D

 88 96  0     1  0  0  0  0  0999 V2000
  -31.2744  -35.2899   21.3490 C   0  0  0  0  0  0  0  0  0  0  0  0
  -31.0975  -33.9828   20.9066 C   0  0  0  0  0  0  0  0  0  0  0  0
  -23.2167   -9.7955   21.2392 C   0  0  0  0  0  0  0  0  0  0  0  0
  -23.9626  -10.5922   23.3946 C   0  0  0  0  0  0  0  0  0  0  0  0
  -30.5950  -35.7397   22.4803 C   0  0  0  0  0  0  0  0  0  0  0  0
  -30.2417  -33.1244   21.5960 C   0  0  0  0  0  0  0  0  0  0  0  0
  -26.7038  -28.7410   19.1929 C   0  0  0  0  0  0  0  0  0  0  0  0
  -22.5352   -8.7496   21.8615 C   0  0  0  0  0  0  0  0  0  0  0  0
  -23.2811   -9.5463   24.0170 C   0  0  0  0  0  0  0  0  0  0  0  0
  -26.8705  -27.3621   19.0724 C   0  0  0  0  0  0  0  0  0  0  0  0
  -23.2854   -5.7440   23.2134 C   0  0  0  0  0  0  0  0  0  0  0  0
  -23.4132   -4.4692   22.6620 C   0  0  0  0  0  0  0  0  0  0  0  0
  -31.5013  -19.6651   22.3788 C   0  0  0  0  0  0  0  0  0  0  0  0
  -25.5891  -27.0370   21.0902 C   0  0  0  0  0  0  0  0  0  0  0  0
  -31.8104  -17.4838   21.3871 C   0  0  0  0  0  0  0  0  0  0  0  0
  -21.0251   -4.3840   22.3055 C   0  0  0  0  0  0  0  0  0  0  0  0
  -23.9304  -10.7168   22.0057 C   0  0  0  0  0  0  0  0  0  0  0  0
  -30.1190  -19.5259   22.2542 C   0  0  0  0  0  0  0  0  0  0  0  0
  -24.1352  -13.0783   21.0630 C   0  0  0  0  0  0  0  0  0  0  0  0
  -29.7230  -34.8893   23.1783 C   0  0  0  0  0  0  0  0  0  0  0  0
  -25.9866  -29.2798   20.2707 C   0  0  0  0  0  0  0  0  0  0  0  0
  -29.5510  -33.5629   22.7385 C   0  0  0  0  0  0  0  0  0  0  0  0
  -25.4126  -28.4229   21.2207 C   0  0  0  0  0  0  0  0  0  0  0  0
  -30.4281  -17.3446   21.2625 C   0  0  0  0  0  0  0  0  0  0  0  0
  -22.5674   -8.6250   23.2504 C   0  0  0  0  0  0  0  0  0  0  0  0
  -26.3156  -26.5100   20.0227 C   0  0  0  0  0  0  0  0  0  0  0  0
  -22.0274   -6.3388   23.3111 C   0  0  0  0  0  0  0  0  0  0  0  0
  -22.2831   -3.7892   22.2080 C   0  0  0  0  0  0  0  0  0  0  0  0
  -32.3470  -18.6441   21.9452 C   0  0  0  0  0  0  0  0  0  0  0  0
  -20.8973   -5.6588   22.8571 C   0  0  0  0  0  0  0  0  0  0  0  0
  -29.5824  -18.3657   21.6961 C   0  0  0  0  0  0  0  0  0  0  0  0
  -24.6351  -11.7970   21.3634 C   0  0  0  0  0  0  0  0  0  0  0  0
  -25.1870  -13.7247   20.4610 C   0  0  0  0  0  0  0  0  0  0  0  0
  -29.2266  -20.6086   22.7147 C   0  0  0  0  0  0  0  0  0  0  0  0
  -22.8363  -13.6345   21.3064 C   0  0  0  0  0  0  0  0  0  0  0  0
  -26.6890  -31.2265   22.6834 C   0  0  0  0  0  0  0  0  0  0  0  0
  -27.3684  -23.1700   20.9542 C   0  0  0  0  0  0  0  0  0  0  0  0
  -23.5004  -31.0411   23.2497 C   0  0  0  0  0  0  0  0  0  0  0  0
  -20.5909  -29.2937   22.8912 C   0  0  0  0  0  0  0  0  0  0  0  0
  -30.5873  -15.0588   20.2155 C   0  0  0  0  0  0  0  0  0  0  0  0
  -29.0469  -35.4062   24.4234 C   0  0  0  0  0  0  0  0  0  0  0  0
  -25.7931  -30.7680   20.3718 C   0  0  0  0  0  0  0  0  0  0  0  0
  -24.6165  -28.9500   22.3855 C   0  0  0  0  0  0  0  0  0  0  0  0
  -27.8703  -34.5469   24.8791 C   0  0  0  0  0  0  0  0  0  0  0  0
  -29.6186  -11.9478   18.7801 C   0  0  0  0  0  0  0  0  0  0  0  0
  -28.2501  -33.0696   24.8623 C   0  0  0  0  0  0  0  0  0  0  0  0
  -28.1946  -11.7366   19.2995 C   0  0  0  0  0  0  0  0  0  0  0  0
  -30.5133  -12.6051   19.8294 C   0  0  0  0  0  0  0  0  0  0  0  0
  -28.5624  -13.6390   20.9221 C   0  0  0  0  0  0  0  0  0  0  0  0
  -28.6122  -32.6092   23.4451 C   0  0  1  0  0  0  0  0  0  0  0  0
  -25.4807  -31.2349   21.7902 C   0  0  1  0  0  0  0  0  0  0  0  0
  -27.6068  -13.0388   19.8779 C   0  0  2  0  0  0  0  0  0  0  0  0
  -18.1562  -29.3766   23.4937 C   0  0  0  0  0  0  0  0  0  0  0  0
  -24.1825  -30.2226   26.1088 C   0  0  0  0  0  0  0  0  0  0  0  0
  -21.8267  -29.4150   26.3656 C   0  0  0  0  0  0  0  0  0  0  0  0
  -22.2739  -31.8264   25.9100 C   0  0  0  0  0  0  0  0  0  0  0  0
  -19.7694  -29.3291   20.0481 C   0  0  0  0  0  0  0  0  0  0  0  0
  -26.5057  -24.4074   21.1175 C   0  0  0  0  0  0  0  0  0  1  0  0
  -26.1419  -21.6356   22.5546 C   0  0  0  0  0  0  0  0  0  0  0  0
  -27.4725  -22.2559   22.1611 C   0  0  1  0  0  0  0  0  0  0  0  0
  -22.6100  -30.1330   24.0630 C   0  0  1  0  0  0  0  0  0  0  0  0
  -19.2045  -29.7256   22.4486 C   0  0  2  0  0  0  0  0  0  0  0  0
  -22.7399  -30.3891   25.5911 C   0  0  0  0  0  0  0  0  0  0  0  0
  -25.9055  -11.6370   20.9834 N   0  0  0  0  0  0  0  0  0  0  0  0
  -26.2128  -12.8262   20.4380 N   0  0  0  0  0  0  0  0  0  0  0  0
  -24.4606  -30.4128   22.4441 N   0  0  0  0  0  0  0  0  0  0  0  0
  -29.8944  -13.8349   20.3288 N   0  0  0  0  0  0  0  0  0  0  0  0
  -25.3252  -14.9684   19.9543 N   0  0  0  0  0  0  0  0  0  0  0  0
  -21.8735  -12.8331   21.9349 N   0  0  0  0  0  0  0  0  0  0  0  0
  -29.8862  -16.1648   20.6949 N   0  0  0  0  0  0  0  0  0  0  0  0
  -28.4114  -21.1894   21.8227 N   0  0  0  0  0  0  0  0  0  0  0  0
  -27.4145  -32.4023   22.6595 N   0  0  0  0  0  0  0  0  0  0  0  0
  -21.2596  -30.3101   23.5401 N   0  0  0  0  0  0  0  0  0  0  0  0
  -29.2762  -20.9597   23.9998 N   0  3  0  0  0  0  0  0  0  0  0  0
  -18.8359  -29.0536   21.1705 N   0  3  0  0  0  0  0  0  0  0  0  0
  -22.5333  -14.8018   20.9615 O   0  0  0  0  0  0  0  0  0  0  0  0
  -26.9433  -30.2277   23.3463 O   0  0  0  0  0  0  0  0  0  0  0  0
  -27.9556  -22.9312   19.8987 O   0  0  0  0  0  0  0  0  0  0  0  0
  -23.3447  -32.2627   23.3208 O   0  0  0  0  0  0  0  0  0  0  0  0
  -21.0348  -28.1663   22.6853 O   0  0  0  0  0  0  0  0  0  0  0  0
  -31.7081  -15.1251   19.7042 O   0  0  0  0  0  0  0  0  0  0  0  0
  -25.6247  -20.8601   21.4799 O   0  0  0  0  0  0  0  0  0  0  0  0
  -21.9023   -7.6048   23.8581 O   0  0  0  0  0  0  0  0  0  0  0  0
  -26.4773  -25.1637   19.9078 O   0  0  0  0  0  0  0  0  0  1  0  0
  -22.4061   -2.5656   21.6770 F   0  0  0  0  0  0  0  0  0  0  0  0
  -33.6742  -18.7778   22.0650 F   0  0  0  0  0  0  0  0  0  0  0  0
  -19.6863   -6.2256   22.9471 F   0  0  0  0  0  0  0  0  0  0  0  0
  -28.2527  -18.2333   21.5766 F   0  0  0  0  0  0  0  0  0  0  0  0
  1  2  1  0  0  0  0
  1  5  2  0  0  0  0
  2  6  2  0  0  0  0
  3  8  2  0  0  0  0
  3 17  1  0  0  0  0
  4  9  1  0  0  0  0
  4 17  2  0  0  0  0
  5 20  1  0  0  0  0
  6 22  1  0  0  0  0
  7 10  2  0  0  0  0
  7 21  1  0  0  0  0
  8 25  1  0  0  0  0
  9 25  2  0  0  0  0
 10 26  1  0  0  0  0
 11 12  2  0  0  0  0
 11 27  1  0  0  0  0
 12 28  1  0  0  0  0
 13 18  1  0  0  0  0
 13 29  2  0  0  0  0
 14 23  1  0  0  0  0
 14 26  2  0  0  0  0
 15 24  2  0  0  0  0
 15 29  1  0  0  0  0
 16 28  2  0  0  0  0
 16 30  1  0  0  0  0
 17 32  1  0  0  0  0
 18 31  2  0  0  0  0
 18 34  1  0  0  0  0
 19 32  1  0  0  0  0
 19 33  2  0  0  0  0
 19 35  1  0  0  0  0
 20 22  2  0  0  0  0
 20 41  1  0  0  0  0
 21 23  2  0  0  0  0
 21 42  1  0  0  0  0
 22 50  1  0  0  0  0
 23 43  1  0  0  0  0
 24 31  1  0  0  0  0
 24 70  1  0  0  0  0
 25 83  1  0  0  0  0
 26 84  1  0  0  0  0
 27 30  2  0  0  0  0
 27 83  1  0  0  0  0
 28 85  1  0  0  0  0
 29 86  1  0  0  0  0
 30 87  1  0  0  0  0
 31 88  1  0  0  0  0
 32 64  2  0  0  0  0
 33 65  1  0  0  0  0
 33 68  1  0  0  0  0
 34 71  1  0  0  0  0
 34 74  2  0  0  0  0
 35 69  1  0  0  0  0
 35 76  2  0  0  0  0
 36 51  1  0  0  0  0
 36 72  1  0  0  0  0
 36 77  2  0  0  0  0
 37 58  1  0  0  0  0
 37 60  1  0  0  0  0
 37 78  2  0  0  0  0
 38 61  1  0  0  0  0
 38 66  1  0  0  0  0
 38 79  2  0  0  0  0
 39 62  1  0  0  0  0
 39 73  1  0  0  0  0
 39 80  2  0  0  0  0
 40 67  1  0  0  0  0
 40 70  1  0  0  0  0
 40 81  2  0  0  0  0
 41 44  1  0  0  0  0
 42 51  1  0  0  0  0
 43 66  1  0  0  0  0
 44 46  1  0  0  0  0
 45 47  1  0  0  0  0
 45 48  1  0  0  0  0
 46 50  1  0  0  0  0
 47 52  1  0  0  0  0
 48 67  1  0  0  0  0
 49 52  1  0  0  0  0
 49 67  1  0  0  0  0
 50 72  1  0  0  0  0
 51 66  1  0  0  0  0
 52 65  1  0  0  0  0
 53 62  1  0  0  0  0
 54 63  1  0  0  0  0
 55 63  1  0  0  0  0
 56 63  1  0  0  0  0
 57 75  1  0  0  0  0
 58 84  1  0  0  0  0
 59 60  1  0  0  0  0
 59 82  1  0  0  0  0
 60 71  1  0  0  0  0
 61 63  1  0  0  0  0
 61 73  1  0  0  0  0
 62 75  1  0  0  0  0
 64 65  1  0  0  0  0
M  CHG  2  74   1  75   1
M  ISO  4  40 100  58 101  70 100  84 101
M  END
> <Batch ID>
0173

> <Smiles>
CNC(C)C(=O)NC(C(=O)N1Cc2cc([101O:1][101CH2:1]C(=O)C(CO)NC(=N)c3cc(F)cc([100NH:0][100C:0](=O)N4CCCC(n5nc(-c6ccc(Oc7ccc(F)cc7F)cc6)c(C(N)=O)c5N)C4)c3F)ccc2CC1C(=O)NC1CCCc2ccccc21)C(C)(C)C

> <Shape>
0.317

> <Color>
0.193

> <Negative vol penalty>
0.000

$$$$

  -OEChem-04052304293D

 84 92  0     1  0  0  0  0  0999 V2000
  -21.9049  -11.4439   20.5191 C   0  0  0  0  0  0  0  0  0  0  0  0
  -21.8389  -12.4834   21.4413 C   0  0  0  0  0  0  0  0  0  0  0  0
  -21.1801  -26.5090   20.5993 C   0  0  0  0  0  0  0  0  0  0  0  0
  -22.1111  -26.1130   22.7932 C   0  0  0  0  0  0  0  0  0  0  0  0
  -23.1075  -11.1629   19.8720 C   0  0  0  0  0  0  0  0  0  0  0  0
  -22.9758  -13.2419   21.7178 C   0  0  0  0  0  0  0  0  0  0  0  0
  -24.9537  -19.8963   23.4850 C   0  0  0  0  0  0  0  0  0  0  0  0
  -20.0366  -25.7941   20.9554 C   0  0  0  0  0  0  0  0  0  0  0  0
  -20.9676  -25.3981   23.1494 C   0  0  0  0  0  0  0  0  0  0  0  0
  -25.7144  -20.5776   24.4342 C   0  0  0  0  0  0  0  0  0  0  0  0
  -19.7023  -22.3052   22.6357 C   0  0  0  0  0  0  0  0  0  0  0  0
  -19.8775  -21.0929   23.3029 C   0  0  0  0  0  0  0  0  0  0  0  0
  -27.7176  -20.0521   23.1972 C   0  0  0  0  0  0  0  0  0  0  0  0
  -18.6246  -21.9471   25.1838 C   0  0  0  0  0  0  0  0  0  0  0  0
  -31.8963  -24.8166   22.3394 C   0  0  0  0  0  0  0  0  0  0  0  0
  -22.2174  -26.6684   21.5181 C   0  0  0  0  0  0  0  0  0  0  0  0
  -23.6214  -28.7877   21.3059 C   0  0  0  0  0  0  0  0  0  0  0  0
  -24.2574  -11.9246   20.1335 C   0  0  0  0  0  0  0  0  0  0  0  0
  -25.5714  -19.2774   22.3887 C   0  0  0  0  0  0  0  0  0  0  0  0
  -24.1953  -12.9700   21.0746 C   0  0  0  0  0  0  0  0  0  0  0  0
  -26.9623  -19.3658   22.2341 C   0  0  0  0  0  0  0  0  0  0  0  0
  -19.9303  -25.2387   22.2305 C   0  0  0  0  0  0  0  0  0  0  0  0
  -27.0969  -20.6531   24.2919 C   0  0  0  0  0  0  0  0  0  0  0  0
  -18.9883  -23.3385   23.2425 C   0  0  0  0  0  0  0  0  0  0  0  0
  -19.3386  -20.9138   24.5770 C   0  0  0  0  0  0  0  0  0  0  0  0
  -18.4494  -23.1594   24.5166 C   0  0  0  0  0  0  0  0  0  0  0  0
  -32.5746  -24.6110   23.5754 C   0  0  0  0  0  0  0  0  0  0  0  0
  -23.3992  -27.4063   21.1506 C   0  0  0  0  0  0  0  0  0  0  0  0
  -31.7412  -24.7855   24.6583 C   0  0  0  0  0  0  0  0  0  0  0  0
  -24.8850  -28.9904   20.8072 C   0  0  0  0  0  0  0  0  0  0  0  0
  -30.5700  -25.1402   22.5247 C   0  0  0  0  0  0  0  0  0  0  0  0
  -22.7624  -29.7974   21.8521 C   0  0  0  0  0  0  0  0  0  0  0  0
  -32.0527  -24.6652   26.0927 C   0  0  0  0  0  0  0  0  0  0  0  0
  -25.8034  -16.2862   21.3388 C   0  0  0  0  0  0  0  0  0  0  0  0
  -29.9409  -22.1170   26.1240 C   0  0  0  0  0  0  0  0  0  0  0  0
  -27.2485  -17.7011   18.8026 C   0  0  0  0  0  0  0  0  0  0  0  0
  -28.9742  -20.3761   17.5727 C   0  0  0  0  0  0  0  0  0  0  0  0
  -29.6514  -25.4386   20.1980 C   0  0  0  0  0  0  0  0  0  0  0  0
  -25.5465  -11.5530   19.4444 C   0  0  0  0  0  0  0  0  0  0  0  0
  -24.7340  -18.5692   21.3594 C   0  0  0  0  0  0  0  0  0  0  0  0
  -27.6717  -18.7358   21.0644 C   0  0  0  0  0  0  0  0  0  0  0  0
  -26.6118  -12.6439   19.5161 C   0  0  0  0  0  0  0  0  0  0  0  0
  -27.9772  -27.2185   17.6084 C   0  0  0  0  0  0  0  0  0  0  0  0
  -26.7207  -13.1913   20.9358 C   0  0  0  0  0  0  0  0  0  0  0  0
  -26.6359  -27.5997   18.2390 C   0  0  0  0  0  0  0  0  0  0  0  0
  -28.4452  -25.8369   18.0623 C   0  0  0  0  0  0  0  0  0  0  0  0
  -27.1474  -26.0244   20.1479 C   0  0  0  0  0  0  0  0  0  0  0  0
  -25.4008  -13.8313   21.3830 C   0  0  1  0  0  0  0  0  0  0  0  0
  -25.5203  -17.5374   20.5565 C   0  0  1  0  0  0  0  0  0  0  0  0
  -26.6666  -27.4352   19.7712 C   0  0  2  0  0  0  0  0  0  0  0  0
  -30.0927  -21.8428   15.8712 C   0  0  0  0  0  0  0  0  0  0  0  0
  -29.5932  -15.7972   19.2359 C   0  0  0  0  0  0  0  0  0  0  0  0
  -30.9819  -17.2875   17.7803 C   0  0  0  0  0  0  0  0  0  0  0  0
  -28.9681  -16.1541   16.8409 C   0  0  0  0  0  0  0  0  0  0  0  0
  -26.4509  -21.8012   16.9719 C   0  0  0  0  0  0  0  0  0  0  0  0
  -31.4486  -22.2116   26.0267 C   0  0  0  0  0  0  0  0  0  0  0  0
  -29.2530  -21.3549   25.0091 C   0  0  0  0  0  0  0  0  0  1  0  0
  -28.6683  -18.0775   18.4542 C   0  0  1  0  0  0  0  0  0  0  0  0
  -28.7856  -21.2045   16.3146 C   0  0  2  0  0  0  0  0  0  0  0  0
  -29.5400  -16.8394   18.1010 C   0  0  0  0  0  0  0  0  0  0  0  0
  -24.4383  -26.7760   20.5965 N   0  0  0  0  0  0  0  0  0  0  0  0
  -25.3256  -27.7659   20.3991 N   0  0  0  0  0  0  0  0  0  0  0  0
  -26.8099  -18.0491   20.0880 N   0  0  0  0  0  0  0  0  0  0  0  0
  -28.4530  -25.7564   19.5246 N   0  0  0  0  0  0  0  0  0  0  0  0
  -25.6511  -30.0949   20.6823 N   0  0  0  0  0  0  0  0  0  0  0  0
  -21.4971  -29.4169   22.3195 N   0  0  0  0  0  0  0  0  0  0  0  0
  -29.5448  -25.4230   21.5883 N   0  0  0  0  0  0  0  0  0  0  0  0
  -31.8883  -23.4114   26.6742 N   0  0  0  0  0  0  0  0  0  0  0  0
  -25.2500  -15.1439   20.7925 N   0  0  0  0  0  0  0  0  0  0  0  0
  -28.5779  -19.0685   17.3874 N   0  0  0  0  0  0  0  0  0  0  0  0
  -27.7903  -22.2880   16.5523 N   0  3  0  0  0  0  0  0  0  0  0  0
  -23.1004  -31.0041   21.9086 O   0  0  0  0  0  0  0  0  0  0  0  0
  -26.4754  -16.3520   22.3614 O   0  0  0  0  0  0  0  0  0  0  0  0
  -29.3040  -22.6681   27.0215 O   0  0  0  0  0  0  0  0  0  0  0  0
  -26.5518  -17.1261   17.9626 O   0  0  0  0  0  0  0  0  0  0  0  0
  -29.4313  -20.8415   18.6144 O   0  0  0  0  0  0  0  0  0  0  0  0
  -30.7018  -25.2246   19.5874 O   0  0  0  0  0  0  0  0  0  0  0  0
  -18.8145  -24.5412   22.5785 O   0  0  0  0  0  0  0  0  0  0  0  0
  -27.8418  -21.3169   25.2173 O   0  0  0  0  0  0  0  0  0  1  0  0
  -19.5057  -19.7491   25.2170 F   0  0  0  0  0  0  0  0  0  0  0  0
  -17.7615  -24.1480   25.1042 F   0  0  0  0  0  0  0  0  0  0  0  0
  -33.8660  -24.2876   23.6668 F   0  0  0  0  0  0  0  0  0  0  0  0
  -32.5777  -25.9835   26.9904 S   0  0  0  0  0  0  0  0  0  0  0  0
  -30.1479  -25.1954   24.1833 S   0  0  0  0  0  0  0  0  0  0  0  0
  1  2  1  0  0  0  0
  1  5  2  0  0  0  0
  2  6  2  0  0  0  0
  3  8  2  0  0  0  0
  3 16  1  0  0  0  0
  4  9  1  0  0  0  0
  4 16  2  0  0  0  0
  5 18  1  0  0  0  0
  6 20  1  0  0  0  0
  7 10  2  0  0  0  0
  7 19  1  0  0  0  0
  8 22  1  0  0  0  0
  9 22  2  0  0  0  0
 10 23  1  0  0  0  0
 11 12  2  0  0  0  0
 11 24  1  0  0  0  0
 12 25  1  0  0  0  0
 13 21  1  0  0  0  0
 13 23  2  0  0  0  0
 14 25  2  0  0  0  0
 14 26  1  0  0  0  0
 15 27  1  0  0  0  0
 15 31  2  0  0  0  0
 16 28  1  0  0  0  0
 17 28  1  0  0  0  0
 17 30  2  0  0  0  0
 17 32  1  0  0  0  0
 18 20  2  0  0  0  0
 18 39  1  0  0  0  0
 19 21  2  0  0  0  0
 19 40  1  0  0  0  0
 20 48  1  0  0  0  0
 21 41  1  0  0  0  0
 22 78  1  0  0  0  0
 23 79  1  0  0  0  0
 24 26  2  0  0  0  0
 24 78  1  0  0  0  0
 25 80  1  0  0  0  0
 26 81  1  0  0  0  0
 27 29  2  0  0  0  0
 27 82  1  0  0  0  0
 28 61  2  0  0  0  0
 29 33  1  0  0  0  0
 29 84  1  0  0  0  0
 30 62  1  0  0  0  0
 30 65  1  0  0  0  0
 31 67  1  0  0  0  0
 31 84  1  0  0  0  0
 32 66  1  0  0  0  0
 32 72  2  0  0  0  0
 33 68  1  0  0  0  0
 33 83  2  0  0  0  0
 34 49  1  0  0  0  0
 34 69  1  0  0  0  0
 34 73  2  0  0  0  0
 35 56  1  0  0  0  0
 35 57  1  0  0  0  0
 35 74  2  0  0  0  0
 36 58  1  0  0  0  0
 36 63  1  0  0  0  0
 36 75  2  0  0  0  0
 37 59  1  0  0  0  0
 37 70  1  0  0  0  0
 37 76  2  0  0  0  0
 38 64  1  0  0  0  0
 38 67  1  0  0  0  0
 38 77  2  0  0  0  0
 39 42  1  0  0  0  0
 40 49  1  0  0  0  0
 41 63  1  0  0  0  0
 42 44  1  0  0  0  0
 43 45  1  0  0  0  0
 43 46  1  0  0  0  0
 44 48  1  0  0  0  0
 45 50  1  0  0  0  0
 46 64  1  0  0  0  0
 47 50  1  0  0  0  0
 47 64  1  0  0  0  0
 48 69  1  0  0  0  0
 49 63  1  0  0  0  0
 50 62  1  0  0  0  0
 51 59  1  0  0  0  0
 52 60  1  0  0  0  0
 53 60  1  0  0  0  0
 54 60  1  0  0  0  0
 55 71  1  0  0  0  0
 56 68  1  0  0  0  0
 57 79  1  0  0  0  0
 58 60  1  0  0  0  0
 58 70  1  0  0  0  0
 59 71  1  0  0  0  0
 61 62  1  0  0  0  0
M  CHG  1  71   1
M  ISO  4  38 100  57 101  67 100  79 101
M  END
> <Batch ID>
0173

> <Smiles>
CNC(C)C(=O)NC(C(=O)N1Cc2cc([101O:1][101CH2:1]C(=O)CNC(=S)c3sc([100NH:0][100C:0](=O)N4CCCC(n5nc(-c6ccc(Oc7ccc(F)cc7F)cc6)c(C(N)=O)c5N)C4)cc3F)ccc2CC1C(=O)NC1CCCc2ccccc21)C(C)(C)C

> <Shape>
0.176

> <Color>
0.075

> <Negative vol penalty>
0.000

$$$$

  -OEChem-04052304293D

 87 95  0     1  0  0  0  0  0999 V2000
  -26.7689  -36.2010   21.9189 C   0  0  0  0  0  0  0  0  0  0  0  0
  -27.2150  -34.8836   21.9487 C   0  0  0  0  0  0  0  0  0  0  0  0
  -23.0665   -9.8986   21.5866 C   0  0  0  0  0  0  0  0  0  0  0  0
  -24.1879  -10.9320   23.4605 C   0  0  0  0  0  0  0  0  0  0  0  0
  -25.4761  -36.5077   22.3415 C   0  0  0  0  0  0  0  0  0  0  0  0
  -26.3689  -33.8723   22.4022 C   0  0  0  0  0  0  0  0  0  0  0  0
  -26.4717  -29.7744   19.4286 C   0  0  0  0  0  0  0  0  0  0  0  0
  -22.3638   -9.0718   22.4630 C   0  0  0  0  0  0  0  0  0  0  0  0
  -23.4851  -10.1052   24.3370 C   0  0  0  0  0  0  0  0  0  0  0  0
  -27.5609  -28.9150   19.5663 C   0  0  0  0  0  0  0  0  0  0  0  0
  -22.9493   -6.2571   24.2405 C   0  0  0  0  0  0  0  0  0  0  0  0
  -22.8550   -4.9034   23.9181 C   0  0  0  0  0  0  0  0  0  0  0  0
  -26.2184  -27.4408   20.9240 C   0  0  0  0  0  0  0  0  0  0  0  0
  -20.4464   -5.0842   23.8629 C   0  0  0  0  0  0  0  0  0  0  0  0
  -23.9786  -10.8287   22.0853 C   0  0  0  0  0  0  0  0  0  0  0  0
  -24.3165  -12.9524   20.7131 C   0  0  0  0  0  0  0  0  0  0  0  0
  -24.6104  -35.4982   22.7913 C   0  0  0  0  0  0  0  0  0  0  0  0
  -25.2488  -29.4784   20.0478 C   0  0  0  0  0  0  0  0  0  0  0  0
  -25.0638  -34.1659   22.8325 C   0  0  0  0  0  0  0  0  0  0  0  0
  -25.1145  -28.2968   20.7906 C   0  0  0  0  0  0  0  0  0  0  0  0
  -22.5731   -9.1750   23.8382 C   0  0  0  0  0  0  0  0  0  0  0  0
  -27.4352  -27.7495   20.3164 C   0  0  0  0  0  0  0  0  0  0  0  0
  -21.7921   -7.0245   24.3743 C   0  0  0  0  0  0  0  0  0  0  0  0
  -21.6036   -4.3169   23.7292 C   0  0  0  0  0  0  0  0  0  0  0  0
  -20.5407   -6.4380   24.1855 C   0  0  0  0  0  0  0  0  0  0  0  0
  -24.7052  -11.6827   21.1804 C   0  0  0  0  0  0  0  0  0  0  0  0
  -32.1315  -18.0065   18.0930 C   0  0  0  0  0  0  0  0  0  0  0  0
  -25.3413  -13.3423   19.8859 C   0  0  0  0  0  0  0  0  0  0  0  0
  -31.1680  -18.7761   18.7106 C   0  0  0  0  0  0  0  0  0  0  0  0
  -30.8394  -16.3925   18.8248 C   0  0  0  0  0  0  0  0  0  0  0  0
  -23.1348  -13.7116   21.0010 C   0  0  0  0  0  0  0  0  0  0  0  0
  -23.4569  -30.8877   22.2628 C   0  0  0  0  0  0  0  0  0  0  0  0
  -29.3128  -24.6684   20.0233 C   0  0  0  0  0  0  0  0  0  0  0  0
  -21.3669  -28.5205   21.5211 C   0  0  0  0  0  0  0  0  0  0  0  0
  -29.9848  -20.8504   19.5101 C   0  0  0  0  0  0  0  0  0  0  0  0
  -20.8639  -25.3907   20.2568 C   0  0  0  0  0  0  0  0  0  0  0  0
  -30.7718  -13.8747   18.7769 C   0  0  0  0  0  0  0  0  0  0  0  0
  -23.2379  -35.8847   23.2826 C   0  0  0  0  0  0  0  0  0  0  0  0
  -24.0757  -30.4023   19.8675 C   0  0  0  0  0  0  0  0  0  0  0  0
  -23.8173  -27.9230   21.4585 C   0  0  0  0  0  0  0  0  0  0  0  0
  -22.2768  -34.7041   23.3960 C   0  0  0  0  0  0  0  0  0  0  0  0
  -29.2692  -10.7295   18.0511 C   0  0  0  0  0  0  0  0  0  0  0  0
  -22.9545  -33.5292   24.0938 C   0  0  0  0  0  0  0  0  0  0  0  0
  -27.9159  -10.8015   18.7621 C   0  0  0  0  0  0  0  0  0  0  0  0
  -30.3687  -11.4238   18.8528 C   0  0  0  0  0  0  0  0  0  0  0  0
  -28.7165  -12.8781   19.9594 C   0  0  0  0  0  0  0  0  0  0  0  0
  -24.1672  -33.0377   23.2944 C   0  0  1  0  0  0  0  0  0  0  0  0
  -23.0280  -30.2593   20.9672 C   0  0  1  0  0  0  0  0  0  0  0  0
  -27.5644  -12.2486   19.1595 C   0  0  2  0  0  0  0  0  0  0  0  0
  -33.0517  -18.7933   15.8994 C   0  0  0  0  0  0  0  0  0  0  0  0
  -19.0513  -23.7123   19.8154 C   0  0  0  0  0  0  0  0  0  0  0  0
  -21.2777  -27.8386   24.4938 C   0  0  0  0  0  0  0  0  0  0  0  0
  -20.2510  -25.6373   23.8869 C   0  0  0  0  0  0  0  0  0  0  0  0
  -19.0610  -27.7600   23.3385 C   0  0  0  0  0  0  0  0  0  0  0  0
  -21.3930  -25.4123   17.3450 C   0  0  0  0  0  0  0  0  0  0  0  0
  -29.1103  -23.1639   20.1282 C   0  0  0  0  0  0  0  0  0  0  0  0
  -28.2097  -25.5213   20.6189 C   0  0  0  0  0  0  0  0  0  1  0  0
  -30.2009  -22.3574   19.4298 C   0  0  0  0  0  0  0  0  0  0  0  0
  -33.3234  -18.5121   17.3813 C   0  0  1  0  0  0  0  0  0  0  0  0
  -21.1201  -27.1171   22.0198 C   0  0  1  0  0  0  0  0  0  0  0  0
  -19.8652  -24.8624   19.2430 C   0  0  2  0  0  0  0  0  0  0  0  0
  -20.4526  -27.0960   23.4239 C   0  0  0  0  0  0  0  0  0  0  0  0
  -25.8848  -11.2918   20.6907 N   0  0  0  0  0  0  0  0  0  0  0  0
  -31.9449  -16.6394   18.1578 N   0  0  0  0  0  0  0  0  0  0  0  0
  -26.2461  -12.3220   19.9069 N   0  0  0  0  0  0  0  0  0  0  0  0
  -22.7011  -28.8619   21.2581 N   0  0  0  0  0  0  0  0  0  0  0  0
  -29.9675  -12.7915   19.1897 N   0  0  0  0  0  0  0  0  0  0  0  0
  -25.5477  -14.4549   19.1497 N   0  0  0  0  0  0  0  0  0  0  0  0
  -22.1837  -13.1628   21.8719 N   0  0  0  0  0  0  0  0  0  0  0  0
  -31.0113  -20.1751   18.8557 N   0  0  0  0  0  0  0  0  0  0  0  0
  -30.2729  -15.1292   19.1262 N   0  0  0  0  0  0  0  0  0  0  0  0
  -23.7390  -32.2371   22.1674 N   0  0  0  0  0  0  0  0  0  0  0  0
  -20.3478  -26.4446   20.9808 N   0  0  0  0  0  0  0  0  0  0  0  0
  -20.5720  -24.3770   18.0241 N   0  3  0  0  0  0  0  0  0  0  0  0
  -22.9207  -14.8361   20.4879 O   0  0  0  0  0  0  0  0  0  0  0  0
  -23.5254  -30.1997   23.2746 O   0  0  0  0  0  0  0  0  0  0  0  0
  -30.3045  -25.1692   19.4955 O   0  0  0  0  0  0  0  0  0  0  0  0
  -20.4104  -29.2833   21.3637 O   0  0  0  0  0  0  0  0  0  0  0  0
  -29.0217  -20.3591   20.0890 O   0  0  0  0  0  0  0  0  0  0  0  0
  -21.9881  -24.9136   20.3954 O   0  0  0  0  0  0  0  0  0  0  0  0
  -31.8115  -13.7035   18.1353 O   0  0  0  0  0  0  0  0  0  0  0  0
  -21.8874   -8.3686   24.6938 O   0  0  0  0  0  0  0  0  0  0  0  0
  -28.4970  -26.9092   20.4529 O   0  0  0  0  0  0  0  0  0  1  0  0
  -21.5133   -3.0173   23.4180 F   0  0  0  0  0  0  0  0  0  0  0  0
  -19.4255   -7.1704   24.3115 F   0  0  0  0  0  0  0  0  0  0  0  0
  -33.8308  -19.6797   17.9092 F   0  0  0  0  0  0  0  0  0  0  0  0
  -29.9742  -17.7575   19.4023 S   0  0  0  0  0  0  0  0  0  0  0  0
  1  2  1  0  0  0  0
  1  5  2  0  0  0  0
  2  6  2  0  0  0  0
  3  8  2  0  0  0  0
  3 15  1  0  0  0  0
  4  9  1  0  0  0  0
  4 15  2  0  0  0  0
  5 17  1  0  0  0  0
  6 19  1  0  0  0  0
  7 10  2  0  0  0  0
  7 18  1  0  0  0  0
  8 21  1  0  0  0  0
  9 21  2  0  0  0  0
 10 22  1  0  0  0  0
 11 12  2  0  0  0  0
 11 23  1  0  0  0  0
 12 24  1  0  0  0  0
 13 20  1  0  0  0  0
 13 22  2  0  0  0  0
 14 24  2  0  0  0  0
 14 25  1  0  0  0  0
 15 26  1  0  0  0  0
 16 26  1  0  0  0  0
 16 28  2  0  0  0  0
 16 31  1  0  0  0  0
 17 19  2  0  0  0  0
 17 38  1  0  0  0  0
 18 20  2  0  0  0  0
 18 39  1  0  0  0  0
 19 47  1  0  0  0  0
 20 40  1  0  0  0  0
 21 82  1  0  0  0  0
 22 83  1  0  0  0  0
 23 25  2  0  0  0  0
 23 82  1  0  0  0  0
 24 84  1  0  0  0  0
 25 85  1  0  0  0  0
 26 63  2  0  0  0  0
 27 29  2  0  0  0  0
 27 59  1  0  0  0  0
 27 64  1  0  0  0  0
 28 65  1  0  0  0  0
 28 68  1  0  0  0  0
 29 70  1  0  0  0  0
 29 87  1  0  0  0  0
 30 64  2  0  0  0  0
 30 71  1  0  0  0  0
 30 87  1  0  0  0  0
 31 69  1  0  0  0  0
 31 75  2  0  0  0  0
 32 48  1  0  0  0  0
 32 72  1  0  0  0  0
 32 76  2  0  0  0  0
 33 56  1  0  0  0  0
 33 57  1  0  0  0  0
 33 77  2  0  0  0  0
 34 60  1  0  0  0  0
 34 66  1  0  0  0  0
 34 78  2  0  0  0  0
 35 58  1  0  0  0  0
 35 70  1  0  0  0  0
 35 79  2  0  0  0  0
 36 61  1  0  0  0  0
 36 73  1  0  0  0  0
 36 80  2  0  0  0  0
 37 67  1  0  0  0  0
 37 71  1  0  0  0  0
 37 81  2  0  0  0  0
 38 41  1  0  0  0  0
 39 48  1  0  0  0  0
 40 66  1  0  0  0  0
 41 43  1  0  0  0  0
 42 44  1  0  0  0  0
 42 45  1  0  0  0  0
 43 47  1  0  0  0  0
 44 49  1  0  0  0  0
 45 67  1  0  0  0  0
 46 49  1  0  0  0  0
 46 67  1  0  0  0  0
 47 72  1  0  0  0  0
 48 66  1  0  0  0  0
 49 65  1  0  0  0  0
 50 59  1  0  0  0  0
 51 61  1  0  0  0  0
 52 62  1  0  0  0  0
 53 62  1  0  0  0  0
 54 62  1  0  0  0  0
 55 74  1  0  0  0  0
 56 58  1  0  0  0  0
 57 83  1  0  0  0  0
 59 86  1  0  0  0  0
 60 62  1  0  0  0  0
 60 73  1  0  0  0  0
 61 74  1  0  0  0  0
 63 65  1  0  0  0  0
M  CHG  1  74   1
M  ISO  4  37 100  57 101  71 100  83 101
M  END
> <Batch ID>
0173

> <Smiles>
CNC(C)C(=O)NC(C(=O)N1Cc2cc([101O:1][101CH2:1]C(=O)CCC(=O)Nc3sc([100NH:0][100C:0](=O)N4CCCC(n5nc(-c6ccc(Oc7ccc(F)cc7F)cc6)c(C(N)=O)c5N)C4)nc3C(C)F)ccc2CC1C(=O)NC1CCCc2ccccc21)C(C)(C)C

> <Shape>
0.333

> <Color>
0.163

> <Negative vol penalty>
0.000

$$$$

  -OEChem-04052304293D

 86 94  0     1  0  0  0  0  0999 V2000
  -20.4387  -21.2595   16.4140 C   0  0  0  0  0  0  0  0  0  0  0  0
  -21.6729  -20.7483   16.0256 C   0  0  0  0  0  0  0  0  0  0  0  0
  -24.5771  -30.8222   19.9645 C   0  0  0  0  0  0  0  0  0  0  0  0
  -24.2749  -29.7448   22.1057 C   0  0  0  0  0  0  0  0  0  0  0  0
  -20.0146  -21.1256   17.7355 C   0  0  0  0  0  0  0  0  0  0  0  0
  -22.4843  -20.1038   16.9588 C   0  0  0  0  0  0  0  0  0  0  0  0
  -27.2686  -14.7973   17.4764 C   0  0  0  0  0  0  0  0  0  0  0  0
  -23.7004  -31.8359   20.3508 C   0  0  0  0  0  0  0  0  0  0  0  0
  -23.3982  -30.7585   22.4921 C   0  0  0  0  0  0  0  0  0  0  0  0
  -28.5574  -14.5513   17.9477 C   0  0  0  0  0  0  0  0  0  0  0  0
  -20.8020  -32.8713   23.9083 C   0  0  0  0  0  0  0  0  0  0  0  0
  -19.6158  -32.4969   24.5395 C   0  0  0  0  0  0  0  0  0  0  0  0
  -27.6867  -14.3087   20.1842 C   0  0  0  0  0  0  0  0  0  0  0  0
  -18.9797  -31.2225   22.5880 C   0  0  0  0  0  0  0  0  0  0  0  0
  -29.9021  -21.6773   21.4911 C   0  0  0  0  0  0  0  0  0  0  0  0
  -24.8644  -29.7766   20.8419 C   0  0  0  0  0  0  0  0  0  0  0  0
  -27.1652  -28.6966   20.6241 C   0  0  0  0  0  0  0  0  0  0  0  0
  -20.8170  -20.4706   18.6830 C   0  0  0  0  0  0  0  0  0  0  0  0
  -26.1787  -14.8117   18.3586 C   0  0  0  0  0  0  0  0  0  0  0  0
  -22.0711  -19.9622   18.2944 C   0  0  0  0  0  0  0  0  0  0  0  0
  -26.3847  -14.5526   19.7212 C   0  0  0  0  0  0  0  0  0  0  0  0
  -23.1109  -31.8041   21.6146 C   0  0  0  0  0  0  0  0  0  0  0  0
  -28.7670  -14.3098   19.3023 C   0  0  0  0  0  0  0  0  0  0  0  0
  -21.0771  -32.4213   22.6169 C   0  0  0  0  0  0  0  0  0  0  0  0
  -18.7047  -31.6725   23.8793 C   0  0  0  0  0  0  0  0  0  0  0  0
  -20.1659  -31.5969   21.9568 C   0  0  0  0  0  0  0  0  0  0  0  0
  -25.7695  -28.7288   20.4431 C   0  0  0  0  0  0  0  0  0  0  0  0
  -30.9305  -19.6475   21.2638 C   0  0  0  0  0  0  0  0  0  0  0  0
  -28.9467  -21.2959   20.5751 C   0  0  0  0  0  0  0  0  0  0  0  0
  -29.9747  -19.2656   20.3483 C   0  0  0  0  0  0  0  0  0  0  0  0
  -27.5548  -27.4985   20.0772 C   0  0  0  0  0  0  0  0  0  0  0  0
  -28.0320  -29.6633   21.2324 C   0  0  0  0  0  0  0  0  0  0  0  0
  -32.0471  -18.7746   21.6784 C   0  0  0  0  0  0  0  0  0  0  0  0
  -24.0489  -16.9934   19.2574 C   0  0  0  0  0  0  0  0  0  0  0  0
  -31.7781  -14.8153   21.2617 C   0  0  0  0  0  0  0  0  0  0  0  0
  -22.7265  -14.4867   20.8353 C   0  0  0  0  0  0  0  0  0  0  0  0
  -23.1451  -11.4151   22.2626 C   0  0  0  0  0  0  0  0  0  0  0  0
  -26.8659  -22.0208   19.3540 C   0  0  0  0  0  0  0  0  0  0  0  0
  -20.3368  -20.3919   20.1106 C   0  0  0  0  0  0  0  0  0  0  0  0
  -24.7912  -15.0522   17.8302 C   0  0  0  0  0  0  0  0  0  0  0  0
  -25.2456  -14.5369   20.7065 C   0  0  0  0  0  0  0  0  0  0  0  0
  -21.0917  -19.3655   20.9514 C   0  0  0  0  0  0  0  0  0  0  0  0
  -24.9900  -24.1844   17.2381 C   0  0  0  0  0  0  0  0  0  0  0  0
  -22.5957  -19.5006   20.7352 C   0  0  0  0  0  0  0  0  0  0  0  0
  -25.1404  -25.5570   17.8982 C   0  0  0  0  0  0  0  0  0  0  0  0
  -24.8872  -23.0656   18.2731 C   0  0  0  0  0  0  0  0  0  0  0  0
  -26.1161  -24.4129   19.9295 C   0  0  0  0  0  0  0  0  0  0  0  0
  -22.9687  -19.2348   19.2718 C   0  0  1  0  0  0  0  0  0  0  0  0
  -23.8233  -15.5519   18.8984 C   0  0  1  0  0  0  0  0  0  0  0  0
  -26.2887  -25.5651   18.9263 C   0  0  2  0  0  0  0  0  0  0  0  0
  -21.8901   -9.6337   23.5071 C   0  0  0  0  0  0  0  0  0  0  0  0
  -22.8229  -16.1896   23.3653 C   0  0  0  0  0  0  0  0  0  0  0  0
  -22.4714  -14.1013   24.7007 C   0  0  0  0  0  0  0  0  0  0  0  0
  -20.7264  -14.8552   23.0853 C   0  0  0  0  0  0  0  0  0  0  0  0
  -23.6586   -9.4116   20.1457 C   0  0  0  0  0  0  0  0  0  0  0  0
  -32.2074  -15.2438   22.6568 C   0  0  0  0  0  0  0  0  0  0  0  0
  -30.3101  -14.4695   21.1048 C   0  0  0  0  0  0  0  0  0  1  0  0
  -32.7764  -16.6518   22.7071 C   0  0  0  0  0  0  0  0  0  0  0  0
  -22.8891  -13.8821   22.2090 C   0  0  1  0  0  0  0  0  0  0  0  0
  -22.3436  -10.1314   22.1435 C   0  0  2  0  0  0  0  0  0  0  0  0
  -22.2494  -14.7592   23.3221 C   0  0  0  0  0  0  0  0  0  0  0  0
  -30.9113  -20.8600   21.8518 N   0  0  0  0  0  0  0  0  0  0  0  0
  -25.3039  -27.6379   19.8291 N   0  0  0  0  0  0  0  0  0  0  0  0
  -28.9658  -20.0831   19.9873 N   0  0  0  0  0  0  0  0  0  0  0  0
  -26.4133  -26.9090   19.6193 N   0  0  0  0  0  0  0  0  0  0  0  0
  -23.9084  -14.7837   20.1421 N   0  0  0  0  0  0  0  0  0  0  0  0
  -26.0103  -23.1336   19.2105 N   0  0  0  0  0  0  0  0  0  0  0  0
  -30.0520  -17.9794   19.7682 N   0  0  0  0  0  0  0  0  0  0  0  0
  -28.7591  -26.9023   19.9479 N   0  0  0  0  0  0  0  0  0  0  0  0
  -27.4667  -30.8395   21.7436 N   0  0  0  0  0  0  0  0  0  0  0  0
  -33.2914  -19.1998   21.4595 N   0  0  0  0  0  0  0  0  0  0  0  0
  -27.9175  -22.2137   20.2493 N   0  0  0  0  0  0  0  0  0  0  0  0
  -22.9669  -17.8133   18.9999 N   0  0  0  0  0  0  0  0  0  0  0  0
  -22.3459  -12.5306   22.1271 N   0  0  0  0  0  0  0  0  0  0  0  0
  -31.7576  -17.5997   22.2508 N   0  3  0  0  0  0  0  0  0  0  0  0
  -23.1650   -9.0653   21.5035 N   0  3  0  0  0  0  0  0  0  0  0  0
  -29.2731  -29.4966   21.3052 O   0  0  0  0  0  0  0  0  0  0  0  0
  -25.1245  -17.3361   19.7342 O   0  0  0  0  0  0  0  0  0  0  0  0
  -32.5644  -14.7431   20.3187 O   0  0  0  0  0  0  0  0  0  0  0  0
  -21.5924  -14.6814   20.3907 O   0  0  0  0  0  0  0  0  0  0  0  0
  -24.3581  -11.4272   22.4600 O   0  0  0  0  0  0  0  0  0  0  0  0
  -26.6952  -20.9835   18.7083 O   0  0  0  0  0  0  0  0  0  0  0  0
  -22.2555  -32.7933   21.9920 O   0  0  0  0  0  0  0  0  0  0  0  0
  -30.0241  -14.0701   19.7651 O   0  0  0  0  0  0  0  0  0  1  0  0
  -17.5663  -31.3118   24.4861 F   0  0  0  0  0  0  0  0  0  0  0  0
  -20.4252  -31.1605   20.7166 F   0  0  0  0  0  0  0  0  0  0  0  0
  1  2  1  0  0  0  0
  1  5  2  0  0  0  0
  2  6  2  0  0  0  0
  3  8  2  0  0  0  0
  3 16  1  0  0  0  0
  4  9  1  0  0  0  0
  4 16  2  0  0  0  0
  5 18  1  0  0  0  0
  6 20  1  0  0  0  0
  7 10  2  0  0  0  0
  7 19  1  0  0  0  0
  8 22  1  0  0  0  0
  9 22  2  0  0  0  0
 10 23  1  0  0  0  0
 11 12  2  0  0  0  0
 11 24  1  0  0  0  0
 12 25  1  0  0  0  0
 13 21  1  0  0  0  0
 13 23  2  0  0  0  0
 14 25  2  0  0  0  0
 14 26  1  0  0  0  0
 15 29  1  0  0  0  0
 15 62  2  0  0  0  0
 16 27  1  0  0  0  0
 17 27  1  0  0  0  0
 17 31  2  0  0  0  0
 17 32  1  0  0  0  0
 18 20  2  0  0  0  0
 18 39  1  0  0  0  0
 19 21  2  0  0  0  0
 19 40  1  0  0  0  0
 20 48  1  0  0  0  0
 21 41  1  0  0  0  0
 22 83  1  0  0  0  0
 23 84  1  0  0  0  0
 24 26  2  0  0  0  0
 24 83  1  0  0  0  0
 25 85  1  0  0  0  0
 26 86  1  0  0  0  0
 27 63  2  0  0  0  0
 28 30  2  0  0  0  0
 28 33  1  0  0  0  0
 28 62  1  0  0  0  0
 29 64  2  0  0  0  0
 29 72  1  0  0  0  0
 30 64  1  0  0  0  0
 30 68  1  0  0  0  0
 31 65  1  0  0  0  0
 31 69  1  0  0  0  0
 32 70  1  0  0  0  0
 32 77  2  0  0  0  0
 33 71  1  0  0  0  0
 33 75  2  0  0  0  0
 34 49  1  0  0  0  0
 34 73  1  0  0  0  0
 34 78  2  0  0  0  0
 35 56  1  0  0  0  0
 35 57  1  0  0  0  0
 35 79  2  0  0  0  0
 36 59  1  0  0  0  0
 36 66  1  0  0  0  0
 36 80  2  0  0  0  0
 37 60  1  0  0  0  0
 37 74  1  0  0  0  0
 37 81  2  0  0  0  0
 38 67  1  0  0  0  0
 38 72  1  0  0  0  0
 38 82  2  0  0  0  0
 39 42  1  0  0  0  0
 40 49  1  0  0  0  0
 41 66  1  0  0  0  0
 42 44  1  0  0  0  0
 43 45  1  0  0  0  0
 43 46  1  0  0  0  0
 44 48  1  0  0  0  0
 45 50  1  0  0  0  0
 46 67  1  0  0  0  0
 47 50  1  0  0  0  0
 47 67  1  0  0  0  0
 48 73  1  0  0  0  0
 49 66  1  0  0  0  0
 50 65  1  0  0  0  0
 51 60  1  0  0  0  0
 52 61  1  0  0  0  0
 53 61  1  0  0  0  0
 54 61  1  0  0  0  0
 55 76  1  0  0  0  0
 56 58  1  0  0  0  0
 57 84  1  0  0  0  0
 58 75  1  0  0  0  0
 59 61  1  0  0  0  0
 59 74  1  0  0  0  0
 60 76  1  0  0  0  0
 63 65  1  0  0  0  0
M  CHG  2  75   1  76   1
M  ISO  4  38 100  57 101  72 100  84 101
M  END
> <Batch ID>
0173

> <Smiles>
CNC(C)C(=O)NC(C(=O)N1Cc2cc([101O:1][101CH2:1]C(=O)CCN=C(N)c3ncc([100NH:0][100C:0](=O)N4CCCC(n5nc(-c6ccc(Oc7ccc(F)cc7F)cc6)c(C(N)=O)c5N)C4)nc3N)ccc2CC1C(=O)NC1CCCc2ccccc21)C(C)(C)C

> <Shape>
0.222

> <Color>
0.096

> <Negative vol penalty>
0.000

$$$$

  -OEChem-04052304293D

 84 92  0     1  0  0  0  0  0999 V2000
  -33.4197  -17.2981   16.2157 C   0  0  0  0  0  0  0  0  0  0  0  0
  -32.5284  -17.6843   17.2116 C   0  0  0  0  0  0  0  0  0  0  0  0
  -23.0763   -9.8632   19.9430 C   0  0  0  0  0  0  0  0  0  0  0  0
  -23.8356   -9.8752   22.2366 C   0  0  0  0  0  0  0  0  0  0  0  0
  -34.5150  -18.1051   15.9108 C   0  0  0  0  0  0  0  0  0  0  0  0
  -32.7325  -18.8774   17.9040 C   0  0  0  0  0  0  0  0  0  0  0  0
  -28.4304  -22.6843   20.0264 C   0  0  0  0  0  0  0  0  0  0  0  0
  -22.3337   -8.7097   20.1948 C   0  0  0  0  0  0  0  0  0  0  0  0
  -23.0928   -8.7217   22.4885 C   0  0  0  0  0  0  0  0  0  0  0  0
  -27.8656  -22.8505   21.2902 C   0  0  0  0  0  0  0  0  0  0  0  0
  -19.8654   -7.9214   23.0915 C   0  0  0  0  0  0  0  0  0  0  0  0
  -19.1081   -7.8828   24.2622 C   0  0  0  0  0  0  0  0  0  0  0  0
  -29.4161  -24.6427   21.7408 C   0  0  0  0  0  0  0  0  0  0  0  0
  -20.3515   -5.9481   25.0026 C   0  0  0  0  0  0  0  0  0  0  0  0
  -23.8273  -10.4460   20.9639 C   0  0  0  0  0  0  0  0  0  0  0  0
  -24.1664  -12.9713   20.8393 C   0  0  0  0  0  0  0  0  0  0  0  0
  -34.7272  -19.3135   16.5931 C   0  0  0  0  0  0  0  0  0  0  0  0
  -29.5012  -23.4903   19.6138 C   0  0  0  0  0  0  0  0  0  0  0  0
  -33.8324  -19.7007   17.6088 C   0  0  0  0  0  0  0  0  0  0  0  0
  -29.9910  -24.4865   20.4703 C   0  0  0  0  0  0  0  0  0  0  0  0
  -22.3419   -8.1389   21.4676 C   0  0  0  0  0  0  0  0  0  0  0  0
  -28.3604  -23.8278   22.1488 C   0  0  0  0  0  0  0  0  0  0  0  0
  -20.8657   -6.9733   22.8762 C   0  0  0  0  0  0  0  0  0  0  0  0
  -19.3512   -6.8961   25.2178 C   0  0  0  0  0  0  0  0  0  0  0  0
  -21.1087   -5.9867   23.8318 C   0  0  0  0  0  0  0  0  0  0  0  0
  -24.5952  -11.6372   20.7042 C   0  0  0  0  0  0  0  0  0  0  0  0
  -31.8019  -18.7351   22.2391 C   0  0  0  0  0  0  0  0  0  0  0  0
  -25.2578  -13.7213   20.4750 C   0  0  0  0  0  0  0  0  0  0  0  0
  -30.6998  -19.1024   22.9824 C   0  0  0  0  0  0  0  0  0  0  0  0
  -30.5656  -16.9563   21.8967 C   0  0  0  0  0  0  0  0  0  0  0  0
  -22.8952  -13.4864   21.2569 C   0  0  0  0  0  0  0  0  0  0  0  0
  -32.5187  -22.9527   18.7714 C   0  0  0  0  0  0  0  0  0  0  0  0
  -32.4761  -26.1182   18.0640 C   0  0  0  0  0  0  0  0  0  0  0  0
  -29.2444  -20.5216   24.4690 C   0  0  0  0  0  0  0  0  0  0  0  0
  -31.0794  -29.1867   18.5936 C   0  0  0  0  0  0  0  0  0  0  0  0
  -30.7228  -14.7731   20.6495 C   0  0  0  0  0  0  0  0  0  0  0  0
  -35.9515  -20.1293   16.2610 C   0  0  0  0  0  0  0  0  0  0  0  0
  -30.0818  -23.3163   18.2372 C   0  0  0  0  0  0  0  0  0  0  0  0
  -31.1257  -25.3913   20.0673 C   0  0  0  0  0  0  0  0  0  0  0  0
  -35.8887  -21.5622   16.7836 C   0  0  0  0  0  0  0  0  0  0  0  0
  -29.6117  -12.3539   18.2851 C   0  0  0  0  0  0  0  0  0  0  0  0
  -35.4192  -21.5811   18.2348 C   0  0  0  0  0  0  0  0  0  0  0  0
  -28.1723  -12.0616   18.7148 C   0  0  0  0  0  0  0  0  0  0  0  0
  -30.5263  -12.5859   19.4866 C   0  0  0  0  0  0  0  0  0  0  0  0
  -28.6181  -13.3107   20.8661 C   0  0  0  0  0  0  0  0  0  0  0  0
  -34.0061  -20.9999   18.3651 C   0  0  1  0  0  0  0  0  0  0  0  0
  -31.5060  -23.8498   18.1175 C   0  0  1  0  0  0  0  0  0  0  0  0
  -27.6458  -13.1343   19.6883 C   0  0  2  0  0  0  0  0  0  0  0  0
  -33.0323  -19.5323   22.0568 C   0  0  0  0  0  0  0  0  0  0  0  0
  -31.2822  -31.5897   17.8994 C   0  0  0  0  0  0  0  0  0  0  0  0
  -25.7664  -23.0698   24.2348 C   0  0  0  0  0  0  0  0  0  0  0  0
  -34.9414  -26.4196   19.8364 C   0  0  0  0  0  0  0  0  0  0  0  0
  -34.5274  -28.8885   19.8729 C   0  0  0  0  0  0  0  0  0  0  0  0
  -35.0153  -27.7393   17.7133 C   0  0  0  0  0  0  0  0  0  0  0  0
  -28.3347  -29.2193   17.4870 C   0  0  0  0  0  0  0  0  0  0  0  0
  -29.3362  -21.8821   25.1492 C   0  0  0  0  0  0  0  0  0  0  0  0
  -27.9828  -22.5750   25.3289 C   0  0  0  0  0  0  0  0  0  0  0  0
  -32.7720  -27.3878   18.8252 C   0  0  1  0  0  0  0  0  0  0  0  0
  -30.6026  -30.2565   17.6280 C   0  0  2  0  0  0  0  0  0  0  0  0
  -27.2538  -22.8345   24.0047 C   0  0  2  0  0  0  0  0  0  1  0  0
  -34.2939  -27.5906   19.0706 C   0  0  0  0  0  0  0  0  0  0  0  0
  -25.8603  -11.5420   20.2864 N   0  0  0  0  0  0  0  0  0  0  0  0
  -31.7270  -17.5046   21.6162 N   0  0  0  0  0  0  0  0  0  0  0  0
  -26.2358  -12.8258   20.1559 N   0  0  0  0  0  0  0  0  0  0  0  0
  -31.6640  -25.1779   18.7138 N   0  0  0  0  0  0  0  0  0  0  0  0
  -29.9659  -13.6176   20.3620 N   0  0  0  0  0  0  0  0  0  0  0  0
  -25.4668  -15.0528   20.3996 N   0  0  0  0  0  0  0  0  0  0  0  0
  -21.8842  -12.5767   21.5956 N   0  0  0  0  0  0  0  0  0  0  0  0
  -30.4044  -20.2565   23.7464 N   0  0  0  0  0  0  0  0  0  0  0  0
  -30.0742  -15.6989   21.4661 N   0  0  0  0  0  0  0  0  0  0  0  0
  -33.0196  -21.9696   17.9395 N   0  0  0  0  0  0  0  0  0  0  0  0
  -32.1379  -28.4688   18.0783 N   0  0  0  0  0  0  0  0  0  0  0  0
  -29.1295  -30.4463   17.7513 N   0  3  0  0  0  0  0  0  0  0  0  0
  -22.6576  -14.7169   21.3119 O   0  0  0  0  0  0  0  0  0  0  0  0
  -32.8241  -23.1396   19.9433 O   0  0  0  0  0  0  0  0  0  0  0  0
  -32.9423  -25.9694   16.9317 O   0  0  0  0  0  0  0  0  0  0  0  0
  -28.2657  -19.7935   24.5975 O   0  0  0  0  0  0  0  0  0  0  0  0
  -30.5668  -29.0083   19.6963 O   0  0  0  0  0  0  0  0  0  0  0  0
  -31.8519  -14.9423   20.1819 O   0  0  0  0  0  0  0  0  0  0  0  0
  -21.6171   -7.0135   21.7137 O   0  0  0  0  0  0  0  0  0  0  0  0
  -27.8114  -23.9917   23.3831 O   0  0  0  0  0  0  0  0  0  1  0  0
  -18.6250   -6.8601   26.3427 F   0  0  0  0  0  0  0  0  0  0  0  0
  -22.0691   -5.0739   23.6311 F   0  0  0  0  0  0  0  0  0  0  0  0
  -29.5145  -17.8653   22.9036 S   0  0  0  0  0  0  0  0  0  0  0  0
  1  2  1  0  0  0  0
  1  5  2  0  0  0  0
  2  6  2  0  0  0  0
  3  8  2  0  0  0  0
  3 15  1  0  0  0  0
  4  9  1  0  0  0  0
  4 15  2  0  0  0  0
  5 17  1  0  0  0  0
  6 19  1  0  0  0  0
  7 10  2  0  0  0  0
  7 18  1  0  0  0  0
  8 21  1  0  0  0  0
  9 21  2  0  0  0  0
 10 22  1  0  0  0  0
 11 12  2  0  0  0  0
 11 23  1  0  0  0  0
 12 24  1  0  0  0  0
 13 20  1  0  0  0  0
 13 22  2  0  0  0  0
 14 24  2  0  0  0  0
 14 25  1  0  0  0  0
 15 26  1  0  0  0  0
 16 26  1  0  0  0  0
 16 28  2  0  0  0  0
 16 31  1  0  0  0  0
 17 19  2  0  0  0  0
 17 37  1  0  0  0  0
 18 20  2  0  0  0  0
 18 38  1  0  0  0  0
 19 46  1  0  0  0  0
 20 39  1  0  0  0  0
 21 80  1  0  0  0  0
 22 81  1  0  0  0  0
 23 25  2  0  0  0  0
 23 80  1  0  0  0  0
 24 82  1  0  0  0  0
 25 83  1  0  0  0  0
 26 62  2  0  0  0  0
 27 29  2  0  0  0  0
 27 49  1  0  0  0  0
 27 63  1  0  0  0  0
 28 64  1  0  0  0  0
 28 67  1  0  0  0  0
 29 69  1  0  0  0  0
 29 84  1  0  0  0  0
 30 63  2  0  0  0  0
 30 70  1  0  0  0  0
 30 84  1  0  0  0  0
 31 68  1  0  0  0  0
 31 74  2  0  0  0  0
 32 47  1  0  0  0  0
 32 71  1  0  0  0  0
 32 75  2  0  0  0  0
 33 58  1  0  0  0  0
 33 65  1  0  0  0  0
 33 76  2  0  0  0  0
 34 56  1  0  0  0  0
 34 69  1  0  0  0  0
 34 77  2  0  0  0  0
 35 59  1  0  0  0  0
 35 72  1  0  0  0  0
 35 78  2  0  0  0  0
 36 66  1  0  0  0  0
 36 70  1  0  0  0  0
 36 79  2  0  0  0  0
 37 40  1  0  0  0  0
 38 47  1  0  0  0  0
 39 65  1  0  0  0  0
 40 42  1  0  0  0  0
 41 43  1  0  0  0  0
 41 44  1  0  0  0  0
 42 46  1  0  0  0  0
 43 48  1  0  0  0  0
 44 66  1  0  0  0  0
 45 48  1  0  0  0  0
 45 66  1  0  0  0  0
 46 71  1  0  0  0  0
 47 65  1  0  0  0  0
 48 64  1  0  0  0  0
 50 59  1  0  0  0  0
 51 60  1  0  0  0  0
 52 61  1  0  0  0  0
 53 61  1  0  0  0  0
 54 61  1  0  0  0  0
 55 73  1  0  0  0  0
 56 57  1  0  0  0  0
 57 60  1  0  0  0  0
 58 61  1  0  0  0  0
 58 72  1  0  0  0  0
 59 73  1  0  0  0  0
 60 81  1  0  0  0  0
 62 64  1  0  0  0  0
M  CHG  1  73   1
M  ISO  4  36 100  60 101  70 100  81 101
M  END
> <Batch ID>
0173

> <Smiles>
CNC(C)C(=O)NC(C(=O)N1Cc2cc([101O:1][101CH:1](C)CCC(=O)Nc3sc([100NH:0][100C:0](=O)N4CCCC(n5nc(-c6ccc(Oc7ccc(F)cc7F)cc6)c(C(N)=O)c5N)C4)nc3C)ccc2CC1C(=O)NC1CCCc2ccccc21)C(C)(C)C

> <Shape>
0.225

> <Color>
0.188

> <Negative vol penalty>
0.000

$$$$

  -OEChem-04052304293D

 89 97  0     1  0  0  0  0  0999 V2000
  -27.5548  -35.6597   25.6299 C   0  0  0  0  0  0  0  0  0  0  0  0
  -28.0581  -34.5304   24.9921 C   0  0  0  0  0  0  0  0  0  0  0  0
  -21.2977   -6.1311   21.7090 C   0  0  0  0  0  0  0  0  0  0  0  0
  -21.6850   -6.5512   19.3616 C   0  0  0  0  0  0  0  0  0  0  0  0
  -26.2303  -35.6812   26.0649 C   0  0  0  0  0  0  0  0  0  0  0  0
  -27.2373  -33.4214   24.7898 C   0  0  0  0  0  0  0  0  0  0  0  0
  -27.3319  -29.5944   20.0095 C   0  0  0  0  0  0  0  0  0  0  0  0
  -20.5661   -4.9889   21.3839 C   0  0  0  0  0  0  0  0  0  0  0  0
  -20.9535   -5.4089   19.0364 C   0  0  0  0  0  0  0  0  0  0  0  0
  -27.9076  -28.3381   19.8249 C   0  0  0  0  0  0  0  0  0  0  0  0
  -21.2064   -1.8005   20.4578 C   0  0  0  0  0  0  0  0  0  0  0  0
  -21.4582   -0.6396   21.1888 C   0  0  0  0  0  0  0  0  0  0  0  0
  -25.8038  -27.2985   20.3836 C   0  0  0  0  0  0  0  0  0  0  0  0
  -25.8857  -16.7868   19.8013 C   0  0  0  0  0  0  0  0  0  0  0  0
  -19.1552   -0.5993   21.9180 C   0  0  0  0  0  0  0  0  0  0  0  0
  -21.8571   -6.9123   20.6978 C   0  0  0  0  0  0  0  0  0  0  0  0
  -23.9965   -8.1757   21.2761 C   0  0  0  0  0  0  0  0  0  0  0  0
  -25.3902  -34.5755   25.8592 C   0  0  0  0  0  0  0  0  0  0  0  0
  -25.9884  -29.7121   20.3937 C   0  0  0  0  0  0  0  0  0  0  0  0
  -25.9007  -33.4276   25.2236 C   0  0  0  0  0  0  0  0  0  0  0  0
  -25.2126  -28.5575   20.5699 C   0  0  0  0  0  0  0  0  0  0  0  0
  -27.1771  -17.2523   19.4194 C   0  0  0  0  0  0  0  0  0  0  0  0
  -20.3941   -4.6278   20.0476 C   0  0  0  0  0  0  0  0  0  0  0  0
  -27.1444  -27.1899   20.0148 C   0  0  0  0  0  0  0  0  0  0  0  0
  -19.9291   -2.3609   20.4569 C   0  0  0  0  0  0  0  0  0  0  0  0
  -20.4326   -0.0390   21.9189 C   0  0  0  0  0  0  0  0  0  0  0  0
  -18.9035   -1.7603   21.1869 C   0  0  0  0  0  0  0  0  0  0  0  0
  -22.6124   -8.0927   21.0330 C   0  0  0  0  0  0  0  0  0  0  0  0
  -28.0133  -16.2193   19.0573 C   0  0  0  0  0  0  0  0  0  0  0  0
  -24.2182   -9.5033   21.5494 C   0  0  0  0  0  0  0  0  0  0  0  0
  -25.7840  -15.4155   19.7161 C   0  0  0  0  0  0  0  0  0  0  0  0
  -24.9929   -7.1448   21.2565 C   0  0  0  0  0  0  0  0  0  0  0  0
  -24.4735  -30.9229   22.9122 C   0  0  0  0  0  0  0  0  0  0  0  0
  -30.3708  -16.8366   19.6782 C   0  0  0  0  0  0  0  0  0  0  0  0
  -27.6220  -23.5412   19.7882 C   0  0  0  0  0  0  0  0  0  0  0  0
  -21.8303  -30.2429   21.1592 C   0  0  0  0  0  0  0  0  0  0  0  0
  -26.7973  -19.7188   19.7574 C   0  0  0  0  0  0  0  0  0  0  0  0
  -20.3946  -28.3820   18.6847 C   0  0  0  0  0  0  0  0  0  0  0  0
  -23.4268  -14.9024   20.4419 C   0  0  0  0  0  0  0  0  0  0  0  0
  -23.9791  -34.6275   26.3892 C   0  0  0  0  0  0  0  0  0  0  0  0
  -25.3750  -31.0751   20.5628 C   0  0  0  0  0  0  0  0  0  0  0  0
  -23.7604  -28.6301   20.9627 C   0  0  0  0  0  0  0  0  0  0  0  0
  -23.0679  -33.5527   25.8019 C   0  0  0  0  0  0  0  0  0  0  0  0
  -20.9579  -13.2750   22.4250 C   0  0  0  0  0  0  0  0  0  0  0  0
  -23.7630  -32.1950   25.8207 C   0  0  0  0  0  0  0  0  0  0  0  0
  -21.2821  -11.7885   22.2596 C   0  0  0  0  0  0  0  0  0  0  0  0
  -21.1956  -14.0545   21.1328 C   0  0  0  0  0  0  0  0  0  0  0  0
  -22.8524  -12.3962   20.3751 C   0  0  0  0  0  0  0  0  0  0  0  0
  -25.0345  -32.2142   24.9637 C   0  0  1  0  0  0  0  0  0  0  0  0
  -24.1374  -31.0669   21.4548 C   0  0  1  0  0  0  0  0  0  0  0  0
  -22.6903  -11.5812   21.6686 C   0  0  2  0  0  0  0  0  0  0  0  0
  -31.0044  -15.8306   20.6079 C   0  0  0  0  0  0  0  0  0  0  0  0
  -29.5883  -17.0610   17.2848 C   0  0  0  0  0  0  0  0  0  0  0  0
  -18.2093  -28.0257   17.5037 C   0  0  0  0  0  0  0  0  0  0  0  0
  -20.7826  -28.6939   23.5702 C   0  0  0  0  0  0  0  0  0  0  0  0
  -19.1141  -27.6023   22.0560 C   0  0  0  0  0  0  0  0  0  0  0  0
  -19.0633  -30.0739   22.3895 C   0  0  0  0  0  0  0  0  0  0  0  0
  -21.5449  -29.1678   16.0735 C   0  0  0  0  0  0  0  0  0  0  0  0
  -26.8225  -22.2592   19.9690 C   0  0  0  0  0  0  0  0  0  0  0  0
  -26.8640  -24.8285   20.0474 C   0  0  0  0  0  0  0  0  0  1  0  0
  -27.6058  -21.0021   19.6033 C   0  0  0  0  0  0  0  0  0  0  0  0
  -29.4215  -16.2748   18.6021 C   0  0  2  0  0  0  0  0  0  0  0  0
  -20.9208  -29.0464   21.0162 C   0  0  1  0  0  0  0  0  0  0  0  0
  -19.5319  -28.7763   17.4995 C   0  0  2  0  0  0  0  0  0  0  0  0
  -19.9981  -28.8524   22.2525 C   0  0  0  0  0  0  0  0  0  0  0  0
  -21.9980   -9.2736   21.1425 N   0  0  0  0  0  0  0  0  0  0  0  0
  -23.0007  -10.1111   21.4574 N   0  0  0  0  0  0  0  0  0  0  0  0
  -23.2080  -29.9854   21.1221 N   0  0  0  0  0  0  0  0  0  0  0  0
  -22.5512  -13.8129   20.6339 N   0  0  0  0  0  0  0  0  0  0  0  0
  -25.3337  -10.1984   21.8572 N   0  0  0  0  0  0  0  0  0  0  0  0
  -24.5935   -5.8352   20.9569 N   0  0  0  0  0  0  0  0  0  0  0  0
  -27.5674  -18.6126   19.4092 N   0  0  0  0  0  0  0  0  0  0  0  0
  -24.6994  -14.5476   19.9955 N   0  0  0  0  0  0  0  0  0  0  0  0
  -24.6986  -32.1231   23.5590 N   0  0  0  0  0  0  0  0  0  0  0  0
  -20.2044  -29.2262   19.7582 N   0  0  0  0  0  0  0  0  0  0  0  0
  -20.2384  -28.4764   16.2220 N   0  3  0  0  0  0  0  0  0  0  0  0
  -26.1988   -7.3753   21.5135 O   0  0  0  0  0  0  0  0  0  0  0  0
  -24.5233  -29.8057   23.4133 O   0  0  0  0  0  0  0  0  0  0  0  0
  -30.5847  -18.0412   19.8163 O   0  0  0  0  0  0  0  0  0  0  0  0
  -28.8067  -23.5433   19.4576 O   0  0  0  0  0  0  0  0  0  0  0  0
  -21.3364  -31.3655   21.2914 O   0  0  0  0  0  0  0  0  0  0  0  0
  -25.6332  -19.7231   20.1433 O   0  0  0  0  0  0  0  0  0  0  0  0
  -21.1580  -27.4190   18.6619 O   0  0  0  0  0  0  0  0  0  0  0  0
  -23.0825  -16.0622   20.6835 O   0  0  0  0  0  0  0  0  0  0  0  0
  -19.6805   -3.5131   19.7300 O   0  0  0  0  0  0  0  0  0  0  0  0
  -27.7041  -25.9624   19.8360 O   0  0  0  0  0  0  0  0  0  1  0  0
  -20.6742    1.0768   22.6196 F   0  0  0  0  0  0  0  0  0  0  0  0
  -17.6739   -2.2933   21.1890 F   0  0  0  0  0  0  0  0  0  0  0  0
  -27.2415  -14.6954   19.1781 S   0  0  0  0  0  0  0  0  0  0  0  0
  1  2  1  0  0  0  0
  1  5  2  0  0  0  0
  2  6  2  0  0  0  0
  3  8  2  0  0  0  0
  3 16  1  0  0  0  0
  4  9  1  0  0  0  0
  4 16  2  0  0  0  0
  5 18  1  0  0  0  0
  6 20  1  0  0  0  0
  7 10  2  0  0  0  0
  7 19  1  0  0  0  0
  8 23  1  0  0  0  0
  9 23  2  0  0  0  0
 10 24  1  0  0  0  0
 11 12  2  0  0  0  0
 11 25  1  0  0  0  0
 12 26  1  0  0  0  0
 13 21  1  0  0  0  0
 13 24  2  0  0  0  0
 14 22  1  0  0  0  0
 14 31  2  0  0  0  0
 15 26  2  0  0  0  0
 15 27  1  0  0  0  0
 16 28  1  0  0  0  0
 17 28  1  0  0  0  0
 17 30  2  0  0  0  0
 17 32  1  0  0  0  0
 18 20  2  0  0  0  0
 18 40  1  0  0  0  0
 19 21  2  0  0  0  0
 19 41  1  0  0  0  0
 20 49  1  0  0  0  0
 21 42  1  0  0  0  0
 22 29  2  0  0  0  0
 22 72  1  0  0  0  0
 23 85  1  0  0  0  0
 24 86  1  0  0  0  0
 25 27  2  0  0  0  0
 25 85  1  0  0  0  0
 26 87  1  0  0  0  0
 27 88  1  0  0  0  0
 28 66  2  0  0  0  0
 29 62  1  0  0  0  0
 29 89  1  0  0  0  0
 30 67  1  0  0  0  0
 30 70  1  0  0  0  0
 31 73  1  0  0  0  0
 31 89  1  0  0  0  0
 32 71  1  0  0  0  0
 32 77  2  0  0  0  0
 33 50  1  0  0  0  0
 33 74  1  0  0  0  0
 33 78  2  0  0  0  0
 34 52  1  0  0  0  0
 34 62  1  0  0  0  0
 34 79  2  0  0  0  0
 35 59  1  0  0  0  0
 35 60  1  0  0  0  0
 35 80  2  0  0  0  0
 36 63  1  0  0  0  0
 36 68  1  0  0  0  0
 36 81  2  0  0  0  0
 37 61  1  0  0  0  0
 37 72  1  0  0  0  0
 37 82  2  0  0  0  0
 38 64  1  0  0  0  0
 38 75  1  0  0  0  0
 38 83  2  0  0  0  0
 39 69  1  0  0  0  0
 39 73  1  0  0  0  0
 39 84  2  0  0  0  0
 40 43  1  0  0  0  0
 41 50  1  0  0  0  0
 42 68  1  0  0  0  0
 43 45  1  0  0  0  0
 44 46  1  0  0  0  0
 44 47  1  0  0  0  0
 45 49  1  0  0  0  0
 46 51  1  0  0  0  0
 47 69  1  0  0  0  0
 48 51  1  0  0  0  0
 48 69  1  0  0  0  0
 49 74  1  0  0  0  0
 50 68  1  0  0  0  0
 51 67  1  0  0  0  0
 53 62  1  0  0  0  0
 54 64  1  0  0  0  0
 55 65  1  0  0  0  0
 56 65  1  0  0  0  0
 57 65  1  0  0  0  0
 58 76  1  0  0  0  0
 59 61  1  0  0  0  0
 60 86  1  0  0  0  0
 63 65  1  0  0  0  0
 63 75  1  0  0  0  0
 64 76  1  0  0  0  0
 66 67  1  0  0  0  0
M  CHG  1  76   1
M  ISO  4  39 100  60 101  73 100  86 101
M  END
> <Batch ID>
0173

> <Smiles>
CNC(C)C(=O)NC(C(=O)N1Cc2cc([101O:1][101CH2:1]C(=O)CCC(=O)Nc3cc([100NH:0][100C:0](=O)N4CCCC(n5nc(-c6ccc(Oc7ccc(F)cc7F)cc6)c(C(N)=O)c5N)C4)sc3C(C)C(C)=O)ccc2CC1C(=O)NC1CCCc2ccccc21)C(C)(C)C

> <Shape>
0.272

> <Color>
0.088

> <Negative vol penalty>
0.000

$$$$

  -OEChem-04052304293D

 86 94  0     1  0  0  0  0  0999 V2000
  -27.1046  -37.4822   21.5806 C   0  0  0  0  0  0  0  0  0  0  0  0
  -27.4470  -36.3879   20.7927 C   0  0  0  0  0  0  0  0  0  0  0  0
  -23.0447  -10.2216   19.9014 C   0  0  0  0  0  0  0  0  0  0  0  0
  -23.8711   -9.6746   22.1048 C   0  0  0  0  0  0  0  0  0  0  0  0
  -26.6622  -37.2871   22.8883 C   0  0  0  0  0  0  0  0  0  0  0  0
  -27.3483  -35.0978   21.3126 C   0  0  0  0  0  0  0  0  0  0  0  0
  -25.7831  -30.0149   18.2761 C   0  0  0  0  0  0  0  0  0  0  0  0
  -22.2424   -9.0807   19.9190 C   0  0  0  0  0  0  0  0  0  0  0  0
  -23.0688   -8.5336   22.1224 C   0  0  0  0  0  0  0  0  0  0  0  0
  -26.5398  -28.9878   17.7137 C   0  0  0  0  0  0  0  0  0  0  0  0
  -23.1486   -5.4117   20.8270 C   0  0  0  0  0  0  0  0  0  0  0  0
  -23.7241   -4.2216   21.2719 C   0  0  0  0  0  0  0  0  0  0  0  0
  -26.5875  -18.0883   16.8920 C   0  0  0  0  0  0  0  0  0  0  0  0
  -26.2278  -27.6722   19.7114 C   0  0  0  0  0  0  0  0  0  0  0  0
  -25.9732  -20.4247   16.8608 C   0  0  0  0  0  0  0  0  0  0  0  0
  -22.0869   -4.0924   23.0439 C   0  0  0  0  0  0  0  0  0  0  0  0
  -23.8591  -10.5185   20.9943 C   0  0  0  0  0  0  0  0  0  0  0  0
  -27.9211  -18.4416   17.0970 C   0  0  0  0  0  0  0  0  0  0  0  0
  -24.3441  -12.9855   21.4259 C   0  0  0  0  0  0  0  0  0  0  0  0
  -26.5488  -35.9934   23.4212 C   0  0  0  0  0  0  0  0  0  0  0  0
  -25.2514  -29.8825   19.5669 C   0  0  0  0  0  0  0  0  0  0  0  0
  -26.9052  -34.8853   22.6291 C   0  0  0  0  0  0  0  0  0  0  0  0
  -25.4627  -28.6980   20.2870 C   0  0  0  0  0  0  0  0  0  0  0  0
  -28.2809  -19.7865   17.1840 C   0  0  0  0  0  0  0  0  0  0  0  0
  -27.3069  -20.7781   17.0659 C   0  0  0  0  0  0  0  0  0  0  0  0
  -22.2545   -8.2368   21.0295 C   0  0  0  0  0  0  0  0  0  0  0  0
  -26.7646  -27.8174   18.4324 C   0  0  0  0  0  0  0  0  0  0  0  0
  -22.0423   -5.9423   21.4905 C   0  0  0  0  0  0  0  0  0  0  0  0
  -23.1932   -3.5619   22.3804 C   0  0  0  0  0  0  0  0  0  0  0  0
  -25.6135  -19.0799   16.7739 C   0  0  0  0  0  0  0  0  0  0  0  0
  -21.5114   -5.2826   22.5990 C   0  0  0  0  0  0  0  0  0  0  0  0
  -24.6884  -11.6966   20.9765 C   0  0  0  0  0  0  0  0  0  0  0  0
  -25.4670  -13.7416   21.1934 C   0  0  0  0  0  0  0  0  0  0  0  0
  -28.9264  -17.3709   17.2182 C   0  0  0  0  0  0  0  0  0  0  0  0
  -26.9090  -25.5941   17.7205 C   0  0  0  0  0  0  0  0  0  1  0  0
  -23.1188  -13.4572   22.0021 C   0  0  0  0  0  0  0  0  0  0  0  0
  -27.5407  -24.5379   17.1942 C   0  0  0  0  0  0  0  0  0  0  0  0
  -26.7990  -23.2423   17.0540 C   0  0  0  0  0  0  0  0  0  0  0  0
  -25.6237  -31.4338   22.3162 C   0  0  0  0  0  0  0  0  0  0  0  0
  -23.2348  -29.4713   23.2981 C   0  0  0  0  0  0  0  0  0  0  0  0
  -21.5449  -26.5348   22.8887 C   0  0  0  0  0  0  0  0  0  0  0  0
  -29.6231  -15.2542   17.7888 C   0  0  0  0  0  0  0  0  0  0  0  0
  -26.1109  -35.8350   24.8558 C   0  0  0  0  0  0  0  0  0  0  0  0
  -24.4150  -30.9889   20.1490 C   0  0  0  0  0  0  0  0  0  0  0  0
  -24.8968  -28.4981   21.6684 C   0  0  0  0  0  0  0  0  0  0  0  0
  -25.6775  -34.4141   25.2070 C   0  0  0  0  0  0  0  0  0  0  0  0
  -30.1579  -12.3828   19.9039 C   0  0  0  0  0  0  0  0  0  0  0  0
  -26.6882  -33.4015   24.6778 C   0  0  0  0  0  0  0  0  0  0  0  0
  -28.7475  -12.0345   20.3794 C   0  0  0  0  0  0  0  0  0  0  0  0
  -30.1514  -12.9143   18.4739 C   0  0  0  0  0  0  0  0  0  0  0  0
  -27.8278  -13.7369   18.7437 C   0  0  0  0  0  0  0  0  0  0  0  0
  -26.7879  -33.4689   23.1491 C   0  0  1  0  0  0  0  0  0  0  0  0
  -24.3537  -30.9532   21.6729 C   0  0  1  0  0  0  0  0  0  0  0  0
  -27.7916  -13.2265   20.1943 C   0  0  1  0  0  0  0  0  0  0  0  0
  -29.7126  -20.1645   17.4045 C   0  0  0  0  0  0  0  0  0  0  0  0
  -19.6647  -25.1911   23.8669 C   0  0  0  0  0  0  0  0  0  0  0  0
  -25.0338  -28.6500   25.6217 C   0  0  0  0  0  0  0  0  0  0  0  0
  -23.5391  -26.6755   25.9898 C   0  0  0  0  0  0  0  0  0  0  0  0
  -22.6316  -28.9866   26.2306 C   0  0  0  0  0  0  0  0  0  0  0  0
  -20.0066  -26.6322   20.3623 C   0  0  0  0  0  0  0  0  0  0  0  0
  -23.1676  -28.0995   23.9246 C   0  0  1  0  0  0  0  0  0  0  0  0
  -20.0595  -26.2276   22.8265 C   0  0  2  0  0  0  0  0  0  0  0  0
  -23.6055  -28.1071   25.4164 C   0  0  0  0  0  0  0  0  0  0  0  0
  -25.9326  -11.6338   20.4948 N   0  0  0  0  0  0  0  0  0  0  0  0
  -28.6291  -16.2102   17.7038 N   0  0  0  0  0  0  0  0  0  0  0  0
  -26.3799  -12.8927   20.6401 N   0  0  0  0  0  0  0  0  0  0  0  0
  -24.0910  -29.6113   22.1967 N   0  0  0  0  0  0  0  0  0  0  0  0
  -29.2076  -14.0234   18.3292 N   0  0  0  0  0  0  0  0  0  0  0  0
  -25.7525  -15.0431   21.4102 N   0  0  0  0  0  0  0  0  0  0  0  0
  -22.0660  -12.5476   22.1703 N   0  0  0  0  0  0  0  0  0  0  0  0
  -27.6493  -22.1493   17.1500 N   0  0  0  0  0  0  0  0  0  0  0  0
  -25.6606  -32.7971   22.5389 N   0  0  0  0  0  0  0  0  0  0  0  0
  -21.8092  -27.6156   23.7030 N   0  0  0  0  0  0  0  0  0  0  0  0
  -19.6949  -25.7041   21.4796 N   0  3  0  0  0  0  0  0  0  0  0  0
  -22.9567  -14.6537   22.3421 O   0  0  0  0  0  0  0  0  0  0  0  0
  -25.5856  -23.2269   16.8774 O   0  0  0  0  0  0  0  0  0  0  0  0
  -26.5042  -30.6273   22.5916 O   0  0  0  0  0  0  0  0  0  0  0  0
  -22.5473  -30.3833   23.7643 O   0  0  0  0  0  0  0  0  0  0  0  0
  -22.3868  -25.8790   22.2792 O   0  0  0  0  0  0  0  0  0  0  0  0
  -30.7864  -15.4376   17.4224 O   0  0  0  0  0  0  0  0  0  0  0  0
  -28.8534  -24.5929   16.7718 O   0  0  0  0  0  0  0  0  0  0  0  0
  -21.4716   -7.1235   21.0471 O   0  0  0  0  0  0  0  0  0  0  0  0
  -27.5033  -26.8135   17.8861 O   0  0  0  0  0  0  0  0  0  1  0  0
  -23.7450   -2.4182   22.8066 F   0  0  0  0  0  0  0  0  0  0  0  0
  -24.3328  -18.7406   16.5756 F   0  0  0  0  0  0  0  0  0  0  0  0
  -20.4479   -5.7868   23.2398 F   0  0  0  0  0  0  0  0  0  0  0  0
  1  2  1  0  0  0  0
  1  5  2  0  0  0  0
  2  6  2  0  0  0  0
  3  8  2  0  0  0  0
  3 17  1  0  0  0  0
  4  9  1  0  0  0  0
  4 17  2  0  0  0  0
  5 20  1  0  0  0  0
  6 22  1  0  0  0  0
  7 10  2  0  0  0  0
  7 21  1  0  0  0  0
  8 26  1  0  0  0  0
  9 26  2  0  0  0  0
 10 27  1  0  0  0  0
 11 12  2  0  0  0  0
 11 28  1  0  0  0  0
 12 29  1  0  0  0  0
 13 18  2  0  0  0  0
 13 30  1  0  0  0  0
 14 23  1  0  0  0  0
 14 27  2  0  0  0  0
 15 25  1  0  0  0  0
 15 30  2  0  0  0  0
 16 29  2  0  0  0  0
 16 31  1  0  0  0  0
 17 32  1  0  0  0  0
 18 24  1  0  0  0  0
 18 34  1  0  0  0  0
 19 32  1  0  0  0  0
 19 33  2  0  0  0  0
 19 36  1  0  0  0  0
 20 22  2  0  0  0  0
 20 43  1  0  0  0  0
 21 23  2  0  0  0  0
 21 44  1  0  0  0  0
 22 52  1  0  0  0  0
 23 45  1  0  0  0  0
 24 25  2  0  0  0  0
 24 55  1  0  0  0  0
 25 71  1  0  0  0  0
 26 82  1  0  0  0  0
 27 83  1  0  0  0  0
 28 31  2  0  0  0  0
 28 82  1  0  0  0  0
 29 84  1  0  0  0  0
 30 85  1  0  0  0  0
 31 86  1  0  0  0  0
 32 64  2  0  0  0  0
 33 66  1  0  0  0  0
 33 69  1  0  0  0  0
 34 65  2  0  0  0  0
 35 37  2  0  0  0  0
 35 83  1  0  0  0  0
 36 70  1  0  0  0  0
 36 75  2  0  0  0  0
 37 38  1  0  0  0  0
 37 81  1  0  0  0  0
 38 71  1  0  0  0  0
 38 76  2  0  0  0  0
 39 53  1  0  0  0  0
 39 72  1  0  0  0  0
 39 77  2  0  0  0  0
 40 61  1  0  0  0  0
 40 67  1  0  0  0  0
 40 78  2  0  0  0  0
 41 62  1  0  0  0  0
 41 73  1  0  0  0  0
 41 79  2  0  0  0  0
 42 65  1  0  0  0  0
 42 68  1  0  0  0  0
 42 80  2  0  0  0  0
 43 46  1  0  0  0  0
 44 53  1  0  0  0  0
 45 67  1  0  0  0  0
 46 48  1  0  0  0  0
 47 49  1  0  0  0  0
 47 50  1  0  0  0  0
 48 52  1  0  0  0  0
 49 54  1  0  0  0  0
 50 68  1  0  0  0  0
 51 54  1  0  0  0  0
 51 68  1  0  0  0  0
 52 72  1  0  0  0  0
 53 67  1  0  0  0  0
 54 66  1  0  0  0  0
 56 62  1  0  0  0  0
 57 63  1  0  0  0  0
 58 63  1  0  0  0  0
 59 63  1  0  0  0  0
 60 74  1  0  0  0  0
 61 63  1  0  0  0  0
 61 73  1  0  0  0  0
 62 74  1  0  0  0  0
 64 66  1  0  0  0  0
M  CHG  1  74   1
M  ISO  4  35 101  42 100  65 100  83 101
M  END
> <Batch ID>
0173

> <Smiles>
CNC(C)C(=O)NC(C(=O)N1Cc2cc([101O:1][101CH2:1]C(=O)C(=O)Nc3cc(F)cc(C=[100N:0][100C:0](=O)N4CCCC(n5nc(-c6ccc(Oc7ccc(F)cc7F)cc6)c(C(N)=O)c5N)C4)c3C)ccc2CC1C(=O)NC1CCCc2ccccc21)C(C)(C)C

> <Shape>
0.299

> <Color>
0.143

> <Negative vol penalty>
0.000

$$$$

  -OEChem-04052304293D

 87 95  0     1  0  0  0  0  0999 V2000
  -24.7163  -35.8535   21.3368 C   0  0  0  0  0  0  0  0  0  0  0  0
  -25.4980  -34.7050   21.2634 C   0  0  0  0  0  0  0  0  0  0  0  0
  -24.2990   -8.8629   21.4491 C   0  0  0  0  0  0  0  0  0  0  0  0
  -24.5360  -10.2408   23.4194 C   0  0  0  0  0  0  0  0  0  0  0  0
  -23.5949  -35.8803   22.1648 C   0  0  0  0  0  0  0  0  0  0  0  0
  -25.1593  -33.5830   22.0190 C   0  0  0  0  0  0  0  0  0  0  0  0
  -25.4481  -29.2866   19.3540 C   0  0  0  0  0  0  0  0  0  0  0  0
  -23.9067   -7.7886   22.2475 C   0  0  0  0  0  0  0  0  0  0  0  0
  -24.1437   -9.1665   24.2179 C   0  0  0  0  0  0  0  0  0  0  0  0
  -26.7185  -28.7522   19.1432 C   0  0  0  0  0  0  0  0  0  0  0  0
  -21.1097   -6.7658   23.8486 C   0  0  0  0  0  0  0  0  0  0  0  0
  -20.0067   -6.0192   23.4345 C   0  0  0  0  0  0  0  0  0  0  0  0
  -26.3484  -27.1811   20.9359 C   0  0  0  0  0  0  0  0  0  0  0  0
  -30.0782  -18.7822   20.3429 C   0  0  0  0  0  0  0  0  0  0  0  0
  -27.6677  -18.9433   20.3667 C   0  0  0  0  0  0  0  0  0  0  0  0
  -21.3885   -4.0405   23.3219 C   0  0  0  0  0  0  0  0  0  0  0  0
  -24.6137  -10.0891   22.0350 C   0  0  0  0  0  0  0  0  0  0  0  0
  -24.1879  -12.1745   20.6289 C   0  0  0  0  0  0  0  0  0  0  0  0
  -23.2368  -34.7549   22.9235 C   0  0  0  0  0  0  0  0  0  0  0  0
  -24.6212  -28.7786   20.3661 C   0  0  0  0  0  0  0  0  0  0  0  0
  -24.0328  -33.5953   22.8590 C   0  0  0  0  0  0  0  0  0  0  0  0
  -25.0670  -27.7091   21.1558 C   0  0  0  0  0  0  0  0  0  0  0  0
  -30.1719  -20.1356   20.6671 C   0  0  0  0  0  0  0  0  0  0  0  0
  -28.8261  -18.1860   20.1926 C   0  0  0  0  0  0  0  0  0  0  0  0
  -29.0135  -20.8928   20.8412 C   0  0  0  0  0  0  0  0  0  0  0  0
  -23.8290   -7.9404   23.6319 C   0  0  0  0  0  0  0  0  0  0  0  0
  -27.1699  -27.7013   19.9361 C   0  0  0  0  0  0  0  0  0  0  0  0
  -22.3521   -6.1499   23.9993 C   0  0  0  0  0  0  0  0  0  0  0  0
  -20.1461   -4.6565   23.1712 C   0  0  0  0  0  0  0  0  0  0  0  0
  -27.7614  -20.2967   20.6910 C   0  0  0  0  0  0  0  0  0  0  0  0
  -22.4915   -4.7872   23.7360 C   0  0  0  0  0  0  0  0  0  0  0  0
  -25.0195  -11.1990   21.2108 C   0  0  0  0  0  0  0  0  0  0  0  0
  -25.0502  -12.9997   19.9492 C   0  0  0  0  0  0  0  0  0  0  0  0
  -28.7229  -25.1721   20.9515 C   0  0  0  0  0  0  0  0  0  0  0  0
  -22.7633  -12.3217   20.6969 C   0  0  0  0  0  0  0  0  0  0  0  0
  -28.5913  -24.4404   22.0726 C   0  0  0  0  0  0  0  0  0  0  0  0
  -28.1884  -23.0038   21.9249 C   0  0  0  0  0  0  0  0  0  0  0  0
  -23.3120  -29.9742   23.0043 C   0  0  0  0  0  0  0  0  0  0  0  0
  -21.8442  -27.0837   23.1182 C   0  0  0  0  0  0  0  0  0  0  0  0
  -21.8597  -23.7894   22.2271 C   0  0  0  0  0  0  0  0  0  0  0  0
  -29.7826  -15.9186   19.6538 C   0  0  0  0  0  0  0  0  0  0  0  0
  -22.0428  -34.8474   23.8403 C   0  0  0  0  0  0  0  0  0  0  0  0
  -23.2431  -29.3483   20.5632 C   0  0  0  0  0  0  0  0  0  0  0  0
  -24.2100  -27.1143   22.2422 C   0  0  0  0  0  0  0  0  0  0  0  0
  -21.5386  -33.4897   24.3228 C   0  0  0  0  0  0  0  0  0  0  0  0
  -29.9633  -12.4521   18.8613 C   0  0  0  0  0  0  0  0  0  0  0  0
  -22.7035  -32.6234   24.7914 C   0  0  0  0  0  0  0  0  0  0  0  0
  -28.6248  -11.8973   19.3541 C   0  0  0  0  0  0  0  0  0  0  0  0
  -30.5000  -13.5431   19.7862 C   0  0  0  0  0  0  0  0  0  0  0  0
  -28.2234  -14.0833   20.5572 C   0  0  0  0  0  0  0  0  0  0  0  0
  -23.6838  -32.3497   23.6444 C   0  0  1  0  0  0  0  0  0  0  0  0
  -22.6855  -29.0939   21.9602 C   0  0  1  0  0  0  0  0  0  0  0  0
  -27.6112  -13.0269   19.6228 C   0  0  2  0  0  0  0  0  0  0  0  0
  -31.5265  -20.7480   20.8206 C   0  0  0  0  0  0  0  0  0  0  0  0
  -28.7729  -24.9112   23.4817 C   0  0  0  0  0  0  0  0  0  0  0  0
  -30.5792  -26.8182   20.7012 C   0  0  0  0  0  0  0  0  0  0  0  0
  -20.5465  -21.6686   22.5005 C   0  0  0  0  0  0  0  0  0  0  0  0
  -22.9031  -26.7980   25.9655 C   0  0  0  0  0  0  0  0  0  0  0  0
  -22.3949  -24.3500   25.8344 C   0  0  0  0  0  0  0  0  0  0  0  0
  -20.5490  -26.0172   25.6447 C   0  0  0  0  0  0  0  0  0  0  0  0
  -21.4030  -23.5596   19.3120 C   0  0  0  0  0  0  0  0  0  0  0  0
  -29.0774  -26.6298   20.8686 C   0  0  1  0  0  0  0  0  0  1  0  0
  -22.1722  -25.7414   23.7260 C   0  0  1  0  0  0  0  0  0  0  0  0
  -20.7793  -22.8999   21.6390 C   0  0  2  0  0  0  0  0  0  0  0  0
  -22.0219  -25.7389   25.2735 C   0  0  0  0  0  0  0  0  0  0  0  0
  -26.3110  -11.3857   20.9255 N   0  0  0  0  0  0  0  0  0  0  0  0
  -26.2973  -12.4880   20.1569 N   0  0  0  0  0  0  0  0  0  0  0  0
  -22.8729  -27.7099   22.4002 N   0  0  0  0  0  0  0  0  0  0  0  0
  -29.4873  -14.5809   19.9916 N   0  0  0  0  0  0  0  0  0  0  0  0
  -24.8558  -14.1057   19.2000 N   0  0  0  0  0  0  0  0  0  0  0  0
  -22.0296  -11.3859   21.4386 N   0  0  0  0  0  0  0  0  0  0  0  0
  -29.0909  -22.2676   21.1710 N   0  0  0  0  0  0  0  0  0  0  0  0
  -28.7318  -16.8114   19.8621 N   0  0  0  0  0  0  0  0  0  0  0  0
  -23.1598  -31.3267   22.7650 N   0  0  0  0  0  0  0  0  0  0  0  0
  -21.3290  -24.7667   23.0423 N   0  0  0  0  0  0  0  0  0  0  0  0
  -21.1658  -22.4506   20.2716 N   0  3  0  0  0  0  0  0  0  0  0  0
  -22.1574  -13.2459   20.1035 O   0  0  0  0  0  0  0  0  0  0  0  0
  -27.1769  -22.6071   22.4944 O   0  0  0  0  0  0  0  0  0  0  0  0
  -23.8894  -29.4642   23.9574 O   0  0  0  0  0  0  0  0  0  0  0  0
  -20.7146  -27.5560   23.2686 O   0  0  0  0  0  0  0  0  0  0  0  0
  -23.0552  -23.6307   21.9903 O   0  0  0  0  0  0  0  0  0  0  0  0
  -30.8773  -16.2434   19.1867 O   0  0  0  0  0  0  0  0  0  0  0  0
  -23.4460   -6.8924   24.4113 O   0  0  0  0  0  0  0  0  0  0  0  0
  -28.4097  -27.1783   19.7330 O   0  0  0  0  0  0  0  0  0  1  0  0
  -19.0865   -3.9393   22.7750 F   0  0  0  0  0  0  0  0  0  0  0  0
  -26.6409  -21.0142   20.8556 F   0  0  0  0  0  0  0  0  0  0  0  0
  -23.6822   -4.1896   23.8802 F   0  0  0  0  0  0  0  0  0  0  0  0
  1  2  1  0  0  0  0
  1  5  2  0  0  0  0
  2  6  2  0  0  0  0
  3  8  2  0  0  0  0
  3 17  1  0  0  0  0
  4  9  1  0  0  0  0
  4 17  2  0  0  0  0
  5 19  1  0  0  0  0
  6 21  1  0  0  0  0
  7 10  2  0  0  0  0
  7 20  1  0  0  0  0
  8 26  1  0  0  0  0
  9 26  2  0  0  0  0
 10 27  1  0  0  0  0
 11 12  2  0  0  0  0
 11 28  1  0  0  0  0
 12 29  1  0  0  0  0
 13 22  1  0  0  0  0
 13 27  2  0  0  0  0
 14 23  2  0  0  0  0
 14 24  1  0  0  0  0
 15 24  2  0  0  0  0
 15 30  1  0  0  0  0
 16 29  2  0  0  0  0
 16 31  1  0  0  0  0
 17 32  1  0  0  0  0
 18 32  1  0  0  0  0
 18 33  2  0  0  0  0
 18 35  1  0  0  0  0
 19 21  2  0  0  0  0
 19 42  1  0  0  0  0
 20 22  2  0  0  0  0
 20 43  1  0  0  0  0
 21 51  1  0  0  0  0
 22 44  1  0  0  0  0
 23 25  1  0  0  0  0
 23 54  1  0  0  0  0
 24 73  1  0  0  0  0
 25 30  2  0  0  0  0
 25 72  1  0  0  0  0
 26 83  1  0  0  0  0
 27 84  1  0  0  0  0
 28 31  2  0  0  0  0
 28 83  1  0  0  0  0
 29 85  1  0  0  0  0
 30 86  1  0  0  0  0
 31 87  1  0  0  0  0
 32 66  2  0  0  0  0
 33 67  1  0  0  0  0
 33 70  1  0  0  0  0
 34 36  2  0  0  0  0
 34 62  1  0  0  0  0
 35 71  1  0  0  0  0
 35 77  2  0  0  0  0
 36 37  1  0  0  0  0
 36 55  1  0  0  0  0
 37 72  1  0  0  0  0
 37 78  2  0  0  0  0
 38 52  1  0  0  0  0
 38 74  1  0  0  0  0
 38 79  2  0  0  0  0
 39 63  1  0  0  0  0
 39 68  1  0  0  0  0
 39 80  2  0  0  0  0
 40 64  1  0  0  0  0
 40 75  1  0  0  0  0
 40 81  2  0  0  0  0
 41 69  1  0  0  0  0
 41 73  1  0  0  0  0
 41 82  2  0  0  0  0
 42 45  1  0  0  0  0
 43 52  1  0  0  0  0
 44 68  1  0  0  0  0
 45 47  1  0  0  0  0
 46 48  1  0  0  0  0
 46 49  1  0  0  0  0
 47 51  1  0  0  0  0
 48 53  1  0  0  0  0
 49 69  1  0  0  0  0
 50 53  1  0  0  0  0
 50 69  1  0  0  0  0
 51 74  1  0  0  0  0
 52 68  1  0  0  0  0
 53 67  1  0  0  0  0
 56 62  1  0  0  0  0
 57 64  1  0  0  0  0
 58 65  1  0  0  0  0
 59 65  1  0  0  0  0
 60 65  1  0  0  0  0
 61 76  1  0  0  0  0
 62 84  1  0  0  0  0
 63 65  1  0  0  0  0
 63 75  1  0  0  0  0
 64 76  1  0  0  0  0
 66 67  1  0  0  0  0
M  CHG  1  76   1
M  ISO  4  41 100  62 101  73 100  84 101
M  END
> <Batch ID>
0173

> <Smiles>
CNC(C)C(=O)NC(C(=O)N1Cc2cc([101O:1][101CH:1](C)C=C(C)C(=O)Nc3c(C)cc([100NH:0][100C:0](=O)N4CCCC(n5nc(-c6ccc(Oc7ccc(F)cc7F)cc6)c(C(N)=O)c5N)C4)cc3F)ccc2CC1C(=O)NC1CCCc2ccccc21)C(C)(C)C

> <Shape>
0.291

> <Color>
0.107

> <Negative vol penalty>
0.000

$$$$

  -OEChem-04052304293D

 87 95  0     1  0  0  0  0  0999 V2000
  -31.9825  -12.6533   19.8634 C   0  0  0  0  0  0  0  0  0  0  0  0
  -31.4584  -13.9405   19.8006 C   0  0  0  0  0  0  0  0  0  0  0  0
  -28.0506  -26.4958   21.6512 C   0  0  0  0  0  0  0  0  0  0  0  0
  -29.6050  -28.3295   21.4094 C   0  0  0  0  0  0  0  0  0  0  0  0
  -31.1259  -11.5536   19.8903 C   0  0  0  0  0  0  0  0  0  0  0  0
  -30.0772  -14.1286   19.7636 C   0  0  0  0  0  0  0  0  0  0  0  0
  -26.9195  -18.7293   22.2870 C   0  0  0  0  0  0  0  0  0  0  0  0
  -28.8400  -25.7152   20.8067 C   0  0  0  0  0  0  0  0  0  0  0  0
  -30.3944  -27.5489   20.5649 C   0  0  0  0  0  0  0  0  0  0  0  0
  -26.4010  -19.9113   21.7597 C   0  0  0  0  0  0  0  0  0  0  0  0
  -31.6939  -23.9150   21.0242 C   0  0  0  0  0  0  0  0  0  0  0  0
  -31.9509  -22.5994   21.4098 C   0  0  0  0  0  0  0  0  0  0  0  0
  -18.8882  -27.3319   23.5230 C   0  0  0  0  0  0  0  0  0  0  0  0
  -24.2593  -18.8381   21.4759 C   0  0  0  0  0  0  0  0  0  0  0  0
  -19.7409  -25.1056   23.1316 C   0  0  0  0  0  0  0  0  0  0  0  0
  -30.8928  -21.8008   19.3899 C   0  0  0  0  0  0  0  0  0  0  0  0
  -28.4331  -27.8030   21.9525 C   0  0  0  0  0  0  0  0  0  0  0  0
  -19.9089  -27.8617   22.7337 C   0  0  0  0  0  0  0  0  0  0  0  0
  -27.7148  -28.7127   24.2250 C   0  0  0  0  0  0  0  0  0  0  0  0
  -29.7333  -11.7287   19.8633 C   0  0  0  0  0  0  0  0  0  0  0  0
  -26.1133  -17.5878   22.4027 C   0  0  0  0  0  0  0  0  0  0  0  0
  -29.2012  -13.0301   19.7888 C   0  0  0  0  0  0  0  0  0  0  0  0
  -24.7692  -17.6437   22.0073 C   0  0  0  0  0  0  0  0  0  0  0  0
  -20.7616  -25.6353   22.3422 C   0  0  0  0  0  0  0  0  0  0  0  0
  -30.0119  -26.2417   20.2636 C   0  0  0  0  0  0  0  0  0  0  0  0
  -25.0715  -19.9649   21.3514 C   0  0  0  0  0  0  0  0  0  0  0  0
  -31.0363  -24.1735   19.8215 C   0  0  0  0  0  0  0  0  0  0  0  0
  -31.5504  -21.5423   20.5927 C   0  0  0  0  0  0  0  0  0  0  0  0
  -18.8042  -25.9539   23.7220 C   0  0  0  0  0  0  0  0  0  0  0  0
  -30.6358  -23.1164   19.0044 C   0  0  0  0  0  0  0  0  0  0  0  0
  -20.8456  -27.0134   22.1432 C   0  0  0  0  0  0  0  0  0  0  0  0
  -27.6177  -28.6100   22.8243 C   0  0  0  0  0  0  0  0  0  0  0  0
  -26.7250  -29.5988   24.5736 C   0  0  0  0  0  0  0  0  0  0  0  0
  -23.5058  -21.6979   21.4780 C   0  0  0  0  0  0  0  0  0  1  0  0
  -19.9939  -29.3300   22.5248 C   0  0  0  0  0  0  0  0  0  0  0  0
  -28.6189  -28.0651   25.1299 C   0  0  0  0  0  0  0  0  0  0  0  0
  -22.9279  -22.8303   21.0592 C   0  0  0  0  0  0  0  0  0  0  0  0
  -21.7726  -23.3877   21.8356 C   0  0  0  0  0  0  0  0  0  0  0  0
  -26.1876  -14.6557   21.1776 C   0  0  0  0  0  0  0  0  0  0  0  0
  -23.6940  -14.1706   23.1948 C   0  0  0  0  0  0  0  0  0  0  0  0
  -21.1182  -15.5069   24.9909 C   0  0  0  0  0  0  0  0  0  0  0  0
  -21.5723  -31.1801   22.0673 C   0  0  0  0  0  0  0  0  0  0  0  0
  -28.8483  -10.5076   19.8465 C   0  0  0  0  0  0  0  0  0  0  0  0
  -26.6804  -16.3284   22.9984 C   0  0  0  0  0  0  0  0  0  0  0  0
  -23.8565  -16.4518   22.1295 C   0  0  0  0  0  0  0  0  0  0  0  0
  -27.3898  -10.8078   20.1823 C   0  0  0  0  0  0  0  0  0  0  0  0
  -24.2638  -33.3340   22.8506 C   0  0  0  0  0  0  0  0  0  0  0  0
  -26.9020  -12.0248   19.4027 C   0  0  0  0  0  0  0  0  0  0  0  0
  -25.4378  -32.3775   23.0767 C   0  0  0  0  0  0  0  0  0  0  0  0
  -23.3585  -32.8624   21.7136 C   0  0  0  0  0  0  0  0  0  0  0  0
  -24.0563  -30.5265   22.0522 C   0  0  0  0  0  0  0  0  0  0  0  0
  -27.7081  -13.2760   19.7721 C   0  0  1  0  0  0  0  0  0  0  0  0
  -25.9093  -15.0759   22.5931 C   0  0  1  0  0  0  0  0  0  0  0  0
  -24.9582  -30.9204   23.2332 C   0  0  1  0  0  0  0  0  0  0  0  0
  -19.2311  -14.8561   26.5117 C   0  0  0  0  0  0  0  0  0  0  0  0
  -22.1079  -13.1622   20.7911 C   0  0  0  0  0  0  0  0  0  0  0  0
  -20.0188  -13.4332   22.1441 C   0  0  0  0  0  0  0  0  0  0  0  0
  -21.7844  -11.8347   22.8858 C   0  0  0  0  0  0  0  0  0  0  0  0
  -22.2093  -17.1144   27.2235 C   0  0  0  0  0  0  0  0  0  0  0  0
  -22.1950  -14.3204   23.0970 C   0  0  1  0  0  0  0  0  0  0  0  0
  -20.6822  -15.3038   26.4308 C   0  0  2  0  0  0  0  0  0  0  0  0
  -21.5440  -13.2097   22.2253 C   0  0  0  0  0  0  0  0  0  0  0  0
  -26.6431  -29.3700   22.3178 N   0  0  0  0  0  0  0  0  0  0  0  0
  -26.1186  -29.9587   23.4062 N   0  0  0  0  0  0  0  0  0  0  0  0
  -24.4593  -15.2416   22.7121 N   0  0  0  0  0  0  0  0  0  0  0  0
  -22.9405  -31.4781   21.9416 N   0  0  0  0  0  0  0  0  0  0  0  0
  -26.3228  -30.0974   25.7620 N   0  0  0  0  0  0  0  0  0  0  0  0
  -29.5743  -27.1848   24.6040 N   0  0  0  0  0  0  0  0  0  0  0  0
  -21.7107  -24.7715   21.7443 N   0  0  0  0  0  0  0  0  0  0  0  0
  -21.2785  -29.8367   22.3259 N   0  0  0  0  0  0  0  0  0  0  0  0
  -27.2672  -13.8034   21.0457 N   0  0  0  0  0  0  0  0  0  0  0  0
  -21.6995  -14.3711   24.4682 N   0  0  0  0  0  0  0  0  0  0  0  0
  -20.8263  -16.5723   27.1995 N   0  3  0  0  0  0  0  0  0  0  0  0
  -18.9595  -29.9913   22.4994 O   0  0  0  0  0  0  0  0  0  0  0  0
  -28.5699  -28.2486   26.3698 O   0  0  0  0  0  0  0  0  0  0  0  0
  -21.0140  -22.6488   22.4540 O   0  0  0  0  0  0  0  0  0  0  0  0
  -25.4746  -15.0726   20.2723 O   0  0  0  0  0  0  0  0  0  0  0  0
  -24.1682  -13.1442   23.6880 O   0  0  0  0  0  0  0  0  0  0  0  0
  -20.9556  -16.5660   24.3889 O   0  0  0  0  0  0  0  0  0  0  0  0
  -20.6905  -32.0417   21.9940 O   0  0  0  0  0  0  0  0  0  0  0  0
  -23.3549  -23.5104   19.9368 O   0  0  0  0  0  0  0  0  0  0  0  0
  -30.7826  -25.4803   19.4397 O   0  0  0  0  0  0  0  0  0  0  0  0
  -24.5631  -21.1171   20.8358 O   0  0  0  0  0  0  0  0  0  1  0  0
  -31.7986  -20.2790   20.9623 F   0  0  0  0  0  0  0  0  0  0  0  0
  -17.8239  -25.4451   24.4800 F   0  0  0  0  0  0  0  0  0  0  0  0
  -30.0047  -23.3586   17.8473 F   0  0  0  0  0  0  0  0  0  0  0  0
  -21.8273  -27.5232   21.3836 F   0  0  0  0  0  0  0  0  0  0  0  0
  1  2  1  0  0  0  0
  1  5  2  0  0  0  0
  2  6  2  0  0  0  0
  3  8  2  0  0  0  0
  3 17  1  0  0  0  0
  4  9  1  0  0  0  0
  4 17  2  0  0  0  0
  5 20  1  0  0  0  0
  6 22  1  0  0  0  0
  7 10  2  0  0  0  0
  7 21  1  0  0  0  0
  8 25  1  0  0  0  0
  9 25  2  0  0  0  0
 10 26  1  0  0  0  0
 11 12  2  0  0  0  0
 11 27  1  0  0  0  0
 12 28  1  0  0  0  0
 13 18  2  0  0  0  0
 13 29  1  0  0  0  0
 14 23  1  0  0  0  0
 14 26  2  0  0  0  0
 15 24  1  0  0  0  0
 15 29  2  0  0  0  0
 16 28  2  0  0  0  0
 16 30  1  0  0  0  0
 17 32  1  0  0  0  0
 18 31  1  0  0  0  0
 18 35  1  0  0  0  0
 19 32  1  0  0  0  0
 19 33  2  0  0  0  0
 19 36  1  0  0  0  0
 20 22  2  0  0  0  0
 20 43  1  0  0  0  0
 21 23  2  0  0  0  0
 21 44  1  0  0  0  0
 22 52  1  0  0  0  0
 23 45  1  0  0  0  0
 24 31  2  0  0  0  0
 24 69  1  0  0  0  0
 25 82  1  0  0  0  0
 26 83  1  0  0  0  0
 27 30  2  0  0  0  0
 27 82  1  0  0  0  0
 28 84  1  0  0  0  0
 29 85  1  0  0  0  0
 30 86  1  0  0  0  0
 31 87  1  0  0  0  0
 32 63  2  0  0  0  0
 33 64  1  0  0  0  0
 33 67  1  0  0  0  0
 34 37  2  0  0  0  0
 34 83  1  0  0  0  0
 35 70  1  0  0  0  0
 35 74  2  0  0  0  0
 36 68  1  0  0  0  0
 36 75  2  0  0  0  0
 37 38  1  0  0  0  0
 37 81  1  0  0  0  0
 38 69  1  0  0  0  0
 38 76  2  0  0  0  0
 39 53  1  0  0  0  0
 39 71  1  0  0  0  0
 39 77  2  0  0  0  0
 40 60  1  0  0  0  0
 40 65  1  0  0  0  0
 40 78  2  0  0  0  0
 41 61  1  0  0  0  0
 41 72  1  0  0  0  0
 41 79  2  0  0  0  0
 42 66  1  0  0  0  0
 42 70  1  0  0  0  0
 42 80  2  0  0  0  0
 43 46  1  0  0  0  0
 44 53  1  0  0  0  0
 45 65  1  0  0  0  0
 46 48  1  0  0  0  0
 47 49  1  0  0  0  0
 47 50  1  0  0  0  0
 48 52  1  0  0  0  0
 49 54  1  0  0  0  0
 50 66  1  0  0  0  0
 51 54  1  0  0  0  0
 51 66  1  0  0  0  0
 52 71  1  0  0  0  0
 53 65  1  0  0  0  0
 54 64  1  0  0  0  0
 55 61  1  0  0  0  0
 56 62  1  0  0  0  0
 57 62  1  0  0  0  0
 58 62  1  0  0  0  0
 59 73  1  0  0  0  0
 60 62  1  0  0  0  0
 60 72  1  0  0  0  0
 61 73  1  0  0  0  0
 63 64  1  0  0  0  0
M  CHG  1  73   1
M  ISO  4  34 101  42 100  70 100  83 101
M  END
> <Batch ID>
0173

> <Smiles>
CNC(C)C(=O)NC(C(=O)N1Cc2cc([101O:1][101CH2:1]C(=O)C(=O)Nc3cc(F)cc(C(=O)[100NH:0][100C:0](=O)N4CCCC(n5nc(-c6ccc(Oc7ccc(F)cc7F)cc6)c(C(N)=O)c5N)C4)c3F)ccc2CC1C(=O)NC1CCCc2ccccc21)C(C)(C)C

> <Shape>
0.238

> <Color>
0.059

> <Negative vol penalty>
0.000

$$$$

  -OEChem-04052304293D

 87 95  0     1  0  0  0  0  0999 V2000
  -34.1653  -30.8151   21.6367 C   0  0  0  0  0  0  0  0  0  0  0  0
  -33.3460  -30.0744   22.4825 C   0  0  0  0  0  0  0  0  0  0  0  0
  -23.1348   -9.7104   20.2079 C   0  0  0  0  0  0  0  0  0  0  0  0
  -23.7989  -10.0448   22.5067 C   0  0  0  0  0  0  0  0  0  0  0  0
  -33.8195  -30.9731   20.2953 C   0  0  0  0  0  0  0  0  0  0  0  0
  -32.1796  -29.4920   21.9875 C   0  0  0  0  0  0  0  0  0  0  0  0
  -31.5788  -24.7134   23.5524 C   0  0  0  0  0  0  0  0  0  0  0  0
  -22.4017   -8.5848   20.5834 C   0  0  0  0  0  0  0  0  0  0  0  0
  -23.0657   -8.9191   22.8822 C   0  0  0  0  0  0  0  0  0  0  0  0
  -31.1135  -24.5230   24.8527 C   0  0  0  0  0  0  0  0  0  0  0  0
  -19.8300   -8.1357   23.4625 C   0  0  0  0  0  0  0  0  0  0  0  0
  -19.0261   -8.2369   24.5978 C   0  0  0  0  0  0  0  0  0  0  0  0
  -28.8935  -24.1306   23.9943 C   0  0  0  0  0  0  0  0  0  0  0  0
  -20.2699   -6.4459   25.6382 C   0  0  0  0  0  0  0  0  0  0  0  0
  -31.8807  -16.9361   22.2115 C   0  0  0  0  0  0  0  0  0  0  0  0
  -23.8335  -10.4404   21.1695 C   0  0  0  0  0  0  0  0  0  0  0  0
  -24.1354  -12.9334   20.7207 C   0  0  0  0  0  0  0  0  0  0  0  0
  -32.6534  -30.3843   19.7814 C   0  0  0  0  0  0  0  0  0  0  0  0
  -30.7013  -24.6245   22.4622 C   0  0  0  0  0  0  0  0  0  0  0  0
  -31.8172  -29.6434   20.6383 C   0  0  0  0  0  0  0  0  0  0  0  0
  -29.3507  -24.3178   22.6809 C   0  0  0  0  0  0  0  0  0  0  0  0
  -30.5085  -16.8771   22.0135 C   0  0  0  0  0  0  0  0  0  0  0  0
  -29.7019  -17.8340   22.6219 C   0  0  0  0  0  0  0  0  0  0  0  0
  -30.2768  -18.8254   23.4114 C   0  0  0  0  0  0  0  0  0  0  0  0
  -22.3671   -8.1891   21.9205 C   0  0  0  0  0  0  0  0  0  0  0  0
  -29.7700  -24.2344   25.0741 C   0  0  0  0  0  0  0  0  0  0  0  0
  -20.8538   -7.1896   23.4149 C   0  0  0  0  0  0  0  0  0  0  0  0
  -19.2460   -7.3920   25.6857 C   0  0  0  0  0  0  0  0  0  0  0  0
  -21.0738   -6.3447   24.5028 C   0  0  0  0  0  0  0  0  0  0  0  0
  -24.5915  -11.6030   20.7822 C   0  0  0  0  0  0  0  0  0  0  0  0
  -31.6549  -18.8350   23.5740 C   0  0  0  0  0  0  0  0  0  0  0  0
  -25.2283  -13.6519   20.3013 C   0  0  0  0  0  0  0  0  0  0  0  0
  -28.6260  -21.8058   26.0193 C   0  0  0  0  0  0  0  0  0  0  0  0
  -22.8398  -13.4716   21.0162 C   0  0  0  0  0  0  0  0  0  0  0  0
  -27.8383  -20.8864   25.4328 C   0  0  0  0  0  0  0  0  0  0  0  0
  -28.4767  -19.6077   24.9795 C   0  0  0  0  0  0  0  0  0  0  0  0
  -29.7159  -26.6350   20.2060 C   0  0  0  0  0  0  0  0  0  0  0  0
  -28.2559  -23.9873   19.0312 C   0  0  0  0  0  0  0  0  0  0  0  0
  -26.9641  -20.8853   19.6280 C   0  0  0  0  0  0  0  0  0  0  0  0
  -30.6633  -14.8374   20.5432 C   0  0  0  0  0  0  0  0  0  0  0  0
  -32.2965  -30.6224   18.3355 C   0  0  0  0  0  0  0  0  0  0  0  0
  -31.2244  -24.8061   21.0637 C   0  0  0  0  0  0  0  0  0  0  0  0
  -28.3719  -24.1913   21.5433 C   0  0  0  0  0  0  0  0  0  0  0  0
  -31.2381  -29.6599   17.8029 C   0  0  0  0  0  0  0  0  0  0  0  0
  -29.6906  -12.1007   18.4838 C   0  0  0  0  0  0  0  0  0  0  0  0
  -30.0805  -29.5405   18.7892 C   0  0  0  0  0  0  0  0  0  0  0  0
  -28.2397  -11.8367   18.8931 C   0  0  0  0  0  0  0  0  0  0  0  0
  -30.5510  -12.5108   19.6776 C   0  0  0  0  0  0  0  0  0  0  0  0
  -28.5760  -13.3710   20.8729 C   0  0  0  0  0  0  0  0  0  0  0  0
  -30.5567  -28.9756   20.1329 C   0  0  1  0  0  0  0  0  0  0  0  0
  -30.1392  -25.2001   20.0664 C   0  0  1  0  0  0  0  0  0  0  0  0
  -27.6560  -13.0178   19.6929 C   0  0  2  0  0  0  0  0  0  0  0  0
  -32.3687  -19.8496   24.3951 C   0  0  0  0  0  0  0  0  0  0  0  0
  -26.3745  -21.0065   25.1451 C   0  0  0  0  0  0  0  0  0  0  0  0
  -27.8283  -23.1159   27.9853 C   0  0  0  0  0  0  0  0  0  0  0  0
  -25.9468  -18.6489   19.1172 C   0  0  0  0  0  0  0  0  0  0  0  0
  -25.6527  -25.5790   19.0231 C   0  0  0  0  0  0  0  0  0  0  0  0
  -24.4124  -23.4163   18.7933 C   0  0  0  0  0  0  0  0  0  0  0  0
  -26.0002  -24.1372   17.0094 C   0  0  0  0  0  0  0  0  0  0  0  0
  -29.6186  -19.6395   19.2276 C   0  0  0  0  0  0  0  0  0  0  0  0
  -28.2076  -23.1623   26.5112 C   0  0  1  0  0  0  0  0  0  1  0  0
  -26.9096  -23.3329   19.2271 C   0  0  1  0  0  0  0  0  0  0  0  0
  -27.1431  -19.5632   18.9038 C   0  0  2  0  0  0  0  0  0  0  0  0
  -25.7615  -24.1206   18.5350 C   0  0  0  0  0  0  0  0  0  0  0  0
  -25.8740  -11.4807   20.4300 N   0  0  0  0  0  0  0  0  0  0  0  0
  -26.2332  -12.7435   20.1430 N   0  0  0  0  0  0  0  0  0  0  0  0
  -32.4081  -17.9015   22.9767 N   0  3  0  0  0  0  0  0  0  0  0  0
  -28.9303  -24.3838   20.1947 N   0  0  0  0  0  0  0  0  0  0  0  0
  -29.9381  -13.6375   20.3844 N   0  0  0  0  0  0  0  0  0  0  0  0
  -28.2992  -17.7971   22.4370 N   0  0  0  0  0  0  0  0  0  0  0  0
  -25.4180  -14.9658   20.0562 N   0  0  0  0  0  0  0  0  0  0  0  0
  -21.8310  -12.5933   21.4346 N   0  0  0  0  0  0  0  0  0  0  0  0
  -29.4785  -19.8105   24.0413 N   0  0  0  0  0  0  0  0  0  0  0  0
  -29.9664  -15.8494   21.2026 N   0  0  0  0  0  0  0  0  0  0  0  0
  -30.7440  -27.5435   20.0413 N   0  0  0  0  0  0  0  0  0  0  0  0
  -27.0535  -21.9567   18.7647 N   0  0  0  0  0  0  0  0  0  0  0  0
  -28.3631  -18.8636   19.3969 N   0  3  0  0  0  0  0  0  0  0  0  0
  -22.5797  -14.6929   20.8966 O   0  0  0  0  0  0  0  0  0  0  0  0
  -28.1164  -18.5498   25.4855 O   0  0  0  0  0  0  0  0  0  0  0  0
  -28.5430  -26.8985   20.4440 O   0  0  0  0  0  0  0  0  0  0  0  0
  -28.6962  -24.1344   17.8884 O   0  0  0  0  0  0  0  0  0  0  0  0
  -26.7613  -20.9600   20.8379 O   0  0  0  0  0  0  0  0  0  0  0  0
  -31.8076  -14.9674   20.1009 O   0  0  0  0  0  0  0  0  0  0  0  0
  -21.6516   -7.0909   22.2873 O   0  0  0  0  0  0  0  0  0  0  0  0
  -29.3130  -24.0487   26.3424 O   0  0  0  0  0  0  0  0  0  1  0  0
  -18.4749   -7.4904   26.7765 F   0  0  0  0  0  0  0  0  0  0  0  0
  -22.0566   -5.4346   24.4634 F   0  0  0  0  0  0  0  0  0  0  0  0
  1  2  1  0  0  0  0
  1  5  2  0  0  0  0
  2  6  2  0  0  0  0
  3  8  2  0  0  0  0
  3 16  1  0  0  0  0
  4  9  1  0  0  0  0
  4 16  2  0  0  0  0
  5 18  1  0  0  0  0
  6 20  1  0  0  0  0
  7 10  2  0  0  0  0
  7 19  1  0  0  0  0
  8 25  1  0  0  0  0
  9 25  2  0  0  0  0
 10 26  1  0  0  0  0
 11 12  2  0  0  0  0
 11 27  1  0  0  0  0
 12 28  1  0  0  0  0
 13 21  1  0  0  0  0
 13 26  2  0  0  0  0
 14 28  2  0  0  0  0
 14 29  1  0  0  0  0
 15 22  2  0  0  0  0
 15 67  1  0  0  0  0
 16 30  1  0  0  0  0
 17 30  1  0  0  0  0
 17 32  2  0  0  0  0
 17 34  1  0  0  0  0
 18 20  2  0  0  0  0
 18 41  1  0  0  0  0
 19 21  2  0  0  0  0
 19 42  1  0  0  0  0
 20 50  1  0  0  0  0
 21 43  1  0  0  0  0
 22 23  1  0  0  0  0
 22 74  1  0  0  0  0
 23 24  2  0  0  0  0
 23 70  1  0  0  0  0
 24 31  1  0  0  0  0
 24 73  1  0  0  0  0
 25 84  1  0  0  0  0
 26 85  1  0  0  0  0
 27 29  2  0  0  0  0
 27 84  1  0  0  0  0
 28 86  1  0  0  0  0
 29 87  1  0  0  0  0
 30 65  2  0  0  0  0
 31 53  1  0  0  0  0
 31 67  2  0  0  0  0
 32 66  1  0  0  0  0
 32 71  1  0  0  0  0
 33 35  2  0  0  0  0
 33 61  1  0  0  0  0
 34 72  1  0  0  0  0
 34 78  2  0  0  0  0
 35 36  1  0  0  0  0
 35 54  1  0  0  0  0
 36 73  1  0  0  0  0
 36 79  2  0  0  0  0
 37 51  1  0  0  0  0
 37 75  1  0  0  0  0
 37 80  2  0  0  0  0
 38 62  1  0  0  0  0
 38 68  1  0  0  0  0
 38 81  2  0  0  0  0
 39 63  1  0  0  0  0
 39 76  1  0  0  0  0
 39 82  2  0  0  0  0
 40 69  1  0  0  0  0
 40 74  1  0  0  0  0
 40 83  2  0  0  0  0
 41 44  1  0  0  0  0
 42 51  1  0  0  0  0
 43 68  1  0  0  0  0
 44 46  1  0  0  0  0
 45 47  1  0  0  0  0
 45 48  1  0  0  0  0
 46 50  1  0  0  0  0
 47 52  1  0  0  0  0
 48 69  1  0  0  0  0
 49 52  1  0  0  0  0
 49 69  1  0  0  0  0
 50 75  1  0  0  0  0
 51 68  1  0  0  0  0
 52 66  1  0  0  0  0
 55 61  1  0  0  0  0
 56 63  1  0  0  0  0
 57 64  1  0  0  0  0
 58 64  1  0  0  0  0
 59 64  1  0  0  0  0
 60 77  1  0  0  0  0
 61 85  1  0  0  0  0
 62 64  1  0  0  0  0
 62 76  1  0  0  0  0
 63 77  1  0  0  0  0
 65 66  1  0  0  0  0
M  CHG  2  67   1  77   1
M  ISO  4  40 100  61 101  74 100  85 101
M  END
> <Batch ID>
0173

> <Smiles>
CNC(C)C(=O)NC(C(=O)N1Cc2cc([101O:1][101CH:1](C)C=C(C)C(=O)Nc3c(C)ncc([100NH:0][100C:0](=O)N4CCCC(n5nc(-c6ccc(Oc7ccc(F)cc7F)cc6)c(C(N)=O)c5N)C4)c3N)ccc2CC1C(=O)NC1CCCc2ccccc21)C(C)(C)C

> <Shape>
0.242

> <Color>
0.182

> <Negative vol penalty>
0.000

$$$$

  -OEChem-04052304293D

 86 94  0     1  0  0  0  0  0999 V2000
  -27.3891  -32.6668   26.8477 C   0  0  0  0  0  0  0  0  0  0  0  0
  -28.1911  -31.5922   26.4772 C   0  0  0  0  0  0  0  0  0  0  0  0
  -22.4430  -22.8258   20.4793 C   0  0  0  0  0  0  0  0  0  0  0  0
  -20.6539  -22.5657   22.0820 C   0  0  0  0  0  0  0  0  0  0  0  0
  -26.1061  -32.7933   26.3168 C   0  0  0  0  0  0  0  0  0  0  0  0
  -27.7103  -30.6428   25.5762 C   0  0  0  0  0  0  0  0  0  0  0  0
  -29.9346  -26.2711   20.3554 C   0  0  0  0  0  0  0  0  0  0  0  0
  -21.9515  -24.0849   20.1348 C   0  0  0  0  0  0  0  0  0  0  0  0
  -20.1624  -23.8249   21.7376 C   0  0  0  0  0  0  0  0  0  0  0  0
  -29.8753  -24.9314   19.9741 C   0  0  0  0  0  0  0  0  0  0  0  0
  -18.6445  -27.1225   21.5379 C   0  0  0  0  0  0  0  0  0  0  0  0
  -18.2677  -27.9779   22.5732 C   0  0  0  0  0  0  0  0  0  0  0  0
  -27.8393  -15.6673   21.0539 C   0  0  0  0  0  0  0  0  0  0  0  0
  -28.3149  -13.5434   22.1026 C   0  0  0  0  0  0  0  0  0  0  0  0
  -27.6725  -25.2953   19.0605 C   0  0  0  0  0  0  0  0  0  0  0  0
  -29.8386  -15.3972   22.3831 C   0  0  0  0  0  0  0  0  0  0  0  0
  -20.5191  -27.9117   23.4472 C   0  0  0  0  0  0  0  0  0  0  0  0
  -21.7942  -22.0662   21.4529 C   0  0  0  0  0  0  0  0  0  0  0  0
  -27.4899  -14.3414   21.3100 C   0  0  0  0  0  0  0  0  0  0  0  0
  -23.2427  -20.4648   22.8113 C   0  0  0  0  0  0  0  0  0  0  0  0
  -25.6128  -31.8501   25.4014 C   0  0  0  0  0  0  0  0  0  0  0  0
  -28.8571  -27.1318   20.1014 C   0  0  0  0  0  0  0  0  0  0  0  0
  -26.4190  -30.7560   25.0335 C   0  0  0  0  0  0  0  0  0  0  0  0
  -27.7217  -26.6461   19.4373 C   0  0  0  0  0  0  0  0  0  0  0  0
  -29.0137  -16.1952   21.5904 C   0  0  0  0  0  0  0  0  0  0  0  0
  -20.8112  -24.5844   20.7640 C   0  0  0  0  0  0  0  0  0  0  0  0
  -28.7429  -24.4426   19.3291 C   0  0  0  0  0  0  0  0  0  0  0  0
  -19.9586  -26.6617   21.4572 C   0  0  0  0  0  0  0  0  0  0  0  0
  -19.2050  -28.3725   23.5279 C   0  0  0  0  0  0  0  0  0  0  0  0
  -29.4893  -14.0713   22.6392 C   0  0  0  0  0  0  0  0  0  0  0  0
  -20.8959  -27.0563   22.4119 C   0  0  0  0  0  0  0  0  0  0  0  0
  -22.3012  -20.7652   21.8087 C   0  0  0  0  0  0  0  0  0  0  0  0
  -23.3855  -19.1001   22.7504 C   0  0  0  0  0  0  0  0  0  0  0  0
  -26.2407  -13.7779   20.7367 C   0  0  0  0  0  0  0  0  0  0  0  0
  -23.9270  -21.3410   23.7166 C   0  0  0  0  0  0  0  0  0  0  0  0
  -26.8756  -28.8387   21.9081 C   0  0  0  0  0  0  0  0  0  0  0  0
  -25.8482  -29.9569   19.0416 C   0  0  0  0  0  0  0  0  0  0  0  0
  -28.6680  -18.4707   20.5683 C   0  0  0  0  0  0  0  0  0  0  0  0
  -25.5383  -29.4587   15.6797 C   0  0  0  0  0  0  0  0  0  0  0  0
  -23.9901  -14.3844   19.9055 C   0  0  0  0  0  0  0  0  0  0  0  0
  -24.2021  -32.0033   24.8906 C   0  0  0  0  0  0  0  0  0  0  0  0
  -28.9476  -28.5807   20.4952 C   0  0  0  0  0  0  0  0  0  0  0  0
  -26.5462  -27.5338   19.1233 C   0  0  0  0  0  0  0  0  0  0  0  0
  -23.9067  -31.1577   23.6544 C   0  0  0  0  0  0  0  0  0  0  0  0
  -20.6932  -15.6115   20.2534 C   0  0  0  0  0  0  0  0  0  0  0  0
  -24.4211  -29.7345   23.8459 C   0  0  0  0  0  0  0  0  0  0  0  0
  -20.8916  -17.0356   20.7795 C   0  0  0  0  0  0  0  0  0  0  0  0
  -21.7608  -15.2314   19.2284 C   0  0  0  0  0  0  0  0  0  0  0  0
  -23.3420  -16.8534   20.1912 C   0  0  0  0  0  0  0  0  0  0  0  0
  -25.9421  -29.7190   24.0399 C   0  0  1  0  0  0  0  0  0  0  0  0
  -27.5827  -29.2452   20.6462 C   0  0  1  0  0  0  0  0  0  0  0  0
  -22.3334  -17.2587   21.2782 C   0  0  1  0  0  0  0  0  0  0  0  0
  -24.6199  -30.5321   13.6056 C   0  0  0  0  0  0  0  0  0  0  0  0
  -23.0241  -29.1709   19.8883 C   0  0  0  0  0  0  0  0  0  0  0  0
  -22.3257  -29.3688   17.4922 C   0  0  0  0  0  0  0  0  0  0  0  0
  -23.1854  -31.3700   18.7082 C   0  0  0  0  0  0  0  0  0  0  0  0
  -28.2131  -29.5818   14.4191 C   0  0  0  0  0  0  0  0  0  0  0  0
  -29.4020  -19.8043   20.5469 C   0  0  0  0  0  0  0  0  0  0  0  0
  -28.6753  -20.8616   19.7229 C   0  0  0  0  0  0  0  0  0  0  0  0
  -29.4027  -22.1978   19.7554 C   0  0  0  0  0  0  0  0  0  1  0  0
  -24.7949  -29.5364   18.0453 C   0  0  1  0  0  0  0  0  0  0  0  0
  -25.8408  -30.3595   14.4958 C   0  0  2  0  0  0  0  0  0  0  0  0
  -23.3538  -29.8441   18.5410 C   0  0  0  0  0  0  0  0  0  0  0  0
  -21.8760  -19.6788   21.1585 N   0  0  0  0  0  0  0  0  0  0  0  0
  -22.5534  -18.6824   21.7537 N   0  0  0  0  0  0  0  0  0  0  0  0
  -26.6800  -28.9413   19.5340 N   0  0  0  0  0  0  0  0  0  0  0  0
  -23.0967  -15.4626   19.7809 N   0  0  0  0  0  0  0  0  0  0  0  0
  -24.1403  -18.2287   23.4527 N   0  0  0  0  0  0  0  0  0  0  0  0
  -23.6631  -22.7156   23.6439 N   0  0  0  0  0  0  0  0  0  0  0  0
  -29.3684  -17.5403   21.3309 N   0  0  0  0  0  0  0  0  0  0  0  0
  -25.2248  -14.7000   20.4836 N   0  0  0  0  0  0  0  0  0  0  0  0
  -26.6154  -29.8871   22.7699 N   0  0  0  0  0  0  0  0  0  0  0  0
  -25.1441  -30.1829   16.7849 N   0  0  0  0  0  0  0  0  0  0  0  0
  -26.9432  -29.7835   13.6750 N   0  3  0  0  0  0  0  0  0  0  0  0
  -26.1857  -12.5767   20.4874 O   0  0  0  0  0  0  0  0  0  0  0  0
  -24.7604  -20.9194   24.5539 O   0  0  0  0  0  0  0  0  0  0  0  0
  -26.5861  -27.6613   22.0860 O   0  0  0  0  0  0  0  0  0  0  0  0
  -25.9346  -31.1441   19.3656 O   0  0  0  0  0  0  0  0  0  0  0  0
  -27.6082  -18.3011   19.9746 O   0  0  0  0  0  0  0  0  0  0  0  0
  -25.6379  -28.2348   15.6281 O   0  0  0  0  0  0  0  0  0  0  0  0
  -23.7001  -13.2327   19.5667 O   0  0  0  0  0  0  0  0  0  0  0  0
  -20.3314  -25.8131   20.4283 O   0  0  0  0  0  0  0  0  0  0  0  0
  -28.6821  -23.1352   18.9564 O   0  0  0  0  0  0  0  0  0  1  0  0
  -18.8434  -29.1952   24.5212 F   0  0  0  0  0  0  0  0  0  0  0  0
  -30.2830  -13.3042   23.3979 F   0  0  0  0  0  0  0  0  0  0  0  0
  -22.1601  -26.6178   22.3390 F   0  0  0  0  0  0  0  0  0  0  0  0
  1  2  1  0  0  0  0
  1  5  2  0  0  0  0
  2  6  2  0  0  0  0
  3  8  2  0  0  0  0
  3 18  1  0  0  0  0
  4  9  1  0  0  0  0
  4 18  2  0  0  0  0
  5 21  1  0  0  0  0
  6 23  1  0  0  0  0
  7 10  2  0  0  0  0
  7 22  1  0  0  0  0
  8 26  1  0  0  0  0
  9 26  2  0  0  0  0
 10 27  1  0  0  0  0
 11 12  2  0  0  0  0
 11 28  1  0  0  0  0
 12 29  1  0  0  0  0
 13 19  1  0  0  0  0
 13 25  2  0  0  0  0
 14 19  2  0  0  0  0
 14 30  1  0  0  0  0
 15 24  1  0  0  0  0
 15 27  2  0  0  0  0
 16 25  1  0  0  0  0
 16 30  2  0  0  0  0
 17 29  2  0  0  0  0
 17 31  1  0  0  0  0
 18 32  1  0  0  0  0
 19 34  1  0  0  0  0
 20 32  1  0  0  0  0
 20 33  2  0  0  0  0
 20 35  1  0  0  0  0
 21 23  2  0  0  0  0
 21 41  1  0  0  0  0
 22 24  2  0  0  0  0
 22 42  1  0  0  0  0
 23 50  1  0  0  0  0
 24 43  1  0  0  0  0
 25 70  1  0  0  0  0
 26 82  1  0  0  0  0
 27 83  1  0  0  0  0
 28 31  2  0  0  0  0
 28 82  1  0  0  0  0
 29 84  1  0  0  0  0
 30 85  1  0  0  0  0
 31 86  1  0  0  0  0
 32 64  2  0  0  0  0
 33 65  1  0  0  0  0
 33 68  1  0  0  0  0
 34 71  1  0  0  0  0
 34 75  2  0  0  0  0
 35 69  1  0  0  0  0
 35 76  2  0  0  0  0
 36 51  1  0  0  0  0
 36 72  1  0  0  0  0
 36 77  2  0  0  0  0
 37 61  1  0  0  0  0
 37 66  1  0  0  0  0
 37 78  2  0  0  0  0
 38 58  1  0  0  0  0
 38 70  1  0  0  0  0
 38 79  2  0  0  0  0
 39 62  1  0  0  0  0
 39 73  1  0  0  0  0
 39 80  2  0  0  0  0
 40 67  1  0  0  0  0
 40 71  1  0  0  0  0
 40 81  2  0  0  0  0
 41 44  1  0  0  0  0
 42 51  1  0  0  0  0
 43 66  1  0  0  0  0
 44 46  1  0  0  0  0
 45 47  1  0  0  0  0
 45 48  1  0  0  0  0
 46 50  1  0  0  0  0
 47 52  1  0  0  0  0
 48 67  1  0  0  0  0
 49 52  1  0  0  0  0
 49 67  1  0  0  0  0
 50 72  1  0  0  0  0
 51 66  1  0  0  0  0
 52 65  1  0  0  0  0
 53 62  1  0  0  0  0
 54 63  1  0  0  0  0
 55 63  1  0  0  0  0
 56 63  1  0  0  0  0
 57 74  1  0  0  0  0
 58 59  1  0  0  0  0
 59 60  1  0  0  0  0
 60 83  1  0  0  0  0
 61 63  1  0  0  0  0
 61 73  1  0  0  0  0
 62 74  1  0  0  0  0
 64 65  1  0  0  0  0
M  CHG  1  74   1
M  ISO  4  40 100  60 101  71 100  83 101
M  END
> <Batch ID>
0173

> <Smiles>
CNC(C)C(=O)NC(C(=O)N1Cc2cc([101O:1][101CH2:1]CCC(=O)Nc3cc(F)cc(C(=O)[100NH:0][100C:0](=O)N4CCCC(n5nc(-c6ccc(Oc7ccc(F)cc7F)cc6)c(C(N)=O)c5N)C4)c3)ccc2CC1C(=O)NC1CCCc2ccccc21)C(C)(C)C

> <Shape>
0.265

> <Color>
0.057

> <Negative vol penalty>
0.000

$$$$

  -OEChem-04052304293D

 86 94  0     1  0  0  0  0  0999 V2000
  -17.7720  -30.1889   16.9808 C   0  0  0  0  0  0  0  0  0  0  0  0
  -18.9905  -29.5214   16.9096 C   0  0  0  0  0  0  0  0  0  0  0  0
  -24.1161  -12.1490   21.8702 C   0  0  0  0  0  0  0  0  0  0  0  0
  -22.4310  -13.2432   20.5284 C   0  0  0  0  0  0  0  0  0  0  0  0
  -17.7177  -31.4862   17.4888 C   0  0  0  0  0  0  0  0  0  0  0  0
  -20.1557  -30.1513   17.3453 C   0  0  0  0  0  0  0  0  0  0  0  0
  -24.9616  -27.5186   20.0800 C   0  0  0  0  0  0  0  0  0  0  0  0
  -23.1181  -11.4751   22.5740 C   0  0  0  0  0  0  0  0  0  0  0  0
  -21.4330  -12.5692   21.2322 C   0  0  0  0  0  0  0  0  0  0  0  0
  -26.1967  -27.0891   19.5965 C   0  0  0  0  0  0  0  0  0  0  0  0
  -21.1126   -8.7944   22.1000 C   0  0  0  0  0  0  0  0  0  0  0  0
  -21.2917   -7.4309   22.3330 C   0  0  0  0  0  0  0  0  0  0  0  0
  -32.0443  -21.8542   19.7213 C   0  0  0  0  0  0  0  0  0  0  0  0
  -27.1848  -29.1810   20.2796 C   0  0  0  0  0  0  0  0  0  0  0  0
  -34.1365  -23.0381   19.9618 C   0  0  0  0  0  0  0  0  0  0  0  0
  -21.2074   -7.8268   24.7149 C   0  0  0  0  0  0  0  0  0  0  0  0
  -23.7726  -13.0331   20.8474 C   0  0  0  0  0  0  0  0  0  0  0  0
  -32.7205  -20.6384   19.8221 C   0  0  0  0  0  0  0  0  0  0  0  0
  -25.4561  -13.3005   18.9495 C   0  0  0  0  0  0  0  0  0  0  0  0
  -18.8815  -32.1287   17.9401 C   0  0  0  0  0  0  0  0  0  0  0  0
  -24.8263  -28.7890   20.6580 C   0  0  0  0  0  0  0  0  0  0  0  0
  -20.1172  -31.4589   17.8587 C   0  0  0  0  0  0  0  0  0  0  0  0
  -25.9475  -29.6233   20.7720 C   0  0  0  0  0  0  0  0  0  0  0  0
  -34.1048  -20.6225   19.9928 C   0  0  0  0  0  0  0  0  0  0  0  0
  -32.7522  -23.0540   19.7911 C   0  0  0  0  0  0  0  0  0  0  0  0
  -34.8128  -21.8223   20.0627 C   0  0  0  0  0  0  0  0  0  0  0  0
  -21.7766  -11.6851   22.2551 C   0  0  0  0  0  0  0  0  0  0  0  0
  -27.3080  -27.9214   19.6936 C   0  0  0  0  0  0  0  0  0  0  0  0
  -20.9810   -9.6742   23.1745 C   0  0  0  0  0  0  0  0  0  0  0  0
  -21.3391   -6.9470   23.6404 C   0  0  0  0  0  0  0  0  0  0  0  0
  -21.0284   -9.1903   24.4819 C   0  0  0  0  0  0  0  0  0  0  0  0
  -24.8030  -13.7300   20.1203 C   0  0  0  0  0  0  0  0  0  0  0  0
  -26.3411  -14.3101   18.6599 C   0  0  0  0  0  0  0  0  0  0  0  0
  -31.9499  -19.4039   19.7449 C   0  0  0  0  0  0  0  0  0  0  0  0
  -30.9448  -19.0582   20.5747 C   0  0  0  0  0  0  0  0  0  0  0  0
  -25.2786  -12.0965   18.1915 C   0  0  0  0  0  0  0  0  0  0  0  0
  -30.2510  -17.7724   20.3599 C   0  0  0  0  0  0  0  0  0  0  0  0
  -23.1503  -31.4003   19.9682 C   0  0  0  0  0  0  0  0  0  0  0  0
  -30.2565  -25.8353   19.4481 C   0  0  0  0  0  0  0  0  0  0  0  0
  -24.3421  -32.4408   22.8000 C   0  0  0  0  0  0  0  0  0  0  0  0
  -26.7867  -32.2197   25.1711 C   0  0  0  0  0  0  0  0  0  0  0  0
  -18.7802  -33.5489   18.4374 C   0  0  0  0  0  0  0  0  0  0  0  0
  -23.4928  -29.2269   21.1990 C   0  0  0  0  0  0  0  0  0  0  0  0
  -25.8595  -30.9883   21.4024 C   0  0  0  0  0  0  0  0  0  0  0  0
  -20.0044  -34.0069   19.2260 C   0  0  0  0  0  0  0  0  0  0  0  0
  -26.7895  -18.9594   20.5611 C   0  0  0  0  0  0  0  0  0  0  0  0
  -21.2859  -33.6213   18.4940 C   0  0  0  0  0  0  0  0  0  0  0  0
  -26.0207  -17.6489   20.4141 C   0  0  0  0  0  0  0  0  0  0  0  0
  -28.1043  -18.7693   21.3159 C   0  0  0  0  0  0  0  0  0  0  0  0
  -28.2128  -16.4052   20.5813 C   0  0  0  0  0  0  0  0  0  0  0  0
  -21.3993  -32.0994   18.3445 C   0  0  1  0  0  0  0  0  0  0  0  0
  -23.3590  -30.7430   21.3031 C   0  0  1  0  0  0  0  0  0  0  0  0
  -26.9089  -16.5645   19.7839 C   0  0  1  0  0  0  0  0  0  0  0  0
  -35.5620  -18.9593   18.8108 C   0  0  0  0  0  0  0  0  0  0  0  0
  -27.5107  -33.2246   27.3536 C   0  0  0  0  0  0  0  0  0  0  0  0
  -25.3511  -34.9133   21.3241 C   0  0  0  0  0  0  0  0  0  0  0  0
  -26.8404  -35.3875   23.2800 C   0  0  0  0  0  0  0  0  0  0  0  0
  -24.3634  -35.3728   23.5753 C   0  0  0  0  0  0  0  0  0  0  0  0
  -26.5603  -29.6238   26.5743 C   0  0  0  0  0  0  0  0  0  0  0  0
  -34.8384  -19.3207   20.1024 C   0  0  0  0  0  0  0  0  0  0  0  0
  -30.6544  -24.3761   19.5140 C   0  0  0  0  0  0  0  0  0  0  0  0
  -28.7763  -26.1025   19.2559 C   0  0  0  0  0  0  0  0  0  1  0  0
  -25.5833  -33.1856   23.2286 C   0  0  1  0  0  0  0  0  0  0  0  0
  -26.7161  -32.1143   26.6838 C   0  0  2  0  0  0  0  0  0  0  0  0
  -25.5361  -34.6899   22.8383 C   0  0  0  0  0  0  0  0  0  0  0  0
  -25.2363  -14.9198   20.5455 N   0  0  0  0  0  0  0  0  0  0  0  0
  -26.1711  -15.2464   19.6370 N   0  0  0  0  0  0  0  0  0  0  0  0
  -28.9099  -17.6876   20.7297 N   0  0  0  0  0  0  0  0  0  0  0  0
  -24.5326  -31.3737   21.9107 N   0  0  0  0  0  0  0  0  0  0  0  0
  -36.2148  -21.8281   20.2354 N   0  0  0  0  0  0  0  0  0  0  0  0
  -27.2403  -14.4795   17.6674 N   0  0  0  0  0  0  0  0  0  0  0  0
  -24.3267  -11.1656   18.6292 N   0  0  0  0  0  0  0  0  0  0  0  0
  -32.0796  -24.2634   19.6909 N   0  0  0  0  0  0  0  0  0  0  0  0
  -21.8246  -31.4994   19.5910 N   0  0  0  0  0  0  0  0  0  0  0  0
  -25.7306  -32.9439   24.6598 N   0  0  0  0  0  0  0  0  0  0  0  0
  -27.2637  -30.8047   27.1379 N   0  3  0  0  0  0  0  0  0  0  0  0
  -25.9560  -11.8459   17.1658 O   0  0  0  0  0  0  0  0  0  0  0  0
  -30.9037  -16.8491   19.8699 O   0  0  0  0  0  0  0  0  0  0  0  0
  -24.1201  -31.7901   19.3284 O   0  0  0  0  0  0  0  0  0  0  0  0
  -31.0716  -26.7521   19.5428 O   0  0  0  0  0  0  0  0  0  0  0  0
  -23.2448  -32.7883   23.2436 O   0  0  0  0  0  0  0  0  0  0  0  0
  -27.6904  -31.7136   24.5095 O   0  0  0  0  0  0  0  0  0  0  0  0
  -20.8025  -11.0275   22.9415 O   0  0  0  0  0  0  0  0  0  0  0  0
  -28.5146  -27.5049   19.2219 O   0  0  0  0  0  0  0  0  0  1  0  0
  -21.5095   -5.6374   23.8640 F   0  0  0  0  0  0  0  0  0  0  0  0
  -20.9013  -10.0305   25.5181 F   0  0  0  0  0  0  0  0  0  0  0  0
  1  2  1  0  0  0  0
  1  5  2  0  0  0  0
  2  6  2  0  0  0  0
  3  8  2  0  0  0  0
  3 17  1  0  0  0  0
  4  9  1  0  0  0  0
  4 17  2  0  0  0  0
  5 20  1  0  0  0  0
  6 22  1  0  0  0  0
  7 10  2  0  0  0  0
  7 21  1  0  0  0  0
  8 27  1  0  0  0  0
  9 27  2  0  0  0  0
 10 28  1  0  0  0  0
 11 12  2  0  0  0  0
 11 29  1  0  0  0  0
 12 30  1  0  0  0  0
 13 18  1  0  0  0  0
 13 25  2  0  0  0  0
 14 23  1  0  0  0  0
 14 28  2  0  0  0  0
 15 25  1  0  0  0  0
 15 26  2  0  0  0  0
 16 30  2  0  0  0  0
 16 31  1  0  0  0  0
 17 32  1  0  0  0  0
 18 24  2  0  0  0  0
 18 34  1  0  0  0  0
 19 32  1  0  0  0  0
 19 33  2  0  0  0  0
 19 36  1  0  0  0  0
 20 22  2  0  0  0  0
 20 42  1  0  0  0  0
 21 23  2  0  0  0  0
 21 43  1  0  0  0  0
 22 51  1  0  0  0  0
 23 44  1  0  0  0  0
 24 26  1  0  0  0  0
 24 60  1  0  0  0  0
 25 73  1  0  0  0  0
 26 70  1  0  0  0  0
 27 83  1  0  0  0  0
 28 84  1  0  0  0  0
 29 31  2  0  0  0  0
 29 83  1  0  0  0  0
 30 85  1  0  0  0  0
 31 86  1  0  0  0  0
 32 66  2  0  0  0  0
 33 67  1  0  0  0  0
 33 71  1  0  0  0  0
 34 35  2  0  0  0  0
 35 37  1  0  0  0  0
 36 72  1  0  0  0  0
 36 77  2  0  0  0  0
 37 68  1  0  0  0  0
 37 78  2  0  0  0  0
 38 52  1  0  0  0  0
 38 74  1  0  0  0  0
 38 79  2  0  0  0  0
 39 61  1  0  0  0  0
 39 62  1  0  0  0  0
 39 80  2  0  0  0  0
 40 63  1  0  0  0  0
 40 69  1  0  0  0  0
 40 81  2  0  0  0  0
 41 64  1  0  0  0  0
 41 75  1  0  0  0  0
 41 82  2  0  0  0  0
 42 45  1  0  0  0  0
 43 52  1  0  0  0  0
 44 69  1  0  0  0  0
 45 47  1  0  0  0  0
 46 48  1  0  0  0  0
 46 49  1  0  0  0  0
 47 51  1  0  0  0  0
 48 53  1  0  0  0  0
 49 68  1  0  0  0  0
 50 53  1  0  0  0  0
 50 68  1  0  0  0  0
 51 74  1  0  0  0  0
 52 69  1  0  0  0  0
 53 67  1  0  0  0  0
 54 60  1  0  0  0  0
 55 64  1  0  0  0  0
 56 65  1  0  0  0  0
 57 65  1  0  0  0  0
 58 65  1  0  0  0  0
 59 76  1  0  0  0  0
 61 73  1  0  0  0  0
 62 84  1  0  0  0  0
 63 65  1  0  0  0  0
 63 75  1  0  0  0  0
 64 76  1  0  0  0  0
 66 67  1  0  0  0  0
M  CHG  1  76   1
M  ISO  4  35 100  37 100  62 101  84 101
M  END
> <Batch ID>
0173

> <Smiles>
CCc1c(N)cc(NCC(=O)[101CH2:1][101O:1]c2ccc3c(c2)CN(C(=O)C(NC(=O)C(C)NC)C(C)(C)C)C(C(=O)NC2CCCc4ccccc42)C3)cc1C=[100CH:0][100C:0](=O)N1CCCC(n2nc(-c3ccc(Oc4ccc(F)cc4F)cc3)c(C(N)=O)c2N)C1

> <Shape>
0.262

> <Color>
0.082

> <Negative vol penalty>
0.000

$$$$

  -OEChem-04052304293D

 87 95  0     1  0  0  0  0  0999 V2000
  -28.8510  -36.1442   25.2180 C   0  0  0  0  0  0  0  0  0  0  0  0
  -29.0926  -34.8593   24.7425 C   0  0  0  0  0  0  0  0  0  0  0  0
  -23.0435   -9.7563   20.0697 C   0  0  0  0  0  0  0  0  0  0  0  0
  -23.6599  -10.0408   22.3884 C   0  0  0  0  0  0  0  0  0  0  0  0
  -31.2798  -19.0000   20.1299 C   0  0  0  0  0  0  0  0  0  0  0  0
  -27.5653  -36.5090   25.6151 C   0  0  0  0  0  0  0  0  0  0  0  0
  -28.0487  -33.9380   24.6650 C   0  0  0  0  0  0  0  0  0  0  0  0
  -27.2824  -29.5912   20.4196 C   0  0  0  0  0  0  0  0  0  0  0  0
  -31.1032  -17.6246   20.2804 C   0  0  0  0  0  0  0  0  0  0  0  0
  -22.2797   -8.6398   20.4097 C   0  0  0  0  0  0  0  0  0  0  0  0
  -22.8959   -8.9244   22.7284 C   0  0  0  0  0  0  0  0  0  0  0  0
  -27.5693  -28.2269   20.4116 C   0  0  0  0  0  0  0  0  0  0  0  0
  -23.2037   -5.5601   22.5936 C   0  0  0  0  0  0  0  0  0  0  0  0
  -23.7682   -4.6301   23.4664 C   0  0  0  0  0  0  0  0  0  0  0  0
  -25.2922  -27.7504   21.0493 C   0  0  0  0  0  0  0  0  0  0  0  0
  -21.9653   -5.0037   25.0306 C   0  0  0  0  0  0  0  0  0  0  0  0
  -23.7337  -10.4567   21.0590 C   0  0  0  0  0  0  0  0  0  0  0  0
  -30.5003  -19.8885   20.8706 C   0  0  0  0  0  0  0  0  0  0  0  0
  -24.0953  -12.9499   20.6579 C   0  0  0  0  0  0  0  0  0  0  0  0
  -26.5032  -35.5948   25.5334 C   0  0  0  0  0  0  0  0  0  0  0  0
  -25.9989  -30.0467   20.7537 C   0  0  0  0  0  0  0  0  0  0  0  0
  -26.7478  -34.2905   25.0628 C   0  0  0  0  0  0  0  0  0  0  0  0
  -24.9908  -29.1208   21.0583 C   0  0  0  0  0  0  0  0  0  0  0  0
  -30.1468  -17.1376   21.1714 C   0  0  0  0  0  0  0  0  0  0  0  0
  -22.2058   -8.2239   21.7391 C   0  0  0  0  0  0  0  0  0  0  0  0
  -26.5750  -27.3064   20.7293 C   0  0  0  0  0  0  0  0  0  0  0  0
  -22.0200   -6.2121   22.9393 C   0  0  0  0  0  0  0  0  0  0  0  0
  -23.1490   -4.3518   24.6849 C   0  0  0  0  0  0  0  0  0  0  0  0
  -21.4007   -5.9338   24.1578 C   0  0  0  0  0  0  0  0  0  0  0  0
  -29.5440  -19.4015   21.7617 C   0  0  0  0  0  0  0  0  0  0  0  0
  -29.3672  -18.0261   21.9121 C   0  0  0  0  0  0  0  0  0  0  0  0
  -24.5234  -11.6098   20.7083 C   0  0  0  0  0  0  0  0  0  0  0  0
  -25.2117  -13.6528   20.2757 C   0  0  0  0  0  0  0  0  0  0  0  0
  -30.6898  -21.3441   20.7093 C   0  0  0  0  0  0  0  0  0  0  0  0
  -22.8040  -13.5094   20.9320 C   0  0  0  0  0  0  0  0  0  0  0  0
  -24.7971  -31.8753   23.0593 C   0  0  0  0  0  0  0  0  0  0  0  0
  -28.3345  -24.0808   20.4327 C   0  0  0  0  0  0  0  0  0  0  0  0
  -22.0605  -31.5619   21.3461 C   0  0  0  0  0  0  0  0  0  0  0  0
  -20.2411  -29.7500   19.0980 C   0  0  0  0  0  0  0  0  0  0  0  0
  -30.6619  -14.7246   20.6629 C   0  0  0  0  0  0  0  0  0  0  0  0
  -25.1401  -36.0203   26.0188 C   0  0  0  0  0  0  0  0  0  0  0  0
  -25.6983  -31.5203   20.7317 C   0  0  0  0  0  0  0  0  0  0  0  0
  -23.5914  -29.5573   21.4041 C   0  0  0  0  0  0  0  0  0  0  0  0
  -24.0135  -35.1015   25.5531 C   0  0  0  0  0  0  0  0  0  0  0  0
  -29.6840  -12.0409   18.5372 C   0  0  0  0  0  0  0  0  0  0  0  0
  -24.3957  -33.6397   25.7626 C   0  0  0  0  0  0  0  0  0  0  0  0
  -28.2190  -11.7997   18.9084 C   0  0  0  0  0  0  0  0  0  0  0  0
  -30.5240  -12.4147   19.7572 C   0  0  0  0  0  0  0  0  0  0  0  0
  -28.5389  -13.2956   20.9202 C   0  0  0  0  0  0  0  0  0  0  0  0
  -25.6365  -33.2707   24.9405 C   0  0  1  0  0  0  0  0  0  0  0  0
  -24.4933  -31.8972   21.5879 C   0  0  1  0  0  0  0  0  0  0  0  0
  -27.6401  -12.9796   19.7135 C   0  0  2  0  0  0  0  0  0  0  0  0
  -30.1181  -23.8242   18.6831 C   0  0  0  0  0  0  0  0  0  0  0  0
  -18.0248  -29.7251   17.9213 C   0  0  0  0  0  0  0  0  0  0  0  0
  -20.7123  -30.6052   23.9107 C   0  0  0  0  0  0  0  0  0  0  0  0
  -18.8383  -29.7134   22.5104 C   0  0  0  0  0  0  0  0  0  0  0  0
  -19.3295  -32.1591   22.5223 C   0  0  0  0  0  0  0  0  0  0  0  0
  -21.5220  -29.9199   16.4354 C   0  0  0  0  0  0  0  0  0  0  0  0
  -28.1837  -25.5897   20.3813 C   0  0  0  0  0  0  0  0  0  1  0  0
  -29.7104  -23.5310   20.1133 C   0  0  2  0  0  0  0  0  0  0  0  0
  -20.9113  -30.5830   21.3366 C   0  0  1  0  0  0  0  0  0  0  0  0
  -19.4793  -30.1638   17.8519 C   0  0  2  0  0  0  0  0  0  0  0  0
  -19.9746  -30.7567   22.5654 C   0  0  0  0  0  0  0  0  0  0  0  0
  -25.8112  -11.4673   20.3840 N   0  0  0  0  0  0  0  0  0  0  0  0
  -26.2020  -12.7270   20.1260 N   0  0  0  0  0  0  0  0  0  0  0  0
  -23.3487  -31.0091   21.3750 N   0  0  0  0  0  0  0  0  0  0  0  0
  -29.9171  -13.5423   20.4679 N   0  0  0  0  0  0  0  0  0  0  0  0
  -25.4331  -14.9663   20.0564 N   0  0  0  0  0  0  0  0  0  0  0  0
  -21.7684  -12.6450   21.3125 N   0  0  0  0  0  0  0  0  0  0  0  0
  -29.9698  -15.7399   21.3223 N   0  0  0  0  0  0  0  0  0  0  0  0
  -29.6512  -22.0837   20.2926 N   0  0  0  0  0  0  0  0  0  0  0  0
  -25.2818  -33.0720   23.5516 N   0  0  0  0  0  0  0  0  0  0  0  0
  -20.2450  -30.7481   20.0493 N   0  0  0  0  0  0  0  0  0  0  0  0
  -31.8897  -21.8557   20.9843 N   0  3  0  0  0  0  0  0  0  0  0  0
  -20.0970  -29.5538   16.6406 N   0  3  0  0  0  0  0  0  0  0  0  0
  -22.5710  -14.7374   20.8262 O   0  0  0  0  0  0  0  0  0  0  0  0
  -24.6046  -30.8490   23.7007 O   0  0  0  0  0  0  0  0  0  0  0  0
  -27.3863  -23.3495   20.7190 O   0  0  0  0  0  0  0  0  0  0  0  0
  -21.8240  -32.7723   21.3214 O   0  0  0  0  0  0  0  0  0  0  0  0
  -20.7760  -28.6499   19.2171 O   0  0  0  0  0  0  0  0  0  0  0  0
  -31.8187  -14.8385   20.2494 O   0  0  0  0  0  0  0  0  0  0  0  0
  -21.4604   -7.1346   22.0713 O   0  0  0  0  0  0  0  0  0  0  0  0
  -26.8525  -25.9742   20.7229 O   0  0  0  0  0  0  0  0  0  1  0  0
  -23.6904   -3.4575   25.5223 F   0  0  0  0  0  0  0  0  0  0  0  0
  -20.2628   -6.5561   24.4949 F   0  0  0  0  0  0  0  0  0  0  0  0
  -28.7899  -20.2474   22.4775 F   0  0  0  0  0  0  0  0  0  0  0  0
  -28.4451  -17.5693   22.7714 F   0  0  0  0  0  0  0  0  0  0  0  0
  1  2  1  0  0  0  0
  1  6  2  0  0  0  0
  2  7  2  0  0  0  0
  3 10  2  0  0  0  0
  3 17  1  0  0  0  0
  4 11  1  0  0  0  0
  4 17  2  0  0  0  0
  5  9  2  0  0  0  0
  5 18  1  0  0  0  0
  6 20  1  0  0  0  0
  7 22  1  0  0  0  0
  8 12  2  0  0  0  0
  8 21  1  0  0  0  0
  9 24  1  0  0  0  0
 10 25  1  0  0  0  0
 11 25  2  0  0  0  0
 12 26  1  0  0  0  0
 13 14  2  0  0  0  0
 13 27  1  0  0  0  0
 14 28  1  0  0  0  0
 15 23  1  0  0  0  0
 15 26  2  0  0  0  0
 16 28  2  0  0  0  0
 16 29  1  0  0  0  0
 17 32  1  0  0  0  0
 18 30  2  0  0  0  0
 18 34  1  0  0  0  0
 19 32  1  0  0  0  0
 19 33  2  0  0  0  0
 19 35  1  0  0  0  0
 20 22  2  0  0  0  0
 20 41  1  0  0  0  0
 21 23  2  0  0  0  0
 21 42  1  0  0  0  0
 22 50  1  0  0  0  0
 23 43  1  0  0  0  0
 24 31  2  0  0  0  0
 24 70  1  0  0  0  0
 25 82  1  0  0  0  0
 26 83  1  0  0  0  0
 27 29  2  0  0  0  0
 27 82  1  0  0  0  0
 28 84  1  0  0  0  0
 29 85  1  0  0  0  0
 30 31  1  0  0  0  0
 30 86  1  0  0  0  0
 31 87  1  0  0  0  0
 32 64  2  0  0  0  0
 33 65  1  0  0  0  0
 33 68  1  0  0  0  0
 34 71  1  0  0  0  0
 34 74  2  0  0  0  0
 35 69  1  0  0  0  0
 35 76  2  0  0  0  0
 36 51  1  0  0  0  0
 36 72  1  0  0  0  0
 36 77  2  0  0  0  0
 37 59  1  0  0  0  0
 37 60  1  0  0  0  0
 37 78  2  0  0  0  0
 38 61  1  0  0  0  0
 38 66  1  0  0  0  0
 38 79  2  0  0  0  0
 39 62  1  0  0  0  0
 39 73  1  0  0  0  0
 39 80  2  0  0  0  0
 40 67  1  0  0  0  0
 40 70  1  0  0  0  0
 40 81  2  0  0  0  0
 41 44  1  0  0  0  0
 42 51  1  0  0  0  0
 43 66  1  0  0  0  0
 44 46  1  0  0  0  0
 45 47  1  0  0  0  0
 45 48  1  0  0  0  0
 46 50  1  0  0  0  0
 47 52  1  0  0  0  0
 48 67  1  0  0  0  0
 49 52  1  0  0  0  0
 49 67  1  0  0  0  0
 50 72  1  0  0  0  0
 51 66  1  0  0  0  0
 52 65  1  0  0  0  0
 53 60  1  0  0  0  0
 54 62  1  0  0  0  0
 55 63  1  0  0  0  0
 56 63  1  0  0  0  0
 57 63  1  0  0  0  0
 58 75  1  0  0  0  0
 59 83  1  0  0  0  0
 60 71  1  0  0  0  0
 61 63  1  0  0  0  0
 61 73  1  0  0  0  0
 62 75  1  0  0  0  0
 64 65  1  0  0  0  0
M  CHG  2  74   1  75   1
M  ISO  4  40 100  59 101  70 100  83 101
M  END
> <Batch ID>
0173

> <Smiles>
CNC(C)C(=O)NC(C(=O)N1Cc2cc([101O:1][101CH2:1]C(=O)C(C)NC(=N)c3ccc([100NH:0][100C:0](=O)N4CCCC(n5nc(-c6ccc(Oc7ccc(F)cc7F)cc6)c(C(N)=O)c5N)C4)c(F)c3F)ccc2CC1C(=O)NC1CCCc2ccccc21)C(C)(C)C

> <Shape>
0.377

> <Color>
0.223

> <Negative vol penalty>
0.000

$$$$

  -OEChem-04052304293D

 87 95  0     1  0  0  0  0  0999 V2000
  -30.1058  -32.3326   24.8604 C   0  0  0  0  0  0  0  0  0  0  0  0
  -29.8065  -31.1412   24.2073 C   0  0  0  0  0  0  0  0  0  0  0  0
  -18.6916  -16.3705   25.2451 C   0  0  0  0  0  0  0  0  0  0  0  0
  -20.3168  -18.0923   24.7644 C   0  0  0  0  0  0  0  0  0  0  0  0
  -29.0980  -33.0397   25.5148 C   0  0  0  0  0  0  0  0  0  0  0  0
  -28.4993  -30.6557   24.2092 C   0  0  0  0  0  0  0  0  0  0  0  0
  -27.0228  -29.0332   19.6450 C   0  0  0  0  0  0  0  0  0  0  0  0
  -18.4803  -16.9226   26.5085 C   0  0  0  0  0  0  0  0  0  0  0  0
  -20.1054  -18.6445   26.0278 C   0  0  0  0  0  0  0  0  0  0  0  0
  -27.4795  -27.7811   19.2359 C   0  0  0  0  0  0  0  0  0  0  0  0
  -17.8048  -20.6105   27.5320 C   0  0  0  0  0  0  0  0  0  0  0  0
  -17.6609  -21.9953   27.6165 C   0  0  0  0  0  0  0  0  0  0  0  0
  -25.3599  -26.8115   19.8574 C   0  0  0  0  0  0  0  0  0  0  0  0
  -27.0420  -16.5267   20.4639 C   0  0  0  0  0  0  0  0  0  0  0  0
  -27.8941  -14.2677   20.5532 C   0  0  0  0  0  0  0  0  0  0  0  0
  -19.5853  -22.1064   29.0731 C   0  0  0  0  0  0  0  0  0  0  0  0
  -19.6099  -16.9553   24.3731 C   0  0  0  0  0  0  0  0  0  0  0  0
  -19.1456  -16.6982   21.8779 C   0  0  0  0  0  0  0  0  0  0  0  0
  -27.7760  -32.5676   25.5165 C   0  0  0  0  0  0  0  0  0  0  0  0
  -25.7329  -29.1822   20.1744 C   0  0  0  0  0  0  0  0  0  0  0  0
  -27.4732  -31.3565   24.8654 C   0  0  0  0  0  0  0  0  0  0  0  0
  -24.8883  -28.0670   20.2702 C   0  0  0  0  0  0  0  0  0  0  0  0
  -26.8159  -15.1505   20.4914 C   0  0  0  0  0  0  0  0  0  0  0  0
  -28.3463  -17.0200   20.4981 C   0  0  0  0  0  0  0  0  0  0  0  0
  -19.1871  -18.0596   26.8998 C   0  0  0  0  0  0  0  0  0  0  0  0
  -26.6491  -26.6695   19.3448 C   0  0  0  0  0  0  0  0  0  0  0  0
  -18.8390  -19.9736   28.2180 C   0  0  0  0  0  0  0  0  0  0  0  0
  -18.5511  -22.7433   28.3871 C   0  0  0  0  0  0  0  0  0  0  0  0
  -29.1984  -14.7611   20.5875 C   0  0  0  0  0  0  0  0  0  0  0  0
  -19.7292  -20.7215   28.9885 C   0  0  0  0  0  0  0  0  0  0  0  0
  -29.4244  -16.1372   20.5600 C   0  0  0  0  0  0  0  0  0  0  0  0
  -19.8290  -16.3851   23.0681 C   0  0  0  0  0  0  0  0  0  0  0  0
  -19.7219  -15.8904   20.9283 C   0  0  0  0  0  0  0  0  0  0  0  0
  -18.0847  -17.6356   21.6509 C   0  0  0  0  0  0  0  0  0  0  0  0
  -24.5510  -30.1195   22.9724 C   0  0  0  0  0  0  0  0  0  0  0  0
  -28.1112  -20.7654   20.3883 C   0  0  0  0  0  0  0  0  0  0  0  0
  -27.5666  -23.1743   19.6449 C   0  0  0  0  0  0  0  0  0  0  0  0
  -21.7151  -29.8678   21.4177 C   0  0  0  0  0  0  0  0  0  0  0  0
  -19.9207  -28.4735   18.8716 C   0  0  0  0  0  0  0  0  0  0  0  0
  -25.0935  -13.3122   20.4774 C   0  0  0  0  0  0  0  0  0  0  0  0
  -26.7295  -33.3424   26.2776 C   0  0  0  0  0  0  0  0  0  0  0  0
  -25.2456  -30.5443   20.5864 C   0  0  0  0  0  0  0  0  0  0  0  0
  -23.4876  -28.1773   20.8129 C   0  0  0  0  0  0  0  0  0  0  0  0
  -25.2990  -32.9525   25.9146 C   0  0  0  0  0  0  0  0  0  0  0  0
  -21.9342  -11.6707   20.4445 C   0  0  0  0  0  0  0  0  0  0  0  0
  -25.1501  -31.4346   25.8867 C   0  0  0  0  0  0  0  0  0  0  0  0
  -20.9726  -12.7239   20.9995 C   0  0  0  0  0  0  0  0  0  0  0  0
  -23.2962  -11.7268   21.1340 C   0  0  0  0  0  0  0  0  0  0  0  0
  -22.9720  -14.1029   21.6978 C   0  0  0  0  0  0  0  0  0  0  0  0
  -26.0625  -30.8102   24.8241 C   0  0  1  0  0  0  0  0  0  0  0  0
  -24.0969  -30.4901   21.5888 C   0  0  1  0  0  0  0  0  0  0  0  0
  -21.6079  -14.1282   20.9893 C   0  0  2  0  0  0  0  0  0  0  0  0
  -17.6165  -28.4307   17.8786 C   0  0  0  0  0  0  0  0  0  0  0  0
  -20.7718  -28.0640   23.6907 C   0  0  0  0  0  0  0  0  0  0  0  0
  -18.8930  -27.3086   22.2183 C   0  0  0  0  0  0  0  0  0  0  0  0
  -19.0660  -29.7060   22.8854 C   0  0  0  0  0  0  0  0  0  0  0  0
  -20.8882  -29.5452   16.2881 C   0  0  0  0  0  0  0  0  0  0  0  0
  -27.1076  -21.9011   20.3272 C   0  0  0  0  0  0  0  0  0  0  0  0
  -27.5167  -19.3714   20.4067 C   0  0  0  0  0  0  0  0  0  0  0  0
  -26.5615  -24.3098   19.6272 C   0  0  0  0  0  0  0  0  0  1  0  0
  -20.7058  -28.7652   21.2067 C   0  0  1  0  0  0  0  0  0  0  0  0
  -18.9879  -29.0869   17.8429 C   0  0  2  0  0  0  0  0  0  0  0  0
  -19.8862  -28.4582   22.4918 C   0  0  0  0  0  0  0  0  0  0  0  0
  -20.7677  -15.4511   22.8933 N   0  0  0  0  0  0  0  0  0  0  0  0
  -20.6780  -15.1703   21.5821 N   0  0  0  0  0  0  0  0  0  0  0  0
  -23.0595  -29.5293   21.2082 N   0  0  0  0  0  0  0  0  0  0  0  0
  -23.8386  -13.0861   21.0813 N   0  0  0  0  0  0  0  0  0  0  0  0
  -19.4989  -15.7328   19.6063 N   0  0  0  0  0  0  0  0  0  0  0  0
  -17.6112  -18.3846   22.7368 N   0  0  0  0  0  0  0  0  0  0  0  0
  -25.4913  -14.6486   20.4570 N   0  0  0  0  0  0  0  0  0  0  0  0
  -28.5687  -18.3892   20.4704 N   0  0  0  0  0  0  0  0  0  0  0  0
  -25.4919  -30.9800   23.5050 N   0  0  0  0  0  0  0  0  0  0  0  0
  -19.8948  -29.1676   20.0627 N   0  0  0  0  0  0  0  0  0  0  0  0
  -19.5505  -28.9259   16.4723 N   0  3  0  0  0  0  0  0  0  0  0  0
  -17.5606  -17.7922   20.5220 O   0  0  0  0  0  0  0  0  0  0  0  0
  -24.0813  -29.1273   23.5169 O   0  0  0  0  0  0  0  0  0  0  0  0
  -29.3233  -20.9637   20.4589 O   0  0  0  0  0  0  0  0  0  0  0  0
  -28.6664  -23.2782   19.1045 O   0  0  0  0  0  0  0  0  0  0  0  0
  -21.3245  -30.9900   21.7490 O   0  0  0  0  0  0  0  0  0  0  0  0
  -20.6013  -27.4760   18.6426 O   0  0  0  0  0  0  0  0  0  0  0  0
  -25.7535  -12.3918   19.9881 O   0  0  0  0  0  0  0  0  0  0  0  0
  -18.9810  -18.5988   28.1325 O   0  0  0  0  0  0  0  0  0  0  0  0
  -27.0927  -25.4461   18.9468 O   0  0  0  0  0  0  0  0  0  1  0  0
  -18.4137  -24.0733   28.4669 F   0  0  0  0  0  0  0  0  0  0  0  0
  -30.2336  -13.9133   20.6477 F   0  0  0  0  0  0  0  0  0  0  0  0
  -20.7254  -20.1154   29.6489 F   0  0  0  0  0  0  0  0  0  0  0  0
  -30.6823  -16.6004   20.5926 F   0  0  0  0  0  0  0  0  0  0  0  0
  1  2  1  0  0  0  0
  1  5  2  0  0  0  0
  2  6  2  0  0  0  0
  3  8  2  0  0  0  0
  3 17  1  0  0  0  0
  4  9  1  0  0  0  0
  4 17  2  0  0  0  0
  5 19  1  0  0  0  0
  6 21  1  0  0  0  0
  7 10  2  0  0  0  0
  7 20  1  0  0  0  0
  8 25  1  0  0  0  0
  9 25  2  0  0  0  0
 10 26  1  0  0  0  0
 11 12  2  0  0  0  0
 11 27  1  0  0  0  0
 12 28  1  0  0  0  0
 13 22  1  0  0  0  0
 13 26  2  0  0  0  0
 14 23  2  0  0  0  0
 14 24  1  0  0  0  0
 15 23  1  0  0  0  0
 15 29  2  0  0  0  0
 16 28  2  0  0  0  0
 16 30  1  0  0  0  0
 17 32  1  0  0  0  0
 18 32  1  0  0  0  0
 18 33  2  0  0  0  0
 18 34  1  0  0  0  0
 19 21  2  0  0  0  0
 19 41  1  0  0  0  0
 20 22  2  0  0  0  0
 20 42  1  0  0  0  0
 21 50  1  0  0  0  0
 22 43  1  0  0  0  0
 23 70  1  0  0  0  0
 24 31  2  0  0  0  0
 24 71  1  0  0  0  0
 25 82  1  0  0  0  0
 26 83  1  0  0  0  0
 27 30  2  0  0  0  0
 27 82  1  0  0  0  0
 28 84  1  0  0  0  0
 29 31  1  0  0  0  0
 29 85  1  0  0  0  0
 30 86  1  0  0  0  0
 31 87  1  0  0  0  0
 32 64  2  0  0  0  0
 33 65  1  0  0  0  0
 33 68  1  0  0  0  0
 34 69  1  0  0  0  0
 34 75  2  0  0  0  0
 35 51  1  0  0  0  0
 35 72  1  0  0  0  0
 35 76  2  0  0  0  0
 36 58  1  0  0  0  0
 36 59  1  0  0  0  0
 36 77  2  0  0  0  0
 37 58  1  0  0  0  0
 37 60  1  0  0  0  0
 37 78  2  0  0  0  0
 38 61  1  0  0  0  0
 38 66  1  0  0  0  0
 38 79  2  0  0  0  0
 39 62  1  0  0  0  0
 39 73  1  0  0  0  0
 39 80  2  0  0  0  0
 40 67  1  0  0  0  0
 40 70  1  0  0  0  0
 40 81  2  0  0  0  0
 41 44  1  0  0  0  0
 42 51  1  0  0  0  0
 43 66  1  0  0  0  0
 44 46  1  0  0  0  0
 45 47  1  0  0  0  0
 45 48  1  0  0  0  0
 46 50  1  0  0  0  0
 47 52  1  0  0  0  0
 48 67  1  0  0  0  0
 49 52  1  0  0  0  0
 49 67  1  0  0  0  0
 50 72  1  0  0  0  0
 51 66  1  0  0  0  0
 52 65  1  0  0  0  0
 53 62  1  0  0  0  0
 54 63  1  0  0  0  0
 55 63  1  0  0  0  0
 56 63  1  0  0  0  0
 57 74  1  0  0  0  0
 59 71  1  0  0  0  0
 60 83  1  0  0  0  0
 61 63  1  0  0  0  0
 61 73  1  0  0  0  0
 62 74  1  0  0  0  0
 64 65  1  0  0  0  0
M  CHG  1  74   1
M  ISO  4  40 100  60 101  70 100  83 101
M  END
> <Batch ID>
0173

> <Smiles>
CNC(C)C(=O)NC(C(=O)N1Cc2cc([101O:1][101CH2:1]C(=O)CC(=O)CNc3cc([100NH:0][100C:0](=O)N4CCCC(n5nc(-c6ccc(Oc7ccc(F)cc7F)cc6)c(C(N)=O)c5N)C4)cc(F)c3F)ccc2CC1C(=O)NC1CCCc2ccccc21)C(C)(C)C

> <Shape>
0.263

> <Color>
0.081

> <Negative vol penalty>
0.000

$$$$

  -OEChem-04052304293D

 85 93  0     1  0  0  0  0  0999 V2000
  -18.2186  -23.7041   24.7349 C   0  0  0  0  0  0  0  0  0  0  0  0
  -19.4678  -23.5280   24.1485 C   0  0  0  0  0  0  0  0  0  0  0  0
  -22.9530   -9.9554   20.8035 C   0  0  0  0  0  0  0  0  0  0  0  0
  -23.7041  -10.5034   23.0334 C   0  0  0  0  0  0  0  0  0  0  0  0
  -17.7389  -24.9904   24.9779 C   0  0  0  0  0  0  0  0  0  0  0  0
  -20.2377  -24.6384   23.8038 C   0  0  0  0  0  0  0  0  0  0  0  0
  -26.3410  -25.0963   24.0175 C   0  0  0  0  0  0  0  0  0  0  0  0
  -22.1697   -8.9237   21.3209 C   0  0  0  0  0  0  0  0  0  0  0  0
  -22.9208   -9.4717   23.5508 C   0  0  0  0  0  0  0  0  0  0  0  0
  -27.3258  -24.9723   23.0384 C   0  0  0  0  0  0  0  0  0  0  0  0
  -19.1909   -8.6035   22.8884 C   0  0  0  0  0  0  0  0  0  0  0  0
  -17.8850   -8.4805   22.4139 C   0  0  0  0  0  0  0  0  0  0  0  0
  -27.3377  -27.3679   22.7555 C   0  0  0  0  0  0  0  0  0  0  0  0
  -18.3839   -6.2547   21.6177 C   0  0  0  0  0  0  0  0  0  0  0  0
  -29.9069  -19.4558   20.8894 C   0  0  0  0  0  0  0  0  0  0  0  0
  -31.2736  -17.4656   19.6177 C   0  0  0  0  0  0  0  0  0  0  0  0
  -23.7202  -10.7452   21.6598 C   0  0  0  0  0  0  0  0  0  0  0  0
  -24.1474  -13.1507   20.9256 C   0  0  0  0  0  0  0  0  0  0  0  0
  -18.5074  -26.1170   24.6448 C   0  0  0  0  0  0  0  0  0  0  0  0
  -25.8385  -26.3583   24.3657 C   0  0  0  0  0  0  0  0  0  0  0  0
  -19.7673  -25.9410   24.0413 C   0  0  0  0  0  0  0  0  0  0  0  0
  -26.3484  -27.5055   23.7411 C   0  0  0  0  0  0  0  0  0  0  0  0
  -30.3621  -17.1120   20.5995 C   0  0  0  0  0  0  0  0  0  0  0  0
  -22.1536   -8.6818   22.6945 C   0  0  0  0  0  0  0  0  0  0  0  0
  -27.8222  -26.1079   22.4052 C   0  0  0  0  0  0  0  0  0  0  0  0
  -20.0934   -7.5520   22.7275 C   0  0  0  0  0  0  0  0  0  0  0  0
  -17.4815   -7.3061   21.7786 C   0  0  0  0  0  0  0  0  0  0  0  0
  -19.6898   -6.3777   22.0922 C   0  0  0  0  0  0  0  0  0  0  0  0
  -29.6699  -18.1320   21.2427 C   0  0  0  0  0  0  0  0  0  0  0  0
  -24.5299  -11.8108   21.1259 C   0  0  0  0  0  0  0  0  0  0  0  0
  -30.8388  -19.7045   19.8947 C   0  0  0  0  0  0  0  0  0  0  0  0
  -25.2655  -13.7524   20.4020 C   0  0  0  0  0  0  0  0  0  0  0  0
  -22.8935  -13.7939   21.1894 C   0  0  0  0  0  0  0  0  0  0  0  0
  -30.8743  -23.4293   19.5562 C   0  0  0  0  0  0  0  0  0  0  0  0
  -30.2826  -24.7316   20.0591 C   0  0  0  0  0  0  0  0  0  0  0  0
  -22.9834  -27.7496   24.2369 C   0  0  0  0  0  0  0  0  0  0  0  0
  -24.5074  -30.1365   25.8189 C   0  0  0  0  0  0  0  0  0  0  0  0
  -27.4464  -31.7016   26.5669 C   0  0  0  0  0  0  0  0  0  0  0  0
  -30.7632  -14.6348   20.3790 C   0  0  0  0  0  0  0  0  0  0  0  0
  -17.9266  -27.4883   24.8833 C   0  0  0  0  0  0  0  0  0  0  0  0
  -24.7954  -26.4774   25.4428 C   0  0  0  0  0  0  0  0  0  0  0  0
  -25.8569  -28.8849   24.0932 C   0  0  0  0  0  0  0  0  0  0  0  0
  -18.9643  -28.6067   24.8314 C   0  0  0  0  0  0  0  0  0  0  0  0
  -29.5769  -11.7482   18.6650 C   0  0  0  0  0  0  0  0  0  0  0  0
  -19.8667  -28.4415   23.6128 C   0  0  0  0  0  0  0  0  0  0  0  0
  -28.1266  -11.6174   19.1360 C   0  0  0  0  0  0  0  0  0  0  0  0
  -30.4947  -12.2370   19.7841 C   0  0  0  0  0  0  0  0  0  0  0  0
  -28.6081  -13.3398   20.9216 C   0  0  0  0  0  0  0  0  0  0  0  0
  -20.6425  -27.1202   23.6758 C   0  0  1  0  0  0  0  0  0  0  0  0
  -23.9889  -27.7692   25.3533 C   0  0  1  0  0  0  0  0  0  0  0  0
  -27.6344  -12.9125   19.8112 C   0  0  2  0  0  0  0  0  0  0  0  0
  -28.3699  -33.6475   27.8545 C   0  0  0  0  0  0  0  0  0  0  0  0
  -23.5070  -32.0403   23.6545 C   0  0  0  0  0  0  0  0  0  0  0  0
  -25.1987  -33.7106   24.4396 C   0  0  0  0  0  0  0  0  0  0  0  0
  -23.3900  -32.9513   25.9806 C   0  0  0  0  0  0  0  0  0  0  0  0
  -29.0891  -29.9359   28.2824 C   0  0  0  0  0  0  0  0  0  0  0  0
  -30.3875  -22.1428   20.1714 C   0  0  0  0  0  0  0  0  0  0  0  0
  -29.2368  -24.6716   21.1435 C   0  0  0  0  0  0  0  0  0  1  0  0
  -25.2773  -31.3689   25.4098 C   0  0  1  0  0  0  0  0  0  0  0  0
  -28.0331  -32.1648   27.8881 C   0  0  2  0  0  0  0  0  0  0  0  0
  -24.3514  -32.4918   24.8629 C   0  0  0  0  0  0  0  0  0  0  0  0
  -31.5307  -18.7401   19.2473 N   0  0  0  0  0  0  0  0  0  0  0  0
  -25.7924  -11.5747   20.7592 N   0  0  0  0  0  0  0  0  0  0  0  0
  -26.2128  -12.7744   20.3232 N   0  0  0  0  0  0  0  0  0  0  0  0
  -24.8319  -28.9488   25.1481 N   0  0  0  0  0  0  0  0  0  0  0  0
  -29.9675  -13.4696   20.3739 N   0  0  0  0  0  0  0  0  0  0  0  0
  -25.5210  -15.0174   20.0058 N   0  0  0  0  0  0  0  0  0  0  0  0
  -21.8502  -13.0286   21.7281 N   0  0  0  0  0  0  0  0  0  0  0  0
  -30.1443  -15.7531   20.9366 N   0  0  0  0  0  0  0  0  0  0  0  0
  -31.0640  -21.0294   19.5530 N   0  0  0  0  0  0  0  0  0  0  0  0
  -21.7542  -27.2303   24.5959 N   0  0  0  0  0  0  0  0  0  0  0  0
  -26.0688  -31.7600   26.5713 N   0  0  0  0  0  0  0  0  0  0  0  0
  -29.2787  -31.4068   28.1959 N   0  3  0  0  0  0  0  0  0  0  0  0
  -22.6986  -15.0076   20.9391 O   0  0  0  0  0  0  0  0  0  0  0  0
  -31.7199  -23.5062   18.6737 O   0  0  0  0  0  0  0  0  0  0  0  0
  -30.6885  -25.7689   19.5510 O   0  0  0  0  0  0  0  0  0  0  0  0
  -23.2990  -28.1755   23.1321 O   0  0  0  0  0  0  0  0  0  0  0  0
  -23.6547  -30.2229   26.7060 O   0  0  0  0  0  0  0  0  0  0  0  0
  -28.1409  -31.3289   25.6238 O   0  0  0  0  0  0  0  0  0  0  0  0
  -31.8990  -14.6471   19.8977 O   0  0  0  0  0  0  0  0  0  0  0  0
  -21.3893   -7.6753   23.1997 O   0  0  0  0  0  0  0  0  0  0  0  0
  -28.7830  -25.9897   21.4487 O   0  0  0  0  0  0  0  0  0  1  0  0
  -16.2270   -7.1876   21.3244 F   0  0  0  0  0  0  0  0  0  0  0  0
  -20.5519   -5.3637   21.9357 F   0  0  0  0  0  0  0  0  0  0  0  0
  -28.7758  -17.8509   22.2011 F   0  0  0  0  0  0  0  0  0  0  0  0
  1  2  1  0  0  0  0
  1  5  2  0  0  0  0
  2  6  2  0  0  0  0
  3  8  2  0  0  0  0
  3 17  1  0  0  0  0
  4  9  1  0  0  0  0
  4 17  2  0  0  0  0
  5 19  1  0  0  0  0
  6 21  1  0  0  0  0
  7 10  2  0  0  0  0
  7 20  1  0  0  0  0
  8 24  1  0  0  0  0
  9 24  2  0  0  0  0
 10 25  1  0  0  0  0
 11 12  2  0  0  0  0
 11 26  1  0  0  0  0
 12 27  1  0  0  0  0
 13 22  1  0  0  0  0
 13 25  2  0  0  0  0
 14 27  2  0  0  0  0
 14 28  1  0  0  0  0
 15 29  2  0  0  0  0
 15 31  1  0  0  0  0
 16 23  2  0  0  0  0
 16 62  1  0  0  0  0
 17 30  1  0  0  0  0
 18 30  1  0  0  0  0
 18 32  2  0  0  0  0
 18 33  1  0  0  0  0
 19 21  2  0  0  0  0
 19 40  1  0  0  0  0
 20 22  2  0  0  0  0
 20 41  1  0  0  0  0
 21 49  1  0  0  0  0
 22 42  1  0  0  0  0
 23 29  1  0  0  0  0
 23 69  1  0  0  0  0
 24 81  1  0  0  0  0
 25 82  1  0  0  0  0
 26 28  2  0  0  0  0
 26 81  1  0  0  0  0
 27 83  1  0  0  0  0
 28 84  1  0  0  0  0
 29 85  1  0  0  0  0
 30 63  2  0  0  0  0
 31 62  2  0  0  0  0
 31 70  1  0  0  0  0
 32 64  1  0  0  0  0
 32 67  1  0  0  0  0
 33 68  1  0  0  0  0
 33 74  2  0  0  0  0
 34 35  1  0  0  0  0
 34 57  1  0  0  0  0
 34 75  2  0  0  0  0
 35 58  1  0  0  0  0
 35 76  2  0  0  0  0
 36 50  1  0  0  0  0
 36 71  1  0  0  0  0
 36 77  2  0  0  0  0
 37 59  1  0  0  0  0
 37 65  1  0  0  0  0
 37 78  2  0  0  0  0
 38 60  1  0  0  0  0
 38 72  1  0  0  0  0
 38 79  2  0  0  0  0
 39 66  1  0  0  0  0
 39 69  1  0  0  0  0
 39 80  2  0  0  0  0
 40 43  1  0  0  0  0
 41 50  1  0  0  0  0
 42 65  1  0  0  0  0
 43 45  1  0  0  0  0
 44 46  1  0  0  0  0
 44 47  1  0  0  0  0
 45 49  1  0  0  0  0
 46 51  1  0  0  0  0
 47 66  1  0  0  0  0
 48 51  1  0  0  0  0
 48 66  1  0  0  0  0
 49 71  1  0  0  0  0
 50 65  1  0  0  0  0
 51 64  1  0  0  0  0
 52 60  1  0  0  0  0
 53 61  1  0  0  0  0
 54 61  1  0  0  0  0
 55 61  1  0  0  0  0
 56 73  1  0  0  0  0
 57 70  1  0  0  0  0
 58 82  1  0  0  0  0
 59 61  1  0  0  0  0
 59 72  1  0  0  0  0
 60 73  1  0  0  0  0
 63 64  1  0  0  0  0
M  CHG  1  73   1
M  ISO  4  39 100  58 101  69 100  82 101
M  END
> <Batch ID>
0173

> <Smiles>
CNC(C)C(=O)NC(C(=O)N1Cc2cc([101O:1][101CH2:1]C(=O)C(=O)CNc3cc(F)c([100NH:0][100C:0](=O)N4CCCC(n5nc(-c6ccc(Oc7ccc(F)cc7F)cc6)c(C(N)=O)c5N)C4)cn3)ccc2CC1C(=O)NC1CCCc2ccccc21)C(C)(C)C

> <Shape>
0.278

> <Color>
0.181

> <Negative vol penalty>
0.000

$$$$

  -OEChem-04052304293D

 89 98  0     1  0  0  0  0  0999 V2000
  -23.1402  -25.7121   19.0413 C   0  0  0  0  0  0  0  0  0  0  0  0
  -23.8463  -24.5134   19.0328 C   0  0  0  0  0  0  0  0  0  0  0  0
  -26.5083  -28.5873   19.0726 C   0  0  0  0  0  0  0  0  0  0  0  0
  -26.3159  -27.4854   21.2140 C   0  0  0  0  0  0  0  0  0  0  0  0
  -22.0018  -25.8436   19.8354 C   0  0  0  0  0  0  0  0  0  0  0  0
  -23.4149  -23.4458   19.8192 C   0  0  0  0  0  0  0  0  0  0  0  0
  -23.7874  -17.4859   18.4602 C   0  0  0  0  0  0  0  0  0  0  0  0
  -25.4930  -29.4718   19.4365 C   0  0  0  0  0  0  0  0  0  0  0  0
  -25.3007  -28.3700   21.5780 C   0  0  0  0  0  0  0  0  0  0  0  0
  -24.6950  -16.4944   18.8303 C   0  0  0  0  0  0  0  0  0  0  0  0
  -25.0513  -31.5515   22.6898 C   0  0  0  0  0  0  0  0  0  0  0  0
  -25.1068  -32.1093   23.9671 C   0  0  0  0  0  0  0  0  0  0  0  0
  -23.2141  -15.8105   20.6075 C   0  0  0  0  0  0  0  0  0  0  0  0
  -22.9638  -31.1241   24.4905 C   0  0  0  0  0  0  0  0  0  0  0  0
  -30.5338  -19.5146   22.0025 C   0  0  0  0  0  0  0  0  0  0  0  0
  -26.9197  -27.5940   19.9613 C   0  0  0  0  0  0  0  0  0  0  0  0
  -29.3511  -26.8406   19.7930 C   0  0  0  0  0  0  0  0  0  0  0  0
  -21.5507  -24.7738   20.6246 C   0  0  0  0  0  0  0  0  0  0  0  0
  -22.5892  -17.6545   19.1691 C   0  0  0  0  0  0  0  0  0  0  0  0
  -22.2701  -23.5635   20.6256 C   0  0  0  0  0  0  0  0  0  0  0  0
  -22.2918  -16.8032   20.2428 C   0  0  0  0  0  0  0  0  0  0  0  0
  -24.8892  -29.3632   20.6892 C   0  0  0  0  0  0  0  0  0  0  0  0
  -24.4098  -15.6584   19.9058 C   0  0  0  0  0  0  0  0  0  0  0  0
  -23.9520  -30.7800   22.3129 C   0  0  0  0  0  0  0  0  0  0  0  0
  -24.0631  -31.8956   24.8674 C   0  0  0  0  0  0  0  0  0  0  0  0
  -22.9083  -30.5663   23.2132 C   0  0  0  0  0  0  0  0  0  0  0  0
  -27.9680  -26.6797   19.5857 C   0  0  0  0  0  0  0  0  0  0  0  0
  -31.1703  -18.5103   22.7028 C   0  0  0  0  0  0  0  0  0  0  0  0
  -30.0859  -19.1726   20.7428 C   0  0  0  0  0  0  0  0  0  0  0  0
  -29.9125  -25.7059   19.2605 C   0  0  0  0  0  0  0  0  0  0  0  0
  -30.8781  -17.0554   20.9810 C   0  0  0  0  0  0  0  0  0  0  0  0
  -30.0646  -27.9194   20.4117 C   0  0  0  0  0  0  0  0  0  0  0  0
  -21.3090  -20.0050   20.8837 C   0  0  0  0  0  0  0  0  0  0  0  0
  -27.5406  -14.2331   21.0430 C   0  0  0  0  0  0  0  0  0  0  0  0
  -18.7392  -18.0269   20.9569 C   0  0  0  0  0  0  0  0  0  0  0  0
  -17.5244  -14.8457   20.7308 C   0  0  0  0  0  0  0  0  0  0  0  0
  -28.8954  -20.0477   18.7024 C   0  0  0  0  0  0  0  0  0  0  0  0
  -20.3418  -24.9788   21.5028 C   0  0  0  0  0  0  0  0  0  0  0  0
  -21.6085  -18.7114   18.7406 C   0  0  0  0  0  0  0  0  0  0  0  0
  -21.0101  -16.9297   21.0237 C   0  0  0  0  0  0  0  0  0  0  0  0
  -19.7369  -23.6763   22.0203 C   0  0  0  0  0  0  0  0  0  0  0  0
  -28.4471  -22.3013   15.9825 C   0  0  0  0  0  0  0  0  0  0  0  0
  -30.6424  -13.7489   18.1960 C   0  0  0  0  0  0  0  0  0  0  0  0
  -20.8296  -22.7552   22.5537 C   0  0  0  0  0  0  0  0  0  0  0  0
  -32.0023  -14.3932   18.4077 C   0  0  0  0  0  0  0  0  0  0  0  0
  -28.4129  -23.6765   16.6531 C   0  0  0  0  0  0  0  0  0  0  0  0
  -27.7623  -21.2364   16.8374 C   0  0  0  0  0  0  0  0  0  0  0  0
  -28.2123  -22.5202   18.8913 C   0  0  0  0  0  0  0  0  0  0  0  0
  -29.8955  -13.6149   19.5079 C   0  0  0  0  0  0  0  0  0  0  0  0
  -21.8194  -22.3744   21.4461 C   0  0  1  0  0  0  0  0  0  0  0  0
  -31.0718  -15.6833   20.4101 C   0  0  2  0  0  0  0  0  0  0  0  0
  -20.6535  -19.1274   19.8552 C   0  0  1  0  0  0  0  0  0  0  0  0
  -31.8741  -15.7674   19.0799 C   0  0  1  0  0  0  0  0  0  0  0  0
  -28.9470  -23.6127   18.0974 C   0  0  2  0  0  0  0  0  0  0  0  0
  -33.2805  -16.3429   19.2987 C   0  0  0  0  0  0  0  0  0  0  0  0
  -15.3867  -13.5388   20.8708 C   0  0  0  0  0  0  0  0  0  0  0  0
  -18.7790  -18.2921   23.9963 C   0  0  0  0  0  0  0  0  0  0  0  0
  -17.2921  -16.2817   24.1216 C   0  0  0  0  0  0  0  0  0  0  0  0
  -16.4974  -18.3491   22.9740 C   0  0  0  0  0  0  0  0  0  0  0  0
  -17.7903  -13.8901   17.9424 C   0  0  0  0  0  0  0  0  0  0  0  0
  -28.8638  -14.8699   21.3772 C   0  0  0  0  0  0  0  0  0  0  0  0
  -26.6763  -14.9478   20.0244 C   0  0  0  0  0  0  0  0  0  1  0  0
  -18.2671  -16.9209   21.8695 C   0  0  1  0  0  0  0  0  0  0  0  0
  -16.3567  -14.2664   19.9528 C   0  0  2  0  0  0  0  0  0  0  0  0
  -17.7340  -17.4596   23.2270 C   0  0  0  0  0  0  0  0  0  0  0  0
  -27.6690  -25.5330   18.9694 N   0  0  0  0  0  0  0  0  0  0  0  0
  -31.3604  -17.2646   22.2207 N   0  0  0  0  0  0  0  0  0  0  0  0
  -30.2418  -17.9479   20.1986 N   0  0  0  0  0  0  0  0  0  0  0  0
  -28.8721  -24.9633   18.7848 N   0  0  0  0  0  0  0  0  0  0  0  0
  -20.0861  -17.9824   20.5701 N   0  0  0  0  0  0  0  0  0  0  0  0
  -28.3225  -21.2312   18.1905 N   0  0  0  0  0  0  0  0  0  0  0  0
  -31.6438  -18.8199   24.0015 N   0  0  0  0  0  0  0  0  0  0  0  0
  -31.1896  -25.2808   19.1573 N   0  0  0  0  0  0  0  0  0  0  0  0
  -29.3330  -29.0082   20.9054 N   0  0  0  0  0  0  0  0  0  0  0  0
  -29.4250  -20.1720   19.9864 N   0  0  0  0  0  0  0  0  0  0  0  0
  -21.2525  -21.3542   20.5904 N   0  0  0  0  0  0  0  0  0  0  0  0
  -17.2900  -16.1515   21.1067 N   0  0  0  0  0  0  0  0  0  0  0  0
  -29.7083  -14.9760   20.1670 N   0  3  2  0  0  0  0  0  0  0  0  0
  -16.8452  -13.3025   18.9265 N   0  3  0  0  0  0  0  0  0  0  0  0
  -31.3152  -27.9255   20.5088 O   0  0  0  0  0  0  0  0  0  0  0  0
  -21.8265  -19.4959   21.8710 O   0  0  0  0  0  0  0  0  0  0  0  0
  -27.1801  -13.1932   21.5941 O   0  0  0  0  0  0  0  0  0  0  0  0
  -17.9405  -18.8944   20.5947 O   0  0  0  0  0  0  0  0  0  0  0  0
  -18.5411  -14.2030   20.9831 O   0  0  0  0  0  0  0  0  0  0  0  0
  -28.9392  -19.0084   18.0392 O   0  0  0  0  0  0  0  0  0  0  0  0
  -23.8987  -30.2263   21.0447 O   0  0  0  0  0  0  0  0  0  0  0  0
  -25.2943  -14.6903   20.2695 O   0  0  0  0  0  0  0  0  0  1  0  0
  -24.1173  -32.4300   26.0945 F   0  0  0  0  0  0  0  0  0  0  0  0
  -21.8501  -29.8251   22.8572 F   0  0  0  0  0  0  0  0  0  0  0  0
  1  2  1  0  0  0  0
  1  5  2  0  0  0  0
  2  6  2  0  0  0  0
  3  8  2  0  0  0  0
  3 16  1  0  0  0  0
  4  9  1  0  0  0  0
  4 16  2  0  0  0  0
  5 18  1  0  0  0  0
  6 20  1  0  0  0  0
  7 10  2  0  0  0  0
  7 19  1  0  0  0  0
  8 22  1  0  0  0  0
  9 22  2  0  0  0  0
 10 23  1  0  0  0  0
 11 12  2  0  0  0  0
 11 24  1  0  0  0  0
 12 25  1  0  0  0  0
 13 21  1  0  0  0  0
 13 23  2  0  0  0  0
 14 25  2  0  0  0  0
 14 26  1  0  0  0  0
 15 28  1  0  0  0  0
 15 29  2  0  0  0  0
 16 27  1  0  0  0  0
 17 27  1  0  0  0  0
 17 30  2  0  0  0  0
 17 32  1  0  0  0  0
 18 20  2  0  0  0  0
 18 38  1  0  0  0  0
 19 21  2  0  0  0  0
 19 39  1  0  0  0  0
 20 50  1  0  0  0  0
 21 40  1  0  0  0  0
 22 86  1  0  0  0  0
 23 87  1  0  0  0  0
 24 26  2  0  0  0  0
 24 86  1  0  0  0  0
 25 88  1  0  0  0  0
 26 89  1  0  0  0  0
 27 66  2  0  0  0  0
 28 67  2  0  0  0  0
 28 72  1  0  0  0  0
 29 68  1  0  0  0  0
 29 75  1  0  0  0  0
 30 69  1  0  0  0  0
 30 73  1  0  0  0  0
 31 51  1  0  0  0  0
 31 67  1  0  0  0  0
 31 68  2  0  0  0  0
 32 74  1  0  0  0  0
 32 80  2  0  0  0  0
 33 52  1  0  0  0  0
 33 76  1  0  0  0  0
 33 81  2  0  0  0  0
 34 61  1  0  0  0  0
 34 62  1  0  0  0  0
 34 82  2  0  0  0  0
 35 63  1  0  0  0  0
 35 70  1  0  0  0  0
 35 83  2  0  0  0  0
 36 64  1  0  0  0  0
 36 77  1  0  0  0  0
 36 84  2  0  0  0  0
 37 71  1  0  0  0  0
 37 75  1  0  0  0  0
 37 85  2  0  0  0  0
 38 41  1  0  0  0  0
 39 52  1  0  0  0  0
 40 70  1  0  0  0  0
 41 44  1  0  0  0  0
 42 46  1  0  0  0  0
 42 47  1  0  0  0  0
 43 45  1  0  0  0  0
 43 49  1  0  0  0  0
 44 50  1  0  0  0  0
 45 53  1  0  0  0  0
 46 54  1  0  0  0  0
 47 71  1  0  0  0  0
 48 54  1  0  0  0  0
 48 71  1  0  0  0  0
 49 78  1  0  0  0  0
 50 76  1  0  0  0  0
 51 53  1  0  0  0  0
 51 78  1  0  0  0  0
 52 70  1  0  0  0  0
 53 55  1  0  0  0  0
 54 69  1  0  0  0  0
 56 64  1  0  0  0  0
 57 65  1  0  0  0  0
 58 65  1  0  0  0  0
 59 65  1  0  0  0  0
 60 79  1  0  0  0  0
 61 78  1  0  0  0  0
 62 87  1  0  0  0  0
 63 65  1  0  0  0  0
 63 77  1  0  0  0  0
 64 79  1  0  0  0  0
 66 69  1  0  0  0  0
M  CHG  2  78   1  79   1
M  ISO  4  37 100  62 101  75 100  87 101
M  END
> <Batch ID>
0173

> <Smiles>
CNC(C)C(=O)NC(C(=O)N1Cc2cc([101O:1][101CH2:1]C(=O)CN3CCCC(C)C3c3nc(N)cc([100NH:0][100C:0](=O)N4CCCC(n5nc(-c6ccc(Oc7ccc(F)cc7F)cc6)c(C(N)=O)c5N)C4)n3)ccc2CC1C(=O)NC1CCCc2ccccc21)C(C)(C)C

> <Shape>
0.212

> <Color>
0.057

> <Negative vol penalty>
0.000

$$$$

  -OEChem-04052304293D

 87 95  0     1  0  0  0  0  0999 V2000
  -18.1394  -26.9166   23.0806 C   0  0  0  0  0  0  0  0  0  0  0  0
  -18.6656  -26.4891   21.8658 C   0  0  0  0  0  0  0  0  0  0  0  0
  -26.3739  -14.7817   21.9123 C   0  0  0  0  0  0  0  0  0  0  0  0
  -26.1496  -14.3486   19.5461 C   0  0  0  0  0  0  0  0  0  0  0  0
  -18.7978  -27.9010   23.8164 C   0  0  0  0  0  0  0  0  0  0  0  0
  -19.8500  -27.0467   21.3855 C   0  0  0  0  0  0  0  0  0  0  0  0
  -24.2196  -24.2030   18.1720 C   0  0  0  0  0  0  0  0  0  0  0  0
  -25.4046  -13.8153   22.1811 C   0  0  0  0  0  0  0  0  0  0  0  0
  -25.1803  -13.3822   19.8148 C   0  0  0  0  0  0  0  0  0  0  0  0
  -24.4981  -24.1535   16.8068 C   0  0  0  0  0  0  0  0  0  0  0  0
  -21.8922  -13.3020   20.5976 C   0  0  0  0  0  0  0  0  0  0  0  0
  -20.7373  -13.3075   19.8156 C   0  0  0  0  0  0  0  0  0  0  0  0
  -31.3214  -21.0317   13.2428 C   0  0  0  0  0  0  0  0  0  0  0  0
  -30.6754  -21.6456   12.1432 C   0  0  0  0  0  0  0  0  0  0  0  0
  -26.1069  -25.9306   17.0767 C   0  0  0  0  0  0  0  0  0  0  0  0
  -21.2302  -11.0623   19.0717 C   0  0  0  0  0  0  0  0  0  0  0  0
  -26.7464  -15.0484   20.5948 C   0  0  0  0  0  0  0  0  0  0  0  0
  -29.1381  -15.8526   20.2201 C   0  0  0  0  0  0  0  0  0  0  0  0
  -19.9960  -28.4640   23.3495 C   0  0  0  0  0  0  0  0  0  0  0  0
  -24.8759  -25.1257   18.9993 C   0  0  0  0  0  0  0  0  0  0  0  0
  -20.5243  -28.0405   22.1150 C   0  0  0  0  0  0  0  0  0  0  0  0
  -25.8368  -25.9881   18.4525 C   0  0  0  0  0  0  0  0  0  0  0  0
  -24.8078  -13.1156   21.1323 C   0  0  0  0  0  0  0  0  0  0  0  0
  -25.4397  -25.0194   16.2585 C   0  0  0  0  0  0  0  0  0  0  0  0
  -22.7162  -12.1766   20.6167 C   0  0  0  0  0  0  0  0  0  0  0  0
  -20.4062  -12.1877   19.0526 C   0  0  0  0  0  0  0  0  0  0  0  0
  -22.3852  -11.0568   19.8537 C   0  0  0  0  0  0  0  0  0  0  0  0
  -27.7472  -16.0469   20.3165 C   0  0  0  0  0  0  0  0  0  0  0  0
  -31.0879  -21.8463   14.3263 C   0  0  0  0  0  0  0  0  0  0  0  0
  -29.6407  -17.1004   19.9432 C   0  0  0  0  0  0  0  0  0  0  0  0
  -30.0931  -22.7914   12.6332 C   0  0  0  0  0  0  0  0  0  0  0  0
  -29.9071  -14.6515   20.3675 C   0  0  0  0  0  0  0  0  0  0  0  0
  -23.9504  -27.5645   20.8157 C   0  0  0  0  0  0  0  0  0  0  0  0
  -27.4237  -24.6094   13.2487 C   0  0  0  0  0  0  0  0  0  0  0  0
  -27.0704  -27.5812   21.7035 C   0  0  0  0  0  0  0  0  0  0  0  0
  -30.3013  -26.7811   20.9500 C   0  0  0  0  0  0  0  0  0  0  0  0
  -29.4309  -21.9185   17.1348 C   0  0  0  0  0  0  0  0  0  0  0  0
  -20.6467  -29.5590   24.1571 C   0  0  0  0  0  0  0  0  0  0  0  0
  -24.5837  -25.1482   20.4746 C   0  0  0  0  0  0  0  0  0  0  0  0
  -26.5838  -26.9832   19.3012 C   0  0  0  0  0  0  0  0  0  0  0  0
  -22.0949  -29.8314   23.7585 C   0  0  0  0  0  0  0  0  0  0  0  0
  -27.4212  -21.6443   20.0610 C   0  0  0  0  0  0  0  0  0  0  0  0
  -22.2226  -29.9235   22.2412 C   0  0  0  0  0  0  0  0  0  0  0  0
  -27.4366  -20.1475   20.3763 C   0  0  0  0  0  0  0  0  0  0  0  0
  -27.4021  -21.9038   18.5562 C   0  0  0  0  0  0  0  0  0  0  0  0
  -28.4916  -19.7379   18.1141 C   0  0  0  0  0  0  0  0  0  0  0  0
  -21.8201  -28.6035   21.5726 C   0  0  1  0  0  0  0  0  0  0  0  0
  -24.9380  -26.4777   21.1337 C   0  0  1  0  0  0  0  0  0  0  0  0
  -28.5676  -19.4264   19.6186 C   0  0  2  0  0  0  0  0  0  0  0  0
  -32.6358  -26.9547   21.8540 C   0  0  0  0  0  0  0  0  0  0  0  0
  -34.0088  -22.6994   17.5196 C   0  0  0  0  0  0  0  0  0  0  0  0
  -32.6557  -20.8211   18.4488 C   0  0  0  0  0  0  0  0  0  0  0  0
  -34.8537  -20.3454   17.3659 C   0  0  0  0  0  0  0  0  0  0  0  0
  -27.1386  -30.5378   20.9526 C   0  0  0  0  0  0  0  0  0  0  0  0
  -29.6390  -30.4108   20.9617 C   0  0  0  0  0  0  0  0  0  0  0  0
  -28.3618  -29.9677   23.0581 C   0  0  0  0  0  0  0  0  0  0  0  0
  -30.6222  -23.8395   21.0071 C   0  0  0  0  0  0  0  0  0  0  0  0
  -28.8038  -24.9261   12.7130 C   0  0  0  0  0  0  0  0  0  0  0  0
  -27.0323  -25.3359   14.5209 C   0  0  0  0  0  0  0  0  0  1  0  0
  -32.8361  -21.0283   15.9587 C   0  0  0  0  0  0  0  0  0  0  0  0
  -31.4791  -21.7734   15.7409 C   0  0  2  0  0  0  0  0  0  0  0  0
  -28.3222  -28.2564   21.1976 C   0  0  1  0  0  0  0  0  0  0  0  0
  -31.3848  -26.0950   21.7623 C   0  0  2  0  0  0  0  0  0  0  0  0
  -33.6000  -21.2351   17.3003 C   0  0  0  0  0  0  0  0  0  0  0  0
  -28.3501  -29.7759   21.5259 C   0  0  0  0  0  0  0  0  0  0  0  0
  -27.3891  -17.3181   20.1173 N   0  0  0  0  0  0  0  0  0  0  0  0
  -28.5624  -17.9339   19.8930 N   0  0  0  0  0  0  0  0  0  0  0  0
  -26.2584  -26.9710   20.7370 N   0  0  0  0  0  0  0  0  0  0  0  0
  -28.5006  -21.1931   17.8973 N   0  0  0  0  0  0  0  0  0  0  0  0
  -30.8956  -17.5551   19.7404 N   0  0  0  0  0  0  0  0  0  0  0  0
  -29.2319  -13.4564   20.6510 N   0  0  0  0  0  0  0  0  0  0  0  0
  -29.3365  -23.7804   12.0211 N   0  0  0  0  0  0  0  0  0  0  0  0
  -22.8848  -27.6307   21.6929 N   0  0  0  0  0  0  0  0  0  0  0  0
  -29.4435  -27.5048   21.7511 N   0  0  0  0  0  0  0  0  0  0  0  0
  -30.4439  -21.1689   16.5495 N   0  0  0  0  0  0  0  0  0  0  0  0
  -31.7539  -24.7930   21.1382 N   0  3  0  0  0  0  0  0  0  0  0  0
  -31.1574  -14.6413   20.2676 O   0  0  0  0  0  0  0  0  0  0  0  0
  -24.1419  -28.2904   19.8471 O   0  0  0  0  0  0  0  0  0  0  0  0
  -26.6616  -23.8166   12.6969 O   0  0  0  0  0  0  0  0  0  0  0  0
  -26.8257  -27.5886   22.9125 O   0  0  0  0  0  0  0  0  0  0  0  0
  -30.2258  -26.6876   19.7269 O   0  0  0  0  0  0  0  0  0  0  0  0
  -29.3666  -23.1441   16.9909 O   0  0  0  0  0  0  0  0  0  0  0  0
  -30.3399  -22.9210   13.9632 O   0  0  0  0  0  0  0  0  0  0  0  0
  -23.8621  -12.1723   21.3942 O   0  0  0  0  0  0  0  0  0  0  0  0
  -25.7129  -24.9736   14.9261 O   0  0  0  0  0  0  0  0  0  1  0  0
  -19.2962  -12.1926   18.3029 F   0  0  0  0  0  0  0  0  0  0  0  0
  -23.1722   -9.9723   19.8689 F   0  0  0  0  0  0  0  0  0  0  0  0
  1  2  1  0  0  0  0
  1  5  2  0  0  0  0
  2  6  2  0  0  0  0
  3  8  2  0  0  0  0
  3 17  1  0  0  0  0
  4  9  1  0  0  0  0
  4 17  2  0  0  0  0
  5 19  1  0  0  0  0
  6 21  1  0  0  0  0
  7 10  2  0  0  0  0
  7 20  1  0  0  0  0
  8 23  1  0  0  0  0
  9 23  2  0  0  0  0
 10 24  1  0  0  0  0
 11 12  2  0  0  0  0
 11 25  1  0  0  0  0
 12 26  1  0  0  0  0
 13 14  1  0  0  0  0
 13 29  2  0  0  0  0
 14 31  2  0  0  0  0
 15 22  1  0  0  0  0
 15 24  2  0  0  0  0
 16 26  2  0  0  0  0
 16 27  1  0  0  0  0
 17 28  1  0  0  0  0
 18 28  1  0  0  0  0
 18 30  2  0  0  0  0
 18 32  1  0  0  0  0
 19 21  2  0  0  0  0
 19 38  1  0  0  0  0
 20 22  2  0  0  0  0
 20 39  1  0  0  0  0
 21 47  1  0  0  0  0
 22 40  1  0  0  0  0
 23 84  1  0  0  0  0
 24 85  1  0  0  0  0
 25 27  2  0  0  0  0
 25 84  1  0  0  0  0
 26 86  1  0  0  0  0
 27 87  1  0  0  0  0
 28 66  2  0  0  0  0
 29 61  1  0  0  0  0
 29 83  1  0  0  0  0
 30 67  1  0  0  0  0
 30 70  1  0  0  0  0
 31 72  1  0  0  0  0
 31 83  1  0  0  0  0
 32 71  1  0  0  0  0
 32 77  2  0  0  0  0
 33 48  1  0  0  0  0
 33 73  1  0  0  0  0
 33 78  2  0  0  0  0
 34 58  1  0  0  0  0
 34 59  1  0  0  0  0
 34 79  2  0  0  0  0
 35 62  1  0  0  0  0
 35 68  1  0  0  0  0
 35 80  2  0  0  0  0
 36 63  1  0  0  0  0
 36 74  1  0  0  0  0
 36 81  2  0  0  0  0
 37 69  1  0  0  0  0
 37 75  1  0  0  0  0
 37 82  2  0  0  0  0
 38 41  1  0  0  0  0
 39 48  1  0  0  0  0
 40 68  1  0  0  0  0
 41 43  1  0  0  0  0
 42 44  1  0  0  0  0
 42 45  1  0  0  0  0
 43 47  1  0  0  0  0
 44 49  1  0  0  0  0
 45 69  1  0  0  0  0
 46 49  1  0  0  0  0
 46 69  1  0  0  0  0
 47 73  1  0  0  0  0
 48 68  1  0  0  0  0
 49 67  1  0  0  0  0
 50 63  1  0  0  0  0
 51 64  1  0  0  0  0
 52 64  1  0  0  0  0
 53 64  1  0  0  0  0
 54 65  1  0  0  0  0
 55 65  1  0  0  0  0
 56 65  1  0  0  0  0
 57 76  1  0  0  0  0
 58 72  1  0  0  0  0
 59 85  1  0  0  0  0
 60 61  1  0  0  0  0
 60 64  1  0  0  0  0
 61 75  1  0  0  0  0
 62 65  1  0  0  0  0
 62 74  1  0  0  0  0
 63 76  1  0  0  0  0
 66 67  1  0  0  0  0
M  CHG  1  76   1
M  ISO  4  37 100  59 101  75 100  85 101
M  END
> <Batch ID>
0173

> <Smiles>
CNC(C)C(=O)NC(C(=O)N1Cc2cc([101O:1][101CH2:1]C(=O)CNc3ccc(C(CC(C)(C)C)[100NH:0][100C:0](=O)N4CCCC(n5nc(-c6ccc(Oc7ccc(F)cc7F)cc6)c(C(N)=O)c5N)C4)o3)ccc2CC1C(=O)NC1CCCc2ccccc21)C(C)(C)C

> <Shape>
0.240

> <Color>
0.047

> <Negative vol penalty>
0.000

$$$$

  -OEChem-04052304293D

 87 95  0     1  0  0  0  0  0999 V2000
  -37.5975  -17.6272   23.9577 C   0  0  0  0  0  0  0  0  0  0  0  0
  -36.8931  -18.2597   22.9383 C   0  0  0  0  0  0  0  0  0  0  0  0
  -23.0013  -10.0241   19.9150 C   0  0  0  0  0  0  0  0  0  0  0  0
  -23.7870   -9.9093   22.1968 C   0  0  0  0  0  0  0  0  0  0  0  0
  -37.0759  -17.5990   25.2504 C   0  0  0  0  0  0  0  0  0  0  0  0
  -35.6661  -18.8636   23.2109 C   0  0  0  0  0  0  0  0  0  0  0  0
  -33.4142  -23.9476   20.6442 C   0  0  0  0  0  0  0  0  0  0  0  0
  -22.2261   -8.8836   20.1244 C   0  0  0  0  0  0  0  0  0  0  0  0
  -23.0117   -8.7687   22.4063 C   0  0  0  0  0  0  0  0  0  0  0  0
  -32.5035  -24.1511   19.6083 C   0  0  0  0  0  0  0  0  0  0  0  0
  -23.1967   -5.4669   21.7029 C   0  0  0  0  0  0  0  0  0  0  0  0
  -23.7893   -4.3938   22.3683 C   0  0  0  0  0  0  0  0  0  0  0  0
  -30.7299  -24.3996   21.2245 C   0  0  0  0  0  0  0  0  0  0  0  0
  -29.4013  -19.6679   20.2716 C   0  0  0  0  0  0  0  0  0  0  0  0
  -31.7989  -18.2419   20.2911 C   0  0  0  0  0  0  0  0  0  0  0  0
  -22.1133   -4.5432   24.1020 C   0  0  0  0  0  0  0  0  0  0  0  0
  -23.7818  -10.5369   20.9511 C   0  0  0  0  0  0  0  0  0  0  0  0
  -24.1977  -13.0538   20.9355 C   0  0  0  0  0  0  0  0  0  0  0  0
  -35.8465  -18.2112   25.5410 C   0  0  0  0  0  0  0  0  0  0  0  0
  -32.9869  -23.9577   21.9798 C   0  0  0  0  0  0  0  0  0  0  0  0
  -35.1270  -18.8424   24.5084 C   0  0  0  0  0  0  0  0  0  0  0  0
  -31.6376  -24.1985   22.2756 C   0  0  0  0  0  0  0  0  0  0  0  0
  -29.5664  -18.5932   21.1453 C   0  0  0  0  0  0  0  0  0  0  0  0
  -30.7653  -17.8802   21.1551 C   0  0  0  0  0  0  0  0  0  0  0  0
  -30.4349  -20.0296   19.4076 C   0  0  0  0  0  0  0  0  0  0  0  0
  -22.2313   -8.2559   21.3701 C   0  0  0  0  0  0  0  0  0  0  0  0
  -31.1607  -24.3743   19.8983 C   0  0  0  0  0  0  0  0  0  0  0  0
  -22.0624   -6.0783   22.2371 C   0  0  0  0  0  0  0  0  0  0  0  0
  -23.2476   -3.9319   23.5678 C   0  0  0  0  0  0  0  0  0  0  0  0
  -31.6337  -19.3166   19.4174 C   0  0  0  0  0  0  0  0  0  0  0  0
  -21.5207   -5.6164   23.4366 C   0  0  0  0  0  0  0  0  0  0  0  0
  -24.5832  -11.7147   20.7352 C   0  0  0  0  0  0  0  0  0  0  0  0
  -25.3076  -13.7858   20.5911 C   0  0  0  0  0  0  0  0  0  0  0  0
  -22.9481  -13.5881   21.3922 C   0  0  0  0  0  0  0  0  0  0  0  0
  -32.9620  -21.8322   24.3431 C   0  0  0  0  0  0  0  0  0  0  0  0
  -31.9230  -24.3629   26.0861 C   0  0  0  0  0  0  0  0  0  0  0  0
  -29.1441  -21.9349   18.3840 C   0  0  0  0  0  0  0  0  0  0  0  0
  -30.3831  -27.4081   26.1386 C   0  0  0  0  0  0  0  0  0  0  0  0
  -30.8212  -14.6339   20.7540 C   0  0  0  0  0  0  0  0  0  0  0  0
  -35.3006  -18.1138   26.9435 C   0  0  0  0  0  0  0  0  0  0  0  0
  -33.9864  -23.7630   23.0868 C   0  0  0  0  0  0  0  0  0  0  0  0
  -31.1317  -24.2393   23.6936 C   0  0  0  0  0  0  0  0  0  0  0  0
  -34.1724  -19.1019   27.2280 C   0  0  0  0  0  0  0  0  0  0  0  0
  -29.5858  -12.3897   18.2814 C   0  0  0  0  0  0  0  0  0  0  0  0
  -33.1569  -19.0948   26.0898 C   0  0  0  0  0  0  0  0  0  0  0  0
  -28.1452  -12.1199   18.7193 C   0  0  0  0  0  0  0  0  0  0  0  0
  -30.5226  -12.5311   19.4790 C   0  0  0  0  0  0  0  0  0  0  0  0
  -28.6595  -13.2570   20.9196 C   0  0  0  0  0  0  0  0  0  0  0  0
  -33.8046  -19.5303   24.7698 C   0  0  1  0  0  0  0  0  0  0  0  0
  -33.3510  -23.2828   24.3879 C   0  0  1  0  0  0  0  0  0  0  0  0
  -27.6672  -13.1624   19.7479 C   0  0  2  0  0  0  0  0  0  0  0  0
  -28.3357  -19.1713   23.2519 C   0  0  0  0  0  0  0  0  0  0  0  0
  -29.6440  -29.2148   27.7155 C   0  0  0  0  0  0  0  0  0  0  0  0
  -30.7110  -25.0009   16.5734 C   0  0  0  0  0  0  0  0  0  0  0  0
  -29.5626  -22.6356   26.9550 C   0  0  0  0  0  0  0  0  0  0  0  0
  -28.4058  -24.7216   27.7157 C   0  0  0  0  0  0  0  0  0  0  0  0
  -30.5575  -24.0340   28.7741 C   0  0  0  0  0  0  0  0  0  0  0  0
  -32.1319  -29.4141   24.8438 C   0  0  0  0  0  0  0  0  0  0  0  0
  -28.4458  -18.2240   22.0610 C   0  0  0  0  0  0  0  0  0  0  0  0
  -30.9654  -16.7259   22.0813 C   0  0  0  0  0  0  0  0  0  0  0  0
  -29.3831  -22.9940   17.3122 C   0  0  0  0  0  0  0  0  0  0  0  0
  -30.5724  -24.9503   26.4178 C   0  0  1  0  0  0  0  0  0  0  0  0
  -30.7599  -28.7159   26.8108 C   0  0  2  0  0  0  0  0  0  0  0  0
  -30.5444  -23.9310   17.6445 C   0  0  2  0  0  0  0  0  0  1  0  0
  -29.7834  -24.0828   27.4387 C   0  0  0  0  0  0  0  0  0  0  0  0
  -25.8398  -11.5999   20.2972 N   0  0  0  0  0  0  0  0  0  0  0  0
  -26.2535  -12.8762   20.2195 N   0  0  0  0  0  0  0  0  0  0  0  0
  -32.1465  -24.0371   24.7408 N   0  0  0  0  0  0  0  0  0  0  0  0
  -30.0132  -13.5360   20.4153 N   0  0  0  0  0  0  0  0  0  0  0  0
  -25.5570  -15.1124   20.5728 N   0  0  0  0  0  0  0  0  0  0  0  0
  -21.9132  -12.6953   21.7028 N   0  0  0  0  0  0  0  0  0  0  0  0
  -30.2649  -21.1205   18.5223 N   0  0  0  0  0  0  0  0  0  0  0  0
  -33.9661  -20.9680   24.7362 N   0  0  0  0  0  0  0  0  0  0  0  0
  -30.8199  -26.3180   26.8612 N   0  0  0  0  0  0  0  0  0  0  0  0
  -30.2597  -15.5426   21.6427 N   0  0  0  0  0  0  0  0  0  0  0  0
  -31.0387  -29.7628   25.7874 N   0  3  0  0  0  0  0  0  0  0  0  0
  -22.7494  -14.8215   21.5054 O   0  0  0  0  0  0  0  0  0  0  0  0
  -31.8339  -21.5201   23.9802 O   0  0  0  0  0  0  0  0  0  0  0  0
  -32.7517  -24.2058   26.9862 O   0  0  0  0  0  0  0  0  0  0  0  0
  -28.0895  -21.8605   19.0056 O   0  0  0  0  0  0  0  0  0  0  0  0
  -29.7600  -27.3583   25.0803 O   0  0  0  0  0  0  0  0  0  0  0  0
  -31.9567  -14.7954   20.2941 O   0  0  0  0  0  0  0  0  0  0  0  0
  -21.4748   -7.1432   21.5749 O   0  0  0  0  0  0  0  0  0  0  0  0
  -30.2696  -24.5727   18.8890 O   0  0  0  0  0  0  0  0  0  1  0  0
  -23.8158   -2.9003   24.2059 F   0  0  0  0  0  0  0  0  0  0  0  0
  -32.6340  -19.6555   18.5916 F   0  0  0  0  0  0  0  0  0  0  0  0
  -20.4304   -6.1990   23.9541 F   0  0  0  0  0  0  0  0  0  0  0  0
  1  2  1  0  0  0  0
  1  5  2  0  0  0  0
  2  6  2  0  0  0  0
  3  8  2  0  0  0  0
  3 17  1  0  0  0  0
  4  9  1  0  0  0  0
  4 17  2  0  0  0  0
  5 19  1  0  0  0  0
  6 21  1  0  0  0  0
  7 10  2  0  0  0  0
  7 20  1  0  0  0  0
  8 26  1  0  0  0  0
  9 26  2  0  0  0  0
 10 27  1  0  0  0  0
 11 12  2  0  0  0  0
 11 28  1  0  0  0  0
 12 29  1  0  0  0  0
 13 22  1  0  0  0  0
 13 27  2  0  0  0  0
 14 23  1  0  0  0  0
 14 25  2  0  0  0  0
 15 24  1  0  0  0  0
 15 30  2  0  0  0  0
 16 29  2  0  0  0  0
 16 31  1  0  0  0  0
 17 32  1  0  0  0  0
 18 32  1  0  0  0  0
 18 33  2  0  0  0  0
 18 34  1  0  0  0  0
 19 21  2  0  0  0  0
 19 40  1  0  0  0  0
 20 22  2  0  0  0  0
 20 41  1  0  0  0  0
 21 49  1  0  0  0  0
 22 42  1  0  0  0  0
 23 24  2  0  0  0  0
 23 59  1  0  0  0  0
 24 60  1  0  0  0  0
 25 30  1  0  0  0  0
 25 72  1  0  0  0  0
 26 83  1  0  0  0  0
 27 84  1  0  0  0  0
 28 31  2  0  0  0  0
 28 83  1  0  0  0  0
 29 85  1  0  0  0  0
 30 86  1  0  0  0  0
 31 87  1  0  0  0  0
 32 66  2  0  0  0  0
 33 67  1  0  0  0  0
 33 70  1  0  0  0  0
 34 71  1  0  0  0  0
 34 77  2  0  0  0  0
 35 50  1  0  0  0  0
 35 73  1  0  0  0  0
 35 78  2  0  0  0  0
 36 62  1  0  0  0  0
 36 68  1  0  0  0  0
 36 79  2  0  0  0  0
 37 61  1  0  0  0  0
 37 72  1  0  0  0  0
 37 80  2  0  0  0  0
 38 63  1  0  0  0  0
 38 74  1  0  0  0  0
 38 81  2  0  0  0  0
 39 69  1  0  0  0  0
 39 75  1  0  0  0  0
 39 82  2  0  0  0  0
 40 43  1  0  0  0  0
 41 50  1  0  0  0  0
 42 68  1  0  0  0  0
 43 45  1  0  0  0  0
 44 46  1  0  0  0  0
 44 47  1  0  0  0  0
 45 49  1  0  0  0  0
 46 51  1  0  0  0  0
 47 69  1  0  0  0  0
 48 51  1  0  0  0  0
 48 69  1  0  0  0  0
 49 73  1  0  0  0  0
 50 68  1  0  0  0  0
 51 67  1  0  0  0  0
 52 59  1  0  0  0  0
 53 63  1  0  0  0  0
 54 64  1  0  0  0  0
 55 65  1  0  0  0  0
 56 65  1  0  0  0  0
 57 65  1  0  0  0  0
 58 76  1  0  0  0  0
 60 75  1  0  0  0  0
 61 64  1  0  0  0  0
 62 65  1  0  0  0  0
 62 74  1  0  0  0  0
 63 76  1  0  0  0  0
 64 84  1  0  0  0  0
 66 67  1  0  0  0  0
M  CHG  1  76   1
M  ISO  4  39 100  64 101  75 100  84 101
M  END
> <Batch ID>
0173

> <Smiles>
CCc1cc(NC(=O)C[101CH:1](C)[101O:1]c2ccc3c(c2)CN(C(=O)C(NC(=O)C(C)NC)C(C)(C)C)C(C(=O)NC2CCCc4ccccc42)C3)c(F)cc1C[100NH:0][100C:0](=O)N1CCCC(n2nc(-c3ccc(Oc4ccc(F)cc4F)cc3)c(C(N)=O)c2N)C1

> <Shape>
0.231

> <Color>
0.200

> <Negative vol penalty>
0.000

$$$$

  -OEChem-04052304293D

 87 95  0     1  0  0  0  0  0999 V2000
  -26.5649  -13.4251   37.3531 C   0  0  0  0  0  0  0  0  0  0  0  0
  -27.4075  -14.0046   36.4099 C   0  0  0  0  0  0  0  0  0  0  0  0
  -23.3371  -10.1588   22.2377 C   0  0  0  0  0  0  0  0  0  0  0  0
  -23.5797   -9.5448   19.9136 C   0  0  0  0  0  0  0  0  0  0  0  0
  -32.7343  -17.3599   23.4897 C   0  0  0  0  0  0  0  0  0  0  0  0
  -25.5984  -12.5044   36.9506 C   0  0  0  0  0  0  0  0  0  0  0  0
  -27.2848  -13.6628   35.0636 C   0  0  0  0  0  0  0  0  0  0  0  0
  -27.4473  -17.7004   32.0114 C   0  0  0  0  0  0  0  0  0  0  0  0
  -32.1230  -16.5072   22.5706 C   0  0  0  0  0  0  0  0  0  0  0  0
  -22.5923   -9.0018   22.4656 C   0  0  0  0  0  0  0  0  0  0  0  0
  -22.8349   -8.3877   20.1416 C   0  0  0  0  0  0  0  0  0  0  0  0
  -28.7013  -18.2508   31.7499 C   0  0  0  0  0  0  0  0  0  0  0  0
  -19.4258   -7.9369   21.9523 C   0  0  0  0  0  0  0  0  0  0  0  0
  -18.2584   -8.0565   22.7063 C   0  0  0  0  0  0  0  0  0  0  0  0
  -28.7544  -17.1062   29.6272 C   0  0  0  0  0  0  0  0  0  0  0  0
  -19.1514   -6.5106   24.3341 C   0  0  0  0  0  0  0  0  0  0  0  0
  -23.8308  -10.4304   20.9616 C   0  0  0  0  0  0  0  0  0  0  0  0
  -31.9568  -18.2064   24.2801 C   0  0  0  0  0  0  0  0  0  0  0  0
  -24.1812  -12.9568   20.9126 C   0  0  0  0  0  0  0  0  0  0  0  0
  -25.4574  -12.1583   35.5974 C   0  0  0  0  0  0  0  0  0  0  0  0
  -26.8413  -16.8386   31.0860 C   0  0  0  0  0  0  0  0  0  0  0  0
  -26.3164  -12.7355   34.6427 C   0  0  0  0  0  0  0  0  0  0  0  0
  -27.4916  -16.5481   29.8782 C   0  0  0  0  0  0  0  0  0  0  0  0
  -30.7341  -16.5010   22.4417 C   0  0  0  0  0  0  0  0  0  0  0  0
  -22.3412   -8.1162   21.4176 C   0  0  0  0  0  0  0  0  0  0  0  0
  -29.3563  -17.9515   30.5590 C   0  0  0  0  0  0  0  0  0  0  0  0
  -20.4559   -7.1040   22.3891 C   0  0  0  0  0  0  0  0  0  0  0  0
  -18.1212   -7.3435   23.8972 C   0  0  0  0  0  0  0  0  0  0  0  0
  -20.3188   -6.3910   23.5801 C   0  0  0  0  0  0  0  0  0  0  0  0
  -30.5679  -18.2002   24.1511 C   0  0  0  0  0  0  0  0  0  0  0  0
  -29.9565  -17.3475   23.2320 C   0  0  0  0  0  0  0  0  0  0  0  0
  -24.5998  -11.6258   20.7253 C   0  0  0  0  0  0  0  0  0  0  0  0
  -25.2692  -13.7130   20.5508 C   0  0  0  0  0  0  0  0  0  0  0  0
  -32.6121  -19.1121   25.2585 C   0  0  0  0  0  0  0  0  0  0  0  0
  -22.9216  -13.4641   21.3727 C   0  0  0  0  0  0  0  0  0  0  0  0
  -25.9042  -13.8016   31.1290 C   0  0  0  0  0  0  0  0  0  0  0  0
  -31.8771  -19.8850   28.8105 C   0  0  0  0  0  0  0  0  0  0  0  0
  -24.6973  -14.5390   28.2097 C   0  0  0  0  0  0  0  0  0  0  0  0
  -24.8116  -16.5423   25.4492 C   0  0  0  0  0  0  0  0  0  0  0  0
  -30.7423  -14.7321   20.6481 C   0  0  0  0  0  0  0  0  0  0  0  0
  -24.4295  -11.1226   35.2163 C   0  0  0  0  0  0  0  0  0  0  0  0
  -25.4765  -16.2743   31.3712 C   0  0  0  0  0  0  0  0  0  0  0  0
  -26.8749  -15.6447   28.8428 C   0  0  0  0  0  0  0  0  0  0  0  0
  -24.1163  -11.0962   33.7225 C   0  0  0  0  0  0  0  0  0  0  0  0
  -29.5704  -12.3969   18.2293 C   0  0  0  0  0  0  0  0  0  0  0  0
  -25.4047  -11.1232   32.9063 C   0  0  0  0  0  0  0  0  0  0  0  0
  -28.1383  -12.0976   18.6785 C   0  0  0  0  0  0  0  0  0  0  0  0
  -30.5102  -12.5850   19.4189 C   0  0  0  0  0  0  0  0  0  0  0  0
  -28.6344  -13.2736   20.8598 C   0  0  0  0  0  0  0  0  0  0  0  0
  -26.1978  -12.4089   33.1699 C   0  0  1  0  0  0  0  0  0  0  0  0
  -25.1803  -15.0007   30.5852 C   0  0  1  0  0  0  0  0  0  0  0  0
  -27.6375  -13.1405   19.6969 C   0  0  2  0  0  0  0  0  0  0  0  0
  -31.9717  -21.7388   27.1174 C   0  0  0  0  0  0  0  0  0  0  0  0
  -24.1185  -17.4957   23.2338 C   0  0  0  0  0  0  0  0  0  0  0  0
  -26.2345  -12.1446   27.1079 C   0  0  0  0  0  0  0  0  0  0  0  0
  -25.8970  -13.0747   24.8081 C   0  0  0  0  0  0  0  0  0  0  0  0
  -23.9253  -12.4154   26.1867 C   0  0  0  0  0  0  0  0  0  0  0  0
  -23.0050  -18.5065   26.7287 C   0  0  0  0  0  0  0  0  0  0  0  0
  -30.9137  -18.7182   28.9333 C   0  0  0  0  0  0  0  0  0  1  0  0
  -32.3631  -20.3008   27.4220 C   0  0  2  0  0  0  0  0  0  0  0  0
  -25.2220  -14.4989   26.7948 C   0  0  1  0  0  0  0  0  0  0  0  0
  -23.7182  -17.2642   24.6826 C   0  0  2  0  0  0  0  0  0  0  0  0
  -25.3325  -13.0489   26.2445 C   0  0  0  0  0  0  0  0  0  0  0  0
  -25.8556  -11.5382   20.2790 N   0  0  0  0  0  0  0  0  0  0  0  0
  -26.2355  -12.8237   20.1828 N   0  0  0  0  0  0  0  0  0  0  0  0
  -25.5419  -15.1126   29.1707 N   0  0  0  0  0  0  0  0  0  0  0  0
  -29.9734  -13.5903   20.3386 N   0  0  0  0  0  0  0  0  0  0  0  0
  -25.4839  -15.0453   20.5147 N   0  0  0  0  0  0  0  0  0  0  0  0
  -21.9244  -13.7350   20.4258 N   0  0  0  0  0  0  0  0  0  0  0  0
  -30.1154  -15.6338   21.5074 N   0  0  0  0  0  0  0  0  0  0  0  0
  -31.8749  -19.4189   26.3953 N   0  0  0  0  0  0  0  0  0  0  0  0
  -25.6130  -13.5200   32.4501 N   0  0  0  0  0  0  0  0  0  0  0  0
  -24.3523  -15.3704   26.0121 N   0  0  0  0  0  0  0  0  0  0  0  0
  -23.4331  -18.5863   25.3084 N   0  3  0  0  0  0  0  0  0  0  0  0
  -33.7331  -19.5501   25.0132 O   0  0  0  0  0  0  0  0  0  0  0  0
  -22.6930  -13.6867   22.5858 O   0  0  0  0  0  0  0  0  0  0  0  0
  -26.6690  -13.1771   30.4032 O   0  0  0  0  0  0  0  0  0  0  0  0
  -32.3052  -20.4591   29.8157 O   0  0  0  0  0  0  0  0  0  0  0  0
  -23.5764  -14.0847   28.4521 O   0  0  0  0  0  0  0  0  0  0  0  0
  -25.9594  -16.9730   25.5367 O   0  0  0  0  0  0  0  0  0  0  0  0
  -31.8626  -14.9110   20.1633 O   0  0  0  0  0  0  0  0  0  0  0  0
  -21.6146   -6.9869   21.6398 O   0  0  0  0  0  0  0  0  0  0  0  0
  -30.5806  -18.4869   30.3015 O   0  0  0  0  0  0  0  0  0  1  0  0
  -17.0008   -7.4597   24.6220 F   0  0  0  0  0  0  0  0  0  0  0  0
  -21.3055   -5.5902   24.0055 F   0  0  0  0  0  0  0  0  0  0  0  0
  -29.8102  -19.0094   24.9054 F   0  0  0  0  0  0  0  0  0  0  0  0
  -28.6210  -17.3505   23.1165 F   0  0  0  0  0  0  0  0  0  0  0  0
  1  2  1  0  0  0  0
  1  6  2  0  0  0  0
  2  7  2  0  0  0  0
  3 10  2  0  0  0  0
  3 17  1  0  0  0  0
  4 11  1  0  0  0  0
  4 17  2  0  0  0  0
  5  9  2  0  0  0  0
  5 18  1  0  0  0  0
  6 20  1  0  0  0  0
  7 22  1  0  0  0  0
  8 12  2  0  0  0  0
  8 21  1  0  0  0  0
  9 24  1  0  0  0  0
 10 25  1  0  0  0  0
 11 25  2  0  0  0  0
 12 26  1  0  0  0  0
 13 14  2  0  0  0  0
 13 27  1  0  0  0  0
 14 28  1  0  0  0  0
 15 23  1  0  0  0  0
 15 26  2  0  0  0  0
 16 28  2  0  0  0  0
 16 29  1  0  0  0  0
 17 32  1  0  0  0  0
 18 30  2  0  0  0  0
 18 34  1  0  0  0  0
 19 32  1  0  0  0  0
 19 33  2  0  0  0  0
 19 35  1  0  0  0  0
 20 22  2  0  0  0  0
 20 41  1  0  0  0  0
 21 23  2  0  0  0  0
 21 42  1  0  0  0  0
 22 50  1  0  0  0  0
 23 43  1  0  0  0  0
 24 31  2  0  0  0  0
 24 70  1  0  0  0  0
 25 82  1  0  0  0  0
 26 83  1  0  0  0  0
 27 29  2  0  0  0  0
 27 82  1  0  0  0  0
 28 84  1  0  0  0  0
 29 85  1  0  0  0  0
 30 31  1  0  0  0  0
 30 86  1  0  0  0  0
 31 87  1  0  0  0  0
 32 64  2  0  0  0  0
 33 65  1  0  0  0  0
 33 68  1  0  0  0  0
 34 71  1  0  0  0  0
 34 75  2  0  0  0  0
 35 69  1  0  0  0  0
 35 76  2  0  0  0  0
 36 51  1  0  0  0  0
 36 72  1  0  0  0  0
 36 77  2  0  0  0  0
 37 59  1  0  0  0  0
 37 60  1  0  0  0  0
 37 78  2  0  0  0  0
 38 61  1  0  0  0  0
 38 66  1  0  0  0  0
 38 79  2  0  0  0  0
 39 62  1  0  0  0  0
 39 73  1  0  0  0  0
 39 80  2  0  0  0  0
 40 67  1  0  0  0  0
 40 70  1  0  0  0  0
 40 81  2  0  0  0  0
 41 44  1  0  0  0  0
 42 51  1  0  0  0  0
 43 66  1  0  0  0  0
 44 46  1  0  0  0  0
 45 47  1  0  0  0  0
 45 48  1  0  0  0  0
 46 50  1  0  0  0  0
 47 52  1  0  0  0  0
 48 67  1  0  0  0  0
 49 52  1  0  0  0  0
 49 67  1  0  0  0  0
 50 72  1  0  0  0  0
 51 66  1  0  0  0  0
 52 65  1  0  0  0  0
 53 60  1  0  0  0  0
 54 62  1  0  0  0  0
 55 63  1  0  0  0  0
 56 63  1  0  0  0  0
 57 63  1  0  0  0  0
 58 74  1  0  0  0  0
 59 83  1  0  0  0  0
 60 71  1  0  0  0  0
 61 63  1  0  0  0  0
 61 73  1  0  0  0  0
 62 74  1  0  0  0  0
 64 65  1  0  0  0  0
M  CHG  1  74   1
M  ISO  4  40 100  59 101  70 100  83 101
M  END
> <Batch ID>
0173

> <Smiles>
CNC(C)C(=O)NC(C(=O)N1Cc2cc([101O:1][101CH2:1]C(=O)C(C)NC(=O)c3ccc([100NH:0][100C:0](=O)N4CCCC(n5nc(-c6ccc(Oc7ccc(F)cc7F)cc6)c(C(N)=O)c5N)C4)c(F)c3F)ccc2CC1C(=O)NC1CCCc2ccccc21)C(C)(C)C

> <Shape>
0.150

> <Color>
0.156

> <Negative vol penalty>
0.000

$$$$

  -OEChem-04052304293D

 84 92  0     1  0  0  0  0  0999 V2000
  -18.1476  -29.4727   26.3370 C   0  0  0  0  0  0  0  0  0  0  0  0
  -19.4495  -28.9862   26.3985 C   0  0  0  0  0  0  0  0  0  0  0  0
  -24.2865   -9.5622   22.0578 C   0  0  0  0  0  0  0  0  0  0  0  0
  -23.0924  -10.2746   20.0820 C   0  0  0  0  0  0  0  0  0  0  0  0
  -17.5115  -29.6044   25.1033 C   0  0  0  0  0  0  0  0  0  0  0  0
  -20.1158  -28.6302   25.2264 C   0  0  0  0  0  0  0  0  0  0  0  0
  -26.6741  -28.5166   22.3470 C   0  0  0  0  0  0  0  0  0  0  0  0
  -23.3768   -8.5192   22.2315 C   0  0  0  0  0  0  0  0  0  0  0  0
  -22.1827   -9.2315   20.2557 C   0  0  0  0  0  0  0  0  0  0  0  0
  -27.5561  -27.6443   21.7106 C   0  0  0  0  0  0  0  0  0  0  0  0
  -22.8198   -5.4548   20.9155 C   0  0  0  0  0  0  0  0  0  0  0  0
  -23.3308   -4.1926   21.2176 C   0  0  0  0  0  0  0  0  0  0  0  0
  -28.8462  -18.9749   16.1867 C   0  0  0  0  0  0  0  0  0  0  0  0
  -28.0945  -18.1721   17.0375 C   0  0  0  0  0  0  0  0  0  0  0  0
  -26.3859  -27.9892   19.6295 C   0  0  0  0  0  0  0  0  0  0  0  0
  -22.0910   -4.1870   23.2913 C   0  0  0  0  0  0  0  0  0  0  0  0
  -24.1442  -10.4400   20.9831 C   0  0  0  0  0  0  0  0  0  0  0  0
  -26.2826  -11.4868   20.0670 C   0  0  0  0  0  0  0  0  0  0  0  0
  -18.1737  -29.2589   23.9147 C   0  0  0  0  0  0  0  0  0  0  0  0
  -25.6331  -29.1244   21.6306 C   0  0  0  0  0  0  0  0  0  0  0  0
  -19.4874  -28.7562   23.9758 C   0  0  0  0  0  0  0  0  0  0  0  0
  -25.4937  -28.8708   20.2586 C   0  0  0  0  0  0  0  0  0  0  0  0
  -22.3250   -8.3538   21.3305 C   0  0  0  0  0  0  0  0  0  0  0  0
  -27.4103  -27.3782   20.3523 C   0  0  0  0  0  0  0  0  0  0  0  0
  -21.9444   -6.0832   21.8013 C   0  0  0  0  0  0  0  0  0  0  0  0
  -22.9664   -3.5587   22.4055 C   0  0  0  0  0  0  0  0  0  0  0  0
  -29.0603  -20.3104   16.5089 C   0  0  0  0  0  0  0  0  0  0  0  0
  -21.5800   -5.4493   22.9892 C   0  0  0  0  0  0  0  0  0  0  0  0
  -25.0832  -11.5180   20.8034 C   0  0  0  0  0  0  0  0  0  0  0  0
  -27.5828  -18.7483   18.1890 C   0  0  0  0  0  0  0  0  0  0  0  0
  -28.5052  -20.7909   17.6840 C   0  0  0  0  0  0  0  0  0  0  0  0
  -26.8040  -12.7498   20.2063 C   0  0  0  0  0  0  0  0  0  0  0  0
  -27.9468  -25.1991   19.6934 C   0  0  0  0  0  0  0  0  0  1  0  0
  -26.8727  -10.4122   19.3235 C   0  0  0  0  0  0  0  0  0  0  0  0
  -28.7174  -24.2745   19.1078 C   0  0  0  0  0  0  0  0  0  0  0  0
  -28.2737  -22.8423   19.1223 C   0  0  0  0  0  0  0  0  0  0  0  0
  -22.4596  -29.0668   21.8027 C   0  0  0  0  0  0  0  0  0  0  0  0
  -22.6830  -31.3559   19.5152 C   0  0  0  0  0  0  0  0  0  0  0  0
  -24.5096  -32.7767   17.0069 C   0  0  0  0  0  0  0  0  0  0  0  0
  -26.2119  -18.2861   20.2514 C   0  0  0  0  0  0  0  0  0  0  0  0
  -17.4284  -29.3741   22.6086 C   0  0  0  0  0  0  0  0  0  0  0  0
  -24.7064  -30.0837   22.3259 C   0  0  0  0  0  0  0  0  0  0  0  0
  -24.4050  -29.5135   19.4400 C   0  0  0  0  0  0  0  0  0  0  0  0
  -18.3369  -29.3279   21.3827 C   0  0  0  0  0  0  0  0  0  0  0  0
  -25.4580  -16.5500   23.2671 C   0  0  0  0  0  0  0  0  0  0  0  0
  -19.3419  -28.1871   21.5059 C   0  0  0  0  0  0  0  0  0  0  0  0
  -25.3920  -15.0835   22.8344 C   0  0  0  0  0  0  0  0  0  0  0  0
  -24.8923  -17.4829   22.1978 C   0  0  0  0  0  0  0  0  0  0  0  0
  -25.4059  -15.8498   20.4262 C   0  0  0  0  0  0  0  0  0  0  0  0
  -20.2521  -28.3828   22.7244 C   0  0  1  0  0  0  0  0  0  0  0  0
  -23.3691  -30.2473   21.6104 C   0  0  1  0  0  0  0  0  0  0  0  0
  -26.0240  -14.8772   21.4439 C   0  0  2  0  0  0  0  0  0  0  0  0
  -24.4135  -34.6084   15.2942 C   0  0  0  0  0  0  0  0  0  0  0  0
  -20.7989  -29.6630   17.8139 C   0  0  0  0  0  0  0  0  0  0  0  0
  -21.4880  -31.0193   15.8255 C   0  0  0  0  0  0  0  0  0  0  0  0
  -20.3404  -32.1206   17.7472 C   0  0  0  0  0  0  0  0  0  0  0  0
  -26.8691  -34.1392   18.1623 C   0  0  0  0  0  0  0  0  0  0  0  0
  -22.7369  -31.3580   18.0065 C   0  0  1  0  0  0  0  0  0  0  0  0
  -24.8451  -34.2253   16.7013 C   0  0  2  0  0  0  0  0  0  0  0  0
  -21.3605  -31.0264   17.3639 C   0  0  0  0  0  0  0  0  0  0  0  0
  -24.8560  -12.7066   21.3687 N   0  0  0  0  0  0  0  0  0  0  0  0
  -27.7695  -20.0417   18.5354 N   0  0  0  0  0  0  0  0  0  0  0  0
  -25.9198  -13.4340   20.9874 N   0  0  0  0  0  0  0  0  0  0  0  0
  -23.5203  -30.4391   20.1666 N   0  0  0  0  0  0  0  0  0  0  0  0
  -25.5410  -17.2332   20.9087 N   0  0  0  0  0  0  0  0  0  0  0  0
  -27.9280  -13.3308   19.7356 N   0  0  0  0  0  0  0  0  0  0  0  0
  -26.2044   -9.1808   19.2844 N   0  0  0  0  0  0  0  0  0  0  0  0
  -28.7267  -22.1515   18.0067 N   0  0  0  0  0  0  0  0  0  0  0  0
  -26.8181  -17.9221   19.0495 N   0  0  0  0  0  0  0  0  0  0  0  0
  -21.2717  -29.3697   22.4403 N   0  0  0  0  0  0  0  0  0  0  0  0
  -23.2801  -32.6554   17.6193 N   0  0  0  0  0  0  0  0  0  0  0  0
  -26.3129  -34.4534   16.8211 N   0  3  0  0  0  0  0  0  0  0  0  0
  -27.9685  -10.5352   18.7256 O   0  0  0  0  0  0  0  0  0  0  0  0
  -27.5932  -22.4029   20.0431 O   0  0  0  0  0  0  0  0  0  0  0  0
  -22.8091  -27.9631   21.4009 O   0  0  0  0  0  0  0  0  0  0  0  0
  -21.9311  -32.1437   20.0945 O   0  0  0  0  0  0  0  0  0  0  0  0
  -25.2612  -31.8455   16.7267 O   0  0  0  0  0  0  0  0  0  0  0  0
  -26.2692  -19.4202   20.7335 O   0  0  0  0  0  0  0  0  0  0  0  0
  -29.9095  -24.5870   18.4865 O   0  0  0  0  0  0  0  0  0  0  0  0
  -21.4373   -7.3359   21.4995 O   0  0  0  0  0  0  0  0  0  0  0  0
  -28.2693  -26.5266   19.7288 O   0  0  0  0  0  0  0  0  0  1  0  0
  -23.4560   -2.3459   22.6948 F   0  0  0  0  0  0  0  0  0  0  0  0
  -29.7822  -21.0953   15.6988 F   0  0  0  0  0  0  0  0  0  0  0  0
  -20.7385   -6.0474   23.8435 F   0  0  0  0  0  0  0  0  0  0  0  0
  1  2  1  0  0  0  0
  1  5  2  0  0  0  0
  2  6  2  0  0  0  0
  3  8  2  0  0  0  0
  3 17  1  0  0  0  0
  4  9  1  0  0  0  0
  4 17  2  0  0  0  0
  5 19  1  0  0  0  0
  6 21  1  0  0  0  0
  7 10  2  0  0  0  0
  7 20  1  0  0  0  0
  8 23  1  0  0  0  0
  9 23  2  0  0  0  0
 10 24  1  0  0  0  0
 11 12  2  0  0  0  0
 11 25  1  0  0  0  0
 12 26  1  0  0  0  0
 13 14  2  0  0  0  0
 13 27  1  0  0  0  0
 14 30  1  0  0  0  0
 15 22  1  0  0  0  0
 15 24  2  0  0  0  0
 16 26  2  0  0  0  0
 16 28  1  0  0  0  0
 17 29  1  0  0  0  0
 18 29  1  0  0  0  0
 18 32  2  0  0  0  0
 18 34  1  0  0  0  0
 19 21  2  0  0  0  0
 19 41  1  0  0  0  0
 20 22  2  0  0  0  0
 20 42  1  0  0  0  0
 21 50  1  0  0  0  0
 22 43  1  0  0  0  0
 23 80  1  0  0  0  0
 24 81  1  0  0  0  0
 25 28  2  0  0  0  0
 25 80  1  0  0  0  0
 26 82  1  0  0  0  0
 27 31  2  0  0  0  0
 27 83  1  0  0  0  0
 28 84  1  0  0  0  0
 29 61  2  0  0  0  0
 30 62  2  0  0  0  0
 30 69  1  0  0  0  0
 31 62  1  0  0  0  0
 31 68  1  0  0  0  0
 32 63  1  0  0  0  0
 32 66  1  0  0  0  0
 33 35  2  0  0  0  0
 33 81  1  0  0  0  0
 34 67  1  0  0  0  0
 34 73  2  0  0  0  0
 35 36  1  0  0  0  0
 35 79  1  0  0  0  0
 36 68  1  0  0  0  0
 36 74  2  0  0  0  0
 37 51  1  0  0  0  0
 37 70  1  0  0  0  0
 37 75  2  0  0  0  0
 38 58  1  0  0  0  0
 38 64  1  0  0  0  0
 38 76  2  0  0  0  0
 39 59  1  0  0  0  0
 39 71  1  0  0  0  0
 39 77  2  0  0  0  0
 40 65  1  0  0  0  0
 40 69  1  0  0  0  0
 40 78  2  0  0  0  0
 41 44  1  0  0  0  0
 42 51  1  0  0  0  0
 43 64  1  0  0  0  0
 44 46  1  0  0  0  0
 45 47  1  0  0  0  0
 45 48  1  0  0  0  0
 46 50  1  0  0  0  0
 47 52  1  0  0  0  0
 48 65  1  0  0  0  0
 49 52  1  0  0  0  0
 49 65  1  0  0  0  0
 50 70  1  0  0  0  0
 51 64  1  0  0  0  0
 52 63  1  0  0  0  0
 53 59  1  0  0  0  0
 54 60  1  0  0  0  0
 55 60  1  0  0  0  0
 56 60  1  0  0  0  0
 57 72  1  0  0  0  0
 58 60  1  0  0  0  0
 58 71  1  0  0  0  0
 59 72  1  0  0  0  0
 61 63  1  0  0  0  0
M  CHG  1  72   1
M  ISO  4  33 101  40 100  69 100  81 101
M  END
> <Batch ID>
0173

> <Smiles>
CNC(C)C(=O)NC(C(=O)N1Cc2cc([101O:1][101CH2:1]C(=O)C(=O)Nc3nc([100NH:0][100C:0](=O)N4CCCC(n5nc(-c6ccc(Oc7ccc(F)cc7F)cc6)c(C(N)=O)c5N)C4)ccc3F)ccc2CC1C(=O)NC1CCCc2ccccc21)C(C)(C)C

> <Shape>
0.267

> <Color>
0.115

> <Negative vol penalty>
0.000

$$$$

  -OEChem-04052304293D

 87 95  0     1  0  0  0  0  0999 V2000
  -16.0903  -26.5004   23.9648 C   0  0  0  0  0  0  0  0  0  0  0  0
  -17.3050  -26.0661   23.4439 C   0  0  0  0  0  0  0  0  0  0  0  0
  -23.6516  -10.3647   22.3670 C   0  0  0  0  0  0  0  0  0  0  0  0
  -24.4503   -8.4377   21.1482 C   0  0  0  0  0  0  0  0  0  0  0  0
  -15.8018  -27.8635   24.0143 C   0  0  0  0  0  0  0  0  0  0  0  0
  -18.2315  -26.9948   22.9711 C   0  0  0  0  0  0  0  0  0  0  0  0
  -22.9479  -25.9954   24.5210 C   0  0  0  0  0  0  0  0  0  0  0  0
  -22.5016   -9.6614   22.7256 C   0  0  0  0  0  0  0  0  0  0  0  0
  -23.3004   -7.7343   21.5068 C   0  0  0  0  0  0  0  0  0  0  0  0
  -23.6354  -24.9815   23.8554 C   0  0  0  0  0  0  0  0  0  0  0  0
  -22.1310   -6.0927   24.2193 C   0  0  0  0  0  0  0  0  0  0  0  0
  -22.2885   -4.7807   24.6659 C   0  0  0  0  0  0  0  0  0  0  0  0
  -24.8097  -26.6396   22.5551 C   0  0  0  0  0  0  0  0  0  0  0  0
  -30.7553  -19.8802   20.6514 C   0  0  0  0  0  0  0  0  0  0  0  0
  -20.9022   -3.9960   22.8494 C   0  0  0  0  0  0  0  0  0  0  0  0
  -24.6259   -9.7529   21.5783 C   0  0  0  0  0  0  0  0  0  0  0  0
  -27.0303  -10.5367   21.9130 C   0  0  0  0  0  0  0  0  0  0  0  0
  -16.7293  -28.8099   23.5508 C   0  0  0  0  0  0  0  0  0  0  0  0
  -23.1785  -27.3410   24.2005 C   0  0  0  0  0  0  0  0  0  0  0  0
  -17.9546  -28.3718   23.0133 C   0  0  0  0  0  0  0  0  0  0  0  0
  -24.1257  -27.6688   23.2199 C   0  0  0  0  0  0  0  0  0  0  0  0
  -28.9670  -18.2887   20.4198 C   0  0  0  0  0  0  0  0  0  0  0  0
  -29.4476  -19.4930   20.9219 C   0  0  0  0  0  0  0  0  0  0  0  0
  -22.3261   -8.3461   22.2955 C   0  0  0  0  0  0  0  0  0  0  0  0
  -24.5644  -25.3034   22.8703 C   0  0  0  0  0  0  0  0  0  0  0  0
  -21.3590   -6.3564   23.0879 C   0  0  0  0  0  0  0  0  0  0  0  0
  -21.6742   -3.7323   23.9809 C   0  0  0  0  0  0  0  0  0  0  0  0
  -20.7446   -5.3081   22.4029 C   0  0  0  0  0  0  0  0  0  0  0  0
  -25.8137  -10.4792   21.2071 C   0  0  0  0  0  0  0  0  0  0  0  0
  -29.8274  -17.5139   19.6587 C   0  0  0  0  0  0  0  0  0  0  0  0
  -31.5357  -19.0341   19.8801 C   0  0  0  0  0  0  0  0  0  0  0  0
  -27.8318  -11.3504   21.1501 C   0  0  0  0  0  0  0  0  0  0  0  0
  -26.7072  -22.4603   22.3825 C   0  0  0  0  0  0  0  0  0  0  0  0
  -27.4027   -9.9106   23.1479 C   0  0  0  0  0  0  0  0  0  0  0  0
  -27.8450  -22.1810   23.0433 C   0  0  0  0  0  0  0  0  0  0  0  0
  -28.9694  -21.5584   22.2699 C   0  0  0  0  0  0  0  0  0  0  0  0
  -21.3989  -29.7093   23.0483 C   0  0  0  0  0  0  0  0  0  0  0  0
  -24.0598  -31.4709   23.6304 C   0  0  0  0  0  0  0  0  0  0  0  0
  -27.4461  -31.5534   24.0461 C   0  0  0  0  0  0  0  0  0  0  0  0
  -28.2336  -16.2146   18.2564 C   0  0  0  0  0  0  0  0  0  0  0  0
  -16.3532  -30.2702   23.5813 C   0  0  0  0  0  0  0  0  0  0  0  0
  -22.4482  -28.4239   24.9463 C   0  0  0  0  0  0  0  0  0  0  0  0
  -24.4246  -29.0986   22.8527 C   0  0  0  0  0  0  0  0  0  0  0  0
  -17.5435  -31.2095   23.4050 C   0  0  0  0  0  0  0  0  0  0  0  0
  -27.2246  -13.1479   16.4709 C   0  0  0  0  0  0  0  0  0  0  0  0
  -18.4217  -30.7467   22.2468 C   0  0  0  0  0  0  0  0  0  0  0  0
  -26.8069  -12.2148   17.6062 C   0  0  0  0  0  0  0  0  0  0  0  0
  -26.9951  -14.6134   16.8283 C   0  0  0  0  0  0  0  0  0  0  0  0
  -27.2311  -14.0968   19.2382 C   0  0  0  0  0  0  0  0  0  0  0  0
  -18.9956  -29.3499   22.5135 C   0  0  1  0  0  0  0  0  0  0  0  0
  -22.3875  -29.7412   24.1793 C   0  0  1  0  0  0  0  0  0  0  0  0
  -27.4902  -12.6153   18.9252 C   0  0  1  0  0  0  0  0  0  0  0  0
  -27.5653  -17.8521   20.6969 C   0  0  0  0  0  0  0  0  0  0  0  0
  -28.1420  -22.4625   24.4833 C   0  0  0  0  0  0  0  0  0  0  0  0
  -29.3404  -33.1435   24.4710 C   0  0  0  0  0  0  0  0  0  0  0  0
  -23.9270  -32.4010   20.7274 C   0  0  0  0  0  0  0  0  0  0  0  0
  -26.2951  -33.1845   20.9431 C   0  0  0  0  0  0  0  0  0  0  0  0
  -24.5149  -34.1921   22.3709 C   0  0  0  0  0  0  0  0  0  0  0  0
  -30.1579  -15.0580   19.3189 C   0  0  0  0  0  0  0  0  0  0  0  0
  -28.1554  -30.2117   26.5869 C   0  0  0  0  0  0  0  0  0  0  0  0
  -25.4813  -23.1102   22.9420 C   0  0  0  0  0  0  0  0  0  1  0  0
  -25.2951  -31.8339   22.8423 C   0  0  1  0  0  0  0  0  0  0  0  0
  -28.3156  -32.2131   25.1011 C   0  0  2  0  0  0  0  0  0  0  0  0
  -25.0012  -32.8758   21.7262 C   0  0  0  0  0  0  0  0  0  0  0  0
  -25.8356  -11.1991   20.0823 N   0  0  0  0  0  0  0  0  0  0  0  0
  -31.1039  -17.8568   19.3749 N   0  0  0  0  0  0  0  0  0  0  0  0
  -27.0758  -11.7168   20.0756 N   0  0  0  0  0  0  0  0  0  0  0  0
  -23.6802  -30.1214   23.6059 N   0  0  0  0  0  0  0  0  0  0  0  0
  -27.6163  -14.9563   18.1082 N   0  0  0  0  0  0  0  0  0  0  0  0
  -29.1023  -11.7811   21.3002 N   0  0  0  0  0  0  0  0  0  0  0  0
  -26.4582   -9.1069   23.8009 N   0  0  0  0  0  0  0  0  0  0  0  0
  -28.6261  -20.3375   21.7074 N   0  0  0  0  0  0  0  0  0  0  0  0
  -20.1042  -29.4276   23.4406 N   0  0  0  0  0  0  0  0  0  0  0  0
  -26.2890  -32.2678   23.8181 N   0  0  0  0  0  0  0  0  0  0  0  0
  -29.3406  -16.2611   19.1311 N   0  0  0  0  0  0  0  0  0  0  0  0
  -29.0423  -31.1808   25.8930 N   0  3  0  0  0  0  0  0  0  0  0  0
  -28.5338  -10.0725   23.6654 O   0  0  0  0  0  0  0  0  0  0  0  0
  -30.0581  -22.1235   22.2432 O   0  0  0  0  0  0  0  0  0  0  0  0
  -21.7820  -29.9258   21.9046 O   0  0  0  0  0  0  0  0  0  0  0  0
  -23.4580  -32.3510   24.2508 O   0  0  0  0  0  0  0  0  0  0  0  0
  -27.7634  -30.5107   23.4781 O   0  0  0  0  0  0  0  0  0  0  0  0
  -27.8445  -17.2096   17.6333 O   0  0  0  0  0  0  0  0  0  0  0  0
  -21.2042   -7.6594   22.6454 O   0  0  0  0  0  0  0  0  0  0  0  0
  -25.2364  -24.3156   22.2186 O   0  0  0  0  0  0  0  0  0  1  0  0
  -21.8268   -2.4723   24.4090 F   0  0  0  0  0  0  0  0  0  0  0  0
  -20.0027   -5.5551   21.3146 F   0  0  0  0  0  0  0  0  0  0  0  0
  -32.8004  -19.3953   19.6131 F   0  0  0  0  0  0  0  0  0  0  0  0
  1  2  1  0  0  0  0
  1  5  2  0  0  0  0
  2  6  2  0  0  0  0
  3  8  2  0  0  0  0
  3 16  1  0  0  0  0
  4  9  1  0  0  0  0
  4 16  2  0  0  0  0
  5 18  1  0  0  0  0
  6 20  1  0  0  0  0
  7 10  2  0  0  0  0
  7 19  1  0  0  0  0
  8 24  1  0  0  0  0
  9 24  2  0  0  0  0
 10 25  1  0  0  0  0
 11 12  2  0  0  0  0
 11 26  1  0  0  0  0
 12 27  1  0  0  0  0
 13 21  1  0  0  0  0
 13 25  2  0  0  0  0
 14 23  1  0  0  0  0
 14 31  2  0  0  0  0
 15 27  2  0  0  0  0
 15 28  1  0  0  0  0
 16 29  1  0  0  0  0
 17 29  1  0  0  0  0
 17 32  2  0  0  0  0
 17 34  1  0  0  0  0
 18 20  2  0  0  0  0
 18 41  1  0  0  0  0
 19 21  2  0  0  0  0
 19 42  1  0  0  0  0
 20 50  1  0  0  0  0
 21 43  1  0  0  0  0
 22 23  2  0  0  0  0
 22 30  1  0  0  0  0
 22 53  1  0  0  0  0
 23 72  1  0  0  0  0
 24 83  1  0  0  0  0
 25 84  1  0  0  0  0
 26 28  2  0  0  0  0
 26 83  1  0  0  0  0
 27 85  1  0  0  0  0
 28 86  1  0  0  0  0
 29 65  2  0  0  0  0
 30 66  2  0  0  0  0
 30 75  1  0  0  0  0
 31 66  1  0  0  0  0
 31 87  1  0  0  0  0
 32 67  1  0  0  0  0
 32 70  1  0  0  0  0
 33 35  2  0  0  0  0
 33 61  1  0  0  0  0
 34 71  1  0  0  0  0
 34 77  2  0  0  0  0
 35 36  1  0  0  0  0
 35 54  1  0  0  0  0
 36 72  1  0  0  0  0
 36 78  2  0  0  0  0
 37 51  1  0  0  0  0
 37 73  1  0  0  0  0
 37 79  2  0  0  0  0
 38 62  1  0  0  0  0
 38 68  1  0  0  0  0
 38 80  2  0  0  0  0
 39 63  1  0  0  0  0
 39 74  1  0  0  0  0
 39 81  2  0  0  0  0
 40 69  1  0  0  0  0
 40 75  1  0  0  0  0
 40 82  2  0  0  0  0
 41 44  1  0  0  0  0
 42 51  1  0  0  0  0
 43 68  1  0  0  0  0
 44 46  1  0  0  0  0
 45 47  1  0  0  0  0
 45 48  1  0  0  0  0
 46 50  1  0  0  0  0
 47 52  1  0  0  0  0
 48 69  1  0  0  0  0
 49 52  1  0  0  0  0
 49 69  1  0  0  0  0
 50 73  1  0  0  0  0
 51 68  1  0  0  0  0
 52 67  1  0  0  0  0
 55 63  1  0  0  0  0
 56 64  1  0  0  0  0
 57 64  1  0  0  0  0
 58 64  1  0  0  0  0
 59 75  1  0  0  0  0
 60 76  1  0  0  0  0
 61 84  1  0  0  0  0
 62 64  1  0  0  0  0
 62 74  1  0  0  0  0
 63 76  1  0  0  0  0
 65 67  1  0  0  0  0
M  CHG  1  76   1
M  ISO  4  40 100  61 101  75 100  84 101
M  END
> <Batch ID>
0173

> <Smiles>
CNC(C)C(=O)NC(C(=O)N1Cc2cc([101O:1][101CH2:1]C=C(C)C(=O)Nc3cc(F)nc([100N:0](C)[100C:0](=O)N4CCCC(n5nc(-c6ccc(Oc7ccc(F)cc7F)cc6)c(C(N)=O)c5N)C4)c3C)ccc2CC1C(=O)NC1CCCc2ccccc21)C(C)(C)C

> <Shape>
0.270

> <Color>
0.079

> <Negative vol penalty>
0.000

$$$$

  -OEChem-04052304293D

 85 93  0     1  0  0  0  0  0999 V2000
  -18.9732  -24.5943   22.9474 C   0  0  0  0  0  0  0  0  0  0  0  0
  -20.0460  -24.7211   22.0707 C   0  0  0  0  0  0  0  0  0  0  0  0
  -24.3260  -14.5719   18.6002 C   0  0  0  0  0  0  0  0  0  0  0  0
  -25.9717  -14.5551   16.8315 C   0  0  0  0  0  0  0  0  0  0  0  0
  -18.3178  -25.7328   23.4144 C   0  0  0  0  0  0  0  0  0  0  0  0
  -20.4631  -25.9865   21.6596 C   0  0  0  0  0  0  0  0  0  0  0  0
  -26.2023  -27.7671   20.4775 C   0  0  0  0  0  0  0  0  0  0  0  0
  -23.4461  -13.8562   17.7883 C   0  0  0  0  0  0  0  0  0  0  0  0
  -25.0919  -13.8394   16.0196 C   0  0  0  0  0  0  0  0  0  0  0  0
  -26.9162  -27.9022   19.2876 C   0  0  0  0  0  0  0  0  0  0  0  0
  -23.4147  -11.6951   13.6098 C   0  0  0  0  0  0  0  0  0  0  0  0
  -23.9244  -10.6074   12.9008 C   0  0  0  0  0  0  0  0  0  0  0  0
  -26.3695  -30.2511   19.2332 C   0  0  0  0  0  0  0  0  0  0  0  0
  -29.9671  -23.1145   16.0827 C   0  0  0  0  0  0  0  0  0  0  0  0
  -30.8171  -20.9414   15.4566 C   0  0  0  0  0  0  0  0  0  0  0  0
  -31.2395  -22.8563   14.0453 C   0  0  0  0  0  0  0  0  0  0  0  0
  -24.5608   -9.5514   14.9786 C   0  0  0  0  0  0  0  0  0  0  0  0
  -25.5888  -14.9214   18.1218 C   0  0  0  0  0  0  0  0  0  0  0  0
  -27.4514  -15.1348   19.8517 C   0  0  0  0  0  0  0  0  0  0  0  0
  -18.7332  -27.0133   23.0163 C   0  0  0  0  0  0  0  0  0  0  0  0
  -25.5564  -28.8726   21.0494 C   0  0  0  0  0  0  0  0  0  0  0  0
  -19.8117  -27.1432   22.1205 C   0  0  0  0  0  0  0  0  0  0  0  0
  -25.6502  -30.1280   20.4317 C   0  0  0  0  0  0  0  0  0  0  0  0
  -30.1096  -21.7518   16.3444 C   0  0  0  0  0  0  0  0  0  0  0  0
  -30.5320  -23.6667   14.9331 C   0  0  0  0  0  0  0  0  0  0  0  0
  -23.8291  -13.4899   16.4980 C   0  0  0  0  0  0  0  0  0  0  0  0
  -26.9975  -29.1436   18.6637 C   0  0  0  0  0  0  0  0  0  0  0  0
  -23.4780  -11.7110   15.0031 C   0  0  0  0  0  0  0  0  0  0  0  0
  -24.4974   -9.5355   13.5852 C   0  0  0  0  0  0  0  0  0  0  0  0
  -31.3821  -21.4936   14.3070 C   0  0  0  0  0  0  0  0  0  0  0  0
  -24.0511  -10.6391   15.6875 C   0  0  0  0  0  0  0  0  0  0  0  0
  -26.4979  -15.6612   18.9598 C   0  0  0  0  0  0  0  0  0  0  0  0
  -28.0544  -16.2398   20.4012 C   0  0  0  0  0  0  0  0  0  0  0  0
  -27.7642  -13.7691   20.1563 C   0  0  0  0  0  0  0  0  0  0  0  0
  -29.7233  -27.3186   14.9427 C   0  0  0  0  0  0  0  0  0  0  0  0
  -29.0233  -28.4375   15.6889 C   0  0  0  0  0  0  0  0  0  0  0  0
  -22.5378  -29.6057   21.7233 C   0  0  0  0  0  0  0  0  0  0  0  0
  -23.8889  -32.2040   23.1181 C   0  0  0  0  0  0  0  0  0  0  0  0
  -26.5396  -34.3461   23.2978 C   0  0  0  0  0  0  0  0  0  0  0  0
  -28.8021  -21.8535   18.4954 C   0  0  0  0  0  0  0  0  0  0  0  0
  -17.9636  -28.2125   23.5105 C   0  0  0  0  0  0  0  0  0  0  0  0
  -24.8126  -28.7160   22.3473 C   0  0  0  0  0  0  0  0  0  0  0  0
  -24.9917  -31.3502   21.0156 C   0  0  0  0  0  0  0  0  0  0  0  0
  -18.7057  -29.5330   23.3206 C   0  0  0  0  0  0  0  0  0  0  0  0
  -27.1904  -20.8209   21.4975 C   0  0  0  0  0  0  0  0  0  0  0  0
  -19.2904  -29.6193   21.9144 C   0  0  0  0  0  0  0  0  0  0  0  0
  -26.9221  -19.3313   21.2711 C   0  0  0  0  0  0  0  0  0  0  0  0
  -27.0201  -21.6295   20.2127 C   0  0  0  0  0  0  0  0  0  0  0  0
  -27.5224  -19.6487   18.8368 C   0  0  0  0  0  0  0  0  0  0  0  0
  -20.3095  -28.4997   21.6710 C   0  0  1  0  0  0  0  0  0  0  0  0
  -23.7638  -29.8013   22.5697 C   0  0  1  0  0  0  0  0  0  0  0  0
  -27.7449  -18.7839   20.0883 C   0  0  2  0  0  0  0  0  0  0  0  0
  -27.3386  -36.3943   24.5077 C   0  0  0  0  0  0  0  0  0  0  0  0
  -22.0153  -33.9263   21.4348 C   0  0  0  0  0  0  0  0  0  0  0  0
  -23.4728  -35.8950   21.9527 C   0  0  0  0  0  0  0  0  0  0  0  0
  -22.2982  -34.6952   23.7977 C   0  0  0  0  0  0  0  0  0  0  0  0
  -28.8815  -32.9178   24.4089 C   0  0  0  0  0  0  0  0  0  0  0  0
  -29.6773  -25.9328   15.5329 C   0  0  0  0  0  0  0  0  0  0  0  0
  -28.3152  -28.1055   16.9779 C   0  0  0  0  0  0  0  0  0  1  0  0
  -24.2653  -33.5910   22.6560 C   0  0  1  0  0  0  0  0  0  0  0  0
  -27.3298  -34.8738   24.4817 C   0  0  2  0  0  0  0  0  0  0  0  0
  -23.0238  -34.5036   22.4480 C   0  0  0  0  0  0  0  0  0  0  0  0
  -26.4917  -16.9967   18.9407 N   0  0  0  0  0  0  0  0  0  0  0  0
  -27.4488  -17.3189   19.8276 N   0  0  0  0  0  0  0  0  0  0  0  0
  -24.2708  -31.1447   22.2827 N   0  0  0  0  0  0  0  0  0  0  0  0
  -27.8321  -21.0552   19.1376 N   0  0  0  0  0  0  0  0  0  0  0  0
  -29.0382  -16.3840   21.3143 N   0  0  0  0  0  0  0  0  0  0  0  0
  -27.0486  -12.7577   19.5010 N   0  0  0  0  0  0  0  0  0  0  0  0
  -29.5352  -21.1905   17.5118 N   0  0  0  0  0  0  0  0  0  0  0  0
  -30.3905  -25.0213   14.6726 N   0  0  0  0  0  0  0  0  0  0  0  0
  -21.5689  -28.8147   22.3108 N   0  0  0  0  0  0  0  0  0  0  0  0
  -25.2244  -34.0997   23.6306 N   0  0  0  0  0  0  0  0  0  0  0  0
  -28.7402  -34.3966   24.4171 N   0  3  0  0  0  0  0  0  0  0  0  0
  -28.6406  -13.4552   20.9970 O   0  0  0  0  0  0  0  0  0  0  0  0
  -30.2886  -27.6149   13.8975 O   0  0  0  0  0  0  0  0  0  0  0  0
  -29.0700  -29.5582   15.1982 O   0  0  0  0  0  0  0  0  0  0  0  0
  -22.4748  -30.1345   20.6196 O   0  0  0  0  0  0  0  0  0  0  0  0
  -23.2848  -32.0650   24.1845 O   0  0  0  0  0  0  0  0  0  0  0  0
  -27.0382  -34.1735   22.1878 O   0  0  0  0  0  0  0  0  0  0  0  0
  -28.9887  -23.0305   18.8145 O   0  0  0  0  0  0  0  0  0  0  0  0
  -22.9708  -12.7913   15.7056 O   0  0  0  0  0  0  0  0  0  0  0  0
  -27.6932  -29.2781   17.5019 O   0  0  0  0  0  0  0  0  0  1  0  0
  -24.9855   -8.4904   12.9043 F   0  0  0  0  0  0  0  0  0  0  0  0
  -32.0612  -20.7155   13.4539 F   0  0  0  0  0  0  0  0  0  0  0  0
  -24.1137  -10.6482   17.0261 F   0  0  0  0  0  0  0  0  0  0  0  0
  1  2  1  0  0  0  0
  1  5  2  0  0  0  0
  2  6  2  0  0  0  0
  3  8  2  0  0  0  0
  3 18  1  0  0  0  0
  4  9  1  0  0  0  0
  4 18  2  0  0  0  0
  5 20  1  0  0  0  0
  6 22  1  0  0  0  0
  7 10  2  0  0  0  0
  7 21  1  0  0  0  0
  8 26  1  0  0  0  0
  9 26  2  0  0  0  0
 10 27  1  0  0  0  0
 11 12  2  0  0  0  0
 11 28  1  0  0  0  0
 12 29  1  0  0  0  0
 13 23  1  0  0  0  0
 13 27  2  0  0  0  0
 14 24  1  0  0  0  0
 14 25  2  0  0  0  0
 15 24  2  0  0  0  0
 15 30  1  0  0  0  0
 16 25  1  0  0  0  0
 16 30  2  0  0  0  0
 17 29  2  0  0  0  0
 17 31  1  0  0  0  0
 18 32  1  0  0  0  0
 19 32  1  0  0  0  0
 19 33  2  0  0  0  0
 19 34  1  0  0  0  0
 20 22  2  0  0  0  0
 20 41  1  0  0  0  0
 21 23  2  0  0  0  0
 21 42  1  0  0  0  0
 22 50  1  0  0  0  0
 23 43  1  0  0  0  0
 24 69  1  0  0  0  0
 25 70  1  0  0  0  0
 26 81  1  0  0  0  0
 27 82  1  0  0  0  0
 28 31  2  0  0  0  0
 28 81  1  0  0  0  0
 29 83  1  0  0  0  0
 30 84  1  0  0  0  0
 31 85  1  0  0  0  0
 32 63  2  0  0  0  0
 33 64  1  0  0  0  0
 33 67  1  0  0  0  0
 34 68  1  0  0  0  0
 34 74  2  0  0  0  0
 35 36  1  0  0  0  0
 35 58  1  0  0  0  0
 35 75  2  0  0  0  0
 36 59  1  0  0  0  0
 36 76  2  0  0  0  0
 37 51  1  0  0  0  0
 37 71  1  0  0  0  0
 37 77  2  0  0  0  0
 38 60  1  0  0  0  0
 38 65  1  0  0  0  0
 38 78  2  0  0  0  0
 39 61  1  0  0  0  0
 39 72  1  0  0  0  0
 39 79  2  0  0  0  0
 40 66  1  0  0  0  0
 40 69  1  0  0  0  0
 40 80  2  0  0  0  0
 41 44  1  0  0  0  0
 42 51  1  0  0  0  0
 43 65  1  0  0  0  0
 44 46  1  0  0  0  0
 45 47  1  0  0  0  0
 45 48  1  0  0  0  0
 46 50  1  0  0  0  0
 47 52  1  0  0  0  0
 48 66  1  0  0  0  0
 49 52  1  0  0  0  0
 49 66  1  0  0  0  0
 50 71  1  0  0  0  0
 51 65  1  0  0  0  0
 52 64  1  0  0  0  0
 53 61  1  0  0  0  0
 54 62  1  0  0  0  0
 55 62  1  0  0  0  0
 56 62  1  0  0  0  0
 57 73  1  0  0  0  0
 58 70  1  0  0  0  0
 59 82  1  0  0  0  0
 60 62  1  0  0  0  0
 60 72  1  0  0  0  0
 61 73  1  0  0  0  0
 63 64  1  0  0  0  0
M  CHG  1  73   1
M  ISO  4  40 100  59 101  69 100  82 101
M  END
> <Batch ID>
0173

> <Smiles>
CNC(C)C(=O)NC(C(=O)N1Cc2cc([101O:1][101CH2:1]C(=O)C(=O)CNc3cc(F)cc([100NH:0][100C:0](=O)N4CCCC(n5nc(-c6ccc(Oc7ccc(F)cc7F)cc6)c(C(N)=O)c5N)C4)c3)ccc2CC1C(=O)NC1CCCc2ccccc21)C(C)(C)C

> <Shape>
0.214

> <Color>
0.104

> <Negative vol penalty>
0.000

$$$$

  -OEChem-04052304293D

 88 96  0     1  0  0  0  0  0999 V2000
  -29.7906  -35.3323   21.7325 C   0  0  0  0  0  0  0  0  0  0  0  0
  -29.3473  -34.0224   21.5810 C   0  0  0  0  0  0  0  0  0  0  0  0
  -24.1807   -9.7653   22.2803 C   0  0  0  0  0  0  0  0  0  0  0  0
  -23.5222   -9.8614   19.9578 C   0  0  0  0  0  0  0  0  0  0  0  0
  -29.3418  -36.0990   22.8071 C   0  0  0  0  0  0  0  0  0  0  0  0
  -28.4558  -33.4780   22.5047 C   0  0  0  0  0  0  0  0  0  0  0  0
  -24.6858  -30.9212   20.2921 C   0  0  0  0  0  0  0  0  0  0  0  0
  -23.1374   -8.8765   22.5394 C   0  0  0  0  0  0  0  0  0  0  0  0
  -22.4788   -8.9726   20.2168 C   0  0  0  0  0  0  0  0  0  0  0  0
  -24.9738  -29.6394   19.8254 C   0  0  0  0  0  0  0  0  0  0  0  0
  -22.5089   -5.5814   22.1151 C   0  0  0  0  0  0  0  0  0  0  0  0
  -22.7910   -4.4603   22.8956 C   0  0  0  0  0  0  0  0  0  0  0  0
  -28.7006  -21.3768   21.1133 C   0  0  0  0  0  0  0  0  0  0  0  0
  -23.9577  -28.6985   21.8006 C   0  0  0  0  0  0  0  0  0  0  0  0
  -30.1186  -23.3183   21.3519 C   0  0  0  0  0  0  0  0  0  0  0  0
  -21.1513   -5.1775   24.5186 C   0  0  0  0  0  0  0  0  0  0  0  0
  -24.3731  -10.2578   20.9895 C   0  0  0  0  0  0  0  0  0  0  0  0
  -29.7606  -20.5554   21.4973 C   0  0  0  0  0  0  0  0  0  0  0  0
  -26.7653  -10.8549   20.3350 C   0  0  0  0  0  0  0  0  0  0  0  0
  -28.4369  -35.5669   23.7390 C   0  0  0  0  0  0  0  0  0  0  0  0
  -24.0403  -31.1019   21.5238 C   0  0  0  0  0  0  0  0  0  0  0  0
  -27.9955  -34.2378   23.5935 C   0  0  0  0  0  0  0  0  0  0  0  0
  -23.6604  -29.9836   22.2795 C   0  0  0  0  0  0  0  0  0  0  0  0
  -30.9995  -21.1155   21.8087 C   0  0  0  0  0  0  0  0  0  0  0  0
  -28.8796  -22.7582   21.0405 C   0  0  0  0  0  0  0  0  0  0  0  0
  -22.2865   -8.4801   21.5076 C   0  0  0  0  0  0  0  0  0  0  0  0
  -24.6123  -28.5279   20.5810 C   0  0  0  0  0  0  0  0  0  0  0  0
  -21.5480   -6.5006   22.5364 C   0  0  0  0  0  0  0  0  0  0  0  0
  -31.1786  -22.4969   21.7360 C   0  0  0  0  0  0  0  0  0  0  0  0
  -22.1122   -4.2584   24.0973 C   0  0  0  0  0  0  0  0  0  0  0  0
  -20.8692   -6.2986   23.7381 C   0  0  0  0  0  0  0  0  0  0  0  0
  -25.4503  -11.1764   20.7214 C   0  0  0  0  0  0  0  0  0  0  0  0
  -27.3922  -12.0702   20.2067 C   0  0  0  0  0  0  0  0  0  0  0  0
  -29.5402  -19.1164   21.5631 C   0  0  0  0  0  0  0  0  0  0  0  0
  -28.6202  -18.5022   22.3344 C   0  0  0  0  0  0  0  0  0  0  0  0
  -26.0914  -26.7190   20.4761 C   0  0  0  0  0  0  0  0  0  1  0  0
  -27.3663   -9.5725   20.1120 C   0  0  0  0  0  0  0  0  0  0  0  0
  -26.4702  -25.4956   20.0872 C   0  0  0  0  0  0  0  0  0  0  0  0
  -28.5119  -17.0304   22.2825 C   0  0  0  0  0  0  0  0  0  0  0  0
  -27.8066  -24.9746   20.5241 C   0  0  0  0  0  0  0  0  0  0  0  0
  -24.8049  -32.5024   24.2729 C   0  0  0  0  0  0  0  0  0  0  0  0
  -21.7307  -31.8026   25.0355 C   0  0  0  0  0  0  0  0  0  0  0  0
  -18.9864  -29.8458   24.5004 C   0  0  0  0  0  0  0  0  0  0  0  0
  -28.0167  -36.4185   24.9107 C   0  0  0  0  0  0  0  0  0  0  0  0
  -23.7129  -32.4904   22.0006 C   0  0  0  0  0  0  0  0  0  0  0  0
  -22.9474  -30.1231   23.5988 C   0  0  0  0  0  0  0  0  0  0  0  0
  -26.7818  -35.8900   25.6360 C   0  0  0  0  0  0  0  0  0  0  0  0
  -25.5361  -16.7589   20.1605 C   0  0  0  0  0  0  0  0  0  0  0  0
  -26.9088  -34.3902   25.8830 C   0  0  0  0  0  0  0  0  0  0  0  0
  -25.3344  -15.2462   20.1297 C   0  0  0  0  0  0  0  0  0  0  0  0
  -26.0898  -17.2347   21.5027 C   0  0  0  0  0  0  0  0  0  0  0  0
  -27.1405  -15.0226   21.8814 C   0  0  0  0  0  0  0  0  0  0  0  0
  -27.0093  -33.6199   24.5608 C   0  0  1  0  0  0  0  0  0  0  0  0
  -23.5119  -32.5717   23.5106 C   0  0  1  0  0  0  0  0  0  0  0  0
  -26.6283  -14.5164   20.5239 C   0  0  1  0  0  0  0  0  0  0  0  0
  -32.1480  -20.2491   22.2227 C   0  0  0  0  0  0  0  0  0  0  0  0
  -34.5198  -23.7370   21.1972 C   0  0  0  0  0  0  0  0  0  0  0  0
  -16.6354  -29.4882   25.3019 C   0  0  0  0  0  0  0  0  0  0  0  0
  -22.7969  -30.4289   27.5427 C   0  0  0  0  0  0  0  0  0  0  0  0
  -20.5743  -29.3025   27.7863 C   0  0  0  0  0  0  0  0  0  0  0  0
  -20.7291  -31.7897   27.8982 C   0  0  0  0  0  0  0  0  0  0  0  0
  -17.8614  -30.4432   21.8290 C   0  0  0  0  0  0  0  0  0  0  0  0
  -33.0202  -23.8119   21.0045 C   0  0  0  0  0  0  0  0  0  0  0  0
  -21.0281  -30.6281   25.6726 C   0  0  1  0  0  0  0  0  0  0  0  0
  -17.5243  -30.1966   24.2916 C   0  0  2  0  0  0  0  0  0  0  0  0
  -21.2972  -30.5344   27.2010 C   0  0  0  0  0  0  0  0  0  0  0  0
  -25.2524  -12.4927   20.8315 N   0  0  0  0  0  0  0  0  0  0  0  0
  -26.4514  -13.0091   20.5124 N   0  0  0  0  0  0  0  0  0  0  0  0
  -27.2937  -16.4818   21.8857 N   0  0  0  0  0  0  0  0  0  0  0  0
  -22.6551  -31.5015   24.0252 N   0  0  0  0  0  0  0  0  0  0  0  0
  -28.6510  -12.4166   19.8634 N   0  0  0  0  0  0  0  0  0  0  0  0
  -26.5795   -8.4261   20.2884 N   0  0  0  0  0  0  0  0  0  0  0  0
  -27.8041  -23.5923   20.6507 N   0  0  0  0  0  0  0  0  0  0  0  0
  -25.7048  -33.4989   23.9460 N   0  0  0  0  0  0  0  0  0  0  0  0
  -19.6180  -30.7563   25.3210 N   0  0  0  0  0  0  0  0  0  0  0  0
  -17.0872  -29.8017   22.9227 N   0  3  0  0  0  0  0  0  0  0  0  0
  -28.5701   -9.4462   19.7825 O   0  0  0  0  0  0  0  0  0  0  0  0
  -29.5068  -16.3755   22.5988 O   0  0  0  0  0  0  0  0  0  0  0  0
  -28.7448  -25.7379   20.7266 O   0  0  0  0  0  0  0  0  0  0  0  0
  -24.9731  -31.6118   25.0976 O   0  0  0  0  0  0  0  0  0  0  0  0
  -21.4638  -32.9455   25.4152 O   0  0  0  0  0  0  0  0  0  0  0  0
  -19.5144  -28.8603   23.9900 O   0  0  0  0  0  0  0  0  0  0  0  0
  -25.6763  -24.6888   19.2975 O   0  0  0  0  0  0  0  0  0  0  0  0
  -21.2684   -7.6127   21.7600 O   0  0  0  0  0  0  0  0  0  0  0  0
  -24.8927  -27.2756   20.1281 O   0  0  0  0  0  0  0  0  0  1  0  0
  -32.3813  -23.0629   22.0362 O   0  0  0  0  0  0  0  0  0  0  0  0
  -22.3822   -3.1809   24.8460 F   0  0  0  0  0  0  0  0  0  0  0  0
  -19.9441   -7.1776   24.1474 F   0  0  0  0  0  0  0  0  0  0  0  0
  1  2  1  0  0  0  0
  1  5  2  0  0  0  0
  2  6  2  0  0  0  0
  3  8  2  0  0  0  0
  3 17  1  0  0  0  0
  4  9  1  0  0  0  0
  4 17  2  0  0  0  0
  5 20  1  0  0  0  0
  6 22  1  0  0  0  0
  7 10  2  0  0  0  0
  7 21  1  0  0  0  0
  8 26  1  0  0  0  0
  9 26  2  0  0  0  0
 10 27  1  0  0  0  0
 11 12  2  0  0  0  0
 11 28  1  0  0  0  0
 12 30  1  0  0  0  0
 13 18  2  0  0  0  0
 13 25  1  0  0  0  0
 14 23  1  0  0  0  0
 14 27  2  0  0  0  0
 15 25  2  0  0  0  0
 15 29  1  0  0  0  0
 16 30  2  0  0  0  0
 16 31  1  0  0  0  0
 17 32  1  0  0  0  0
 18 24  1  0  0  0  0
 18 34  1  0  0  0  0
 19 32  1  0  0  0  0
 19 33  2  0  0  0  0
 19 37  1  0  0  0  0
 20 22  2  0  0  0  0
 20 44  1  0  0  0  0
 21 23  2  0  0  0  0
 21 45  1  0  0  0  0
 22 53  1  0  0  0  0
 23 46  1  0  0  0  0
 24 29  2  0  0  0  0
 24 56  1  0  0  0  0
 25 73  1  0  0  0  0
 26 84  1  0  0  0  0
 27 85  1  0  0  0  0
 28 31  2  0  0  0  0
 28 84  1  0  0  0  0
 29 86  1  0  0  0  0
 30 87  1  0  0  0  0
 31 88  1  0  0  0  0
 32 67  2  0  0  0  0
 33 68  1  0  0  0  0
 33 71  1  0  0  0  0
 34 35  2  0  0  0  0
 35 39  1  0  0  0  0
 36 38  2  0  0  0  0
 36 85  1  0  0  0  0
 37 72  1  0  0  0  0
 37 77  2  0  0  0  0
 38 40  1  0  0  0  0
 38 83  1  0  0  0  0
 39 69  1  0  0  0  0
 39 78  2  0  0  0  0
 40 73  1  0  0  0  0
 40 79  2  0  0  0  0
 41 54  1  0  0  0  0
 41 74  1  0  0  0  0
 41 80  2  0  0  0  0
 42 64  1  0  0  0  0
 42 70  1  0  0  0  0
 42 81  2  0  0  0  0
 43 65  1  0  0  0  0
 43 75  1  0  0  0  0
 43 82  2  0  0  0  0
 44 47  1  0  0  0  0
 45 54  1  0  0  0  0
 46 70  1  0  0  0  0
 47 49  1  0  0  0  0
 48 50  1  0  0  0  0
 48 51  1  0  0  0  0
 49 53  1  0  0  0  0
 50 55  1  0  0  0  0
 51 69  1  0  0  0  0
 52 55  1  0  0  0  0
 52 69  1  0  0  0  0
 53 74  1  0  0  0  0
 54 70  1  0  0  0  0
 55 68  1  0  0  0  0
 57 63  1  0  0  0  0
 58 65  1  0  0  0  0
 59 66  1  0  0  0  0
 60 66  1  0  0  0  0
 61 66  1  0  0  0  0
 62 76  1  0  0  0  0
 63 86  1  0  0  0  0
 64 66  1  0  0  0  0
 64 75  1  0  0  0  0
 65 76  1  0  0  0  0
 67 68  1  0  0  0  0
M  CHG  1  76   1
M  ISO  4  35 100  36 101  39 100  85 101
M  END
> <Batch ID>
0173

> <Smiles>
CCOc1cc(NC(=O)C(=O)[101CH2:1][101O:1]c2ccc3c(c2)CN(C(=O)C(NC(=O)C(C)NC)C(C)(C)C)C(C(=O)NC2CCCc4ccccc42)C3)cc(C=[100CH:0][100C:0](=O)N2CCCC(n3nc(-c4ccc(Oc5ccc(F)cc5F)cc4)c(C(N)=O)c3N)C2)c1C

> <Shape>
0.296

> <Color>
0.087

> <Negative vol penalty>
0.000

$$$$

  -OEChem-04052304293D

 90 98  0     1  0  0  0  0  0999 V2000
  -27.6779  -38.3690   25.0926 C   0  0  0  0  0  0  0  0  0  0  0  0
  -28.4195  -37.1951   25.0074 C   0  0  0  0  0  0  0  0  0  0  0  0
  -24.9591   -7.9052   21.8449 C   0  0  0  0  0  0  0  0  0  0  0  0
  -24.5009   -9.8120   23.2560 C   0  0  0  0  0  0  0  0  0  0  0  0
  -26.3118  -38.3109   25.3652 C   0  0  0  0  0  0  0  0  0  0  0  0
  -27.7957  -35.9623   25.1958 C   0  0  0  0  0  0  0  0  0  0  0  0
  -27.9197  -30.9189   20.0539 C   0  0  0  0  0  0  0  0  0  0  0  0
  -24.2893   -7.0774   22.7459 C   0  0  0  0  0  0  0  0  0  0  0  0
  -23.8310   -8.9843   24.1569 C   0  0  0  0  0  0  0  0  0  0  0  0
  -28.0790  -29.8256   19.2022 C   0  0  0  0  0  0  0  0  0  0  0  0
  -22.3880   -4.5200   24.4950 C   0  0  0  0  0  0  0  0  0  0  0  0
  -21.4955   -3.5829   23.9746 C   0  0  0  0  0  0  0  0  0  0  0  0
  -28.6644  -17.5048   18.9745 C   0  0  0  0  0  0  0  0  0  0  0  0
  -26.6841  -28.4812   20.6495 C   0  0  0  0  0  0  0  0  0  0  0  0
  -30.9218  -17.5703   19.8329 C   0  0  0  0  0  0  0  0  0  0  0  0
  -20.1951   -5.3666   22.9927 C   0  0  0  0  0  0  0  0  0  0  0  0
  -25.0650   -9.2725   22.1000 C   0  0  0  0  0  0  0  0  0  0  0  0
  -28.6586  -18.8966   18.8832 C   0  0  0  0  0  0  0  0  0  0  0  0
  -25.2051  -10.8100   20.0692 C   0  0  0  0  0  0  0  0  0  0  0  0
  -25.6690  -37.0763   25.5475 C   0  0  0  0  0  0  0  0  0  0  0  0
  -27.1285  -30.8017   21.2001 C   0  0  0  0  0  0  0  0  0  0  0  0
  -26.4200  -35.8877   25.4725 C   0  0  0  0  0  0  0  0  0  0  0  0
  -26.5107  -29.5765   21.4999 C   0  0  0  0  0  0  0  0  0  0  0  0
  -29.7845  -19.6253   19.2667 C   0  0  0  0  0  0  0  0  0  0  0  0
  -29.7959  -16.8416   19.4494 C   0  0  0  0  0  0  0  0  0  0  0  0
  -23.7252   -7.6170   23.9019 C   0  0  0  0  0  0  0  0  0  0  0  0
  -27.4629  -28.6097   19.4994 C   0  0  0  0  0  0  0  0  0  0  0  0
  -22.1839   -5.8805   24.2644 C   0  0  0  0  0  0  0  0  0  0  0  0
  -20.3991   -4.0062   23.2234 C   0  0  0  0  0  0  0  0  0  0  0  0
  -30.9161  -18.9622   19.7415 C   0  0  0  0  0  0  0  0  0  0  0  0
  -21.0875   -6.3038   23.5132 C   0  0  0  0  0  0  0  0  0  0  0  0
  -25.7573  -10.1279   21.1699 C   0  0  0  0  0  0  0  0  0  0  0  0
  -26.2672  -11.4789   19.5117 C   0  0  0  0  0  0  0  0  0  0  0  0
  -27.4634  -19.5638   18.3840 C   0  0  0  0  0  0  0  0  0  0  0  0
  -23.8528  -10.8366   19.5933 C   0  0  0  0  0  0  0  0  0  0  0  0
  -25.7115  -32.4757   24.2441 C   0  0  0  0  0  0  0  0  0  0  0  0
  -28.4262  -25.2754   18.4539 C   0  0  0  0  0  0  0  0  0  0  0  0
  -23.4901  -30.7057   23.0851 C   0  0  0  0  0  0  0  0  0  0  0  0
  -21.1925  -28.9666   21.2593 C   0  0  0  0  0  0  0  0  0  0  0  0
  -30.8427  -14.6154   19.9920 C   0  0  0  0  0  0  0  0  0  0  0  0
  -24.1995  -37.0661   25.8870 C   0  0  0  0  0  0  0  0  0  0  0  0
  -26.9791  -31.9352   22.1782 C   0  0  0  0  0  0  0  0  0  0  0  0
  -25.6970  -29.4868   22.7619 C   0  0  0  0  0  0  0  0  0  0  0  0
  -23.5413  -35.7012   25.7028 C   0  0  0  0  0  0  0  0  0  0  0  0
  -31.2348  -11.1010   20.4073 C   0  0  0  0  0  0  0  0  0  0  0  0
  -24.4012  -34.6055   26.3247 C   0  0  0  0  0  0  0  0  0  0  0  0
  -29.7993  -10.5906   20.5522 C   0  0  0  0  0  0  0  0  0  0  0  0
  -31.4247  -12.4589   21.0810 C   0  0  0  0  0  0  0  0  0  0  0  0
  -29.0325  -12.9843   20.8156 C   0  0  0  0  0  0  0  0  0  0  0  0
  -25.7743  -34.5301   25.6463 C   0  0  1  0  0  0  0  0  0  0  0  0
  -25.5857  -31.9902   22.8299 C   0  0  1  0  0  0  0  0  0  0  0  0
  -28.7761  -11.6496   20.0969 C   0  0  2  0  0  0  0  0  0  0  0  0
  -27.8963  -22.5091   22.4111 C   0  0  0  0  0  0  0  0  0  0  0  0
  -18.7779  -28.2834   21.2684 C   0  0  0  0  0  0  0  0  0  0  0  0
  -24.0997  -28.5934   25.1994 C   0  0  0  0  0  0  0  0  0  0  0  0
  -22.0278  -27.3827   24.4853 C   0  0  0  0  0  0  0  0  0  0  0  0
  -21.8617  -29.6854   25.4302 C   0  0  0  0  0  0  0  0  0  0  0  0
  -30.6941  -21.5648   21.5364 C   0  0  0  0  0  0  0  0  0  0  0  0
  -20.6556  -30.4058   18.7296 C   0  0  0  0  0  0  0  0  0  0  0  0
  -29.8019  -21.1369   19.1779 C   0  0  0  0  0  0  0  0  0  0  0  0
  -27.5750  -26.2472   19.2470 C   0  0  0  0  0  0  0  0  0  1  0  0
  -28.4618  -23.8480   18.9412 C   0  0  0  0  0  0  0  0  0  0  0  0
  -28.2105  -21.6851   21.1653 C   0  0  0  0  0  0  0  0  0  0  0  0
  -22.8015  -29.3645   23.1051 C   0  0  1  0  0  0  0  0  0  0  0  0
  -19.7880  -29.3219   20.8059 C   0  0  2  0  0  0  0  0  0  0  0  0
  -22.7182  -28.7624   24.5362 C   0  0  0  0  0  0  0  0  0  0  0  0
  -29.5980  -21.9089   20.5112 C   0  0  1  0  0  0  0  0  0  0  0  0
  -27.0685  -10.3436   21.3052 N   0  0  0  0  0  0  0  0  0  0  0  0
  -26.6507  -19.0249   17.5265 N   0  0  0  0  0  0  0  0  0  0  0  0
  -27.3490  -11.1686   20.2821 N   0  0  0  0  0  0  0  0  0  0  0  0
  -24.8806  -30.7004   22.9206 N   0  0  0  0  0  0  0  0  0  0  0  0
  -30.4233  -13.4120   20.5977 N   0  0  0  0  0  0  0  0  0  0  0  0
  -26.3720  -12.2962   18.4424 N   0  0  0  0  0  0  0  0  0  0  0  0
  -22.8867  -10.0924   20.2840 N   0  0  0  0  0  0  0  0  0  0  0  0
  -29.8023  -15.4277   19.5424 N   0  0  0  0  0  0  0  0  0  0  0  0
  -25.6721  -33.8510   24.3724 N   0  0  0  0  0  0  0  0  0  0  0  0
  -21.5063  -29.5611   22.4632 N   0  0  0  0  0  0  0  0  0  0  0  0
  -19.7292  -29.4052   19.3191 N   0  3  0  0  0  0  0  0  0  0  0  0
  -23.5146  -11.4876   18.5758 O   0  0  0  0  0  0  0  0  0  0  0  0
  -25.8338  -31.6631   25.1532 O   0  0  0  0  0  0  0  0  0  0  0  0
  -29.0804  -25.6299   17.4728 O   0  0  0  0  0  0  0  0  0  0  0  0
  -22.8167  -31.7315   23.2173 O   0  0  0  0  0  0  0  0  0  0  0  0
  -21.9355  -28.2320   20.6121 O   0  0  0  0  0  0  0  0  0  0  0  0
  -32.0374  -14.8914   19.8559 O   0  0  0  0  0  0  0  0  0  0  0  0
  -23.0713   -6.8096   24.7812 O   0  0  0  0  0  0  0  0  0  0  0  0
  -27.6188  -27.5477   18.6612 O   0  0  0  0  0  0  0  0  0  1  0  0
  -19.5430   -3.1060   22.7223 F   0  0  0  0  0  0  0  0  0  0  0  0
  -32.0030  -19.6529   20.1133 F   0  0  0  0  0  0  0  0  0  0  0  0
  -20.8869   -7.6094   23.2873 F   0  0  0  0  0  0  0  0  0  0  0  0
  -29.8106  -23.6636   20.1262 S   0  0  0  0  0  0  0  0  0  0  0  0
  1  2  1  0  0  0  0
  1  5  2  0  0  0  0
  2  6  2  0  0  0  0
  3  8  2  0  0  0  0
  3 17  1  0  0  0  0
  4  9  1  0  0  0  0
  4 17  2  0  0  0  0
  5 20  1  0  0  0  0
  6 22  1  0  0  0  0
  7 10  2  0  0  0  0
  7 21  1  0  0  0  0
  8 26  1  0  0  0  0
  9 26  2  0  0  0  0
 10 27  1  0  0  0  0
 11 12  2  0  0  0  0
 11 28  1  0  0  0  0
 12 29  1  0  0  0  0
 13 18  1  0  0  0  0
 13 25  2  0  0  0  0
 14 23  1  0  0  0  0
 14 27  2  0  0  0  0
 15 25  1  0  0  0  0
 15 30  2  0  0  0  0
 16 29  2  0  0  0  0
 16 31  1  0  0  0  0
 17 32  1  0  0  0  0
 18 24  2  0  0  0  0
 18 34  1  0  0  0  0
 19 32  1  0  0  0  0
 19 33  2  0  0  0  0
 19 35  1  0  0  0  0
 20 22  2  0  0  0  0
 20 41  1  0  0  0  0
 21 23  2  0  0  0  0
 21 42  1  0  0  0  0
 22 50  1  0  0  0  0
 23 43  1  0  0  0  0
 24 30  1  0  0  0  0
 24 60  1  0  0  0  0
 25 75  1  0  0  0  0
 26 85  1  0  0  0  0
 27 86  1  0  0  0  0
 28 31  2  0  0  0  0
 28 85  1  0  0  0  0
 29 87  1  0  0  0  0
 30 88  1  0  0  0  0
 31 89  1  0  0  0  0
 32 68  2  0  0  0  0
 33 70  1  0  0  0  0
 33 73  1  0  0  0  0
 34 69  2  0  0  0  0
 35 74  1  0  0  0  0
 35 79  2  0  0  0  0
 36 51  1  0  0  0  0
 36 76  1  0  0  0  0
 36 80  2  0  0  0  0
 37 61  1  0  0  0  0
 37 62  1  0  0  0  0
 37 81  2  0  0  0  0
 38 64  1  0  0  0  0
 38 71  1  0  0  0  0
 38 82  2  0  0  0  0
 39 65  1  0  0  0  0
 39 77  1  0  0  0  0
 39 83  2  0  0  0  0
 40 72  1  0  0  0  0
 40 75  1  0  0  0  0
 40 84  2  0  0  0  0
 41 44  1  0  0  0  0
 42 51  1  0  0  0  0
 43 71  1  0  0  0  0
 44 46  1  0  0  0  0
 45 47  1  0  0  0  0
 45 48  1  0  0  0  0
 46 50  1  0  0  0  0
 47 52  1  0  0  0  0
 48 72  1  0  0  0  0
 49 52  1  0  0  0  0
 49 72  1  0  0  0  0
 50 76  1  0  0  0  0
 51 71  1  0  0  0  0
 52 70  1  0  0  0  0
 53 63  1  0  0  0  0
 54 65  1  0  0  0  0
 55 66  1  0  0  0  0
 56 66  1  0  0  0  0
 57 66  1  0  0  0  0
 58 67  1  0  0  0  0
 59 78  1  0  0  0  0
 60 67  1  0  0  0  0
 61 86  1  0  0  0  0
 62 90  1  0  0  0  0
 63 67  1  0  0  0  0
 64 66  1  0  0  0  0
 64 77  1  0  0  0  0
 65 78  1  0  0  0  0
 67 90  1  0  0  0  0
 68 70  1  0  0  0  0
M  CHG  1  78   1
M  ISO  4  40 100  61 101  75 100  86 101
M  END
> <Batch ID>
0173

> <Smiles>
CCC(C)(Cc1c(F)cc([100NH:0][100C:0](=O)N2CCCC(n3nc(-c4ccc(Oc5ccc(F)cc5F)cc4)c(C(N)=O)c3N)C2)cc1C=N)SCC(=O)[101CH2:1][101O:1]c1ccc2c(c1)CN(C(=O)C(NC(=O)C(C)NC)C(C)(C)C)C(C(=O)NC1CCCc3ccccc31)C2

> <Shape>
0.333

> <Color>
0.069

> <Negative vol penalty>
0.000

$$$$

  -OEChem-04052304293D

 88 96  0     1  0  0  0  0  0999 V2000
  -16.6127  -29.9587   20.7728 C   0  0  0  0  0  0  0  0  0  0  0  0
  -17.7089  -30.3532   20.0124 C   0  0  0  0  0  0  0  0  0  0  0  0
  -24.2408   -9.3908   21.0138 C   0  0  0  0  0  0  0  0  0  0  0  0
  -26.4060   -9.6799   22.0460 C   0  0  0  0  0  0  0  0  0  0  0  0
  -16.7002  -29.9428   22.1642 C   0  0  0  0  0  0  0  0  0  0  0  0
  -18.8931  -30.7331   20.6432 C   0  0  0  0  0  0  0  0  0  0  0  0
  -25.0797  -27.2975   19.2962 C   0  0  0  0  0  0  0  0  0  0  0  0
  -24.2240   -8.0573   21.4225 C   0  0  0  0  0  0  0  0  0  0  0  0
  -26.3892   -8.3464   22.4548 C   0  0  0  0  0  0  0  0  0  0  0  0
  -26.3422  -26.8276   18.9338 C   0  0  0  0  0  0  0  0  0  0  0  0
  -23.6010   -6.3299   24.2617 C   0  0  0  0  0  0  0  0  0  0  0  0
  -22.4239   -5.8402   24.8275 C   0  0  0  0  0  0  0  0  0  0  0  0
  -28.7155  -19.1090   20.1488 C   0  0  0  0  0  0  0  0  0  0  0  0
  -27.3632  -28.2577   20.5952 C   0  0  0  0  0  0  0  0  0  0  0  0
  -29.2521  -19.4139   17.8130 C   0  0  0  0  0  0  0  0  0  0  0  0
  -22.2703   -4.1846   23.0746 C   0  0  0  0  0  0  0  0  0  0  0  0
  -25.3319  -10.2021   21.3254 C   0  0  0  0  0  0  0  0  0  0  0  0
  -29.0717  -20.4333   20.4035 C   0  0  0  0  0  0  0  0  0  0  0  0
  -24.8630  -12.6931   21.6133 C   0  0  0  0  0  0  0  0  0  0  0  0
  -17.8892  -30.3135   22.8120 C   0  0  0  0  0  0  0  0  0  0  0  0
  -24.9527  -28.2391   20.3212 C   0  0  0  0  0  0  0  0  0  0  0  0
  -18.9962  -30.7234   22.0446 C   0  0  0  0  0  0  0  0  0  0  0  0
  -26.1002  -28.7229   20.9710 C   0  0  0  0  0  0  0  0  0  0  0  0
  -28.8057  -18.5993   18.8536 C   0  0  0  0  0  0  0  0  0  0  0  0
  -29.5181  -21.2480   19.3630 C   0  0  0  0  0  0  0  0  0  0  0  0
  -25.2981   -7.5351   22.1430 C   0  0  0  0  0  0  0  0  0  0  0  0
  -27.4811  -27.3067   19.5816 C   0  0  0  0  0  0  0  0  0  0  0  0
  -24.1128   -5.7471   23.1023 C   0  0  0  0  0  0  0  0  0  0  0  0
  -21.7585   -4.7675   24.2339 C   0  0  0  0  0  0  0  0  0  0  0  0
  -29.6083  -20.7383   18.0677 C   0  0  0  0  0  0  0  0  0  0  0  0
  -23.4474   -4.6744   22.5088 C   0  0  0  0  0  0  0  0  0  0  0  0
  -25.3501  -11.5795   20.9030 C   0  0  0  0  0  0  0  0  0  0  0  0
  -25.1140  -13.7627   20.7891 C   0  0  0  0  0  0  0  0  0  0  0  0
  -28.9680  -20.9351   21.7680 C   0  0  0  0  0  0  0  0  0  0  0  0
  -24.2394  -12.7551   22.9029 C   0  0  0  0  0  0  0  0  0  0  0  0
  -22.6538  -30.3458   22.4076 C   0  0  0  0  0  0  0  0  0  0  0  0
  -31.7995  -23.1389   18.2556 C   0  0  0  0  0  0  0  0  0  0  0  0
  -30.1262  -24.8827   19.0542 C   0  0  0  0  0  0  0  0  0  0  0  0
  -24.8268  -29.2694   24.2864 C   0  0  0  0  0  0  0  0  0  0  0  0
  -27.1499  -27.5423   26.0913 C   0  0  0  0  0  0  0  0  0  0  0  0
  -28.4742  -16.5922   17.3676 C   0  0  0  0  0  0  0  0  0  0  0  0
  -17.9209  -30.3256   24.3198 C   0  0  0  0  0  0  0  0  0  0  0  0
  -23.6178  -28.8190   20.7028 C   0  0  0  0  0  0  0  0  0  0  0  0
  -25.9183  -29.7611   22.0443 C   0  0  0  0  0  0  0  0  0  0  0  0
  -19.3321  -30.3841   24.8989 C   0  0  0  0  0  0  0  0  0  0  0  0
  -26.5987  -13.9170   15.9524 C   0  0  0  0  0  0  0  0  0  0  0  0
  -20.1596  -31.4464   24.1823 C   0  0  0  0  0  0  0  0  0  0  0  0
  -26.0666  -13.1620   17.1726 C   0  0  0  0  0  0  0  0  0  0  0  0
  -28.0089  -14.4547   16.1887 C   0  0  0  0  0  0  0  0  0  0  0  0
  -27.6370  -14.5095   18.6235 C   0  0  0  0  0  0  0  0  0  0  0  0
  -20.3059  -31.1189   22.6914 C   0  0  1  0  0  0  0  0  0  0  0  0
  -23.4996  -29.1227   22.2071 C   0  0  1  0  0  0  0  0  0  0  0  0
  -26.1944  -14.0049   18.4566 C   0  0  2  0  0  0  0  0  0  0  0  0
  -32.4523  -23.9578   17.1700 C   0  0  0  0  0  0  0  0  0  0  0  0
  -27.9867  -27.2276   28.4361 C   0  0  0  0  0  0  0  0  0  0  0  0
  -26.2621  -31.9564   24.1309 C   0  0  0  0  0  0  0  0  0  0  0  0
  -27.7694  -31.1776   25.9720 C   0  0  0  0  0  0  0  0  0  0  0  0
  -25.3192  -31.4056   26.3808 C   0  0  0  0  0  0  0  0  0  0  0  0
  -26.4655  -24.6630   26.0728 C   0  0  0  0  0  0  0  0  0  0  0  0
  -28.7788  -25.5024   18.7342 C   0  0  0  0  0  0  0  0  0  1  0  0
  -30.3481  -23.4628   18.5684 C   0  0  2  0  0  0  0  0  0  0  0  0
  -26.1642  -29.5069   24.9410 C   0  0  1  0  0  0  0  0  0  0  0  0
  -27.0320  -26.7243   27.3647 C   0  0  2  0  0  0  0  0  0  0  0  0
  -26.3764  -30.9966   25.3321 C   0  0  0  0  0  0  0  0  0  0  0  0
  -25.8710  -11.9110   19.7186 N   0  0  0  0  0  0  0  0  0  0  0  0
  -28.5594  -20.2110   22.7651 N   0  0  0  0  0  0  0  0  0  0  0  0
  -25.7126  -13.2450   19.6783 N   0  0  0  0  0  0  0  0  0  0  0  0
  -24.7703  -29.4091   22.8944 N   0  0  0  0  0  0  0  0  0  0  0  0
  -28.0527  -15.2467   17.4199 N   0  0  0  0  0  0  0  0  0  0  0  0
  -24.8789  -15.0862   20.9133 N   0  0  0  0  0  0  0  0  0  0  0  0
  -24.0582  -11.5619   23.6154 N   0  0  0  0  0  0  0  0  0  0  0  0
  -28.4435  -17.2541   18.5946 N   0  0  0  0  0  0  0  0  0  0  0  0
  -29.8766  -22.5651   19.5978 N   0  0  0  0  0  0  0  0  0  0  0  0
  -21.2997  -30.0851   22.4962 N   0  0  0  0  0  0  0  0  0  0  0  0
  -26.2400  -28.5779   26.0634 N   0  0  0  0  0  0  0  0  0  0  0  0
  -27.3443  -25.2929   27.0917 N   0  3  0  0  0  0  0  0  0  0  0  0
  -23.8395  -13.8345   23.4012 O   0  0  0  0  0  0  0  0  0  0  0  0
  -23.1894  -31.4457   22.4785 O   0  0  0  0  0  0  0  0  0  0  0  0
  -32.4309  -22.2660   18.8512 O   0  0  0  0  0  0  0  0  0  0  0  0
  -30.9869  -25.4956   19.6859 O   0  0  0  0  0  0  0  0  0  0  0  0
  -23.8558  -28.9735   24.9884 O   0  0  0  0  0  0  0  0  0  0  0  0
  -27.9699  -27.2901   25.2112 O   0  0  0  0  0  0  0  0  0  0  0  0
  -28.8098  -17.1264   16.3074 O   0  0  0  0  0  0  0  0  0  0  0  0
  -25.2819   -6.2340   22.5423 O   0  0  0  0  0  0  0  0  0  0  0  0
  -28.7102  -26.8403   19.2259 O   0  0  0  0  0  0  0  0  0  1  0  0
  -20.6290   -4.2963   24.7782 F   0  0  0  0  0  0  0  0  0  0  0  0
  -30.0357  -21.5119   17.0595 F   0  0  0  0  0  0  0  0  0  0  0  0
  -23.9348   -4.1096   21.3956 F   0  0  0  0  0  0  0  0  0  0  0  0
  1  2  1  0  0  0  0
  1  5  2  0  0  0  0
  2  6  2  0  0  0  0
  3  8  2  0  0  0  0
  3 17  1  0  0  0  0
  4  9  1  0  0  0  0
  4 17  2  0  0  0  0
  5 20  1  0  0  0  0
  6 22  1  0  0  0  0
  7 10  2  0  0  0  0
  7 21  1  0  0  0  0
  8 26  1  0  0  0  0
  9 26  2  0  0  0  0
 10 27  1  0  0  0  0
 11 12  2  0  0  0  0
 11 28  1  0  0  0  0
 12 29  1  0  0  0  0
 13 18  1  0  0  0  0
 13 24  2  0  0  0  0
 14 23  1  0  0  0  0
 14 27  2  0  0  0  0
 15 24  1  0  0  0  0
 15 30  2  0  0  0  0
 16 29  2  0  0  0  0
 16 31  1  0  0  0  0
 17 32  1  0  0  0  0
 18 25  2  0  0  0  0
 18 34  1  0  0  0  0
 19 32  1  0  0  0  0
 19 33  2  0  0  0  0
 19 35  1  0  0  0  0
 20 22  2  0  0  0  0
 20 42  1  0  0  0  0
 21 23  2  0  0  0  0
 21 43  1  0  0  0  0
 22 51  1  0  0  0  0
 23 44  1  0  0  0  0
 24 72  1  0  0  0  0
 25 30  1  0  0  0  0
 25 73  1  0  0  0  0
 26 84  1  0  0  0  0
 27 85  1  0  0  0  0
 28 31  2  0  0  0  0
 28 84  1  0  0  0  0
 29 86  1  0  0  0  0
 30 87  1  0  0  0  0
 31 88  1  0  0  0  0
 32 65  2  0  0  0  0
 33 67  1  0  0  0  0
 33 70  1  0  0  0  0
 34 66  2  0  0  0  0
 35 71  1  0  0  0  0
 35 77  2  0  0  0  0
 36 52  1  0  0  0  0
 36 74  1  0  0  0  0
 36 78  2  0  0  0  0
 37 54  1  0  0  0  0
 37 61  1  0  0  0  0
 37 79  2  0  0  0  0
 38 60  1  0  0  0  0
 38 61  1  0  0  0  0
 38 80  2  0  0  0  0
 39 62  1  0  0  0  0
 39 68  1  0  0  0  0
 39 81  2  0  0  0  0
 40 63  1  0  0  0  0
 40 75  1  0  0  0  0
 40 82  2  0  0  0  0
 41 69  1  0  0  0  0
 41 72  1  0  0  0  0
 41 83  2  0  0  0  0
 42 45  1  0  0  0  0
 43 52  1  0  0  0  0
 44 68  1  0  0  0  0
 45 47  1  0  0  0  0
 46 48  1  0  0  0  0
 46 49  1  0  0  0  0
 47 51  1  0  0  0  0
 48 53  1  0  0  0  0
 49 69  1  0  0  0  0
 50 53  1  0  0  0  0
 50 69  1  0  0  0  0
 51 74  1  0  0  0  0
 52 68  1  0  0  0  0
 53 67  1  0  0  0  0
 55 63  1  0  0  0  0
 56 64  1  0  0  0  0
 57 64  1  0  0  0  0
 58 64  1  0  0  0  0
 59 76  1  0  0  0  0
 60 85  1  0  0  0  0
 61 73  1  0  0  0  0
 62 64  1  0  0  0  0
 62 75  1  0  0  0  0
 63 76  1  0  0  0  0
 65 67  1  0  0  0  0
M  CHG  1  76   1
M  ISO  4  41 100  60 101  72 100  85 101
M  END
> <Batch ID>
0173

> <Smiles>
CNC(C)C(=O)NC(C(=O)N1Cc2cc([101O:1][101CH2:1]C(=O)C(Nc3c(F)cc([100NH:0][100C:0](=O)N4CCCC(n5nc(-c6ccc(Oc7ccc(F)cc7F)cc6)c(C(N)=O)c5N)C4)cc3C=N)C(C)=O)ccc2CC1C(=O)NC1CCCc2ccccc21)C(C)(C)C

> <Shape>
0.295

> <Color>
0.128

> <Negative vol penalty>
0.000

$$$$

  -OEChem-04052304293D

 85 93  0     1  0  0  0  0  0999 V2000
  -16.5116  -30.0459   22.8652 C   0  0  0  0  0  0  0  0  0  0  0  0
  -17.5407  -30.9238   23.1902 C   0  0  0  0  0  0  0  0  0  0  0  0
  -30.6292  -20.1113   22.5175 C   0  0  0  0  0  0  0  0  0  0  0  0
  -28.4385  -19.0929   22.5424 C   0  0  0  0  0  0  0  0  0  0  0  0
  -29.1920  -26.8867   29.0202 C   0  0  0  0  0  0  0  0  0  0  0  0
  -16.7811  -28.6878   22.7012 C   0  0  0  0  0  0  0  0  0  0  0  0
  -18.8398  -30.4439   23.3526 C   0  0  0  0  0  0  0  0  0  0  0  0
  -25.6686  -32.3823   22.3899 C   0  0  0  0  0  0  0  0  0  0  0  0
  -29.2447  -28.0445   28.2441 C   0  0  0  0  0  0  0  0  0  0  0  0
  -30.9940  -19.3005   21.4427 C   0  0  0  0  0  0  0  0  0  0  0  0
  -28.8032  -18.2821   21.4676 C   0  0  0  0  0  0  0  0  0  0  0  0
  -26.8751  -32.4575   23.0845 C   0  0  0  0  0  0  0  0  0  0  0  0
  -30.6015  -15.4623   20.9718 C   0  0  0  0  0  0  0  0  0  0  0  0
  -30.2695  -14.1093   21.0389 C   0  0  0  0  0  0  0  0  0  0  0  0
  -27.2368  -30.1038   22.6989 C   0  0  0  0  0  0  0  0  0  0  0  0
  -31.2911  -28.6941   29.3520 C   0  0  0  0  0  0  0  0  0  0  0  0
  -28.9449  -14.3349   19.0309 C   0  0  0  0  0  0  0  0  0  0  0  0
  -29.3515  -20.0075   23.0674 C   0  0  0  0  0  0  0  0  0  0  0  0
  -30.1889  -26.6326   29.9623 C   0  0  0  0  0  0  0  0  0  0  0  0
  -28.3807  -22.1195   24.1184 C   0  0  0  0  0  0  0  0  0  0  0  0
  -18.0859  -28.1925   22.8522 C   0  0  0  0  0  0  0  0  0  0  0  0
  -25.2312  -31.1630   21.8530 C   0  0  0  0  0  0  0  0  0  0  0  0
  -19.1268  -29.0777   23.1918 C   0  0  0  0  0  0  0  0  0  0  0  0
  -26.0257  -30.0164   21.9956 C   0  0  0  0  0  0  0  0  0  0  0  0
  -31.2384  -27.5363   30.1282 C   0  0  0  0  0  0  0  0  0  0  0  0
  -30.2942  -28.9482   28.4100 C   0  0  0  0  0  0  0  0  0  0  0  0
  -30.0810  -18.3859   20.9178 C   0  0  0  0  0  0  0  0  0  0  0  0
  -27.6580  -31.3176   23.2416 C   0  0  0  0  0  0  0  0  0  0  0  0
  -30.1052  -16.2517   19.9344 C   0  0  0  0  0  0  0  0  0  0  0  0
  -29.4412  -13.5455   20.0684 C   0  0  0  0  0  0  0  0  0  0  0  0
  -29.2769  -15.6880   18.9640 C   0  0  0  0  0  0  0  0  0  0  0  0
  -28.9743  -20.8444   24.1780 C   0  0  0  0  0  0  0  0  0  0  0  0
  -28.2238  -22.4869   25.4325 C   0  0  0  0  0  0  0  0  0  0  0  0
  -30.1071  -25.3921   30.7755 C   0  0  0  0  0  0  0  0  0  0  0  0
  -28.0045  -22.9018   22.9773 C   0  0  0  0  0  0  0  0  0  0  0  0
  -22.7113  -29.2823   22.3186 C   0  0  0  0  0  0  0  0  0  0  0  0
  -23.9670  -27.6376   19.8204 C   0  0  0  0  0  0  0  0  0  0  0  0
  -29.4436  -30.5297   26.6439 C   0  0  0  0  0  0  0  0  0  0  0  0
  -26.7176  -26.8470   17.9615 C   0  0  0  0  0  0  0  0  0  0  0  0
  -30.0960  -22.9219   30.6290 C   0  0  0  0  0  0  0  0  0  0  0  0
  -18.3201  -26.7092   22.7116 C   0  0  0  0  0  0  0  0  0  0  0  0
  -23.9402  -31.1043   21.0833 C   0  0  0  0  0  0  0  0  0  0  0  0
  -25.6107  -28.6876   21.4208 C   0  0  0  0  0  0  0  0  0  0  0  0
  -19.7902  -26.3390   22.5329 C   0  0  0  0  0  0  0  0  0  0  0  0
  -28.7373  -19.7955   29.6925 C   0  0  0  0  0  0  0  0  0  0  0  0
  -20.6547  -27.0814   23.5469 C   0  0  0  0  0  0  0  0  0  0  0  0
  -28.6202  -19.8945   28.1691 C   0  0  0  0  0  0  0  0  0  0  0  0
  -30.0015  -20.4803   30.2101 C   0  0  0  0  0  0  0  0  0  0  0  0
  -30.0696  -21.9627   28.2464 C   0  0  0  0  0  0  0  0  0  0  0  0
  -20.5535  -28.5990   23.3520 C   0  0  1  0  0  0  0  0  0  0  0  0
  -23.3444  -29.7012   21.0219 C   0  0  1  0  0  0  0  0  0  0  0  0
  -28.7775  -21.3493   27.6829 C   0  0  1  0  0  0  0  0  0  0  0  0
  -32.3180  -27.2889   31.1308 C   0  0  0  0  0  0  0  0  0  0  0  0
  -27.4388  -25.4475   16.0074 C   0  0  0  0  0  0  0  0  0  0  0  0
  -23.8585  -25.1411   21.5714 C   0  0  0  0  0  0  0  0  0  0  0  0
  -25.4249  -24.0309   19.9645 C   0  0  0  0  0  0  0  0  0  0  0  0
  -23.1732  -24.7783   19.1937 C   0  0  0  0  0  0  0  0  0  0  0  0
  -27.5824  -29.2262   16.4284 C   0  0  0  0  0  0  0  0  0  0  0  0
  -29.8771  -31.8596   26.0378 C   0  0  0  0  0  0  0  0  0  0  0  0
  -28.9297  -32.3617   24.9588 C   0  0  0  0  0  0  0  0  0  1  0  0
  -24.9554  -26.5060   19.6741 C   0  0  1  0  0  0  0  0  0  0  0  0
  -26.9430  -26.8119   16.4607 C   0  0  2  0  0  0  0  0  0  0  0  0
  -24.3602  -25.1385   20.1135 C   0  0  0  0  0  0  0  0  0  0  0  0
  -29.1807  -20.4297   25.4308 N   0  0  0  0  0  0  0  0  0  0  0  0
  -28.7143  -21.4501   26.1706 N   0  0  0  0  0  0  0  0  0  0  0  0
  -24.3373  -28.6799   20.6820 N   0  0  0  0  0  0  0  0  0  0  0  0
  -30.0708  -21.8556   29.7132 N   0  0  0  0  0  0  0  0  0  0  0  0
  -27.7157  -23.5925   26.0172 N   0  0  0  0  0  0  0  0  0  0  0  0
  -28.2361  -22.3740   21.6997 N   0  0  0  0  0  0  0  0  0  0  0  0
  -30.3469  -30.1226   27.6221 N   0  0  0  0  0  0  0  0  0  0  0  0
  -30.1192  -24.1976   30.0547 N   0  0  0  0  0  0  0  0  0  0  0  0
  -21.3581  -29.0186   22.2246 N   0  0  0  0  0  0  0  0  0  0  0  0
  -25.4138  -26.5409   18.2895 N   0  0  0  0  0  0  0  0  0  0  0  0
  -27.9524  -27.8342   16.0645 N   0  3  0  0  0  0  0  0  0  0  0  0
  -30.0748  -25.4806   31.9998 O   0  0  0  0  0  0  0  0  0  0  0  0
  -27.4936  -24.0421   23.0871 O   0  0  0  0  0  0  0  0  0  0  0  0
  -23.3998  -29.2027   23.3292 O   0  0  0  0  0  0  0  0  0  0  0  0
  -22.9085  -27.6016   19.1880 O   0  0  0  0  0  0  0  0  0  0  0  0
  -28.4289  -29.9456   26.2785 O   0  0  0  0  0  0  0  0  0  0  0  0
  -27.6099  -27.1152   18.7630 O   0  0  0  0  0  0  0  0  0  0  0  0
  -30.0621  -22.7541   31.8522 O   0  0  0  0  0  0  0  0  0  0  0  0
  -30.4364  -17.5947   19.8688 O   0  0  0  0  0  0  0  0  0  0  0  0
  -28.8357  -31.3880   23.9198 O   0  0  0  0  0  0  0  0  0  1  0  0
  -29.1236  -12.2458   20.1320 F   0  0  0  0  0  0  0  0  0  0  0  0
  -28.7981  -16.4411   17.9643 F   0  0  0  0  0  0  0  0  0  0  0  0
  1  2  1  0  0  0  0
  1  6  2  0  0  0  0
  2  7  2  0  0  0  0
  3 10  2  0  0  0  0
  3 18  1  0  0  0  0
  4 11  1  0  0  0  0
  4 18  2  0  0  0  0
  5  9  2  0  0  0  0
  5 19  1  0  0  0  0
  6 21  1  0  0  0  0
  7 23  1  0  0  0  0
  8 12  2  0  0  0  0
  8 22  1  0  0  0  0
  9 26  1  0  0  0  0
 10 27  1  0  0  0  0
 11 27  2  0  0  0  0
 12 28  1  0  0  0  0
 13 14  2  0  0  0  0
 13 29  1  0  0  0  0
 14 30  1  0  0  0  0
 15 24  1  0  0  0  0
 15 28  2  0  0  0  0
 16 25  1  0  0  0  0
 16 26  2  0  0  0  0
 17 30  2  0  0  0  0
 17 31  1  0  0  0  0
 18 32  1  0  0  0  0
 19 25  2  0  0  0  0
 19 34  1  0  0  0  0
 20 32  1  0  0  0  0
 20 33  2  0  0  0  0
 20 35  1  0  0  0  0
 21 23  2  0  0  0  0
 21 41  1  0  0  0  0
 22 24  2  0  0  0  0
 22 42  1  0  0  0  0
 23 50  1  0  0  0  0
 24 43  1  0  0  0  0
 25 53  1  0  0  0  0
 26 70  1  0  0  0  0
 27 82  1  0  0  0  0
 28 83  1  0  0  0  0
 29 31  2  0  0  0  0
 29 82  1  0  0  0  0
 30 84  1  0  0  0  0
 31 85  1  0  0  0  0
 32 64  2  0  0  0  0
 33 65  1  0  0  0  0
 33 68  1  0  0  0  0
 34 71  1  0  0  0  0
 34 75  2  0  0  0  0
 35 69  1  0  0  0  0
 35 76  2  0  0  0  0
 36 51  1  0  0  0  0
 36 72  1  0  0  0  0
 36 77  2  0  0  0  0
 37 61  1  0  0  0  0
 37 66  1  0  0  0  0
 37 78  2  0  0  0  0
 38 59  1  0  0  0  0
 38 70  1  0  0  0  0
 38 79  2  0  0  0  0
 39 62  1  0  0  0  0
 39 73  1  0  0  0  0
 39 80  2  0  0  0  0
 40 67  1  0  0  0  0
 40 71  1  0  0  0  0
 40 81  2  0  0  0  0
 41 44  1  0  0  0  0
 42 51  1  0  0  0  0
 43 66  1  0  0  0  0
 44 46  1  0  0  0  0
 45 47  1  0  0  0  0
 45 48  1  0  0  0  0
 46 50  1  0  0  0  0
 47 52  1  0  0  0  0
 48 67  1  0  0  0  0
 49 52  1  0  0  0  0
 49 67  1  0  0  0  0
 50 72  1  0  0  0  0
 51 66  1  0  0  0  0
 52 65  1  0  0  0  0
 54 62  1  0  0  0  0
 55 63  1  0  0  0  0
 56 63  1  0  0  0  0
 57 63  1  0  0  0  0
 58 74  1  0  0  0  0
 59 60  1  0  0  0  0
 60 83  1  0  0  0  0
 61 63  1  0  0  0  0
 61 73  1  0  0  0  0
 62 74  1  0  0  0  0
 64 65  1  0  0  0  0
M  CHG  1  74   1
M  ISO  4  40 100  60 101  71 100  83 101
M  END
> <Batch ID>
0173

> <Smiles>
CNC(C)C(=O)NC(C(=O)N1Cc2cc([101O:1][101CH2:1]CC(=O)Nc3ccc(C(=O)[100NH:0][100C:0](=O)N4CCCC(n5nc(-c6ccc(Oc7ccc(F)cc7F)cc6)c(C(N)=O)c5N)C4)c(C)c3)ccc2CC1C(=O)NC1CCCc2ccccc21)C(C)(C)C

> <Shape>
0.211

> <Color>
0.102

> <Negative vol penalty>
0.000

$$$$

  -OEChem-04052304293D

 86 94  0     1  0  0  0  0  0999 V2000
  -31.8298  -27.4996   14.9672 C   0  0  0  0  0  0  0  0  0  0  0  0
  -31.1205  -26.6907   15.8492 C   0  0  0  0  0  0  0  0  0  0  0  0
  -23.7934   -9.1033   20.5513 C   0  0  0  0  0  0  0  0  0  0  0  0
  -23.3217  -11.0149   21.9516 C   0  0  0  0  0  0  0  0  0  0  0  0
  -32.1591  -28.8046   15.3311 C   0  0  0  0  0  0  0  0  0  0  0  0
  -30.7409  -27.1861   17.0962 C   0  0  0  0  0  0  0  0  0  0  0  0
  -25.9481  -26.0418   18.2642 C   0  0  0  0  0  0  0  0  0  0  0  0
  -23.0541   -8.2911   21.4111 C   0  0  0  0  0  0  0  0  0  0  0  0
  -22.5824  -10.2026   22.8114 C   0  0  0  0  0  0  0  0  0  0  0  0
  -25.6933  -24.7455   18.7097 C   0  0  0  0  0  0  0  0  0  0  0  0
  -19.7961   -7.6140   22.0112 C   0  0  0  0  0  0  0  0  0  0  0  0
  -18.9008   -6.7102   21.4392 C   0  0  0  0  0  0  0  0  0  0  0  0
  -25.6697  -25.5394   20.9875 C   0  0  0  0  0  0  0  0  0  0  0  0
  -20.0918   -4.8781   22.4698 C   0  0  0  0  0  0  0  0  0  0  0  0
  -31.3296  -18.1637   22.6872 C   0  0  0  0  0  0  0  0  0  0  0  0
  -23.9272  -10.4652   20.8216 C   0  0  0  0  0  0  0  0  0  0  0  0
  -24.2164  -12.0097   18.8119 C   0  0  0  0  0  0  0  0  0  0  0  0
  -31.7750  -29.3194   16.5793 C   0  0  0  0  0  0  0  0  0  0  0  0
  -26.0765  -27.0966   19.1793 C   0  0  0  0  0  0  0  0  0  0  0  0
  -31.0665  -28.4987   17.4777 C   0  0  0  0  0  0  0  0  0  0  0  0
  -25.9235  -26.8486   20.5509 C   0  0  0  0  0  0  0  0  0  0  0  0
  -29.0818  -18.3321   23.4458 C   0  0  0  0  0  0  0  0  0  0  0  0
  -22.4486   -8.8407   22.5411 C   0  0  0  0  0  0  0  0  0  0  0  0
  -25.5570  -24.4936   20.0717 C   0  0  0  0  0  0  0  0  0  0  0  0
  -20.8393   -7.1499   22.8124 C   0  0  0  0  0  0  0  0  0  0  0  0
  -19.0486   -5.3423   21.6685 C   0  0  0  0  0  0  0  0  0  0  0  0
  -20.9871   -5.7819   23.0418 C   0  0  0  0  0  0  0  0  0  0  0  0
  -30.3620  -18.8710   23.3823 C   0  0  0  0  0  0  0  0  0  0  0  0
  -28.8122  -17.1195   22.8210 C   0  0  0  0  0  0  0  0  0  0  0  0
  -24.6913  -11.3047   19.9341 C   0  0  0  0  0  0  0  0  0  0  0  0
  -29.8492  -16.4907   22.1509 C   0  0  0  0  0  0  0  0  0  0  0  0
  -25.3251  -12.6493   18.3138 C   0  0  0  0  0  0  0  0  0  0  0  0
  -26.2137  -22.6521   21.3555 C   0  0  0  0  0  0  0  0  0  1  0  0
  -22.8914  -12.0803   18.2686 C   0  0  0  0  0  0  0  0  0  0  0  0
  -26.1427  -21.4226   21.8890 C   0  0  0  0  0  0  0  0  0  0  0  0
  -27.2498  -20.9875   22.7996 C   0  0  0  0  0  0  0  0  0  0  0  0
  -28.4040  -29.1139   19.9648 C   0  0  0  0  0  0  0  0  0  0  0  0
  -26.0882  -30.4624   21.7925 C   0  0  0  0  0  0  0  0  0  0  0  0
  -23.1315  -30.0975   23.4575 C   0  0  0  0  0  0  0  0  0  0  0  0
  -30.4529  -14.4570   20.7922 C   0  0  0  0  0  0  0  0  0  0  0  0
  -32.1948  -30.7206   16.9471 C   0  0  0  0  0  0  0  0  0  0  0  0
  -26.3248  -28.4938   18.6809 C   0  0  0  0  0  0  0  0  0  0  0  0
  -26.0323  -27.9496   21.5728 C   0  0  0  0  0  0  0  0  0  0  0  0
  -31.4299  -31.2928   18.1378 C   0  0  0  0  0  0  0  0  0  0  0  0
  -30.0875  -12.2243   18.0429 C   0  0  0  0  0  0  0  0  0  0  0  0
  -31.3632  -30.2725   19.2697 C   0  0  0  0  0  0  0  0  0  0  0  0
  -28.6175  -11.8040   18.1101 C   0  0  0  0  0  0  0  0  0  0  0  0
  -30.6944  -12.3894   19.4351 C   0  0  0  0  0  0  0  0  0  0  0  0
  -28.4778  -12.8559   20.4038 C   0  0  0  0  0  0  0  0  0  0  0  0
  -30.6155  -29.0082   18.8294 C   0  0  1  0  0  0  0  0  0  0  0  0
  -26.9473  -29.4028   19.7362 C   0  0  1  0  0  0  0  0  0  0  0  0
  -27.8050  -12.7400   19.0263 C   0  0  2  0  0  0  0  0  0  0  0  0
  -21.5079  -31.3659   24.8899 C   0  0  0  0  0  0  0  0  0  0  0  0
  -27.9897  -30.2117   24.1656 C   0  0  0  0  0  0  0  0  0  0  0  0
  -26.0337  -30.5851   25.6831 C   0  0  0  0  0  0  0  0  0  0  0  0
  -26.7168  -32.3623   24.0714 C   0  0  0  0  0  0  0  0  0  0  0  0
  -20.9418  -29.7339   21.4999 C   0  0  0  0  0  0  0  0  0  0  0  0
  -27.9955  -19.0572   24.1862 C   0  0  0  0  0  0  0  0  0  0  0  0
  -25.5936  -30.2693   23.2057 C   0  0  1  0  0  0  0  0  0  0  0  0
  -21.8736  -30.9470   23.4745 C   0  0  2  0  0  0  0  0  0  0  0  0
  -26.5832  -30.8358   24.2626 C   0  0  0  0  0  0  0  0  0  0  0  0
  -31.1055  -16.9832   22.0676 N   0  0  0  0  0  0  0  0  0  0  0  0
  -25.9998  -11.4795   20.1370 N   0  0  0  0  0  0  0  0  0  0  0  0
  -26.3566  -12.3017   19.1356 N   0  0  0  0  0  0  0  0  0  0  0  0
  -26.2820  -29.2977   21.0364 N   0  0  0  0  0  0  0  0  0  0  0  0
  -29.8738  -13.2926   20.2449 N   0  0  0  0  0  0  0  0  0  0  0  0
  -25.5086  -13.4693   17.2572 N   0  0  0  0  0  0  0  0  0  0  0  0
  -21.8695  -11.3618   18.9040 N   0  0  0  0  0  0  0  0  0  0  0  0
  -29.5681  -15.2555   21.5161 N   0  0  0  0  0  0  0  0  0  0  0  0
  -27.0671  -19.7047   23.2870 N   0  0  0  0  0  0  0  0  0  0  0  0
  -29.1868  -29.2388   18.8329 N   0  0  0  0  0  0  0  0  0  0  0  0
  -24.2614  -30.8619   23.2565 N   0  0  0  0  0  0  0  0  0  0  0  0
  -20.7280  -30.1878   22.8982 N   0  3  0  0  0  0  0  0  0  0  0  0
  -22.6250  -12.7473   17.2401 O   0  0  0  0  0  0  0  0  0  0  0  0
  -28.2021  -21.7153   23.0662 O   0  0  0  0  0  0  0  0  0  0  0  0
  -28.7895  -28.8022   21.0855 O   0  0  0  0  0  0  0  0  0  0  0  0
  -26.2881  -31.6049   21.3726 O   0  0  0  0  0  0  0  0  0  0  0  0
  -23.1140  -28.8782   23.6111 O   0  0  0  0  0  0  0  0  0  0  0  0
  -31.6395  -14.7400   20.6076 O   0  0  0  0  0  0  0  0  0  0  0  0
  -25.1171  -20.5331   21.6555 O   0  0  0  0  0  0  0  0  0  0  0  0
  -21.7269   -8.0485   23.3802 O   0  0  0  0  0  0  0  0  0  0  0  0
  -25.3090  -23.2291   20.5092 O   0  0  0  0  0  0  0  0  0  1  0  0
  -18.1878   -4.4746   21.1204 F   0  0  0  0  0  0  0  0  0  0  0  0
  -21.9866   -5.3302   23.8116 F   0  0  0  0  0  0  0  0  0  0  0  0
  -30.6590  -20.0357   23.9712 F   0  0  0  0  0  0  0  0  0  0  0  0
  -27.5861  -16.5809   22.8688 F   0  0  0  0  0  0  0  0  0  0  0  0
  1  2  1  0  0  0  0
  1  5  2  0  0  0  0
  2  6  2  0  0  0  0
  3  8  2  0  0  0  0
  3 16  1  0  0  0  0
  4  9  1  0  0  0  0
  4 16  2  0  0  0  0
  5 18  1  0  0  0  0
  6 20  1  0  0  0  0
  7 10  2  0  0  0  0
  7 19  1  0  0  0  0
  8 23  1  0  0  0  0
  9 23  2  0  0  0  0
 10 24  1  0  0  0  0
 11 12  2  0  0  0  0
 11 25  1  0  0  0  0
 12 26  1  0  0  0  0
 13 21  1  0  0  0  0
 13 24  2  0  0  0  0
 14 26  2  0  0  0  0
 14 27  1  0  0  0  0
 15 28  2  0  0  0  0
 15 62  1  0  0  0  0
 16 30  1  0  0  0  0
 17 30  1  0  0  0  0
 17 32  2  0  0  0  0
 17 34  1  0  0  0  0
 18 20  2  0  0  0  0
 18 41  1  0  0  0  0
 19 21  2  0  0  0  0
 19 42  1  0  0  0  0
 20 50  1  0  0  0  0
 21 43  1  0  0  0  0
 22 28  1  0  0  0  0
 22 29  2  0  0  0  0
 22 58  1  0  0  0  0
 23 81  1  0  0  0  0
 24 82  1  0  0  0  0
 25 27  2  0  0  0  0
 25 81  1  0  0  0  0
 26 83  1  0  0  0  0
 27 84  1  0  0  0  0
 28 85  1  0  0  0  0
 29 31  1  0  0  0  0
 29 86  1  0  0  0  0
 30 63  2  0  0  0  0
 31 62  2  0  0  0  0
 31 69  1  0  0  0  0
 32 64  1  0  0  0  0
 32 67  1  0  0  0  0
 33 35  2  0  0  0  0
 33 82  1  0  0  0  0
 34 68  1  0  0  0  0
 34 74  2  0  0  0  0
 35 36  1  0  0  0  0
 35 80  1  0  0  0  0
 36 70  1  0  0  0  0
 36 75  2  0  0  0  0
 37 51  1  0  0  0  0
 37 71  1  0  0  0  0
 37 76  2  0  0  0  0
 38 59  1  0  0  0  0
 38 65  1  0  0  0  0
 38 77  2  0  0  0  0
 39 60  1  0  0  0  0
 39 72  1  0  0  0  0
 39 78  2  0  0  0  0
 40 66  1  0  0  0  0
 40 69  1  0  0  0  0
 40 79  2  0  0  0  0
 41 44  1  0  0  0  0
 42 51  1  0  0  0  0
 43 65  1  0  0  0  0
 44 46  1  0  0  0  0
 45 47  1  0  0  0  0
 45 48  1  0  0  0  0
 46 50  1  0  0  0  0
 47 52  1  0  0  0  0
 48 66  1  0  0  0  0
 49 52  1  0  0  0  0
 49 66  1  0  0  0  0
 50 71  1  0  0  0  0
 51 65  1  0  0  0  0
 52 64  1  0  0  0  0
 53 60  1  0  0  0  0
 54 61  1  0  0  0  0
 55 61  1  0  0  0  0
 56 61  1  0  0  0  0
 57 73  1  0  0  0  0
 58 70  1  0  0  0  0
 59 61  1  0  0  0  0
 59 72  1  0  0  0  0
 60 73  1  0  0  0  0
 63 64  1  0  0  0  0
M  CHG  1  73   1
M  ISO  4  33 101  40 100  69 100  82 101
M  END
> <Batch ID>
0173

> <Smiles>
CNC(C)C(=O)NC(C(=O)N1Cc2cc([101O:1][101CH2:1]C(=O)C(=O)NCc3c(F)cnc([100NH:0][100C:0](=O)N4CCCC(n5nc(-c6ccc(Oc7ccc(F)cc7F)cc6)c(C(N)=O)c5N)C4)c3F)ccc2CC1C(=O)NC1CCCc2ccccc21)C(C)(C)C

> <Shape>
0.250

> <Color>
0.104

> <Negative vol penalty>
0.000

$$$$

  -OEChem-04052304293D

 85 93  0     1  0  0  0  0  0999 V2000
  -21.1064  -34.9610   16.0567 C   0  0  0  0  0  0  0  0  0  0  0  0
  -21.9384  -33.8493   15.9704 C   0  0  0  0  0  0  0  0  0  0  0  0
  -22.1207  -13.1545   21.8152 C   0  0  0  0  0  0  0  0  0  0  0  0
  -22.1260  -14.2277   19.6507 C   0  0  0  0  0  0  0  0  0  0  0  0
  -29.4659  -20.6727   16.6449 C   0  0  0  0  0  0  0  0  0  0  0  0
  -21.2460  -35.8540   17.1182 C   0  0  0  0  0  0  0  0  0  0  0  0
  -22.9114  -33.6307   16.9451 C   0  0  0  0  0  0  0  0  0  0  0  0
  -24.8245  -28.2226   19.0894 C   0  0  0  0  0  0  0  0  0  0  0  0
  -20.7714  -13.4725   21.9696 C   0  0  0  0  0  0  0  0  0  0  0  0
  -20.7766  -14.5457   19.8050 C   0  0  0  0  0  0  0  0  0  0  0  0
  -25.9335  -27.4333   18.7882 C   0  0  0  0  0  0  0  0  0  0  0  0
  -17.7946  -12.2967   20.8793 C   0  0  0  0  0  0  0  0  0  0  0  0
  -29.2709  -19.4211   16.0609 C   0  0  0  0  0  0  0  0  0  0  0  0
  -16.9439  -11.2992   21.3558 C   0  0  0  0  0  0  0  0  0  0  0  0
  -27.1149  -28.3890   20.6618 C   0  0  0  0  0  0  0  0  0  0  0  0
  -16.3806  -12.6856   23.2525 C   0  0  0  0  0  0  0  0  0  0  0  0
  -22.7980  -13.5322   20.6557 C   0  0  0  0  0  0  0  0  0  0  0  0
  -29.5155  -20.7943   18.0336 C   0  0  0  0  0  0  0  0  0  0  0  0
  -24.7305  -12.0387   19.9190 C   0  0  0  0  0  0  0  0  0  0  0  0
  -22.2147  -35.6411   18.1117 C   0  0  0  0  0  0  0  0  0  0  0  0
  -24.8563  -29.1105   20.1744 C   0  0  0  0  0  0  0  0  0  0  0  0
  -23.0650  -34.5225   18.0202 C   0  0  0  0  0  0  0  0  0  0  0  0
  -26.0040  -29.1865   20.9762 C   0  0  0  0  0  0  0  0  0  0  0  0
  -29.1750  -18.4127   18.2543 C   0  0  0  0  0  0  0  0  0  0  0  0
  -20.0994  -14.1680   20.9645 C   0  0  0  0  0  0  0  0  0  0  0  0
  -27.0800  -27.5185   19.5726 C   0  0  0  0  0  0  0  0  0  0  0  0
  -17.9383  -13.4886   21.5895 C   0  0  0  0  0  0  0  0  0  0  0  0
  -16.2369  -11.4937   22.5423 C   0  0  0  0  0  0  0  0  0  0  0  0
  -29.1254  -18.2911   16.8656 C   0  0  0  0  0  0  0  0  0  0  0  0
  -17.2313  -13.6831   22.7761 C   0  0  0  0  0  0  0  0  0  0  0  0
  -29.3700  -19.6643   18.8383 C   0  0  0  0  0  0  0  0  0  0  0  0
  -24.1920  -13.2045   20.4959 C   0  0  0  0  0  0  0  0  0  0  0  0
  -26.0906  -12.2093   20.0060 C   0  0  0  0  0  0  0  0  0  0  0  0
  -28.8602  -23.1336   18.4388 C   0  0  0  0  0  0  0  0  0  0  0  0
  -29.7220  -22.1216   18.6460 C   0  0  0  0  0  0  0  0  0  0  0  0
  -24.0612  -10.9032   19.3549 C   0  0  0  0  0  0  0  0  0  0  0  0
  -29.0051  -24.4976   19.0316 C   0  0  0  0  0  0  0  0  0  0  0  0
  -24.6114  -32.2628   20.5011 C   0  0  0  0  0  0  0  0  0  0  0  0
  -24.6506  -31.5464   23.6646 C   0  0  0  0  0  0  0  0  0  0  0  0
  -25.5369  -29.3581   26.1289 C   0  0  0  0  0  0  0  0  0  0  0  0
  -29.5857  -17.0450   20.3297 C   0  0  0  0  0  0  0  0  0  0  0  0
  -22.3595  -36.6595   19.2146 C   0  0  0  0  0  0  0  0  0  0  0  0
  -23.6420  -29.9355   20.5022 C   0  0  0  0  0  0  0  0  0  0  0  0
  -26.0817  -30.1090   22.1642 C   0  0  0  0  0  0  0  0  0  0  0  0
  -23.1662  -36.1544   20.4081 C   0  0  0  0  0  0  0  0  0  0  0  0
  -29.4309  -14.3689   22.6730 C   0  0  0  0  0  0  0  0  0  0  0  0
  -24.4408  -35.4618   19.9361 C   0  0  0  0  0  0  0  0  0  0  0  0
  -28.1219  -13.6569   22.3242 C   0  0  0  0  0  0  0  0  0  0  0  0
  -29.3138  -15.8832   22.5094 C   0  0  0  0  0  0  0  0  0  0  0  0
  -27.5106  -15.6179   20.8519 C   0  0  0  0  0  0  0  0  0  0  0  0
  -24.1158  -34.2378   19.0714 C   0  0  1  0  0  0  0  0  0  0  0  0
  -23.9688  -31.1802   21.3214 C   0  0  1  0  0  0  0  0  0  0  0  0
  -27.5989  -14.0855   20.9392 C   0  0  2  0  0  0  0  0  0  0  0  0
  -25.4702  -29.0645   28.6202 C   0  0  0  0  0  0  0  0  0  0  0  0
  -26.9509  -33.5295   23.9574 C   0  0  0  0  0  0  0  0  0  0  0  0
  -27.4537  -32.5102   26.1882 C   0  0  0  0  0  0  0  0  0  0  0  0
  -25.2551  -33.6205   25.7932 C   0  0  0  0  0  0  0  0  0  0  0  0
  -23.8809  -26.9147   25.9131 C   0  0  0  0  0  0  0  0  0  0  0  0
  -27.9175  -25.4860   18.6652 C   0  0  0  0  0  0  0  0  0  1  0  0
  -25.7267  -31.3849   24.7109 C   0  0  1  0  0  0  0  0  0  0  0  0
  -24.7580  -28.7949   27.3039 C   0  0  2  0  0  0  0  0  0  0  0  0
  -26.3461  -32.7452   25.1389 C   0  0  0  0  0  0  0  0  0  0  0  0
  -25.1332  -14.0529   20.9183 N   0  0  0  0  0  0  0  0  0  0  0  0
  -26.2768  -13.4196   20.6066 N   0  0  0  0  0  0  0  0  0  0  0  0
  -24.8709  -30.8998   22.4402 N   0  0  0  0  0  0  0  0  0  0  0  0
  -28.8169  -16.2145   21.1722 N   0  0  0  0  0  0  0  0  0  0  0  0
  -27.1335  -11.4406   19.6266 N   0  0  0  0  0  0  0  0  0  0  0  0
  -22.6597  -10.8902   19.3458 N   0  0  0  0  0  0  0  0  0  0  0  0
  -29.0277  -17.2639   19.0706 N   0  0  0  0  0  0  0  0  0  0  0  0
  -23.7118  -33.1244   19.9029 N   0  0  0  0  0  0  0  0  0  0  0  0
  -25.1224  -30.6327   25.8053 N   0  0  0  0  0  0  0  0  0  0  0  0
  -24.5881  -27.3219   27.1545 N   0  3  0  0  0  0  0  0  0  0  0  0
  -24.6873   -9.9216   18.8879 O   0  0  0  0  0  0  0  0  0  0  0  0
  -29.9425  -24.7969   19.7654 O   0  0  0  0  0  0  0  0  0  0  0  0
  -25.8330  -32.3135   20.4184 O   0  0  0  0  0  0  0  0  0  0  0  0
  -23.6480  -32.2155   23.9266 O   0  0  0  0  0  0  0  0  0  0  0  0
  -26.4266  -28.7314   25.5578 O   0  0  0  0  0  0  0  0  0  0  0  0
  -30.6731  -17.5046   20.6882 O   0  0  0  0  0  0  0  0  0  0  0  0
  -30.8446  -22.1977   19.4433 O   0  0  0  0  0  0  0  0  0  0  0  0
  -18.7826  -14.4783   21.1147 O   0  0  0  0  0  0  0  0  0  0  0  0
  -28.1642  -26.7497   19.2804 O   0  0  0  0  0  0  0  0  0  1  0  0
  -15.4189  -10.5363   22.9989 F   0  0  0  0  0  0  0  0  0  0  0  0
  -28.9395  -17.0931   16.2932 F   0  0  0  0  0  0  0  0  0  0  0  0
  -17.3644  -14.8266   23.4621 F   0  0  0  0  0  0  0  0  0  0  0  0
  -29.4177  -19.7774   20.1752 F   0  0  0  0  0  0  0  0  0  0  0  0
  1  2  1  0  0  0  0
  1  6  2  0  0  0  0
  2  7  2  0  0  0  0
  3  9  2  0  0  0  0
  3 17  1  0  0  0  0
  4 10  1  0  0  0  0
  4 17  2  0  0  0  0
  5 13  2  0  0  0  0
  5 18  1  0  0  0  0
  6 20  1  0  0  0  0
  7 22  1  0  0  0  0
  8 11  2  0  0  0  0
  8 21  1  0  0  0  0
  9 25  1  0  0  0  0
 10 25  2  0  0  0  0
 11 26  1  0  0  0  0
 12 14  2  0  0  0  0
 12 27  1  0  0  0  0
 13 29  1  0  0  0  0
 14 28  1  0  0  0  0
 15 23  1  0  0  0  0
 15 26  2  0  0  0  0
 16 28  2  0  0  0  0
 16 30  1  0  0  0  0
 17 32  1  0  0  0  0
 18 31  2  0  0  0  0
 18 35  1  0  0  0  0
 19 32  1  0  0  0  0
 19 33  2  0  0  0  0
 19 36  1  0  0  0  0
 20 22  2  0  0  0  0
 20 42  1  0  0  0  0
 21 23  2  0  0  0  0
 21 43  1  0  0  0  0
 22 51  1  0  0  0  0
 23 44  1  0  0  0  0
 24 29  2  0  0  0  0
 24 31  1  0  0  0  0
 24 69  1  0  0  0  0
 25 80  1  0  0  0  0
 26 81  1  0  0  0  0
 27 30  2  0  0  0  0
 27 80  1  0  0  0  0
 28 82  1  0  0  0  0
 29 83  1  0  0  0  0
 30 84  1  0  0  0  0
 31 85  1  0  0  0  0
 32 63  2  0  0  0  0
 33 64  1  0  0  0  0
 33 67  1  0  0  0  0
 34 35  2  0  0  0  0
 34 37  1  0  0  0  0
 35 79  1  0  0  0  0
 36 68  1  0  0  0  0
 36 73  2  0  0  0  0
 37 59  1  0  0  0  0
 37 74  2  0  0  0  0
 38 52  1  0  0  0  0
 38 70  1  0  0  0  0
 38 75  2  0  0  0  0
 39 60  1  0  0  0  0
 39 65  1  0  0  0  0
 39 76  2  0  0  0  0
 40 61  1  0  0  0  0
 40 71  1  0  0  0  0
 40 77  2  0  0  0  0
 41 66  1  0  0  0  0
 41 69  1  0  0  0  0
 41 78  2  0  0  0  0
 42 45  1  0  0  0  0
 43 52  1  0  0  0  0
 44 65  1  0  0  0  0
 45 47  1  0  0  0  0
 46 48  1  0  0  0  0
 46 49  1  0  0  0  0
 47 51  1  0  0  0  0
 48 53  1  0  0  0  0
 49 66  1  0  0  0  0
 50 53  1  0  0  0  0
 50 66  1  0  0  0  0
 51 70  1  0  0  0  0
 52 65  1  0  0  0  0
 53 64  1  0  0  0  0
 54 61  1  0  0  0  0
 55 62  1  0  0  0  0
 56 62  1  0  0  0  0
 57 62  1  0  0  0  0
 58 72  1  0  0  0  0
 59 81  1  0  0  0  0
 60 62  1  0  0  0  0
 60 71  1  0  0  0  0
 61 72  1  0  0  0  0
 63 64  1  0  0  0  0
M  CHG  1  72   1
M  ISO  4  41 100  59 101  69 100  81 101
M  END
> <Batch ID>
0173

> <Smiles>
CNC(C)C(=O)NC(C(=O)N1Cc2cc([101O:1][101CH2:1]C(=O)CC(=O)c3ccc(F)c([100NH:0][100C:0](=O)N4CCCC(n5nc(-c6ccc(Oc7ccc(F)cc7F)cc6)c(C(N)=O)c5N)C4)c3F)ccc2CC1C(=O)NC1CCCc2ccccc21)C(C)(C)C

> <Shape>
0.257

> <Color>
0.106

> <Negative vol penalty>
0.000

$$$$

  -OEChem-04052304293D

 86 94  0     1  0  0  0  0  0999 V2000
  -22.6899   -7.8765   21.2563 C   0  0  0  0  0  0  0  0  0  0  0  0
  -23.7722   -8.7324   21.0785 C   0  0  0  0  0  0  0  0  0  0  0  0
  -25.1085  -31.0230   21.0718 C   0  0  0  0  0  0  0  0  0  0  0  0
  -24.4517  -29.4900   22.8198 C   0  0  0  0  0  0  0  0  0  0  0  0
  -29.3703  -19.5741   17.9744 C   0  0  0  0  0  0  0  0  0  0  0  0
  -21.3916   -8.3846   21.2446 C   0  0  0  0  0  0  0  0  0  0  0  0
  -23.5566  -10.0968   20.8879 C   0  0  0  0  0  0  0  0  0  0  0  0
  -26.6916  -12.9627   23.6453 C   0  0  0  0  0  0  0  0  0  0  0  0
  -24.5039  -32.0719   21.7645 C   0  0  0  0  0  0  0  0  0  0  0  0
  -23.8470  -30.5389   23.5125 C   0  0  0  0  0  0  0  0  0  0  0  0
  -27.9965  -13.1108   23.1772 C   0  0  0  0  0  0  0  0  0  0  0  0
  -25.2286  -34.0613   24.4008 C   0  0  0  0  0  0  0  0  0  0  0  0
  -28.8030  -20.3117   16.9353 C   0  0  0  0  0  0  0  0  0  0  0  0
  -25.9363  -35.2582   24.5114 C   0  0  0  0  0  0  0  0  0  0  0  0
  -27.4188  -15.2691   22.2675 C   0  0  0  0  0  0  0  0  0  0  0  0
  -24.1565  -36.4170   23.3596 C   0  0  0  0  0  0  0  0  0  0  0  0
  -25.0824  -29.7320   21.5995 C   0  0  0  0  0  0  0  0  0  0  0  0
  -28.8621  -19.6873   19.2685 C   0  0  0  0  0  0  0  0  0  0  0  0
  -27.0387  -28.2086   20.9998 C   0  0  0  0  0  0  0  0  0  0  0  0
  -21.1605   -9.7573   21.0634 C   0  0  0  0  0  0  0  0  0  0  0  0
  -25.7360  -13.9636   23.4182 C   0  0  0  0  0  0  0  0  0  0  0  0
  -22.2539  -10.6235   20.8725 C   0  0  0  0  0  0  0  0  0  0  0  0
  -26.1031  -15.1324   22.7360 C   0  0  0  0  0  0  0  0  0  0  0  0
  -27.2195  -21.2760   18.4844 C   0  0  0  0  0  0  0  0  0  0  0  0
  -23.8731  -31.8299   22.9848 C   0  0  0  0  0  0  0  0  0  0  0  0
  -28.3595  -14.2628   22.4857 C   0  0  0  0  0  0  0  0  0  0  0  0
  -23.9849  -34.0422   23.7695 C   0  0  0  0  0  0  0  0  0  0  0  0
  -25.4002  -36.4360   23.9908 C   0  0  0  0  0  0  0  0  0  0  0  0
  -27.7276  -21.1627   17.1903 C   0  0  0  0  0  0  0  0  0  0  0  0
  -23.4488  -35.2200   23.2489 C   0  0  0  0  0  0  0  0  0  0  0  0
  -27.7868  -20.5383   19.5235 C   0  0  0  0  0  0  0  0  0  0  0  0
  -25.7063  -28.6480   20.8842 C   0  0  0  0  0  0  0  0  0  0  0  0
  -27.1326  -27.1606   20.1171 C   0  0  0  0  0  0  0  0  0  0  0  0
  -29.4656  -18.9049   20.3667 C   0  0  0  0  0  0  0  0  0  0  0  0
  -28.0970  -28.7036   21.8310 C   0  0  0  0  0  0  0  0  0  0  0  0
  -22.9698  -14.1116   21.8594 C   0  0  0  0  0  0  0  0  0  0  0  0
  -22.8382  -17.0776   23.1662 C   0  0  0  0  0  0  0  0  0  0  0  0
  -24.5178  -19.7390   24.4863 C   0  0  0  0  0  0  0  0  0  0  0  0
  -29.9975  -16.6368   21.2321 C   0  0  0  0  0  0  0  0  0  0  0  0
  -25.1003  -22.4903   17.8673 C   0  0  0  0  0  0  0  0  0  0  0  0
  -19.7371  -10.2531   21.0111 C   0  0  0  0  0  0  0  0  0  0  0  0
  -24.3397  -13.8004   23.9529 C   0  0  0  0  0  0  0  0  0  0  0  0
  -25.1201  -16.2453   22.4838 C   0  0  0  0  0  0  0  0  0  0  0  0
  -19.6124  -11.7654   21.1775 C   0  0  0  0  0  0  0  0  0  0  0  0
  -23.9291  -25.5764   16.5324 C   0  0  0  0  0  0  0  0  0  0  0  0
  -20.6271  -12.4850   20.2947 C   0  0  0  0  0  0  0  0  0  0  0  0
  -24.3967  -26.6145   17.5551 C   0  0  0  0  0  0  0  0  0  0  0  0
  -23.5008  -24.2724   17.2031 C   0  0  0  0  0  0  0  0  0  0  0  0
  -24.9619  -24.7243   19.1346 C   0  0  0  0  0  0  0  0  0  0  0  0
  -22.0619  -12.1132   20.6876 C   0  0  1  0  0  0  0  0  0  0  0  0
  -23.3140  -14.6567   23.2166 C   0  0  1  0  0  0  0  0  0  0  0  0
  -25.4647  -26.0319   18.5014 C   0  0  2  0  0  0  0  0  0  0  0  0
  -24.1424  -22.0332   25.4314 C   0  0  0  0  0  0  0  0  0  0  0  0
  -31.0310  -14.6635   20.1073 C   0  0  0  0  0  0  0  0  0  0  0  0
  -22.3926  -18.1625   20.3494 C   0  0  0  0  0  0  0  0  0  0  0  0
  -22.9718  -20.4409   21.2105 C   0  0  0  0  0  0  0  0  0  0  0  0
  -20.9842  -19.2356   22.1155 C   0  0  0  0  0  0  0  0  0  0  0  0
  -25.6645  -18.9742   27.1053 C   0  0  0  0  0  0  0  0  0  0  0  0
  -23.3031  -18.4517   22.7480 C   0  0  1  0  0  0  0  0  0  0  0  0
  -24.2851  -20.5523   25.7468 C   0  0  2  0  0  0  0  0  0  0  0  0
  -29.8107  -15.1867   20.8435 C   0  0  1  0  0  0  0  0  0  1  0  0
  -22.4312  -19.0510   21.6088 C   0  0  0  0  0  0  0  0  0  0  0  0
  -25.0041  -27.9373   19.9977 N   0  0  0  0  0  0  0  0  0  0  0  0
  -25.8988  -27.0408   19.5483 N   0  0  0  0  0  0  0  0  0  0  0  0
  -23.7654  -16.0359   23.0208 N   0  0  0  0  0  0  0  0  0  0  0  0
  -24.5637  -23.7777   18.0809 N   0  0  0  0  0  0  0  0  0  0  0  0
  -28.1493  -26.3391   19.7797 N   0  0  0  0  0  0  0  0  0  0  0  0
  -27.8294  -29.7867   22.6793 N   0  0  0  0  0  0  0  0  0  0  0  0
  -26.1277  -22.1413   18.7432 N   0  0  0  0  0  0  0  0  0  0  0  0
  -29.4591  -17.5685   20.2674 N   0  0  0  0  0  0  0  0  0  0  0  0
  -22.4602  -12.8273   21.8817 N   0  0  0  0  0  0  0  0  0  0  0  0
  -23.3360  -19.2587   23.9629 N   0  0  0  0  0  0  0  0  0  0  0  0
  -29.9817  -19.5762   21.3957 N   0  3  0  0  0  0  0  0  0  0  0  0
  -25.4247  -20.3807   26.6917 N   0  3  0  0  0  0  0  0  0  0  0  0
  -29.2504  -28.2109   21.8097 O   0  0  0  0  0  0  0  0  0  0  0  0
  -23.1516  -14.8053   20.8658 O   0  0  0  0  0  0  0  0  0  0  0  0
  -21.6970  -16.9350   23.6123 O   0  0  0  0  0  0  0  0  0  0  0  0
  -25.6358  -19.5519   24.0112 O   0  0  0  0  0  0  0  0  0  0  0  0
  -30.5272  -17.0206   22.2658 O   0  0  0  0  0  0  0  0  0  0  0  0
  -24.6980  -21.7626   16.9559 O   0  0  0  0  0  0  0  0  0  0  0  0
  -23.2832  -32.8532   23.6611 O   0  0  0  0  0  0  0  0  0  0  0  0
  -29.6323  -14.4097   22.0271 O   0  0  0  0  0  0  0  0  0  1  0  0
  -26.0792  -37.5856   24.0985 F   0  0  0  0  0  0  0  0  0  0  0  0
  -27.1903  -21.8667   16.1837 F   0  0  0  0  0  0  0  0  0  0  0  0
  -22.2539  -35.2081   22.6424 F   0  0  0  0  0  0  0  0  0  0  0  0
  -27.2999  -20.6467   20.7692 F   0  0  0  0  0  0  0  0  0  0  0  0
  1  2  1  0  0  0  0
  1  6  2  0  0  0  0
  2  7  2  0  0  0  0
  3  9  2  0  0  0  0
  3 17  1  0  0  0  0
  4 10  1  0  0  0  0
  4 17  2  0  0  0  0
  5 13  2  0  0  0  0
  5 18  1  0  0  0  0
  6 20  1  0  0  0  0
  7 22  1  0  0  0  0
  8 11  2  0  0  0  0
  8 21  1  0  0  0  0
  9 25  1  0  0  0  0
 10 25  2  0  0  0  0
 11 26  1  0  0  0  0
 12 14  2  0  0  0  0
 12 27  1  0  0  0  0
 13 29  1  0  0  0  0
 14 28  1  0  0  0  0
 15 23  1  0  0  0  0
 15 26  2  0  0  0  0
 16 28  2  0  0  0  0
 16 30  1  0  0  0  0
 17 32  1  0  0  0  0
 18 31  2  0  0  0  0
 18 34  1  0  0  0  0
 19 32  1  0  0  0  0
 19 33  2  0  0  0  0
 19 35  1  0  0  0  0
 20 22  2  0  0  0  0
 20 41  1  0  0  0  0
 21 23  2  0  0  0  0
 21 42  1  0  0  0  0
 22 50  1  0  0  0  0
 23 43  1  0  0  0  0
 24 29  2  0  0  0  0
 24 31  1  0  0  0  0
 24 69  1  0  0  0  0
 25 81  1  0  0  0  0
 26 82  1  0  0  0  0
 27 30  2  0  0  0  0
 27 81  1  0  0  0  0
 28 83  1  0  0  0  0
 29 84  1  0  0  0  0
 30 85  1  0  0  0  0
 31 86  1  0  0  0  0
 32 63  2  0  0  0  0
 33 64  1  0  0  0  0
 33 67  1  0  0  0  0
 34 70  1  0  0  0  0
 34 73  2  0  0  0  0
 35 68  1  0  0  0  0
 35 75  2  0  0  0  0
 36 51  1  0  0  0  0
 36 71  1  0  0  0  0
 36 76  2  0  0  0  0
 37 59  1  0  0  0  0
 37 65  1  0  0  0  0
 37 77  2  0  0  0  0
 38 60  1  0  0  0  0
 38 72  1  0  0  0  0
 38 78  2  0  0  0  0
 39 61  1  0  0  0  0
 39 70  1  0  0  0  0
 39 79  2  0  0  0  0
 40 66  1  0  0  0  0
 40 69  1  0  0  0  0
 40 80  2  0  0  0  0
 41 44  1  0  0  0  0
 42 51  1  0  0  0  0
 43 65  1  0  0  0  0
 44 46  1  0  0  0  0
 45 47  1  0  0  0  0
 45 48  1  0  0  0  0
 46 50  1  0  0  0  0
 47 52  1  0  0  0  0
 48 66  1  0  0  0  0
 49 52  1  0  0  0  0
 49 66  1  0  0  0  0
 50 71  1  0  0  0  0
 51 65  1  0  0  0  0
 52 64  1  0  0  0  0
 53 60  1  0  0  0  0
 54 61  1  0  0  0  0
 55 62  1  0  0  0  0
 56 62  1  0  0  0  0
 57 62  1  0  0  0  0
 58 74  1  0  0  0  0
 59 62  1  0  0  0  0
 59 72  1  0  0  0  0
 60 74  1  0  0  0  0
 61 82  1  0  0  0  0
 63 64  1  0  0  0  0
M  CHG  2  73   1  74   1
M  ISO  4  40 100  61 101  69 100  82 101
M  END
> <Batch ID>
0173

> <Smiles>
CNC(C)C(=O)NC(C(=O)N1Cc2cc([101O:1][101CH:1](C)C(=O)NC(=N)c3ccc(F)c([100NH:0][100C:0](=O)N4CCCC(n5nc(-c6ccc(Oc7ccc(F)cc7F)cc6)c(C(N)=O)c5N)C4)c3F)ccc2CC1C(=O)NC1CCCc2ccccc21)C(C)(C)C

> <Shape>
0.234

> <Color>
0.079

> <Negative vol penalty>
0.000

$$$$

  -OEChem-04052304293D

 84 92  0     1  0  0  0  0  0999 V2000
  -24.6629  -18.9972   27.3011 C   0  0  0  0  0  0  0  0  0  0  0  0
  -25.4115  -20.1035   26.9159 C   0  0  0  0  0  0  0  0  0  0  0  0
  -25.3517  -13.6967   21.9152 C   0  0  0  0  0  0  0  0  0  0  0  0
  -26.5949  -13.6150   19.8452 C   0  0  0  0  0  0  0  0  0  0  0  0
  -23.4564  -18.7199   26.6618 C   0  0  0  0  0  0  0  0  0  0  0  0
  -24.9482  -20.9397   25.8995 C   0  0  0  0  0  0  0  0  0  0  0  0
  -27.5479  -25.7736   23.2533 C   0  0  0  0  0  0  0  0  0  0  0  0
  -24.4351  -12.7797   21.4009 C   0  0  0  0  0  0  0  0  0  0  0  0
  -25.6783  -12.6979   19.3309 C   0  0  0  0  0  0  0  0  0  0  0  0
  -28.3591  -26.0298   22.1487 C   0  0  0  0  0  0  0  0  0  0  0  0
  -24.2636   -9.4391   20.9069 C   0  0  0  0  0  0  0  0  0  0  0  0
  -23.8709   -8.3840   21.7303 C   0  0  0  0  0  0  0  0  0  0  0  0
  -29.8821  -21.2556   15.2736 C   0  0  0  0  0  0  0  0  0  0  0  0
  -29.2463  -20.7131   16.3848 C   0  0  0  0  0  0  0  0  0  0  0  0
  -26.4051  -26.5983   20.8532 C   0  0  0  0  0  0  0  0  0  0  0  0
  -21.5765   -9.1277   21.5889 C   0  0  0  0  0  0  0  0  0  0  0  0
  -26.4316  -14.1144   21.1373 C   0  0  0  0  0  0  0  0  0  0  0  0
  -28.5554  -14.7768   22.3857 C   0  0  0  0  0  0  0  0  0  0  0  0
  -22.9850  -19.5464   25.6286 C   0  0  0  0  0  0  0  0  0  0  0  0
  -26.1560  -25.9175   23.1628 C   0  0  0  0  0  0  0  0  0  0  0  0
  -23.7213  -20.6901   25.2583 C   0  0  0  0  0  0  0  0  0  0  0  0
  -25.5787  -26.3457   21.9589 C   0  0  0  0  0  0  0  0  0  0  0  0
  -24.5983  -12.2803   20.1088 C   0  0  0  0  0  0  0  0  0  0  0  0
  -27.7875  -26.4394   20.9476 C   0  0  0  0  0  0  0  0  0  0  0  0
  -23.3128  -10.3387   20.4246 C   0  0  0  0  0  0  0  0  0  0  0  0
  -22.5273   -8.2282   22.0713 C   0  0  0  0  0  0  0  0  0  0  0  0
  -30.5853  -22.4489   15.3956 C   0  0  0  0  0  0  0  0  0  0  0  0
  -21.9693  -10.1829   20.7656 C   0  0  0  0  0  0  0  0  0  0  0  0
  -27.3785  -15.0621   21.6678 C   0  0  0  0  0  0  0  0  0  0  0  0
  -29.3430  -21.3974   17.5857 C   0  0  0  0  0  0  0  0  0  0  0  0
  -30.6219  -23.0556   16.6407 C   0  0  0  0  0  0  0  0  0  0  0  0
  -29.0967  -16.0087   22.6611 C   0  0  0  0  0  0  0  0  0  0  0  0
  -29.1098  -13.5114   22.7691 C   0  0  0  0  0  0  0  0  0  0  0  0
  -23.6734  -23.9567   23.4723 C   0  0  0  0  0  0  0  0  0  0  0  0
  -30.1805  -25.7660   18.3075 C   0  0  0  0  0  0  0  0  0  0  0  0
  -21.9669  -26.6985   23.1667 C   0  0  0  0  0  0  0  0  0  0  0  0
  -21.8280  -29.9129   22.0289 C   0  0  0  0  0  0  0  0  0  0  0  0
  -28.6583  -21.3455   20.0095 C   0  0  0  0  0  0  0  0  0  0  0  0
  -21.6688  -19.2041   24.9761 C   0  0  0  0  0  0  0  0  0  0  0  0
  -25.2972  -25.6630   24.3712 C   0  0  0  0  0  0  0  0  0  0  0  0
  -24.0914  -26.5349   21.8157 C   0  0  0  0  0  0  0  0  0  0  0  0
  -21.4809  -19.8845   23.6240 C   0  0  0  0  0  0  0  0  0  0  0  0
  -27.8416  -20.5728   23.3878 C   0  0  0  0  0  0  0  0  0  0  0  0
  -21.7866  -21.3701   23.7427 C   0  0  0  0  0  0  0  0  0  0  0  0
  -27.7433  -19.0456   23.3968 C   0  0  0  0  0  0  0  0  0  0  0  0
  -27.3061  -21.1679   22.0868 C   0  0  0  0  0  0  0  0  0  0  0  0
  -27.7926  -19.0816   20.8703 C   0  0  0  0  0  0  0  0  0  0  0  0
  -23.2523  -21.5964   24.1345 C   0  0  1  0  0  0  0  0  0  0  0  0
  -23.8473  -25.3459   24.0177 C   0  0  1  0  0  0  0  0  0  0  0  0
  -28.3799  -18.4324   22.1341 C   0  0  2  0  0  0  0  0  0  0  0  0
  -32.6546  -25.9275   17.9012 C   0  0  0  0  0  0  0  0  0  0  0  0
  -20.2882  -31.8897   21.8931 C   0  0  0  0  0  0  0  0  0  0  0  0
  -20.4277  -25.3413   20.9087 C   0  0  0  0  0  0  0  0  0  0  0  0
  -19.6067  -27.5993   20.2049 C   0  0  0  0  0  0  0  0  0  0  0  0
  -19.0179  -26.7068   22.4586 C   0  0  0  0  0  0  0  0  0  0  0  0
  -23.6631  -31.5988   23.6254 C   0  0  0  0  0  0  0  0  0  0  0  0
  -29.7899  -25.9452   19.7636 C   0  0  0  0  0  0  0  0  0  1  0  0
  -31.4564  -24.9932   17.9730 C   0  0  2  0  0  0  0  0  0  0  0  0
  -21.3851  -27.4721   22.0083 C   0  0  1  0  0  0  0  0  0  0  0  0
  -21.3788  -31.1996   22.6975 C   0  0  2  0  0  0  0  0  0  0  0  0
  -20.1372  -26.7745   21.3969 C   0  0  0  0  0  0  0  0  0  0  0  0
  -27.1829  -16.3724   21.4980 N   0  0  0  0  0  0  0  0  0  0  0  0
  -30.0168  -22.5588   17.7429 N   0  0  0  0  0  0  0  0  0  0  0  0
  -28.2441  -16.9214   22.1131 N   0  0  0  0  0  0  0  0  0  0  0  0
  -23.2934  -26.2674   23.0236 N   0  0  0  0  0  0  0  0  0  0  0  0
  -27.9576  -20.5423   20.9339 N   0  0  0  0  0  0  0  0  0  0  0  0
  -30.2139  -16.3894   23.3163 N   0  0  0  0  0  0  0  0  0  0  0  0
  -28.4251  -12.3440   22.4049 N   0  0  0  0  0  0  0  0  0  0  0  0
  -28.6939  -20.8346   18.7125 N   0  0  0  0  0  0  0  0  0  0  0  0
  -31.3274  -24.2465   16.7499 N   0  0  0  0  0  0  0  0  0  0  0  0
  -23.4484  -22.9964   24.4401 N   0  0  0  0  0  0  0  0  0  0  0  0
  -21.1329  -28.8209   22.5037 N   0  0  0  0  0  0  0  0  0  0  0  0
  -22.5269  -32.1397   22.8359 N   0  3  0  0  0  0  0  0  0  0  0  0
  -30.1721  -13.4192   23.4298 O   0  0  0  0  0  0  0  0  0  0  0  0
  -23.7369  -23.7701   22.2628 O   0  0  0  0  0  0  0  0  0  0  0  0
  -29.5108  -26.2783   17.4063 O   0  0  0  0  0  0  0  0  0  0  0  0
  -21.2725  -26.4906   24.1648 O   0  0  0  0  0  0  0  0  0  0  0  0
  -22.7051  -29.8804   21.1685 O   0  0  0  0  0  0  0  0  0  0  0  0
  -29.2110  -22.3947   20.3496 O   0  0  0  0  0  0  0  0  0  0  0  0
  -23.7042  -11.3853   19.6067 O   0  0  0  0  0  0  0  0  0  0  0  0
  -28.5769  -26.6896   19.8677 O   0  0  0  0  0  0  0  0  0  1  0  0
  -22.1501   -7.2139   22.8607 F   0  0  0  0  0  0  0  0  0  0  0  0
  -31.2006  -22.9838   14.3333 F   0  0  0  0  0  0  0  0  0  0  0  0
  -21.0511  -11.0432   20.3044 F   0  0  0  0  0  0  0  0  0  0  0  0
  1  2  1  0  0  0  0
  1  5  2  0  0  0  0
  2  6  2  0  0  0  0
  3  8  2  0  0  0  0
  3 17  1  0  0  0  0
  4  9  1  0  0  0  0
  4 17  2  0  0  0  0
  5 19  1  0  0  0  0
  6 21  1  0  0  0  0
  7 10  2  0  0  0  0
  7 20  1  0  0  0  0
  8 23  1  0  0  0  0
  9 23  2  0  0  0  0
 10 24  1  0  0  0  0
 11 12  2  0  0  0  0
 11 25  1  0  0  0  0
 12 26  1  0  0  0  0
 13 14  2  0  0  0  0
 13 27  1  0  0  0  0
 14 30  1  0  0  0  0
 15 22  1  0  0  0  0
 15 24  2  0  0  0  0
 16 26  2  0  0  0  0
 16 28  1  0  0  0  0
 17 29  1  0  0  0  0
 18 29  1  0  0  0  0
 18 32  2  0  0  0  0
 18 33  1  0  0  0  0
 19 21  2  0  0  0  0
 19 39  1  0  0  0  0
 20 22  2  0  0  0  0
 20 40  1  0  0  0  0
 21 48  1  0  0  0  0
 22 41  1  0  0  0  0
 23 80  1  0  0  0  0
 24 81  1  0  0  0  0
 25 28  2  0  0  0  0
 25 80  1  0  0  0  0
 26 82  1  0  0  0  0
 27 31  2  0  0  0  0
 27 83  1  0  0  0  0
 28 84  1  0  0  0  0
 29 62  2  0  0  0  0
 30 63  2  0  0  0  0
 30 69  1  0  0  0  0
 31 63  1  0  0  0  0
 31 70  1  0  0  0  0
 32 64  1  0  0  0  0
 32 67  1  0  0  0  0
 33 68  1  0  0  0  0
 33 74  2  0  0  0  0
 34 49  1  0  0  0  0
 34 71  1  0  0  0  0
 34 75  2  0  0  0  0
 35 57  1  0  0  0  0
 35 58  1  0  0  0  0
 35 76  2  0  0  0  0
 36 59  1  0  0  0  0
 36 65  1  0  0  0  0
 36 77  2  0  0  0  0
 37 60  1  0  0  0  0
 37 72  1  0  0  0  0
 37 78  2  0  0  0  0
 38 66  1  0  0  0  0
 38 69  1  0  0  0  0
 38 79  2  0  0  0  0
 39 42  1  0  0  0  0
 40 49  1  0  0  0  0
 41 65  1  0  0  0  0
 42 44  1  0  0  0  0
 43 45  1  0  0  0  0
 43 46  1  0  0  0  0
 44 48  1  0  0  0  0
 45 50  1  0  0  0  0
 46 66  1  0  0  0  0
 47 50  1  0  0  0  0
 47 66  1  0  0  0  0
 48 71  1  0  0  0  0
 49 65  1  0  0  0  0
 50 64  1  0  0  0  0
 51 58  1  0  0  0  0
 52 60  1  0  0  0  0
 53 61  1  0  0  0  0
 54 61  1  0  0  0  0
 55 61  1  0  0  0  0
 56 73  1  0  0  0  0
 57 81  1  0  0  0  0
 58 70  1  0  0  0  0
 59 61  1  0  0  0  0
 59 72  1  0  0  0  0
 60 73  1  0  0  0  0
 62 64  1  0  0  0  0
M  CHG  1  73   1
M  ISO  4  38 100  57 101  69 100  81 101
M  END
> <Batch ID>
0173

> <Smiles>
CNC(C)C(=O)NC(C(=O)N1Cc2cc([101O:1][101CH2:1]C(=O)C(C)Nc3nc([100NH:0][100C:0](=O)N4CCCC(n5nc(-c6ccc(Oc7ccc(F)cc7F)cc6)c(C(N)=O)c5N)C4)ccc3F)ccc2CC1C(=O)NC1CCCc2ccccc21)C(C)(C)C

> <Shape>
0.227

> <Color>
0.064

> <Negative vol penalty>
0.000

$$$$

  -OEChem-04052304293D

 90 98  0     1  0  0  0  0  0999 V2000
  -38.1032  -23.1580   28.7574 C   0  0  0  0  0  0  0  0  0  0  0  0
  -36.8190  -23.2917   28.2396 C   0  0  0  0  0  0  0  0  0  0  0  0
  -23.1196   -9.8737   19.9485 C   0  0  0  0  0  0  0  0  0  0  0  0
  -23.9152   -9.8948   22.2297 C   0  0  0  0  0  0  0  0  0  0  0  0
  -39.1230  -23.9999   28.3155 C   0  0  0  0  0  0  0  0  0  0  0  0
  -36.5534  -24.2682   27.2803 C   0  0  0  0  0  0  0  0  0  0  0  0
  -33.7458  -22.5141   23.4481 C   0  0  0  0  0  0  0  0  0  0  0  0
  -22.4058   -8.7038   20.2083 C   0  0  0  0  0  0  0  0  0  0  0  0
  -23.2014   -8.7250   22.4895 C   0  0  0  0  0  0  0  0  0  0  0  0
  -32.3772  -22.3738   23.6737 C   0  0  0  0  0  0  0  0  0  0  0  0
  -20.0018   -7.8542   23.1415 C   0  0  0  0  0  0  0  0  0  0  0  0
  -19.2645   -7.7959   24.3241 C   0  0  0  0  0  0  0  0  0  0  0  0
  -31.9802  -24.4570   22.5240 C   0  0  0  0  0  0  0  0  0  0  0  0
  -29.8922  -17.7974   18.8559 C   0  0  0  0  0  0  0  0  0  0  0  0
  -28.9532  -18.9479   20.7615 C   0  0  0  0  0  0  0  0  0  0  0  0
  -29.7351  -20.2083   18.8543 C   0  0  0  0  0  0  0  0  0  0  0  0
  -20.5604   -5.8858   25.0378 C   0  0  0  0  0  0  0  0  0  0  0  0
  -23.8744  -10.4692   20.9592 C   0  0  0  0  0  0  0  0  0  0  0  0
  -24.1576  -13.0015   20.8379 C   0  0  0  0  0  0  0  0  0  0  0  0
  -38.8720  -24.9808   27.3432 C   0  0  0  0  0  0  0  0  0  0  0  0
  -34.2438  -23.6343   22.7672 C   0  0  0  0  0  0  0  0  0  0  0  0
  -37.5704  -25.1249   26.8259 C   0  0  0  0  0  0  0  0  0  0  0  0
  -33.3554  -24.6079   22.2889 C   0  0  0  0  0  0  0  0  0  0  0  0
  -29.3187  -17.7608   20.1268 C   0  0  0  0  0  0  0  0  0  0  0  0
  -30.1005  -19.0211   18.2196 C   0  0  0  0  0  0  0  0  0  0  0  0
  -29.1615  -20.1717   20.1253 C   0  0  0  0  0  0  0  0  0  0  0  0
  -22.4466   -8.1295   21.4788 C   0  0  0  0  0  0  0  0  0  0  0  0
  -31.4944  -23.3467   23.2142 C   0  0  0  0  0  0  0  0  0  0  0  0
  -21.0184   -6.9284   22.9070 C   0  0  0  0  0  0  0  0  0  0  0  0
  -19.5438   -6.8117   25.2723 C   0  0  0  0  0  0  0  0  0  0  0  0
  -21.2977   -5.9442   23.8551 C   0  0  0  0  0  0  0  0  0  0  0  0
  -24.6124  -11.6773   20.6913 C   0  0  0  0  0  0  0  0  0  0  0  0
  -25.2268  -13.7757   20.4586 C   0  0  0  0  0  0  0  0  0  0  0  0
  -22.8827  -13.4882   21.2776 C   0  0  0  0  0  0  0  0  0  0  0  0
  -36.2097  -26.0193   23.5091 C   0  0  0  0  0  0  0  0  0  0  0  0
  -35.8678  -26.7603   20.3696 C   0  0  0  0  0  0  0  0  0  0  0  0
  -33.9838  -26.5502   17.5317 C   0  0  0  0  0  0  0  0  0  0  0  0
  -28.2108  -21.5280   22.0263 C   0  0  0  0  0  0  0  0  0  0  0  0
  -30.8245  -14.6132   20.9895 C   0  0  0  0  0  0  0  0  0  0  0  0
  -39.9955  -25.8988   26.9312 C   0  0  0  0  0  0  0  0  0  0  0  0
  -35.7204  -23.7575   22.5086 C   0  0  0  0  0  0  0  0  0  0  0  0
  -33.8374  -25.8192   21.5347 C   0  0  0  0  0  0  0  0  0  0  0  0
  -39.7165  -26.6607   25.6382 C   0  0  0  0  0  0  0  0  0  0  0  0
  -29.5664  -12.5438   18.1902 C   0  0  0  0  0  0  0  0  0  0  0  0
  -38.3121  -27.2557   25.6617 C   0  0  0  0  0  0  0  0  0  0  0  0
  -28.1523  -12.1894   18.6472 C   0  0  0  0  0  0  0  0  0  0  0  0
  -30.5027  -12.7771   19.3719 C   0  0  0  0  0  0  0  0  0  0  0  0
  -28.5940  -13.4380   20.7982 C   0  0  0  0  0  0  0  0  0  0  0  0
  -37.2486  -26.1558   25.7658 C   0  0  1  0  0  0  0  0  0  0  0  0
  -36.1644  -25.1947   22.2538 C   0  0  1  0  0  0  0  0  0  0  0  0
  -27.6140  -13.2422   19.6317 C   0  0  2  0  0  0  0  0  0  0  0  0
  -33.9460  -27.2875   15.1333 C   0  0  0  0  0  0  0  0  0  0  0  0
  -27.2937  -23.0727   23.7955 C   0  0  0  0  0  0  0  0  0  0  0  0
  -27.0186  -23.6645   21.3601 C   0  0  0  0  0  0  0  0  0  0  0  0
  -35.0685  -29.5706   21.2487 C   0  0  0  0  0  0  0  0  0  0  0  0
  -34.1468  -29.9515   18.9523 C   0  0  0  0  0  0  0  0  0  0  0  0
  -36.5793  -29.4906   19.2574 C   0  0  0  0  0  0  0  0  0  0  0  0
  -31.2102  -16.8175   22.0250 C   0  0  0  0  0  0  0  0  0  0  0  0
  -33.9940  -23.7575   16.5521 C   0  0  0  0  0  0  0  0  0  0  0  0
  -29.0962  -16.4523   20.8070 C   0  0  0  0  0  0  0  0  0  0  0  0
  -29.2802  -23.7869   22.4662 C   0  0  0  0  0  0  0  0  0  1  0  0
  -34.9136  -27.6147   19.5706 C   0  0  1  0  0  0  0  0  0  0  0  0
  -34.3505  -26.1887   16.1037 C   0  0  2  0  0  0  0  0  0  0  0  0
  -30.7137  -19.0601   16.8607 C   0  0  0  0  0  0  0  0  0  0  0  0
  -27.9434  -23.0103   22.4018 C   0  0  0  0  0  0  0  0  0  0  0  0
  -35.1678  -29.1351   19.7731 C   0  0  0  0  0  0  0  0  0  0  0  0
  -25.8724  -11.6104   20.2530 N   0  0  0  0  0  0  0  0  0  0  0  0
  -26.2183  -12.9022   20.1208 N   0  0  0  0  0  0  0  0  0  0  0  0
  -35.2906  -25.8978   21.3124 N   0  0  0  0  0  0  0  0  0  0  0  0
  -29.9470  -13.7496   20.3135 N   0  0  0  0  0  0  0  0  0  0  0  0
  -25.4062  -15.1117   20.3845 N   0  0  0  0  0  0  0  0  0  0  0  0
  -21.8968  -12.5561   21.6293 N   0  0  0  0  0  0  0  0  0  0  0  0
  -28.7903  -21.3771   20.7697 N   0  0  0  0  0  0  0  0  0  0  0  0
  -37.0538  -25.5179   24.4815 N   0  0  0  0  0  0  0  0  0  0  0  0
  -35.0279  -27.1689   18.1861 N   0  0  0  0  0  0  0  0  0  0  0  0
  -30.3344  -15.8822   21.3334 N   0  0  0  0  0  0  0  0  0  0  0  0
  -33.6681  -24.9278   15.6970 N   0  3  0  0  0  0  0  0  0  0  0  0
  -22.6198  -14.7131   21.3406 O   0  0  0  0  0  0  0  0  0  0  0  0
  -35.5304  -27.0361   23.5889 O   0  0  0  0  0  0  0  0  0  0  0  0
  -37.0801  -26.8495   20.1598 O   0  0  0  0  0  0  0  0  0  0  0  0
  -32.8802  -26.3112   18.0169 O   0  0  0  0  0  0  0  0  0  0  0  0
  -27.9123  -20.6154   22.7945 O   0  0  0  0  0  0  0  0  0  0  0  0
  -31.9832  -14.2732   21.2611 O   0  0  0  0  0  0  0  0  0  0  0  0
  -21.7500   -6.9881   21.7327 O   0  0  0  0  0  0  0  0  0  0  0  0
  -30.1581  -23.2125   23.4335 O   0  0  0  0  0  0  0  0  0  1  0  0
  -18.8367   -6.7568   26.4086 F   0  0  0  0  0  0  0  0  0  0  0  0
  -22.2739   -5.0527   23.6360 F   0  0  0  0  0  0  0  0  0  0  0  0
  -31.0200  -17.8255   16.3626 F   0  0  0  0  0  0  0  0  0  0  0  0
  -29.9130  -19.6364   15.9159 F   0  0  0  0  0  0  0  0  0  0  0  0
  -31.8812  -19.7665   16.8314 F   0  0  0  0  0  0  0  0  0  0  0  0
  1  2  1  0  0  0  0
  1  5  2  0  0  0  0
  2  6  2  0  0  0  0
  3  8  2  0  0  0  0
  3 18  1  0  0  0  0
  4  9  1  0  0  0  0
  4 18  2  0  0  0  0
  5 20  1  0  0  0  0
  6 22  1  0  0  0  0
  7 10  2  0  0  0  0
  7 21  1  0  0  0  0
  8 27  1  0  0  0  0
  9 27  2  0  0  0  0
 10 28  1  0  0  0  0
 11 12  2  0  0  0  0
 11 29  1  0  0  0  0
 12 30  1  0  0  0  0
 13 23  1  0  0  0  0
 13 28  2  0  0  0  0
 14 24  1  0  0  0  0
 14 25  2  0  0  0  0
 15 24  2  0  0  0  0
 15 26  1  0  0  0  0
 16 25  1  0  0  0  0
 16 26  2  0  0  0  0
 17 30  2  0  0  0  0
 17 31  1  0  0  0  0
 18 32  1  0  0  0  0
 19 32  1  0  0  0  0
 19 33  2  0  0  0  0
 19 34  1  0  0  0  0
 20 22  2  0  0  0  0
 20 40  1  0  0  0  0
 21 23  2  0  0  0  0
 21 41  1  0  0  0  0
 22 49  1  0  0  0  0
 23 42  1  0  0  0  0
 24 60  1  0  0  0  0
 25 64  1  0  0  0  0
 26 73  1  0  0  0  0
 27 84  1  0  0  0  0
 28 85  1  0  0  0  0
 29 31  2  0  0  0  0
 29 84  1  0  0  0  0
 30 86  1  0  0  0  0
 31 87  1  0  0  0  0
 32 67  2  0  0  0  0
 33 68  1  0  0  0  0
 33 71  1  0  0  0  0
 34 72  1  0  0  0  0
 34 78  2  0  0  0  0
 35 50  1  0  0  0  0
 35 74  1  0  0  0  0
 35 79  2  0  0  0  0
 36 62  1  0  0  0  0
 36 69  1  0  0  0  0
 36 80  2  0  0  0  0
 37 63  1  0  0  0  0
 37 75  1  0  0  0  0
 37 81  2  0  0  0  0
 38 65  1  0  0  0  0
 38 73  1  0  0  0  0
 38 82  2  0  0  0  0
 39 70  1  0  0  0  0
 39 76  1  0  0  0  0
 39 83  2  0  0  0  0
 40 43  1  0  0  0  0
 41 50  1  0  0  0  0
 42 69  1  0  0  0  0
 43 45  1  0  0  0  0
 44 46  1  0  0  0  0
 44 47  1  0  0  0  0
 45 49  1  0  0  0  0
 46 51  1  0  0  0  0
 47 70  1  0  0  0  0
 48 51  1  0  0  0  0
 48 70  1  0  0  0  0
 49 74  1  0  0  0  0
 50 69  1  0  0  0  0
 51 68  1  0  0  0  0
 52 63  1  0  0  0  0
 53 65  1  0  0  0  0
 54 65  1  0  0  0  0
 55 66  1  0  0  0  0
 56 66  1  0  0  0  0
 57 66  1  0  0  0  0
 58 76  1  0  0  0  0
 59 77  1  0  0  0  0
 60 76  1  0  0  0  0
 61 65  1  0  0  0  0
 61 85  1  0  0  0  0
 62 66  1  0  0  0  0
 62 75  1  0  0  0  0
 63 77  1  0  0  0  0
 64 88  1  0  0  0  0
 64 89  1  0  0  0  0
 64 90  1  0  0  0  0
 67 68  1  0  0  0  0
M  CHG  1  77   1
M  ISO  4  39 100  61 101  76 100  85 101
M  END
> <Batch ID>
0173

> <Smiles>
CNC(C)C(=O)NC(C(=O)N1Cc2cc([101O:1][101CH2:1]C(C)(C)C(=O)Nc3cc(C[100N:0](C)[100C:0](=O)N4CCCC(n5nc(-c6ccc(Oc7ccc(F)cc7F)cc6)c(C(N)=O)c5N)C4)cc(C(F)(F)F)c3)ccc2CC1C(=O)NC1CCCc2ccccc21)C(C)(C)C

> <Shape>
0.211

> <Color>
0.173

> <Negative vol penalty>
0.000

$$$$

  -OEChem-04052304293D

 88 96  0     1  0  0  0  0  0999 V2000
  -33.2513  -30.6078   21.7233 C   0  0  0  0  0  0  0  0  0  0  0  0
  -32.6383  -29.6548   22.5304 C   0  0  0  0  0  0  0  0  0  0  0  0
  -23.2166   -9.8900   19.9324 C   0  0  0  0  0  0  0  0  0  0  0  0
  -23.9302   -9.9400   22.2400 C   0  0  0  0  0  0  0  0  0  0  0  0
  -32.8148  -30.7943   20.4123 C   0  0  0  0  0  0  0  0  0  0  0  0
  -31.5876  -28.8885   22.0273 C   0  0  0  0  0  0  0  0  0  0  0  0
  -32.0255  -23.9821   23.2023 C   0  0  0  0  0  0  0  0  0  0  0  0
  -22.5294   -8.6997   20.1706 C   0  0  0  0  0  0  0  0  0  0  0  0
  -23.2431   -8.7497   22.4783 C   0  0  0  0  0  0  0  0  0  0  0  0
  -31.6724  -23.6033   24.4967 C   0  0  0  0  0  0  0  0  0  0  0  0
  -20.0501   -7.7845   23.0201 C   0  0  0  0  0  0  0  0  0  0  0  0
  -19.2736   -7.7066   24.1762 C   0  0  0  0  0  0  0  0  0  0  0  0
  -29.5345  -22.8374   23.6830 C   0  0  0  0  0  0  0  0  0  0  0  0
  -32.5448  -15.3938   23.1903 C   0  0  0  0  0  0  0  0  0  0  0  0
  -32.5458  -17.0994   24.9015 C   0  0  0  0  0  0  0  0  0  0  0  0
  -20.6003   -5.8379   24.9412 C   0  0  0  0  0  0  0  0  0  0  0  0
  -23.9170  -10.5101   20.9671 C   0  0  0  0  0  0  0  0  0  0  0  0
  -24.1283  -13.0495   20.8476 C   0  0  0  0  0  0  0  0  0  0  0  0
  -31.7646  -30.0231   19.8899 C   0  0  0  0  0  0  0  0  0  0  0  0
  -31.1300  -23.8010   22.1384 C   0  0  0  0  0  0  0  0  0  0  0  0
  -31.1357  -29.0657   20.7086 C   0  0  0  0  0  0  0  0  0  0  0  0
  -29.8797  -23.2123   22.3756 C   0  0  0  0  0  0  0  0  0  0  0  0
  -30.4582  -16.3515   23.9425 C   0  0  0  0  0  0  0  0  0  0  0  0
  -31.1534  -15.4637   23.1214 C   0  0  0  0  0  0  0  0  0  0  0  0
  -31.1544  -17.1694   24.8326 C   0  0  0  0  0  0  0  0  0  0  0  0
  -22.5427   -8.1296   21.4436 C   0  0  0  0  0  0  0  0  0  0  0  0
  -30.4256  -23.0336   24.7378 C   0  0  0  0  0  0  0  0  0  0  0  0
  -21.1016   -6.8891   22.8245 C   0  0  0  0  0  0  0  0  0  0  0  0
  -19.5487   -6.7333   25.1368 C   0  0  0  0  0  0  0  0  0  0  0  0
  -33.2410  -16.2116   24.0804 C   0  0  0  0  0  0  0  0  0  0  0  0
  -21.3767   -5.9159   23.7851 C   0  0  0  0  0  0  0  0  0  0  0  0
  -24.6275  -11.7393   20.7214 C   0  0  0  0  0  0  0  0  0  0  0  0
  -25.1865  -13.8548   20.5038 C   0  0  0  0  0  0  0  0  0  0  0  0
  -22.8246  -13.4986   21.2406 C   0  0  0  0  0  0  0  0  0  0  0  0
  -29.6543  -25.7369   20.0944 C   0  0  0  0  0  0  0  0  0  0  0  0
  -30.0862  -19.9550   27.1155 C   0  0  0  0  0  0  0  0  0  0  0  0
  -28.6921  -22.9461   18.7497 C   0  0  0  0  0  0  0  0  0  0  0  0
  -28.0729  -19.6111   19.1252 C   0  0  0  0  0  0  0  0  0  0  0  0
  -30.9348  -14.1412   20.9885 C   0  0  0  0  0  0  0  0  0  0  0  0
  -31.2962  -30.2934   18.4820 C   0  0  0  0  0  0  0  0  0  0  0  0
  -31.5364  -24.1903   20.7435 C   0  0  0  0  0  0  0  0  0  0  0  0
  -28.8901  -22.9778   21.2646 C   0  0  0  0  0  0  0  0  0  0  0  0
  -30.4246  -29.1805   17.9058 C   0  0  0  0  0  0  0  0  0  0  0  0
  -29.3642  -13.2104   17.9317 C   0  0  0  0  0  0  0  0  0  0  0  0
  -29.3643  -28.7553   18.9166 C   0  0  0  0  0  0  0  0  0  0  0  0
  -27.9334  -12.8640   18.3501 C   0  0  0  0  0  0  0  0  0  0  0  0
  -30.3832  -12.7789   18.9848 C   0  0  0  0  0  0  0  0  0  0  0  0
  -28.6837  -12.9177   20.7628 C   0  0  0  0  0  0  0  0  0  0  0  0
  -30.0093  -28.1977   20.1911 C   0  0  1  0  0  0  0  0  0  0  0  0
  -30.3465  -24.4318   19.8200 C   0  0  1  0  0  0  0  0  0  0  0  0
  -27.6161  -13.3915   19.7631 C   0  0  2  0  0  0  0  0  0  0  0  0
  -27.2590  -17.6037   17.8581 C   0  0  0  0  0  0  0  0  0  0  0  0
  -25.8278  -23.9757   18.9631 C   0  0  0  0  0  0  0  0  0  0  0  0
  -25.0314  -21.6311   18.5930 C   0  0  0  0  0  0  0  0  0  0  0  0
  -26.3539  -22.7910   16.8243 C   0  0  0  0  0  0  0  0  0  0  0  0
  -30.6309  -18.1773   19.5248 C   0  0  0  0  0  0  0  0  0  0  0  0
  -30.6173  -21.1922   27.8275 C   0  0  0  0  0  0  0  0  0  0  0  0
  -31.1020  -19.1991   26.2827 C   0  0  0  0  0  0  0  0  0  0  0  0
  -31.1328  -22.2569   26.8714 C   0  0  0  0  0  0  0  0  0  1  0  0
  -27.5139  -22.0206   18.9345 C   0  0  1  0  0  0  0  0  0  0  0  0
  -28.4744  -18.4113   18.2864 C   0  0  2  0  0  0  0  0  0  0  0  0
  -28.9648  -16.4295   23.8660 C   0  0  0  0  0  0  0  0  0  0  0  0
  -26.1994  -22.6107   18.3502 C   0  0  0  0  0  0  0  0  0  0  0  0
  -25.9035  -11.7094   20.3279 N   0  0  0  0  0  0  0  0  0  0  0  0
  -26.2151  -13.0108   20.2039 N   0  0  0  0  0  0  0  0  0  0  0  0
  -29.3315  -23.3810   19.9193 N   0  0  0  0  0  0  0  0  0  0  0  0
  -30.0203  -13.3190   20.2968 N   0  0  0  0  0  0  0  0  0  0  0  0
  -25.3282  -15.1953   20.4316 N   0  0  0  0  0  0  0  0  0  0  0  0
  -21.8553  -12.5380   21.5604 N   0  0  0  0  0  0  0  0  0  0  0  0
  -30.4671  -14.6226   22.2108 N   0  0  0  0  0  0  0  0  0  0  0  0
  -30.4814  -18.0585   25.6576 N   0  0  0  0  0  0  0  0  0  0  0  0
  -30.4722  -26.8440   19.9727 N   0  0  0  0  0  0  0  0  0  0  0  0
  -27.9048  -20.7410   18.3530 N   0  0  0  0  0  0  0  0  0  0  0  0
  -29.3828  -17.5188   19.0605 N   0  3  0  0  0  0  0  0  0  0  0  0
  -22.5231  -14.7152   21.2904 O   0  0  0  0  0  0  0  0  0  0  0  0
  -28.4658  -25.7394   20.3929 O   0  0  0  0  0  0  0  0  0  0  0  0
  -28.9132  -19.5962   27.2090 O   0  0  0  0  0  0  0  0  0  0  0  0
  -29.0371  -23.2656   17.6092 O   0  0  0  0  0  0  0  0  0  0  0  0
  -27.9197  -19.5511   20.3432 O   0  0  0  0  0  0  0  0  0  0  0  0
  -32.0403  -14.4213   20.5178 O   0  0  0  0  0  0  0  0  0  0  0  0
  -21.8721   -6.9683   21.6765 O   0  0  0  0  0  0  0  0  0  0  0  0
  -30.0782  -22.6637   26.0004 O   0  0  0  0  0  0  0  0  0  1  0  0
  -18.8039   -6.6595   26.2477 F   0  0  0  0  0  0  0  0  0  0  0  0
  -34.5772  -16.1439   24.1464 F   0  0  0  0  0  0  0  0  0  0  0  0
  -22.3864   -5.0537   23.6033 F   0  0  0  0  0  0  0  0  0  0  0  0
  -28.4241  -15.5756   22.9507 F   0  0  0  0  0  0  0  0  0  0  0  0
  -28.3467  -16.1341   25.0449 F   0  0  0  0  0  0  0  0  0  0  0  0
  -28.5270  -17.6722   23.5183 F   0  0  0  0  0  0  0  0  0  0  0  0
  1  2  1  0  0  0  0
  1  5  2  0  0  0  0
  2  6  2  0  0  0  0
  3  8  2  0  0  0  0
  3 17  1  0  0  0  0
  4  9  1  0  0  0  0
  4 17  2  0  0  0  0
  5 19  1  0  0  0  0
  6 21  1  0  0  0  0
  7 10  2  0  0  0  0
  7 20  1  0  0  0  0
  8 26  1  0  0  0  0
  9 26  2  0  0  0  0
 10 27  1  0  0  0  0
 11 12  2  0  0  0  0
 11 28  1  0  0  0  0
 12 29  1  0  0  0  0
 13 22  1  0  0  0  0
 13 27  2  0  0  0  0
 14 24  2  0  0  0  0
 14 30  1  0  0  0  0
 15 25  1  0  0  0  0
 15 30  2  0  0  0  0
 16 29  2  0  0  0  0
 16 31  1  0  0  0  0
 17 32  1  0  0  0  0
 18 32  1  0  0  0  0
 18 33  2  0  0  0  0
 18 34  1  0  0  0  0
 19 21  2  0  0  0  0
 19 40  1  0  0  0  0
 20 22  2  0  0  0  0
 20 41  1  0  0  0  0
 21 49  1  0  0  0  0
 22 42  1  0  0  0  0
 23 24  1  0  0  0  0
 23 25  2  0  0  0  0
 23 62  1  0  0  0  0
 24 70  1  0  0  0  0
 25 71  1  0  0  0  0
 26 81  1  0  0  0  0
 27 82  1  0  0  0  0
 28 31  2  0  0  0  0
 28 81  1  0  0  0  0
 29 83  1  0  0  0  0
 30 84  1  0  0  0  0
 31 85  1  0  0  0  0
 32 64  2  0  0  0  0
 33 65  1  0  0  0  0
 33 68  1  0  0  0  0
 34 69  1  0  0  0  0
 34 75  2  0  0  0  0
 35 50  1  0  0  0  0
 35 72  1  0  0  0  0
 35 76  2  0  0  0  0
 36 57  1  0  0  0  0
 36 58  1  0  0  0  0
 36 77  2  0  0  0  0
 37 60  1  0  0  0  0
 37 66  1  0  0  0  0
 37 78  2  0  0  0  0
 38 61  1  0  0  0  0
 38 73  1  0  0  0  0
 38 79  2  0  0  0  0
 39 67  1  0  0  0  0
 39 70  1  0  0  0  0
 39 80  2  0  0  0  0
 40 43  1  0  0  0  0
 41 50  1  0  0  0  0
 42 66  1  0  0  0  0
 43 45  1  0  0  0  0
 44 46  1  0  0  0  0
 44 47  1  0  0  0  0
 45 49  1  0  0  0  0
 46 51  1  0  0  0  0
 47 67  1  0  0  0  0
 48 51  1  0  0  0  0
 48 67  1  0  0  0  0
 49 72  1  0  0  0  0
 50 66  1  0  0  0  0
 51 65  1  0  0  0  0
 52 61  1  0  0  0  0
 53 63  1  0  0  0  0
 54 63  1  0  0  0  0
 55 63  1  0  0  0  0
 56 74  1  0  0  0  0
 57 59  1  0  0  0  0
 58 71  1  0  0  0  0
 59 82  1  0  0  0  0
 60 63  1  0  0  0  0
 60 73  1  0  0  0  0
 61 74  1  0  0  0  0
 62 86  1  0  0  0  0
 62 87  1  0  0  0  0
 62 88  1  0  0  0  0
 64 65  1  0  0  0  0
M  CHG  1  74   1
M  ISO  4  39 100  59 101  70 100  82 101
M  END
> <Batch ID>
0173

> <Smiles>
CNC(C)C(=O)NC(C(=O)N1Cc2cc([101O:1][101CH2:1]CC(=O)CNc3cc(F)cc([100NH:0][100C:0](=O)N4CCCC(n5nc(-c6ccc(Oc7ccc(F)cc7F)cc6)c(C(N)=O)c5N)C4)c3C(F)(F)F)ccc2CC1C(=O)NC1CCCc2ccccc21)C(C)(C)C

> <Shape>
0.255

> <Color>
0.199

> <Negative vol penalty>
0.000

$$$$

  -OEChem-04052304293D

 87 95  0     1  0  0  0  0  0999 V2000
  -16.9631  -29.5497   24.5416 C   0  0  0  0  0  0  0  0  0  0  0  0
  -17.5072  -28.2935   24.2937 C   0  0  0  0  0  0  0  0  0  0  0  0
  -26.1419  -14.0553   20.7272 C   0  0  0  0  0  0  0  0  0  0  0  0
  -26.6141  -12.0140   19.5242 C   0  0  0  0  0  0  0  0  0  0  0  0
  -17.3900  -30.6514   23.8013 C   0  0  0  0  0  0  0  0  0  0  0  0
  -18.4777  -28.1381   23.3045 C   0  0  0  0  0  0  0  0  0  0  0  0
  -23.2288  -24.2746   23.3831 C   0  0  0  0  0  0  0  0  0  0  0  0
  -24.8388  -13.6162   20.9609 C   0  0  0  0  0  0  0  0  0  0  0  0
  -25.3109  -11.5748   19.7579 C   0  0  0  0  0  0  0  0  0  0  0  0
  -23.4278  -23.0208   22.8068 C   0  0  0  0  0  0  0  0  0  0  0  0
  -23.5672  -10.1982   22.3044 C   0  0  0  0  0  0  0  0  0  0  0  0
  -23.3947   -8.8786   22.7221 C   0  0  0  0  0  0  0  0  0  0  0  0
  -24.5399  -24.0633   20.9372 C   0  0  0  0  0  0  0  0  0  0  0  0
  -22.0461   -8.4361   20.7670 C   0  0  0  0  0  0  0  0  0  0  0  0
  -27.0296  -13.2542   20.0088 C   0  0  0  0  0  0  0  0  0  0  0  0
  -29.5050  -13.4900   20.5784 C   0  0  0  0  0  0  0  0  0  0  0  0
  -18.3731  -30.5112   22.8092 C   0  0  0  0  0  0  0  0  0  0  0  0
  -23.6749  -25.4350   22.7344 C   0  0  0  0  0  0  0  0  0  0  0  0
  -18.9171  -29.2388   22.5494 C   0  0  0  0  0  0  0  0  0  0  0  0
  -24.3476  -25.3304   21.5085 C   0  0  0  0  0  0  0  0  0  0  0  0
  -24.4233  -12.3759   20.4763 C   0  0  0  0  0  0  0  0  0  0  0  0
  -24.0808  -22.9152   21.5823 C   0  0  0  0  0  0  0  0  0  0  0  0
  -22.9791  -10.6368   21.1181 C   0  0  0  0  0  0  0  0  0  0  0  0
  -22.6342   -7.9975   21.9534 C   0  0  0  0  0  0  0  0  0  0  0  0
  -22.2186   -9.7557   20.3493 C   0  0  0  0  0  0  0  0  0  0  0  0
  -28.3757  -13.7075   19.7665 C   0  0  0  0  0  0  0  0  0  0  0  0
  -29.7967  -21.2363   18.6314 C   0  0  0  0  0  0  0  0  0  0  0  0
  -30.2333  -22.2915   19.3971 C   0  0  0  0  0  0  0  0  0  0  0  0
  -30.5309  -14.1174   19.9148 C   0  0  0  0  0  0  0  0  0  0  0  0
  -28.3691  -21.4314   20.1980 C   0  0  0  0  0  0  0  0  0  0  0  0
  -29.6166  -12.7839   21.8212 C   0  0  0  0  0  0  0  0  0  0  0  0
  -30.4523  -20.6983   17.4117 C   0  0  0  0  0  0  0  0  0  0  0  0
  -22.2658  -28.0308   21.5595 C   0  0  0  0  0  0  0  0  0  0  0  0
  -25.3246  -29.0049   21.0934 C   0  0  0  0  0  0  0  0  0  0  0  0
  -28.6011  -28.1556   20.6579 C   0  0  0  0  0  0  0  0  0  0  0  0
  -30.7599  -18.6431   16.0680 C   0  0  0  0  0  0  0  0  0  0  0  0
  -18.7685  -31.7227   22.0026 C   0  0  0  0  0  0  0  0  0  0  0  0
  -23.4762  -26.7780   23.3820 C   0  0  0  0  0  0  0  0  0  0  0  0
  -24.8639  -26.5440   20.7812 C   0  0  0  0  0  0  0  0  0  0  0  0
  -20.0715  -31.5404   21.2285 C   0  0  0  0  0  0  0  0  0  0  0  0
  -31.9338  -15.3570   15.5021 C   0  0  0  0  0  0  0  0  0  0  0  0
  -20.0796  -30.1970   20.5059 C   0  0  0  0  0  0  0  0  0  0  0  0
  -31.2710  -14.5402   16.6146 C   0  0  0  0  0  0  0  0  0  0  0  0
  -31.0009  -16.4388   14.9596 C   0  0  0  0  0  0  0  0  0  0  0  0
  -29.7556  -16.5073   17.0815 C   0  0  0  0  0  0  0  0  0  0  0  0
  -19.9898  -29.0343   21.5017 C   0  0  1  0  0  0  0  0  0  0  0  0
  -23.5165  -27.9333   22.3865 C   0  0  1  0  0  0  0  0  0  0  0  0
  -30.6792  -15.4508   17.7092 C   0  0  1  0  0  0  0  0  0  0  0  0
  -30.8630  -29.1684   20.2637 C   0  0  0  0  0  0  0  0  0  0  0  0
  -24.1410  -19.5583   22.0636 C   0  0  0  0  0  0  0  0  0  0  0  0
  -24.5864  -29.5122   18.1766 C   0  0  0  0  0  0  0  0  0  0  0  0
  -27.0315  -29.5943   17.6447 C   0  0  0  0  0  0  0  0  0  0  0  0
  -26.0395  -31.2683   19.2056 C   0  0  0  0  0  0  0  0  0  0  0  0
  -29.3314  -23.3807   21.4641 C   0  0  0  0  0  0  0  0  0  0  0  0
  -29.6691  -27.0396   23.1824 C   0  0  0  0  0  0  0  0  0  0  0  0
  -26.2637  -20.3240   20.9508 C   0  0  0  0  0  0  0  0  0  0  0  0
  -26.3284  -28.8768   19.9732 C   0  0  1  0  0  0  0  0  0  0  0  0
  -29.8713  -28.6760   21.3062 C   0  0  2  0  0  0  0  0  0  0  0  0
  -25.0418  -20.7473   21.7629 C   0  0  1  0  0  0  0  0  0  1  0  0
  -31.4066  -23.1765   19.2772 C   0  0  0  0  0  0  0  0  0  0  0  0
  -25.9851  -29.7900   18.7625 C   0  0  0  0  0  0  0  0  0  0  0  0
  -28.6573  -14.4177   18.6710 N   0  0  0  0  0  0  0  0  0  0  0  0
  -28.6356  -20.7054   19.1350 N   0  0  0  0  0  0  0  0  0  0  0  0
  -29.3084  -22.4048   20.3966 N   0  0  0  0  0  0  0  0  0  0  0  0
  -29.9753  -14.6520   18.7898 N   0  0  0  0  0  0  0  0  0  0  0  0
  -24.6397  -27.8352   21.4520 N   0  0  0  0  0  0  0  0  0  0  0  0
  -30.4913  -17.2633   16.0568 N   0  0  0  0  0  0  0  0  0  0  0  0
  -31.8450  -14.2584   20.1898 N   0  0  0  0  0  0  0  0  0  0  0  0
  -28.4641  -12.1988   22.3632 N   0  0  0  0  0  0  0  0  0  0  0  0
  -27.3051  -21.3183   21.0772 N   0  0  0  0  0  0  0  0  0  0  0  0
  -30.2667  -19.3351   17.1798 N   0  0  0  0  0  0  0  0  0  0  0  0
  -21.2737  -28.8059   22.1291 N   0  0  0  0  0  0  0  0  0  0  0  0
  -27.6362  -29.1362   20.5654 N   0  0  0  0  0  0  0  0  0  0  0  0
  -30.5240  -27.5998   22.1043 N   0  3  0  0  0  0  0  0  0  0  0  0
  -30.7029  -12.6890   22.4413 O   0  0  0  0  0  0  0  0  0  0  0  0
  -31.0683  -21.4648   16.6762 O   0  0  0  0  0  0  0  0  0  0  0  0
  -22.2058  -27.4472   20.4836 O   0  0  0  0  0  0  0  0  0  0  0  0
  -25.1596  -30.1007   21.6352 O   0  0  0  0  0  0  0  0  0  0  0  0
  -28.4786  -26.9962   20.2689 O   0  0  0  0  0  0  0  0  0  0  0  0
  -31.4150  -19.2044   15.1842 O   0  0  0  0  0  0  0  0  0  0  0  0
  -23.1519  -11.9470   20.7044 O   0  0  0  0  0  0  0  0  0  0  0  0
  -24.2758  -21.6926   21.0173 O   0  0  0  0  0  0  0  0  0  1  0  0
  -22.4700   -6.7299   22.3538 F   0  0  0  0  0  0  0  0  0  0  0  0
  -21.6521  -10.1710   19.2081 F   0  0  0  0  0  0  0  0  0  0  0  0
  -32.2156  -22.8989   18.2034 F   0  0  0  0  0  0  0  0  0  0  0  0
  -31.0973  -24.5065   19.1356 F   0  0  0  0  0  0  0  0  0  0  0  0
  -32.2388  -23.1238   20.3661 F   0  0  0  0  0  0  0  0  0  0  0  0
  1  2  1  0  0  0  0
  1  5  2  0  0  0  0
  2  6  2  0  0  0  0
  3  8  2  0  0  0  0
  3 15  1  0  0  0  0
  4  9  1  0  0  0  0
  4 15  2  0  0  0  0
  5 17  1  0  0  0  0
  6 19  1  0  0  0  0
  7 10  2  0  0  0  0
  7 18  1  0  0  0  0
  8 21  1  0  0  0  0
  9 21  2  0  0  0  0
 10 22  1  0  0  0  0
 11 12  2  0  0  0  0
 11 23  1  0  0  0  0
 12 24  1  0  0  0  0
 13 20  1  0  0  0  0
 13 22  2  0  0  0  0
 14 24  2  0  0  0  0
 14 25  1  0  0  0  0
 15 26  1  0  0  0  0
 16 26  1  0  0  0  0
 16 29  2  0  0  0  0
 16 31  1  0  0  0  0
 17 19  2  0  0  0  0
 17 37  1  0  0  0  0
 18 20  2  0  0  0  0
 18 38  1  0  0  0  0
 19 46  1  0  0  0  0
 20 39  1  0  0  0  0
 21 81  1  0  0  0  0
 22 82  1  0  0  0  0
 23 25  2  0  0  0  0
 23 81  1  0  0  0  0
 24 83  1  0  0  0  0
 25 84  1  0  0  0  0
 26 62  2  0  0  0  0
 27 28  2  0  0  0  0
 27 32  1  0  0  0  0
 27 63  1  0  0  0  0
 28 60  1  0  0  0  0
 28 64  1  0  0  0  0
 29 65  1  0  0  0  0
 29 68  1  0  0  0  0
 30 63  2  0  0  0  0
 30 64  1  0  0  0  0
 30 70  1  0  0  0  0
 31 69  1  0  0  0  0
 31 75  2  0  0  0  0
 32 71  1  0  0  0  0
 32 76  2  0  0  0  0
 33 47  1  0  0  0  0
 33 72  1  0  0  0  0
 33 77  2  0  0  0  0
 34 57  1  0  0  0  0
 34 66  1  0  0  0  0
 34 78  2  0  0  0  0
 35 58  1  0  0  0  0
 35 73  1  0  0  0  0
 35 79  2  0  0  0  0
 36 67  1  0  0  0  0
 36 71  1  0  0  0  0
 36 80  2  0  0  0  0
 37 40  1  0  0  0  0
 38 47  1  0  0  0  0
 39 66  1  0  0  0  0
 40 42  1  0  0  0  0
 41 43  1  0  0  0  0
 41 44  1  0  0  0  0
 42 46  1  0  0  0  0
 43 48  1  0  0  0  0
 44 67  1  0  0  0  0
 45 48  1  0  0  0  0
 45 67  1  0  0  0  0
 46 72  1  0  0  0  0
 47 66  1  0  0  0  0
 48 65  1  0  0  0  0
 49 58  1  0  0  0  0
 50 59  1  0  0  0  0
 51 61  1  0  0  0  0
 52 61  1  0  0  0  0
 53 61  1  0  0  0  0
 54 64  1  0  0  0  0
 55 74  1  0  0  0  0
 56 59  1  0  0  0  0
 56 70  1  0  0  0  0
 57 61  1  0  0  0  0
 57 73  1  0  0  0  0
 58 74  1  0  0  0  0
 59 82  1  0  0  0  0
 60 85  1  0  0  0  0
 60 86  1  0  0  0  0
 60 87  1  0  0  0  0
 62 65  1  0  0  0  0
M  CHG  1  74   1
M  ISO  4  36 100  59 101  71 100  82 101
M  END
> <Batch ID>
0173

> <Smiles>
CNC(C)C(=O)NC(C(=O)N1Cc2cc([101O:1][101CH:1](C)CNc3nc(C(=O)[100NH:0][100C:0](=O)N4CCCC(n5nc(-c6ccc(Oc7ccc(F)cc7F)cc6)c(C(N)=O)c5N)C4)c(C(F)(F)F)n3C)ccc2CC1C(=O)NC1CCCc2ccccc21)C(C)(C)C

> <Shape>
0.262

> <Color>
0.099

> <Negative vol penalty>
0.000

$$$$

  -OEChem-04052304293D

 87 95  0     1  0  0  0  0  0999 V2000
  -16.5961  -29.1238   23.6953 C   0  0  0  0  0  0  0  0  0  0  0  0
  -17.1620  -28.1699   24.5350 C   0  0  0  0  0  0  0  0  0  0  0  0
  -24.1137   -9.7598   21.4574 C   0  0  0  0  0  0  0  0  0  0  0  0
  -24.5879  -10.8288   23.5715 C   0  0  0  0  0  0  0  0  0  0  0  0
  -17.3225  -29.6157   22.6116 C   0  0  0  0  0  0  0  0  0  0  0  0
  -18.4543  -27.7065   24.2910 C   0  0  0  0  0  0  0  0  0  0  0  0
  -24.2895  -25.3704   27.7276 C   0  0  0  0  0  0  0  0  0  0  0  0
  -23.6752   -8.6203   22.1318 C   0  0  0  0  0  0  0  0  0  0  0  0
  -24.1493   -9.6893   24.2460 C   0  0  0  0  0  0  0  0  0  0  0  0
  -25.1776  -24.2957   27.7342 C   0  0  0  0  0  0  0  0  0  0  0  0
  -20.8975   -7.6134   23.7760 C   0  0  0  0  0  0  0  0  0  0  0  0
  -19.7101   -7.0218   23.3452 C   0  0  0  0  0  0  0  0  0  0  0  0
  -28.5302  -20.8748   21.9818 C   0  0  0  0  0  0  0  0  0  0  0  0
  -26.3676  -25.2754   25.8787 C   0  0  0  0  0  0  0  0  0  0  0  0
  -30.6770  -19.2407   21.2723 C   0  0  0  0  0  0  0  0  0  0  0  0
  -20.9015   -4.9735   22.8741 C   0  0  0  0  0  0  0  0  0  0  0  0
  -24.5701  -10.8640   22.1772 C   0  0  0  0  0  0  0  0  0  0  0  0
  -29.8373  -21.3412   22.1209 C   0  0  0  0  0  0  0  0  0  0  0  0
  -24.2494  -13.1511   21.0937 C   0  0  0  0  0  0  0  0  0  0  0  0
  -18.6280  -29.1652   22.3598 C   0  0  0  0  0  0  0  0  0  0  0  0
  -24.4276  -26.4020   26.7878 C   0  0  0  0  0  0  0  0  0  0  0  0
  -19.1984  -28.1918   23.2022 C   0  0  0  0  0  0  0  0  0  0  0  0
  -25.4816  -26.3633   25.8638 C   0  0  0  0  0  0  0  0  0  0  0  0
  -29.3698  -18.7743   21.1332 C   0  0  0  0  0  0  0  0  0  0  0  0
  -23.6930   -8.5851   23.5261 C   0  0  0  0  0  0  0  0  0  0  0  0
  -26.2151  -24.2466   26.8078 C   0  0  0  0  0  0  0  0  0  0  0  0
  -22.0870   -6.8850   23.7558 C   0  0  0  0  0  0  0  0  0  0  0  0
  -19.7120   -5.7019   22.8942 C   0  0  0  0  0  0  0  0  0  0  0  0
  -28.2964  -19.5914   21.4880 C   0  0  0  0  0  0  0  0  0  0  0  0
  -30.9108  -20.5241   21.7661 C   0  0  0  0  0  0  0  0  0  0  0  0
  -22.0889   -5.5651   23.3049 C   0  0  0  0  0  0  0  0  0  0  0  0
  -25.0238  -12.0411   21.4810 C   0  0  0  0  0  0  0  0  0  0  0  0
  -25.1401  -13.9905   20.4704 C   0  0  0  0  0  0  0  0  0  0  0  0
  -22.8500  -13.4010   21.2806 C   0  0  0  0  0  0  0  0  0  0  0  0
  -30.0795  -22.6972   22.6421 C   0  0  0  0  0  0  0  0  0  0  0  0
  -22.6210  -27.5540   24.4398 C   0  0  0  0  0  0  0  0  0  0  0  0
  -28.9847  -21.9687   25.9572 C   0  0  0  0  0  0  0  0  0  0  0  0
  -24.9543  -29.8011   24.2726 C   0  0  0  0  0  0  0  0  0  0  0  0
  -28.2014  -30.6570   24.8816 C   0  0  0  0  0  0  0  0  0  0  0  0
  -30.0876  -16.5339   20.2324 C   0  0  0  0  0  0  0  0  0  0  0  0
  -19.3565  -29.6914   21.1486 C   0  0  0  0  0  0  0  0  0  0  0  0
  -23.4773  -27.5677   26.8110 C   0  0  0  0  0  0  0  0  0  0  0  0
  -25.6854  -27.4558   24.8472 C   0  0  0  0  0  0  0  0  0  0  0  0
  -20.8592  -29.4243   21.1779 C   0  0  0  0  0  0  0  0  0  0  0  0
  -29.9125  -13.2069   18.9763 C   0  0  0  0  0  0  0  0  0  0  0  0
  -21.1367  -27.9783   21.5764 C   0  0  0  0  0  0  0  0  0  0  0  0
  -28.5613  -12.6983   19.4841 C   0  0  0  0  0  0  0  0  0  0  0  0
  -30.5975  -14.1132   19.9976 C   0  0  0  0  0  0  0  0  0  0  0  0
  -28.4273  -14.7222   20.9918 C   0  0  0  0  0  0  0  0  0  0  0  0
  -20.6068  -27.6827   22.9847 C   0  0  1  0  0  0  0  0  0  0  0  0
  -23.4047  -28.3061   25.4780 C   0  0  1  0  0  0  0  0  0  0  0  0
  -27.6697  -13.8574   19.9710 C   0  0  2  0  0  0  0  0  0  0  0  0
  -31.4744  -21.6953   25.7608 C   0  0  0  0  0  0  0  0  0  0  0  0
  -29.8258  -32.5490   24.6005 C   0  0  0  0  0  0  0  0  0  0  0  0
  -25.1972  -29.1480   21.3020 C   0  0  0  0  0  0  0  0  0  0  0  0
  -27.4044  -30.3297   21.2939 C   0  0  0  0  0  0  0  0  0  0  0  0
  -25.3214  -31.5855   21.8478 C   0  0  0  0  0  0  0  0  0  0  0  0
  -28.6259  -30.8798   27.8021 C   0  0  0  0  0  0  0  0  0  0  0  0
  -28.1227  -23.2124   25.8345 C   0  0  0  0  0  0  0  0  0  1  0  0
  -30.1612  -21.7859   24.9985 C   0  0  2  0  0  0  0  0  0  0  0  0
  -26.2564  -29.9365   23.5207 C   0  0  1  0  0  0  0  0  0  0  0  0
  -28.8151  -31.8876   25.5245 C   0  0  2  0  0  0  0  0  0  0  0  0
  -26.0401  -30.2282   22.0089 C   0  0  0  0  0  0  0  0  0  0  0  0
  -26.3077  -12.1614   21.1328 N   0  0  0  0  0  0  0  0  0  0  0  0
  -26.3468  -13.3568   20.5200 N   0  0  0  0  0  0  0  0  0  0  0  0
  -24.7264  -28.5713   24.9060 N   0  0  0  0  0  0  0  0  0  0  0  0
  -29.6949  -15.1903   20.4097 N   0  0  0  0  0  0  0  0  0  0  0  0
  -25.0010  -15.2014   19.8901 N   0  0  0  0  0  0  0  0  0  0  0  0
  -22.0809  -12.4335   21.9415 N   0  0  0  0  0  0  0  0  0  0  0  0
  -29.1344  -17.4705   20.6307 N   0  0  0  0  0  0  0  0  0  0  0  0
  -30.2219  -22.8352   24.0159 N   0  0  0  0  0  0  0  0  0  0  0  0
  -21.5013  -28.2242   23.9853 N   0  0  0  0  0  0  0  0  0  0  0  0
  -27.0284  -30.9568   24.2217 N   0  0  0  0  0  0  0  0  0  0  0  0
  -29.5075  -31.5193   26.7917 N   0  3  0  0  0  0  0  0  0  0  0  0
  -22.2947  -14.4439   20.8592 O   0  0  0  0  0  0  0  0  0  0  0  0
  -23.0046  -26.4481   24.0769 O   0  0  0  0  0  0  0  0  0  0  0  0
  -28.7134  -21.0912   26.7815 O   0  0  0  0  0  0  0  0  0  0  0  0
  -24.1717  -30.7541   24.3030 O   0  0  0  0  0  0  0  0  0  0  0  0
  -28.7134  -29.5421   24.9542 O   0  0  0  0  0  0  0  0  0  0  0  0
  -31.1774  -16.8314   19.7366 O   0  0  0  0  0  0  0  0  0  0  0  0
  -23.2649   -7.4735   24.1847 O   0  0  0  0  0  0  0  0  0  0  0  0
  -27.0829  -23.1984   26.8117 O   0  0  0  0  0  0  0  0  0  1  0  0
  -18.5714   -5.1334   22.4820 F   0  0  0  0  0  0  0  0  0  0  0  0
  -27.0357  -19.1535   21.3588 F   0  0  0  0  0  0  0  0  0  0  0  0
  -32.1716  -20.9620   21.8943 F   0  0  0  0  0  0  0  0  0  0  0  0
  -23.2283   -4.8599   23.2843 F   0  0  0  0  0  0  0  0  0  0  0  0
  -30.1745  -24.0262   21.6203 S   0  0  0  0  0  0  0  0  0  0  0  0
  1  2  1  0  0  0  0
  1  5  2  0  0  0  0
  2  6  2  0  0  0  0
  3  8  2  0  0  0  0
  3 17  1  0  0  0  0
  4  9  1  0  0  0  0
  4 17  2  0  0  0  0
  5 20  1  0  0  0  0
  6 22  1  0  0  0  0
  7 10  2  0  0  0  0
  7 21  1  0  0  0  0
  8 25  1  0  0  0  0
  9 25  2  0  0  0  0
 10 26  1  0  0  0  0
 11 12  2  0  0  0  0
 11 27  1  0  0  0  0
 12 28  1  0  0  0  0
 13 18  1  0  0  0  0
 13 29  2  0  0  0  0
 14 23  1  0  0  0  0
 14 26  2  0  0  0  0
 15 24  2  0  0  0  0
 15 30  1  0  0  0  0
 16 28  2  0  0  0  0
 16 31  1  0  0  0  0
 17 32  1  0  0  0  0
 18 30  2  0  0  0  0
 18 35  1  0  0  0  0
 19 32  1  0  0  0  0
 19 33  2  0  0  0  0
 19 34  1  0  0  0  0
 20 22  2  0  0  0  0
 20 41  1  0  0  0  0
 21 23  2  0  0  0  0
 21 42  1  0  0  0  0
 22 50  1  0  0  0  0
 23 43  1  0  0  0  0
 24 29  1  0  0  0  0
 24 70  1  0  0  0  0
 25 81  1  0  0  0  0
 26 82  1  0  0  0  0
 27 31  2  0  0  0  0
 27 81  1  0  0  0  0
 28 83  1  0  0  0  0
 29 84  1  0  0  0  0
 30 85  1  0  0  0  0
 31 86  1  0  0  0  0
 32 64  2  0  0  0  0
 33 65  1  0  0  0  0
 33 68  1  0  0  0  0
 34 69  1  0  0  0  0
 34 75  2  0  0  0  0
 35 71  1  0  0  0  0
 35 87  2  0  0  0  0
 36 51  1  0  0  0  0
 36 72  1  0  0  0  0
 36 76  2  0  0  0  0
 37 59  1  0  0  0  0
 37 60  1  0  0  0  0
 37 77  2  0  0  0  0
 38 61  1  0  0  0  0
 38 66  1  0  0  0  0
 38 78  2  0  0  0  0
 39 62  1  0  0  0  0
 39 73  1  0  0  0  0
 39 79  2  0  0  0  0
 40 67  1  0  0  0  0
 40 70  1  0  0  0  0
 40 80  2  0  0  0  0
 41 44  1  0  0  0  0
 42 51  1  0  0  0  0
 43 66  1  0  0  0  0
 44 46  1  0  0  0  0
 45 47  1  0  0  0  0
 45 48  1  0  0  0  0
 46 50  1  0  0  0  0
 47 52  1  0  0  0  0
 48 67  1  0  0  0  0
 49 52  1  0  0  0  0
 49 67  1  0  0  0  0
 50 72  1  0  0  0  0
 51 66  1  0  0  0  0
 52 65  1  0  0  0  0
 53 60  1  0  0  0  0
 54 62  1  0  0  0  0
 55 63  1  0  0  0  0
 56 63  1  0  0  0  0
 57 63  1  0  0  0  0
 58 74  1  0  0  0  0
 59 82  1  0  0  0  0
 60 71  1  0  0  0  0
 61 63  1  0  0  0  0
 61 73  1  0  0  0  0
 62 74  1  0  0  0  0
 64 65  1  0  0  0  0
M  CHG  1  74   1
M  ISO  4  40 100  59 101  70 100  82 101
M  END
> <Batch ID>
0173

> <Smiles>
CNC(C)C(=O)NC(C(=O)N1Cc2cc([101O:1][101CH2:1]C(=O)C(C)NC(=S)c3cc(F)c([100NH:0][100C:0](=O)N4CCCC(n5nc(-c6ccc(Oc7ccc(F)cc7F)cc6)c(C(N)=O)c5N)C4)cc3F)ccc2CC1C(=O)NC1CCCc2ccccc21)C(C)(C)C

> <Shape>
0.273

> <Color>
0.118

> <Negative vol penalty>
0.000

$$$$

  -OEChem-04052304293D

 83 91  0     1  0  0  0  0  0999 V2000
  -26.1395  -35.4455   16.6498 C   0  0  0  0  0  0  0  0  0  0  0  0
  -26.8979  -34.2868   16.5172 C   0  0  0  0  0  0  0  0  0  0  0  0
  -23.0256   -9.9962   19.9344 C   0  0  0  0  0  0  0  0  0  0  0  0
  -24.1719   -9.4592   21.9923 C   0  0  0  0  0  0  0  0  0  0  0  0
  -25.6156  -35.7960   17.8934 C   0  0  0  0  0  0  0  0  0  0  0  0
  -27.1339  -33.4784   17.6286 C   0  0  0  0  0  0  0  0  0  0  0  0
  -27.6005  -27.3725   17.7070 C   0  0  0  0  0  0  0  0  0  0  0  0
  -22.3440   -8.7809   19.9970 C   0  0  0  0  0  0  0  0  0  0  0  0
  -23.4902   -8.2439   22.0548 C   0  0  0  0  0  0  0  0  0  0  0  0
  -28.7005  -26.5158   17.7123 C   0  0  0  0  0  0  0  0  0  0  0  0
  -20.4209   -7.1551   22.9572 C   0  0  0  0  0  0  0  0  0  0  0  0
  -19.8789   -6.7803   24.1865 C   0  0  0  0  0  0  0  0  0  0  0  0
  -28.5552  -26.3539   20.1148 C   0  0  0  0  0  0  0  0  0  0  0  0
  -29.4354  -19.9243   21.1593 C   0  0  0  0  0  0  0  0  0  0  0  0
  -21.2419   -4.7855   24.1793 C   0  0  0  0  0  0  0  0  0  0  0  0
  -23.9397  -10.3354   20.9321 C   0  0  0  0  0  0  0  0  0  0  0  0
  -24.2390  -12.8222   21.4154 C   0  0  0  0  0  0  0  0  0  0  0  0
  -25.8372  -34.9863   19.0186 C   0  0  0  0  0  0  0  0  0  0  0  0
  -26.9753  -27.7355   18.9086 C   0  0  0  0  0  0  0  0  0  0  0  0
  -26.6136  -33.8190   18.8888 C   0  0  0  0  0  0  0  0  0  0  0  0
  -27.4459  -27.2133   20.1218 C   0  0  0  0  0  0  0  0  0  0  0  0
  -29.4238  -18.7230   21.9255 C   0  0  0  0  0  0  0  0  0  0  0  0
  -22.5762   -7.9047   21.0572 C   0  0  0  0  0  0  0  0  0  0  0  0
  -29.1797  -26.0087   18.9166 C   0  0  0  0  0  0  0  0  0  0  0  0
  -21.3733   -6.3450   22.3388 C   0  0  0  0  0  0  0  0  0  0  0  0
  -20.2894   -5.5955   24.7976 C   0  0  0  0  0  0  0  0  0  0  0  0
  -21.7838   -5.1602   22.9499 C   0  0  0  0  0  0  0  0  0  0  0  0
  -24.6446  -11.5904   20.8677 C   0  0  0  0  0  0  0  0  0  0  0  0
  -30.5655  -17.9763   21.7341 C   0  0  0  0  0  0  0  0  0  0  0  0
  -25.2467  -13.6943   21.0826 C   0  0  0  0  0  0  0  0  0  0  0  0
  -30.5856  -20.0500   20.4116 C   0  0  0  0  0  0  0  0  0  0  0  0
  -23.0572  -13.1490   22.1584 C   0  0  0  0  0  0  0  0  0  0  0  0
  -26.5017  -30.4732   20.4528 C   0  0  0  0  0  0  0  0  0  0  0  0
  -24.7243  -28.6049   22.4207 C   0  0  0  0  0  0  0  0  0  0  0  0
  -30.3228  -22.2330   19.1831 C   0  0  0  0  0  0  0  0  0  0  0  0
  -24.0817  -25.4904   23.6590 C   0  0  0  0  0  0  0  0  0  0  0  0
  -30.6731  -14.9112   20.6158 C   0  0  0  0  0  0  0  0  0  0  0  0
  -25.2901  -35.4310   20.3520 C   0  0  0  0  0  0  0  0  0  0  0  0
  -25.7733  -28.6394   18.8835 C   0  0  0  0  0  0  0  0  0  0  0  0
  -26.7976  -27.5561   21.4374 C   0  0  0  0  0  0  0  0  0  0  0  0
  -25.2719  -34.3238   21.4027 C   0  0  0  0  0  0  0  0  0  0  0  0
  -29.1542  -13.1563   17.9158 C   0  0  0  0  0  0  0  0  0  0  0  0
  -26.6028  -33.5786   21.4162 C   0  0  0  0  0  0  0  0  0  0  0  0
  -27.8156  -12.6891   18.4902 C   0  0  0  0  0  0  0  0  0  0  0  0
  -30.2643  -13.1115   18.9635 C   0  0  0  0  0  0  0  0  0  0  0  0
  -28.6273  -13.3680   20.7878 C   0  0  0  0  0  0  0  0  0  0  0  0
  -26.8707  -32.9032   20.0658 C   0  0  1  0  0  0  0  0  0  0  0  0
  -25.5327  -29.3505   20.2116 C   0  0  1  0  0  0  0  0  0  0  0  0
  -27.4647  -13.4487   19.7837 C   0  0  2  0  0  0  0  0  0  0  0  0
  -28.3081  -18.3334   22.8202 C   0  0  0  0  0  0  0  0  0  0  0  0
  -22.5952  -24.2835   25.2811 C   0  0  0  0  0  0  0  0  0  0  0  0
  -26.3776  -29.6940   24.7424 C   0  0  0  0  0  0  0  0  0  0  0  0
  -25.5256  -27.8032   26.1449 C   0  0  0  0  0  0  0  0  0  0  0  0
  -23.9309  -29.4803   25.2140 C   0  0  0  0  0  0  0  0  0  0  0  0
  -22.9219  -23.8047   21.5207 C   0  0  0  0  0  0  0  0  0  0  0  0
  -30.9386  -16.6774   22.3389 C   0  0  0  0  0  0  0  0  0  0  0  0
  -31.1347  -23.0569   18.1902 C   0  0  0  0  0  0  0  0  0  0  0  0
  -30.4422  -24.3466   17.7765 C   0  0  0  0  0  0  0  0  0  1  0  0
  -25.0015  -27.7943   23.6637 C   0  0  1  0  0  0  0  0  0  0  0  0
  -22.7825  -24.7259   23.8382 C   0  0  2  0  0  0  0  0  0  0  0  0
  -25.2225  -28.6878   24.9168 C   0  0  0  0  0  0  0  0  0  0  0  0
  -25.8183  -11.6688   20.2350 N   0  0  0  0  0  0  0  0  0  0  0  0
  -26.1588  -12.9604   20.3829 N   0  0  0  0  0  0  0  0  0  0  0  0
  -25.6293  -28.4487   21.3612 N   0  0  0  0  0  0  0  0  0  0  0  0
  -29.8692  -13.8516   20.1643 N   0  0  0  0  0  0  0  0  0  0  0  0
  -25.4325  -15.0096   21.3232 N   0  0  0  0  0  0  0  0  0  0  0  0
  -22.1251  -12.1334   22.4117 N   0  0  0  0  0  0  0  0  0  0  0  0
  -31.0057  -21.0684   19.5233 N   0  0  0  0  0  0  0  0  0  0  0  0
  -26.0906  -31.6903   19.9438 N   0  0  0  0  0  0  0  0  0  0  0  0
  -23.8964  -26.8504   23.7904 N   0  0  0  0  0  0  0  0  0  0  0  0
  -30.2231  -15.5637   21.7571 N   0  0  0  0  0  0  0  0  0  0  0  0
  -22.7701  -23.5148   22.9699 N   0  3  0  0  0  0  0  0  0  0  0  0
  -22.8265  -14.3109   22.5710 O   0  0  0  0  0  0  0  0  0  0  0  0
  -27.5444  -30.2519   21.0573 O   0  0  0  0  0  0  0  0  0  0  0  0
  -23.7371  -29.3439   22.3883 O   0  0  0  0  0  0  0  0  0  0  0  0
  -29.2245  -22.5974   19.5897 O   0  0  0  0  0  0  0  0  0  0  0  0
  -25.1544  -24.9361   23.4295 O   0  0  0  0  0  0  0  0  0  0  0  0
  -31.7119  -15.2540   20.0411 O   0  0  0  0  0  0  0  0  0  0  0  0
  -21.9111   -6.7189   21.1186 O   0  0  0  0  0  0  0  0  0  0  0  0
  -30.2536  -25.1728   18.9246 O   0  0  0  0  0  0  0  0  0  1  0  0
  -19.7700   -5.2365   25.9789 F   0  0  0  0  0  0  0  0  0  0  0  0
  -22.6994   -4.3785   22.3612 F   0  0  0  0  0  0  0  0  0  0  0  0
  -31.6450  -18.7232   20.6346 S   0  0  0  0  0  0  0  0  0  0  0  0
  1  2  1  0  0  0  0
  1  5  2  0  0  0  0
  2  6  2  0  0  0  0
  3  8  2  0  0  0  0
  3 16  1  0  0  0  0
  4  9  1  0  0  0  0
  4 16  2  0  0  0  0
  5 18  1  0  0  0  0
  6 20  1  0  0  0  0
  7 10  2  0  0  0  0
  7 19  1  0  0  0  0
  8 23  1  0  0  0  0
  9 23  2  0  0  0  0
 10 24  1  0  0  0  0
 11 12  2  0  0  0  0
 11 25  1  0  0  0  0
 12 26  1  0  0  0  0
 13 21  1  0  0  0  0
 13 24  2  0  0  0  0
 14 22  1  0  0  0  0
 14 31  2  0  0  0  0
 15 26  2  0  0  0  0
 15 27  1  0  0  0  0
 16 28  1  0  0  0  0
 17 28  1  0  0  0  0
 17 30  2  0  0  0  0
 17 32  1  0  0  0  0
 18 20  2  0  0  0  0
 18 38  1  0  0  0  0
 19 21  2  0  0  0  0
 19 39  1  0  0  0  0
 20 47  1  0  0  0  0
 21 40  1  0  0  0  0
 22 29  2  0  0  0  0
 22 50  1  0  0  0  0
 23 79  1  0  0  0  0
 24 80  1  0  0  0  0
 25 27  2  0  0  0  0
 25 79  1  0  0  0  0
 26 81  1  0  0  0  0
 27 82  1  0  0  0  0
 28 62  2  0  0  0  0
 29 56  1  0  0  0  0
 29 83  1  0  0  0  0
 30 63  1  0  0  0  0
 30 66  1  0  0  0  0
 31 68  1  0  0  0  0
 31 83  1  0  0  0  0
 32 67  1  0  0  0  0
 32 73  2  0  0  0  0
 33 48  1  0  0  0  0
 33 69  1  0  0  0  0
 33 74  2  0  0  0  0
 34 59  1  0  0  0  0
 34 64  1  0  0  0  0
 34 75  2  0  0  0  0
 35 57  1  0  0  0  0
 35 68  1  0  0  0  0
 35 76  2  0  0  0  0
 36 60  1  0  0  0  0
 36 70  1  0  0  0  0
 36 77  2  0  0  0  0
 37 65  1  0  0  0  0
 37 71  1  0  0  0  0
 37 78  2  0  0  0  0
 38 41  1  0  0  0  0
 39 48  1  0  0  0  0
 40 64  1  0  0  0  0
 41 43  1  0  0  0  0
 42 44  1  0  0  0  0
 42 45  1  0  0  0  0
 43 47  1  0  0  0  0
 44 49  1  0  0  0  0
 45 65  1  0  0  0  0
 46 49  1  0  0  0  0
 46 65  1  0  0  0  0
 47 69  1  0  0  0  0
 48 64  1  0  0  0  0
 49 63  1  0  0  0  0
 51 60  1  0  0  0  0
 52 61  1  0  0  0  0
 53 61  1  0  0  0  0
 54 61  1  0  0  0  0
 55 72  1  0  0  0  0
 56 71  1  0  0  0  0
 57 58  1  0  0  0  0
 58 80  1  0  0  0  0
 59 61  1  0  0  0  0
 59 70  1  0  0  0  0
 60 72  1  0  0  0  0
 62 63  1  0  0  0  0
M  CHG  1  72   1
M  ISO  4  37 100  58 101  71 100  80 101
M  END
> <Batch ID>
0173

> <Smiles>
CNC(C)C(=O)NC(C(=O)N1Cc2cc([101O:1][101CH2:1]CC(=O)Nc3cc(C)c(C[100NH:0][100C:0](=O)N4CCCC(n5nc(-c6ccc(Oc7ccc(F)cc7F)cc6)c(C(N)=O)c5N)C4)s3)ccc2CC1C(=O)NC1CCCc2ccccc21)C(C)(C)C

> <Shape>
0.310

> <Color>
0.191

> <Negative vol penalty>
0.000

$$$$

  -OEChem-04052304293D

 88 96  0     1  0  0  0  0  0999 V2000
  -17.0105  -28.8701   23.7086 C   0  0  0  0  0  0  0  0  0  0  0  0
  -18.2165  -28.2268   23.9677 C   0  0  0  0  0  0  0  0  0  0  0  0
  -23.1955   -9.7908   19.8822 C   0  0  0  0  0  0  0  0  0  0  0  0
  -23.9225   -9.8013   22.1862 C   0  0  0  0  0  0  0  0  0  0  0  0
  -17.0092  -30.1496   23.1548 C   0  0  0  0  0  0  0  0  0  0  0  0
  -19.4220  -28.8624   23.6721 C   0  0  0  0  0  0  0  0  0  0  0  0
  -22.8212  -28.4108   27.3985 C   0  0  0  0  0  0  0  0  0  0  0  0
  -22.5151   -8.5933   20.1023 C   0  0  0  0  0  0  0  0  0  0  0  0
  -23.2420   -8.6038   22.4063 C   0  0  0  0  0  0  0  0  0  0  0  0
  -23.4957  -27.1950   27.5012 C   0  0  0  0  0  0  0  0  0  0  0  0
  -20.0565   -7.6142   22.9486 C   0  0  0  0  0  0  0  0  0  0  0  0
  -19.2872   -7.5113   24.1075 C   0  0  0  0  0  0  0  0  0  0  0  0
  -25.4003  -28.1640   26.3820 C   0  0  0  0  0  0  0  0  0  0  0  0
  -30.8032  -18.0503   20.7836 C   0  0  0  0  0  0  0  0  0  0  0  0
  -30.1095  -20.1730   21.7056 C   0  0  0  0  0  0  0  0  0  0  0  0
  -20.6267   -5.6349   24.8301 C   0  0  0  0  0  0  0  0  0  0  0  0
  -23.8993  -10.3948   20.9241 C   0  0  0  0  0  0  0  0  0  0  0  0
  -24.0985  -12.9370   20.8505 C   0  0  0  0  0  0  0  0  0  0  0  0
  -18.2153  -30.8050   22.8612 C   0  0  0  0  0  0  0  0  0  0  0  0
  -23.4281  -29.5111   26.7760 C   0  0  0  0  0  0  0  0  0  0  0  0
  -19.4368  -30.1513   23.1126 C   0  0  0  0  0  0  0  0  0  0  0  0
  -24.7324  -29.3934   26.2750 C   0  0  0  0  0  0  0  0  0  0  0  0
  -29.9263  -17.3899   21.6441 C   0  0  0  0  0  0  0  0  0  0  0  0
  -29.2325  -19.5126   22.5661 C   0  0  0  0  0  0  0  0  0  0  0  0
  -22.5383   -7.9998   21.3644 C   0  0  0  0  0  0  0  0  0  0  0  0
  -24.7844  -27.0706   26.9903 C   0  0  0  0  0  0  0  0  0  0  0  0
  -21.1109   -6.7274   22.7303 C   0  0  0  0  0  0  0  0  0  0  0  0
  -19.5723   -6.5217   25.0483 C   0  0  0  0  0  0  0  0  0  0  0  0
  -30.8949  -19.4419   20.8144 C   0  0  0  0  0  0  0  0  0  0  0  0
  -21.3960   -5.7378   23.6711 C   0  0  0  0  0  0  0  0  0  0  0  0
  -29.1410  -18.1210   22.5354 C   0  0  0  0  0  0  0  0  0  0  0  0
  -24.6028  -11.6316   20.6972 C   0  0  0  0  0  0  0  0  0  0  0  0
  -25.1512  -13.7533   20.5155 C   0  0  0  0  0  0  0  0  0  0  0  0
  -22.7952  -13.3728   21.2593 C   0  0  0  0  0  0  0  0  0  0  0  0
  -22.7752  -31.2837   24.2196 C   0  0  0  0  0  0  0  0  0  0  0  0
  -27.5158  -22.1502   24.6176 C   0  0  0  0  0  0  0  0  0  0  0  0
  -25.2809  -33.0468   25.2850 C   0  0  0  0  0  0  0  0  0  0  0  0
  -28.1614  -33.1805   27.1103 C   0  0  0  0  0  0  0  0  0  0  0  0
  -30.5462  -15.1035   20.7870 C   0  0  0  0  0  0  0  0  0  0  0  0
  -18.1629  -32.1689   22.2194 C   0  0  0  0  0  0  0  0  0  0  0  0
  -22.6973  -30.8234   26.6971 C   0  0  0  0  0  0  0  0  0  0  0  0
  -25.4360  -30.5504   25.6156 C   0  0  0  0  0  0  0  0  0  0  0  0
  -19.4884  -32.9233   22.2829 C   0  0  0  0  0  0  0  0  0  0  0  0
  -29.6031  -12.6716   18.3634 C   0  0  0  0  0  0  0  0  0  0  0  0
  -20.6415  -32.0119   21.8746 C   0  0  0  0  0  0  0  0  0  0  0  0
  -28.1767  -12.2916   18.7671 C   0  0  0  0  0  0  0  0  0  0  0  0
  -30.4873  -12.9312   19.5819 C   0  0  0  0  0  0  0  0  0  0  0  0
  -28.5236  -13.5226   20.9469 C   0  0  0  0  0  0  0  0  0  0  0  0
  -20.7654  -30.8179   22.8287 C   0  0  1  0  0  0  0  0  0  0  0  0
  -23.2156  -31.7301   25.5851 C   0  0  1  0  0  0  0  0  0  0  0  0
  -27.5784  -13.3148   19.7524 C   0  0  2  0  0  0  0  0  0  0  0  0
  -30.0092  -34.7481   27.7626 C   0  0  0  0  0  0  0  0  0  0  0  0
  -26.5070  -32.7540   22.5063 C   0  0  0  0  0  0  0  0  0  0  0  0
  -28.6984  -33.4837   23.4725 C   0  0  0  0  0  0  0  0  0  0  0  0
  -26.7415  -35.0302   23.5154 C   0  0  0  0  0  0  0  0  0  0  0  0
  -27.5120  -32.9339   29.9872 C   0  0  0  0  0  0  0  0  0  0  0  0
  -27.4487  -23.6582   24.8178 C   0  0  0  0  0  0  0  0  0  0  0  0
  -28.4831  -21.6796   23.5499 C   0  0  0  0  0  0  0  0  0  0  0  0
  -26.3886  -25.5800   26.0626 C   0  0  0  0  0  0  0  0  0  1  0  0
  -26.7735  -33.0286   25.0596 C   0  0  1  0  0  0  0  0  0  0  0  0
  -28.6529  -34.1765   28.1451 C   0  0  2  0  0  0  0  0  0  0  0  0
  -27.1664  -33.5516   23.6491 C   0  0  0  0  0  0  0  0  0  0  0  0
  -26.4400  -24.0744   25.8785 C   0  0  0  0  0  0  0  0  0  0  0  0
  -25.8766  -11.6148   20.2958 N   0  0  0  0  0  0  0  0  0  0  0  0
  -26.1817  -12.9197   20.1941 N   0  0  0  0  0  0  0  0  0  0  0  0
  -24.6774  -31.8109   25.5570 N   0  0  0  0  0  0  0  0  0  0  0  0
  -29.8588  -13.9134   20.4678 N   0  0  0  0  0  0  0  0  0  0  0  0
  -25.2865  -15.0956   20.4675 N   0  0  0  0  0  0  0  0  0  0  0  0
  -21.8321  -12.4021   21.5668 N   0  0  0  0  0  0  0  0  0  0  0  0
  -29.8362  -15.9762   21.6109 N   0  0  0  0  0  0  0  0  0  0  0  0
  -28.4525  -20.2422   23.4513 N   0  0  0  0  0  0  0  0  0  0  0  0
  -21.4036  -31.2215   24.0633 N   0  0  0  0  0  0  0  0  0  0  0  0
  -27.3620  -33.7822   26.1616 N   0  0  0  0  0  0  0  0  0  0  0  0
  -28.7782  -33.5202   29.4772 N   0  3  0  0  0  0  0  0  0  0  0  0
  -22.4886  -14.5868   21.3334 O   0  0  0  0  0  0  0  0  0  0  0  0
  -23.6173  -31.0170   23.3703 O   0  0  0  0  0  0  0  0  0  0  0  0
  -26.8327  -21.3685   25.2776 O   0  0  0  0  0  0  0  0  0  0  0  0
  -24.6740  -34.1192   25.2290 O   0  0  0  0  0  0  0  0  0  0  0  0
  -28.4601  -31.9886   27.1385 O   0  0  0  0  0  0  0  0  0  0  0  0
  -31.6701  -15.3440   20.3387 O   0  0  0  0  0  0  0  0  0  0  0  0
  -21.8742   -6.8313   21.5796 O   0  0  0  0  0  0  0  0  0  0  0  0
  -25.4447  -25.8848   27.0886 O   0  0  0  0  0  0  0  0  0  1  0  0
  -18.8344   -6.4240   26.1619 F   0  0  0  0  0  0  0  0  0  0  0  0
  -31.7361  -20.0761   19.9871 F   0  0  0  0  0  0  0  0  0  0  0  0
  -22.4083   -4.8837   23.4675 F   0  0  0  0  0  0  0  0  0  0  0  0
  -28.2976  -17.4862   23.3640 F   0  0  0  0  0  0  0  0  0  0  0  0
  -25.2057  -23.6279   25.5329 F   0  0  0  0  0  0  0  0  0  0  0  0
  -26.7591  -23.4940   27.0632 F   0  0  0  0  0  0  0  0  0  0  0  0
  1  2  1  0  0  0  0
  1  5  2  0  0  0  0
  2  6  2  0  0  0  0
  3  8  2  0  0  0  0
  3 17  1  0  0  0  0
  4  9  1  0  0  0  0
  4 17  2  0  0  0  0
  5 19  1  0  0  0  0
  6 21  1  0  0  0  0
  7 10  2  0  0  0  0
  7 20  1  0  0  0  0
  8 25  1  0  0  0  0
  9 25  2  0  0  0  0
 10 26  1  0  0  0  0
 11 12  2  0  0  0  0
 11 27  1  0  0  0  0
 12 28  1  0  0  0  0
 13 22  1  0  0  0  0
 13 26  2  0  0  0  0
 14 23  2  0  0  0  0
 14 29  1  0  0  0  0
 15 24  1  0  0  0  0
 15 29  2  0  0  0  0
 16 28  2  0  0  0  0
 16 30  1  0  0  0  0
 17 32  1  0  0  0  0
 18 32  1  0  0  0  0
 18 33  2  0  0  0  0
 18 34  1  0  0  0  0
 19 21  2  0  0  0  0
 19 40  1  0  0  0  0
 20 22  2  0  0  0  0
 20 41  1  0  0  0  0
 21 49  1  0  0  0  0
 22 42  1  0  0  0  0
 23 31  1  0  0  0  0
 23 70  1  0  0  0  0
 24 31  2  0  0  0  0
 24 71  1  0  0  0  0
 25 81  1  0  0  0  0
 26 82  1  0  0  0  0
 27 30  2  0  0  0  0
 27 81  1  0  0  0  0
 28 83  1  0  0  0  0
 29 84  1  0  0  0  0
 30 85  1  0  0  0  0
 31 86  1  0  0  0  0
 32 64  2  0  0  0  0
 33 65  1  0  0  0  0
 33 68  1  0  0  0  0
 34 69  1  0  0  0  0
 34 75  2  0  0  0  0
 35 50  1  0  0  0  0
 35 72  1  0  0  0  0
 35 76  2  0  0  0  0
 36 57  1  0  0  0  0
 36 58  1  0  0  0  0
 36 77  2  0  0  0  0
 37 60  1  0  0  0  0
 37 66  1  0  0  0  0
 37 78  2  0  0  0  0
 38 61  1  0  0  0  0
 38 73  1  0  0  0  0
 38 79  2  0  0  0  0
 39 67  1  0  0  0  0
 39 70  1  0  0  0  0
 39 80  2  0  0  0  0
 40 43  1  0  0  0  0
 41 50  1  0  0  0  0
 42 66  1  0  0  0  0
 43 45  1  0  0  0  0
 44 46  1  0  0  0  0
 44 47  1  0  0  0  0
 45 49  1  0  0  0  0
 46 51  1  0  0  0  0
 47 67  1  0  0  0  0
 48 51  1  0  0  0  0
 48 67  1  0  0  0  0
 49 72  1  0  0  0  0
 50 66  1  0  0  0  0
 51 65  1  0  0  0  0
 52 61  1  0  0  0  0
 53 62  1  0  0  0  0
 54 62  1  0  0  0  0
 55 62  1  0  0  0  0
 56 74  1  0  0  0  0
 57 63  1  0  0  0  0
 58 71  1  0  0  0  0
 59 63  1  0  0  0  0
 59 82  1  0  0  0  0
 60 62  1  0  0  0  0
 60 73  1  0  0  0  0
 61 74  1  0  0  0  0
 63 87  1  0  0  0  0
 63 88  1  0  0  0  0
 64 65  1  0  0  0  0
M  CHG  1  74   1
M  ISO  4  39 100  59 101  70 100  82 101
M  END
> <Batch ID>
0173

> <Smiles>
CNC(C)C(=O)NC(C(=O)N1Cc2cc([101O:1][101CH2:1]C(F)(F)CC(=O)CNc3cc(F)cc([100NH:0][100C:0](=O)N4CCCC(n5nc(-c6ccc(Oc7ccc(F)cc7F)cc6)c(C(N)=O)c5N)C4)c3F)ccc2CC1C(=O)NC1CCCc2ccccc21)C(C)(C)C

> <Shape>
0.294

> <Color>
0.208

> <Negative vol penalty>
0.000

$$$$

  -OEChem-04052304293D

 89 97  0     1  0  0  0  0  0999 V2000
  -34.7516  -27.7558   17.4533 C   0  0  0  0  0  0  0  0  0  0  0  0
  -33.8716  -27.1714   18.3586 C   0  0  0  0  0  0  0  0  0  0  0  0
  -23.0815   -9.8844   19.9088 C   0  0  0  0  0  0  0  0  0  0  0  0
  -23.8645   -9.8355   22.1939 C   0  0  0  0  0  0  0  0  0  0  0  0
  -34.9800  -29.1306   17.4933 C   0  0  0  0  0  0  0  0  0  0  0  0
  -33.2204  -27.9615   19.3053 C   0  0  0  0  0  0  0  0  0  0  0  0
  -28.2985  -26.8426   19.7148 C   0  0  0  0  0  0  0  0  0  0  0  0
  -22.3486   -8.7194   20.1350 C   0  0  0  0  0  0  0  0  0  0  0  0
  -23.1316   -8.6704   22.4201 C   0  0  0  0  0  0  0  0  0  0  0  0
  -27.9631  -25.7034   20.4454 C   0  0  0  0  0  0  0  0  0  0  0  0
  -19.9156   -7.8325   23.0329 C   0  0  0  0  0  0  0  0  0  0  0  0
  -19.1708   -7.7554   24.2098 C   0  0  0  0  0  0  0  0  0  0  0  0
  -27.4275  -27.0880   22.3468 C   0  0  0  0  0  0  0  0  0  0  0  0
  -29.4913  -17.8832   22.4887 C   0  0  0  0  0  0  0  0  0  0  0  0
  -30.5360  -19.8965   21.6569 C   0  0  0  0  0  0  0  0  0  0  0  0
  -31.1058  -17.7543   20.6960 C   0  0  0  0  0  0  0  0  0  0  0  0
  -20.4337   -5.8083   24.8814 C   0  0  0  0  0  0  0  0  0  0  0  0
  -23.8396  -10.4424   20.9383 C   0  0  0  0  0  0  0  0  0  0  0  0
  -24.1618  -12.9724   20.8829 C   0  0  0  0  0  0  0  0  0  0  0  0
  -34.3239  -29.9393   18.4346 C   0  0  0  0  0  0  0  0  0  0  0  0
  -28.2112  -28.1143   20.2993 C   0  0  0  0  0  0  0  0  0  0  0  0
  -33.4413  -29.3482   19.3588 C   0  0  0  0  0  0  0  0  0  0  0  0
  -27.7599  -28.2418   21.6207 C   0  0  0  0  0  0  0  0  0  0  0  0
  -29.6496  -19.2684   22.5318 C   0  0  0  0  0  0  0  0  0  0  0  0
  -30.2194  -17.1262   21.5709 C   0  0  0  0  0  0  0  0  0  0  0  0
  -22.3736   -8.1124   21.3906 C   0  0  0  0  0  0  0  0  0  0  0  0
  -27.5303  -25.8258   21.7625 C   0  0  0  0  0  0  0  0  0  0  0  0
  -20.9193   -6.8974   22.7802 C   0  0  0  0  0  0  0  0  0  0  0  0
  -19.4299   -6.7433   25.1340 C   0  0  0  0  0  0  0  0  0  0  0  0
  -31.2641  -19.1395   20.7390 C   0  0  0  0  0  0  0  0  0  0  0  0
  -21.1784   -5.8853   23.7045 C   0  0  0  0  0  0  0  0  0  0  0  0
  -24.5973  -11.6455   20.7051 C   0  0  0  0  0  0  0  0  0  0  0  0
  -25.2448  -13.7395   20.5291 C   0  0  0  0  0  0  0  0  0  0  0  0
  -22.8919  -13.4672   21.3282 C   0  0  0  0  0  0  0  0  0  0  0  0
  -30.2880  -30.4304   20.9519 C   0  0  0  0  0  0  0  0  0  0  0  0
  -26.9546  -22.3211   22.7516 C   0  0  0  0  0  0  0  0  0  0  0  0
  -27.6122  -32.0598   21.7932 C   0  0  0  0  0  0  0  0  0  0  0  0
  -24.3633  -31.9556   22.8329 C   0  0  0  0  0  0  0  0  0  0  0  0
  -30.7047  -14.8212   20.6777 C   0  0  0  0  0  0  0  0  0  0  0  0
  -34.6389  -31.4138   18.4700 C   0  0  0  0  0  0  0  0  0  0  0  0
  -28.5511  -29.3352   19.4892 C   0  0  0  0  0  0  0  0  0  0  0  0
  -27.6293  -29.5858   22.2878 C   0  0  0  0  0  0  0  0  0  0  0  0
  -33.6238  -32.2347   19.2611 C   0  0  0  0  0  0  0  0  0  0  0  0
  -29.5839  -12.4635   18.2564 C   0  0  0  0  0  0  0  0  0  0  0  0
  -33.3169  -31.5620   20.5954 C   0  0  0  0  0  0  0  0  0  0  0  0
  -28.1508  -12.1497   18.6922 C   0  0  0  0  0  0  0  0  0  0  0  0
  -30.5095  -12.6668   19.4546 C   0  0  0  0  0  0  0  0  0  0  0  0
  -28.6114  -13.3396   20.8738 C   0  0  0  0  0  0  0  0  0  0  0  0
  -32.6971  -30.1754   20.3844 C   0  0  1  0  0  0  0  0  0  0  0  0
  -28.9157  -30.5408   20.3499 C   0  0  1  0  0  0  0  0  0  0  0  0
  -27.6280  -13.1907   19.7014 C   0  0  2  0  0  0  0  0  0  0  0  0
  -29.1573  -19.7010   24.9736 C   0  0  0  0  0  0  0  0  0  0  0  0
  -22.4509  -33.4491   23.4725 C   0  0  0  0  0  0  0  0  0  0  0  0
  -28.9421  -32.6061   24.4844 C   0  0  0  0  0  0  0  0  0  0  0  0
  -26.6949  -33.2410   25.3873 C   0  0  0  0  0  0  0  0  0  0  0  0
  -27.7023  -34.5519   23.5194 C   0  0  0  0  0  0  0  0  0  0  0  0
  -22.6658  -30.9136   20.6439 C   0  0  0  0  0  0  0  0  0  0  0  0
  -27.3264  -23.4570   21.8169 C   0  0  0  0  0  0  0  0  0  1  0  0
  -28.8594  -20.0903   23.5271 C   0  0  2  0  0  0  0  0  0  0  0  0
  -27.0570  -20.9160   22.1743 C   0  0  2  0  0  0  0  0  0  0  0  0
  -26.8182  -32.2270   23.0662 C   0  0  1  0  0  0  0  0  0  0  0  0
  -23.1253  -32.6852   22.3436 C   0  0  2  0  0  0  0  0  0  0  0  0
  -27.5436  -33.1309   24.1027 C   0  0  0  0  0  0  0  0  0  0  0  0
  -25.7350  -20.4977   21.5620 C   0  0  0  0  0  0  0  0  0  0  0  0
  -25.8585  -11.5705   20.2718 N   0  0  0  0  0  0  0  0  0  0  0  0
  -26.2248  -12.8599   20.1744 N   0  0  0  0  0  0  0  0  0  0  0  0
  -27.9795  -30.7493   21.4564 N   0  0  0  0  0  0  0  0  0  0  0  0
  -29.9519  -13.6695   20.3650 N   0  0  0  0  0  0  0  0  0  0  0  0
  -25.4448  -15.0740   20.4899 N   0  0  0  0  0  0  0  0  0  0  0  0
  -21.8901  -12.5417   21.6509 N   0  0  0  0  0  0  0  0  0  0  0  0
  -30.0590  -15.7190   21.5271 N   0  0  0  0  0  0  0  0  0  0  0  0
  -31.3011  -30.2956   20.0220 N   0  0  0  0  0  0  0  0  0  0  0  0
  -25.5026  -32.7141   22.6658 N   0  0  0  0  0  0  0  0  0  0  0  0
  -27.4310  -20.0133   23.2598 N   0  0  0  0  0  0  0  0  0  0  0  0
  -22.1430  -31.7172   21.7787 N   0  3  0  0  0  0  0  0  0  0  0  0
  -22.6473  -14.6940   21.4210 O   0  0  0  0  0  0  0  0  0  0  0  0
  -30.4181  -30.4664   22.1699 O   0  0  0  0  0  0  0  0  0  0  0  0
  -26.5685  -22.5338   23.9015 O   0  0  0  0  0  0  0  0  0  0  0  0
  -27.8899  -33.0545   21.1186 O   0  0  0  0  0  0  0  0  0  0  0  0
  -24.3233  -30.8272   23.3184 O   0  0  0  0  0  0  0  0  0  0  0  0
  -31.8278  -15.0109   20.2036 O   0  0  0  0  0  0  0  0  0  0  0  0
  -21.6584   -6.9757   21.6118 O   0  0  0  0  0  0  0  0  0  0  0  0
  -27.2030  -24.7155   22.4780 O   0  0  0  0  0  0  0  0  0  1  0  0
  -18.7157   -6.6704   26.2649 F   0  0  0  0  0  0  0  0  0  0  0  0
  -32.1152  -19.7429   19.8989 F   0  0  0  0  0  0  0  0  0  0  0  0
  -22.1422   -4.9848   23.4678 F   0  0  0  0  0  0  0  0  0  0  0  0
  -25.8073  -19.2466   21.0555 F   0  0  0  0  0  0  0  0  0  0  0  0
  -25.3558  -21.3240   20.5635 F   0  0  0  0  0  0  0  0  0  0  0  0
  -24.7515  -20.4955   22.4903 F   0  0  0  0  0  0  0  0  0  0  0  0
  1  2  1  0  0  0  0
  1  5  2  0  0  0  0
  2  6  2  0  0  0  0
  3  8  2  0  0  0  0
  3 18  1  0  0  0  0
  4  9  1  0  0  0  0
  4 18  2  0  0  0  0
  5 20  1  0  0  0  0
  6 22  1  0  0  0  0
  7 10  2  0  0  0  0
  7 21  1  0  0  0  0
  8 26  1  0  0  0  0
  9 26  2  0  0  0  0
 10 27  1  0  0  0  0
 11 12  2  0  0  0  0
 11 28  1  0  0  0  0
 12 29  1  0  0  0  0
 13 23  1  0  0  0  0
 13 27  2  0  0  0  0
 14 24  2  0  0  0  0
 14 25  1  0  0  0  0
 15 24  1  0  0  0  0
 15 30  2  0  0  0  0
 16 25  2  0  0  0  0
 16 30  1  0  0  0  0
 17 29  2  0  0  0  0
 17 31  1  0  0  0  0
 18 32  1  0  0  0  0
 19 32  1  0  0  0  0
 19 33  2  0  0  0  0
 19 34  1  0  0  0  0
 20 22  2  0  0  0  0
 20 40  1  0  0  0  0
 21 23  2  0  0  0  0
 21 41  1  0  0  0  0
 22 49  1  0  0  0  0
 23 42  1  0  0  0  0
 24 59  1  0  0  0  0
 25 71  1  0  0  0  0
 26 82  1  0  0  0  0
 27 83  1  0  0  0  0
 28 31  2  0  0  0  0
 28 82  1  0  0  0  0
 29 84  1  0  0  0  0
 30 85  1  0  0  0  0
 31 86  1  0  0  0  0
 32 65  2  0  0  0  0
 33 66  1  0  0  0  0
 33 69  1  0  0  0  0
 34 70  1  0  0  0  0
 34 76  2  0  0  0  0
 35 50  1  0  0  0  0
 35 72  1  0  0  0  0
 35 77  2  0  0  0  0
 36 58  1  0  0  0  0
 36 60  1  0  0  0  0
 36 78  2  0  0  0  0
 37 61  1  0  0  0  0
 37 67  1  0  0  0  0
 37 79  2  0  0  0  0
 38 62  1  0  0  0  0
 38 73  1  0  0  0  0
 38 80  2  0  0  0  0
 39 68  1  0  0  0  0
 39 71  1  0  0  0  0
 39 81  2  0  0  0  0
 40 43  1  0  0  0  0
 41 50  1  0  0  0  0
 42 67  1  0  0  0  0
 43 45  1  0  0  0  0
 44 46  1  0  0  0  0
 44 47  1  0  0  0  0
 45 49  1  0  0  0  0
 46 51  1  0  0  0  0
 47 68  1  0  0  0  0
 48 51  1  0  0  0  0
 48 68  1  0  0  0  0
 49 72  1  0  0  0  0
 50 67  1  0  0  0  0
 51 66  1  0  0  0  0
 52 59  1  0  0  0  0
 53 62  1  0  0  0  0
 54 63  1  0  0  0  0
 55 63  1  0  0  0  0
 56 63  1  0  0  0  0
 57 75  1  0  0  0  0
 58 83  1  0  0  0  0
 59 74  1  0  0  0  0
 60 64  1  0  0  0  0
 60 74  1  0  0  0  0
 61 63  1  0  0  0  0
 61 73  1  0  0  0  0
 62 75  1  0  0  0  0
 64 87  1  0  0  0  0
 64 88  1  0  0  0  0
 64 89  1  0  0  0  0
 65 66  1  0  0  0  0
M  CHG  1  75   1
M  ISO  4  39 100  58 101  71 100  83 101
M  END
> <Batch ID>
0173

> <Smiles>
CNC(C)C(=O)NC(C(=O)N1Cc2cc([101O:1][101CH2:1]C(=O)C(NC(C)c3cc(F)cc([100NH:0][100C:0](=O)N4CCCC(n5nc(-c6ccc(Oc7ccc(F)cc7F)cc6)c(C(N)=O)c5N)C4)c3)C(F)(F)F)ccc2CC1C(=O)NC1CCCc2ccccc21)C(C)(C)C

> <Shape>
0.273

> <Color>
0.189

> <Negative vol penalty>
0.000

$$$$

  -OEChem-04052304293D

 86 94  0     1  0  0  0  0  0999 V2000
  -28.8430  -33.2439   26.2498 C   0  0  0  0  0  0  0  0  0  0  0  0
  -28.7568  -32.0261   25.5827 C   0  0  0  0  0  0  0  0  0  0  0  0
  -28.2312  -18.8789   15.7795 C   0  0  0  0  0  0  0  0  0  0  0  0
  -24.2510   -9.4393   22.0184 C   0  0  0  0  0  0  0  0  0  0  0  0
  -23.0108  -10.0067   20.0242 C   0  0  0  0  0  0  0  0  0  0  0  0
  -27.6813  -33.9429   26.5751 C   0  0  0  0  0  0  0  0  0  0  0  0
  -27.5088  -31.5062   25.2414 C   0  0  0  0  0  0  0  0  0  0  0  0
  -27.3808  -29.7103   20.5081 C   0  0  0  0  0  0  0  0  0  0  0  0
  -23.4047   -8.3520   22.2354 C   0  0  0  0  0  0  0  0  0  0  0  0
  -22.1645   -8.9193   20.2411 C   0  0  0  0  0  0  0  0  0  0  0  0
  -27.9546  -28.4593   20.2860 C   0  0  0  0  0  0  0  0  0  0  0  0
  -23.0241   -5.2134   21.0363 C   0  0  0  0  0  0  0  0  0  0  0  0
  -23.6093   -3.9954   21.3820 C   0  0  0  0  0  0  0  0  0  0  0  0
  -28.3668  -20.2358   16.0513 C   0  0  0  0  0  0  0  0  0  0  0  0
  -27.5310  -18.0652   16.6632 C   0  0  0  0  0  0  0  0  0  0  0  0
  -25.7631  -27.4523   20.3332 C   0  0  0  0  0  0  0  0  0  0  0  0
  -22.3787   -3.9943   23.4612 C   0  0  0  0  0  0  0  0  0  0  0  0
  -24.0540  -10.2667   20.9128 C   0  0  0  0  0  0  0  0  0  0  0  0
  -26.1243  -11.4021   19.9472 C   0  0  0  0  0  0  0  0  0  0  0  0
  -26.4189  -33.4360   26.2290 C   0  0  0  0  0  0  0  0  0  0  0  0
  -25.9923  -29.8405   20.6555 C   0  0  0  0  0  0  0  0  0  0  0  0
  -26.3291  -32.1985   25.5635 C   0  0  0  0  0  0  0  0  0  0  0  0
  -25.1738  -28.7064   20.5545 C   0  0  0  0  0  0  0  0  0  0  0  0
  -22.3615   -8.0920   21.3468 C   0  0  0  0  0  0  0  0  0  0  0  0
  -27.1461  -27.3296   20.2014 C   0  0  0  0  0  0  0  0  0  0  0  0
  -22.1163   -5.8220   21.9031 C   0  0  0  0  0  0  0  0  0  0  0  0
  -23.2866   -3.3858   22.5944 C   0  0  0  0  0  0  0  0  0  0  0  0
  -21.7936   -5.2124   23.1155 C   0  0  0  0  0  0  0  0  0  0  0  0
  -24.9275  -11.3904   20.6884 C   0  0  0  0  0  0  0  0  0  0  0  0
  -27.7883  -20.7259   17.2109 C   0  0  0  0  0  0  0  0  0  0  0  0
  -26.9900  -18.6525   17.7956 C   0  0  0  0  0  0  0  0  0  0  0  0
  -26.5711  -12.6978   20.0369 C   0  0  0  0  0  0  0  0  0  0  0  0
  -28.9516  -24.7078   18.5157 C   0  0  0  0  0  0  0  0  0  0  0  0
  -26.7740  -10.3370   19.2407 C   0  0  0  0  0  0  0  0  0  0  0  0
  -28.4843  -24.4260   17.2863 C   0  0  0  0  0  0  0  0  0  0  0  0
  -28.5931  -23.0519   16.7074 C   0  0  0  0  0  0  0  0  0  0  0  0
  -24.0666  -30.8283   22.9835 C   0  0  0  0  0  0  0  0  0  0  0  0
  -21.7761  -30.4550   20.7170 C   0  0  0  0  0  0  0  0  0  0  0  0
  -20.7805  -28.9385   17.8263 C   0  0  0  0  0  0  0  0  0  0  0  0
  -25.6553  -18.1878   19.8810 C   0  0  0  0  0  0  0  0  0  0  0  0
  -25.1893  -34.2047   26.6436 C   0  0  0  0  0  0  0  0  0  0  0  0
  -25.3865  -31.2007   20.8680 C   0  0  0  0  0  0  0  0  0  0  0  0
  -23.6760  -28.7953   20.6855 C   0  0  0  0  0  0  0  0  0  0  0  0
  -23.9220  -33.7662   25.9143 C   0  0  0  0  0  0  0  0  0  0  0  0
  -25.0144  -16.5237   22.9628 C   0  0  0  0  0  0  0  0  0  0  0  0
  -23.8132  -32.2447   25.9010 C   0  0  0  0  0  0  0  0  0  0  0  0
  -25.0331  -15.0408   22.5848 C   0  0  0  0  0  0  0  0  0  0  0  0
  -24.3915  -17.3815   21.8629 C   0  0  0  0  0  0  0  0  0  0  0  0
  -24.9943  -15.7167   20.1499 C   0  0  0  0  0  0  0  0  0  0  0  0
  -24.9947  -31.6137   25.1543 C   0  0  1  0  0  0  0  0  0  0  0  0
  -24.0064  -31.1455   21.5160 C   0  0  1  0  0  0  0  0  0  0  0  0
  -25.6717  -14.8204   21.1995 C   0  0  2  0  0  0  0  0  0  0  0  0
  -27.8344  -25.4457   16.4024 C   0  0  0  0  0  0  0  0  0  0  0  0
  -18.8419  -28.8048   16.2385 C   0  0  0  0  0  0  0  0  0  0  0  0
  -20.2726  -28.6948   22.7047 C   0  0  0  0  0  0  0  0  0  0  0  0
  -18.8879  -27.8462   20.7993 C   0  0  0  0  0  0  0  0  0  0  0  0
  -18.8276  -30.2661   21.4019 C   0  0  0  0  0  0  0  0  0  0  0  0
  -22.4060  -29.9586   15.5733 C   0  0  0  0  0  0  0  0  0  0  0  0
  -20.8839  -29.3201   20.2754 C   0  0  1  0  0  0  0  0  0  0  0  0
  -20.1581  -29.4961   16.5590 C   0  0  2  0  0  0  0  0  0  0  0  0
  -28.9196  -26.0230   19.2334 C   0  0  0  0  0  0  0  0  0  1  0  0
  -19.7464  -29.0296   21.2947 C   0  0  0  0  0  0  0  0  0  0  0  0
  -24.6328  -12.5839   21.2107 N   0  0  0  0  0  0  0  0  0  0  0  0
  -27.1009  -19.9666   18.0932 N   0  0  0  0  0  0  0  0  0  0  0  0
  -25.6509  -13.3576   20.7971 N   0  0  0  0  0  0  0  0  0  0  0  0
  -23.1317  -30.1465   20.8987 N   0  0  0  0  0  0  0  0  0  0  0  0
  -25.0495  -17.1225   20.5803 N   0  0  0  0  0  0  0  0  0  0  0  0
  -27.6575  -13.3256   19.5390 N   0  0  0  0  0  0  0  0  0  0  0  0
  -26.1790   -9.0681   19.2506 N   0  0  0  0  0  0  0  0  0  0  0  0
  -27.9313  -22.1076   17.4785 N   0  0  0  0  0  0  0  0  0  0  0  0
  -26.2780  -17.8155   18.6901 N   0  0  0  0  0  0  0  0  0  0  0  0
  -24.8082  -31.7290   23.7238 N   0  0  0  0  0  0  0  0  0  0  0  0
  -20.4141  -29.6667   18.9384 N   0  0  0  0  0  0  0  0  0  0  0  0
  -21.0805  -29.3096   15.4034 N   0  3  0  0  0  0  0  0  0  0  0  0
  -27.8587  -10.5016   18.6326 O   0  0  0  0  0  0  0  0  0  0  0  0
  -29.1854  -22.8905   15.6465 O   0  0  0  0  0  0  0  0  0  0  0  0
  -23.4820  -29.8405   23.4125 O   0  0  0  0  0  0  0  0  0  0  0  0
  -21.2896  -31.5757   20.8872 O   0  0  0  0  0  0  0  0  0  0  0  0
  -21.5152  -27.9532   17.8299 O   0  0  0  0  0  0  0  0  0  0  0  0
  -25.6476  -19.3404   20.3207 O   0  0  0  0  0  0  0  0  0  0  0  0
  -21.5356   -7.0309   21.5581 O   0  0  0  0  0  0  0  0  0  0  0  0
  -27.7037  -26.1072   19.9854 O   0  0  0  0  0  0  0  0  0  1  0  0
  -23.8475   -2.2154   22.9256 F   0  0  0  0  0  0  0  0  0  0  0  0
  -20.9212   -5.7917   23.9517 F   0  0  0  0  0  0  0  0  0  0  0  0
  -28.9490  -27.0438   18.3353 F   0  0  0  0  0  0  0  0  0  0  0  0
  -29.9858  -26.1852   20.0600 F   0  0  0  0  0  0  0  0  0  0  0  0
  1  2  1  0  0  0  0
  1  6  2  0  0  0  0
  2  7  2  0  0  0  0
  3 14  2  0  0  0  0
  3 15  1  0  0  0  0
  4  9  2  0  0  0  0
  4 18  1  0  0  0  0
  5 10  1  0  0  0  0
  5 18  2  0  0  0  0
  6 20  1  0  0  0  0
  7 22  1  0  0  0  0
  8 11  2  0  0  0  0
  8 21  1  0  0  0  0
  9 24  1  0  0  0  0
 10 24  2  0  0  0  0
 11 25  1  0  0  0  0
 12 13  2  0  0  0  0
 12 26  1  0  0  0  0
 13 27  1  0  0  0  0
 14 30  1  0  0  0  0
 15 31  2  0  0  0  0
 16 23  1  0  0  0  0
 16 25  2  0  0  0  0
 17 27  2  0  0  0  0
 17 28  1  0  0  0  0
 18 29  1  0  0  0  0
 19 29  1  0  0  0  0
 19 32  2  0  0  0  0
 19 34  1  0  0  0  0
 20 22  2  0  0  0  0
 20 41  1  0  0  0  0
 21 23  2  0  0  0  0
 21 42  1  0  0  0  0
 22 50  1  0  0  0  0
 23 43  1  0  0  0  0
 24 81  1  0  0  0  0
 25 82  1  0  0  0  0
 26 28  2  0  0  0  0
 26 81  1  0  0  0  0
 27 83  1  0  0  0  0
 28 84  1  0  0  0  0
 29 63  2  0  0  0  0
 30 64  2  0  0  0  0
 30 70  1  0  0  0  0
 31 64  1  0  0  0  0
 31 71  1  0  0  0  0
 32 65  1  0  0  0  0
 32 68  1  0  0  0  0
 33 35  2  0  0  0  0
 33 61  1  0  0  0  0
 34 69  1  0  0  0  0
 34 75  2  0  0  0  0
 35 36  1  0  0  0  0
 35 53  1  0  0  0  0
 36 70  1  0  0  0  0
 36 76  2  0  0  0  0
 37 51  1  0  0  0  0
 37 72  1  0  0  0  0
 37 77  2  0  0  0  0
 38 59  1  0  0  0  0
 38 66  1  0  0  0  0
 38 78  2  0  0  0  0
 39 60  1  0  0  0  0
 39 73  1  0  0  0  0
 39 79  2  0  0  0  0
 40 67  1  0  0  0  0
 40 71  1  0  0  0  0
 40 80  2  0  0  0  0
 41 44  1  0  0  0  0
 42 51  1  0  0  0  0
 43 66  1  0  0  0  0
 44 46  1  0  0  0  0
 45 47  1  0  0  0  0
 45 48  1  0  0  0  0
 46 50  1  0  0  0  0
 47 52  1  0  0  0  0
 48 67  1  0  0  0  0
 49 52  1  0  0  0  0
 49 67  1  0  0  0  0
 50 72  1  0  0  0  0
 51 66  1  0  0  0  0
 52 65  1  0  0  0  0
 54 60  1  0  0  0  0
 55 62  1  0  0  0  0
 56 62  1  0  0  0  0
 57 62  1  0  0  0  0
 58 74  1  0  0  0  0
 59 62  1  0  0  0  0
 59 73  1  0  0  0  0
 60 74  1  0  0  0  0
 61 82  1  0  0  0  0
 61 85  1  0  0  0  0
 61 86  1  0  0  0  0
 63 65  1  0  0  0  0
M  CHG  1  74   1
M  ISO  4  40 100  61 101  71 100  82 101
M  END
> <Batch ID>
0173

> <Smiles>
CNC(C)C(=O)NC(C(=O)N1Cc2cc([101O:1][101C:1](F)(F)C=C(C)C(=O)Nc3cccc([100NH:0][100C:0](=O)N4CCCC(n5nc(-c6ccc(Oc7ccc(F)cc7F)cc6)c(C(N)=O)c5N)C4)n3)ccc2CC1C(=O)NC1CCCc2ccccc21)C(C)(C)C

> <Shape>
0.296

> <Color>
0.097

> <Negative vol penalty>
0.000

$$$$
