
  -OEChem-04052304333D

 90 98  0     1  0  0  0  0  0999 V2000
  -28.5283  -34.8441   28.6794 C   0  0  0  0  0  0  0  0  0  0  0  0
  -28.1149  -33.6272   28.1469 C   0  0  0  0  0  0  0  0  0  0  0  0
  -23.1440   -9.7131   21.5537 C   0  0  0  0  0  0  0  0  0  0  0  0
  -23.7438  -10.8770   23.5842 C   0  0  0  0  0  0  0  0  0  0  0  0
  -27.8313  -36.0115   28.3709 C   0  0  0  0  0  0  0  0  0  0  0  0
  -27.0033  -33.5768   27.3064 C   0  0  0  0  0  0  0  0  0  0  0  0
  -27.7905  -30.6989   23.2146 C   0  0  0  0  0  0  0  0  0  0  0  0
  -22.4163   -8.7863   22.2999 C   0  0  0  0  0  0  0  0  0  0  0  0
  -23.0160   -9.9501   24.3304 C   0  0  0  0  0  0  0  0  0  0  0  0
  -27.7158  -29.3171   23.3841 C   0  0  0  0  0  0  0  0  0  0  0  0
  -23.0569   -6.0661   24.2012 C   0  0  0  0  0  0  0  0  0  0  0  0
  -23.2161   -4.7159   23.8894 C   0  0  0  0  0  0  0  0  0  0  0  0
  -25.4771  -29.3338   22.4857 C   0  0  0  0  0  0  0  0  0  0  0  0
  -31.4159  -19.6735   21.5311 C   0  0  0  0  0  0  0  0  0  0  0  0
  -31.7477  -17.3522   20.9492 C   0  0  0  0  0  0  0  0  0  0  0  0
  -20.8578   -4.5532   23.3902 C   0  0  0  0  0  0  0  0  0  0  0  0
  -23.8079  -10.7585   22.1958 C   0  0  0  0  0  0  0  0  0  0  0  0
  -24.0886  -12.9220   20.8738 C   0  0  0  0  0  0  0  0  0  0  0  0
  -26.7164  -35.9769   27.5185 C   0  0  0  0  0  0  0  0  0  0  0  0
  -26.7031  -31.4112   22.6886 C   0  0  0  0  0  0  0  0  0  0  0  0
  -26.2899  -34.7447   26.9873 C   0  0  0  0  0  0  0  0  0  0  0  0
  -25.5414  -30.7243   22.3081 C   0  0  0  0  0  0  0  0  0  0  0  0
  -29.5208  -18.2890   20.9579 C   0  0  0  0  0  0  0  0  0  0  0  0
  -30.0419  -19.5243   21.3429 C   0  0  0  0  0  0  0  0  0  0  0  0
  -30.3737  -17.2030   20.7610 C   0  0  0  0  0  0  0  0  0  0  0  0
  -22.3522   -8.9047   23.6882 C   0  0  0  0  0  0  0  0  0  0  0  0
  -26.5580  -28.6347   23.0224 C   0  0  0  0  0  0  0  0  0  0  0  0
  -21.7982   -6.6599   24.1075 C   0  0  0  0  0  0  0  0  0  0  0  0
  -22.1166   -3.9595   23.4838 C   0  0  0  0  0  0  0  0  0  0  0  0
  -32.2688  -18.5874   21.3342 C   0  0  0  0  0  0  0  0  0  0  0  0
  -20.6987   -5.9034   23.7020 C   0  0  0  0  0  0  0  0  0  0  0  0
  -24.5603  -11.7159   21.4256 C   0  0  0  0  0  0  0  0  0  0  0  0
  -25.1825  -13.4617   20.2424 C   0  0  0  0  0  0  0  0  0  0  0  0
  -22.7788  -13.5027   20.9273 C   0  0  0  0  0  0  0  0  0  0  0  0
  -24.7973  -33.7148   23.7679 C   0  0  0  0  0  0  0  0  0  0  0  0
  -27.4409  -25.1430   22.5874 C   0  0  0  0  0  0  0  0  0  0  0  0
  -23.6522  -33.6534   20.7336 C   0  0  0  0  0  0  0  0  0  0  0  0
  -29.5653  -21.9262   21.9305 C   0  0  0  0  0  0  0  0  0  0  0  0
  -23.2040  -31.8987   17.8410 C   0  0  0  0  0  0  0  0  0  0  0  0
  -30.5933  -14.7714   20.1400 C   0  0  0  0  0  0  0  0  0  0  0  0
  -25.9665  -37.2579   27.2518 C   0  0  0  0  0  0  0  0  0  0  0  0
  -26.8093  -32.8980   22.4871 C   0  0  0  0  0  0  0  0  0  0  0  0
  -24.3537  -31.4398   21.7200 C   0  0  0  0  0  0  0  0  0  0  0  0
  -25.0241  -37.1739   26.0538 C   0  0  0  0  0  0  0  0  0  0  0  0
  -29.7104  -11.4517   19.2033 C   0  0  0  0  0  0  0  0  0  0  0  0
  -24.2009  -35.8910   26.1111 C   0  0  0  0  0  0  0  0  0  0  0  0
  -28.2530  -11.3237   19.6526 C   0  0  0  0  0  0  0  0  0  0  0  0
  -30.5341  -12.2875   20.1815 C   0  0  0  0  0  0  0  0  0  0  0  0
  -28.5176  -13.4813   20.9418 C   0  0  0  0  0  0  0  0  0  0  0  0
  -25.1038  -34.6530   26.0519 C   0  0  1  0  0  0  0  0  0  0  0  0
  -25.4516  -33.5905   22.4210 C   0  0  1  0  0  0  0  0  0  0  0  0
  -27.6332  -12.7022   19.9545 C   0  0  2  0  0  0  0  0  0  0  0  0
  -22.2005  -32.1006   15.5498 C   0  0  0  0  0  0  0  0  0  0  0  0
  -20.8657  -33.3004   21.9255 C   0  0  0  0  0  0  0  0  0  0  0  0
  -20.0690  -32.5671   19.6682 C   0  0  0  0  0  0  0  0  0  0  0  0
  -20.9775  -34.8691   19.9810 C   0  0  0  0  0  0  0  0  0  0  0  0
  -25.8245  -31.4827   16.5300 C   0  0  0  0  0  0  0  0  0  0  0  0
  -28.6693  -24.2548   22.4537 C   0  0  0  0  0  0  0  0  0  0  0  0
  -27.7009  -26.5501   23.0887 C   0  0  0  0  0  0  0  0  0  1  0  0
  -28.3384  -22.8247   22.0380 C   0  0  0  0  0  0  0  0  0  0  0  0
  -22.5588  -32.8968   20.0186 C   0  0  1  0  0  0  0  0  0  0  0  0
  -23.4571  -32.2666   16.3902 C   0  0  2  0  0  0  0  0  0  0  0  0
  -28.0457  -18.1289   20.7566 C   0  0  0  0  0  0  0  0  0  0  0  0
  -21.1392  -33.3948   20.4112 C   0  0  0  0  0  0  0  0  0  0  0  0
  -25.8531  -11.5015   21.1672 N   0  0  0  0  0  0  0  0  0  0  0  0
  -26.2030  -12.5802   20.4461 N   0  0  0  0  0  0  0  0  0  0  0  0
  -24.5039  -32.8943   21.5485 N   0  0  0  0  0  0  0  0  0  0  0  0
  -29.8883  -13.5808   20.4162 N   0  0  0  0  0  0  0  0  0  0  0  0
  -25.3612  -14.5995   19.5382 N   0  0  0  0  0  0  0  0  0  0  0  0
  -21.7711  -12.8157   21.6179 N   0  0  0  0  0  0  0  0  0  0  0  0
  -29.1955  -20.6396   21.5488 N   0  0  0  0  0  0  0  0  0  0  0  0
  -29.8663  -15.9388   20.3709 N   0  0  0  0  0  0  0  0  0  0  0  0
  -25.5462  -34.4145   24.6948 N   0  0  0  0  0  0  0  0  0  0  0  0
  -22.8555  -33.0000   18.5939 N   0  0  0  0  0  0  0  0  0  0  0  0
  -24.5249  -31.4007   15.8149 N   0  3  0  0  0  0  0  0  0  0  0  0
  -22.5059  -14.5904   20.3651 O   0  0  0  0  0  0  0  0  0  0  0  0
  -23.6940  -33.2144   23.9521 O   0  0  0  0  0  0  0  0  0  0  0  0
  -26.3080  -24.7553   22.3061 O   0  0  0  0  0  0  0  0  0  0  0  0
  -23.7515  -34.8719   20.5692 O   0  0  0  0  0  0  0  0  0  0  0  0
  -30.6979  -22.3382   22.1576 O   0  0  0  0  0  0  0  0  0  0  0  0
  -23.3018  -30.7486   18.2634 O   0  0  0  0  0  0  0  0  0  0  0  0
  -31.7469  -14.7560   19.7030 O   0  0  0  0  0  0  0  0  0  0  0  0
  -21.6419   -8.0006   24.4167 O   0  0  0  0  0  0  0  0  0  0  0  0
  -26.4823  -27.2860   23.1874 O   0  0  0  0  0  0  0  0  0  1  0  0
  -22.2699   -2.6633   23.1830 F   0  0  0  0  0  0  0  0  0  0  0  0
  -33.5884  -18.7312   21.5148 F   0  0  0  0  0  0  0  0  0  0  0  0
  -19.4871   -6.4685   23.6091 F   0  0  0  0  0  0  0  0  0  0  0  0
  -27.3405  -19.2733   20.9856 F   0  0  0  0  0  0  0  0  0  0  0  0
  -27.7109  -17.7452   19.4917 F   0  0  0  0  0  0  0  0  0  0  0  0
  -27.5077  -17.1895   21.5842 F   0  0  0  0  0  0  0  0  0  0  0  0
  1  2  1  0  0  0  0
  1  5  2  0  0  0  0
  2  6  2  0  0  0  0
  3  8  2  0  0  0  0
  3 17  1  0  0  0  0
  4  9  1  0  0  0  0
  4 17  2  0  0  0  0
  5 19  1  0  0  0  0
  6 21  1  0  0  0  0
  7 10  2  0  0  0  0
  7 20  1  0  0  0  0
  8 26  1  0  0  0  0
  9 26  2  0  0  0  0
 10 27  1  0  0  0  0
 11 12  2  0  0  0  0
 11 28  1  0  0  0  0
 12 29  1  0  0  0  0
 13 22  1  0  0  0  0
 13 27  2  0  0  0  0
 14 24  1  0  0  0  0
 14 30  2  0  0  0  0
 15 25  2  0  0  0  0
 15 30  1  0  0  0  0
 16 29  2  0  0  0  0
 16 31  1  0  0  0  0
 17 32  1  0  0  0  0
 18 32  1  0  0  0  0
 18 33  2  0  0  0  0
 18 34  1  0  0  0  0
 19 21  2  0  0  0  0
 19 41  1  0  0  0  0
 20 22  2  0  0  0  0
 20 42  1  0  0  0  0
 21 50  1  0  0  0  0
 22 43  1  0  0  0  0
 23 24  2  0  0  0  0
 23 25  1  0  0  0  0
 23 63  1  0  0  0  0
 24 71  1  0  0  0  0
 25 72  1  0  0  0  0
 26 83  1  0  0  0  0
 27 84  1  0  0  0  0
 28 31  2  0  0  0  0
 28 83  1  0  0  0  0
 29 85  1  0  0  0  0
 30 86  1  0  0  0  0
 31 87  1  0  0  0  0
 32 65  2  0  0  0  0
 33 66  1  0  0  0  0
 33 69  1  0  0  0  0
 34 70  1  0  0  0  0
 34 76  2  0  0  0  0
 35 51  1  0  0  0  0
 35 73  1  0  0  0  0
 35 77  2  0  0  0  0
 36 58  1  0  0  0  0
 36 59  1  0  0  0  0
 36 78  2  0  0  0  0
 37 61  1  0  0  0  0
 37 67  1  0  0  0  0
 37 79  2  0  0  0  0
 38 60  1  0  0  0  0
 38 71  1  0  0  0  0
 38 80  2  0  0  0  0
 39 62  1  0  0  0  0
 39 74  1  0  0  0  0
 39 81  2  0  0  0  0
 40 68  1  0  0  0  0
 40 72  1  0  0  0  0
 40 82  2  0  0  0  0
 41 44  1  0  0  0  0
 42 51  1  0  0  0  0
 43 67  1  0  0  0  0
 44 46  1  0  0  0  0
 45 47  1  0  0  0  0
 45 48  1  0  0  0  0
 46 50  1  0  0  0  0
 47 52  1  0  0  0  0
 48 68  1  0  0  0  0
 49 52  1  0  0  0  0
 49 68  1  0  0  0  0
 50 73  1  0  0  0  0
 51 67  1  0  0  0  0
 52 66  1  0  0  0  0
 53 62  1  0  0  0  0
 54 64  1  0  0  0  0
 55 64  1  0  0  0  0
 56 64  1  0  0  0  0
 57 75  1  0  0  0  0
 58 60  1  0  0  0  0
 59 84  1  0  0  0  0
 61 64  1  0  0  0  0
 61 74  1  0  0  0  0
 62 75  1  0  0  0  0
 63 88  1  0  0  0  0
 63 89  1  0  0  0  0
 63 90  1  0  0  0  0
 65 66  1  0  0  0  0
M  CHG  1  75   1
M  ISO  4  40 100  59 101  72 100  84 101
M  END
> <Batch ID>
0174

> <Smiles>
CNC(C)C(=O)NC(C(=O)N1Cc2cc([101O:1][101CH2:1]C(=O)CCC(=O)Nc3cc(F)cc([100NH:0][100C:0](=O)N4CCCC(n5nc(-c6ccc(Oc7ccc(F)cc7F)cc6)c(C(N)=O)c5N)C4)c3C(F)(F)F)ccc2CC1C(=O)NC1CCCc2ccccc21)C(C)(C)C

> <Shape>
0.255

> <Color>
0.149

> <Negative vol penalty>
0.000

$$$$

  -OEChem-04052304333D

 88 96  0     1  0  0  0  0  0999 V2000
  -33.5627  -23.7085   13.3483 C   0  0  0  0  0  0  0  0  0  0  0  0
  -33.2960  -22.9880   14.5081 C   0  0  0  0  0  0  0  0  0  0  0  0
  -18.8139  -24.2323   23.8183 C   0  0  0  0  0  0  0  0  0  0  0  0
  -18.6831  -23.7353   21.4576 C   0  0  0  0  0  0  0  0  0  0  0  0
  -33.4115  -25.0945   13.3398 C   0  0  0  0  0  0  0  0  0  0  0  0
  -32.8789  -23.6533   15.6605 C   0  0  0  0  0  0  0  0  0  0  0  0
  -28.9998  -21.3350   17.9457 C   0  0  0  0  0  0  0  0  0  0  0  0
  -18.1663  -25.4479   23.5983 C   0  0  0  0  0  0  0  0  0  0  0  0
  -18.0356  -24.9510   21.2376 C   0  0  0  0  0  0  0  0  0  0  0  0
  -29.2935  -20.2076   18.7116 C   0  0  0  0  0  0  0  0  0  0  0  0
  -18.9674  -28.5241   22.4494 C   0  0  0  0  0  0  0  0  0  0  0  0
  -19.4871  -29.6570   23.0755 C   0  0  0  0  0  0  0  0  0  0  0  0
  -29.1907  -21.5488   20.7141 C   0  0  0  0  0  0  0  0  0  0  0  0
  -17.3908  -29.9792   24.2325 C   0  0  0  0  0  0  0  0  0  0  0  0
  -19.0723  -23.3760   22.7480 C   0  0  0  0  0  0  0  0  0  0  0  0
  -19.1448  -20.8797   23.2685 C   0  0  0  0  0  0  0  0  0  0  0  0
  -32.9831  -25.7761   14.4898 C   0  0  0  0  0  0  0  0  0  0  0  0
  -28.8097  -22.5820   18.5584 C   0  0  0  0  0  0  0  0  0  0  0  0
  -32.7231  -25.0499   15.6677 C   0  0  0  0  0  0  0  0  0  0  0  0
  -28.8922  -22.6899   19.9540 C   0  0  0  0  0  0  0  0  0  0  0  0
  -17.7772  -25.8073   22.3080 C   0  0  0  0  0  0  0  0  0  0  0  0
  -29.3919  -20.3150   20.0958 C   0  0  0  0  0  0  0  0  0  0  0  0
  -17.6593  -28.1188   22.7148 C   0  0  0  0  0  0  0  0  0  0  0  0
  -18.6988  -30.3845   23.9671 C   0  0  0  0  0  0  0  0  0  0  0  0
  -16.8710  -28.8464   23.6063 C   0  0  0  0  0  0  0  0  0  0  0  0
  -19.7417  -22.1203   22.9745 C   0  0  0  0  0  0  0  0  0  0  0  0
  -25.0457  -13.6979   20.6082 C   0  0  0  0  0  0  0  0  0  0  0  0
  -20.2015  -20.0110   23.3920 C   0  0  0  0  0  0  0  0  0  0  0  0
  -23.7149  -13.4255   20.3700 C   0  0  0  0  0  0  0  0  0  0  0  0
  -24.2290  -15.7006   20.9717 C   0  0  0  0  0  0  0  0  0  0  0  0
  -17.7591  -20.5427   23.4166 C   0  0  0  0  0  0  0  0  0  0  0  0
  -26.1408  -12.6933   20.5151 C   0  0  0  0  0  0  0  0  0  0  0  0
  -30.2741  -25.3994   18.4123 C   0  0  0  0  0  0  0  0  0  0  0  0
  -27.7855  -13.6643   22.2181 C   0  0  0  0  0  0  0  0  0  0  0  0
  -28.9409  -17.0190   21.4978 C   0  0  0  0  0  0  0  0  0  0  0  0
  -27.8069  -26.3414   20.2958 C   0  0  0  0  0  0  0  0  0  0  0  0
  -25.3759  -25.4812   22.5313 C   0  0  0  0  0  0  0  0  0  0  0  0
  -25.0742  -17.9845   21.6164 C   0  0  0  0  0  0  0  0  0  0  0  0
  -32.8797  -27.2801   14.4460 C   0  0  0  0  0  0  0  0  0  0  0  0
  -28.4672  -23.7831   17.7205 C   0  0  0  0  0  0  0  0  0  0  0  0
  -28.6768  -24.0017   20.6621 C   0  0  0  0  0  0  0  0  0  0  0  0
  -32.0731  -27.8690   15.6005 C   0  0  0  0  0  0  0  0  0  0  0  0
  -25.1780  -20.8950   23.6647 C   0  0  0  0  0  0  0  0  0  0  0  0
  -32.5020  -27.2447   16.9245 C   0  0  0  0  0  0  0  0  0  0  0  0
  -23.7238  -21.3712   23.6919 C   0  0  0  0  0  0  0  0  0  0  0  0
  -25.5620  -20.3229   22.3012 C   0  0  0  0  0  0  0  0  0  0  0  0
  -23.2146  -19.7495   21.8217 C   0  0  0  0  0  0  0  0  0  0  0  0
  -32.2449  -25.7329   16.9305 C   0  0  1  0  0  0  0  0  0  0  0  0
  -28.8008  -25.1046   18.4058 C   0  0  1  0  0  0  0  0  0  0  0  0
  -22.7622  -20.2743   23.1941 C   0  0  2  0  0  0  0  0  0  0  0  0
  -27.4955  -12.7493   23.3873 C   0  0  0  0  0  0  0  0  0  0  0  0
  -28.5656  -11.9816   20.5683 C   0  0  0  0  0  0  0  0  0  0  0  0
  -23.3783  -25.7658   24.0232 C   0  0  0  0  0  0  0  0  0  0  0  0
  -29.8802  -27.4185   22.2583 C   0  0  0  0  0  0  0  0  0  0  0  0
  -28.0809  -27.5184   23.9964 C   0  0  0  0  0  0  0  0  0  0  0  0
  -27.8909  -28.8973   21.9264 C   0  0  0  0  0  0  0  0  0  0  0  0
  -23.4986  -24.8461   20.3333 C   0  0  0  0  0  0  0  0  0  0  0  0
  -28.4518  -15.6408   21.1101 C   0  0  0  0  0  0  0  0  0  0  0  0
  -29.2402  -17.9546   20.3439 C   0  0  0  0  0  0  0  0  0  1  0  0
  -27.5779  -13.1255   20.8047 C   0  0  1  0  0  0  0  0  0  0  0  0
  -27.5577  -26.3952   21.7838 C   0  0  1  0  0  0  0  0  0  0  0  0
  -23.8990  -25.8260   22.5956 C   0  0  2  0  0  0  0  0  0  0  0  0
  -28.3585  -27.5328   22.4780 C   0  0  0  0  0  0  0  0  0  0  0  0
  -21.0742  -22.0502   22.9150 N   0  0  0  0  0  0  0  0  0  0  0  0
  -25.3425  -15.0021   20.9529 N   0  0  0  0  0  0  0  0  0  0  0  0
  -28.2155  -14.8736   22.3300 N   0  0  0  0  0  0  0  0  0  0  0  0
  -21.3234  -20.7551   23.1733 N   0  0  0  0  0  0  0  0  0  0  0  0
  -28.3504  -25.1485   19.7985 N   0  0  0  0  0  0  0  0  0  0  0  0
  -24.6093  -19.2869   21.8965 N   0  0  0  0  0  0  0  0  0  0  0  0
  -20.2711  -18.6908   23.6653 N   0  0  0  0  0  0  0  0  0  0  0  0
  -23.1491  -12.2448   20.0180 N   0  0  0  0  0  0  0  0  0  0  0  0
  -16.8043  -21.5561   23.2570 N   0  0  0  0  0  0  0  0  0  0  0  0
  -24.0732  -17.0762   21.2735 N   0  0  0  0  0  0  0  0  0  0  0  0
  -30.8413  -25.4599   17.1537 N   0  0  0  0  0  0  0  0  0  0  0  0
  -26.1119  -26.4933   21.9523 N   0  0  0  0  0  0  0  0  0  0  0  0
  -23.1080  -24.8733   21.7664 N   0  3  0  0  0  0  0  0  0  0  0  0
  -17.3798  -19.3808   23.6989 O   0  0  0  0  0  0  0  0  0  0  0  0
  -25.8533  -11.5402   20.1999 O   0  0  0  0  0  0  0  0  0  0  0  0
  -30.8532  -25.5615   19.4800 O   0  0  0  0  0  0  0  0  0  0  0  0
  -29.0886  -17.3653   22.6692 O   0  0  0  0  0  0  0  0  0  0  0  0
  -27.5228  -27.3191   19.5994 O   0  0  0  0  0  0  0  0  0  0  0  0
  -25.8317  -24.4217   22.9558 O   0  0  0  0  0  0  0  0  0  0  0  0
  -26.2690  -17.6894   21.7027 O   0  0  0  0  0  0  0  0  0  0  0  0
  -17.1451  -26.9934   22.0929 O   0  0  0  0  0  0  0  0  0  0  0  0
  -29.6791  -19.2163   20.8457 O   0  0  0  0  0  0  0  0  0  1  0  0
  -19.1986  -31.4715   24.5695 F   0  0  0  0  0  0  0  0  0  0  0  0
  -15.6141  -28.4612   23.8661 F   0  0  0  0  0  0  0  0  0  0  0  0
  -22.7881  -14.8524   20.5853 S   0  0  0  0  0  0  0  0  0  0  0  0
  1  2  1  0  0  0  0
  1  5  2  0  0  0  0
  2  6  2  0  0  0  0
  3  8  2  0  0  0  0
  3 15  1  0  0  0  0
  4  9  1  0  0  0  0
  4 15  2  0  0  0  0
  5 17  1  0  0  0  0
  6 19  1  0  0  0  0
  7 10  2  0  0  0  0
  7 18  1  0  0  0  0
  8 21  1  0  0  0  0
  9 21  2  0  0  0  0
 10 22  1  0  0  0  0
 11 12  2  0  0  0  0
 11 23  1  0  0  0  0
 12 24  1  0  0  0  0
 13 20  1  0  0  0  0
 13 22  2  0  0  0  0
 14 24  2  0  0  0  0
 14 25  1  0  0  0  0
 15 26  1  0  0  0  0
 16 26  1  0  0  0  0
 16 28  2  0  0  0  0
 16 31  1  0  0  0  0
 17 19  2  0  0  0  0
 17 39  1  0  0  0  0
 18 20  2  0  0  0  0
 18 40  1  0  0  0  0
 19 48  1  0  0  0  0
 20 41  1  0  0  0  0
 21 84  1  0  0  0  0
 22 85  1  0  0  0  0
 23 25  2  0  0  0  0
 23 84  1  0  0  0  0
 24 86  1  0  0  0  0
 25 87  1  0  0  0  0
 26 64  2  0  0  0  0
 27 29  2  0  0  0  0
 27 32  1  0  0  0  0
 27 65  1  0  0  0  0
 28 67  1  0  0  0  0
 28 70  1  0  0  0  0
 29 71  1  0  0  0  0
 29 88  1  0  0  0  0
 30 65  2  0  0  0  0
 30 73  1  0  0  0  0
 30 88  1  0  0  0  0
 31 72  1  0  0  0  0
 31 77  2  0  0  0  0
 32 60  1  0  0  0  0
 32 78  2  0  0  0  0
 33 49  1  0  0  0  0
 33 74  1  0  0  0  0
 33 79  2  0  0  0  0
 34 51  1  0  0  0  0
 34 60  1  0  0  0  0
 34 66  2  0  0  0  0
 35 58  1  0  0  0  0
 35 59  1  0  0  0  0
 35 80  2  0  0  0  0
 36 61  1  0  0  0  0
 36 68  1  0  0  0  0
 36 81  2  0  0  0  0
 37 62  1  0  0  0  0
 37 75  1  0  0  0  0
 37 82  2  0  0  0  0
 38 69  1  0  0  0  0
 38 73  1  0  0  0  0
 38 83  2  0  0  0  0
 39 42  1  0  0  0  0
 40 49  1  0  0  0  0
 41 68  1  0  0  0  0
 42 44  1  0  0  0  0
 43 45  1  0  0  0  0
 43 46  1  0  0  0  0
 44 48  1  0  0  0  0
 45 50  1  0  0  0  0
 46 69  1  0  0  0  0
 47 50  1  0  0  0  0
 47 69  1  0  0  0  0
 48 74  1  0  0  0  0
 49 68  1  0  0  0  0
 50 67  1  0  0  0  0
 52 60  1  0  0  0  0
 53 62  1  0  0  0  0
 54 63  1  0  0  0  0
 55 63  1  0  0  0  0
 56 63  1  0  0  0  0
 57 76  1  0  0  0  0
 58 66  1  0  0  0  0
 59 85  1  0  0  0  0
 61 63  1  0  0  0  0
 61 75  1  0  0  0  0
 62 76  1  0  0  0  0
 64 67  1  0  0  0  0
M  CHG  1  76   1
M  ISO  4  38 100  59 101  73 100  85 101
M  END
> <Batch ID>
0174

> <Smiles>
CNC(C)C(=O)NC(C(=O)N1Cc2cc([101O:1][101CH2:1]C(=O)CN=C(C)C(C)C(=O)c3nc([100NH:0][100C:0](=O)N4CCCC(n5nc(-c6ccc(Oc7ccc(F)cc7F)cc6)c(C(N)=O)c5N)C4)sc3N)ccc2CC1C(=O)NC1CCCc2ccccc21)C(C)(C)C

> <Shape>
0.209

> <Color>
0.066

> <Negative vol penalty>
0.000

$$$$

  -OEChem-04052304333D

 88 96  0     1  0  0  0  0  0999 V2000
  -20.5008  -20.4312   22.8389 C   0  0  0  0  0  0  0  0  0  0  0  0
  -21.2795  -20.7491   21.7307 C   0  0  0  0  0  0  0  0  0  0  0  0
  -25.7956  -14.0394   21.6586 C   0  0  0  0  0  0  0  0  0  0  0  0
  -24.9519  -14.9899   19.6039 C   0  0  0  0  0  0  0  0  0  0  0  0
  -19.7806  -21.4298   23.4930 C   0  0  0  0  0  0  0  0  0  0  0  0
  -21.3375  -22.0657   21.2753 C   0  0  0  0  0  0  0  0  0  0  0  0
  -26.1669  -24.8905   18.7847 C   0  0  0  0  0  0  0  0  0  0  0  0
  -24.7618  -13.1032   21.6500 C   0  0  0  0  0  0  0  0  0  0  0  0
  -23.9180  -14.0536   19.5953 C   0  0  0  0  0  0  0  0  0  0  0  0
  -26.5254  -25.1446   17.4616 C   0  0  0  0  0  0  0  0  0  0  0  0
  -24.0444  -10.1988   20.0743 C   0  0  0  0  0  0  0  0  0  0  0  0
  -24.3699   -8.8711   20.3516 C   0  0  0  0  0  0  0  0  0  0  0  0
  -25.5529  -27.3460   17.6272 C   0  0  0  0  0  0  0  0  0  0  0  0
  -22.8803   -8.9031   22.2535 C   0  0  0  0  0  0  0  0  0  0  0  0
  -29.7845  -24.3964   18.5658 C   0  0  0  0  0  0  0  0  0  0  0  0
  -25.8907  -14.9829   20.6355 C   0  0  0  0  0  0  0  0  0  0  0  0
  -28.2315  -15.8170   20.0591 C   0  0  0  0  0  0  0  0  0  0  0  0
  -19.8373  -22.7611   23.0512 C   0  0  0  0  0  0  0  0  0  0  0  0
  -25.4879  -25.8598   19.5369 C   0  0  0  0  0  0  0  0  0  0  0  0
  -20.6162  -23.0829   21.9233 C   0  0  0  0  0  0  0  0  0  0  0  0
  -25.1892  -27.1027   18.9605 C   0  0  0  0  0  0  0  0  0  0  0  0
  -30.0504  -23.0359   18.5037 C   0  0  0  0  0  0  0  0  0  0  0  0
  -30.7563  -22.5402   17.4117 C   0  0  0  0  0  0  0  0  0  0  0  0
  -23.8230  -13.1102   20.6184 C   0  0  0  0  0  0  0  0  0  0  0  0
  -26.2158  -26.3714   16.8817 C   0  0  0  0  0  0  0  0  0  0  0  0
  -23.1369  -10.8787   20.8867 C   0  0  0  0  0  0  0  0  0  0  0  0
  -23.7879   -8.2233   21.4412 C   0  0  0  0  0  0  0  0  0  0  0  0
  -22.5548  -10.2308   21.9762 C   0  0  0  0  0  0  0  0  0  0  0  0
  -31.1807  -23.4067   16.4089 C   0  0  0  0  0  0  0  0  0  0  0  0
  -26.9581  -15.9507   20.6441 C   0  0  0  0  0  0  0  0  0  0  0  0
  -30.8862  -24.7578   16.5240 C   0  0  0  0  0  0  0  0  0  0  0  0
  -28.8667  -17.0008   20.3449 C   0  0  0  0  0  0  0  0  0  0  0  0
  -28.7903  -14.7208   19.3231 C   0  0  0  0  0  0  0  0  0  0  0  0
  -22.6485  -26.0137   20.9573 C   0  0  0  0  0  0  0  0  0  0  0  0
  -23.7926  -28.8379   22.0697 C   0  0  0  0  0  0  0  0  0  0  0  0
  -29.5274  -25.8054   13.7396 C   0  0  0  0  0  0  0  0  0  0  0  0
  -25.9561  -31.4467   21.6696 C   0  0  0  0  0  0  0  0  0  0  0  0
  -28.8878  -22.5583   20.6869 C   0  0  0  0  0  0  0  0  0  0  0  0
  -19.0040  -23.7979   23.7618 C   0  0  0  0  0  0  0  0  0  0  0  0
  -25.1320  -25.5801   20.9713 C   0  0  0  0  0  0  0  0  0  0  0  0
  -24.4794  -28.1844   19.7316 C   0  0  0  0  0  0  0  0  0  0  0  0
  -19.4153  -25.2330   23.4430 C   0  0  0  0  0  0  0  0  0  0  0  0
  -27.5649  -20.7676   23.4655 C   0  0  0  0  0  0  0  0  0  0  0  0
  -19.6064  -25.4122   21.9403 C   0  0  0  0  0  0  0  0  0  0  0  0
  -27.3938  -19.3438   22.9311 C   0  0  0  0  0  0  0  0  0  0  0  0
  -27.2480  -21.8153   22.3998 C   0  0  0  0  0  0  0  0  0  0  0  0
  -27.8024  -20.2281   20.5991 C   0  0  0  0  0  0  0  0  0  0  0  0
  -20.7243  -24.5039   21.4141 C   0  0  1  0  0  0  0  0  0  0  0  0
  -23.9871  -26.4488   21.4831 C   0  0  1  0  0  0  0  0  0  0  0  0
  -28.1731  -19.1376   21.6174 C   0  0  2  0  0  0  0  0  0  0  0  0
  -32.2342  -26.8428   16.0468 C   0  0  0  0  0  0  0  0  0  0  0  0
  -26.6325  -33.6236   22.7188 C   0  0  0  0  0  0  0  0  0  0  0  0
  -25.2566  -24.8217   14.6980 C   0  0  0  0  0  0  0  0  0  0  0  0
  -21.2723  -30.1525   20.9608 C   0  0  0  0  0  0  0  0  0  0  0  0
  -22.4178  -32.3684   21.1752 C   0  0  0  0  0  0  0  0  0  0  0  0
  -21.9831  -30.9893   23.2078 C   0  0  0  0  0  0  0  0  0  0  0  0
  -28.7248  -30.5028   22.1197 C   0  0  0  0  0  0  0  0  0  0  0  0
  -28.3764  -26.6718   13.2556 C   0  0  0  0  0  0  0  0  0  0  0  0
  -27.0183  -25.9670   13.2966 C   0  0  0  0  0  0  0  0  0  0  0  0
  -31.3103  -25.7672   15.4791 C   0  0  2  0  0  0  0  0  0  0  0  0
  -23.7764  -30.2656   21.5793 C   0  0  1  0  0  0  0  0  0  0  0  0
  -26.9020  -32.1290   22.6413 C   0  0  2  0  0  0  0  0  0  0  0  0
  -26.6180  -25.5048   14.7039 C   0  0  1  0  0  0  0  0  0  1  0  0
  -22.3741  -30.9231   21.7154 C   0  0  0  0  0  0  0  0  0  0  0  0
  -26.7924  -17.1266   21.2555 N   0  0  0  0  0  0  0  0  0  0  0  0
  -27.9701  -17.7426   21.0563 N   0  0  0  0  0  0  0  0  0  0  0  0
  -30.2049  -25.2084   17.5862 N   0  3  0  0  0  0  0  0  0  0  0  0
  -24.1467  -27.8606   21.1287 N   0  0  0  0  0  0  0  0  0  0  0  0
  -28.0258  -21.5588   21.1857 N   0  0  0  0  0  0  0  0  0  0  0  0
  -31.0508  -21.1627   17.3042 N   0  0  0  0  0  0  0  0  0  0  0  0
  -30.0991  -17.4691   20.0547 N   0  0  0  0  0  0  0  0  0  0  0  0
  -28.0010  -13.5805   19.1206 N   0  0  0  0  0  0  0  0  0  0  0  0
  -29.6000  -22.1888   19.5464 N   0  0  0  0  0  0  0  0  0  0  0  0
  -22.0210  -25.0601   21.7359 N   0  0  0  0  0  0  0  0  0  0  0  0
  -30.1647  -26.3687   14.8355 N   0  0  0  0  0  0  0  0  0  0  0  0
  -24.8345  -30.9588   22.3061 N   0  0  0  0  0  0  0  0  0  0  0  0
  -28.3159  -31.9279   22.2154 N   0  3  0  0  0  0  0  0  0  0  0  0
  -29.9609  -14.7450   18.8729 O   0  0  0  0  0  0  0  0  0  0  0  0
  -22.2162  -26.5078   19.9225 O   0  0  0  0  0  0  0  0  0  0  0  0
  -23.5087  -28.5993   23.2461 O   0  0  0  0  0  0  0  0  0  0  0  0
  -29.8513  -24.7528   13.1964 O   0  0  0  0  0  0  0  0  0  0  0  0
  -26.1873  -31.3588   20.4657 O   0  0  0  0  0  0  0  0  0  0  0  0
  -29.0073  -23.6509   21.2471 O   0  0  0  0  0  0  0  0  0  0  0  0
  -22.8142  -12.1965   20.6096 O   0  0  0  0  0  0  0  0  0  0  0  0
  -26.5640  -26.6218   15.5902 O   0  0  0  0  0  0  0  0  0  1  0  0
  -24.0994   -6.9478   21.7064 F   0  0  0  0  0  0  0  0  0  0  0  0
  -21.6814  -10.8785   22.7595 F   0  0  0  0  0  0  0  0  0  0  0  0
  -31.8619  -22.9480   15.3495 F   0  0  0  0  0  0  0  0  0  0  0  0
  1  2  1  0  0  0  0
  1  5  2  0  0  0  0
  2  6  2  0  0  0  0
  3  8  2  0  0  0  0
  3 16  1  0  0  0  0
  4  9  1  0  0  0  0
  4 16  2  0  0  0  0
  5 18  1  0  0  0  0
  6 20  1  0  0  0  0
  7 10  2  0  0  0  0
  7 19  1  0  0  0  0
  8 24  1  0  0  0  0
  9 24  2  0  0  0  0
 10 25  1  0  0  0  0
 11 12  2  0  0  0  0
 11 26  1  0  0  0  0
 12 27  1  0  0  0  0
 13 21  1  0  0  0  0
 13 25  2  0  0  0  0
 14 27  2  0  0  0  0
 14 28  1  0  0  0  0
 15 22  1  0  0  0  0
 15 67  2  0  0  0  0
 16 30  1  0  0  0  0
 17 30  1  0  0  0  0
 17 32  2  0  0  0  0
 17 33  1  0  0  0  0
 18 20  2  0  0  0  0
 18 39  1  0  0  0  0
 19 21  2  0  0  0  0
 19 40  1  0  0  0  0
 20 48  1  0  0  0  0
 21 41  1  0  0  0  0
 22 23  2  0  0  0  0
 22 73  1  0  0  0  0
 23 29  1  0  0  0  0
 23 70  1  0  0  0  0
 24 84  1  0  0  0  0
 25 85  1  0  0  0  0
 26 28  2  0  0  0  0
 26 84  1  0  0  0  0
 27 86  1  0  0  0  0
 28 87  1  0  0  0  0
 29 31  2  0  0  0  0
 29 88  1  0  0  0  0
 30 65  2  0  0  0  0
 31 60  1  0  0  0  0
 31 67  1  0  0  0  0
 32 66  1  0  0  0  0
 32 71  1  0  0  0  0
 33 72  1  0  0  0  0
 33 78  2  0  0  0  0
 34 49  1  0  0  0  0
 34 74  1  0  0  0  0
 34 79  2  0  0  0  0
 35 61  1  0  0  0  0
 35 68  1  0  0  0  0
 35 80  2  0  0  0  0
 36 58  1  0  0  0  0
 36 75  1  0  0  0  0
 36 81  2  0  0  0  0
 37 62  1  0  0  0  0
 37 76  1  0  0  0  0
 37 82  2  0  0  0  0
 38 69  1  0  0  0  0
 38 73  1  0  0  0  0
 38 83  2  0  0  0  0
 39 42  1  0  0  0  0
 40 49  1  0  0  0  0
 41 68  1  0  0  0  0
 42 44  1  0  0  0  0
 43 45  1  0  0  0  0
 43 46  1  0  0  0  0
 44 48  1  0  0  0  0
 45 50  1  0  0  0  0
 46 69  1  0  0  0  0
 47 50  1  0  0  0  0
 47 69  1  0  0  0  0
 48 74  1  0  0  0  0
 49 68  1  0  0  0  0
 50 66  1  0  0  0  0
 51 60  1  0  0  0  0
 52 62  1  0  0  0  0
 53 63  1  0  0  0  0
 54 64  1  0  0  0  0
 55 64  1  0  0  0  0
 56 64  1  0  0  0  0
 57 77  1  0  0  0  0
 58 59  1  0  0  0  0
 59 63  1  0  0  0  0
 60 75  1  0  0  0  0
 61 64  1  0  0  0  0
 61 76  1  0  0  0  0
 62 77  1  0  0  0  0
 63 85  1  0  0  0  0
 65 66  1  0  0  0  0
M  CHG  2  67   1  77   1
M  ISO  4  38 100  63 101  73 100  85 101
M  END
> <Batch ID>
0174

> <Smiles>
CNC(C)C(=O)NC(C(=O)N1Cc2cc([101O:1][101CH:1](C)CCC(=O)NC(C)c3ncc([100NH:0][100C:0](=O)N4CCCC(n5nc(-c6ccc(Oc7ccc(F)cc7F)cc6)c(C(N)=O)c5N)C4)c(N)c3F)ccc2CC1C(=O)NC1CCCc2ccccc21)C(C)(C)C

> <Shape>
0.242

> <Color>
0.050

> <Negative vol penalty>
0.000

$$$$

  -OEChem-04052304333D

 92101  0     1  0  0  0  0  0999 V2000
  -27.9087  -10.5243   18.7746 C   0  0  0  0  0  0  0  0  0  0  0  0
  -28.3210  -11.8134   18.4529 C   0  0  0  0  0  0  0  0  0  0  0  0
  -20.4419  -22.1814   19.4337 C   0  0  0  0  0  0  0  0  0  0  0  0
  -22.4375  -22.1987   20.7954 C   0  0  0  0  0  0  0  0  0  0  0  0
  -26.7596  -10.3319   19.5404 C   0  0  0  0  0  0  0  0  0  0  0  0
  -27.5839  -12.9110   18.8961 C   0  0  0  0  0  0  0  0  0  0  0  0
  -29.7702  -18.3827   20.5654 C   0  0  0  0  0  0  0  0  0  0  0  0
  -21.1223  -21.4702   18.4455 C   0  0  0  0  0  0  0  0  0  0  0  0
  -23.1180  -21.4873   19.8071 C   0  0  0  0  0  0  0  0  0  0  0  0
  -29.8731  -19.5976   19.8894 C   0  0  0  0  0  0  0  0  0  0  0  0
  -24.5968  -22.1417   16.8380 C   0  0  0  0  0  0  0  0  0  0  0  0
  -25.8803  -22.5697   16.4990 C   0  0  0  0  0  0  0  0  0  0  0  0
  -27.8014  -20.3230   20.8898 C   0  0  0  0  0  0  0  0  0  0  0  0
  -24.3897  -31.6837   24.5872 C   0  0  0  0  0  0  0  0  0  0  0  0
  -25.1214  -29.5470   23.7296 C   0  0  0  0  0  0  0  0  0  0  0  0
  -26.3135  -31.5613   23.1308 C   0  0  0  0  0  0  0  0  0  0  0  0
  -26.7692  -20.4193   17.1490 C   0  0  0  0  0  0  0  0  0  0  0  0
  -29.9586  -29.1093   19.9919 C   0  0  0  0  0  0  0  0  0  0  0  0
  -30.1492  -26.8996   19.4347 C   0  0  0  0  0  0  0  0  0  0  0  0
  -21.0995  -22.5458   20.6087 C   0  0  0  0  0  0  0  0  0  0  0  0
  -19.6659  -22.7499   22.7088 C   0  0  0  0  0  0  0  0  0  0  0  0
  -26.0133  -11.4279   20.0013 C   0  0  0  0  0  0  0  0  0  0  0  0
  -28.6746  -18.1240   21.4017 C   0  0  0  0  0  0  0  0  0  0  0  0
  -26.4230  -12.7330   19.6677 C   0  0  0  0  0  0  0  0  0  0  0  0
  -27.6881  -19.1049   21.5773 C   0  0  0  0  0  0  0  0  0  0  0  0
  -24.2362  -30.3001   24.5009 C   0  0  0  0  0  0  0  0  0  0  0  0
  -25.4283  -32.3144   23.9021 C   0  0  0  0  0  0  0  0  0  0  0  0
  -26.1601  -30.1776   23.0445 C   0  0  0  0  0  0  0  0  0  0  0  0
  -22.4603  -21.1230   18.6322 C   0  0  0  0  0  0  0  0  0  0  0  0
  -28.8872  -20.5669   20.0492 C   0  0  0  0  0  0  0  0  0  0  0  0
  -24.3995  -20.8525   17.3327 C   0  0  0  0  0  0  0  0  0  0  0  0
  -26.9665  -21.7085   16.6544 C   0  0  0  0  0  0  0  0  0  0  0  0
  -25.4857  -19.9913   17.4881 C   0  0  0  0  0  0  0  0  0  0  0  0
  -20.3974  -23.2810   21.6297 C   0  0  0  0  0  0  0  0  0  0  0  0
  -28.8632  -28.8175   20.7744 C   0  0  0  0  0  0  0  0  0  0  0  0
  -29.0542  -26.6076   20.2178 C   0  0  0  0  0  0  0  0  0  0  0  0
  -19.1980  -23.8518   23.3821 C   0  0  0  0  0  0  0  0  0  0  0  0
  -19.4304  -21.3826   23.0704 C   0  0  0  0  0  0  0  0  0  0  0  0
  -28.1581  -29.8537   21.5041 C   0  0  0  0  0  0  0  0  0  0  0  0
  -26.3255  -15.9828   21.4233 C   0  0  0  0  0  0  0  0  0  0  0  0
  -25.6317  -17.3493   24.2823 C   0  0  0  0  0  0  0  0  0  0  0  0
  -29.1765  -24.1549   19.6673 C   0  0  0  0  0  0  0  0  0  0  0  0
  -25.8456  -20.0821   26.3153 C   0  0  0  0  0  0  0  0  0  0  0  0
  -21.1200  -29.5088   23.7764 C   0  0  0  0  0  0  0  0  0  0  0  0
  -24.7519  -11.1687   20.7863 C   0  0  0  0  0  0  0  0  0  0  0  0
  -28.5919  -16.8189   22.1447 C   0  0  0  0  0  0  0  0  0  0  0  0
  -26.5024  -18.8845   22.4794 C   0  0  0  0  0  0  0  0  0  0  0  0
  -24.2357  -12.3963   21.5325 C   0  0  0  0  0  0  0  0  0  0  0  0
  -17.9184  -28.4074   22.6751 C   0  0  0  0  0  0  0  0  0  0  0  0
  -24.2417  -13.6179   20.6189 C   0  0  0  0  0  0  0  0  0  0  0  0
  -18.1246  -26.9208   22.3796 C   0  0  0  0  0  0  0  0  0  0  0  0
  -19.1481  -29.2328   22.3027 C   0  0  0  0  0  0  0  0  0  0  0  0
  -20.6186  -27.2784   22.6059 C   0  0  0  0  0  0  0  0  0  0  0  0
  -25.6638  -13.9497   20.1508 C   0  0  1  0  0  0  0  0  0  0  0  0
  -27.1707  -16.4622   22.5694 C   0  0  1  0  0  0  0  0  0  0  0  0
  -19.4261  -26.3978   23.0168 C   0  0  2  0  0  0  0  0  0  0  0  0
  -25.1498  -20.9127   28.5787 C   0  0  0  0  0  0  0  0  0  0  0  0
  -22.7877  -17.7579   23.2554 C   0  0  0  0  0  0  0  0  0  0  0  0
  -22.4248  -19.3924   25.1168 C   0  0  0  0  0  0  0  0  0  0  0  0
  -22.9394  -17.0074   25.6362 C   0  0  0  0  0  0  0  0  0  0  0  0
  -28.6545  -20.4499   27.1719 C   0  0  0  0  0  0  0  0  0  0  0  0
  -23.1257  -29.6260   25.2334 C   0  0  0  0  0  0  0  0  0  0  0  0
  -28.4064  -22.8958   20.0197 C   0  0  0  0  0  0  0  0  0  1  0  0
  -24.7684  -18.5021   24.7348 C   0  0  1  0  0  0  0  0  0  0  0  0
  -26.2410  -20.2238   27.7741 C   0  0  2  0  0  0  0  0  0  0  0  0
  -23.2513  -18.1686   24.6672 C   0  0  0  0  0  0  0  0  0  0  0  0
  -30.6213  -28.1556   19.3080 N   0  0  0  0  0  0  0  0  0  0  0  0
  -20.3970  -24.6166   21.6142 N   0  0  0  0  0  0  0  0  0  0  0  0
  -28.3913  -27.5614   20.9015 N   0  0  0  0  0  0  0  0  0  0  0  0
  -19.6595  -24.9339   22.6919 N   0  0  0  0  0  0  0  0  0  0  0  0
  -26.4632  -17.5898   23.1793 N   0  0  0  0  0  0  0  0  0  0  0  0
  -20.3479  -28.6853   22.9405 N   0  0  0  0  0  0  0  0  0  0  0  0
  -25.5831  -33.7139   23.9896 N   0  0  0  0  0  0  0  0  0  0  0  0
  -18.4410  -23.9911   24.4911 N   0  0  0  0  0  0  0  0  0  0  0  0
  -19.9846  -20.3747   22.2696 N   0  0  0  0  0  0  0  0  0  0  0  0
  -27.0598  -29.4116   22.2611 N   0  0  0  0  0  0  0  0  0  0  0  0
  -28.6208  -25.2629   20.2978 N   0  0  0  0  0  0  0  0  0  0  0  0
  -26.3982  -14.6208   21.2018 N   0  0  0  0  0  0  0  0  0  0  0  0
  -25.2411  -18.8682   26.0656 N   0  0  0  0  0  0  0  0  0  0  0  0
  -22.2369  -28.9096   24.3459 N   0  0  0  0  0  0  0  0  0  0  0  0
  -27.4918  -21.0247   27.8963 N   0  3  0  0  0  0  0  0  0  0  0  0
  -18.7350  -21.0639   24.0647 O   0  0  0  0  0  0  0  0  0  0  0  0
  -28.4883  -31.0477   21.4302 O   0  0  0  0  0  0  0  0  0  0  0  0
  -25.6558  -16.7887   20.7880 O   0  0  0  0  0  0  0  0  0  0  0  0
  -25.5757  -16.2771   24.8897 O   0  0  0  0  0  0  0  0  0  0  0  0
  -30.1487  -24.1254   18.9199 O   0  0  0  0  0  0  0  0  0  0  0  0
  -26.0491  -20.9618   25.4815 O   0  0  0  0  0  0  0  0  0  0  0  0
  -20.8323  -30.6890   24.0029 O   0  0  0  0  0  0  0  0  0  0  0  0
  -23.1245  -20.4287   17.6681 O   0  0  0  0  0  0  0  0  0  0  0  0
  -28.9849  -21.7533   19.3900 O   0  0  0  0  0  0  0  0  0  1  0  0
  -28.1988  -22.1192   16.3273 F   0  0  0  0  0  0  0  0  0  0  0  0
  -25.3022  -18.7512   17.9617 F   0  0  0  0  0  0  0  0  0  0  0  0
  1  2  1  0  0  0  0
  1  5  2  0  0  0  0
  2  6  2  0  0  0  0
  3  8  2  0  0  0  0
  3 20  1  0  0  0  0
  4  9  1  0  0  0  0
  4 20  2  0  0  0  0
  5 22  1  0  0  0  0
  6 24  1  0  0  0  0
  7 10  2  0  0  0  0
  7 23  1  0  0  0  0
  8 29  1  0  0  0  0
  9 29  2  0  0  0  0
 10 30  1  0  0  0  0
 11 12  2  0  0  0  0
 11 31  1  0  0  0  0
 12 32  1  0  0  0  0
 13 25  1  0  0  0  0
 13 30  2  0  0  0  0
 14 26  2  0  0  0  0
 14 27  1  0  0  0  0
 15 26  1  0  0  0  0
 15 28  2  0  0  0  0
 16 27  2  0  0  0  0
 16 28  1  0  0  0  0
 17 32  2  0  0  0  0
 17 33  1  0  0  0  0
 18 35  2  0  0  0  0
 18 67  1  0  0  0  0
 19 36  1  0  0  0  0
 19 67  2  0  0  0  0
 20 34  1  0  0  0  0
 21 34  1  0  0  0  0
 21 37  2  0  0  0  0
 21 38  1  0  0  0  0
 22 24  2  0  0  0  0
 22 45  1  0  0  0  0
 23 25  2  0  0  0  0
 23 46  1  0  0  0  0
 24 54  1  0  0  0  0
 25 47  1  0  0  0  0
 26 62  1  0  0  0  0
 27 73  1  0  0  0  0
 28 76  1  0  0  0  0
 29 89  1  0  0  0  0
 30 90  1  0  0  0  0
 31 33  2  0  0  0  0
 31 89  1  0  0  0  0
 32 91  1  0  0  0  0
 33 92  1  0  0  0  0
 34 68  2  0  0  0  0
 35 39  1  0  0  0  0
 35 69  1  0  0  0  0
 36 69  2  0  0  0  0
 36 77  1  0  0  0  0
 37 70  1  0  0  0  0
 37 74  1  0  0  0  0
 38 75  1  0  0  0  0
 38 82  2  0  0  0  0
 39 76  1  0  0  0  0
 39 83  2  0  0  0  0
 40 55  1  0  0  0  0
 40 78  1  0  0  0  0
 40 84  2  0  0  0  0
 41 64  1  0  0  0  0
 41 71  1  0  0  0  0
 41 85  2  0  0  0  0
 42 63  1  0  0  0  0
 42 77  1  0  0  0  0
 42 86  2  0  0  0  0
 43 65  1  0  0  0  0
 43 79  1  0  0  0  0
 43 87  2  0  0  0  0
 44 72  1  0  0  0  0
 44 80  1  0  0  0  0
 44 88  2  0  0  0  0
 45 48  1  0  0  0  0
 46 55  1  0  0  0  0
 47 71  1  0  0  0  0
 48 50  1  0  0  0  0
 49 51  1  0  0  0  0
 49 52  1  0  0  0  0
 50 54  1  0  0  0  0
 51 56  1  0  0  0  0
 52 72  1  0  0  0  0
 53 56  1  0  0  0  0
 53 72  1  0  0  0  0
 54 78  1  0  0  0  0
 55 71  1  0  0  0  0
 56 70  1  0  0  0  0
 57 65  1  0  0  0  0
 58 66  1  0  0  0  0
 59 66  1  0  0  0  0
 60 66  1  0  0  0  0
 61 81  1  0  0  0  0
 62 80  1  0  0  0  0
 63 90  1  0  0  0  0
 64 66  1  0  0  0  0
 64 79  1  0  0  0  0
 65 81  1  0  0  0  0
 68 70  1  0  0  0  0
M  CHG  1  81   1
M  ISO  4  44 100  63 101  80 100  90 101
M  END
> <Batch ID>
0174

> <Smiles>
CNC(C)C(=O)NC(C(=O)N1Cc2cc([101O:1][101CH2:1]C(=O)Nc3cncc(C(=O)Nc4cc(N)cc(C[100NH:0][100C:0](=O)N5CCCC(n6nc(-c7ccc(Oc8ccc(F)cc8F)cc7)c(C(N)=O)c6N)C5)c4)n3)ccc2CC1C(=O)NC1CCCc2ccccc21)C(C)(C)C

> <Shape>
0.234

> <Color>
0.063

> <Negative vol penalty>
0.000

$$$$

  -OEChem-04052304333D

 89 97  0     1  0  0  0  0  0999 V2000
  -22.4758  -39.7266   21.9504 C   0  0  0  0  0  0  0  0  0  0  0  0
  -23.2769  -39.1177   20.9896 C   0  0  0  0  0  0  0  0  0  0  0  0
  -24.6683   -9.9106   21.9991 C   0  0  0  0  0  0  0  0  0  0  0  0
  -24.6893  -11.2896   23.9828 C   0  0  0  0  0  0  0  0  0  0  0  0
  -22.5967  -39.3612   23.2905 C   0  0  0  0  0  0  0  0  0  0  0  0
  -24.2001  -38.1439   21.3686 C   0  0  0  0  0  0  0  0  0  0  0  0
  -27.2672  -32.1277   18.9781 C   0  0  0  0  0  0  0  0  0  0  0  0
  -24.3344   -8.8003   22.7745 C   0  0  0  0  0  0  0  0  0  0  0  0
  -24.3553  -10.1793   24.7582 C   0  0  0  0  0  0  0  0  0  0  0  0
  -28.5278  -31.5619   18.7916 C   0  0  0  0  0  0  0  0  0  0  0  0
  -21.5650   -7.5248   24.2362 C   0  0  0  0  0  0  0  0  0  0  0  0
  -20.5529   -6.6874   23.7672 C   0  0  0  0  0  0  0  0  0  0  0  0
  -27.1479  -21.6103   21.4453 C   0  0  0  0  0  0  0  0  0  0  0  0
  -28.5936  -30.9543   21.1252 C   0  0  0  0  0  0  0  0  0  0  0  0
  -29.6008  -20.3040   21.2017 C   0  0  0  0  0  0  0  0  0  0  0  0
  -22.1069   -4.8382   23.7152 C   0  0  0  0  0  0  0  0  0  0  0  0
  -24.8458  -11.1553   22.6032 C   0  0  0  0  0  0  0  0  0  0  0  0
  -28.3352  -22.3110   21.6571 C   0  0  0  0  0  0  0  0  0  0  0  0
  -24.3059  -13.2056   21.1846 C   0  0  0  0  0  0  0  0  0  0  0  0
  -23.5151  -38.3754   23.6848 C   0  0  0  0  0  0  0  0  0  0  0  0
  -26.6641  -32.1206   20.2440 C   0  0  0  0  0  0  0  0  0  0  0  0
  -24.3344  -37.7659   22.7154 C   0  0  0  0  0  0  0  0  0  0  0  0
  -27.3243  -31.5183   21.3245 C   0  0  0  0  0  0  0  0  0  0  0  0
  -28.4135  -19.6033   20.9900 C   0  0  0  0  0  0  0  0  0  0  0  0
  -24.1778   -8.9346   24.1540 C   0  0  0  0  0  0  0  0  0  0  0  0
  -29.1924  -30.9777   19.8658 C   0  0  0  0  0  0  0  0  0  0  0  0
  -22.8481   -7.0190   24.4446 C   0  0  0  0  0  0  0  0  0  0  0  0
  -20.8238   -5.3441   23.5068 C   0  0  0  0  0  0  0  0  0  0  0  0
  -27.1870  -20.2564   21.1118 C   0  0  0  0  0  0  0  0  0  0  0  0
  -29.5617  -21.6579   21.5353 C   0  0  0  0  0  0  0  0  0  0  0  0
  -23.1191   -5.6757   24.1841 C   0  0  0  0  0  0  0  0  0  0  0  0
  -25.1914  -12.3025   21.8029 C   0  0  0  0  0  0  0  0  0  0  0  0
  -25.1238  -14.1080   20.5496 C   0  0  0  0  0  0  0  0  0  0  0  0
  -28.2908  -23.7449   22.0102 C   0  0  0  0  0  0  0  0  0  0  0  0
  -22.8723  -13.2269   21.1844 C   0  0  0  0  0  0  0  0  0  0  0  0
  -25.7043  -34.3615   22.2839 C   0  0  0  0  0  0  0  0  0  0  0  0
  -24.5320  -31.8183   23.9210 C   0  0  0  0  0  0  0  0  0  0  0  0
  -28.9597  -26.0496   21.3634 C   0  0  0  0  0  0  0  0  0  0  0  0
  -24.6886  -28.4727   24.5765 C   0  0  0  0  0  0  0  0  0  0  0  0
  -29.5901  -17.4324   20.4909 C   0  0  0  0  0  0  0  0  0  0  0  0
  -23.6431  -38.0475   25.1513 C   0  0  0  0  0  0  0  0  0  0  0  0
  -25.2924  -32.7113   20.4228 C   0  0  0  0  0  0  0  0  0  0  0  0
  -26.7113  -31.4667   22.6993 C   0  0  0  0  0  0  0  0  0  0  0  0
  -24.3824  -36.7394   25.4207 C   0  0  0  0  0  0  0  0  0  0  0  0
  -30.1122  -14.0009   19.6976 C   0  0  0  0  0  0  0  0  0  0  0  0
  -25.6545  -36.6628   24.5825 C   0  0  0  0  0  0  0  0  0  0  0  0
  -28.8057  -13.3274   20.1237 C   0  0  0  0  0  0  0  0  0  0  0  0
  -30.5063  -15.1280   20.6505 C   0  0  0  0  0  0  0  0  0  0  0  0
  -28.1569  -15.4610   21.3127 C   0  0  0  0  0  0  0  0  0  0  0  0
  -25.3301  -36.6876   23.0839 C   0  0  1  0  0  0  0  0  0  0  0  0
  -24.9947  -33.1045   21.8665 C   0  0  1  0  0  0  0  0  0  0  0  0
  -27.6851  -14.3619   20.3469 C   0  0  2  0  0  0  0  0  0  0  0  0
  -23.6273  -26.6902   25.9885 C   0  0  0  0  0  0  0  0  0  0  0  0
  -26.0625  -32.8389   26.3554 C   0  0  0  0  0  0  0  0  0  0  0  0
  -25.7548  -30.5873   27.4059 C   0  0  0  0  0  0  0  0  0  0  0  0
  -23.7647  -31.9850   26.8505 C   0  0  0  0  0  0  0  0  0  0  0  0
  -31.9481  -28.6799   19.1905 C   0  0  0  0  0  0  0  0  0  0  0  0
  -29.7576  -28.8913   17.9830 C   0  0  0  0  0  0  0  0  0  0  0  0
  -23.7838  -26.9635   22.1969 C   0  0  0  0  0  0  0  0  0  0  0  0
  -29.7194  -26.7395   20.2540 C   0  0  0  0  0  0  0  0  0  0  0  0
  -29.7768  -28.2530   20.4557 C   0  0  0  0  0  0  0  0  0  0  0  0
  -25.0705  -30.8900   24.9829 C   0  0  1  0  0  0  0  0  0  0  0  0
  -23.6082  -27.4087   24.6483 C   0  0  2  0  0  0  0  0  0  0  0  0
  -25.1758  -31.5778   26.3733 C   0  0  0  0  0  0  0  0  0  0  0  0
  -30.4696  -29.0448   19.3285 C   0  0  0  0  0  0  0  0  0  1  0  0
  -26.4735  -12.6036   21.5806 N   0  0  0  0  0  0  0  0  0  0  0  0
  -26.3997  -13.7060   20.8155 N   0  0  0  0  0  0  0  0  0  0  0  0
  -25.3712  -32.0633   22.8249 N   0  0  0  0  0  0  0  0  0  0  0  0
  -29.3976  -16.0716   20.8101 N   0  0  0  0  0  0  0  0  0  0  0  0
  -24.8688  -15.1981   19.7953 N   0  0  0  0  0  0  0  0  0  0  0  0
  -22.1891  -12.2250   21.8872 N   0  0  0  0  0  0  0  0  0  0  0  0
  -28.4562  -18.2281   20.6512 N   0  0  0  0  0  0  0  0  0  0  0  0
  -28.8944  -24.6165   21.1903 N   0  0  0  0  0  0  0  0  0  0  0  0
  -24.8575  -35.3911   22.6476 N   0  0  0  0  0  0  0  0  0  0  0  0
  -24.2151  -29.7084   24.9640 N   0  0  0  0  0  0  0  0  0  0  0  0
  -27.6529  -24.0888   23.1286 N   0  3  0  0  0  0  0  0  0  0  0  0
  -23.8039  -26.3983   23.5705 N   0  3  0  0  0  0  0  0  0  0  0  0
  -22.2164  -14.0987   20.5654 O   0  0  0  0  0  0  0  0  0  0  0  0
  -26.9292  -34.3942   22.2778 O   0  0  0  0  0  0  0  0  0  0  0  0
  -23.4054  -32.3022   24.0556 O   0  0  0  0  0  0  0  0  0  0  0  0
  -28.4413  -26.6031   22.3220 O   0  0  0  0  0  0  0  0  0  0  0  0
  -25.8386  -28.2311   24.2165 O   0  0  0  0  0  0  0  0  0  0  0  0
  -30.6730  -17.8553   20.0780 O   0  0  0  0  0  0  0  0  0  0  0  0
  -23.8517   -7.8514   24.9109 O   0  0  0  0  0  0  0  0  0  0  0  0
  -30.4231  -30.4253   19.6867 O   0  0  0  0  0  0  0  0  0  1  0  0
  -19.8514   -4.5397   23.0579 F   0  0  0  0  0  0  0  0  0  0  0  0
  -26.0394  -19.5927   20.9108 F   0  0  0  0  0  0  0  0  0  0  0  0
  -30.7080  -22.3227   21.7370 F   0  0  0  0  0  0  0  0  0  0  0  0
  -24.3495   -5.1837   24.3836 F   0  0  0  0  0  0  0  0  0  0  0  0
  1  2  1  0  0  0  0
  1  5  2  0  0  0  0
  2  6  2  0  0  0  0
  3  8  2  0  0  0  0
  3 17  1  0  0  0  0
  4  9  1  0  0  0  0
  4 17  2  0  0  0  0
  5 20  1  0  0  0  0
  6 22  1  0  0  0  0
  7 10  2  0  0  0  0
  7 21  1  0  0  0  0
  8 25  1  0  0  0  0
  9 25  2  0  0  0  0
 10 26  1  0  0  0  0
 11 12  2  0  0  0  0
 11 27  1  0  0  0  0
 12 28  1  0  0  0  0
 13 18  1  0  0  0  0
 13 29  2  0  0  0  0
 14 23  1  0  0  0  0
 14 26  2  0  0  0  0
 15 24  2  0  0  0  0
 15 30  1  0  0  0  0
 16 28  2  0  0  0  0
 16 31  1  0  0  0  0
 17 32  1  0  0  0  0
 18 30  2  0  0  0  0
 18 34  1  0  0  0  0
 19 32  1  0  0  0  0
 19 33  2  0  0  0  0
 19 35  1  0  0  0  0
 20 22  2  0  0  0  0
 20 41  1  0  0  0  0
 21 23  2  0  0  0  0
 21 42  1  0  0  0  0
 22 50  1  0  0  0  0
 23 43  1  0  0  0  0
 24 29  1  0  0  0  0
 24 72  1  0  0  0  0
 25 84  1  0  0  0  0
 26 85  1  0  0  0  0
 27 31  2  0  0  0  0
 27 84  1  0  0  0  0
 28 86  1  0  0  0  0
 29 87  1  0  0  0  0
 30 88  1  0  0  0  0
 31 89  1  0  0  0  0
 32 66  2  0  0  0  0
 33 67  1  0  0  0  0
 33 70  1  0  0  0  0
 34 73  1  0  0  0  0
 34 76  2  0  0  0  0
 35 71  1  0  0  0  0
 35 78  2  0  0  0  0
 36 51  1  0  0  0  0
 36 74  1  0  0  0  0
 36 79  2  0  0  0  0
 37 62  1  0  0  0  0
 37 68  1  0  0  0  0
 37 80  2  0  0  0  0
 38 60  1  0  0  0  0
 38 73  1  0  0  0  0
 38 81  2  0  0  0  0
 39 63  1  0  0  0  0
 39 75  1  0  0  0  0
 39 82  2  0  0  0  0
 40 69  1  0  0  0  0
 40 72  1  0  0  0  0
 40 83  2  0  0  0  0
 41 44  1  0  0  0  0
 42 51  1  0  0  0  0
 43 68  1  0  0  0  0
 44 46  1  0  0  0  0
 45 47  1  0  0  0  0
 45 48  1  0  0  0  0
 46 50  1  0  0  0  0
 47 52  1  0  0  0  0
 48 69  1  0  0  0  0
 49 52  1  0  0  0  0
 49 69  1  0  0  0  0
 50 74  1  0  0  0  0
 51 68  1  0  0  0  0
 52 67  1  0  0  0  0
 53 63  1  0  0  0  0
 54 64  1  0  0  0  0
 55 64  1  0  0  0  0
 56 64  1  0  0  0  0
 57 65  1  0  0  0  0
 58 65  1  0  0  0  0
 59 77  1  0  0  0  0
 60 61  1  0  0  0  0
 61 65  1  0  0  0  0
 62 64  1  0  0  0  0
 62 75  1  0  0  0  0
 63 77  1  0  0  0  0
 65 85  1  0  0  0  0
 66 67  1  0  0  0  0
M  CHG  2  76   1  77   1
M  ISO  4  40 100  65 101  72 100  85 101
M  END
> <Batch ID>
0174

> <Smiles>
CNC(C)C(=O)NC(C(=O)N1Cc2cc([101O:1][101C:1](C)(C)CCC(=O)NC(=N)c3cc(F)c([100NH:0][100C:0](=O)N4CCCC(n5nc(-c6ccc(Oc7ccc(F)cc7F)cc6)c(C(N)=O)c5N)C4)cc3F)ccc2CC1C(=O)NC1CCCc2ccccc21)C(C)(C)C

> <Shape>
0.282

> <Color>
0.114

> <Negative vol penalty>
0.000

$$$$

  -OEChem-04052304333D

 88 96  0     1  0  0  0  0  0999 V2000
  -19.3196  -24.6570   20.3704 C   0  0  0  0  0  0  0  0  0  0  0  0
  -20.2843  -24.3327   21.3188 C   0  0  0  0  0  0  0  0  0  0  0  0
  -23.0229   -9.9433   19.9218 C   0  0  0  0  0  0  0  0  0  0  0  0
  -23.8847   -9.7929   22.1739 C   0  0  0  0  0  0  0  0  0  0  0  0
  -18.6615  -25.8842   20.4385 C   0  0  0  0  0  0  0  0  0  0  0  0
  -20.5923  -25.2360   22.3354 C   0  0  0  0  0  0  0  0  0  0  0  0
  -20.9361  -23.0121   26.8721 C   0  0  0  0  0  0  0  0  0  0  0  0
  -22.2714   -8.7872   20.1322 C   0  0  0  0  0  0  0  0  0  0  0  0
  -23.1332   -8.6368   22.3843 C   0  0  0  0  0  0  0  0  0  0  0  0
  -22.1084  -22.3106   27.1501 C   0  0  0  0  0  0  0  0  0  0  0  0
  -19.9221   -7.8480   23.0822 C   0  0  0  0  0  0  0  0  0  0  0  0
  -19.2177   -7.7441   24.2817 C   0  0  0  0  0  0  0  0  0  0  0  0
  -22.9250  -24.1911   28.4214 C   0  0  0  0  0  0  0  0  0  0  0  0
  -32.2315  -16.3766   22.5377 C   0  0  0  0  0  0  0  0  0  0  0  0
  -30.0904  -17.2166   23.2773 C   0  0  0  0  0  0  0  0  0  0  0  0
  -20.4576   -5.7461   24.8366 C   0  0  0  0  0  0  0  0  0  0  0  0
  -23.8296  -10.4462   20.9427 C   0  0  0  0  0  0  0  0  0  0  0  0
  -24.2088  -12.9687   20.9669 C   0  0  0  0  0  0  0  0  0  0  0  0
  -18.9547  -26.7991   21.4621 C   0  0  0  0  0  0  0  0  0  0  0  0
  -20.7537  -24.3147   27.3583 C   0  0  0  0  0  0  0  0  0  0  0  0
  -19.9385  -26.4772   22.4166 C   0  0  0  0  0  0  0  0  0  0  0  0
  -21.7484  -24.9060   28.1502 C   0  0  0  0  0  0  0  0  0  0  0  0
  -32.8735  -17.1936   23.4681 C   0  0  0  0  0  0  0  0  0  0  0  0
  -32.1240  -18.0221   24.3033 C   0  0  0  0  0  0  0  0  0  0  0  0
  -30.8399  -16.3881   22.4422 C   0  0  0  0  0  0  0  0  0  0  0  0
  -30.7324  -18.0337   24.2078 C   0  0  0  0  0  0  0  0  0  0  0  0
  -22.3265   -8.1340   21.3634 C   0  0  0  0  0  0  0  0  0  0  0  0
  -23.1043  -22.9012   27.9224 C   0  0  0  0  0  0  0  0  0  0  0  0
  -20.8942   -6.9009   22.7599 C   0  0  0  0  0  0  0  0  0  0  0  0
  -19.4855   -6.6931   25.1589 C   0  0  0  0  0  0  0  0  0  0  0  0
  -21.1620   -5.8500   23.6371 C   0  0  0  0  0  0  0  0  0  0  0  0
  -24.6066  -11.6400   20.7258 C   0  0  0  0  0  0  0  0  0  0  0  0
  -25.2962  -13.7243   20.6022 C   0  0  0  0  0  0  0  0  0  0  0  0
  -26.7956  -20.2027   26.2339 C   0  0  0  0  0  0  0  0  0  0  0  0
  -22.9673  -13.4747   21.4753 C   0  0  0  0  0  0  0  0  0  0  0  0
  -28.1158  -19.9851   26.1035 C   0  0  0  0  0  0  0  0  0  0  0  0
  -26.1987  -21.1579   27.2167 C   0  0  0  0  0  0  0  0  0  0  0  0
  -28.5696  -18.9909   25.0685 C   0  0  0  0  0  0  0  0  0  0  0  0
  -20.3408  -27.1699   26.0237 C   0  0  0  0  0  0  0  0  0  0  0  0
  -19.8793  -28.1065   29.0949 C   0  0  0  0  0  0  0  0  0  0  0  0
  -20.4237  -27.5264   32.4137 C   0  0  0  0  0  0  0  0  0  0  0  0
  -30.7818  -14.6790   20.5923 C   0  0  0  0  0  0  0  0  0  0  0  0
  -18.2509  -28.1330   21.4671 C   0  0  0  0  0  0  0  0  0  0  0  0
  -19.4720  -25.0479   27.0718 C   0  0  0  0  0  0  0  0  0  0  0  0
  -21.5928  -26.2944   28.7130 C   0  0  0  0  0  0  0  0  0  0  0  0
  -18.3681  -28.8785   22.7940 C   0  0  0  0  0  0  0  0  0  0  0  0
  -29.5215  -12.4375   18.1297 C   0  0  0  0  0  0  0  0  0  0  0  0
  -19.8093  -28.8564   23.2933 C   0  0  0  0  0  0  0  0  0  0  0  0
  -28.0977  -12.1395   18.6054 C   0  0  0  0  0  0  0  0  0  0  0  0
  -30.4932  -12.5760   19.3003 C   0  0  0  0  0  0  0  0  0  0  0  0
  -28.6626  -13.2377   20.8104 C   0  0  0  0  0  0  0  0  0  0  0  0
  -20.2826  -27.4204   23.5489 C   0  0  1  0  0  0  0  0  0  0  0  0
  -19.6113  -26.5627   27.1885 C   0  0  1  0  0  0  0  0  0  0  0  0
  -27.6353  -13.1539   19.6697 C   0  0  2  0  0  0  0  0  0  0  0  0
  -34.3649  -17.1618   23.5504 C   0  0  0  0  0  0  0  0  0  0  0  0
  -32.8180  -18.8968   25.3002 C   0  0  0  0  0  0  0  0  0  0  0  0
  -19.9542  -28.4865   34.6842 C   0  0  0  0  0  0  0  0  0  0  0  0
  -22.0234  -30.2288   28.6382 C   0  0  0  0  0  0  0  0  0  0  0  0
  -22.1853  -30.4999   31.1219 C   0  0  0  0  0  0  0  0  0  0  0  0
  -20.0434  -31.0116   29.9501 C   0  0  0  0  0  0  0  0  0  0  0  0
  -18.9189  -25.1186   33.2484 C   0  0  0  0  0  0  0  0  0  0  0  0
  -24.6892  -21.2725   27.2213 C   0  0  0  0  0  0  0  0  0  1  0  0
  -20.7715  -28.6041   30.2064 C   0  0  1  0  0  0  0  0  0  0  0  0
  -19.4816  -27.5260   33.6039 C   0  0  2  0  0  0  0  0  0  0  0  0
  -21.2600  -30.0607   29.9671 C   0  0  0  0  0  0  0  0  0  0  0  0
  -25.8497  -11.5532   20.2448 N   0  0  0  0  0  0  0  0  0  0  0  0
  -26.2423  -12.8369   20.1808 N   0  0  0  0  0  0  0  0  0  0  0  0
  -20.3244  -26.9730   28.3999 N   0  0  0  0  0  0  0  0  0  0  0  0
  -29.9917  -13.5565   20.2657 N   0  0  0  0  0  0  0  0  0  0  0  0
  -25.5258  -15.0546   20.6039 N   0  0  0  0  0  0  0  0  0  0  0  0
  -21.9561  -12.5602   21.8004 N   0  0  0  0  0  0  0  0  0  0  0  0
  -29.9526  -18.8677   25.0447 N   0  0  0  0  0  0  0  0  0  0  0  0
  -30.1876  -15.5589   21.4963 N   0  0  0  0  0  0  0  0  0  0  0  0
  -19.7474  -26.9269   24.7997 N   0  0  0  0  0  0  0  0  0  0  0  0
  -20.0218  -28.4211   31.4445 N   0  0  0  0  0  0  0  0  0  0  0  0
  -19.3939  -26.1606   34.1947 N   0  3  0  0  0  0  0  0  0  0  0  0
  -22.7549  -14.7023   21.6210 O   0  0  0  0  0  0  0  0  0  0  0  0
  -26.8846  -21.7959   28.0113 O   0  0  0  0  0  0  0  0  0  0  0  0
  -27.7620  -18.3950   24.3638 O   0  0  0  0  0  0  0  0  0  0  0  0
  -21.3653  -27.8126   26.2211 O   0  0  0  0  0  0  0  0  0  0  0  0
  -18.8229  -28.6972   28.8570 O   0  0  0  0  0  0  0  0  0  0  0  0
  -21.4189  -26.8078   32.3516 O   0  0  0  0  0  0  0  0  0  0  0  0
  -31.8915  -14.8612   20.0851 O   0  0  0  0  0  0  0  0  0  0  0  0
  -29.0926  -20.6110   26.8487 O   0  0  0  0  0  0  0  0  0  0  0  0
  -21.5931   -7.0060   21.5691 O   0  0  0  0  0  0  0  0  0  0  0  0
  -24.2498  -22.2189   28.1948 O   0  0  0  0  0  0  0  0  0  1  0  0
  -18.8101   -6.5943   26.3114 F   0  0  0  0  0  0  0  0  0  0  0  0
  -22.0955   -4.9379   23.3335 F   0  0  0  0  0  0  0  0  0  0  0  0
  1  2  1  0  0  0  0
  1  5  2  0  0  0  0
  2  6  2  0  0  0  0
  3  8  2  0  0  0  0
  3 17  1  0  0  0  0
  4  9  1  0  0  0  0
  4 17  2  0  0  0  0
  5 19  1  0  0  0  0
  6 21  1  0  0  0  0
  7 10  2  0  0  0  0
  7 20  1  0  0  0  0
  8 27  1  0  0  0  0
  9 27  2  0  0  0  0
 10 28  1  0  0  0  0
 11 12  2  0  0  0  0
 11 29  1  0  0  0  0
 12 30  1  0  0  0  0
 13 22  1  0  0  0  0
 13 28  2  0  0  0  0
 14 23  2  0  0  0  0
 14 25  1  0  0  0  0
 15 25  2  0  0  0  0
 15 26  1  0  0  0  0
 16 30  2  0  0  0  0
 16 31  1  0  0  0  0
 17 32  1  0  0  0  0
 18 32  1  0  0  0  0
 18 33  2  0  0  0  0
 18 35  1  0  0  0  0
 19 21  2  0  0  0  0
 19 43  1  0  0  0  0
 20 22  2  0  0  0  0
 20 44  1  0  0  0  0
 21 52  1  0  0  0  0
 22 45  1  0  0  0  0
 23 24  1  0  0  0  0
 23 55  1  0  0  0  0
 24 26  2  0  0  0  0
 24 56  1  0  0  0  0
 25 73  1  0  0  0  0
 26 72  1  0  0  0  0
 27 85  1  0  0  0  0
 28 86  1  0  0  0  0
 29 31  2  0  0  0  0
 29 85  1  0  0  0  0
 30 87  1  0  0  0  0
 31 88  1  0  0  0  0
 32 66  2  0  0  0  0
 33 67  1  0  0  0  0
 33 70  1  0  0  0  0
 34 36  2  0  0  0  0
 34 37  1  0  0  0  0
 35 71  1  0  0  0  0
 35 77  2  0  0  0  0
 36 38  1  0  0  0  0
 36 84  1  0  0  0  0
 37 62  1  0  0  0  0
 37 78  2  0  0  0  0
 38 72  1  0  0  0  0
 38 79  2  0  0  0  0
 39 53  1  0  0  0  0
 39 74  1  0  0  0  0
 39 80  2  0  0  0  0
 40 63  1  0  0  0  0
 40 68  1  0  0  0  0
 40 81  2  0  0  0  0
 41 64  1  0  0  0  0
 41 75  1  0  0  0  0
 41 82  2  0  0  0  0
 42 69  1  0  0  0  0
 42 73  1  0  0  0  0
 42 83  2  0  0  0  0
 43 46  1  0  0  0  0
 44 53  1  0  0  0  0
 45 68  1  0  0  0  0
 46 48  1  0  0  0  0
 47 49  1  0  0  0  0
 47 50  1  0  0  0  0
 48 52  1  0  0  0  0
 49 54  1  0  0  0  0
 50 69  1  0  0  0  0
 51 54  1  0  0  0  0
 51 69  1  0  0  0  0
 52 74  1  0  0  0  0
 53 68  1  0  0  0  0
 54 67  1  0  0  0  0
 57 64  1  0  0  0  0
 58 65  1  0  0  0  0
 59 65  1  0  0  0  0
 60 65  1  0  0  0  0
 61 76  1  0  0  0  0
 62 86  1  0  0  0  0
 63 65  1  0  0  0  0
 63 75  1  0  0  0  0
 64 76  1  0  0  0  0
 66 67  1  0  0  0  0
M  CHG  1  76   1
M  ISO  4  42 100  62 101  73 100  86 101
M  END
> <Batch ID>
0174

> <Smiles>
CNC(C)C(=O)NC(C(=O)N1Cc2cc([101O:1][101CH2:1]C(=O)CC(=O)C(=O)Nc3cc([100NH:0][100C:0](=O)N4CCCC(n5nc(-c6ccc(Oc7ccc(F)cc7F)cc6)c(C(N)=O)c5N)C4)cc(C)c3C)ccc2CC1C(=O)NC1CCCc2ccccc21)C(C)(C)C

> <Shape>
0.217

> <Color>
0.204

> <Negative vol penalty>
0.000

$$$$

  -OEChem-04052304333D

 85 93  0     1  0  0  0  0  0999 V2000
  -35.4696  -33.3346   27.5418 C   0  0  0  0  0  0  0  0  0  0  0  0
  -34.7939  -32.4133   26.7481 C   0  0  0  0  0  0  0  0  0  0  0  0
  -23.1552   -9.7603   20.0706 C   0  0  0  0  0  0  0  0  0  0  0  0
  -23.8084  -10.0015   22.3840 C   0  0  0  0  0  0  0  0  0  0  0  0
  -34.8338  -33.9005   28.6460 C   0  0  0  0  0  0  0  0  0  0  0  0
  -33.4822  -32.0565   27.0588 C   0  0  0  0  0  0  0  0  0  0  0  0
  -30.4783  -31.9579   22.9830 C   0  0  0  0  0  0  0  0  0  0  0  0
  -29.2584  -18.1936   22.0087 C   0  0  0  0  0  0  0  0  0  0  0  0
  -22.4345   -8.6107   20.3940 C   0  0  0  0  0  0  0  0  0  0  0  0
  -23.0876   -8.8520   22.7075 C   0  0  0  0  0  0  0  0  0  0  0  0
  -30.5752  -30.8460   22.1475 C   0  0  0  0  0  0  0  0  0  0  0  0
  -19.8598   -8.0058   23.2417 C   0  0  0  0  0  0  0  0  0  0  0  0
  -19.0513   -8.0477   24.3776 C   0  0  0  0  0  0  0  0  0  0  0  0
  -29.4069  -19.5693   21.8729 C   0  0  0  0  0  0  0  0  0  0  0  0
  -28.5987  -29.9138   23.1689 C   0  0  0  0  0  0  0  0  0  0  0  0
  -20.3134   -6.2277   25.3430 C   0  0  0  0  0  0  0  0  0  0  0  0
  -30.9463  -17.9008   20.3590 C   0  0  0  0  0  0  0  0  0  0  0  0
  -23.8422  -10.4557   21.0656 C   0  0  0  0  0  0  0  0  0  0  0  0
  -24.1156  -12.9693   20.7272 C   0  0  0  0  0  0  0  0  0  0  0  0
  -33.5103  -33.5578   28.9648 C   0  0  0  0  0  0  0  0  0  0  0  0
  -29.4455  -32.0511   23.9269 C   0  0  0  0  0  0  0  0  0  0  0  0
  -32.8285  -32.6174   28.1691 C   0  0  0  0  0  0  0  0  0  0  0  0
  -28.4895  -31.0290   24.0136 C   0  0  0  0  0  0  0  0  0  0  0  0
  -30.0389  -17.3365   21.2410 C   0  0  0  0  0  0  0  0  0  0  0  0
  -22.4007   -8.1565   21.7124 C   0  0  0  0  0  0  0  0  0  0  0  0
  -29.6369  -29.8224   22.2423 C   0  0  0  0  0  0  0  0  0  0  0  0
  -20.8950   -7.0748   23.1564 C   0  0  0  0  0  0  0  0  0  0  0  0
  -19.2782   -7.1587   25.4282 C   0  0  0  0  0  0  0  0  0  0  0  0
  -21.1219   -6.1858   24.2070 C   0  0  0  0  0  0  0  0  0  0  0  0
  -24.5874  -11.6430   20.7321 C   0  0  0  0  0  0  0  0  0  0  0  0
  -30.3427  -20.0337   20.9627 C   0  0  0  0  0  0  0  0  0  0  0  0
  -25.2011  -13.7184   20.3434 C   0  0  0  0  0  0  0  0  0  0  0  0
  -22.8128  -13.4788   21.0415 C   0  0  0  0  0  0  0  0  0  0  0  0
  -29.3138  -32.2271   27.0979 C   0  0  0  0  0  0  0  0  0  0  0  0
  -29.9859  -26.3282   21.3317 C   0  0  0  0  0  0  0  0  0  0  0  0
  -26.1470  -32.6706   26.5526 C   0  0  0  0  0  0  0  0  0  0  0  0
  -29.7906  -22.4271   21.5185 C   0  0  0  0  0  0  0  0  0  0  0  0
  -23.4750  -32.2284   24.4763 C   0  0  0  0  0  0  0  0  0  0  0  0
  -30.6208  -14.9563   20.6557 C   0  0  0  0  0  0  0  0  0  0  0  0
  -32.8808  -34.1603   30.1958 C   0  0  0  0  0  0  0  0  0  0  0  0
  -29.3395  -33.2695   24.8026 C   0  0  0  0  0  0  0  0  0  0  0  0
  -27.3497  -31.0905   24.9963 C   0  0  0  0  0  0  0  0  0  0  0  0
  -31.3622  -34.0108   30.2386 C   0  0  0  0  0  0  0  0  0  0  0  0
  -29.6869  -12.3009   18.4753 C   0  0  0  0  0  0  0  0  0  0  0  0
  -30.9560  -32.5841   29.8832 C   0  0  0  0  0  0  0  0  0  0  0  0
  -28.2382  -12.0021   18.8677 C   0  0  0  0  0  0  0  0  0  0  0  0
  -30.5388  -12.6686   19.6889 C   0  0  0  0  0  0  0  0  0  0  0  0
  -28.5502  -13.4523   20.9138 C   0  0  0  0  0  0  0  0  0  0  0  0
  -31.3964  -32.2236   28.4593 C   0  0  1  0  0  0  0  0  0  0  0  0
  -28.5437  -33.0198   26.0800 C   0  0  1  0  0  0  0  0  0  0  0  0
  -27.6380  -13.1402   19.7163 C   0  0  2  0  0  0  0  0  0  0  0  0
  -21.0086  -32.6643   24.3197 C   0  0  0  0  0  0  0  0  0  0  0  0
  -25.6198  -30.3668   28.4825 C   0  0  0  0  0  0  0  0  0  0  0  0
  -23.2919  -30.2282   27.5713 C   0  0  0  0  0  0  0  0  0  0  0  0
  -24.0579  -32.3054   28.7207 C   0  0  0  0  0  0  0  0  0  0  0  0
  -23.8094  -33.9226   22.0728 C   0  0  0  0  0  0  0  0  0  0  0  0
  -29.5369  -24.9489   21.7918 C   0  0  0  0  0  0  0  0  0  0  0  0
  -29.2362  -27.4979   21.9390 C   0  0  0  0  0  0  0  0  0  1  0  0
  -30.2588  -23.8096   21.0787 C   0  0  0  0  0  0  0  0  0  0  0  0
  -24.9482  -31.7632   26.4173 C   0  0  1  0  0  0  0  0  0  0  0  0
  -22.3999  -33.1884   23.9997 C   0  0  2  0  0  0  0  0  0  0  0  0
  -24.5019  -31.1635   27.7807 C   0  0  0  0  0  0  0  0  0  0  0  0
  -31.1189  -19.2321   20.1995 N   0  0  0  0  0  0  0  0  0  0  0  0
  -25.8724  -11.5514   20.3793 N   0  0  0  0  0  0  0  0  0  0  0  0
  -26.2173  -12.8297   20.1491 N   0  0  0  0  0  0  0  0  0  0  0  0
  -27.2928  -32.2992   25.8349 N   0  0  0  0  0  0  0  0  0  0  0  0
  -29.9104  -13.7560   20.4422 N   0  0  0  0  0  0  0  0  0  0  0  0
  -25.3758  -15.0439   20.1566 N   0  0  0  0  0  0  0  0  0  0  0  0
  -21.8133  -12.5711   21.4176 N   0  0  0  0  0  0  0  0  0  0  0  0
  -29.9099  -15.9301   21.3564 N   0  0  0  0  0  0  0  0  0  0  0  0
  -30.4864  -21.4355   20.8324 N   0  0  0  0  0  0  0  0  0  0  0  0
  -30.5015  -32.8157   27.4883 N   0  0  0  0  0  0  0  0  0  0  0  0
  -23.9180  -32.5457   25.7429 N   0  0  0  0  0  0  0  0  0  0  0  0
  -22.4997  -33.3877   22.5262 N   0  3  0  0  0  0  0  0  0  0  0  0
  -22.5385  -14.7010   20.9744 O   0  0  0  0  0  0  0  0  0  0  0  0
  -28.8630  -31.1611   27.5006 O   0  0  0  0  0  0  0  0  0  0  0  0
  -30.8984  -26.4937   20.5238 O   0  0  0  0  0  0  0  0  0  0  0  0
  -26.0675  -33.6758   27.2631 O   0  0  0  0  0  0  0  0  0  0  0  0
  -28.9194  -22.2725   22.3677 O   0  0  0  0  0  0  0  0  0  0  0  0
  -23.8785  -31.2886   23.7947 O   0  0  0  0  0  0  0  0  0  0  0  0
  -31.7647  -15.1190   20.2236 O   0  0  0  0  0  0  0  0  0  0  0  0
  -21.6973   -7.0349   22.0283 O   0  0  0  0  0  0  0  0  0  0  0  0
  -29.7295  -28.7358   21.4284 O   0  0  0  0  0  0  0  0  0  1  0  0
  -18.5027   -7.2001   26.5196 F   0  0  0  0  0  0  0  0  0  0  0  0
  -22.1156   -5.2899   24.1313 F   0  0  0  0  0  0  0  0  0  0  0  0
  1  2  1  0  0  0  0
  1  5  2  0  0  0  0
  2  6  2  0  0  0  0
  3  9  2  0  0  0  0
  3 18  1  0  0  0  0
  4 10  1  0  0  0  0
  4 18  2  0  0  0  0
  5 20  1  0  0  0  0
  6 22  1  0  0  0  0
  7 11  2  0  0  0  0
  7 21  1  0  0  0  0
  8 14  2  0  0  0  0
  8 24  1  0  0  0  0
  9 25  1  0  0  0  0
 10 25  2  0  0  0  0
 11 26  1  0  0  0  0
 12 13  2  0  0  0  0
 12 27  1  0  0  0  0
 13 28  1  0  0  0  0
 14 31  1  0  0  0  0
 15 23  1  0  0  0  0
 15 26  2  0  0  0  0
 16 28  2  0  0  0  0
 16 29  1  0  0  0  0
 17 24  2  0  0  0  0
 17 63  1  0  0  0  0
 18 30  1  0  0  0  0
 19 30  1  0  0  0  0
 19 32  2  0  0  0  0
 19 33  1  0  0  0  0
 20 22  2  0  0  0  0
 20 40  1  0  0  0  0
 21 23  2  0  0  0  0
 21 41  1  0  0  0  0
 22 49  1  0  0  0  0
 23 42  1  0  0  0  0
 24 70  1  0  0  0  0
 25 82  1  0  0  0  0
 26 83  1  0  0  0  0
 27 29  2  0  0  0  0
 27 82  1  0  0  0  0
 28 84  1  0  0  0  0
 29 85  1  0  0  0  0
 30 64  2  0  0  0  0
 31 63  2  0  0  0  0
 31 71  1  0  0  0  0
 32 65  1  0  0  0  0
 32 68  1  0  0  0  0
 33 69  1  0  0  0  0
 33 75  2  0  0  0  0
 34 50  1  0  0  0  0
 34 72  1  0  0  0  0
 34 76  2  0  0  0  0
 35 57  1  0  0  0  0
 35 58  1  0  0  0  0
 35 77  2  0  0  0  0
 36 60  1  0  0  0  0
 36 66  1  0  0  0  0
 36 78  2  0  0  0  0
 37 59  1  0  0  0  0
 37 71  1  0  0  0  0
 37 79  2  0  0  0  0
 38 61  1  0  0  0  0
 38 73  1  0  0  0  0
 38 80  2  0  0  0  0
 39 67  1  0  0  0  0
 39 70  1  0  0  0  0
 39 81  2  0  0  0  0
 40 43  1  0  0  0  0
 41 50  1  0  0  0  0
 42 66  1  0  0  0  0
 43 45  1  0  0  0  0
 44 46  1  0  0  0  0
 44 47  1  0  0  0  0
 45 49  1  0  0  0  0
 46 51  1  0  0  0  0
 47 67  1  0  0  0  0
 48 51  1  0  0  0  0
 48 67  1  0  0  0  0
 49 72  1  0  0  0  0
 50 66  1  0  0  0  0
 51 65  1  0  0  0  0
 52 61  1  0  0  0  0
 53 62  1  0  0  0  0
 54 62  1  0  0  0  0
 55 62  1  0  0  0  0
 56 74  1  0  0  0  0
 57 59  1  0  0  0  0
 58 83  1  0  0  0  0
 60 62  1  0  0  0  0
 60 73  1  0  0  0  0
 61 74  1  0  0  0  0
 64 65  1  0  0  0  0
M  CHG  1  74   1
M  ISO  4  39 100  58 101  70 100  83 101
M  END
> <Batch ID>
0174

> <Smiles>
CNC(C)C(=O)NC(C(=O)N1Cc2cc([101O:1][101CH2:1]C(=O)CCC(=O)Nc3ccc([100NH:0][100C:0](=O)N4CCCC(n5nc(-c6ccc(Oc7ccc(F)cc7F)cc6)c(C(N)=O)c5N)C4)cn3)ccc2CC1C(=O)NC1CCCc2ccccc21)C(C)(C)C

> <Shape>
0.284

> <Color>
0.189

> <Negative vol penalty>
0.000

$$$$

  -OEChem-04052304333D

 88 96  0     1  0  0  0  0  0999 V2000
  -38.3110  -21.2062   24.0170 C   0  0  0  0  0  0  0  0  0  0  0  0
  -37.1217  -20.6927   23.5097 C   0  0  0  0  0  0  0  0  0  0  0  0
  -23.0965   -9.7979   20.2030 C   0  0  0  0  0  0  0  0  0  0  0  0
  -23.8460  -10.0198   22.4891 C   0  0  0  0  0  0  0  0  0  0  0  0
  -38.3303  -22.4738   24.5972 C   0  0  0  0  0  0  0  0  0  0  0  0
  -35.9507  -21.4461   23.5834 C   0  0  0  0  0  0  0  0  0  0  0  0
  -29.8695  -22.6768   20.0028 C   0  0  0  0  0  0  0  0  0  0  0  0
  -22.3617   -8.6654   20.5538 C   0  0  0  0  0  0  0  0  0  0  0  0
  -23.1111   -8.8873   22.8399 C   0  0  0  0  0  0  0  0  0  0  0  0
  -28.4892  -22.6944   20.1984 C   0  0  0  0  0  0  0  0  0  0  0  0
  -19.8875   -8.1178   23.5005 C   0  0  0  0  0  0  0  0  0  0  0  0
  -19.1257   -8.1773   24.6674 C   0  0  0  0  0  0  0  0  0  0  0  0
  -29.7395  -17.9618   22.3092 C   0  0  0  0  0  0  0  0  0  0  0  0
  -28.6584  -24.9041   21.1511 C   0  0  0  0  0  0  0  0  0  0  0  0
  -31.8127  -17.4734   21.1689 C   0  0  0  0  0  0  0  0  0  0  0  0
  -20.3808   -6.3261   25.5811 C   0  0  0  0  0  0  0  0  0  0  0  0
  -23.8387  -10.4751   21.1706 C   0  0  0  0  0  0  0  0  0  0  0  0
  -30.2233  -19.2254   22.6477 C   0  0  0  0  0  0  0  0  0  0  0  0
  -24.1588  -12.9820   20.8232 C   0  0  0  0  0  0  0  0  0  0  0  0
  -37.1609  -23.2471   24.6693 C   0  0  0  0  0  0  0  0  0  0  0  0
  -30.6573  -23.7701   20.3907 C   0  0  0  0  0  0  0  0  0  0  0  0
  -35.9540  -22.7247   24.1663 C   0  0  0  0  0  0  0  0  0  0  0  0
  -30.0481  -24.8989   20.9571 C   0  0  0  0  0  0  0  0  0  0  0  0
  -30.5342  -17.0857   21.5698 C   0  0  0  0  0  0  0  0  0  0  0  0
  -31.5019  -19.6131   22.2469 C   0  0  0  0  0  0  0  0  0  0  0  0
  -22.3690   -8.2101   21.8723 C   0  0  0  0  0  0  0  0  0  0  0  0
  -27.8838  -23.8070   20.7752 C   0  0  0  0  0  0  0  0  0  0  0  0
  -20.8959   -7.1624   23.3738 C   0  0  0  0  0  0  0  0  0  0  0  0
  -19.3723   -7.2815   25.7077 C   0  0  0  0  0  0  0  0  0  0  0  0
  -32.2966  -18.7371   21.5074 C   0  0  0  0  0  0  0  0  0  0  0  0
  -21.1426   -6.2666   24.4142 C   0  0  0  0  0  0  0  0  0  0  0  0
  -24.5984  -11.6447   20.8087 C   0  0  0  0  0  0  0  0  0  0  0  0
  -25.2459  -13.7054   20.3975 C   0  0  0  0  0  0  0  0  0  0  0  0
  -29.3531  -20.1333   23.4372 C   0  0  0  0  0  0  0  0  0  0  0  0
  -22.8819  -13.5220   21.1890 C   0  0  0  0  0  0  0  0  0  0  0  0
  -33.0271  -24.2040   22.4641 C   0  0  0  0  0  0  0  0  0  0  0  0
  -33.1261  -27.1622   21.1367 C   0  0  0  0  0  0  0  0  0  0  0  0
  -27.1663  -21.2824   23.4351 C   0  0  0  0  0  0  0  0  0  0  0  0
  -31.4922  -29.6341   19.4436 C   0  0  0  0  0  0  0  0  0  0  0  0
  -30.7018  -14.8127   20.4967 C   0  0  0  0  0  0  0  0  0  0  0  0
  -37.2210  -24.5926   25.3481 C   0  0  0  0  0  0  0  0  0  0  0  0
  -32.1416  -23.7464   20.1484 C   0  0  0  0  0  0  0  0  0  0  0  0
  -30.8467  -26.1066   21.3722 C   0  0  0  0  0  0  0  0  0  0  0  0
  -36.0152  -25.4798   25.0498 C   0  0  0  0  0  0  0  0  0  0  0  0
  -29.6194  -12.1839   18.3531 C   0  0  0  0  0  0  0  0  0  0  0  0
  -34.7199  -24.6882   25.1995 C   0  0  0  0  0  0  0  0  0  0  0  0
  -28.1804  -11.9193   18.8021 C   0  0  0  0  0  0  0  0  0  0  0  0
  -30.5270  -12.5292   19.5324 C   0  0  0  0  0  0  0  0  0  0  0  0
  -28.6076  -13.3584   20.8352 C   0  0  0  0  0  0  0  0  0  0  0  0
  -34.6682  -23.5217   24.2054 C   0  0  1  0  0  0  0  0  0  0  0  0
  -32.9099  -24.7054   21.0526 C   0  0  1  0  0  0  0  0  0  0  0  0
  -27.6416  -13.0701   19.6744 C   0  0  2  0  0  0  0  0  0  0  0  0
  -31.8224  -31.9501   18.5356 C   0  0  0  0  0  0  0  0  0  0  0  0
  -25.2843  -25.2720   22.4129 C   0  0  0  0  0  0  0  0  0  0  0  0
  -32.8898  -28.2995   23.9582 C   0  0  0  0  0  0  0  0  0  0  0  0
  -32.2742  -30.5037   22.9431 C   0  0  0  0  0  0  0  0  0  0  0  0
  -34.5113  -29.5013   22.4814 C   0  0  0  0  0  0  0  0  0  0  0  0
  -30.9740  -28.7453   16.6687 C   0  0  0  0  0  0  0  0  0  0  0  0
  -25.9460  -21.4282   22.5401 C   0  0  0  0  0  0  0  0  0  0  0  0
  -25.2187  -22.7644   22.7082 C   0  0  0  0  0  0  0  0  0  0  0  0
  -32.4544  -28.4841   21.4200 C   0  0  1  0  0  0  0  0  0  0  0  0
  -31.8917  -30.4610   18.2349 C   0  0  2  0  0  0  0  0  0  0  0  0
  -26.0746  -23.9740   22.3098 C   0  0  1  0  0  0  0  0  0  1  0  0
  -33.0173  -29.1738   22.6947 C   0  0  0  0  0  0  0  0  0  0  0  0
  -25.8659  -11.5229   20.4055 N   0  0  0  0  0  0  0  0  0  0  0  0
  -26.2321  -12.7930   20.1626 N   0  0  0  0  0  0  0  0  0  0  0  0
  -32.2954  -26.0328   21.1205 N   0  0  0  0  0  0  0  0  0  0  0  0
  -29.9551  -13.6301   20.3105 N   0  0  0  0  0  0  0  0  0  0  0  0
  -32.0086  -20.8889   22.5813 N   0  0  0  0  0  0  0  0  0  0  0  0
  -25.4449  -15.0266   20.2047 N   0  0  0  0  0  0  0  0  0  0  0  0
  -21.8766  -12.6379   21.6036 N   0  0  0  0  0  0  0  0  0  0  0  0
  -30.0427  -15.8022   21.2254 N   0  0  0  0  0  0  0  0  0  0  0  0
  -28.1366  -20.4685   22.8451 N   0  0  0  0  0  0  0  0  0  0  0  0
  -34.3282  -23.9998   22.8824 N   0  0  0  0  0  0  0  0  0  0  0  0
  -32.5865  -29.2781   20.2033 N   0  0  0  0  0  0  0  0  0  0  0  0
  -30.9870  -30.1708   17.0868 N   0  3  0  0  0  0  0  0  0  0  0  0
  -29.7280  -20.5063   24.5455 O   0  0  0  0  0  0  0  0  0  0  0  0
  -22.6346  -14.7505   21.1336 O   0  0  0  0  0  0  0  0  0  0  0  0
  -32.0123  -24.0178   23.1253 O   0  0  0  0  0  0  0  0  0  0  0  0
  -34.3419  -27.1336   20.9301 O   0  0  0  0  0  0  0  0  0  0  0  0
  -27.2557  -21.8051   24.5425 O   0  0  0  0  0  0  0  0  0  0  0  0
  -30.3256  -29.3371   19.6914 O   0  0  0  0  0  0  0  0  0  0  0  0
  -31.8315  -14.9487   20.0198 O   0  0  0  0  0  0  0  0  0  0  0  0
  -21.6519   -7.1052   22.2150 O   0  0  0  0  0  0  0  0  0  0  0  0
  -26.5368  -23.8265   20.9678 O   0  0  0  0  0  0  0  0  0  1  0  0
  -18.6417   -7.3397   26.8289 F   0  0  0  0  0  0  0  0  0  0  0  0
  -33.5269  -19.0988   21.1164 F   0  0  0  0  0  0  0  0  0  0  0  0
  -22.1108   -5.3473   24.2988 F   0  0  0  0  0  0  0  0  0  0  0  0
  1  2  1  0  0  0  0
  1  5  2  0  0  0  0
  2  6  2  0  0  0  0
  3  8  2  0  0  0  0
  3 17  1  0  0  0  0
  4  9  1  0  0  0  0
  4 17  2  0  0  0  0
  5 20  1  0  0  0  0
  6 22  1  0  0  0  0
  7 10  2  0  0  0  0
  7 21  1  0  0  0  0
  8 26  1  0  0  0  0
  9 26  2  0  0  0  0
 10 27  1  0  0  0  0
 11 12  2  0  0  0  0
 11 28  1  0  0  0  0
 12 29  1  0  0  0  0
 13 18  1  0  0  0  0
 13 24  2  0  0  0  0
 14 23  1  0  0  0  0
 14 27  2  0  0  0  0
 15 24  1  0  0  0  0
 15 30  2  0  0  0  0
 16 29  2  0  0  0  0
 16 31  1  0  0  0  0
 17 32  1  0  0  0  0
 18 25  2  0  0  0  0
 18 34  1  0  0  0  0
 19 32  1  0  0  0  0
 19 33  2  0  0  0  0
 19 35  1  0  0  0  0
 20 22  2  0  0  0  0
 20 41  1  0  0  0  0
 21 23  2  0  0  0  0
 21 42  1  0  0  0  0
 22 50  1  0  0  0  0
 23 43  1  0  0  0  0
 24 72  1  0  0  0  0
 25 30  1  0  0  0  0
 25 69  1  0  0  0  0
 26 84  1  0  0  0  0
 27 85  1  0  0  0  0
 28 31  2  0  0  0  0
 28 84  1  0  0  0  0
 29 86  1  0  0  0  0
 30 87  1  0  0  0  0
 31 88  1  0  0  0  0
 32 65  2  0  0  0  0
 33 66  1  0  0  0  0
 33 70  1  0  0  0  0
 34 73  1  0  0  0  0
 34 77  2  0  0  0  0
 35 71  1  0  0  0  0
 35 78  2  0  0  0  0
 36 51  1  0  0  0  0
 36 74  1  0  0  0  0
 36 79  2  0  0  0  0
 37 61  1  0  0  0  0
 37 67  1  0  0  0  0
 37 80  2  0  0  0  0
 38 59  1  0  0  0  0
 38 73  1  0  0  0  0
 38 81  2  0  0  0  0
 39 62  1  0  0  0  0
 39 75  1  0  0  0  0
 39 82  2  0  0  0  0
 40 68  1  0  0  0  0
 40 72  1  0  0  0  0
 40 83  2  0  0  0  0
 41 44  1  0  0  0  0
 42 51  1  0  0  0  0
 43 67  1  0  0  0  0
 44 46  1  0  0  0  0
 45 47  1  0  0  0  0
 45 48  1  0  0  0  0
 46 50  1  0  0  0  0
 47 52  1  0  0  0  0
 48 68  1  0  0  0  0
 49 52  1  0  0  0  0
 49 68  1  0  0  0  0
 50 74  1  0  0  0  0
 51 67  1  0  0  0  0
 52 66  1  0  0  0  0
 53 62  1  0  0  0  0
 54 63  1  0  0  0  0
 55 64  1  0  0  0  0
 56 64  1  0  0  0  0
 57 64  1  0  0  0  0
 58 76  1  0  0  0  0
 59 60  1  0  0  0  0
 60 63  1  0  0  0  0
 61 64  1  0  0  0  0
 61 75  1  0  0  0  0
 62 76  1  0  0  0  0
 63 85  1  0  0  0  0
 65 66  1  0  0  0  0
M  CHG  1  76   1
M  ISO  4  40 100  63 101  72 100  85 101
M  END
> <Batch ID>
0174

> <Smiles>
CNC(C)C(=O)NC(C(=O)N1Cc2cc([101O:1][101CH:1](C)CCC(=O)NC(=O)c3cc([100NH:0][100C:0](=O)N4CCCC(n5nc(-c6ccc(Oc7ccc(F)cc7F)cc6)c(C(N)=O)c5N)C4)cc(F)c3N)ccc2CC1C(=O)NC1CCCc2ccccc21)C(C)(C)C

> <Shape>
0.205

> <Color>
0.172

> <Negative vol penalty>
0.000

$$$$

  -OEChem-04052304333D

 90 98  0     1  0  0  0  0  0999 V2000
  -27.7615  -24.9805   16.3026 C   0  0  0  0  0  0  0  0  0  0  0  0
  -26.5581  -25.2641   16.9404 C   0  0  0  0  0  0  0  0  0  0  0  0
  -26.1677  -13.8063   20.0028 C   0  0  0  0  0  0  0  0  0  0  0  0
  -23.7556  -13.6889   19.9313 C   0  0  0  0  0  0  0  0  0  0  0  0
  -28.9694  -25.2968   16.9231 C   0  0  0  0  0  0  0  0  0  0  0  0
  -26.5618  -25.8632   18.1995 C   0  0  0  0  0  0  0  0  0  0  0  0
  -23.1949  -29.6277   18.5698 C   0  0  0  0  0  0  0  0  0  0  0  0
  -26.1962  -12.7014   20.8536 C   0  0  0  0  0  0  0  0  0  0  0  0
  -23.7841  -12.5840   20.7821 C   0  0  0  0  0  0  0  0  0  0  0  0
  -21.8591  -29.2717   18.7511 C   0  0  0  0  0  0  0  0  0  0  0  0
  -24.3991   -9.2699   20.5384 C   0  0  0  0  0  0  0  0  0  0  0  0
  -23.5869   -8.1832   20.2143 C   0  0  0  0  0  0  0  0  0  0  0  0
  -22.0663  -29.7204   21.1122 C   0  0  0  0  0  0  0  0  0  0  0  0
  -19.1649  -20.4005   19.7295 C   0  0  0  0  0  0  0  0  0  0  0  0
  -20.0927  -22.3908   20.7369 C   0  0  0  0  0  0  0  0  0  0  0  0
  -22.4271   -8.4221   22.3203 C   0  0  0  0  0  0  0  0  0  0  0  0
  -24.9473  -14.3001   19.5417 C   0  0  0  0  0  0  0  0  0  0  0  0
  -24.9591  -15.4331   17.2561 C   0  0  0  0  0  0  0  0  0  0  0  0
  -28.9878  -25.9089   18.1863 C   0  0  0  0  0  0  0  0  0  0  0  0
  -23.9807  -30.0229   19.6619 C   0  0  0  0  0  0  0  0  0  0  0  0
  -27.7710  -26.1868   18.8381 C   0  0  0  0  0  0  0  0  0  0  0  0
  -23.4110  -30.0834   20.9417 C   0  0  0  0  0  0  0  0  0  0  0  0
  -17.9091  -20.7265   20.2418 C   0  0  0  0  0  0  0  0  0  0  0  0
  -20.2567  -21.2326   19.9771 C   0  0  0  0  0  0  0  0  0  0  0  0
  -18.8369  -22.7169   21.2492 C   0  0  0  0  0  0  0  0  0  0  0  0
  -25.0045  -12.0902   21.2433 C   0  0  0  0  0  0  0  0  0  0  0  0
  -21.2954  -29.3153   20.0229 C   0  0  0  0  0  0  0  0  0  0  0  0
  -24.2254   -9.9327   21.7534 C   0  0  0  0  0  0  0  0  0  0  0  0
  -22.6009   -7.7593   21.1053 C   0  0  0  0  0  0  0  0  0  0  0  0
  -23.2394   -9.5088   22.6443 C   0  0  0  0  0  0  0  0  0  0  0  0
  -17.7452  -21.8847   21.0016 C   0  0  0  0  0  0  0  0  0  0  0  0
  -24.9171  -15.4418   18.6632 C   0  0  0  0  0  0  0  0  0  0  0  0
  -24.9042  -16.7592   16.9027 C   0  0  0  0  0  0  0  0  0  0  0  0
  -25.0403  -14.3253   16.3495 C   0  0  0  0  0  0  0  0  0  0  0  0
  -19.1096  -25.9364   23.1827 C   0  0  0  0  0  0  0  0  0  0  0  0
  -19.6482  -24.8087   22.3492 C   0  0  0  0  0  0  0  0  0  0  0  0
  -26.6082  -28.9030   21.0568 C   0  0  0  0  0  0  0  0  0  0  0  0
  -26.3757  -31.6294   22.7989 C   0  0  0  0  0  0  0  0  0  0  0  0
  -24.3992  -34.1343   24.0095 C   0  0  0  0  0  0  0  0  0  0  0  0
  -22.7188  -21.6178   19.6088 C   0  0  0  0  0  0  0  0  0  0  0  0
  -30.3188  -26.1890   18.8379 C   0  0  0  0  0  0  0  0  0  0  0  0
  -25.4126  -30.4294   19.4454 C   0  0  0  0  0  0  0  0  0  0  0  0
  -24.2063  -30.5203   22.1438 C   0  0  0  0  0  0  0  0  0  0  0  0
  -30.2304  -27.1641   20.0091 C   0  0  0  0  0  0  0  0  0  0  0  0
  -26.0696  -21.1155   18.5147 C   0  0  0  0  0  0  0  0  0  0  0  0
  -29.0757  -26.7869   20.9317 C   0  0  0  0  0  0  0  0  0  0  0  0
  -26.1564  -19.6035   18.2947 C   0  0  0  0  0  0  0  0  0  0  0  0
  -25.1966  -21.4643   19.7188 C   0  0  0  0  0  0  0  0  0  0  0  0
  -23.9406  -19.3579   19.4852 C   0  0  0  0  0  0  0  0  0  0  0  0
  -27.7335  -26.8587   20.1935 C   0  0  1  0  0  0  0  0  0  0  0  0
  -26.2614  -30.3229   20.7086 C   0  0  1  0  0  0  0  0  0  0  0  0
  -24.7567  -18.9601   18.2444 C   0  0  2  0  0  0  0  0  0  0  0  0
  -24.4862  -36.1982   25.4343 C   0  0  0  0  0  0  0  0  0  0  0  0
  -16.5879  -18.7613   21.0485 C   0  0  0  0  0  0  0  0  0  0  0  0
  -26.5066  -29.8917   25.3036 C   0  0  0  0  0  0  0  0  0  0  0  0
  -25.6483  -31.8426   26.6173 C   0  0  0  0  0  0  0  0  0  0  0  0
  -27.8362  -32.0061   25.4301 C   0  0  0  0  0  0  0  0  0  0  0  0
  -23.5184  -35.8578   21.7705 C   0  0  0  0  0  0  0  0  0  0  0  0
  -18.0208  -26.7794   22.5588 C   0  0  0  0  0  0  0  0  0  0  0  0
  -18.4617  -27.4542   21.2636 C   0  0  0  0  0  0  0  0  0  0  0  0
  -19.6391  -28.4011   21.4640 C   0  0  0  0  0  0  0  0  0  1  0  0
  -25.6936  -32.0195   24.0880 C   0  0  1  0  0  0  0  0  0  0  0  0
  -24.5781  -35.6418   24.0220 C   0  0  2  0  0  0  0  0  0  0  0  0
  -16.7438  -19.8347   19.9741 C   0  0  0  0  0  0  0  0  0  0  0  0
  -26.4064  -31.4298   25.3376 C   0  0  0  0  0  0  0  0  0  0  0  0
  -24.8416  -16.6756   19.1691 N   0  0  0  0  0  0  0  0  0  0  0  0
  -24.8357  -17.4546   18.0740 N   0  0  0  0  0  0  0  0  0  0  0  0
  -25.6039  -30.9019   21.8819 N   0  0  0  0  0  0  0  0  0  0  0  0
  -23.8850  -20.8236   19.6001 N   0  0  0  0  0  0  0  0  0  0  0  0
  -24.9084  -17.3866   15.7074 N   0  0  0  0  0  0  0  0  0  0  0  0
  -25.0884  -13.0293   16.8808 N   0  0  0  0  0  0  0  0  0  0  0  0
  -18.6732  -23.8917   22.0197 N   0  0  0  0  0  0  0  0  0  0  0  0
  -21.5322  -20.9014   19.4564 N   0  0  0  0  0  0  0  0  0  0  0  0
  -27.3000  -28.2335   20.0655 N   0  0  0  0  0  0  0  0  0  0  0  0
  -25.6086  -33.4759   24.0802 N   0  0  0  0  0  0  0  0  0  0  0  0
  -23.5280  -36.2949   23.1903 N   0  3  0  0  0  0  0  0  0  0  0  0
  -25.0860  -14.4809   15.1056 O   0  0  0  0  0  0  0  0  0  0  0  0
  -19.5779  -26.0785   24.3023 O   0  0  0  0  0  0  0  0  0  0  0  0
  -20.8427  -24.8350   22.1027 O   0  0  0  0  0  0  0  0  0  0  0  0
  -26.2741  -28.4489   22.1448 O   0  0  0  0  0  0  0  0  0  0  0  0
  -27.5477  -31.9641   22.6095 O   0  0  0  0  0  0  0  0  0  0  0  0
  -23.2966  -33.5949   23.9471 O   0  0  0  0  0  0  0  0  0  0  0  0
  -22.7708  -22.8459   19.7142 O   0  0  0  0  0  0  0  0  0  0  0  0
  -25.0320  -11.0118   22.0733 O   0  0  0  0  0  0  0  0  0  0  0  0
  -19.9921  -28.9677   20.2027 O   0  0  0  0  0  0  0  0  0  1  0  0
  -21.8199   -6.7167   20.7933 F   0  0  0  0  0  0  0  0  0  0  0  0
  -23.0670  -10.1422   23.8126 F   0  0  0  0  0  0  0  0  0  0  0  0
  -16.5365  -22.1960   21.4937 F   0  0  0  0  0  0  0  0  0  0  0  0
  -16.8309  -19.1860   18.7687 F   0  0  0  0  0  0  0  0  0  0  0  0
  -15.5534  -20.5131   19.9090 F   0  0  0  0  0  0  0  0  0  0  0  0
  1  2  1  0  0  0  0
  1  5  2  0  0  0  0
  2  6  2  0  0  0  0
  3  8  2  0  0  0  0
  3 17  1  0  0  0  0
  4  9  1  0  0  0  0
  4 17  2  0  0  0  0
  5 19  1  0  0  0  0
  6 21  1  0  0  0  0
  7 10  2  0  0  0  0
  7 20  1  0  0  0  0
  8 26  1  0  0  0  0
  9 26  2  0  0  0  0
 10 27  1  0  0  0  0
 11 12  2  0  0  0  0
 11 28  1  0  0  0  0
 12 29  1  0  0  0  0
 13 22  1  0  0  0  0
 13 27  2  0  0  0  0
 14 23  2  0  0  0  0
 14 24  1  0  0  0  0
 15 24  2  0  0  0  0
 15 25  1  0  0  0  0
 16 29  2  0  0  0  0
 16 30  1  0  0  0  0
 17 32  1  0  0  0  0
 18 32  1  0  0  0  0
 18 33  2  0  0  0  0
 18 34  1  0  0  0  0
 19 21  2  0  0  0  0
 19 41  1  0  0  0  0
 20 22  2  0  0  0  0
 20 42  1  0  0  0  0
 21 50  1  0  0  0  0
 22 43  1  0  0  0  0
 23 31  1  0  0  0  0
 23 64  1  0  0  0  0
 24 73  1  0  0  0  0
 25 31  2  0  0  0  0
 25 72  1  0  0  0  0
 26 84  1  0  0  0  0
 27 85  1  0  0  0  0
 28 30  2  0  0  0  0
 28 84  1  0  0  0  0
 29 86  1  0  0  0  0
 30 87  1  0  0  0  0
 31 88  1  0  0  0  0
 32 66  2  0  0  0  0
 33 67  1  0  0  0  0
 33 70  1  0  0  0  0
 34 71  1  0  0  0  0
 34 77  2  0  0  0  0
 35 36  1  0  0  0  0
 35 59  1  0  0  0  0
 35 78  2  0  0  0  0
 36 72  1  0  0  0  0
 36 79  2  0  0  0  0
 37 51  1  0  0  0  0
 37 74  1  0  0  0  0
 37 80  2  0  0  0  0
 38 62  1  0  0  0  0
 38 68  1  0  0  0  0
 38 81  2  0  0  0  0
 39 63  1  0  0  0  0
 39 75  1  0  0  0  0
 39 82  2  0  0  0  0
 40 69  1  0  0  0  0
 40 73  1  0  0  0  0
 40 83  2  0  0  0  0
 41 44  1  0  0  0  0
 42 51  1  0  0  0  0
 43 68  1  0  0  0  0
 44 46  1  0  0  0  0
 45 47  1  0  0  0  0
 45 48  1  0  0  0  0
 46 50  1  0  0  0  0
 47 52  1  0  0  0  0
 48 69  1  0  0  0  0
 49 52  1  0  0  0  0
 49 69  1  0  0  0  0
 50 74  1  0  0  0  0
 51 68  1  0  0  0  0
 52 67  1  0  0  0  0
 53 63  1  0  0  0  0
 54 64  1  0  0  0  0
 55 65  1  0  0  0  0
 56 65  1  0  0  0  0
 57 65  1  0  0  0  0
 58 76  1  0  0  0  0
 59 60  1  0  0  0  0
 60 61  1  0  0  0  0
 61 85  1  0  0  0  0
 62 65  1  0  0  0  0
 62 75  1  0  0  0  0
 63 76  1  0  0  0  0
 64 89  1  0  0  0  0
 64 90  1  0  0  0  0
 66 67  1  0  0  0  0
M  CHG  1  76   1
M  ISO  4  40 100  61 101  73 100  85 101
M  END
> <Batch ID>
0174

> <Smiles>
CNC(C)C(=O)NC(C(=O)N1Cc2cc([101O:1][101CH2:1]CCC(=O)C(=O)Nc3cc([100NH:0][100C:0](=O)N4CCCC(n5nc(-c6ccc(Oc7ccc(F)cc7F)cc6)c(C(N)=O)c5N)C4)cc(C(C)(F)F)c3F)ccc2CC1C(=O)NC1CCCc2ccccc21)C(C)(C)C

> <Shape>
0.265

> <Color>
0.079

> <Negative vol penalty>
0.000

$$$$

  -OEChem-04052304333D

 87 95  0     1  0  0  0  0  0999 V2000
  -30.6024  -25.3437   17.8218 C   0  0  0  0  0  0  0  0  0  0  0  0
  -29.2189  -25.2715   17.9486 C   0  0  0  0  0  0  0  0  0  0  0  0
  -26.1339  -12.6198   21.2836 C   0  0  0  0  0  0  0  0  0  0  0  0
  -24.4699  -12.7376   19.5360 C   0  0  0  0  0  0  0  0  0  0  0  0
  -31.3622  -25.9498   18.8215 C   0  0  0  0  0  0  0  0  0  0  0  0
  -28.5944  -25.8044   19.0757 C   0  0  0  0  0  0  0  0  0  0  0  0
  -23.1116  -28.5231   19.3069 C   0  0  0  0  0  0  0  0  0  0  0  0
  -25.6309  -11.3803   21.6790 C   0  0  0  0  0  0  0  0  0  0  0  0
  -23.9669  -11.4981   19.9313 C   0  0  0  0  0  0  0  0  0  0  0  0
  -21.8497  -28.0597   19.6767 C   0  0  0  0  0  0  0  0  0  0  0  0
  -24.7864   -8.2420   19.5478 C   0  0  0  0  0  0  0  0  0  0  0  0
  -24.5019   -7.3112   18.5487 C   0  0  0  0  0  0  0  0  0  0  0  0
  -22.1809  -28.9469   21.8954 C   0  0  0  0  0  0  0  0  0  0  0  0
  -20.7592  -21.4463   19.2509 C   0  0  0  0  0  0  0  0  0  0  0  0
  -19.6117  -20.1331   17.0733 C   0  0  0  0  0  0  0  0  0  0  0  0
  -22.1899   -7.2666   19.2486 C   0  0  0  0  0  0  0  0  0  0  0  0
  -25.5533  -13.2985   20.2121 C   0  0  0  0  0  0  0  0  0  0  0  0
  -27.0842  -14.8233   18.8560 C   0  0  0  0  0  0  0  0  0  0  0  0
  -30.7458  -26.4991   19.9568 C   0  0  0  0  0  0  0  0  0  0  0  0
  -23.9234  -29.1934   20.2332 C   0  0  0  0  0  0  0  0  0  0  0  0
  -29.3467  -26.4173   20.0921 C   0  0  0  0  0  0  0  0  0  0  0  0
  -23.4516  -29.4200   21.5341 C   0  0  0  0  0  0  0  0  0  0  0  0
  -21.4615  -20.4332   18.5983 C   0  0  0  0  0  0  0  0  0  0  0  0
  -19.4831  -21.8029   18.8147 C   0  0  0  0  0  0  0  0  0  0  0  0
  -20.8878  -19.7766   17.5095 C   0  0  0  0  0  0  0  0  0  0  0  0
  -24.5475  -10.8195   21.0029 C   0  0  0  0  0  0  0  0  0  0  0  0
  -21.3853  -28.2691   20.9720 C   0  0  0  0  0  0  0  0  0  0  0  0
  -23.7727   -8.6851   20.3973 C   0  0  0  0  0  0  0  0  0  0  0  0
  -23.2037   -6.8235   18.3990 C   0  0  0  0  0  0  0  0  0  0  0  0
  -18.9094  -21.1463   17.7259 C   0  0  0  0  0  0  0  0  0  0  0  0
  -22.4744   -8.1975   20.2477 C   0  0  0  0  0  0  0  0  0  0  0  0
  -26.0721  -14.5791   19.8035 C   0  0  0  0  0  0  0  0  0  0  0  0
  -27.2073  -16.1911   18.8299 C   0  0  0  0  0  0  0  0  0  0  0  0
  -27.8450  -13.8967   18.0698 C   0  0  0  0  0  0  0  0  0  0  0  0
  -26.7716  -28.6417   21.5321 C   0  0  0  0  0  0  0  0  0  0  0  0
  -18.7399  -25.8667   21.5871 C   0  0  0  0  0  0  0  0  0  0  0  0
  -26.3318  -31.5946   22.8006 C   0  0  0  0  0  0  0  0  0  0  0  0
  -19.1914  -23.5821   20.5714 C   0  0  0  0  0  0  0  0  0  0  0  0
  -24.1541  -34.0419   23.7573 C   0  0  0  0  0  0  0  0  0  0  0  0
  -23.4511  -20.6533   20.1278 C   0  0  0  0  0  0  0  0  0  0  0  0
  -31.6129  -27.1022   21.0334 C   0  0  0  0  0  0  0  0  0  0  0  0
  -25.2712  -29.7105   19.8109 C   0  0  0  0  0  0  0  0  0  0  0  0
  -24.2759  -30.1520   22.5603 C   0  0  0  0  0  0  0  0  0  0  0  0
  -30.8411  -27.9755   22.0192 C   0  0  0  0  0  0  0  0  0  0  0  0
  -26.6375  -20.0559   21.5999 C   0  0  0  0  0  0  0  0  0  0  0  0
  -29.5671  -27.2701   22.4733 C   0  0  0  0  0  0  0  0  0  0  0  0
  -26.9490  -18.6078   21.2149 C   0  0  0  0  0  0  0  0  0  0  0  0
  -25.1523  -20.2573   21.8953 C   0  0  0  0  0  0  0  0  0  0  0  0
  -24.5529  -18.3520   20.4532 C   0  0  0  0  0  0  0  0  0  0  0  0
  -28.6305  -27.0059   21.2882 C   0  0  1  0  0  0  0  0  0  0  0  0
  -26.2220  -29.9282   20.9839 C   0  0  1  0  0  0  0  0  0  0  0  0
  -26.0261  -18.1146   20.0832 C   0  0  2  0  0  0  0  0  0  0  0  0
  -17.1639  -23.9395   21.9771 C   0  0  0  0  0  0  0  0  0  0  0  0
  -24.0895  -36.3255   24.7957 C   0  0  0  0  0  0  0  0  0  0  0  0
  -26.8752  -30.3624   25.5386 C   0  0  0  0  0  0  0  0  0  0  0  0
  -25.8815  -32.4107   26.5803 C   0  0  0  0  0  0  0  0  0  0  0  0
  -27.9324  -32.5991   25.1728 C   0  0  0  0  0  0  0  0  0  0  0  0
  -22.8915  -35.2250   21.3563 C   0  0  0  0  0  0  0  0  0  0  0  0
  -19.6714  -26.6468   20.6777 C   0  0  0  0  0  0  0  0  0  1  0  0
  -18.1320  -24.5966   20.9950 C   0  0  1  0  0  0  0  0  0  0  0  0
  -25.7079  -32.1326   24.0656 C   0  0  1  0  0  0  0  0  0  0  0  0
  -24.1413  -35.5372   23.4962 C   0  0  2  0  0  0  0  0  0  0  0  0
  -26.5843  -31.8607   25.3208 C   0  0  0  0  0  0  0  0  0  0  0  0
  -25.5868  -15.7017   20.3406 N   0  0  0  0  0  0  0  0  0  0  0  0
  -26.2971  -16.6645   19.7285 N   0  0  0  0  0  0  0  0  0  0  0  0
  -25.5895  -30.6327   22.1009 N   0  0  0  0  0  0  0  0  0  0  0  0
  -24.3398  -19.7711   20.7780 N   0  0  0  0  0  0  0  0  0  0  0  0
  -21.5801  -18.7465   16.8344 N   0  0  0  0  0  0  0  0  0  0  0  0
  -28.0042  -17.0229   18.1261 N   0  0  0  0  0  0  0  0  0  0  0  0
  -27.5910  -12.5266   18.2203 N   0  0  0  0  0  0  0  0  0  0  0  0
  -18.7722  -22.8309   19.4786 N   0  0  0  0  0  0  0  0  0  0  0  0
  -22.7560  -20.0877   19.0594 N   0  0  0  0  0  0  0  0  0  0  0  0
  -27.9331  -28.2179   20.9151 N   0  0  0  0  0  0  0  0  0  0  0  0
  -25.4389  -33.5452   23.8193 N   0  0  0  0  0  0  0  0  0  0  0  0
  -22.9558  -35.9092   22.6733 N   0  3  0  0  0  0  0  0  0  0  0  0
  -28.7355  -14.2717   17.2698 O   0  0  0  0  0  0  0  0  0  0  0  0
  -26.1860  -28.0762   22.4480 O   0  0  0  0  0  0  0  0  0  0  0  0
  -18.5055  -26.2323   22.7385 O   0  0  0  0  0  0  0  0  0  0  0  0
  -27.4338  -32.0176   22.4426 O   0  0  0  0  0  0  0  0  0  0  0  0
  -20.2568  -23.4880   21.1745 O   0  0  0  0  0  0  0  0  0  0  0  0
  -23.1271  -33.3812   23.8965 O   0  0  0  0  0  0  0  0  0  0  0  0
  -23.3365  -21.8316   20.4748 O   0  0  0  0  0  0  0  0  0  0  0  0
  -24.0566   -9.6099   21.3882 O   0  0  0  0  0  0  0  0  0  0  0  0
  -20.1543  -27.8173   21.3358 O   0  0  0  0  0  0  0  0  0  1  0  0
  -22.9303   -5.9308   17.4386 F   0  0  0  0  0  0  0  0  0  0  0  0
  -17.6835  -21.4802   17.2981 F   0  0  0  0  0  0  0  0  0  0  0  0
  -21.4962   -8.6203   21.0601 F   0  0  0  0  0  0  0  0  0  0  0  0
  1  2  1  0  0  0  0
  1  5  2  0  0  0  0
  2  6  2  0  0  0  0
  3  8  2  0  0  0  0
  3 17  1  0  0  0  0
  4  9  1  0  0  0  0
  4 17  2  0  0  0  0
  5 19  1  0  0  0  0
  6 21  1  0  0  0  0
  7 10  2  0  0  0  0
  7 20  1  0  0  0  0
  8 26  1  0  0  0  0
  9 26  2  0  0  0  0
 10 27  1  0  0  0  0
 11 12  2  0  0  0  0
 11 28  1  0  0  0  0
 12 29  1  0  0  0  0
 13 22  1  0  0  0  0
 13 27  2  0  0  0  0
 14 23  2  0  0  0  0
 14 24  1  0  0  0  0
 15 25  2  0  0  0  0
 15 30  1  0  0  0  0
 16 29  2  0  0  0  0
 16 31  1  0  0  0  0
 17 32  1  0  0  0  0
 18 32  1  0  0  0  0
 18 33  2  0  0  0  0
 18 34  1  0  0  0  0
 19 21  2  0  0  0  0
 19 41  1  0  0  0  0
 20 22  2  0  0  0  0
 20 42  1  0  0  0  0
 21 50  1  0  0  0  0
 22 43  1  0  0  0  0
 23 25  1  0  0  0  0
 23 72  1  0  0  0  0
 24 30  2  0  0  0  0
 24 71  1  0  0  0  0
 25 68  1  0  0  0  0
 26 83  1  0  0  0  0
 27 84  1  0  0  0  0
 28 31  2  0  0  0  0
 28 83  1  0  0  0  0
 29 85  1  0  0  0  0
 30 86  1  0  0  0  0
 31 87  1  0  0  0  0
 32 64  2  0  0  0  0
 33 65  1  0  0  0  0
 33 69  1  0  0  0  0
 34 70  1  0  0  0  0
 34 76  2  0  0  0  0
 35 51  1  0  0  0  0
 35 73  1  0  0  0  0
 35 77  2  0  0  0  0
 36 59  1  0  0  0  0
 36 60  1  0  0  0  0
 36 78  2  0  0  0  0
 37 61  1  0  0  0  0
 37 66  1  0  0  0  0
 37 79  2  0  0  0  0
 38 60  1  0  0  0  0
 38 71  1  0  0  0  0
 38 80  2  0  0  0  0
 39 62  1  0  0  0  0
 39 74  1  0  0  0  0
 39 81  2  0  0  0  0
 40 67  1  0  0  0  0
 40 72  1  0  0  0  0
 40 82  2  0  0  0  0
 41 44  1  0  0  0  0
 42 51  1  0  0  0  0
 43 66  1  0  0  0  0
 44 46  1  0  0  0  0
 45 47  1  0  0  0  0
 45 48  1  0  0  0  0
 46 50  1  0  0  0  0
 47 52  1  0  0  0  0
 48 67  1  0  0  0  0
 49 52  1  0  0  0  0
 49 67  1  0  0  0  0
 50 73  1  0  0  0  0
 51 66  1  0  0  0  0
 52 65  1  0  0  0  0
 53 60  1  0  0  0  0
 54 62  1  0  0  0  0
 55 63  1  0  0  0  0
 56 63  1  0  0  0  0
 57 63  1  0  0  0  0
 58 75  1  0  0  0  0
 59 84  1  0  0  0  0
 61 63  1  0  0  0  0
 61 74  1  0  0  0  0
 62 75  1  0  0  0  0
 64 65  1  0  0  0  0
M  CHG  1  75   1
M  ISO  4  40 100  59 101  72 100  84 101
M  END
> <Batch ID>
0174

> <Smiles>
CNC(C)C(=O)NC(C(=O)N1Cc2cc([101O:1][101CH2:1]C(=O)C(C)C(=O)Nc3cc([100NH:0][100C:0](=O)N4CCCC(n5nc(-c6ccc(Oc7ccc(F)cc7F)cc6)c(C(N)=O)c5N)C4)c(N)cc3F)ccc2CC1C(=O)NC1CCCc2ccccc21)C(C)(C)C

> <Shape>
0.283

> <Color>
0.070

> <Negative vol penalty>
0.000

$$$$

  -OEChem-04052304333D

 88 96  0     1  0  0  0  0  0999 V2000
  -33.7351  -20.2368   21.3323 C   0  0  0  0  0  0  0  0  0  0  0  0
  -32.4761  -20.8286   21.3436 C   0  0  0  0  0  0  0  0  0  0  0  0
  -27.7810  -25.6838   18.0188 C   0  0  0  0  0  0  0  0  0  0  0  0
  -26.1837  -24.3001   19.1897 C   0  0  0  0  0  0  0  0  0  0  0  0
  -33.9464  -19.0641   20.6085 C   0  0  0  0  0  0  0  0  0  0  0  0
  -31.4279  -20.2484   20.6302 C   0  0  0  0  0  0  0  0  0  0  0  0
  -25.5092  -20.1623   22.2012 C   0  0  0  0  0  0  0  0  0  0  0  0
  -28.7090  -24.6431   18.0549 C   0  0  0  0  0  0  0  0  0  0  0  0
  -27.1117  -23.2593   19.2258 C   0  0  0  0  0  0  0  0  0  0  0  0
  -24.4244  -20.9476   21.8137 C   0  0  0  0  0  0  0  0  0  0  0  0
  -29.2926  -21.7666   16.3762 C   0  0  0  0  0  0  0  0  0  0  0  0
  -29.9969  -21.4852   15.2056 C   0  0  0  0  0  0  0  0  0  0  0  0
  -23.8233  -19.2929   20.1645 C   0  0  0  0  0  0  0  0  0  0  0  0
  -32.0765  -21.9440   16.3465 C   0  0  0  0  0  0  0  0  0  0  0  0
  -18.0051  -30.6143   24.0467 C   0  0  0  0  0  0  0  0  0  0  0  0
  -26.5183  -25.5123   18.5863 C   0  0  0  0  0  0  0  0  0  0  0  0
  -24.6044  -26.8407   17.5470 C   0  0  0  0  0  0  0  0  0  0  0  0
  -32.8978  -18.4639   19.8937 C   0  0  0  0  0  0  0  0  0  0  0  0
  -25.7660  -18.9394   21.5647 C   0  0  0  0  0  0  0  0  0  0  0  0
  -31.6257  -19.0672   19.8951 C   0  0  0  0  0  0  0  0  0  0  0  0
  -24.9105  -18.4927   20.5475 C   0  0  0  0  0  0  0  0  0  0  0  0
  -18.8756  -28.5359   22.5078 C   0  0  0  0  0  0  0  0  0  0  0  0
  -28.3744  -23.4309   18.6584 C   0  0  0  0  0  0  0  0  0  0  0  0
  -23.5829  -20.5144   20.7933 C   0  0  0  0  0  0  0  0  0  0  0  0
  -29.9802  -22.1368   17.5320 C   0  0  0  0  0  0  0  0  0  0  0  0
  -31.3888  -21.5738   15.1907 C   0  0  0  0  0  0  0  0  0  0  0  0
  -31.3722  -22.2254   17.5171 C   0  0  0  0  0  0  0  0  0  0  0  0
  -17.0919  -29.6360   23.6878 C   0  0  0  0  0  0  0  0  0  0  0  0
  -17.5434  -28.5804   22.9036 C   0  0  0  0  0  0  0  0  0  0  0  0
  -25.5594  -26.5871   18.5498 C   0  0  0  0  0  0  0  0  0  0  0  0
  -19.7089  -29.5636   22.9193 C   0  0  0  0  0  0  0  0  0  0  0  0
  -23.9445  -27.9656   17.9779 C   0  0  0  0  0  0  0  0  0  0  0  0
  -24.3376  -26.1235   16.3346 C   0  0  0  0  0  0  0  0  0  0  0  0
  -19.5884  -25.2991   20.7209 C   0  0  0  0  0  0  0  0  0  0  0  0
  -18.8527  -26.1724   21.6972 C   0  0  0  0  0  0  0  0  0  0  0  0
  -28.1672  -17.7675   19.8429 C   0  0  0  0  0  0  0  0  0  0  0  0
  -21.1055  -23.2369   20.5829 C   0  0  0  0  0  0  0  0  0  0  0  0
  -26.4394  -15.0276   20.0148 C   0  0  0  0  0  0  0  0  0  0  0  0
  -23.3967  -13.5434   20.4466 C   0  0  0  0  0  0  0  0  0  0  0  0
  -22.0596  -30.4652   22.8318 C   0  0  0  0  0  0  0  0  0  0  0  0
  -33.1861  -17.2223   19.0876 C   0  0  0  0  0  0  0  0  0  0  0  0
  -26.9248  -18.0914   22.0126 C   0  0  0  0  0  0  0  0  0  0  0  0
  -25.1309  -17.1781   19.8463 C   0  0  0  0  0  0  0  0  0  0  0  0
  -31.9297  -16.4664   18.6629 C   0  0  0  0  0  0  0  0  0  0  0  0
  -24.9838  -31.6130   21.1559 C   0  0  0  0  0  0  0  0  0  0  0  0
  -30.8918  -17.4310   18.0979 C   0  0  0  0  0  0  0  0  0  0  0  0
  -25.3383  -30.4598   20.2144 C   0  0  0  0  0  0  0  0  0  0  0  0
  -24.4354  -31.1083   22.4894 C   0  0  0  0  0  0  0  0  0  0  0  0
  -23.6662  -29.0156   21.4414 C   0  0  0  0  0  0  0  0  0  0  0  0
  -30.4572  -18.4544   19.1539 C   0  0  1  0  0  0  0  0  0  0  0  0
  -27.3910  -17.1053   20.9459 C   0  0  1  0  0  0  0  0  0  0  0  0
  -24.1620  -29.4758   20.0607 C   0  0  2  0  0  0  0  0  0  0  0  0
  -22.2936  -11.2900   20.4971 C   0  0  0  0  0  0  0  0  0  0  0  0
  -26.5959  -14.8854   16.9710 C   0  0  0  0  0  0  0  0  0  0  0  0
  -24.7319  -13.2147   17.0227 C   0  0  0  0  0  0  0  0  0  0  0  0
  -26.9030  -12.6932   18.1349 C   0  0  0  0  0  0  0  0  0  0  0  0
  -22.5158  -13.9087   23.2483 C   0  0  0  0  0  0  0  0  0  0  0  0
  -20.7916  -24.5609   21.2509 C   0  0  0  0  0  0  0  0  0  0  0  0
  -22.3336  -22.5144   21.1017 C   0  0  0  0  0  0  0  0  0  1  0  0
  -25.3524  -14.3949   19.1798 C   0  0  1  0  0  0  0  0  0  0  0  0
  -22.9571  -12.3828   21.3207 C   0  0  2  0  0  0  0  0  0  0  0  0
  -25.8925  -13.8228   17.8388 C   0  0  0  0  0  0  0  0  0  0  0  0
  -19.3066  -30.6053   23.6813 N   0  0  0  0  0  0  0  0  0  0  0  0
  -25.5137  -27.4792   19.5428 N   0  0  0  0  0  0  0  0  0  0  0  0
  -24.5221  -28.3044   19.1661 N   0  0  0  0  0  0  0  0  0  0  0  0
  -26.2809  -16.3878   20.3156 N   0  0  0  0  0  0  0  0  0  0  0  0
  -23.3211  -30.1847   22.2654 N   0  0  0  0  0  0  0  0  0  0  0  0
  -22.9324  -28.6881   17.4526 N   0  0  0  0  0  0  0  0  0  0  0  0
  -25.1090  -24.9896   16.0454 N   0  0  0  0  0  0  0  0  0  0  0  0
  -19.3372  -27.4628   21.7105 N   0  0  0  0  0  0  0  0  0  0  0  0
  -21.0692  -29.5332   22.5236 N   0  0  0  0  0  0  0  0  0  0  0  0
  -29.5249  -17.8554   20.0846 N   0  0  0  0  0  0  0  0  0  0  0  0
  -24.7052  -13.4052   20.0342 N   0  0  0  0  0  0  0  0  0  0  0  0
  -21.9870  -12.8490   22.3514 N   0  3  0  0  0  0  0  0  0  0  0  0
  -23.4526  -26.4871   15.5233 O   0  0  0  0  0  0  0  0  0  0  0  0
  -19.1690  -25.2694   19.5738 O   0  0  0  0  0  0  0  0  0  0  0  0
  -17.9357  -25.6522   22.3110 O   0  0  0  0  0  0  0  0  0  0  0  0
  -27.5781  -18.1678   18.8456 O   0  0  0  0  0  0  0  0  0  0  0  0
  -20.4016  -22.7576   19.6957 O   0  0  0  0  0  0  0  0  0  0  0  0
  -27.3902  -14.3385   20.3925 O   0  0  0  0  0  0  0  0  0  0  0  0
  -22.6526  -14.4772   20.1554 O   0  0  0  0  0  0  0  0  0  0  0  0
  -21.8650  -31.4733   23.5157 O   0  0  0  0  0  0  0  0  0  0  0  0
  -29.2796  -22.4151   18.6936 O   0  0  0  0  0  0  0  0  0  0  0  0
  -22.5237  -21.2793   20.4127 O   0  0  0  0  0  0  0  0  0  1  0  0
  -32.0652  -21.3021   14.0669 F   0  0  0  0  0  0  0  0  0  0  0  0
  -32.0384  -22.5793   18.6247 F   0  0  0  0  0  0  0  0  0  0  0  0
  -15.8158  -29.7041   24.0830 F   0  0  0  0  0  0  0  0  0  0  0  0
  -16.6885  -27.6149   22.5377 F   0  0  0  0  0  0  0  0  0  0  0  0
  1  2  1  0  0  0  0
  1  5  2  0  0  0  0
  2  6  2  0  0  0  0
  3  8  2  0  0  0  0
  3 16  1  0  0  0  0
  4  9  1  0  0  0  0
  4 16  2  0  0  0  0
  5 18  1  0  0  0  0
  6 20  1  0  0  0  0
  7 10  2  0  0  0  0
  7 19  1  0  0  0  0
  8 23  1  0  0  0  0
  9 23  2  0  0  0  0
 10 24  1  0  0  0  0
 11 12  2  0  0  0  0
 11 25  1  0  0  0  0
 12 26  1  0  0  0  0
 13 21  1  0  0  0  0
 13 24  2  0  0  0  0
 14 26  2  0  0  0  0
 14 27  1  0  0  0  0
 15 28  2  0  0  0  0
 15 63  1  0  0  0  0
 16 30  1  0  0  0  0
 17 30  1  0  0  0  0
 17 32  2  0  0  0  0
 17 33  1  0  0  0  0
 18 20  2  0  0  0  0
 18 41  1  0  0  0  0
 19 21  2  0  0  0  0
 19 42  1  0  0  0  0
 20 50  1  0  0  0  0
 21 43  1  0  0  0  0
 22 29  2  0  0  0  0
 22 31  1  0  0  0  0
 22 70  1  0  0  0  0
 23 83  1  0  0  0  0
 24 84  1  0  0  0  0
 25 27  2  0  0  0  0
 25 83  1  0  0  0  0
 26 85  1  0  0  0  0
 27 86  1  0  0  0  0
 28 29  1  0  0  0  0
 28 87  1  0  0  0  0
 29 88  1  0  0  0  0
 30 64  2  0  0  0  0
 31 63  2  0  0  0  0
 31 71  1  0  0  0  0
 32 65  1  0  0  0  0
 32 68  1  0  0  0  0
 33 69  1  0  0  0  0
 33 75  2  0  0  0  0
 34 35  1  0  0  0  0
 34 58  1  0  0  0  0
 34 76  2  0  0  0  0
 35 70  1  0  0  0  0
 35 77  2  0  0  0  0
 36 51  1  0  0  0  0
 36 72  1  0  0  0  0
 36 78  2  0  0  0  0
 37 58  1  0  0  0  0
 37 59  1  0  0  0  0
 37 79  2  0  0  0  0
 38 60  1  0  0  0  0
 38 66  1  0  0  0  0
 38 80  2  0  0  0  0
 39 61  1  0  0  0  0
 39 73  1  0  0  0  0
 39 81  2  0  0  0  0
 40 67  1  0  0  0  0
 40 71  1  0  0  0  0
 40 82  2  0  0  0  0
 41 44  1  0  0  0  0
 42 51  1  0  0  0  0
 43 66  1  0  0  0  0
 44 46  1  0  0  0  0
 45 47  1  0  0  0  0
 45 48  1  0  0  0  0
 46 50  1  0  0  0  0
 47 52  1  0  0  0  0
 48 67  1  0  0  0  0
 49 52  1  0  0  0  0
 49 67  1  0  0  0  0
 50 72  1  0  0  0  0
 51 66  1  0  0  0  0
 52 65  1  0  0  0  0
 53 61  1  0  0  0  0
 54 62  1  0  0  0  0
 55 62  1  0  0  0  0
 56 62  1  0  0  0  0
 57 74  1  0  0  0  0
 59 84  1  0  0  0  0
 60 62  1  0  0  0  0
 60 73  1  0  0  0  0
 61 74  1  0  0  0  0
 64 65  1  0  0  0  0
M  CHG  1  74   1
M  ISO  4  40 100  59 101  71 100  84 101
M  END
> <Batch ID>
0174

> <Smiles>
CNC(C)C(=O)NC(C(=O)N1Cc2cc([101O:1][101CH2:1]C(=O)CC(=O)C(=O)Nc3c([100NH:0][100C:0](=O)N4CCCC(n5nc(-c6ccc(Oc7ccc(F)cc7F)cc6)c(C(N)=O)c5N)C4)ncc(F)c3F)ccc2CC1C(=O)NC1CCCc2ccccc21)C(C)(C)C

> <Shape>
0.234

> <Color>
0.083

> <Negative vol penalty>
0.000

$$$$

  -OEChem-04052304333D

 90 98  0     1  0  0  0  0  0999 V2000
  -19.0721  -23.7117   16.0704 C   0  0  0  0  0  0  0  0  0  0  0  0
  -19.9404  -23.7537   17.1565 C   0  0  0  0  0  0  0  0  0  0  0  0
  -23.1148   -9.8100   20.6767 C   0  0  0  0  0  0  0  0  0  0  0  0
  -23.7377  -10.4268   22.9281 C   0  0  0  0  0  0  0  0  0  0  0  0
  -18.3857  -24.8618   15.6832 C   0  0  0  0  0  0  0  0  0  0  0  0
  -20.1237  -24.9463   17.8554 C   0  0  0  0  0  0  0  0  0  0  0  0
  -20.0437  -24.2879   22.8759 C   0  0  0  0  0  0  0  0  0  0  0  0
  -32.3849  -18.3235   22.6134 C   0  0  0  0  0  0  0  0  0  0  0  0
  -31.8610  -17.2216   21.9375 C   0  0  0  0  0  0  0  0  0  0  0  0
  -22.3696   -8.7416   21.1756 C   0  0  0  0  0  0  0  0  0  0  0  0
  -22.9924   -9.3585   23.4270 C   0  0  0  0  0  0  0  0  0  0  0  0
  -21.1951  -23.7718   23.4688 C   0  0  0  0  0  0  0  0  0  0  0  0
  -19.3492   -8.2712   22.6209 C   0  0  0  0  0  0  0  0  0  0  0  0
  -18.0738   -8.0684   22.0938 C   0  0  0  0  0  0  0  0  0  0  0  0
  -21.8382  -25.9971   24.1425 C   0  0  0  0  0  0  0  0  0  0  0  0
  -29.6373  -18.1378   22.1677 C   0  0  0  0  0  0  0  0  0  0  0  0
  -18.7311   -5.8651   21.3516 C   0  0  0  0  0  0  0  0  0  0  0  0
  -23.7989  -10.6526   21.5530 C   0  0  0  0  0  0  0  0  0  0  0  0
  -24.1208  -13.0694   20.8026 C   0  0  0  0  0  0  0  0  0  0  0  0
  -18.5533  -26.0668   16.3837 C   0  0  0  0  0  0  0  0  0  0  0  0
  -19.7858  -25.6660   22.9024 C   0  0  0  0  0  0  0  0  0  0  0  0
  -19.4399  -26.1140   17.4764 C   0  0  0  0  0  0  0  0  0  0  0  0
  -20.6814  -26.5278   23.5514 C   0  0  0  0  0  0  0  0  0  0  0  0
  -31.5351  -19.3326   23.0665 C   0  0  0  0  0  0  0  0  0  0  0  0
  -30.4872  -17.1287   21.7147 C   0  0  0  0  0  0  0  0  0  0  0  0
  -30.1613  -19.2397   22.8437 C   0  0  0  0  0  0  0  0  0  0  0  0
  -22.3083   -8.5159   22.5507 C   0  0  0  0  0  0  0  0  0  0  0  0
  -22.0941  -24.6268   24.0997 C   0  0  0  0  0  0  0  0  0  0  0  0
  -20.3156   -7.2710   22.5133 C   0  0  0  0  0  0  0  0  0  0  0  0
  -17.7647   -6.8653   21.4592 C   0  0  0  0  0  0  0  0  0  0  0  0
  -20.0065   -6.0680   21.8787 C   0  0  0  0  0  0  0  0  0  0  0  0
  -24.5694  -11.7560   21.0382 C   0  0  0  0  0  0  0  0  0  0  0  0
  -25.2246  -13.7275   20.3178 C   0  0  0  0  0  0  0  0  0  0  0  0
  -25.9936  -21.7293   23.7042 C   0  0  0  0  0  0  0  0  0  0  0  0
  -22.8224  -13.6433   21.0041 C   0  0  0  0  0  0  0  0  0  0  0  0
  -27.3244  -21.5506   23.7709 C   0  0  0  0  0  0  0  0  0  0  0  0
  -25.2794  -22.9133   24.2722 C   0  0  0  0  0  0  0  0  0  0  0  0
  -27.9024  -20.3057   23.1531 C   0  0  0  0  0  0  0  0  0  0  0  0
  -19.4546  -27.9290   20.6949 C   0  0  0  0  0  0  0  0  0  0  0  0
  -18.6605  -29.7611   23.2513 C   0  0  0  0  0  0  0  0  0  0  0  0
  -18.8720  -30.2865   26.6167 C   0  0  0  0  0  0  0  0  0  0  0  0
  -30.6596  -14.9212   20.5133 C   0  0  0  0  0  0  0  0  0  0  0  0
  -17.8258  -27.2956   15.8987 C   0  0  0  0  0  0  0  0  0  0  0  0
  -18.5258  -26.2038   22.2814 C   0  0  0  0  0  0  0  0  0  0  0  0
  -20.4406  -28.0127   23.6253 C   0  0  0  0  0  0  0  0  0  0  0  0
  -17.7906  -28.4267   16.9233 C   0  0  0  0  0  0  0  0  0  0  0  0
  -29.7125  -11.9513   18.7929 C   0  0  0  0  0  0  0  0  0  0  0  0
  -19.1729  -28.6382   17.5326 C   0  0  0  0  0  0  0  0  0  0  0  0
  -28.2531  -11.7437   19.2043 C   0  0  0  0  0  0  0  0  0  0  0  0
  -30.5525  -12.5051   19.9425 C   0  0  0  0  0  0  0  0  0  0  0  0
  -28.5598  -13.5123   20.9835 C   0  0  0  0  0  0  0  0  0  0  0  0
  -19.6465  -27.3827   18.2750 C   0  0  1  0  0  0  0  0  0  0  0  0
  -18.6215  -27.6830   21.9209 C   0  0  1  0  0  0  0  0  0  0  0  0
  -27.6602  -13.0168   19.8394 C   0  0  2  0  0  0  0  0  0  0  0  0
  -18.1518  -31.8880   28.4095 C   0  0  0  0  0  0  0  0  0  0  0  0
  -20.7967  -31.7395   22.3388 C   0  0  0  0  0  0  0  0  0  0  0  0
  -20.6964  -32.7882   24.6100 C   0  0  0  0  0  0  0  0  0  0  0  0
  -18.6766  -32.7921   23.1461 C   0  0  0  0  0  0  0  0  0  0  0  0
  -17.3384  -28.1901   28.0351 C   0  0  0  0  0  0  0  0  0  0  0  0
  -23.7755  -22.9449   24.1023 C   0  0  0  0  0  0  0  0  0  1  0  0
  -19.4232  -30.6296   24.2223 C   0  0  1  0  0  0  0  0  0  0  0  0
  -17.8125  -30.6126   27.6538 C   0  0  2  0  0  0  0  0  0  0  0  0
  -32.1242  -20.5013   23.7875 C   0  0  0  0  0  0  0  0  0  0  0  0
  -19.9040  -31.9596   23.5764 C   0  0  0  0  0  0  0  0  0  0  0  0
  -25.8577  -11.5877   20.7284 N   0  0  0  0  0  0  0  0  0  0  0  0
  -26.2280  -12.8041   20.2931 N   0  0  0  0  0  0  0  0  0  0  0  0
  -19.1976  -28.4910   22.9977 N   0  0  0  0  0  0  0  0  0  0  0  0
  -29.9319  -13.7126   20.4916 N   0  0  0  0  0  0  0  0  0  0  0  0
  -25.4250  -15.0001   19.9145 N   0  0  0  0  0  0  0  0  0  0  0  0
  -21.8019  -12.8263   21.5095 N   0  0  0  0  0  0  0  0  0  0  0  0
  -29.2827  -20.2534   23.2959 N   0  0  0  0  0  0  0  0  0  0  0  0
  -29.9554  -16.0091   21.0281 N   0  0  0  0  0  0  0  0  0  0  0  0
  -18.9954  -27.2818   19.5636 N   0  0  0  0  0  0  0  0  0  0  0  0
  -18.5539  -30.8077   25.3804 N   0  0  0  0  0  0  0  0  0  0  0  0
  -17.6922  -29.5006   28.6387 N   0  3  0  0  0  0  0  0  0  0  0  0
  -22.5703  -14.8407   20.7283 O   0  0  0  0  0  0  0  0  0  0  0  0
  -25.8667  -23.8041   24.8807 O   0  0  0  0  0  0  0  0  0  0  0  0
  -27.1839  -19.4768   22.6048 O   0  0  0  0  0  0  0  0  0  0  0  0
  -20.4401  -28.6534   20.7694 O   0  0  0  0  0  0  0  0  0  0  0  0
  -17.6224  -30.1909   22.7421 O   0  0  0  0  0  0  0  0  0  0  0  0
  -19.8826  -29.6378   26.8780 O   0  0  0  0  0  0  0  0  0  0  0  0
  -31.8126  -14.9924   20.0800 O   0  0  0  0  0  0  0  0  0  0  0  0
  -28.2063  -22.4295   24.3632 O   0  0  0  0  0  0  0  0  0  0  0  0
  -21.5810   -7.4737   23.0379 O   0  0  0  0  0  0  0  0  0  0  0  0
  -23.2191  -24.1258   24.6787 O   0  0  0  0  0  0  0  0  0  1  0  0
  -16.5395   -6.6700   20.9544 F   0  0  0  0  0  0  0  0  0  0  0  0
  -20.9303   -5.1030   21.7734 F   0  0  0  0  0  0  0  0  0  0  0  0
  -33.4810  -20.4328   23.9188 F   0  0  0  0  0  0  0  0  0  0  0  0
  -31.8832  -21.6964   23.1743 F   0  0  0  0  0  0  0  0  0  0  0  0
  -31.6376  -20.6325   25.0548 F   0  0  0  0  0  0  0  0  0  0  0  0
  1  2  1  0  0  0  0
  1  5  2  0  0  0  0
  2  6  2  0  0  0  0
  3 10  2  0  0  0  0
  3 18  1  0  0  0  0
  4 11  1  0  0  0  0
  4 18  2  0  0  0  0
  5 20  1  0  0  0  0
  6 22  1  0  0  0  0
  7 12  2  0  0  0  0
  7 21  1  0  0  0  0
  8  9  2  0  0  0  0
  8 24  1  0  0  0  0
  9 25  1  0  0  0  0
 10 27  1  0  0  0  0
 11 27  2  0  0  0  0
 12 28  1  0  0  0  0
 13 14  2  0  0  0  0
 13 29  1  0  0  0  0
 14 30  1  0  0  0  0
 15 23  1  0  0  0  0
 15 28  2  0  0  0  0
 16 25  2  0  0  0  0
 16 26  1  0  0  0  0
 17 30  2  0  0  0  0
 17 31  1  0  0  0  0
 18 32  1  0  0  0  0
 19 32  1  0  0  0  0
 19 33  2  0  0  0  0
 19 35  1  0  0  0  0
 20 22  2  0  0  0  0
 20 43  1  0  0  0  0
 21 23  2  0  0  0  0
 21 44  1  0  0  0  0
 22 52  1  0  0  0  0
 23 45  1  0  0  0  0
 24 26  2  0  0  0  0
 24 63  1  0  0  0  0
 25 72  1  0  0  0  0
 26 71  1  0  0  0  0
 27 84  1  0  0  0  0
 28 85  1  0  0  0  0
 29 31  2  0  0  0  0
 29 84  1  0  0  0  0
 30 86  1  0  0  0  0
 31 87  1  0  0  0  0
 32 65  2  0  0  0  0
 33 66  1  0  0  0  0
 33 69  1  0  0  0  0
 34 36  2  0  0  0  0
 34 37  1  0  0  0  0
 35 70  1  0  0  0  0
 35 76  2  0  0  0  0
 36 38  1  0  0  0  0
 36 83  1  0  0  0  0
 37 60  1  0  0  0  0
 37 77  2  0  0  0  0
 38 71  1  0  0  0  0
 38 78  2  0  0  0  0
 39 53  1  0  0  0  0
 39 73  1  0  0  0  0
 39 79  2  0  0  0  0
 40 61  1  0  0  0  0
 40 67  1  0  0  0  0
 40 80  2  0  0  0  0
 41 62  1  0  0  0  0
 41 74  1  0  0  0  0
 41 81  2  0  0  0  0
 42 68  1  0  0  0  0
 42 72  1  0  0  0  0
 42 82  2  0  0  0  0
 43 46  1  0  0  0  0
 44 53  1  0  0  0  0
 45 67  1  0  0  0  0
 46 48  1  0  0  0  0
 47 49  1  0  0  0  0
 47 50  1  0  0  0  0
 48 52  1  0  0  0  0
 49 54  1  0  0  0  0
 50 68  1  0  0  0  0
 51 54  1  0  0  0  0
 51 68  1  0  0  0  0
 52 73  1  0  0  0  0
 53 67  1  0  0  0  0
 54 66  1  0  0  0  0
 55 62  1  0  0  0  0
 56 64  1  0  0  0  0
 57 64  1  0  0  0  0
 58 64  1  0  0  0  0
 59 75  1  0  0  0  0
 60 85  1  0  0  0  0
 61 64  1  0  0  0  0
 61 74  1  0  0  0  0
 62 75  1  0  0  0  0
 63 88  1  0  0  0  0
 63 89  1  0  0  0  0
 63 90  1  0  0  0  0
 65 66  1  0  0  0  0
M  CHG  1  75   1
M  ISO  4  42 100  60 101  72 100  85 101
M  END
> <Batch ID>
0174

> <Smiles>
CNC(C)C(=O)NC(C(=O)N1Cc2cc([101O:1][101CH2:1]C(=O)CC(=O)C(=O)Nc3cc([100NH:0][100C:0](=O)N4CCCC(n5nc(-c6ccc(Oc7ccc(F)cc7F)cc6)c(C(N)=O)c5N)C4)ccc3C(F)(F)F)ccc2CC1C(=O)NC1CCCc2ccccc21)C(C)(C)C

> <Shape>
0.216

> <Color>
0.161

> <Negative vol penalty>
0.000

$$$$

  -OEChem-04052304333D

 88 96  0     1  0  0  0  0  0999 V2000
  -19.3134  -24.6640   20.3748 C   0  0  0  0  0  0  0  0  0  0  0  0
  -20.2788  -24.3398   21.3225 C   0  0  0  0  0  0  0  0  0  0  0  0
  -23.0246   -9.9407   19.9220 C   0  0  0  0  0  0  0  0  0  0  0  0
  -23.8842   -9.7940   22.1752 C   0  0  0  0  0  0  0  0  0  0  0  0
  -18.6557  -25.8915   20.4431 C   0  0  0  0  0  0  0  0  0  0  0  0
  -20.5879  -25.2434   22.3386 C   0  0  0  0  0  0  0  0  0  0  0  0
  -20.9347  -23.0208   26.8757 C   0  0  0  0  0  0  0  0  0  0  0  0
  -22.2733   -8.7847   20.1333 C   0  0  0  0  0  0  0  0  0  0  0  0
  -23.1328   -8.6379   22.3865 C   0  0  0  0  0  0  0  0  0  0  0  0
  -22.1070  -22.3190   27.1530 C   0  0  0  0  0  0  0  0  0  0  0  0
  -21.1629   -5.8507   23.6390 C   0  0  0  0  0  0  0  0  0  0  0  0
  -20.4580   -5.7446   24.8380 C   0  0  0  0  0  0  0  0  0  0  0  0
  -22.9252  -24.1997   28.4230 C   0  0  0  0  0  0  0  0  0  0  0  0
  -30.0865  -17.2208   23.2745 C   0  0  0  0  0  0  0  0  0  0  0  0
  -32.2284  -16.3808   22.5374 C   0  0  0  0  0  0  0  0  0  0  0  0
  -19.2151   -7.7409   24.2838 C   0  0  0  0  0  0  0  0  0  0  0  0
  -23.8301  -10.4453   20.9429 C   0  0  0  0  0  0  0  0  0  0  0  0
  -24.2084  -12.9681   20.9639 C   0  0  0  0  0  0  0  0  0  0  0  0
  -18.9500  -26.8066   21.4662 C   0  0  0  0  0  0  0  0  0  0  0  0
  -20.7531  -24.3236   27.3616 C   0  0  0  0  0  0  0  0  0  0  0  0
  -19.9345  -26.4848   22.4199 C   0  0  0  0  0  0  0  0  0  0  0  0
  -21.7486  -24.9149   28.1526 C   0  0  0  0  0  0  0  0  0  0  0  0
  -32.1189  -18.0276   24.3018 C   0  0  0  0  0  0  0  0  0  0  0  0
  -30.8370  -16.3918   22.4407 C   0  0  0  0  0  0  0  0  0  0  0  0
  -30.7275  -18.0387   24.2050 C   0  0  0  0  0  0  0  0  0  0  0  0
  -22.3274   -8.1333   21.3656 C   0  0  0  0  0  0  0  0  0  0  0  0
  -23.1038  -22.9096   27.9243 C   0  0  0  0  0  0  0  0  0  0  0  0
  -20.8940   -6.9019   22.7625 C   0  0  0  0  0  0  0  0  0  0  0  0
  -19.4841   -6.6897   25.1603 C   0  0  0  0  0  0  0  0  0  0  0  0
  -32.8694  -17.1987   23.4680 C   0  0  0  0  0  0  0  0  0  0  0  0
  -19.9201   -7.8470   23.0848 C   0  0  0  0  0  0  0  0  0  0  0  0
  -24.6069  -11.6392   20.7251 C   0  0  0  0  0  0  0  0  0  0  0  0
  -25.2960  -13.7235   20.5991 C   0  0  0  0  0  0  0  0  0  0  0  0
  -26.7929  -20.2095   26.2336 C   0  0  0  0  0  0  0  0  0  0  0  0
  -22.9663  -13.4743   21.4702 C   0  0  0  0  0  0  0  0  0  0  0  0
  -28.1130  -19.9915   26.1022 C   0  0  0  0  0  0  0  0  0  0  0  0
  -26.1971  -21.1652   27.2166 C   0  0  0  0  0  0  0  0  0  0  0  0
  -28.5657  -18.9968   25.0672 C   0  0  0  0  0  0  0  0  0  0  0  0
  -20.3399  -27.1785   26.0265 C   0  0  0  0  0  0  0  0  0  0  0  0
  -19.8812  -28.1161   29.0978 C   0  0  0  0  0  0  0  0  0  0  0  0
  -20.4282  -27.5370   32.4162 C   0  0  0  0  0  0  0  0  0  0  0  0
  -30.7812  -14.6800   20.5934 C   0  0  0  0  0  0  0  0  0  0  0  0
  -18.2466  -28.1407   21.4713 C   0  0  0  0  0  0  0  0  0  0  0  0
  -19.4714  -25.0571   27.0760 C   0  0  0  0  0  0  0  0  0  0  0  0
  -21.5939  -26.3035   28.7151 C   0  0  0  0  0  0  0  0  0  0  0  0
  -18.3651  -28.8867   22.7979 C   0  0  0  0  0  0  0  0  0  0  0  0
  -29.5242  -12.4344   18.1328 C   0  0  0  0  0  0  0  0  0  0  0  0
  -19.8067  -28.8643   23.2960 C   0  0  0  0  0  0  0  0  0  0  0  0
  -28.1000  -12.1366   18.6075 C   0  0  0  0  0  0  0  0  0  0  0  0
  -30.4947  -12.5750   19.3042 C   0  0  0  0  0  0  0  0  0  0  0  0
  -28.6624  -13.2383   20.8114 C   0  0  0  0  0  0  0  0  0  0  0  0
  -20.2798  -27.4282   23.5517 C   0  0  1  0  0  0  0  0  0  0  0  0
  -19.6112  -26.5718   27.1921 C   0  0  1  0  0  0  0  0  0  0  0  0
  -27.6362  -13.1525   19.6698 C   0  0  2  0  0  0  0  0  0  0  0  0
  -32.8290  -18.8936   25.2914 C   0  0  0  0  0  0  0  0  0  0  0  0
  -19.9608  -28.4979   34.6868 C   0  0  0  0  0  0  0  0  0  0  0  0
  -22.0255  -30.2377   28.6386 C   0  0  0  0  0  0  0  0  0  0  0  0
  -22.1895  -30.5096   31.1221 C   0  0  0  0  0  0  0  0  0  0  0  0
  -20.0468  -31.0216   29.9519 C   0  0  0  0  0  0  0  0  0  0  0  0
  -18.9233  -25.1299   33.2530 C   0  0  0  0  0  0  0  0  0  0  0  0
  -24.6876  -21.2803   27.2224 C   0  0  0  0  0  0  0  0  0  1  0  0
  -20.7744  -28.6139   30.2083 C   0  0  1  0  0  0  0  0  0  0  0  0
  -19.4870  -27.5372   33.6073 C   0  0  2  0  0  0  0  0  0  0  0  0
  -21.2631  -30.0702   29.9682 C   0  0  0  0  0  0  0  0  0  0  0  0
  -25.8505  -11.5520   20.2455 N   0  0  0  0  0  0  0  0  0  0  0  0
  -26.2428  -12.8357   20.1800 N   0  0  0  0  0  0  0  0  0  0  0  0
  -20.3254  -26.9824   28.4027 N   0  0  0  0  0  0  0  0  0  0  0  0
  -29.9919  -13.5568   20.2676 N   0  0  0  0  0  0  0  0  0  0  0  0
  -25.5251  -15.0538   20.5991 N   0  0  0  0  0  0  0  0  0  0  0  0
  -21.9551  -12.5601   21.7956 N   0  0  0  0  0  0  0  0  0  0  0  0
  -29.9486  -18.8733   25.0423 N   0  0  0  0  0  0  0  0  0  0  0  0
  -30.1858  -15.5611   21.4954 N   0  0  0  0  0  0  0  0  0  0  0  0
  -19.7454  -26.9353   24.8030 N   0  0  0  0  0  0  0  0  0  0  0  0
  -20.0257  -28.4315   31.4471 N   0  0  0  0  0  0  0  0  0  0  0  0
  -19.3994  -26.1721   34.1986 N   0  3  0  0  0  0  0  0  0  0  0  0
  -22.7533  -14.7021   21.6139 O   0  0  0  0  0  0  0  0  0  0  0  0
  -26.8838  -21.8033   28.0104 O   0  0  0  0  0  0  0  0  0  0  0  0
  -27.7573  -18.4009   24.3633 O   0  0  0  0  0  0  0  0  0  0  0  0
  -21.3648  -27.8209   26.2228 O   0  0  0  0  0  0  0  0  0  0  0  0
  -18.8248  -28.7071   28.8605 O   0  0  0  0  0  0  0  0  0  0  0  0
  -21.4230  -26.8181   32.3536 O   0  0  0  0  0  0  0  0  0  0  0  0
  -31.8914  -14.8618   20.0870 O   0  0  0  0  0  0  0  0  0  0  0  0
  -29.0905  -20.6174   26.8464 O   0  0  0  0  0  0  0  0  0  0  0  0
  -21.5941   -7.0053   21.5722 O   0  0  0  0  0  0  0  0  0  0  0  0
  -24.2493  -22.2271   28.1959 O   0  0  0  0  0  0  0  0  0  1  0  0
  -18.8062   -6.5868   26.3110 F   0  0  0  0  0  0  0  0  0  0  0  0
  -34.2070  -17.1793   23.5540 F   0  0  0  0  0  0  0  0  0  0  0  0
  -19.6565   -8.8584   22.2462 F   0  0  0  0  0  0  0  0  0  0  0  0
  1  2  1  0  0  0  0
  1  5  2  0  0  0  0
  2  6  2  0  0  0  0
  3  8  2  0  0  0  0
  3 17  1  0  0  0  0
  4  9  1  0  0  0  0
  4 17  2  0  0  0  0
  5 19  1  0  0  0  0
  6 21  1  0  0  0  0
  7 10  2  0  0  0  0
  7 20  1  0  0  0  0
  8 26  1  0  0  0  0
  9 26  2  0  0  0  0
 10 27  1  0  0  0  0
 11 12  2  0  0  0  0
 11 28  1  0  0  0  0
 12 29  1  0  0  0  0
 13 22  1  0  0  0  0
 13 27  2  0  0  0  0
 14 24  2  0  0  0  0
 14 25  1  0  0  0  0
 15 24  1  0  0  0  0
 15 30  2  0  0  0  0
 16 29  2  0  0  0  0
 16 31  1  0  0  0  0
 17 32  1  0  0  0  0
 18 32  1  0  0  0  0
 18 33  2  0  0  0  0
 18 35  1  0  0  0  0
 19 21  2  0  0  0  0
 19 43  1  0  0  0  0
 20 22  2  0  0  0  0
 20 44  1  0  0  0  0
 21 52  1  0  0  0  0
 22 45  1  0  0  0  0
 23 25  2  0  0  0  0
 23 30  1  0  0  0  0
 23 55  1  0  0  0  0
 24 72  1  0  0  0  0
 25 71  1  0  0  0  0
 26 84  1  0  0  0  0
 27 85  1  0  0  0  0
 28 31  2  0  0  0  0
 28 84  1  0  0  0  0
 29 86  1  0  0  0  0
 30 87  1  0  0  0  0
 31 88  1  0  0  0  0
 32 65  2  0  0  0  0
 33 66  1  0  0  0  0
 33 69  1  0  0  0  0
 34 36  2  0  0  0  0
 34 37  1  0  0  0  0
 35 70  1  0  0  0  0
 35 76  2  0  0  0  0
 36 38  1  0  0  0  0
 36 83  1  0  0  0  0
 37 61  1  0  0  0  0
 37 77  2  0  0  0  0
 38 71  1  0  0  0  0
 38 78  2  0  0  0  0
 39 53  1  0  0  0  0
 39 73  1  0  0  0  0
 39 79  2  0  0  0  0
 40 62  1  0  0  0  0
 40 67  1  0  0  0  0
 40 80  2  0  0  0  0
 41 63  1  0  0  0  0
 41 74  1  0  0  0  0
 41 81  2  0  0  0  0
 42 68  1  0  0  0  0
 42 72  1  0  0  0  0
 42 82  2  0  0  0  0
 43 46  1  0  0  0  0
 44 53  1  0  0  0  0
 45 67  1  0  0  0  0
 46 48  1  0  0  0  0
 47 49  1  0  0  0  0
 47 50  1  0  0  0  0
 48 52  1  0  0  0  0
 49 54  1  0  0  0  0
 50 68  1  0  0  0  0
 51 54  1  0  0  0  0
 51 68  1  0  0  0  0
 52 73  1  0  0  0  0
 53 67  1  0  0  0  0
 54 66  1  0  0  0  0
 56 63  1  0  0  0  0
 57 64  1  0  0  0  0
 58 64  1  0  0  0  0
 59 64  1  0  0  0  0
 60 75  1  0  0  0  0
 61 85  1  0  0  0  0
 62 64  1  0  0  0  0
 62 74  1  0  0  0  0
 63 75  1  0  0  0  0
 65 66  1  0  0  0  0
M  CHG  1  75   1
M  ISO  4  42 100  61 101  72 100  85 101
M  END
> <Batch ID>
0174

> <Smiles>
CNC(C)C(=O)NC(C(=O)N1Cc2cc([101O:1][101CH2:1]C(=O)CC(=O)C(=O)Nc3cc([100NH:0][100C:0](=O)N4CCCC(n5nc(-c6ccc(Oc7ccc(F)cc7F)cc6)c(C(N)=O)c5N)C4)cc(F)c3C)ccc2CC1C(=O)NC1CCCc2ccccc21)C(C)(C)C

> <Shape>
0.211

> <Color>
0.204

> <Negative vol penalty>
0.000

$$$$

  -OEChem-04052304333D

 84 92  0     1  0  0  0  0  0999 V2000
  -18.4894  -23.6280   23.1609 C   0  0  0  0  0  0  0  0  0  0  0  0
  -19.6860  -23.5613   22.4544 C   0  0  0  0  0  0  0  0  0  0  0  0
  -23.5110  -10.0273   22.0727 C   0  0  0  0  0  0  0  0  0  0  0  0
  -24.2782  -11.4095   23.8997 C   0  0  0  0  0  0  0  0  0  0  0  0
  -17.9260  -24.8677   23.4601 C   0  0  0  0  0  0  0  0  0  0  0  0
  -20.3194  -24.7344   22.0458 C   0  0  0  0  0  0  0  0  0  0  0  0
  -25.3068  -24.6554   22.9202 C   0  0  0  0  0  0  0  0  0  0  0  0
  -22.9389   -9.1400   22.9842 C   0  0  0  0  0  0  0  0  0  0  0  0
  -23.7060  -10.5222   24.8112 C   0  0  0  0  0  0  0  0  0  0  0  0
  -26.0975  -23.9276   22.0319 C   0  0  0  0  0  0  0  0  0  0  0  0
  -20.1426   -8.9724   24.8777 C   0  0  0  0  0  0  0  0  0  0  0  0
  -18.8519   -8.5141   24.6135 C   0  0  0  0  0  0  0  0  0  0  0  0
  -26.7018  -25.9725   20.9039 C   0  0  0  0  0  0  0  0  0  0  0  0
  -31.4665  -18.0516   19.7173 C   0  0  0  0  0  0  0  0  0  0  0  0
  -19.6708   -6.2419   24.5543 C   0  0  0  0  0  0  0  0  0  0  0  0
  -29.2236  -18.8184   19.9132 C   0  0  0  0  0  0  0  0  0  0  0  0
  -24.1807  -11.1621   22.5304 C   0  0  0  0  0  0  0  0  0  0  0  0
  -24.1622  -13.2007   20.9970 C   0  0  0  0  0  0  0  0  0  0  0  0
  -18.5578  -26.0569   23.0633 C   0  0  0  0  0  0  0  0  0  0  0  0
  -25.1988  -26.0483   22.8000 C   0  0  0  0  0  0  0  0  0  0  0  0
  -19.7632  -25.9912   22.3388 C   0  0  0  0  0  0  0  0  0  0  0  0
  -25.9111  -26.7159   21.7935 C   0  0  0  0  0  0  0  0  0  0  0  0
  -30.1051  -17.7688   19.7104 C   0  0  0  0  0  0  0  0  0  0  0  0
  -31.8986  -19.3569   19.9238 C   0  0  0  0  0  0  0  0  0  0  0  0
  -23.0364   -9.3874   24.3534 C   0  0  0  0  0  0  0  0  0  0  0  0
  -26.7928  -24.5858   21.0218 C   0  0  0  0  0  0  0  0  0  0  0  0
  -21.1974   -8.0654   24.9801 C   0  0  0  0  0  0  0  0  0  0  0  0
  -18.6160   -7.1489   24.4518 C   0  0  0  0  0  0  0  0  0  0  0  0
  -20.9615   -6.7002   24.8184 C   0  0  0  0  0  0  0  0  0  0  0  0
  -24.7723  -12.0788   21.5893 C   0  0  0  0  0  0  0  0  0  0  0  0
  -30.9368  -20.3355   20.1168 C   0  0  0  0  0  0  0  0  0  0  0  0
  -25.1352  -13.7330   20.1868 C   0  0  0  0  0  0  0  0  0  0  0  0
  -22.8346  -13.7157   21.1642 C   0  0  0  0  0  0  0  0  0  0  0  0
  -31.3107  -21.7489   20.3428 C   0  0  0  0  0  0  0  0  0  0  0  0
  -30.2525  -22.7890   20.5490 C   0  0  0  0  0  0  0  0  0  0  0  0
  -22.8142  -28.0730   22.2361 C   0  0  0  0  0  0  0  0  0  0  0  0
  -25.0916  -30.3081   22.8195 C   0  0  0  0  0  0  0  0  0  0  0  0
  -28.4065  -31.1161   22.8928 C   0  0  0  0  0  0  0  0  0  0  0  0
  -30.4004  -15.3035   19.2845 C   0  0  0  0  0  0  0  0  0  0  0  0
  -17.8864  -27.3724   23.3686 C   0  0  0  0  0  0  0  0  0  0  0  0
  -24.3630  -26.8217   23.7826 C   0  0  0  0  0  0  0  0  0  0  0  0
  -25.8449  -28.2121   21.6342 C   0  0  0  0  0  0  0  0  0  0  0  0
  -18.8131  -28.5769   23.2255 C   0  0  0  0  0  0  0  0  0  0  0  0
  -29.6211  -11.8684   18.7650 C   0  0  0  0  0  0  0  0  0  0  0  0
  -19.6033  -28.4908   21.9236 C   0  0  0  0  0  0  0  0  0  0  0  0
  -28.2400  -11.7092   19.4048 C   0  0  0  0  0  0  0  0  0  0  0  0
  -30.5031  -12.8352   19.5531 C   0  0  0  0  0  0  0  0  0  0  0  0
  -28.5227  -13.9910   20.4538 C   0  0  0  0  0  0  0  0  0  0  0  0
  -20.4932  -27.2421   21.8999 C   0  0  1  0  0  0  0  0  0  0  0  0
  -23.9183  -28.1803   23.2496 C   0  0  1  0  0  0  0  0  0  0  0  0
  -27.5759  -13.0765   19.6594 C   0  0  2  0  0  0  0  0  0  0  0  0
  -29.9575  -33.0296   23.3730 C   0  0  0  0  0  0  0  0  0  0  0  0
  -24.3682  -31.5650   20.1349 C   0  0  0  0  0  0  0  0  0  0  0  0
  -26.5211  -32.8394   20.2303 C   0  0  0  0  0  0  0  0  0  0  0  0
  -24.7788  -33.2050   21.9778 C   0  0  0  0  0  0  0  0  0  0  0  0
  -29.7262  -29.6452   25.0960 C   0  0  0  0  0  0  0  0  0  0  0  0
  -29.7875  -23.5148   19.3073 C   0  0  0  0  0  0  0  0  0  0  0  0
  -28.7060  -24.5403   19.6099 C   0  0  0  0  0  0  0  0  0  1  0  0
  -26.1015  -31.0503   21.9779 C   0  0  1  0  0  0  0  0  0  0  0  0
  -29.2509  -31.8109   23.9459 C   0  0  2  0  0  0  0  0  0  0  0  0
  -25.4423  -32.1365   21.0817 C   0  0  0  0  0  0  0  0  0  0  0  0
  -29.6058  -20.0990   20.1170 N   0  0  0  0  0  0  0  0  0  0  0  0
  -26.0352  -11.9074   21.1893 N   0  0  0  0  0  0  0  0  0  0  0  0
  -26.2264  -12.9287   20.3370 N   0  0  0  0  0  0  0  0  0  0  0  0
  -25.0092  -28.9234   22.6157 N   0  0  0  0  0  0  0  0  0  0  0  0
  -29.8105  -14.1101   19.7522 N   0  0  0  0  0  0  0  0  0  0  0  0
  -33.2738  -19.6523   19.9331 N   0  0  0  0  0  0  0  0  0  0  0  0
  -25.1553  -14.8059   19.3677 N   0  0  0  0  0  0  0  0  0  0  0  0
  -21.9634  -13.0471   22.0350 N   0  0  0  0  0  0  0  0  0  0  0  0
  -29.6348  -16.4486   19.5013 N   0  0  0  0  0  0  0  0  0  0  0  0
  -21.6756  -27.4487   22.7084 N   0  0  0  0  0  0  0  0  0  0  0  0
  -27.1035  -31.5671   22.9039 N   0  0  0  0  0  0  0  0  0  0  0  0
  -30.2824  -30.8778   24.4810 N   0  3  0  0  0  0  0  0  0  0  0  0
  -22.4276  -14.7290   20.5470 O   0  0  0  0  0  0  0  0  0  0  0  0
  -32.4689  -22.1363   20.3901 O   0  0  0  0  0  0  0  0  0  0  0  0
  -29.8757  -22.9883   21.6935 O   0  0  0  0  0  0  0  0  0  0  0  0
  -22.9825  -28.5246   21.1094 O   0  0  0  0  0  0  0  0  0  0  0  0
  -24.4063  -30.9329   23.6329 O   0  0  0  0  0  0  0  0  0  0  0  0
  -28.8586  -30.2618   22.1337 O   0  0  0  0  0  0  0  0  0  0  0  0
  -31.4912  -15.3056   18.7081 O   0  0  0  0  0  0  0  0  0  0  0  0
  -22.4780   -8.5219   25.2432 O   0  0  0  0  0  0  0  0  0  0  0  0
  -27.5648  -23.8778   20.1531 O   0  0  0  0  0  0  0  0  0  1  0  0
  -17.3763   -6.7088   24.1996 F   0  0  0  0  0  0  0  0  0  0  0  0
  -21.9707   -5.8239   24.9169 F   0  0  0  0  0  0  0  0  0  0  0  0
  1  2  1  0  0  0  0
  1  5  2  0  0  0  0
  2  6  2  0  0  0  0
  3  8  2  0  0  0  0
  3 17  1  0  0  0  0
  4  9  1  0  0  0  0
  4 17  2  0  0  0  0
  5 19  1  0  0  0  0
  6 21  1  0  0  0  0
  7 10  2  0  0  0  0
  7 20  1  0  0  0  0
  8 25  1  0  0  0  0
  9 25  2  0  0  0  0
 10 26  1  0  0  0  0
 11 12  2  0  0  0  0
 11 27  1  0  0  0  0
 12 28  1  0  0  0  0
 13 22  1  0  0  0  0
 13 26  2  0  0  0  0
 14 23  2  0  0  0  0
 14 24  1  0  0  0  0
 15 28  2  0  0  0  0
 15 29  1  0  0  0  0
 16 23  1  0  0  0  0
 16 62  2  0  0  0  0
 17 30  1  0  0  0  0
 18 30  1  0  0  0  0
 18 32  2  0  0  0  0
 18 33  1  0  0  0  0
 19 21  2  0  0  0  0
 19 40  1  0  0  0  0
 20 22  2  0  0  0  0
 20 41  1  0  0  0  0
 21 49  1  0  0  0  0
 22 42  1  0  0  0  0
 23 70  1  0  0  0  0
 24 31  2  0  0  0  0
 24 67  1  0  0  0  0
 25 81  1  0  0  0  0
 26 82  1  0  0  0  0
 27 29  2  0  0  0  0
 27 81  1  0  0  0  0
 28 83  1  0  0  0  0
 29 84  1  0  0  0  0
 30 63  2  0  0  0  0
 31 34  1  0  0  0  0
 31 62  1  0  0  0  0
 32 64  1  0  0  0  0
 32 68  1  0  0  0  0
 33 69  1  0  0  0  0
 33 74  2  0  0  0  0
 34 35  1  0  0  0  0
 34 75  2  0  0  0  0
 35 57  1  0  0  0  0
 35 76  2  0  0  0  0
 36 50  1  0  0  0  0
 36 71  1  0  0  0  0
 36 77  2  0  0  0  0
 37 59  1  0  0  0  0
 37 65  1  0  0  0  0
 37 78  2  0  0  0  0
 38 60  1  0  0  0  0
 38 72  1  0  0  0  0
 38 79  2  0  0  0  0
 39 66  1  0  0  0  0
 39 70  1  0  0  0  0
 39 80  2  0  0  0  0
 40 43  1  0  0  0  0
 41 50  1  0  0  0  0
 42 65  1  0  0  0  0
 43 45  1  0  0  0  0
 44 46  1  0  0  0  0
 44 47  1  0  0  0  0
 45 49  1  0  0  0  0
 46 51  1  0  0  0  0
 47 66  1  0  0  0  0
 48 51  1  0  0  0  0
 48 66  1  0  0  0  0
 49 71  1  0  0  0  0
 50 65  1  0  0  0  0
 51 64  1  0  0  0  0
 52 60  1  0  0  0  0
 53 61  1  0  0  0  0
 54 61  1  0  0  0  0
 55 61  1  0  0  0  0
 56 73  1  0  0  0  0
 57 58  1  0  0  0  0
 58 82  1  0  0  0  0
 59 61  1  0  0  0  0
 59 72  1  0  0  0  0
 60 73  1  0  0  0  0
 63 64  1  0  0  0  0
M  CHG  1  73   1
M  ISO  4  39 100  58 101  70 100  82 101
M  END
> <Batch ID>
0174

> <Smiles>
CNC(C)C(=O)NC(C(=O)N1Cc2cc([101O:1][101CH2:1]CC(=O)C(=O)c3ncc([100NH:0][100C:0](=O)N4CCCC(n5nc(-c6ccc(Oc7ccc(F)cc7F)cc6)c(C(N)=O)c5N)C4)cc3N)ccc2CC1C(=O)NC1CCCc2ccccc21)C(C)(C)C

> <Shape>
0.266

> <Color>
0.133

> <Negative vol penalty>
0.000

$$$$

  -OEChem-04052304333D

 87 95  0     1  0  0  0  0  0999 V2000
  -22.8305   -7.8030   21.9658 C   0  0  0  0  0  0  0  0  0  0  0  0
  -23.7786   -8.6817   21.4516 C   0  0  0  0  0  0  0  0  0  0  0  0
  -25.3062  -31.1424   22.6165 C   0  0  0  0  0  0  0  0  0  0  0  0
  -26.9348  -31.1398   20.8319 C   0  0  0  0  0  0  0  0  0  0  0  0
  -21.5123   -8.2236   22.1369 C   0  0  0  0  0  0  0  0  0  0  0  0
  -23.4087   -9.9813   21.1070 C   0  0  0  0  0  0  0  0  0  0  0  0
  -26.7308  -13.4417   22.7302 C   0  0  0  0  0  0  0  0  0  0  0  0
  -25.5485  -32.4984   22.8357 C   0  0  0  0  0  0  0  0  0  0  0  0
  -27.1770  -32.4959   21.0510 C   0  0  0  0  0  0  0  0  0  0  0  0
  -27.9065  -13.5893   21.9956 C   0  0  0  0  0  0  0  0  0  0  0  0
  -24.6733  -35.4447   21.4263 C   0  0  0  0  0  0  0  0  0  0  0  0
  -23.5701  -36.2807   21.5986 C   0  0  0  0  0  0  0  0  0  0  0  0
  -29.0344  -20.9064   18.8274 C   0  0  0  0  0  0  0  0  0  0  0  0
  -26.9763  -15.5315   20.9085 C   0  0  0  0  0  0  0  0  0  0  0  0
  -27.3656  -22.0101   17.4733 C   0  0  0  0  0  0  0  0  0  0  0  0
  -24.3708  -36.8840   23.7968 C   0  0  0  0  0  0  0  0  0  0  0  0
  -25.9994  -30.4630   21.6147 C   0  0  0  0  0  0  0  0  0  0  0  0
  -29.3926  -20.1118   17.7385 C   0  0  0  0  0  0  0  0  0  0  0  0
  -24.7971  -28.4979   20.5191 C   0  0  0  0  0  0  0  0  0  0  0  0
  -21.1281   -9.5320   21.8033 C   0  0  0  0  0  0  0  0  0  0  0  0
  -25.6630  -14.3329   22.5512 C   0  0  0  0  0  0  0  0  0  0  0  0
  -22.0838  -10.4194   21.2725 C   0  0  0  0  0  0  0  0  0  0  0  0
  -25.7890  -15.3945   21.6439 C   0  0  0  0  0  0  0  0  0  0  0  0
  -28.0209  -21.8556   18.6949 C   0  0  0  0  0  0  0  0  0  0  0  0
  -26.4838  -33.1752   22.0529 C   0  0  0  0  0  0  0  0  0  0  0  0
  -28.0283  -14.6326   21.0825 C   0  0  0  0  0  0  0  0  0  0  0  0
  -25.6252  -35.3283   22.4392 C   0  0  0  0  0  0  0  0  0  0  0  0
  -23.4189  -37.0004   22.7838 C   0  0  0  0  0  0  0  0  0  0  0  0
  -27.7237  -21.2155   16.3842 C   0  0  0  0  0  0  0  0  0  0  0  0
  -25.4739  -36.0480   23.6245 C   0  0  0  0  0  0  0  0  0  0  0  0
  -28.7373  -20.2664   16.5169 C   0  0  0  0  0  0  0  0  0  0  0  0
  -25.7501  -29.0621   21.3882 C   0  0  0  0  0  0  0  0  0  0  0  0
  -24.9580  -27.1419   20.6668 C   0  0  0  0  0  0  0  0  0  0  0  0
  -30.4728  -19.1021   17.8824 C   0  0  0  0  0  0  0  0  0  0  0  0
  -23.8511  -29.1419   19.6555 C   0  0  0  0  0  0  0  0  0  0  0  0
  -22.6526  -14.0583   21.5685 C   0  0  0  0  0  0  0  0  0  0  0  0
  -31.0435  -16.2302   19.8553 C   0  0  0  0  0  0  0  0  0  0  0  0
  -22.4994  -17.1846   22.4200 C   0  0  0  0  0  0  0  0  0  0  0  0
  -24.1480  -20.1217   22.9700 C   0  0  0  0  0  0  0  0  0  0  0  0
  -28.2068  -22.6390   21.0819 C   0  0  0  0  0  0  0  0  0  0  0  0
  -19.6810   -9.9264   21.9616 C   0  0  0  0  0  0  0  0  0  0  0  0
  -24.4116  -14.1758   23.3707 C   0  0  0  0  0  0  0  0  0  0  0  0
  -24.6796  -16.3903   21.4294 C   0  0  0  0  0  0  0  0  0  0  0  0
  -19.4532  -11.4353   21.9229 C   0  0  0  0  0  0  0  0  0  0  0  0
  -27.6128  -24.4905   24.0646 C   0  0  0  0  0  0  0  0  0  0  0  0
  -20.2160  -12.0607   20.7593 C   0  0  0  0  0  0  0  0  0  0  0  0
  -26.9968  -25.7985   23.5627 C   0  0  0  0  0  0  0  0  0  0  0  0
  -28.6964  -23.9746   23.1194 C   0  0  0  0  0  0  0  0  0  0  0  0
  -27.6689  -25.1507   21.2141 C   0  0  0  0  0  0  0  0  0  0  0  0
  -21.7267  -11.8447   20.9103 C   0  0  1  0  0  0  0  0  0  0  0  0
  -23.1933  -14.8374   22.7339 C   0  0  1  0  0  0  0  0  0  0  0  0
  -26.5270  -25.6754   22.0999 C   0  0  2  0  0  0  0  0  0  0  0  0
  -32.5759  -18.1030   20.5311 C   0  0  0  0  0  0  0  0  0  0  0  0
  -23.7495  -22.5127   23.6195 C   0  0  0  0  0  0  0  0  0  0  0  0
  -21.4396  -17.7664   19.6185 C   0  0  0  0  0  0  0  0  0  0  0  0
  -21.9608  -20.1854   19.9993 C   0  0  0  0  0  0  0  0  0  0  0  0
  -20.2943  -19.0270   21.4497 C   0  0  0  0  0  0  0  0  0  0  0  0
  -25.8278  -19.8648   25.3932 C   0  0  0  0  0  0  0  0  0  0  0  0
  -29.5357  -16.1046   19.9793 C   0  0  0  0  0  0  0  0  0  1  0  0
  -31.6434  -17.5769   19.4506 C   0  0  2  0  0  0  0  0  0  0  0  0
  -22.7518  -18.4973   21.7185 C   0  0  1  0  0  0  0  0  0  0  0  0
  -24.0820  -21.1144   24.1166 C   0  0  2  0  0  0  0  0  0  0  0  0
  -21.6320  -18.8493   20.6989 C   0  0  0  0  0  0  0  0  0  0  0  0
  -26.4634  -28.1399   22.0399 N   0  0  0  0  0  0  0  0  0  0  0  0
  -25.9584  -26.9825   21.5801 N   0  0  0  0  0  0  0  0  0  0  0  0
  -23.4735  -16.1907   22.2498 N   0  0  0  0  0  0  0  0  0  0  0  0
  -28.1781  -23.8798   21.7530 N   0  0  0  0  0  0  0  0  0  0  0  0
  -24.3399  -26.0822   20.1033 N   0  0  0  0  0  0  0  0  0  0  0  0
  -23.8194  -30.5428   19.6256 N   0  0  0  0  0  0  0  0  0  0  0  0
  -27.6572  -22.6636   19.8006 N   0  0  0  0  0  0  0  0  0  0  0  0
  -30.6267  -18.5488   19.1474 N   0  0  0  0  0  0  0  0  0  0  0  0
  -22.2745  -12.7667   21.8820 N   0  0  0  0  0  0  0  0  0  0  0  0
  -22.9377  -19.4924   22.7690 N   0  0  0  0  0  0  0  0  0  0  0  0
  -25.3887  -21.1681   24.8312 N   0  3  0  0  0  0  0  0  0  0  0  0
  -31.1713  -18.8279   16.9100 O   0  0  0  0  0  0  0  0  0  0  0  0
  -23.0461  -28.4944   18.9440 O   0  0  0  0  0  0  0  0  0  0  0  0
  -22.5822  -14.5901   20.4667 O   0  0  0  0  0  0  0  0  0  0  0  0
  -31.7751  -15.2511   20.0262 O   0  0  0  0  0  0  0  0  0  0  0  0
  -21.4792  -17.0487   23.0999 O   0  0  0  0  0  0  0  0  0  0  0  0
  -25.1699  -19.9269   22.3156 O   0  0  0  0  0  0  0  0  0  0  0  0
  -28.6592  -21.6229   21.6157 O   0  0  0  0  0  0  0  0  0  0  0  0
  -26.7203  -34.4985   22.2663 O   0  0  0  0  0  0  0  0  0  0  0  0
  -29.1746  -14.7786   20.3637 O   0  0  0  0  0  0  0  0  0  1  0  0
  -22.3602  -37.8043   22.9486 F   0  0  0  0  0  0  0  0  0  0  0  0
  -27.0946  -21.3639   15.2112 F   0  0  0  0  0  0  0  0  0  0  0  0
  -26.3857  -35.9411   24.6007 F   0  0  0  0  0  0  0  0  0  0  0  0
  -29.0731  -19.5081   15.4639 F   0  0  0  0  0  0  0  0  0  0  0  0
  1  2  1  0  0  0  0
  1  5  2  0  0  0  0
  2  6  2  0  0  0  0
  3  8  2  0  0  0  0
  3 17  1  0  0  0  0
  4  9  1  0  0  0  0
  4 17  2  0  0  0  0
  5 20  1  0  0  0  0
  6 22  1  0  0  0  0
  7 10  2  0  0  0  0
  7 21  1  0  0  0  0
  8 25  1  0  0  0  0
  9 25  2  0  0  0  0
 10 26  1  0  0  0  0
 11 12  2  0  0  0  0
 11 27  1  0  0  0  0
 12 28  1  0  0  0  0
 13 18  1  0  0  0  0
 13 24  2  0  0  0  0
 14 23  1  0  0  0  0
 14 26  2  0  0  0  0
 15 24  1  0  0  0  0
 15 29  2  0  0  0  0
 16 28  2  0  0  0  0
 16 30  1  0  0  0  0
 17 32  1  0  0  0  0
 18 31  2  0  0  0  0
 18 34  1  0  0  0  0
 19 32  1  0  0  0  0
 19 33  2  0  0  0  0
 19 35  1  0  0  0  0
 20 22  2  0  0  0  0
 20 41  1  0  0  0  0
 21 23  2  0  0  0  0
 21 42  1  0  0  0  0
 22 50  1  0  0  0  0
 23 43  1  0  0  0  0
 24 70  1  0  0  0  0
 25 82  1  0  0  0  0
 26 83  1  0  0  0  0
 27 30  2  0  0  0  0
 27 82  1  0  0  0  0
 28 84  1  0  0  0  0
 29 31  1  0  0  0  0
 29 85  1  0  0  0  0
 30 86  1  0  0  0  0
 31 87  1  0  0  0  0
 32 64  2  0  0  0  0
 33 65  1  0  0  0  0
 33 68  1  0  0  0  0
 34 71  1  0  0  0  0
 34 75  2  0  0  0  0
 35 69  1  0  0  0  0
 35 76  2  0  0  0  0
 36 51  1  0  0  0  0
 36 72  1  0  0  0  0
 36 77  2  0  0  0  0
 37 59  1  0  0  0  0
 37 60  1  0  0  0  0
 37 78  2  0  0  0  0
 38 61  1  0  0  0  0
 38 66  1  0  0  0  0
 38 79  2  0  0  0  0
 39 62  1  0  0  0  0
 39 73  1  0  0  0  0
 39 80  2  0  0  0  0
 40 67  1  0  0  0  0
 40 70  1  0  0  0  0
 40 81  2  0  0  0  0
 41 44  1  0  0  0  0
 42 51  1  0  0  0  0
 43 66  1  0  0  0  0
 44 46  1  0  0  0  0
 45 47  1  0  0  0  0
 45 48  1  0  0  0  0
 46 50  1  0  0  0  0
 47 52  1  0  0  0  0
 48 67  1  0  0  0  0
 49 52  1  0  0  0  0
 49 67  1  0  0  0  0
 50 72  1  0  0  0  0
 51 66  1  0  0  0  0
 52 65  1  0  0  0  0
 53 60  1  0  0  0  0
 54 62  1  0  0  0  0
 55 63  1  0  0  0  0
 56 63  1  0  0  0  0
 57 63  1  0  0  0  0
 58 74  1  0  0  0  0
 59 83  1  0  0  0  0
 60 71  1  0  0  0  0
 61 63  1  0  0  0  0
 61 73  1  0  0  0  0
 62 74  1  0  0  0  0
 64 65  1  0  0  0  0
M  CHG  1  74   1
M  ISO  4  40 100  59 101  70 100  83 101
M  END
> <Batch ID>
0174

> <Smiles>
CNC(C)C(=O)NC(C(=O)N1Cc2cc([101O:1][101CH2:1]C(=O)C(C)NC(=O)c3cc([100NH:0][100C:0](=O)N4CCCC(n5nc(-c6ccc(Oc7ccc(F)cc7F)cc6)c(C(N)=O)c5N)C4)cc(F)c3F)ccc2CC1C(=O)NC1CCCc2ccccc21)C(C)(C)C

> <Shape>
0.206

> <Color>
0.078

> <Negative vol penalty>
0.000

$$$$

  -OEChem-04052304333D

 90 98  0     1  0  0  0  0  0999 V2000
  -16.6202  -28.3640   23.1104 C   0  0  0  0  0  0  0  0  0  0  0  0
  -17.6946  -28.0418   22.2890 C   0  0  0  0  0  0  0  0  0  0  0  0
  -27.6790  -12.1824   21.2910 C   0  0  0  0  0  0  0  0  0  0  0  0
  -26.4472  -13.5421   22.8629 C   0  0  0  0  0  0  0  0  0  0  0  0
  -16.6100  -29.5778   23.7942 C   0  0  0  0  0  0  0  0  0  0  0  0
  -18.7648  -28.9279   22.1606 C   0  0  0  0  0  0  0  0  0  0  0  0
  -25.2583  -27.2636   20.2555 C   0  0  0  0  0  0  0  0  0  0  0  0
  -28.1513  -11.3957   22.3416 C   0  0  0  0  0  0  0  0  0  0  0  0
  -26.9194  -12.7554   23.9135 C   0  0  0  0  0  0  0  0  0  0  0  0
  -26.5311  -26.9816   19.7590 C   0  0  0  0  0  0  0  0  0  0  0  0
  -29.5747   -9.0451   25.3802 C   0  0  0  0  0  0  0  0  0  0  0  0
  -30.4245   -7.9843   25.0670 C   0  0  0  0  0  0  0  0  0  0  0  0
  -27.1415  -29.3120   19.9705 C   0  0  0  0  0  0  0  0  0  0  0  0
  -30.2745   -8.5558   22.7244 C   0  0  0  0  0  0  0  0  0  0  0  0
  -26.8271  -13.2557   21.5517 C   0  0  0  0  0  0  0  0  0  0  0  0
  -26.6238  -13.9179   19.0965 C   0  0  0  0  0  0  0  0  0  0  0  0
  -17.6752  -30.4841   23.6638 C   0  0  0  0  0  0  0  0  0  0  0  0
  -24.9269  -28.5698   20.6263 C   0  0  0  0  0  0  0  0  0  0  0  0
  -18.7842  -30.1474   22.8613 C   0  0  0  0  0  0  0  0  0  0  0  0
  -25.8722  -29.5982   20.4802 C   0  0  0  0  0  0  0  0  0  0  0  0
  -27.7714  -11.6822   23.6528 C   0  0  0  0  0  0  0  0  0  0  0  0
  -27.4703  -28.0034   19.6166 C   0  0  0  0  0  0  0  0  0  0  0  0
  -29.0748   -9.8613   24.3655 C   0  0  0  0  0  0  0  0  0  0  0  0
  -30.7744   -7.7396   23.7391 C   0  0  0  0  0  0  0  0  0  0  0  0
  -29.4247   -9.6166   23.0376 C   0  0  0  0  0  0  0  0  0  0  0  0
  -26.3394  -14.0691   20.4669 C   0  0  0  0  0  0  0  0  0  0  0  0
  -27.8469  -21.7651   18.7135 C   0  0  0  0  0  0  0  0  0  0  0  0
  -28.5498  -20.5785   18.7114 C   0  0  0  0  0  0  0  0  0  0  0  0
  -25.9248  -14.9310   18.4869 C   0  0  0  0  0  0  0  0  0  0  0  0
  -29.8121  -22.5469   18.1333 C   0  0  0  0  0  0  0  0  0  0  0  0
  -27.4461  -12.9483   18.4337 C   0  0  0  0  0  0  0  0  0  0  0  0
  -26.4131  -21.8509   19.0414 C   0  0  0  0  0  0  0  0  0  0  0  0
  -22.3314  -30.8968   22.0136 C   0  0  0  0  0  0  0  0  0  0  0  0
  -30.7401  -26.4633   19.5315 C   0  0  0  0  0  0  0  0  0  0  0  0
  -25.0148  -31.7120   23.2567 C   0  0  0  0  0  0  0  0  0  0  0  0
  -25.7903  -34.9462   22.4977 C   0  0  0  0  0  0  0  0  0  0  0  0
  -24.4219  -20.5116   19.6991 C   0  0  0  0  0  0  0  0  0  0  0  0
  -17.6162  -31.7804   24.4329 C   0  0  0  0  0  0  0  0  0  0  0  0
  -23.5478  -28.9303   21.1080 C   0  0  0  0  0  0  0  0  0  0  0  0
  -25.4601  -30.9944   20.8593 C   0  0  0  0  0  0  0  0  0  0  0  0
  -18.5734  -32.8371   23.8911 C   0  0  0  0  0  0  0  0  0  0  0  0
  -22.0708  -17.7430   19.6821 C   0  0  0  0  0  0  0  0  0  0  0  0
  -19.9621  -32.2406   23.7178 C   0  0  0  0  0  0  0  0  0  0  0  0
  -22.9534  -16.5083   19.8298 C   0  0  0  0  0  0  0  0  0  0  0  0
  -22.6716  -18.9381   20.4108 C   0  0  0  0  0  0  0  0  0  0  0  0
  -24.9653  -18.0438   20.0724 C   0  0  0  0  0  0  0  0  0  0  0  0
  -19.9451  -31.1090   22.6824 C   0  0  1  0  0  0  0  0  0  0  0  0
  -23.5521  -30.0393   22.1753 C   0  0  1  0  0  0  0  0  0  0  0  0
  -24.3818  -16.8112   19.3556 C   0  0  1  0  0  0  0  0  0  0  0  0
  -28.1010  -19.2027   19.0076 C   0  0  0  0  0  0  0  0  0  0  0  0
  -24.2224  -35.3148   20.5733 C   0  0  0  0  0  0  0  0  0  0  0  0
  -23.7170  -23.8605   18.0832 C   0  0  0  0  0  0  0  0  0  0  0  0
  -24.2915  -24.2107   20.5126 C   0  0  0  0  0  0  0  0  0  0  0  0
  -28.5681  -31.9125   24.0261 C   0  0  0  0  0  0  0  0  0  0  0  0
  -28.1828  -32.2941   21.5819 C   0  0  0  0  0  0  0  0  0  0  0  0
  -27.1819  -30.3041   22.7047 C   0  0  0  0  0  0  0  0  0  0  0  0
  -27.2406  -37.0684   20.0462 C   0  0  0  0  0  0  0  0  0  0  0  0
  -29.2312  -26.4185   19.4048 C   0  0  0  0  0  0  0  0  0  1  0  0
  -30.6091  -24.8561   17.6253 C   0  0  0  0  0  0  0  0  0  0  0  0
  -26.2307  -32.5996   23.1715 C   0  0  1  0  0  0  0  0  0  0  0  0
  -25.4795  -35.7977   21.2800 C   0  0  2  0  0  0  0  0  0  0  0  0
  -24.3759  -23.2737   19.3197 C   0  0  0  0  0  0  0  0  0  0  0  0
  -31.5357  -25.6123   18.5645 C   0  0  0  0  0  0  0  0  0  0  0  0
  -27.5321  -31.7966   22.8902 C   0  0  0  0  0  0  0  0  0  0  0  0
  -25.5235  -15.0974   20.7138 N   0  0  0  0  0  0  0  0  0  0  0  0
  -28.5692  -22.8950   18.3826 N   0  0  0  0  0  0  0  0  0  0  0  0
  -25.2893  -15.6015   19.4903 N   0  0  0  0  0  0  0  0  0  0  0  0
  -24.6932  -30.9684   22.1147 N   0  0  0  0  0  0  0  0  0  0  0  0
  -24.0551  -19.1976   20.0047 N   0  0  0  0  0  0  0  0  0  0  0  0
  -25.7980  -15.3048   17.1960 N   0  0  0  0  0  0  0  0  0  0  0  0
  -28.0923  -11.9772   19.2108 N   0  0  0  0  0  0  0  0  0  0  0  0
  -30.8132  -23.4340   17.7720 N   0  0  0  0  0  0  0  0  0  0  0  0
  -25.8133  -20.6882   19.3448 N   0  0  0  0  0  0  0  0  0  0  0  0
  -21.2243  -30.4344   22.6992 N   0  0  0  0  0  0  0  0  0  0  0  0
  -25.9260  -33.6141   22.1684 N   0  0  0  0  0  0  0  0  0  0  0  0
  -25.7925  -23.0375   19.0176 N   0  3  0  0  0  0  0  0  0  0  0  0
  -26.6111  -35.7492   20.3116 N   0  3  0  0  0  0  0  0  0  0  0  0
  -27.6165  -12.9532   17.1910 O   0  0  0  0  0  0  0  0  0  0  0  0
  -22.3888  -31.9049   21.3194 O   0  0  0  0  0  0  0  0  0  0  0  0
  -31.3059  -27.1742   20.3619 O   0  0  0  0  0  0  0  0  0  0  0  0
  -24.3628  -31.6812   24.3041 O   0  0  0  0  0  0  0  0  0  0  0  0
  -25.9051  -35.4163   23.6275 O   0  0  0  0  0  0  0  0  0  0  0  0
  -23.6798  -21.4870   19.7397 O   0  0  0  0  0  0  0  0  0  0  0  0
  -28.2318  -10.9146   24.6781 O   0  0  0  0  0  0  0  0  0  0  0  0
  -28.7125  -27.7203   19.1355 O   0  0  0  0  0  0  0  0  0  1  0  0
  -31.5917   -6.7218   23.4387 F   0  0  0  0  0  0  0  0  0  0  0  0
  -28.9485  -10.3980   22.0586 F   0  0  0  0  0  0  0  0  0  0  0  0
  -32.3748  -26.3927   17.8297 F   0  0  0  0  0  0  0  0  0  0  0  0
  -32.3243  -24.7277   19.2316 F   0  0  0  0  0  0  0  0  0  0  0  0
  -30.1818  -20.8773   18.2772 S   0  0  0  0  0  0  0  0  0  0  0  0
  1  2  1  0  0  0  0
  1  5  2  0  0  0  0
  2  6  2  0  0  0  0
  3  8  2  0  0  0  0
  3 15  1  0  0  0  0
  4  9  1  0  0  0  0
  4 15  2  0  0  0  0
  5 17  1  0  0  0  0
  6 19  1  0  0  0  0
  7 10  2  0  0  0  0
  7 18  1  0  0  0  0
  8 21  1  0  0  0  0
  9 21  2  0  0  0  0
 10 22  1  0  0  0  0
 11 12  2  0  0  0  0
 11 23  1  0  0  0  0
 12 24  1  0  0  0  0
 13 20  1  0  0  0  0
 13 22  2  0  0  0  0
 14 24  2  0  0  0  0
 14 25  1  0  0  0  0
 15 26  1  0  0  0  0
 16 26  1  0  0  0  0
 16 29  2  0  0  0  0
 16 31  1  0  0  0  0
 17 19  2  0  0  0  0
 17 38  1  0  0  0  0
 18 20  2  0  0  0  0
 18 39  1  0  0  0  0
 19 47  1  0  0  0  0
 20 40  1  0  0  0  0
 21 84  1  0  0  0  0
 22 85  1  0  0  0  0
 23 25  2  0  0  0  0
 23 84  1  0  0  0  0
 24 86  1  0  0  0  0
 25 87  1  0  0  0  0
 26 65  2  0  0  0  0
 27 28  2  0  0  0  0
 27 32  1  0  0  0  0
 27 66  1  0  0  0  0
 28 50  1  0  0  0  0
 28 90  1  0  0  0  0
 29 67  1  0  0  0  0
 29 70  1  0  0  0  0
 30 66  2  0  0  0  0
 30 72  1  0  0  0  0
 30 90  1  0  0  0  0
 31 71  1  0  0  0  0
 31 78  2  0  0  0  0
 32 73  1  0  0  0  0
 32 76  2  0  0  0  0
 33 48  1  0  0  0  0
 33 74  1  0  0  0  0
 33 79  2  0  0  0  0
 34 58  1  0  0  0  0
 34 63  1  0  0  0  0
 34 80  2  0  0  0  0
 35 60  1  0  0  0  0
 35 68  1  0  0  0  0
 35 81  2  0  0  0  0
 36 61  1  0  0  0  0
 36 75  1  0  0  0  0
 36 82  2  0  0  0  0
 37 69  1  0  0  0  0
 37 73  1  0  0  0  0
 37 83  2  0  0  0  0
 38 41  1  0  0  0  0
 39 48  1  0  0  0  0
 40 68  1  0  0  0  0
 41 43  1  0  0  0  0
 42 44  1  0  0  0  0
 42 45  1  0  0  0  0
 43 47  1  0  0  0  0
 44 49  1  0  0  0  0
 45 69  1  0  0  0  0
 46 49  1  0  0  0  0
 46 69  1  0  0  0  0
 47 74  1  0  0  0  0
 48 68  1  0  0  0  0
 49 67  1  0  0  0  0
 51 61  1  0  0  0  0
 52 62  1  0  0  0  0
 53 62  1  0  0  0  0
 54 64  1  0  0  0  0
 55 64  1  0  0  0  0
 56 64  1  0  0  0  0
 57 77  1  0  0  0  0
 58 85  1  0  0  0  0
 59 63  1  0  0  0  0
 59 72  1  0  0  0  0
 60 64  1  0  0  0  0
 60 75  1  0  0  0  0
 61 77  1  0  0  0  0
 62 76  1  0  0  0  0
 63 88  1  0  0  0  0
 63 89  1  0  0  0  0
 65 67  1  0  0  0  0
M  CHG  2  76   1  77   1
M  ISO  4  37 100  58 101  73 100  85 101
M  END
> <Batch ID>
0174

> <Smiles>
CNC(C)C(=O)NC(C(=O)N1Cc2cc([101O:1][101CH2:1]C(=O)C(F)(F)CNc3nc(C(=NC(C)C)[100NH:0][100C:0](=O)N4CCCC(n5nc(-c6ccc(Oc7ccc(F)cc7F)cc6)c(C(N)=O)c5N)C4)c(C)s3)ccc2CC1C(=O)NC1CCCc2ccccc21)C(C)(C)C

> <Shape>
0.260

> <Color>
0.094

> <Negative vol penalty>
0.000

$$$$

  -OEChem-04052304333D

 85 93  0     1  0  0  0  0  0999 V2000
  -16.8132  -27.3393   21.3102 C   0  0  0  0  0  0  0  0  0  0  0  0
  -17.9562  -26.5559   21.4335 C   0  0  0  0  0  0  0  0  0  0  0  0
  -23.1758   -9.8348   21.3195 C   0  0  0  0  0  0  0  0  0  0  0  0
  -23.9392  -10.6254   23.4711 C   0  0  0  0  0  0  0  0  0  0  0  0
  -16.9278  -28.6934   20.9985 C   0  0  0  0  0  0  0  0  0  0  0  0
  -19.2146  -27.1260   21.2441 C   0  0  0  0  0  0  0  0  0  0  0  0
  -24.3931  -25.6730   24.1727 C   0  0  0  0  0  0  0  0  0  0  0  0
  -22.4892   -8.7944   21.9454 C   0  0  0  0  0  0  0  0  0  0  0  0
  -23.2525   -9.5850   24.0970 C   0  0  0  0  0  0  0  0  0  0  0  0
  -25.4707  -24.8595   23.8252 C   0  0  0  0  0  0  0  0  0  0  0  0
  -23.2222   -5.7828   23.2934 C   0  0  0  0  0  0  0  0  0  0  0  0
  -23.3369   -4.5070   22.7413 C   0  0  0  0  0  0  0  0  0  0  0  0
  -26.6730  -26.7977   23.0397 C   0  0  0  0  0  0  0  0  0  0  0  0
  -20.9465   -4.4410   22.3971 C   0  0  0  0  0  0  0  0  0  0  0  0
  -30.7087  -19.4545   18.9917 C   0  0  0  0  0  0  0  0  0  0  0  0
  -23.9009  -10.7503   22.0824 C   0  0  0  0  0  0  0  0  0  0  0  0
  -24.1197  -13.1101   21.1386 C   0  0  0  0  0  0  0  0  0  0  0  0
  -18.1887  -29.2825   20.8147 C   0  0  0  0  0  0  0  0  0  0  0  0
  -24.4432  -27.0560   23.9459 C   0  0  0  0  0  0  0  0  0  0  0  0
  -19.3461  -28.4890   20.9283 C   0  0  0  0  0  0  0  0  0  0  0  0
  -25.5957  -27.6269   23.3876 C   0  0  0  0  0  0  0  0  0  0  0  0
  -29.3597  -18.6384   20.6995 C   0  0  0  0  0  0  0  0  0  0  0  0
  -29.7728  -19.7773   19.9495 C   0  0  0  0  0  0  0  0  0  0  0  0
  -22.5275   -8.6695   23.3341 C   0  0  0  0  0  0  0  0  0  0  0  0
  -26.6097  -25.4214   23.2559 C   0  0  0  0  0  0  0  0  0  0  0  0
  -21.9696   -6.3876   23.3975 C   0  0  0  0  0  0  0  0  0  0  0  0
  -22.1991   -3.8361   22.2931 C   0  0  0  0  0  0  0  0  0  0  0  0
  -20.8317   -5.7167   22.9493 C   0  0  0  0  0  0  0  0  0  0  0  0
  -24.6108  -11.8249   21.4364 C   0  0  0  0  0  0  0  0  0  0  0  0
  -25.1736  -13.7481   20.5312 C   0  0  0  0  0  0  0  0  0  0  0  0
  -29.9956  -17.4884   20.2861 C   0  0  0  0  0  0  0  0  0  0  0  0
  -22.8266  -13.6767   21.3887 C   0  0  0  0  0  0  0  0  0  0  0  0
  -28.9541  -23.4606   19.9091 C   0  0  0  0  0  0  0  0  0  0  0  0
  -29.1107  -23.8492   21.1903 C   0  0  0  0  0  0  0  0  0  0  0  0
  -29.6666  -22.2318   19.4284 C   0  0  0  0  0  0  0  0  0  0  0  0
  -22.7671  -29.1020   22.1830 C   0  0  0  0  0  0  0  0  0  0  0  0
  -24.6013  -31.3070   23.6983 C   0  0  0  0  0  0  0  0  0  0  0  0
  -27.5003  -32.0219   25.3510 C   0  0  0  0  0  0  0  0  0  0  0  0
  -30.5831  -15.0388   20.2580 C   0  0  0  0  0  0  0  0  0  0  0  0
  -18.2603  -30.7398   20.4325 C   0  0  0  0  0  0  0  0  0  0  0  0
  -23.2830  -27.9233   24.3510 C   0  0  0  0  0  0  0  0  0  0  0  0
  -25.7075  -29.1088   23.1422 C   0  0  0  0  0  0  0  0  0  0  0  0
  -19.6473  -31.3502   20.6164 C   0  0  0  0  0  0  0  0  0  0  0  0
  -29.5820  -11.9358   18.8274 C   0  0  0  0  0  0  0  0  0  0  0  0
  -20.7166  -30.4307   20.0353 C   0  0  0  0  0  0  0  0  0  0  0  0
  -28.1590  -11.7360   19.3541 C   0  0  0  0  0  0  0  0  0  0  0  0
  -30.4874  -12.5858   19.8721 C   0  0  0  0  0  0  0  0  0  0  0  0
  -28.5505  -13.6352   20.9749 C   0  0  0  0  0  0  0  0  0  0  0  0
  -20.7299  -29.0764   20.7547 C   0  0  1  0  0  0  0  0  0  0  0  0
  -23.2395  -29.2514   23.6015 C   0  0  1  0  0  0  0  0  0  0  0  0
  -27.5847  -13.0428   19.9356 C   0  0  2  0  0  0  0  0  0  0  0  0
  -28.3611  -18.6825   21.7973 C   0  0  0  0  0  0  0  0  0  0  0  0
  -28.1375  -24.1521   18.8599 C   0  0  0  0  0  0  0  0  0  0  0  0
  -28.7330  -33.9197   26.4356 C   0  0  0  0  0  0  0  0  0  0  0  0
  -25.3599  -32.3839   20.9461 C   0  0  0  0  0  0  0  0  0  0  0  0
  -27.2653  -33.5990   22.0237 C   0  0  0  0  0  0  0  0  0  0  0  0
  -24.9176  -34.1422   22.6687 C   0  0  0  0  0  0  0  0  0  0  0  0
  -27.4827  -30.6790   27.9883 C   0  0  0  0  0  0  0  0  0  0  0  0
  -28.4641  -25.0532   21.8132 C   0  0  0  0  0  0  0  0  0  1  0  0
  -25.9369  -31.9559   23.4260 C   0  0  1  0  0  0  0  0  0  0  0  0
  -27.7634  -32.7673   26.6470 C   0  0  2  0  0  0  0  0  0  0  0  0
  -25.8674  -32.9920   22.2688 C   0  0  0  0  0  0  0  0  0  0  0  0
  -25.8780  -11.6547   21.0499 N   0  0  0  0  0  0  0  0  0  0  0  0
  -26.1920  -12.8414   20.5029 N   0  0  0  0  0  0  0  0  0  0  0  0
  -24.5443  -29.9140   23.5495 N   0  0  0  0  0  0  0  0  0  0  0  0
  -29.8810  -13.8205   20.3748 N   0  0  0  0  0  0  0  0  0  0  0  0
  -25.3191  -14.9906   20.0238 N   0  0  0  0  0  0  0  0  0  0  0  0
  -21.8606  -12.8831   22.0222 N   0  0  0  0  0  0  0  0  0  0  0  0
  -29.2993  -21.0978   20.1374 N   0  0  0  0  0  0  0  0  0  0  0  0
  -29.8934  -16.1503   20.7410 N   0  0  0  0  0  0  0  0  0  0  0  0
  -21.3961  -29.1904   22.0344 N   0  0  0  0  0  0  0  0  0  0  0  0
  -26.3884  -32.5100   24.6978 N   0  0  0  0  0  0  0  0  0  0  0  0
  -28.3427  -31.8466   27.6657 N   0  3  0  0  0  0  0  0  0  0  0  0
  -22.5311  -14.8464   21.0453 O   0  0  0  0  0  0  0  0  0  0  0  0
  -30.4325  -22.3199   18.4749 O   0  0  0  0  0  0  0  0  0  0  0  0
  -23.5859  -28.9215   21.2893 O   0  0  0  0  0  0  0  0  0  0  0  0
  -23.6457  -32.0094   24.0377 O   0  0  0  0  0  0  0  0  0  0  0  0
  -28.2123  -31.1014   24.9557 O   0  0  0  0  0  0  0  0  0  0  0  0
  -31.7017  -15.0961   19.7409 O   0  0  0  0  0  0  0  0  0  0  0  0
  -29.9632  -23.1574   22.0385 O   0  0  0  0  0  0  0  0  0  0  0  0
  -21.8574   -7.6546   23.9452 O   0  0  0  0  0  0  0  0  0  0  0  0
  -27.6626  -24.6295   22.9152 O   0  0  0  0  0  0  0  0  0  1  0  0
  -22.3096   -2.6116   21.7615 F   0  0  0  0  0  0  0  0  0  0  0  0
  -19.6258   -6.2932   23.0456 F   0  0  0  0  0  0  0  0  0  0  0  0
  -31.0857  -17.7841   18.9990 S   0  0  0  0  0  0  0  0  0  0  0  0
  1  2  1  0  0  0  0
  1  5  2  0  0  0  0
  2  6  2  0  0  0  0
  3  8  2  0  0  0  0
  3 16  1  0  0  0  0
  4  9  1  0  0  0  0
  4 16  2  0  0  0  0
  5 18  1  0  0  0  0
  6 20  1  0  0  0  0
  7 10  2  0  0  0  0
  7 19  1  0  0  0  0
  8 24  1  0  0  0  0
  9 24  2  0  0  0  0
 10 25  1  0  0  0  0
 11 12  2  0  0  0  0
 11 26  1  0  0  0  0
 12 27  1  0  0  0  0
 13 21  1  0  0  0  0
 13 25  2  0  0  0  0
 14 27  2  0  0  0  0
 14 28  1  0  0  0  0
 15 23  2  0  0  0  0
 15 85  1  0  0  0  0
 16 29  1  0  0  0  0
 17 29  1  0  0  0  0
 17 30  2  0  0  0  0
 17 32  1  0  0  0  0
 18 20  2  0  0  0  0
 18 40  1  0  0  0  0
 19 21  2  0  0  0  0
 19 41  1  0  0  0  0
 20 49  1  0  0  0  0
 21 42  1  0  0  0  0
 22 23  1  0  0  0  0
 22 31  2  0  0  0  0
 22 52  1  0  0  0  0
 23 69  1  0  0  0  0
 24 81  1  0  0  0  0
 25 82  1  0  0  0  0
 26 28  2  0  0  0  0
 26 81  1  0  0  0  0
 27 83  1  0  0  0  0
 28 84  1  0  0  0  0
 29 63  2  0  0  0  0
 30 64  1  0  0  0  0
 30 67  1  0  0  0  0
 31 70  1  0  0  0  0
 31 85  1  0  0  0  0
 32 68  1  0  0  0  0
 32 74  2  0  0  0  0
 33 34  2  0  0  0  0
 33 35  1  0  0  0  0
 33 53  1  0  0  0  0
 34 59  1  0  0  0  0
 34 80  1  0  0  0  0
 35 69  1  0  0  0  0
 35 75  2  0  0  0  0
 36 50  1  0  0  0  0
 36 71  1  0  0  0  0
 36 76  2  0  0  0  0
 37 60  1  0  0  0  0
 37 65  1  0  0  0  0
 37 77  2  0  0  0  0
 38 61  1  0  0  0  0
 38 72  1  0  0  0  0
 38 78  2  0  0  0  0
 39 66  1  0  0  0  0
 39 70  1  0  0  0  0
 39 79  2  0  0  0  0
 40 43  1  0  0  0  0
 41 50  1  0  0  0  0
 42 65  1  0  0  0  0
 43 45  1  0  0  0  0
 44 46  1  0  0  0  0
 44 47  1  0  0  0  0
 45 49  1  0  0  0  0
 46 51  1  0  0  0  0
 47 66  1  0  0  0  0
 48 51  1  0  0  0  0
 48 66  1  0  0  0  0
 49 71  1  0  0  0  0
 50 65  1  0  0  0  0
 51 64  1  0  0  0  0
 54 61  1  0  0  0  0
 55 62  1  0  0  0  0
 56 62  1  0  0  0  0
 57 62  1  0  0  0  0
 58 73  1  0  0  0  0
 59 82  1  0  0  0  0
 60 62  1  0  0  0  0
 60 72  1  0  0  0  0
 61 73  1  0  0  0  0
 63 64  1  0  0  0  0
M  CHG  1  73   1
M  ISO  4  39 100  59 101  70 100  82 101
M  END
> <Batch ID>
0174

> <Smiles>
CNC(C)C(=O)NC(C(=O)N1Cc2cc([101O:1][101CH2:1]C(=O)C(C)C(=O)Nc3csc([100NH:0][100C:0](=O)N4CCCC(n5nc(-c6ccc(Oc7ccc(F)cc7F)cc6)c(C(N)=O)c5N)C4)c3C)ccc2CC1C(=O)NC1CCCc2ccccc21)C(C)(C)C

> <Shape>
0.342

> <Color>
0.190

> <Negative vol penalty>
0.000

$$$$

  -OEChem-04052304333D

 91 99  0     1  0  0  0  0  0999 V2000
  -31.1516  -26.9030   16.5782 C   0  0  0  0  0  0  0  0  0  0  0  0
  -29.7859  -27.1585   16.6256 C   0  0  0  0  0  0  0  0  0  0  0  0
  -24.3037  -12.1537   21.1293 C   0  0  0  0  0  0  0  0  0  0  0  0
  -22.7483  -13.9603   21.5219 C   0  0  0  0  0  0  0  0  0  0  0  0
  -26.6827  -23.6026   18.9139 C   0  0  0  0  0  0  0  0  0  0  0  0
  -31.9120  -26.9794   17.7432 C   0  0  0  0  0  0  0  0  0  0  0  0
  -29.1821  -27.5021   17.8357 C   0  0  0  0  0  0  0  0  0  0  0  0
  -23.3254  -28.4801   19.2034 C   0  0  0  0  0  0  0  0  0  0  0  0
  -27.1641  -22.3653   19.3417 C   0  0  0  0  0  0  0  0  0  0  0  0
  -23.6673  -11.3926   22.1097 C   0  0  0  0  0  0  0  0  0  0  0  0
  -22.1118  -13.1991   22.5023 C   0  0  0  0  0  0  0  0  0  0  0  0
  -22.2391  -27.7388   19.6662 C   0  0  0  0  0  0  0  0  0  0  0  0
  -20.8649   -9.5201   22.3808 C   0  0  0  0  0  0  0  0  0  0  0  0
  -20.5930   -8.1835   22.0889 C   0  0  0  0  0  0  0  0  0  0  0  0
  -22.7007  -28.4781   21.9155 C   0  0  0  0  0  0  0  0  0  0  0  0
  -21.9541   -7.4974   23.9634 C   0  0  0  0  0  0  0  0  0  0  0  0
  -23.8443  -13.4376   20.8354 C   0  0  0  0  0  0  0  0  0  0  0  0
  -25.3556  -23.9566   19.1571 C   0  0  0  0  0  0  0  0  0  0  0  0
  -24.2006  -14.2643   18.4485 C   0  0  0  0  0  0  0  0  0  0  0  0
  -31.3143  -27.3120   18.9700 C   0  0  0  0  0  0  0  0  0  0  0  0
  -24.1155  -29.2184   20.0962 C   0  0  0  0  0  0  0  0  0  0  0  0
  -29.9367  -27.6078   19.0180 C   0  0  0  0  0  0  0  0  0  0  0  0
  -23.7950  -29.2299   21.4612 C   0  0  0  0  0  0  0  0  0  0  0  0
  -26.3183  -21.4820   20.0126 C   0  0  0  0  0  0  0  0  0  0  0  0
  -24.5098  -23.0733   19.8280 C   0  0  0  0  0  0  0  0  0  0  0  0
  -24.9911  -21.8360   20.2558 C   0  0  0  0  0  0  0  0  0  0  0  0
  -22.5713  -11.9153   22.7962 C   0  0  0  0  0  0  0  0  0  0  0  0
  -21.9283  -27.7354   21.0228 C   0  0  0  0  0  0  0  0  0  0  0  0
  -21.6815   -9.8454   23.4639 C   0  0  0  0  0  0  0  0  0  0  0  0
  -21.1376   -7.1721   22.8802 C   0  0  0  0  0  0  0  0  0  0  0  0
  -22.2261   -8.8340   24.2552 C   0  0  0  0  0  0  0  0  0  0  0  0
  -24.5017  -14.2245   19.8231 C   0  0  0  0  0  0  0  0  0  0  0  0
  -25.1037  -15.1568   17.9249 C   0  0  0  0  0  0  0  0  0  0  0  0
  -24.8860  -25.2576   18.6957 C   0  0  0  0  0  0  0  0  0  0  0  0
  -23.1944  -13.5577   17.7109 C   0  0  0  0  0  0  0  0  0  0  0  0
  -27.1692  -29.1478   20.9756 C   0  0  0  0  0  0  0  0  0  0  0  0
  -21.2991  -23.7544   21.5309 C   0  0  0  0  0  0  0  0  0  0  0  0
  -26.3555  -31.8271   22.6132 C   0  0  0  0  0  0  0  0  0  0  0  0
  -23.9059  -33.6862   24.0931 C   0  0  0  0  0  0  0  0  0  0  0  0
  -28.1292  -19.7487   20.2628 C   0  0  0  0  0  0  0  0  0  0  0  0
  -32.1858  -27.3881   20.1987 C   0  0  0  0  0  0  0  0  0  0  0  0
  -25.2678  -30.0342   19.5774 C   0  0  0  0  0  0  0  0  0  0  0  0
  -24.5994  -30.0222   22.4580 C   0  0  0  0  0  0  0  0  0  0  0  0
  -31.3892  -27.3223   21.4977 C   0  0  0  0  0  0  0  0  0  0  0  0
  -29.5090  -16.8886   18.6524 C   0  0  0  0  0  0  0  0  0  0  0  0
  -30.2353  -28.3127   21.4505 C   0  0  0  0  0  0  0  0  0  0  0  0
  -28.3522  -15.8867   18.6393 C   0  0  0  0  0  0  0  0  0  0  0  0
  -29.5252  -17.7194   19.9343 C   0  0  0  0  0  0  0  0  0  0  0  0
  -27.1031  -17.3903   20.2411 C   0  0  0  0  0  0  0  0  0  0  0  0
  -29.2529  -27.9535   20.3284 C   0  0  1  0  0  0  0  0  0  0  0  0
  -26.3136  -30.3381   20.6458 C   0  0  1  0  0  0  0  0  0  0  0  0
  -27.0067  -16.5753   18.9410 C   0  0  2  0  0  0  0  0  0  0  0  0
  -20.8118  -22.3715   21.1581 C   0  0  0  0  0  0  0  0  0  0  0  0
  -23.5524  -35.8094   25.3832 C   0  0  0  0  0  0  0  0  0  0  0  0
  -20.4164  -26.4385   23.7270 C   0  0  0  0  0  0  0  0  0  0  0  0
  -27.4997  -30.4977   25.1098 C   0  0  0  0  0  0  0  0  0  0  0  0
  -26.2887  -32.2018   26.4874 C   0  0  0  0  0  0  0  0  0  0  0  0
  -28.0496  -32.9262   24.8759 C   0  0  0  0  0  0  0  0  0  0  0  0
  -22.1191  -34.7918   22.0089 C   0  0  0  0  0  0  0  0  0  0  0  0
  -22.7527  -24.1194   21.2576 C   0  0  1  0  0  0  0  0  0  0  0  0
  -25.8228  -32.1143   23.9962 C   0  0  1  0  0  0  0  0  0  0  0  0
  -23.5720  -35.1645   24.0061 C   0  0  2  0  0  0  0  0  0  0  0  0
  -21.1178  -25.9703   22.4491 C   0  0  1  0  0  0  0  0  0  1  0  0
  -26.9010  -31.9184   25.0991 C   0  0  0  0  0  0  0  0  0  0  0  0
  -23.6479  -23.7948   22.4357 C   0  0  0  0  0  0  0  0  0  0  0  0
  -25.5168  -15.0277   20.1521 N   0  0  0  0  0  0  0  0  0  0  0  0
  -25.6413  -26.1064   18.0682 N   0  0  0  0  0  0  0  0  0  0  0  0
  -20.5794  -24.6491   22.1173 N   0  0  0  0  0  0  0  0  0  0  0  0
  -25.8616  -15.5806   18.9767 N   0  0  0  0  0  0  0  0  0  0  0  0
  -25.7201  -30.7988   21.9027 N   0  0  0  0  0  0  0  0  0  0  0  0
  -28.2192  -18.3450   20.1529 N   0  0  0  0  0  0  0  0  0  0  0  0
  -24.1344  -20.9379   20.9373 N   0  0  0  0  0  0  0  0  0  0  0  0
  -25.3157  -15.6126   16.6720 N   0  0  0  0  0  0  0  0  0  0  0  0
  -22.3506  -12.6795   18.4045 N   0  0  0  0  0  0  0  0  0  0  0  0
  -26.8326  -20.2316   20.4365 N   0  0  0  0  0  0  0  0  0  0  0  0
  -23.1922  -23.4279   20.0683 N   0  0  0  0  0  0  0  0  0  0  0  0
  -28.2928  -29.0251   20.1806 N   0  0  0  0  0  0  0  0  0  0  0  0
  -25.2578  -33.4584   23.9449 N   0  0  0  0  0  0  0  0  0  0  0  0
  -22.2345  -35.3573   23.3778 N   0  3  0  0  0  0  0  0  0  0  0  0
  -23.0586  -13.6885   16.4707 O   0  0  0  0  0  0  0  0  0  0  0  0
  -26.8356  -28.3972   21.8849 O   0  0  0  0  0  0  0  0  0  0  0  0
  -27.2958  -32.4954   22.1765 O   0  0  0  0  0  0  0  0  0  0  0  0
  -23.0534  -32.8205   24.2780 O   0  0  0  0  0  0  0  0  0  0  0  0
  -29.1257  -20.4714   20.1796 O   0  0  0  0  0  0  0  0  0  0  0  0
  -21.9499  -11.1728   23.7528 O   0  0  0  0  0  0  0  0  0  0  0  0
  -20.8689  -27.0123   21.4773 O   0  0  0  0  0  0  0  0  0  1  0  0
  -20.8752   -5.8887   22.6008 F   0  0  0  0  0  0  0  0  0  0  0  0
  -23.0103   -9.1403   25.2978 F   0  0  0  0  0  0  0  0  0  0  0  0
  -23.2824  -24.4482   23.5580 F   0  0  0  0  0  0  0  0  0  0  0  0
  -24.9328  -24.1206   22.1683 F   0  0  0  0  0  0  0  0  0  0  0  0
  -23.6193  -22.4698   22.7066 F   0  0  0  0  0  0  0  0  0  0  0  0
  1  2  1  0  0  0  0
  1  6  2  0  0  0  0
  2  7  2  0  0  0  0
  3 10  2  0  0  0  0
  3 17  1  0  0  0  0
  4 11  1  0  0  0  0
  4 17  2  0  0  0  0
  5  9  1  0  0  0  0
  5 18  2  0  0  0  0
  6 20  1  0  0  0  0
  7 22  1  0  0  0  0
  8 12  2  0  0  0  0
  8 21  1  0  0  0  0
  9 24  2  0  0  0  0
 10 27  1  0  0  0  0
 11 27  2  0  0  0  0
 12 28  1  0  0  0  0
 13 14  2  0  0  0  0
 13 29  1  0  0  0  0
 14 30  1  0  0  0  0
 15 23  1  0  0  0  0
 15 28  2  0  0  0  0
 16 30  2  0  0  0  0
 16 31  1  0  0  0  0
 17 32  1  0  0  0  0
 18 25  1  0  0  0  0
 18 34  1  0  0  0  0
 19 32  1  0  0  0  0
 19 33  2  0  0  0  0
 19 35  1  0  0  0  0
 20 22  2  0  0  0  0
 20 41  1  0  0  0  0
 21 23  2  0  0  0  0
 21 42  1  0  0  0  0
 22 50  1  0  0  0  0
 23 43  1  0  0  0  0
 24 26  1  0  0  0  0
 24 75  1  0  0  0  0
 25 26  2  0  0  0  0
 25 76  1  0  0  0  0
 26 72  1  0  0  0  0
 27 85  1  0  0  0  0
 28 86  1  0  0  0  0
 29 31  2  0  0  0  0
 29 85  1  0  0  0  0
 30 87  1  0  0  0  0
 31 88  1  0  0  0  0
 32 66  2  0  0  0  0
 33 69  1  0  0  0  0
 33 73  1  0  0  0  0
 34 67  2  0  0  0  0
 35 74  1  0  0  0  0
 35 80  2  0  0  0  0
 36 51  1  0  0  0  0
 36 77  1  0  0  0  0
 36 81  2  0  0  0  0
 37 53  1  0  0  0  0
 37 60  1  0  0  0  0
 37 68  2  0  0  0  0
 38 61  1  0  0  0  0
 38 70  1  0  0  0  0
 38 82  2  0  0  0  0
 39 62  1  0  0  0  0
 39 78  1  0  0  0  0
 39 83  2  0  0  0  0
 40 71  1  0  0  0  0
 40 75  1  0  0  0  0
 40 84  2  0  0  0  0
 41 44  1  0  0  0  0
 42 51  1  0  0  0  0
 43 70  1  0  0  0  0
 44 46  1  0  0  0  0
 45 47  1  0  0  0  0
 45 48  1  0  0  0  0
 46 50  1  0  0  0  0
 47 52  1  0  0  0  0
 48 71  1  0  0  0  0
 49 52  1  0  0  0  0
 49 71  1  0  0  0  0
 50 77  1  0  0  0  0
 51 70  1  0  0  0  0
 52 69  1  0  0  0  0
 54 62  1  0  0  0  0
 55 63  1  0  0  0  0
 56 64  1  0  0  0  0
 57 64  1  0  0  0  0
 58 64  1  0  0  0  0
 59 79  1  0  0  0  0
 60 65  1  0  0  0  0
 60 76  1  0  0  0  0
 61 64  1  0  0  0  0
 61 78  1  0  0  0  0
 62 79  1  0  0  0  0
 63 68  1  0  0  0  0
 63 86  1  0  0  0  0
 65 89  1  0  0  0  0
 65 90  1  0  0  0  0
 65 91  1  0  0  0  0
 66 69  1  0  0  0  0
M  CHG  1  79   1
M  ISO  4  40 100  63 101  75 100  86 101
M  END
> <Batch ID>
0174

> <Smiles>
CNC(C)C(=O)NC(C(=O)N1Cc2cc([101O:1][101CH:1](C)N=C(C)C(Nc3c(C=N)ccc([100NH:0][100C:0](=O)N4CCCC(n5nc(-c6ccc(Oc7ccc(F)cc7F)cc6)c(C(N)=O)c5N)C4)c3N)C(F)(F)F)ccc2CC1C(=O)NC1CCCc2ccccc21)C(C)(C)C

> <Shape>
0.266

> <Color>
0.079

> <Negative vol penalty>
0.000

$$$$

  -OEChem-04052304333D

 91 99  0     1  0  0  0  0  0999 V2000
  -28.1275  -29.1443   12.7209 C   0  0  0  0  0  0  0  0  0  0  0  0
  -28.1668  -28.3180   13.8394 C   0  0  0  0  0  0  0  0  0  0  0  0
  -24.1248  -10.7898   23.6588 C   0  0  0  0  0  0  0  0  0  0  0  0
  -24.2518  -13.1403   24.2029 C   0  0  0  0  0  0  0  0  0  0  0  0
  -27.6789  -30.4588   12.8422 C   0  0  0  0  0  0  0  0  0  0  0  0
  -27.7586  -28.8061   15.0802 C   0  0  0  0  0  0  0  0  0  0  0  0
  -24.7835  -25.5483   17.5662 C   0  0  0  0  0  0  0  0  0  0  0  0
  -23.6507  -10.5183   24.9422 C   0  0  0  0  0  0  0  0  0  0  0  0
  -23.7777  -12.8689   25.4864 C   0  0  0  0  0  0  0  0  0  0  0  0
  -25.4061  -24.4747   18.2015 C   0  0  0  0  0  0  0  0  0  0  0  0
  -24.9323  -10.1882   28.0524 C   0  0  0  0  0  0  0  0  0  0  0  0
  -25.4875   -9.1037   28.7315 C   0  0  0  0  0  0  0  0  0  0  0  0
  -25.2589  -25.6430   20.3069 C   0  0  0  0  0  0  0  0  0  0  0  0
  -31.9983  -19.4755   20.3489 C   0  0  0  0  0  0  0  0  0  0  0  0
  -32.2354  -17.0714   20.3845 C   0  0  0  0  0  0  0  0  0  0  0  0
  -23.3058   -8.0753   28.8728 C   0  0  0  0  0  0  0  0  0  0  0  0
  -24.4253  -12.1009   23.2892 C   0  0  0  0  0  0  0  0  0  0  0  0
  -24.1513  -12.6877   20.8218 C   0  0  0  0  0  0  0  0  0  0  0  0
  -27.2558  -30.9604   14.0832 C   0  0  0  0  0  0  0  0  0  0  0  0
  -24.4031  -26.6838   18.2958 C   0  0  0  0  0  0  0  0  0  0  0  0
  -27.3052  -30.1290   15.2184 C   0  0  0  0  0  0  0  0  0  0  0  0
  -24.6293  -26.7286   19.6789 C   0  0  0  0  0  0  0  0  0  0  0  0
  -30.0348  -18.0679   20.3478 C   0  0  0  0  0  0  0  0  0  0  0  0
  -30.6103  -19.3385   20.3363 C   0  0  0  0  0  0  0  0  0  0  0  0
  -30.8473  -16.9344   20.3719 C   0  0  0  0  0  0  0  0  0  0  0  0
  -23.4771  -11.5578   25.8560 C   0  0  0  0  0  0  0  0  0  0  0  0
  -25.6465  -24.5232   19.5715 C   0  0  0  0  0  0  0  0  0  0  0  0
  -23.5639  -10.2163   27.7834 C   0  0  0  0  0  0  0  0  0  0  0  0
  -24.6742   -8.0473   29.1417 C   0  0  0  0  0  0  0  0  0  0  0  0
  -32.8109  -18.3420   20.3730 C   0  0  0  0  0  0  0  0  0  0  0  0
  -22.7506   -9.1599   28.1936 C   0  0  0  0  0  0  0  0  0  0  0  0
  -24.9156  -12.3819   21.9638 C   0  0  0  0  0  0  0  0  0  0  0  0
  -25.0796  -12.8690   19.8258 C   0  0  0  0  0  0  0  0  0  0  0  0
  -22.7294  -12.7982   20.6744 C   0  0  0  0  0  0  0  0  0  0  0  0
  -29.0993  -22.7838   20.2695 C   0  0  0  0  0  0  0  0  0  0  0  0
  -30.2412  -21.8091   20.2918 C   0  0  0  0  0  0  0  0  0  0  0  0
  -25.1914  -29.7624   18.2268 C   0  0  0  0  0  0  0  0  0  0  0  0
  -22.8265  -30.0165   20.4325 C   0  0  0  0  0  0  0  0  0  0  0  0
  -20.9311  -28.5060   22.8352 C   0  0  0  0  0  0  0  0  0  0  0  0
  -30.8367  -14.4692   19.8532 C   0  0  0  0  0  0  0  0  0  0  0  0
  -26.8236  -32.4024   14.1742 C   0  0  0  0  0  0  0  0  0  0  0  0
  -23.7084  -27.8223   17.6004 C   0  0  0  0  0  0  0  0  0  0  0  0
  -24.2220  -27.9161   20.5111 C   0  0  0  0  0  0  0  0  0  0  0  0
  -26.0550  -32.7284   15.4522 C   0  0  0  0  0  0  0  0  0  0  0  0
  -29.4645  -11.4775   18.4952 C   0  0  0  0  0  0  0  0  0  0  0  0
  -26.7672  -32.1430   16.6675 C   0  0  0  0  0  0  0  0  0  0  0  0
  -28.0704  -11.4009   19.1219 C   0  0  0  0  0  0  0  0  0  0  0  0
  -30.4960  -12.0372   19.4732 C   0  0  0  0  0  0  0  0  0  0  0  0
  -28.7433  -13.2463   20.7122 C   0  0  0  0  0  0  0  0  0  0  0  0
  -26.8473  -30.6144   16.5767 C   0  0  1  0  0  0  0  0  0  0  0  0
  -23.8277  -29.1441   18.3526 C   0  0  1  0  0  0  0  0  0  0  0  0
  -27.6574  -12.7493   19.7440 C   0  0  2  0  0  0  0  0  0  0  0  0
  -19.1061  -28.9795   24.4912 C   0  0  0  0  0  0  0  0  0  0  0  0
  -25.7134  -19.0174   20.8986 C   0  0  0  0  0  0  0  0  0  0  0  0
  -25.9109  -18.2643   23.2725 C   0  0  0  0  0  0  0  0  0  0  0  0
  -25.9779  -16.5865   21.4101 C   0  0  0  0  0  0  0  0  0  0  0  0
  -24.8393  -31.4204   22.2456 C   0  0  0  0  0  0  0  0  0  0  0  0
  -23.2866  -31.0142   24.1671 C   0  0  0  0  0  0  0  0  0  0  0  0
  -22.5510  -32.4294   22.2491 C   0  0  0  0  0  0  0  0  0  0  0  0
  -19.1101  -26.5506   21.5626 C   0  0  0  0  0  0  0  0  0  0  0  0
  -28.5448  -17.9211   20.3350 C   0  0  0  0  0  0  0  0  0  0  0  0
  -28.1690  -22.7556   21.4623 C   0  0  0  0  0  0  0  0  0  0  0  0
  -27.9321  -18.1943   21.7202 C   0  0  0  0  0  0  0  0  0  0  0  0
  -27.0472  -23.7761   21.3423 C   0  0  0  0  0  0  0  0  0  1  0  0
  -22.7546  -29.9287   21.9379 C   0  0  1  0  0  0  0  0  0  0  0  0
  -19.4336  -28.5050   23.0839 C   0  0  2  0  0  0  0  0  0  0  0  0
  -26.3963  -18.0029   21.8372 C   0  0  0  0  0  0  0  0  0  0  0  0
  -23.3674  -31.1765   22.6342 C   0  0  0  0  0  0  0  0  0  0  0  0
  -26.2283  -12.3685   21.7173 N   0  0  0  0  0  0  0  0  0  0  0  0
  -26.2961  -12.6681   20.4090 N   0  0  0  0  0  0  0  0  0  0  0  0
  -23.5516  -29.0067   19.7841 N   0  0  0  0  0  0  0  0  0  0  0  0
  -30.0391  -13.3171   20.0189 N   0  0  0  0  0  0  0  0  0  0  0  0
  -24.9658  -13.1789   18.5168 N   0  0  0  0  0  0  0  0  0  0  0  0
  -21.9223  -12.5806   21.7994 N   0  0  0  0  0  0  0  0  0  0  0  0
  -29.8060  -20.5016   20.3123 N   0  0  0  0  0  0  0  0  0  0  0  0
  -30.2846  -15.6340   20.3851 N   0  0  0  0  0  0  0  0  0  0  0  0
  -25.5744  -30.0200   16.9244 N   0  0  0  0  0  0  0  0  0  0  0  0
  -21.3536  -29.6889   22.2663 N   0  0  0  0  0  0  0  0  0  0  0  0
  -18.8806  -27.1321   22.9103 N   0  3  0  0  0  0  0  0  0  0  0  0
  -22.1898  -13.0653   19.5740 O   0  0  0  0  0  0  0  0  0  0  0  0
  -29.0163  -23.5264   19.3030 O   0  0  0  0  0  0  0  0  0  0  0  0
  -31.3647  -22.2834   20.2631 O   0  0  0  0  0  0  0  0  0  0  0  0
  -25.8470  -29.9902   19.2368 O   0  0  0  0  0  0  0  0  0  0  0  0
  -22.2542  -30.9428   19.8528 O   0  0  0  0  0  0  0  0  0  0  0  0
  -21.6544  -27.5542   23.1205 O   0  0  0  0  0  0  0  0  0  0  0  0
  -31.9164  -14.4308   19.2578 O   0  0  0  0  0  0  0  0  0  0  0  0
  -23.0144  -11.2933   27.1084 O   0  0  0  0  0  0  0  0  0  0  0  0
  -26.2547  -23.4770   20.1939 O   0  0  0  0  0  0  0  0  0  1  0  0
  -25.2078   -7.0052   29.7926 F   0  0  0  0  0  0  0  0  0  0  0  0
  -34.1439  -18.4740   20.3848 F   0  0  0  0  0  0  0  0  0  0  0  0
  -21.4355   -9.1807   27.9371 F   0  0  0  0  0  0  0  0  0  0  0  0
  1  2  1  0  0  0  0
  1  5  2  0  0  0  0
  2  6  2  0  0  0  0
  3  8  2  0  0  0  0
  3 17  1  0  0  0  0
  4  9  1  0  0  0  0
  4 17  2  0  0  0  0
  5 19  1  0  0  0  0
  6 21  1  0  0  0  0
  7 10  2  0  0  0  0
  7 20  1  0  0  0  0
  8 26  1  0  0  0  0
  9 26  2  0  0  0  0
 10 27  1  0  0  0  0
 11 12  2  0  0  0  0
 11 28  1  0  0  0  0
 12 29  1  0  0  0  0
 13 22  1  0  0  0  0
 13 27  2  0  0  0  0
 14 24  1  0  0  0  0
 14 30  2  0  0  0  0
 15 25  2  0  0  0  0
 15 30  1  0  0  0  0
 16 29  2  0  0  0  0
 16 31  1  0  0  0  0
 17 32  1  0  0  0  0
 18 32  1  0  0  0  0
 18 33  2  0  0  0  0
 18 34  1  0  0  0  0
 19 21  2  0  0  0  0
 19 41  1  0  0  0  0
 20 22  2  0  0  0  0
 20 42  1  0  0  0  0
 21 50  1  0  0  0  0
 22 43  1  0  0  0  0
 23 24  2  0  0  0  0
 23 25  1  0  0  0  0
 23 61  1  0  0  0  0
 24 75  1  0  0  0  0
 25 76  1  0  0  0  0
 26 87  1  0  0  0  0
 27 88  1  0  0  0  0
 28 31  2  0  0  0  0
 28 87  1  0  0  0  0
 29 89  1  0  0  0  0
 30 90  1  0  0  0  0
 31 91  1  0  0  0  0
 32 69  2  0  0  0  0
 33 70  1  0  0  0  0
 33 73  1  0  0  0  0
 34 74  1  0  0  0  0
 34 80  2  0  0  0  0
 35 36  1  0  0  0  0
 35 62  1  0  0  0  0
 35 81  2  0  0  0  0
 36 75  1  0  0  0  0
 36 82  2  0  0  0  0
 37 51  1  0  0  0  0
 37 77  1  0  0  0  0
 37 83  2  0  0  0  0
 38 65  1  0  0  0  0
 38 71  1  0  0  0  0
 38 84  2  0  0  0  0
 39 66  1  0  0  0  0
 39 78  1  0  0  0  0
 39 85  2  0  0  0  0
 40 72  1  0  0  0  0
 40 76  1  0  0  0  0
 40 86  2  0  0  0  0
 41 44  1  0  0  0  0
 42 51  1  0  0  0  0
 43 71  1  0  0  0  0
 44 46  1  0  0  0  0
 45 47  1  0  0  0  0
 45 48  1  0  0  0  0
 46 50  1  0  0  0  0
 47 52  1  0  0  0  0
 48 72  1  0  0  0  0
 49 52  1  0  0  0  0
 49 72  1  0  0  0  0
 50 77  1  0  0  0  0
 51 71  1  0  0  0  0
 52 70  1  0  0  0  0
 53 66  1  0  0  0  0
 54 67  1  0  0  0  0
 55 67  1  0  0  0  0
 56 67  1  0  0  0  0
 57 68  1  0  0  0  0
 58 68  1  0  0  0  0
 59 68  1  0  0  0  0
 60 79  1  0  0  0  0
 61 63  1  0  0  0  0
 62 64  1  0  0  0  0
 63 67  1  0  0  0  0
 64 88  1  0  0  0  0
 65 68  1  0  0  0  0
 65 78  1  0  0  0  0
 66 79  1  0  0  0  0
 69 70  1  0  0  0  0
M  CHG  1  79   1
M  ISO  4  40 100  64 101  76 100  88 101
M  END
> <Batch ID>
0174

> <Smiles>
CNC(C)C(=O)NC(C(=O)N1Cc2cc([101O:1][101CH2:1]CC(=O)C(=O)Nc3cc(F)cc([100NH:0][100C:0](=O)N4CCCC(n5nc(-c6ccc(Oc7ccc(F)cc7F)cc6)c(C(N)=O)c5N)C4)c3CCC(C)(C)C)ccc2CC1C(=O)NC1CCCc2ccccc21)C(C)(C)C

> <Shape>
0.241

> <Color>
0.091

> <Negative vol penalty>
0.000

$$$$

  -OEChem-04052304333D

 85 93  0     1  0  0  0  0  0999 V2000
  -22.6827  -21.7716   16.9522 C   0  0  0  0  0  0  0  0  0  0  0  0
  -23.9356  -21.1670   16.9407 C   0  0  0  0  0  0  0  0  0  0  0  0
  -25.9843  -28.2219   19.2681 C   0  0  0  0  0  0  0  0  0  0  0  0
  -25.8872  -26.8122   21.2278 C   0  0  0  0  0  0  0  0  0  0  0  0
  -21.8363  -21.5982   18.0464 C   0  0  0  0  0  0  0  0  0  0  0  0
  -24.3432  -20.3894   18.0240 C   0  0  0  0  0  0  0  0  0  0  0  0
  -28.2897  -14.6175   19.5819 C   0  0  0  0  0  0  0  0  0  0  0  0
  -24.8046  -28.8526   19.6632 C   0  0  0  0  0  0  0  0  0  0  0  0
  -24.7075  -27.4429   21.6230 C   0  0  0  0  0  0  0  0  0  0  0  0
  -29.3283  -14.2176   20.4217 C   0  0  0  0  0  0  0  0  0  0  0  0
  -21.4259  -27.3179   20.8192 C   0  0  0  0  0  0  0  0  0  0  0  0
  -20.3774  -26.5120   21.2627 C   0  0  0  0  0  0  0  0  0  0  0  0
  -27.7506  -13.9231   22.2227 C   0  0  0  0  0  0  0  0  0  0  0  0
  -20.4265  -27.6272   23.4054 C   0  0  0  0  0  0  0  0  0  0  0  0
  -29.7794  -18.2452   21.9081 C   0  0  0  0  0  0  0  0  0  0  0  0
  -30.3118  -18.3621   19.2344 C   0  0  0  0  0  0  0  0  0  0  0  0
  -26.5256  -27.2017   20.0503 C   0  0  0  0  0  0  0  0  0  0  0  0
  -29.0601  -26.9217   19.9755 C   0  0  0  0  0  0  0  0  0  0  0  0
  -22.2299  -20.8101   19.1395 C   0  0  0  0  0  0  0  0  0  0  0  0
  -26.9732  -14.6839   20.0601 C   0  0  0  0  0  0  0  0  0  0  0  0
  -23.5018  -20.2063   19.1345 C   0  0  0  0  0  0  0  0  0  0  0  0
  -26.6968  -14.3218   21.3862 C   0  0  0  0  0  0  0  0  0  0  0  0
  -29.3849  -19.2487   19.7582 C   0  0  0  0  0  0  0  0  0  0  0  0
  -24.1662  -28.4631   20.8407 C   0  0  0  0  0  0  0  0  0  0  0  0
  -29.0593  -13.8731   21.7431 C   0  0  0  0  0  0  0  0  0  0  0  0
  -21.9748  -28.2785   21.6688 C   0  0  0  0  0  0  0  0  0  0  0  0
  -19.8777  -26.6666   22.5558 C   0  0  0  0  0  0  0  0  0  0  0  0
  -21.4751  -28.4331   22.9619 C   0  0  0  0  0  0  0  0  0  0  0  0
  -29.1193  -19.1827   21.1215 C   0  0  0  0  0  0  0  0  0  0  0  0
  -27.7440  -26.5495   19.6424 C   0  0  0  0  0  0  0  0  0  0  0  0
  -30.6885  -17.4033   21.2879 C   0  0  0  0  0  0  0  0  0  0  0  0
  -29.8499  -25.9908   19.3461 C   0  0  0  0  0  0  0  0  0  0  0  0
  -29.5271  -28.0113   20.7820 C   0  0  0  0  0  0  0  0  0  0  0  0
  -32.0416  -15.1349   23.9674 C   0  0  0  0  0  0  0  0  0  0  0  0
  -31.1980  -16.2655   23.4531 C   0  0  0  0  0  0  0  0  0  0  0  0
  -24.8292  -17.0038   20.4132 C   0  0  0  0  0  0  0  0  0  0  0  0
  -22.8814  -14.5457   21.2416 C   0  0  0  0  0  0  0  0  0  0  0  0
  -22.5807  -11.3653   22.4420 C   0  0  0  0  0  0  0  0  0  0  0  0
  -28.8975  -20.3701   17.5557 C   0  0  0  0  0  0  0  0  0  0  0  0
  -21.2995  -20.6904   20.3204 C   0  0  0  0  0  0  0  0  0  0  0  0
  -25.8602  -15.0916   19.1341 C   0  0  0  0  0  0  0  0  0  0  0  0
  -25.2976  -14.3566   21.9426 C   0  0  0  0  0  0  0  0  0  0  0  0
  -21.6570  -19.5447   21.2638 C   0  0  0  0  0  0  0  0  0  0  0  0
  -29.9177  -23.1088   15.5220 C   0  0  0  0  0  0  0  0  0  0  0  0
  -23.1532  -19.5448   21.5607 C   0  0  0  0  0  0  0  0  0  0  0  0
  -29.6015  -24.3355   16.3806 C   0  0  0  0  0  0  0  0  0  0  0  0
  -28.8675  -22.0123   15.6909 C   0  0  0  0  0  0  0  0  0  0  0  0
  -28.2885  -22.8396   17.9380 C   0  0  0  0  0  0  0  0  0  0  0  0
  -23.9699  -19.3351   20.2799 C   0  0  1  0  0  0  0  0  0  0  0  0
  -24.6319  -15.6165   19.8710 C   0  0  1  0  0  0  0  0  0  0  0  0
  -29.3531  -23.9455   17.8509 C   0  0  2  0  0  0  0  0  0  0  0  0
  -20.8592   -9.6416   23.0444 C   0  0  0  0  0  0  0  0  0  0  0  0
  -22.2567  -16.0706   23.8096 C   0  0  0  0  0  0  0  0  0  0  0  0
  -21.3329  -13.9479   24.7629 C   0  0  0  0  0  0  0  0  0  0  0  0
  -20.2809  -14.9681   22.7442 C   0  0  0  0  0  0  0  0  0  0  0  0
  -23.6207   -9.4564   20.4337 C   0  0  0  0  0  0  0  0  0  0  0  0
  -31.2990  -13.9667   24.5780 C   0  0  0  0  0  0  0  0  0  0  0  0
  -29.9252  -13.7684   23.9556 C   0  0  0  0  0  0  0  0  0  1  0  0
  -22.5357  -13.8440   22.5328 C   0  0  1  0  0  0  0  0  0  0  0  0
  -21.7736  -10.1762   21.9531 C   0  0  2  0  0  0  0  0  0  0  0  0
  -21.6283  -14.7087   23.4527 C   0  0  0  0  0  0  0  0  0  0  0  0
  -30.9728  -17.4378   19.9667 N   0  0  0  0  0  0  0  0  0  0  0  0
  -27.6962  -25.4668   18.8617 N   0  0  0  0  0  0  0  0  0  0  0  0
  -28.9922  -25.1506   18.6991 N   0  0  0  0  0  0  0  0  0  0  0  0
  -24.2444  -14.7680   20.9997 N   0  0  0  0  0  0  0  0  0  0  0  0
  -28.6886  -21.6920   17.1087 N   0  0  0  0  0  0  0  0  0  0  0  0
  -31.1874  -25.8173   19.2884 N   0  0  0  0  0  0  0  0  0  0  0  0
  -28.5808  -28.8727   21.3538 N   0  0  0  0  0  0  0  0  0  0  0  0
  -28.7299  -20.1924   18.9286 N   0  0  0  0  0  0  0  0  0  0  0  0
  -31.3534  -16.4523   22.0965 N   0  0  0  0  0  0  0  0  0  0  0  0
  -23.9556  -17.9403   19.8941 N   0  0  0  0  0  0  0  0  0  0  0  0
  -21.9543  -12.5599   22.1565 N   0  0  0  0  0  0  0  0  0  0  0  0
  -22.6815   -9.0765   21.5202 N   0  3  0  0  0  0  0  0  0  0  0  0
  -30.7479  -28.2247   20.9759 O   0  0  0  0  0  0  0  0  0  0  0  0
  -33.2526  -15.2393   23.8440 O   0  0  0  0  0  0  0  0  0  0  0  0
  -30.4907  -16.8339   24.2683 O   0  0  0  0  0  0  0  0  0  0  0  0
  -25.7078  -17.2092   21.2424 O   0  0  0  0  0  0  0  0  0  0  0  0
  -21.9759  -14.8779   20.4726 O   0  0  0  0  0  0  0  0  0  0  0  0
  -23.6573  -11.2460   23.0227 O   0  0  0  0  0  0  0  0  0  0  0  0
  -29.2291  -19.4682   16.7819 O   0  0  0  0  0  0  0  0  0  0  0  0
  -23.0152  -29.0784   21.2267 O   0  0  0  0  0  0  0  0  0  0  0  0
  -30.0712  -13.4830   22.5650 O   0  0  0  0  0  0  0  0  0  1  0  0
  -18.8698  -25.8937   22.9811 F   0  0  0  0  0  0  0  0  0  0  0  0
  -21.9975  -29.3550   23.7822 F   0  0  0  0  0  0  0  0  0  0  0  0
  -28.2321  -20.0145   21.6850 F   0  0  0  0  0  0  0  0  0  0  0  0
  1  2  1  0  0  0  0
  1  5  2  0  0  0  0
  2  6  2  0  0  0  0
  3  8  2  0  0  0  0
  3 17  1  0  0  0  0
  4  9  1  0  0  0  0
  4 17  2  0  0  0  0
  5 19  1  0  0  0  0
  6 21  1  0  0  0  0
  7 10  2  0  0  0  0
  7 20  1  0  0  0  0
  8 24  1  0  0  0  0
  9 24  2  0  0  0  0
 10 25  1  0  0  0  0
 11 12  2  0  0  0  0
 11 26  1  0  0  0  0
 12 27  1  0  0  0  0
 13 22  1  0  0  0  0
 13 25  2  0  0  0  0
 14 27  2  0  0  0  0
 14 28  1  0  0  0  0
 15 29  2  0  0  0  0
 15 31  1  0  0  0  0
 16 23  2  0  0  0  0
 16 62  1  0  0  0  0
 17 30  1  0  0  0  0
 18 30  1  0  0  0  0
 18 32  2  0  0  0  0
 18 33  1  0  0  0  0
 19 21  2  0  0  0  0
 19 40  1  0  0  0  0
 20 22  2  0  0  0  0
 20 41  1  0  0  0  0
 21 49  1  0  0  0  0
 22 42  1  0  0  0  0
 23 29  1  0  0  0  0
 23 69  1  0  0  0  0
 24 81  1  0  0  0  0
 25 82  1  0  0  0  0
 26 28  2  0  0  0  0
 26 81  1  0  0  0  0
 27 83  1  0  0  0  0
 28 84  1  0  0  0  0
 29 85  1  0  0  0  0
 30 63  2  0  0  0  0
 31 62  2  0  0  0  0
 31 70  1  0  0  0  0
 32 64  1  0  0  0  0
 32 67  1  0  0  0  0
 33 68  1  0  0  0  0
 33 74  2  0  0  0  0
 34 35  1  0  0  0  0
 34 57  1  0  0  0  0
 34 75  2  0  0  0  0
 35 70  1  0  0  0  0
 35 76  2  0  0  0  0
 36 50  1  0  0  0  0
 36 71  1  0  0  0  0
 36 77  2  0  0  0  0
 37 59  1  0  0  0  0
 37 65  1  0  0  0  0
 37 78  2  0  0  0  0
 38 60  1  0  0  0  0
 38 72  1  0  0  0  0
 38 79  2  0  0  0  0
 39 66  1  0  0  0  0
 39 69  1  0  0  0  0
 39 80  2  0  0  0  0
 40 43  1  0  0  0  0
 41 50  1  0  0  0  0
 42 65  1  0  0  0  0
 43 45  1  0  0  0  0
 44 46  1  0  0  0  0
 44 47  1  0  0  0  0
 45 49  1  0  0  0  0
 46 51  1  0  0  0  0
 47 66  1  0  0  0  0
 48 51  1  0  0  0  0
 48 66  1  0  0  0  0
 49 71  1  0  0  0  0
 50 65  1  0  0  0  0
 51 64  1  0  0  0  0
 52 60  1  0  0  0  0
 53 61  1  0  0  0  0
 54 61  1  0  0  0  0
 55 61  1  0  0  0  0
 56 73  1  0  0  0  0
 57 58  1  0  0  0  0
 58 82  1  0  0  0  0
 59 61  1  0  0  0  0
 59 72  1  0  0  0  0
 60 73  1  0  0  0  0
 63 64  1  0  0  0  0
M  CHG  1  73   1
M  ISO  4  39 100  58 101  69 100  82 101
M  END
> <Batch ID>
0174

> <Smiles>
CNC(C)C(=O)NC(C(=O)N1Cc2cc([101O:1][101CH2:1]CC(=O)C(=O)Nc3cc(F)c([100NH:0][100C:0](=O)N4CCCC(n5nc(-c6ccc(Oc7ccc(F)cc7F)cc6)c(C(N)=O)c5N)C4)cn3)ccc2CC1C(=O)NC1CCCc2ccccc21)C(C)(C)C

> <Shape>
0.265

> <Color>
0.065

> <Negative vol penalty>
0.000

$$$$

  -OEChem-04052304333D

 87 95  0     1  0  0  0  0  0999 V2000
  -19.1265  -25.3469   20.4210 C   0  0  0  0  0  0  0  0  0  0  0  0
  -20.0793  -24.9403   21.3495 C   0  0  0  0  0  0  0  0  0  0  0  0
  -23.0898   -9.8363   19.9012 C   0  0  0  0  0  0  0  0  0  0  0  0
  -23.9203   -9.7368   22.1678 C   0  0  0  0  0  0  0  0  0  0  0  0
  -18.5856  -26.6298   20.4950 C   0  0  0  0  0  0  0  0  0  0  0  0
  -20.4928  -25.8168   22.3520 C   0  0  0  0  0  0  0  0  0  0  0  0
  -20.7372  -23.5948   26.8960 C   0  0  0  0  0  0  0  0  0  0  0  0
  -22.3693   -8.6610   20.1136 C   0  0  0  0  0  0  0  0  0  0  0  0
  -23.1998   -8.5615   22.3802 C   0  0  0  0  0  0  0  0  0  0  0  0
  -21.8464  -22.7900   27.1524 C   0  0  0  0  0  0  0  0  0  0  0  0
  -21.2936   -5.7304   23.6330 C   0  0  0  0  0  0  0  0  0  0  0  0
  -20.5747   -5.6156   24.8228 C   0  0  0  0  0  0  0  0  0  0  0  0
  -22.8618  -24.5941   28.3906 C   0  0  0  0  0  0  0  0  0  0  0  0
  -29.8888  -17.3520   23.2798 C   0  0  0  0  0  0  0  0  0  0  0  0
  -32.0640  -16.5674   22.5801 C   0  0  0  0  0  0  0  0  0  0  0  0
  -19.2826   -7.5693   24.2305 C   0  0  0  0  0  0  0  0  0  0  0  0
  -23.8654  -10.3742   20.9283 C   0  0  0  0  0  0  0  0  0  0  0  0
  -24.1700  -12.9070   20.9288 C   0  0  0  0  0  0  0  0  0  0  0  0
  -18.9855  -27.5192   21.5048 C   0  0  0  0  0  0  0  0  0  0  0  0
  -20.6867  -24.9112   27.3766 C   0  0  0  0  0  0  0  0  0  0  0  0
  -19.9578  -27.1134   22.4389 C   0  0  0  0  0  0  0  0  0  0  0  0
  -21.7498  -25.4128   28.1411 C   0  0  0  0  0  0  0  0  0  0  0  0
  -30.6743  -16.5368   22.4649 C   0  0  0  0  0  0  0  0  0  0  0  0
  -30.4931  -18.1979   24.2099 C   0  0  0  0  0  0  0  0  0  0  0  0
  -31.8829  -18.2284   24.3251 C   0  0  0  0  0  0  0  0  0  0  0  0
  -22.4243   -8.0236   21.3531 C   0  0  0  0  0  0  0  0  0  0  0  0
  -22.9102  -23.2905   27.8973 C   0  0  0  0  0  0  0  0  0  0  0  0
  -21.0071   -6.7647   22.7420 C   0  0  0  0  0  0  0  0  0  0  0  0
  -19.5692   -6.5350   25.1215 C   0  0  0  0  0  0  0  0  0  0  0  0
  -32.6684  -17.4132   23.5102 C   0  0  0  0  0  0  0  0  0  0  0  0
  -20.0015   -7.6841   23.0407 C   0  0  0  0  0  0  0  0  0  0  0  0
  -24.6103  -11.5880   20.7093 C   0  0  0  0  0  0  0  0  0  0  0  0
  -25.2404  -13.6901   20.5718 C   0  0  0  0  0  0  0  0  0  0  0  0
  -22.9064  -13.3818   21.4122 C   0  0  0  0  0  0  0  0  0  0  0  0
  -20.5065  -27.7852   26.0306 C   0  0  0  0  0  0  0  0  0  0  0  0
  -25.8175  -21.2718   27.1378 C   0  0  0  0  0  0  0  0  0  0  0  0
  -20.2052  -28.7765   29.1045 C   0  0  0  0  0  0  0  0  0  0  0  0
  -28.2861  -19.0948   25.0265 C   0  0  0  0  0  0  0  0  0  0  0  0
  -20.7718  -28.1665   32.4141 C   0  0  0  0  0  0  0  0  0  0  0  0
  -30.6951  -14.8060   20.6345 C   0  0  0  0  0  0  0  0  0  0  0  0
  -18.4075  -28.9122   21.5160 C   0  0  0  0  0  0  0  0  0  0  0  0
  -19.4714  -25.7577   27.1141 C   0  0  0  0  0  0  0  0  0  0  0  0
  -21.7356  -26.8125   28.6970 C   0  0  0  0  0  0  0  0  0  0  0  0
  -18.6238  -29.6509   22.8343 C   0  0  0  0  0  0  0  0  0  0  0  0
  -29.5396  -12.5007   18.1794 C   0  0  0  0  0  0  0  0  0  0  0  0
  -20.0682  -29.4989   23.3006 C   0  0  0  0  0  0  0  0  0  0  0  0
  -28.1179  -12.1662   18.6368 C   0  0  0  0  0  0  0  0  0  0  0  0
  -30.4885  -12.6810   19.3630 C   0  0  0  0  0  0  0  0  0  0  0  0
  -28.6159  -13.3054   20.8371 C   0  0  0  0  0  0  0  0  0  0  0  0
  -20.4135  -28.0269   23.5560 C   0  0  1  0  0  0  0  0  0  0  0  0
  -19.7519  -27.2538   27.2163 C   0  0  1  0  0  0  0  0  0  0  0  0
  -27.6094  -13.1785   19.6819 C   0  0  2  0  0  0  0  0  0  0  0  0
  -20.4459  -29.1777   34.6876 C   0  0  0  0  0  0  0  0  0  0  0  0
  -22.5238  -30.6902   28.5831 C   0  0  0  0  0  0  0  0  0  0  0  0
  -22.7682  -30.9585   31.0603 C   0  0  0  0  0  0  0  0  0  0  0  0
  -20.6554  -31.6588   29.9340 C   0  0  0  0  0  0  0  0  0  0  0  0
  -19.0722  -25.9117   33.3010 C   0  0  0  0  0  0  0  0  0  0  0  0
  -26.2908  -20.2433   26.1211 C   0  0  0  0  0  0  0  0  0  0  0  0
  -24.3219  -21.5193   27.1722 C   0  0  0  0  0  0  0  0  0  1  0  0
  -27.8090  -20.1047   26.0641 C   0  0  0  0  0  0  0  0  0  0  0  0
  -21.1652  -29.1959   30.1915 C   0  0  1  0  0  0  0  0  0  0  0  0
  -19.8618  -28.2590   33.6257 C   0  0  2  0  0  0  0  0  0  0  0  0
  -21.7796  -30.6000   29.9303 C   0  0  0  0  0  0  0  0  0  0  0  0
  -25.8627  -11.5324   20.2485 N   0  0  0  0  0  0  0  0  0  0  0  0
  -26.2185  -12.8263   20.1754 N   0  0  0  0  0  0  0  0  0  0  0  0
  -20.5279  -27.6033   28.4079 N   0  0  0  0  0  0  0  0  0  0  0  0
  -29.9435  -13.6571   20.3091 N   0  0  0  0  0  0  0  0  0  0  0  0
  -32.5140  -19.0792   25.2606 N   0  0  0  0  0  0  0  0  0  0  0  0
  -25.4308  -15.0266   20.5614 N   0  0  0  0  0  0  0  0  0  0  0  0
  -21.9175  -12.4417   21.7325 N   0  0  0  0  0  0  0  0  0  0  0  0
  -29.6761  -19.0164   25.0255 N   0  0  0  0  0  0  0  0  0  0  0  0
  -30.0613  -15.6782   21.5189 N   0  0  0  0  0  0  0  0  0  0  0  0
  -19.8647  -27.5913   24.8223 N   0  0  0  0  0  0  0  0  0  0  0  0
  -20.4311  -29.0892   31.4478 N   0  0  0  0  0  0  0  0  0  0  0  0
  -19.6630  -26.9106   34.2284 N   0  3  0  0  0  0  0  0  0  0  0  0
  -22.6559  -14.6042   21.5402 O   0  0  0  0  0  0  0  0  0  0  0  0
  -21.5901  -28.3320   26.1997 O   0  0  0  0  0  0  0  0  0  0  0  0
  -26.5891  -21.8657   27.8894 O   0  0  0  0  0  0  0  0  0  0  0  0
  -19.2022  -29.4607   28.8865 O   0  0  0  0  0  0  0  0  0  0  0  0
  -27.5050  -18.4650   24.3212 O   0  0  0  0  0  0  0  0  0  0  0  0
  -21.6950  -27.3591   32.3346 O   0  0  0  0  0  0  0  0  0  0  0  0
  -31.8068  -15.0151   20.1422 O   0  0  0  0  0  0  0  0  0  0  0  0
  -21.7212   -6.8769   21.5608 O   0  0  0  0  0  0  0  0  0  0  0  0
  -23.9943  -22.5073   28.1484 O   0  0  0  0  0  0  0  0  0  1  0  0
  -18.8779   -6.4238   26.2634 F   0  0  0  0  0  0  0  0  0  0  0  0
  -34.0051  -17.4347   23.6111 F   0  0  0  0  0  0  0  0  0  0  0  0
  -19.7209   -8.6791   22.1881 F   0  0  0  0  0  0  0  0  0  0  0  0
  1  2  1  0  0  0  0
  1  5  2  0  0  0  0
  2  6  2  0  0  0  0
  3  8  2  0  0  0  0
  3 17  1  0  0  0  0
  4  9  1  0  0  0  0
  4 17  2  0  0  0  0
  5 19  1  0  0  0  0
  6 21  1  0  0  0  0
  7 10  2  0  0  0  0
  7 20  1  0  0  0  0
  8 26  1  0  0  0  0
  9 26  2  0  0  0  0
 10 27  1  0  0  0  0
 11 12  2  0  0  0  0
 11 28  1  0  0  0  0
 12 29  1  0  0  0  0
 13 22  1  0  0  0  0
 13 27  2  0  0  0  0
 14 23  2  0  0  0  0
 14 24  1  0  0  0  0
 15 23  1  0  0  0  0
 15 30  2  0  0  0  0
 16 29  2  0  0  0  0
 16 31  1  0  0  0  0
 17 32  1  0  0  0  0
 18 32  1  0  0  0  0
 18 33  2  0  0  0  0
 18 34  1  0  0  0  0
 19 21  2  0  0  0  0
 19 41  1  0  0  0  0
 20 22  2  0  0  0  0
 20 42  1  0  0  0  0
 21 50  1  0  0  0  0
 22 43  1  0  0  0  0
 23 72  1  0  0  0  0
 24 25  2  0  0  0  0
 24 71  1  0  0  0  0
 25 30  1  0  0  0  0
 25 68  1  0  0  0  0
 26 83  1  0  0  0  0
 27 84  1  0  0  0  0
 28 31  2  0  0  0  0
 28 83  1  0  0  0  0
 29 85  1  0  0  0  0
 30 86  1  0  0  0  0
 31 87  1  0  0  0  0
 32 64  2  0  0  0  0
 33 65  1  0  0  0  0
 33 69  1  0  0  0  0
 34 70  1  0  0  0  0
 34 76  2  0  0  0  0
 35 51  1  0  0  0  0
 35 73  1  0  0  0  0
 35 77  2  0  0  0  0
 36 58  1  0  0  0  0
 36 59  1  0  0  0  0
 36 78  2  0  0  0  0
 37 61  1  0  0  0  0
 37 66  1  0  0  0  0
 37 79  2  0  0  0  0
 38 60  1  0  0  0  0
 38 71  1  0  0  0  0
 38 80  2  0  0  0  0
 39 62  1  0  0  0  0
 39 74  1  0  0  0  0
 39 81  2  0  0  0  0
 40 67  1  0  0  0  0
 40 72  1  0  0  0  0
 40 82  2  0  0  0  0
 41 44  1  0  0  0  0
 42 51  1  0  0  0  0
 43 66  1  0  0  0  0
 44 46  1  0  0  0  0
 45 47  1  0  0  0  0
 45 48  1  0  0  0  0
 46 50  1  0  0  0  0
 47 52  1  0  0  0  0
 48 67  1  0  0  0  0
 49 52  1  0  0  0  0
 49 67  1  0  0  0  0
 50 73  1  0  0  0  0
 51 66  1  0  0  0  0
 52 65  1  0  0  0  0
 53 62  1  0  0  0  0
 54 63  1  0  0  0  0
 55 63  1  0  0  0  0
 56 63  1  0  0  0  0
 57 75  1  0  0  0  0
 58 60  1  0  0  0  0
 59 84  1  0  0  0  0
 61 63  1  0  0  0  0
 61 74  1  0  0  0  0
 62 75  1  0  0  0  0
 64 65  1  0  0  0  0
M  CHG  1  75   1
M  ISO  4  40 100  59 101  72 100  84 101
M  END
> <Batch ID>
0174

> <Smiles>
CNC(C)C(=O)NC(C(=O)N1Cc2cc([101O:1][101CH2:1]C(=O)CCC(=O)Nc3cc([100NH:0][100C:0](=O)N4CCCC(n5nc(-c6ccc(Oc7ccc(F)cc7F)cc6)c(C(N)=O)c5N)C4)cc(F)c3N)ccc2CC1C(=O)NC1CCCc2ccccc21)C(C)(C)C

> <Shape>
0.218

> <Color>
0.189

> <Negative vol penalty>
0.000

$$$$

  -OEChem-04052304333D

 86 94  0     1  0  0  0  0  0999 V2000
  -29.3749  -36.6089   22.9276 C   0  0  0  0  0  0  0  0  0  0  0  0
  -29.0599  -35.4919   22.1605 C   0  0  0  0  0  0  0  0  0  0  0  0
  -23.7379   -9.0937   20.2870 C   0  0  0  0  0  0  0  0  0  0  0  0
  -22.8154  -10.9414   21.5408 C   0  0  0  0  0  0  0  0  0  0  0  0
  -27.3993  -20.3378   18.4399 C   0  0  0  0  0  0  0  0  0  0  0  0
  -28.9836  -36.6679   24.2645 C   0  0  0  0  0  0  0  0  0  0  0  0
  -28.3543  -34.4327   22.7302 C   0  0  0  0  0  0  0  0  0  0  0  0
  -24.2236  -30.8526   19.9686 C   0  0  0  0  0  0  0  0  0  0  0  0
  -27.4666  -18.9471   18.5230 C   0  0  0  0  0  0  0  0  0  0  0  0
  -22.9098   -8.2103   20.9795 C   0  0  0  0  0  0  0  0  0  0  0  0
  -21.9873  -10.0580   22.2333 C   0  0  0  0  0  0  0  0  0  0  0  0
  -24.3136  -29.5826   19.4003 C   0  0  0  0  0  0  0  0  0  0  0  0
  -22.8483   -6.7090   24.0071 C   0  0  0  0  0  0  0  0  0  0  0  0
  -23.4166   -5.5278   24.4839 C   0  0  0  0  0  0  0  0  0  0  0  0
  -23.5111  -28.6117   21.4577 C   0  0  0  0  0  0  0  0  0  0  0  0
  -29.4173  -19.1260   19.9371 C   0  0  0  0  0  0  0  0  0  0  0  0
  -21.8660   -4.2430   23.1490 C   0  0  0  0  0  0  0  0  0  0  0  0
  -23.6908  -10.4592   20.5677 C   0  0  0  0  0  0  0  0  0  0  0  0
  -28.3411  -21.1227   19.1054 C   0  0  0  0  0  0  0  0  0  0  0  0
  -24.2566  -12.0439   18.6504 C   0  0  0  0  0  0  0  0  0  0  0  0
  -28.2644  -35.6130   24.8482 C   0  0  0  0  0  0  0  0  0  0  0  0
  -23.7864  -31.0110   21.2916 C   0  0  0  0  0  0  0  0  0  0  0  0
  -27.9542  -34.4770   24.0765 C   0  0  0  0  0  0  0  0  0  0  0  0
  -23.4141  -29.8849   22.0396 C   0  0  0  0  0  0  0  0  0  0  0  0
  -28.4756  -18.3412   19.2716 C   0  0  0  0  0  0  0  0  0  0  0  0
  -22.0345   -8.6925   21.9526 C   0  0  0  0  0  0  0  0  0  0  0  0
  -23.9600  -28.4617   20.1458 C   0  0  0  0  0  0  0  0  0  0  0  0
  -21.7887   -6.6572   23.1014 C   0  0  0  0  0  0  0  0  0  0  0  0
  -22.9255   -4.2948   24.0549 C   0  0  0  0  0  0  0  0  0  0  0  0
  -29.3501  -20.5168   19.8540 C   0  0  0  0  0  0  0  0  0  0  0  0
  -21.2977   -5.4242   22.6723 C   0  0  0  0  0  0  0  0  0  0  0  0
  -24.5463  -11.3721   19.8531 C   0  0  0  0  0  0  0  0  0  0  0  0
  -25.3840  -12.7842   18.3904 C   0  0  0  0  0  0  0  0  0  0  0  0
  -25.2241  -26.5388   19.7274 C   0  0  0  0  0  0  0  0  0  1  0  0
  -28.2668  -22.6087   19.0114 C   0  0  0  0  0  0  0  0  0  0  0  0
  -23.0742  -12.0025   17.8406 C   0  0  0  0  0  0  0  0  0  0  0  0
  -25.4205  -25.3141   19.2251 C   0  0  0  0  0  0  0  0  0  0  0  0
  -26.7464  -24.6474   19.4220 C   0  0  0  0  0  0  0  0  0  0  0  0
  -25.0788  -32.1594   23.9589 C   0  0  0  0  0  0  0  0  0  0  0  0
  -22.0961  -31.6888   25.1440 C   0  0  0  0  0  0  0  0  0  0  0  0
  -19.1253  -30.0222   24.9353 C   0  0  0  0  0  0  0  0  0  0  0  0
  -29.4803  -16.1681   20.0556 C   0  0  0  0  0  0  0  0  0  0  0  0
  -27.9042  -35.7015   26.3101 C   0  0  0  0  0  0  0  0  0  0  0  0
  -23.6695  -32.3898   21.8812 C   0  0  0  0  0  0  0  0  0  0  0  0
  -22.9192  -30.0028   23.4572 C   0  0  0  0  0  0  0  0  0  0  0  0
  -26.8335  -34.7000   26.7353 C   0  0  0  0  0  0  0  0  0  0  0  0
  -29.9652  -12.6742   20.5404 C   0  0  0  0  0  0  0  0  0  0  0  0
  -27.1511  -33.3131   26.1852 C   0  0  0  0  0  0  0  0  0  0  0  0
  -28.5748  -12.0793   20.3059 C   0  0  0  0  0  0  0  0  0  0  0  0
  -29.8915  -14.0266   21.2472 C   0  0  0  0  0  0  0  0  0  0  0  0
  -27.6216  -14.4189   20.3738 C   0  0  0  0  0  0  0  0  0  0  0  0
  -27.1685  -33.3186   24.6518 C   0  0  1  0  0  0  0  0  0  0  0  0
  -23.7010  -32.3921   23.4064 C   0  0  1  0  0  0  0  0  0  0  0  0
  -27.6413  -13.0868   19.6065 C   0  0  2  0  0  0  0  0  0  0  0  0
  -16.8936  -29.8249   26.0659 C   0  0  0  0  0  0  0  0  0  0  0  0
  -23.3792  -30.0682   27.3885 C   0  0  0  0  0  0  0  0  0  0  0  0
  -21.1171  -29.1310   27.9106 C   0  0  0  0  0  0  0  0  0  0  0  0
  -21.5286  -31.5823   28.1214 C   0  0  0  0  0  0  0  0  0  0  0  0
  -17.6845  -30.8869   22.4990 C   0  0  0  0  0  0  0  0  0  0  0  0
  -26.9060  -23.2576   18.8275 C   0  0  0  0  0  0  0  0  0  0  0  0
  -21.3832  -30.5432   25.8211 C   0  0  1  0  0  0  0  0  0  0  0  0
  -17.6897  -30.5145   24.9688 C   0  0  2  0  0  0  0  0  0  0  0  0
  -21.8631  -30.3285   27.2843 C   0  0  0  0  0  0  0  0  0  0  0  0
  -25.7625  -11.6600   20.3245 N   0  0  0  0  0  0  0  0  0  0  0  0
  -26.2469  -12.5208   19.4132 N   0  0  0  0  0  0  0  0  0  0  0  0
  -22.8285  -31.3718   23.9912 N   0  0  0  0  0  0  0  0  0  0  0  0
  -28.9928  -14.9304   20.5259 N   0  0  0  0  0  0  0  0  0  0  0  0
  -25.7114  -13.6282   17.3890 N   0  0  0  0  0  0  0  0  0  0  0  0
  -22.0096  -11.1898   18.2536 N   0  0  0  0  0  0  0  0  0  0  0  0
  -28.5438  -16.9284   19.3559 N   0  0  0  0  0  0  0  0  0  0  0  0
  -25.8183  -33.3140   24.1310 N   0  0  0  0  0  0  0  0  0  0  0  0
  -19.9561  -30.8187   25.6947 N   0  0  0  0  0  0  0  0  0  0  0  0
  -17.0202  -30.2483   23.6643 N   0  3  0  0  0  0  0  0  0  0  0  0
  -29.3072  -23.2601   19.0587 O   0  0  0  0  0  0  0  0  0  0  0  0
  -22.9712  -12.6539   16.7735 O   0  0  0  0  0  0  0  0  0  0  0  0
  -27.6408  -25.1958   20.0631 O   0  0  0  0  0  0  0  0  0  0  0  0
  -25.4434  -31.0171   24.2117 O   0  0  0  0  0  0  0  0  0  0  0  0
  -22.0006  -32.8243   25.6163 O   0  0  0  0  0  0  0  0  0  0  0  0
  -19.4740  -29.0283   24.3021 O   0  0  0  0  0  0  0  0  0  0  0  0
  -30.6505  -16.5151   20.2350 O   0  0  0  0  0  0  0  0  0  0  0  0
  -24.4500  -24.6304   18.5250 O   0  0  0  0  0  0  0  0  0  0  0  0
  -21.2261   -7.8308   22.6283 O   0  0  0  0  0  0  0  0  0  0  0  0
  -24.0475  -27.2210   19.5937 O   0  0  0  0  0  0  0  0  0  1  0  0
  -23.4724   -3.1606   24.5116 F   0  0  0  0  0  0  0  0  0  0  0  0
  -30.2608  -21.2611   20.4974 F   0  0  0  0  0  0  0  0  0  0  0  0
  -20.2808   -5.3681   21.8013 F   0  0  0  0  0  0  0  0  0  0  0  0
  1  2  1  0  0  0  0
  1  6  2  0  0  0  0
  2  7  2  0  0  0  0
  3 10  2  0  0  0  0
  3 18  1  0  0  0  0
  4 11  1  0  0  0  0
  4 18  2  0  0  0  0
  5  9  2  0  0  0  0
  5 19  1  0  0  0  0
  6 21  1  0  0  0  0
  7 23  1  0  0  0  0
  8 12  2  0  0  0  0
  8 22  1  0  0  0  0
  9 25  1  0  0  0  0
 10 26  1  0  0  0  0
 11 26  2  0  0  0  0
 12 27  1  0  0  0  0
 13 14  2  0  0  0  0
 13 28  1  0  0  0  0
 14 29  1  0  0  0  0
 15 24  1  0  0  0  0
 15 27  2  0  0  0  0
 16 25  2  0  0  0  0
 16 30  1  0  0  0  0
 17 29  2  0  0  0  0
 17 31  1  0  0  0  0
 18 32  1  0  0  0  0
 19 30  2  0  0  0  0
 19 35  1  0  0  0  0
 20 32  1  0  0  0  0
 20 33  2  0  0  0  0
 20 36  1  0  0  0  0
 21 23  2  0  0  0  0
 21 43  1  0  0  0  0
 22 24  2  0  0  0  0
 22 44  1  0  0  0  0
 23 52  1  0  0  0  0
 24 45  1  0  0  0  0
 25 70  1  0  0  0  0
 26 82  1  0  0  0  0
 27 83  1  0  0  0  0
 28 31  2  0  0  0  0
 28 82  1  0  0  0  0
 29 84  1  0  0  0  0
 30 85  1  0  0  0  0
 31 86  1  0  0  0  0
 32 64  2  0  0  0  0
 33 65  1  0  0  0  0
 33 68  1  0  0  0  0
 34 37  2  0  0  0  0
 34 83  1  0  0  0  0
 35 60  1  0  0  0  0
 35 74  2  0  0  0  0
 36 69  1  0  0  0  0
 36 75  2  0  0  0  0
 37 38  1  0  0  0  0
 37 81  1  0  0  0  0
 38 60  1  0  0  0  0
 38 76  2  0  0  0  0
 39 53  1  0  0  0  0
 39 71  1  0  0  0  0
 39 77  2  0  0  0  0
 40 61  1  0  0  0  0
 40 66  1  0  0  0  0
 40 78  2  0  0  0  0
 41 62  1  0  0  0  0
 41 72  1  0  0  0  0
 41 79  2  0  0  0  0
 42 67  1  0  0  0  0
 42 70  1  0  0  0  0
 42 80  2  0  0  0  0
 43 46  1  0  0  0  0
 44 53  1  0  0  0  0
 45 66  1  0  0  0  0
 46 48  1  0  0  0  0
 47 49  1  0  0  0  0
 47 50  1  0  0  0  0
 48 52  1  0  0  0  0
 49 54  1  0  0  0  0
 50 67  1  0  0  0  0
 51 54  1  0  0  0  0
 51 67  1  0  0  0  0
 52 71  1  0  0  0  0
 53 66  1  0  0  0  0
 54 65  1  0  0  0  0
 55 62  1  0  0  0  0
 56 63  1  0  0  0  0
 57 63  1  0  0  0  0
 58 63  1  0  0  0  0
 59 73  1  0  0  0  0
 61 63  1  0  0  0  0
 61 72  1  0  0  0  0
 62 73  1  0  0  0  0
 64 65  1  0  0  0  0
M  CHG  1  73   1
M  ISO  4  34 101  42 100  70 100  83 101
M  END
> <Batch ID>
0174

> <Smiles>
CNC(C)C(=O)NC(C(=O)N1Cc2cc([101O:1][101CH2:1]C(=O)C(=O)CC(=O)c3ccc([100NH:0][100C:0](=O)N4CCCC(n5nc(-c6ccc(Oc7ccc(F)cc7F)cc6)c(C(N)=O)c5N)C4)cc3F)ccc2CC1C(=O)NC1CCCc2ccccc21)C(C)(C)C

> <Shape>
0.302

> <Color>
0.092

> <Negative vol penalty>
0.000

$$$$

  -OEChem-04052304333D

 86 94  0     1  0  0  0  0  0999 V2000
  -37.8757  -19.7365   35.2535 C   0  0  0  0  0  0  0  0  0  0  0  0
  -37.0253  -20.2305   34.2696 C   0  0  0  0  0  0  0  0  0  0  0  0
  -23.0753   -9.8684   19.9402 C   0  0  0  0  0  0  0  0  0  0  0  0
  -23.8346   -9.8744   22.2337 C   0  0  0  0  0  0  0  0  0  0  0  0
  -39.0407  -19.0613   34.8916 C   0  0  0  0  0  0  0  0  0  0  0  0
  -37.3399  -20.0505   32.9231 C   0  0  0  0  0  0  0  0  0  0  0  0
  -33.3528  -18.5615   30.1787 C   0  0  0  0  0  0  0  0  0  0  0  0
  -22.3310   -8.7154   20.1896 C   0  0  0  0  0  0  0  0  0  0  0  0
  -23.0903   -8.7214   22.4832 C   0  0  0  0  0  0  0  0  0  0  0  0
  -32.4237  -19.5384   29.8236 C   0  0  0  0  0  0  0  0  0  0  0  0
  -19.8617   -7.9244   23.0846 C   0  0  0  0  0  0  0  0  0  0  0  0
  -19.1045   -7.8843   24.2553 C   0  0  0  0  0  0  0  0  0  0  0  0
  -33.4154  -19.6752   27.6288 C   0  0  0  0  0  0  0  0  0  0  0  0
  -31.7981  -17.5499   21.7118 C   0  0  0  0  0  0  0  0  0  0  0  0
  -20.3451   -5.9462   24.9914 C   0  0  0  0  0  0  0  0  0  0  0  0
  -23.8272  -10.4479   20.9622 C   0  0  0  0  0  0  0  0  0  0  0  0
  -24.1698  -12.9730   20.8432 C   0  0  0  0  0  0  0  0  0  0  0  0
  -39.3648  -18.8645   33.5400 C   0  0  0  0  0  0  0  0  0  0  0  0
  -34.3287  -18.1412   29.2636 C   0  0  0  0  0  0  0  0  0  0  0  0
  -38.5109  -19.3732   32.5427 C   0  0  0  0  0  0  0  0  0  0  0  0
  -34.3541  -18.6909   27.9739 C   0  0  0  0  0  0  0  0  0  0  0  0
  -31.8863  -18.8091   22.3727 C   0  0  0  0  0  0  0  0  0  0  0  0
  -22.3385   -8.1419   21.4610 C   0  0  0  0  0  0  0  0  0  0  0  0
  -32.4567  -20.0975   28.5495 C   0  0  0  0  0  0  0  0  0  0  0  0
  -20.8606   -6.9753   22.8672 C   0  0  0  0  0  0  0  0  0  0  0  0
  -19.3462   -6.8953   25.2087 C   0  0  0  0  0  0  0  0  0  0  0  0
  -21.1023   -5.9863   23.8206 C   0  0  0  0  0  0  0  0  0  0  0  0
  -24.5967  -11.6386   20.7051 C   0  0  0  0  0  0  0  0  0  0  0  0
  -25.2623  -13.7222   20.4804 C   0  0  0  0  0  0  0  0  0  0  0  0
  -30.5865  -16.9331   21.9333 C   0  0  0  0  0  0  0  0  0  0  0  0
  -30.7385  -19.1068   23.0740 C   0  0  0  0  0  0  0  0  0  0  0  0
  -22.8994  -13.4890   21.2620 C   0  0  0  0  0  0  0  0  0  0  0  0
  -37.5056  -18.2080   29.1835 C   0  0  0  0  0  0  0  0  0  0  0  0
  -29.7637  -21.6461   26.6831 C   0  0  0  0  0  0  0  0  0  0  0  0
  -37.0854  -16.4719   26.4758 C   0  0  0  0  0  0  0  0  0  0  0  0
  -35.0518  -15.6068   23.8752 C   0  0  0  0  0  0  0  0  0  0  0  0
  -29.2039  -20.4552   24.5410 C   0  0  0  0  0  0  0  0  0  0  0  0
  -30.7289  -14.7658   20.6569 C   0  0  0  0  0  0  0  0  0  0  0  0
  -40.6590  -18.1699   33.1975 C   0  0  0  0  0  0  0  0  0  0  0  0
  -35.3070  -17.0672   29.6533 C   0  0  0  0  0  0  0  0  0  0  0  0
  -35.3689  -18.2596   26.9479 C   0  0  0  0  0  0  0  0  0  0  0  0
  -40.7299  -17.6937   31.7489 C   0  0  0  0  0  0  0  0  0  0  0  0
  -29.6142  -12.3534   18.2873 C   0  0  0  0  0  0  0  0  0  0  0  0
  -40.2659  -18.7955   30.8015 C   0  0  0  0  0  0  0  0  0  0  0  0
  -28.1743  -12.0621   18.7165 C   0  0  0  0  0  0  0  0  0  0  0  0
  -30.5291  -12.5814   19.4893 C   0  0  0  0  0  0  0  0  0  0  0  0
  -28.6221  -13.3059   20.8704 C   0  0  0  0  0  0  0  0  0  0  0  0
  -38.8052  -19.1763   31.0714 C   0  0  1  0  0  0  0  0  0  0  0  0
  -36.5797  -17.0845   28.8121 C   0  0  1  0  0  0  0  0  0  0  0  0
  -27.6494  -13.1335   19.6923 C   0  0  2  0  0  0  0  0  0  0  0  0
  -33.0788  -19.6876   22.3064 C   0  0  0  0  0  0  0  0  0  0  0  0
  -34.9992  -14.1960   21.8005 C   0  0  0  0  0  0  0  0  0  0  0  0
  -38.8265  -18.5246   25.0388 C   0  0  0  0  0  0  0  0  0  0  0  0
  -37.9699  -17.6259   22.8646 C   0  0  0  0  0  0  0  0  0  0  0  0
  -39.2702  -16.1484   24.3973 C   0  0  0  0  0  0  0  0  0  0  0  0
  -32.7925  -13.9887   24.8930 C   0  0  0  0  0  0  0  0  0  0  0  0
  -31.1773  -21.1200   26.8251 C   0  0  0  0  0  0  0  0  0  1  0  0
  -36.9060  -16.7992   25.0130 C   0  0  1  0  0  0  0  0  0  0  0  0
  -34.6875  -14.2553   23.2878 C   0  0  2  0  0  0  0  0  0  0  0  0
  -29.2248  -21.7852   25.2722 C   0  0  0  0  0  0  0  0  0  0  0  0
  -38.2252  -17.2843   24.3482 C   0  0  0  0  0  0  0  0  0  0  0  0
  -25.8616  -11.5425   20.2871 N   0  0  0  0  0  0  0  0  0  0  0  0
  -26.2390  -12.8260   20.1593 N   0  0  0  0  0  0  0  0  0  0  0  0
  -36.3081  -17.2110   27.3788 N   0  0  0  0  0  0  0  0  0  0  0  0
  -29.9703  -13.6120   20.3670 N   0  0  0  0  0  0  0  0  0  0  0  0
  -25.4732  -15.0536   20.4079 N   0  0  0  0  0  0  0  0  0  0  0  0
  -21.8871  -12.5801   21.5987 N   0  0  0  0  0  0  0  0  0  0  0  0
  -30.3936  -20.2305   23.8609 N   0  0  0  0  0  0  0  0  0  0  0  0
  -30.0816  -15.6908   21.4755 N   0  0  0  0  0  0  0  0  0  0  0  0
  -37.9123  -18.1888   30.5040 N   0  0  0  0  0  0  0  0  0  0  0  0
  -36.3283  -15.6098   24.3965 N   0  0  0  0  0  0  0  0  0  0  0  0
  -33.2340  -13.9841   23.4746 N   0  3  0  0  0  0  0  0  0  0  0  0
  -22.6636  -14.7197   21.3197 O   0  0  0  0  0  0  0  0  0  0  0  0
  -37.8285  -19.0306   28.3345 O   0  0  0  0  0  0  0  0  0  0  0  0
  -29.0872  -21.9775   27.6564 O   0  0  0  0  0  0  0  0  0  0  0  0
  -37.8805  -15.5880   26.8046 O   0  0  0  0  0  0  0  0  0  0  0  0
  -34.2824  -16.5652   23.8687 O   0  0  0  0  0  0  0  0  0  0  0  0
  -28.2282  -19.7148   24.6173 O   0  0  0  0  0  0  0  0  0  0  0  0
  -31.8581  -14.9344   20.1896 O   0  0  0  0  0  0  0  0  0  0  0  0
  -21.6121   -7.0170   21.7048 O   0  0  0  0  0  0  0  0  0  0  0  0
  -31.5513  -21.0517   28.2005 O   0  0  0  0  0  0  0  0  0  1  0  0
  -18.6199   -6.8578   26.3336 F   0  0  0  0  0  0  0  0  0  0  0  0
  -22.0614   -5.0726   23.6179 F   0  0  0  0  0  0  0  0  0  0  0  0
  -27.9663  -22.3130   25.3076 F   0  0  0  0  0  0  0  0  0  0  0  0
  -29.9695  -22.6970   24.5799 F   0  0  0  0  0  0  0  0  0  0  0  0
  -29.5615  -17.8710   22.9343 S   0  0  0  0  0  0  0  0  0  0  0  0
  1  2  1  0  0  0  0
  1  5  2  0  0  0  0
  2  6  2  0  0  0  0
  3  8  2  0  0  0  0
  3 16  1  0  0  0  0
  4  9  1  0  0  0  0
  4 16  2  0  0  0  0
  5 18  1  0  0  0  0
  6 20  1  0  0  0  0
  7 10  2  0  0  0  0
  7 19  1  0  0  0  0
  8 23  1  0  0  0  0
  9 23  2  0  0  0  0
 10 24  1  0  0  0  0
 11 12  2  0  0  0  0
 11 25  1  0  0  0  0
 12 26  1  0  0  0  0
 13 21  1  0  0  0  0
 13 24  2  0  0  0  0
 14 22  1  0  0  0  0
 14 30  2  0  0  0  0
 15 26  2  0  0  0  0
 15 27  1  0  0  0  0
 16 28  1  0  0  0  0
 17 28  1  0  0  0  0
 17 29  2  0  0  0  0
 17 32  1  0  0  0  0
 18 20  2  0  0  0  0
 18 39  1  0  0  0  0
 19 21  2  0  0  0  0
 19 40  1  0  0  0  0
 20 48  1  0  0  0  0
 21 41  1  0  0  0  0
 22 31  2  0  0  0  0
 22 51  1  0  0  0  0
 23 80  1  0  0  0  0
 24 81  1  0  0  0  0
 25 27  2  0  0  0  0
 25 80  1  0  0  0  0
 26 82  1  0  0  0  0
 27 83  1  0  0  0  0
 28 62  2  0  0  0  0
 29 63  1  0  0  0  0
 29 66  1  0  0  0  0
 30 69  1  0  0  0  0
 30 86  1  0  0  0  0
 31 68  1  0  0  0  0
 31 86  1  0  0  0  0
 32 67  1  0  0  0  0
 32 73  2  0  0  0  0
 33 49  1  0  0  0  0
 33 70  1  0  0  0  0
 33 74  2  0  0  0  0
 34 57  1  0  0  0  0
 34 60  1  0  0  0  0
 34 75  2  0  0  0  0
 35 58  1  0  0  0  0
 35 64  1  0  0  0  0
 35 76  2  0  0  0  0
 36 59  1  0  0  0  0
 36 71  1  0  0  0  0
 36 77  2  0  0  0  0
 37 60  1  0  0  0  0
 37 68  1  0  0  0  0
 37 78  2  0  0  0  0
 38 65  1  0  0  0  0
 38 69  1  0  0  0  0
 38 79  2  0  0  0  0
 39 42  1  0  0  0  0
 40 49  1  0  0  0  0
 41 64  1  0  0  0  0
 42 44  1  0  0  0  0
 43 45  1  0  0  0  0
 43 46  1  0  0  0  0
 44 48  1  0  0  0  0
 45 50  1  0  0  0  0
 46 65  1  0  0  0  0
 47 50  1  0  0  0  0
 47 65  1  0  0  0  0
 48 70  1  0  0  0  0
 49 64  1  0  0  0  0
 50 63  1  0  0  0  0
 52 59  1  0  0  0  0
 53 61  1  0  0  0  0
 54 61  1  0  0  0  0
 55 61  1  0  0  0  0
 56 72  1  0  0  0  0
 57 81  1  0  0  0  0
 58 61  1  0  0  0  0
 58 71  1  0  0  0  0
 59 72  1  0  0  0  0
 60 84  1  0  0  0  0
 60 85  1  0  0  0  0
 62 63  1  0  0  0  0
M  CHG  1  72   1
M  ISO  4  38 100  57 101  69 100  81 101
M  END
> <Batch ID>
0174

> <Smiles>
CNC(C)C(=O)NC(C(=O)N1Cc2cc([101O:1][101CH2:1]C(=O)C(F)(F)C(=O)Nc3sc([100NH:0][100C:0](=O)N4CCCC(n5nc(-c6ccc(Oc7ccc(F)cc7F)cc6)c(C(N)=O)c5N)C4)cc3C)ccc2CC1C(=O)NC1CCCc2ccccc21)C(C)(C)C

> <Shape>
0.166

> <Color>
0.188

> <Negative vol penalty>
0.000

$$$$

  -OEChem-04052304333D

 85 93  0     1  0  0  0  0  0999 V2000
  -16.6256  -29.2462   23.8811 C   0  0  0  0  0  0  0  0  0  0  0  0
  -17.3674  -28.1616   23.4243 C   0  0  0  0  0  0  0  0  0  0  0  0
  -23.9239   -8.7236   19.5202 C   0  0  0  0  0  0  0  0  0  0  0  0
  -23.2145  -10.1916   21.3032 C   0  0  0  0  0  0  0  0  0  0  0  0
  -17.1153  -30.5416   23.7200 C   0  0  0  0  0  0  0  0  0  0  0  0
  -18.5991  -28.3718   22.8053 C   0  0  0  0  0  0  0  0  0  0  0  0
  -23.5464  -24.7772   23.1349 C   0  0  0  0  0  0  0  0  0  0  0  0
  -23.1384   -7.7001   20.0503 C   0  0  0  0  0  0  0  0  0  0  0  0
  -22.4290   -9.1681   21.8333 C   0  0  0  0  0  0  0  0  0  0  0  0
  -24.0586  -23.8054   22.2764 C   0  0  0  0  0  0  0  0  0  0  0  0
  -22.8887   -6.3869   23.7000 C   0  0  0  0  0  0  0  0  0  0  0  0
  -22.9432   -6.1754   25.0777 C   0  0  0  0  0  0  0  0  0  0  0  0
  -25.5398  -25.4469   21.3117 C   0  0  0  0  0  0  0  0  0  0  0  0
  -20.5739   -6.6199   25.2397 C   0  0  0  0  0  0  0  0  0  0  0  0
  -23.9620   -9.9694   20.1467 C   0  0  0  0  0  0  0  0  0  0  0  0
  -24.3861  -11.9921   18.6513 C   0  0  0  0  0  0  0  0  0  0  0  0
  -18.3581  -30.7673   23.1074 C   0  0  0  0  0  0  0  0  0  0  0  0
  -24.0202  -26.0959   23.0806 C   0  0  0  0  0  0  0  0  0  0  0  0
  -19.1053  -29.6716   22.6347 C   0  0  0  0  0  0  0  0  0  0  0  0
  -25.0338  -26.4330   22.1723 C   0  0  0  0  0  0  0  0  0  0  0  0
  -22.3909   -7.9223   21.2068 C   0  0  0  0  0  0  0  0  0  0  0  0
  -25.0534  -24.1408   21.3627 C   0  0  0  0  0  0  0  0  0  0  0  0
  -21.6768   -6.7150   23.0922 C   0  0  0  0  0  0  0  0  0  0  0  0
  -21.7859   -6.2918   25.8475 C   0  0  0  0  0  0  0  0  0  0  0  0
  -20.5194   -6.8314   23.8620 C   0  0  0  0  0  0  0  0  0  0  0  0
  -24.7737  -11.0269   19.5999 C   0  0  0  0  0  0  0  0  0  0  0  0
  -28.6531  -20.1371   19.2191 C   0  0  0  0  0  0  0  0  0  0  0  0
  -29.9700  -19.8394   19.5004 C   0  0  0  0  0  0  0  0  0  0  0  0
  -25.5087  -12.7613   18.4657 C   0  0  0  0  0  0  0  0  0  0  0  0
  -29.1066  -17.8487   19.8194 C   0  0  0  0  0  0  0  0  0  0  0  0
  -23.1241  -12.1769   17.9964 C   0  0  0  0  0  0  0  0  0  0  0  0
  -28.0124  -21.4168   18.8203 C   0  0  0  0  0  0  0  0  0  0  0  0
  -22.7179  -28.9224   22.4333 C   0  0  0  0  0  0  0  0  0  0  0  0
  -25.6348  -30.0322   23.3180 C   0  0  0  0  0  0  0  0  0  0  0  0
  -28.9709  -29.4251   23.7035 C   0  0  0  0  0  0  0  0  0  0  0  0
  -29.8915  -15.5465   20.4750 C   0  0  0  0  0  0  0  0  0  0  0  0
  -18.8243  -32.1884   22.9132 C   0  0  0  0  0  0  0  0  0  0  0  0
  -23.4762  -27.1264   24.0318 C   0  0  0  0  0  0  0  0  0  0  0  0
  -25.5908  -27.8298   22.0881 C   0  0  0  0  0  0  0  0  0  0  0  0
  -20.3104  -32.3022   22.5831 C   0  0  0  0  0  0  0  0  0  0  0  0
  -30.2830  -12.0416   19.9856 C   0  0  0  0  0  0  0  0  0  0  0  0
  -20.6961  -31.2954   21.5040 C   0  0  0  0  0  0  0  0  0  0  0  0
  -28.8527  -11.5446   19.7636 C   0  0  0  0  0  0  0  0  0  0  0  0
  -30.3392  -13.1638   21.0205 C   0  0  0  0  0  0  0  0  0  0  0  0
  -28.0075  -13.7966   20.5388 C   0  0  0  0  0  0  0  0  0  0  0  0
  -20.4571  -29.8575   21.9803 C   0  0  1  0  0  0  0  0  0  0  0  0
  -23.6690  -28.5567   23.5375 C   0  0  1  0  0  0  0  0  0  0  0  0
  -27.8922  -12.7103   19.4569 C   0  0  2  0  0  0  0  0  0  0  0  0
  -26.3111  -21.9554   15.6987 C   0  0  0  0  0  0  0  0  0  0  0  0
  -31.1068  -30.5372   24.4093 C   0  0  0  0  0  0  0  0  0  0  0  0
  -25.7393  -31.5166   20.6542 C   0  0  0  0  0  0  0  0  0  0  0  0
  -28.2031  -31.8066   20.9920 C   0  0  0  0  0  0  0  0  0  0  0  0
  -26.5964  -32.8199   22.6090 C   0  0  0  0  0  0  0  0  0  0  0  0
  -24.4058  -22.1038   18.0616 C   0  0  0  0  0  0  0  0  0  0  0  0
  -29.3692  -27.5109   25.9253 C   0  0  0  0  0  0  0  0  0  0  0  0
  -26.3828  -22.9987   16.8088 C   0  0  0  0  0  0  0  0  0  0  0  0
  -26.0238  -23.6378   19.2505 C   0  0  0  0  0  0  0  0  0  1  0  0
  -26.9336  -30.3142   22.6020 C   0  0  1  0  0  0  0  0  0  0  0  0
  -29.9182  -29.7010   24.8572 C   0  0  2  0  0  0  0  0  0  0  0  0
  -26.8564  -31.5884   21.7143 C   0  0  0  0  0  0  0  0  0  0  0  0
  -25.8813  -22.5230   18.1951 C   0  0  1  0  0  0  0  0  0  0  0  0
  -26.0434  -11.1678   19.9897 N   0  0  0  0  0  0  0  0  0  0  0  0
  -30.2319  -18.5277   19.8452 N   0  0  0  0  0  0  0  0  0  0  0  0
  -26.4634  -12.2306   19.2825 N   0  0  0  0  0  0  0  0  0  0  0  0
  -25.0221  -28.8033   23.0348 N   0  0  0  0  0  0  0  0  0  0  0  0
  -29.4067  -14.2348   20.6623 N   0  0  0  0  0  0  0  0  0  0  0  0
  -30.9758  -20.7456   19.4523 N   0  0  0  0  0  0  0  0  0  0  0  0
  -25.7626  -13.8332   17.6853 N   0  0  0  0  0  0  0  0  0  0  0  0
  -22.0770  -11.2972   18.3031 N   0  0  0  0  0  0  0  0  0  0  0  0
  -28.9180  -16.4737   20.1048 N   0  0  0  0  0  0  0  0  0  0  0  0
  -26.6488  -21.3593   18.6135 N   0  0  0  0  0  0  0  0  0  0  0  0
  -21.5149  -29.4390   22.8750 N   0  0  0  0  0  0  0  0  0  0  0  0
  -27.9650  -30.3655   23.6326 N   0  0  0  0  0  0  0  0  0  0  0  0
  -30.4305  -28.4215   25.4240 N   0  3  0  0  0  0  0  0  0  0  0  0
  -22.9355  -13.0849   17.1517 O   0  0  0  0  0  0  0  0  0  0  0  0
  -28.7091  -22.4185   18.6803 O   0  0  0  0  0  0  0  0  0  0  0  0
  -23.0515  -28.7501   21.2667 O   0  0  0  0  0  0  0  0  0  0  0  0
  -25.1842  -30.8684   24.1051 O   0  0  0  0  0  0  0  0  0  0  0  0
  -29.1114  -28.4728   22.9393 O   0  0  0  0  0  0  0  0  0  0  0  0
  -31.0872  -15.8211   20.6051 O   0  0  0  0  0  0  0  0  0  0  0  0
  -21.6242   -6.9239   21.7243 O   0  0  0  0  0  0  0  0  0  0  0  0
  -25.5546  -23.1943   20.5231 O   0  0  0  0  0  0  0  0  0  1  0  0
  -21.8381   -6.0872   27.1702 F   0  0  0  0  0  0  0  0  0  0  0  0
  -19.3521   -7.1452   23.2836 F   0  0  0  0  0  0  0  0  0  0  0  0
  -27.6952  -18.7246   19.3883 S   0  0  0  0  0  0  0  0  0  0  0  0
  1  2  1  0  0  0  0
  1  5  2  0  0  0  0
  2  6  2  0  0  0  0
  3  8  2  0  0  0  0
  3 15  1  0  0  0  0
  4  9  1  0  0  0  0
  4 15  2  0  0  0  0
  5 17  1  0  0  0  0
  6 19  1  0  0  0  0
  7 10  2  0  0  0  0
  7 18  1  0  0  0  0
  8 21  1  0  0  0  0
  9 21  2  0  0  0  0
 10 22  1  0  0  0  0
 11 12  2  0  0  0  0
 11 23  1  0  0  0  0
 12 24  1  0  0  0  0
 13 20  1  0  0  0  0
 13 22  2  0  0  0  0
 14 24  2  0  0  0  0
 14 25  1  0  0  0  0
 15 26  1  0  0  0  0
 16 26  1  0  0  0  0
 16 29  2  0  0  0  0
 16 31  1  0  0  0  0
 17 19  2  0  0  0  0
 17 37  1  0  0  0  0
 18 20  2  0  0  0  0
 18 38  1  0  0  0  0
 19 46  1  0  0  0  0
 20 39  1  0  0  0  0
 21 81  1  0  0  0  0
 22 82  1  0  0  0  0
 23 25  2  0  0  0  0
 23 81  1  0  0  0  0
 24 83  1  0  0  0  0
 25 84  1  0  0  0  0
 26 62  2  0  0  0  0
 27 28  2  0  0  0  0
 27 32  1  0  0  0  0
 27 85  1  0  0  0  0
 28 63  1  0  0  0  0
 28 67  1  0  0  0  0
 29 64  1  0  0  0  0
 29 68  1  0  0  0  0
 30 63  2  0  0  0  0
 30 70  1  0  0  0  0
 30 85  1  0  0  0  0
 31 69  1  0  0  0  0
 31 75  2  0  0  0  0
 32 71  1  0  0  0  0
 32 76  2  0  0  0  0
 33 47  1  0  0  0  0
 33 72  1  0  0  0  0
 33 77  2  0  0  0  0
 34 58  1  0  0  0  0
 34 65  1  0  0  0  0
 34 78  2  0  0  0  0
 35 59  1  0  0  0  0
 35 73  1  0  0  0  0
 35 79  2  0  0  0  0
 36 66  1  0  0  0  0
 36 70  1  0  0  0  0
 36 80  2  0  0  0  0
 37 40  1  0  0  0  0
 38 47  1  0  0  0  0
 39 65  1  0  0  0  0
 40 42  1  0  0  0  0
 41 43  1  0  0  0  0
 41 44  1  0  0  0  0
 42 46  1  0  0  0  0
 43 48  1  0  0  0  0
 44 66  1  0  0  0  0
 45 48  1  0  0  0  0
 45 66  1  0  0  0  0
 46 72  1  0  0  0  0
 47 65  1  0  0  0  0
 48 64  1  0  0  0  0
 49 56  1  0  0  0  0
 50 59  1  0  0  0  0
 51 60  1  0  0  0  0
 52 60  1  0  0  0  0
 53 60  1  0  0  0  0
 54 61  1  0  0  0  0
 55 74  1  0  0  0  0
 56 61  1  0  0  0  0
 57 61  1  0  0  0  0
 57 82  1  0  0  0  0
 58 60  1  0  0  0  0
 58 73  1  0  0  0  0
 59 74  1  0  0  0  0
 61 71  1  0  0  0  0
 62 64  1  0  0  0  0
M  CHG  1  74   1
M  ISO  4  36 100  57 101  70 100  82 101
M  END
> <Batch ID>
0174

> <Smiles>
CCC(C)(NC(=O)c1sc([100NH:0][100C:0](=O)N2CCCC(n3nc(-c4ccc(Oc5ccc(F)cc5F)cc4)c(C(N)=O)c3N)C2)nc1N)[101CH2:1][101O:1]c1ccc2c(c1)CN(C(=O)C(NC(=O)C(C)NC)C(C)(C)C)C(C(=O)NC1CCCc3ccccc31)C2

> <Shape>
0.257

> <Color>
0.112

> <Negative vol penalty>
0.000

$$$$

  -OEChem-04052304333D

 87 95  0     1  0  0  0  0  0999 V2000
  -21.0150  -28.9056   14.3163 C   0  0  0  0  0  0  0  0  0  0  0  0
  -22.2601  -28.6254   14.8700 C   0  0  0  0  0  0  0  0  0  0  0  0
  -24.2919   -8.6687   20.2862 C   0  0  0  0  0  0  0  0  0  0  0  0
  -22.7697  -10.4428   20.8964 C   0  0  0  0  0  0  0  0  0  0  0  0
  -20.4053  -30.1354   14.5610 C   0  0  0  0  0  0  0  0  0  0  0  0
  -22.8968  -29.5754   15.6678 C   0  0  0  0  0  0  0  0  0  0  0  0
  -24.8755  -27.5676   19.8748 C   0  0  0  0  0  0  0  0  0  0  0  0
  -23.4742   -7.7437   20.9355 C   0  0  0  0  0  0  0  0  0  0  0  0
  -21.9519   -9.5179   21.5456 C   0  0  0  0  0  0  0  0  0  0  0  0
  -26.0807  -26.8788   19.7456 C   0  0  0  0  0  0  0  0  0  0  0  0
  -22.8742   -6.7458   24.1086 C   0  0  0  0  0  0  0  0  0  0  0  0
  -23.4900   -5.8026   24.9311 C   0  0  0  0  0  0  0  0  0  0  0  0
  -27.2678  -28.8164   20.5556 C   0  0  0  0  0  0  0  0  0  0  0  0
  -22.5896   -4.0242   23.5659 C   0  0  0  0  0  0  0  0  0  0  0  0
  -23.9397  -10.0182   20.2667 C   0  0  0  0  0  0  0  0  0  0  0  0
  -24.7115  -11.3754   18.2493 C   0  0  0  0  0  0  0  0  0  0  0  0
  -21.0305  -31.0972   15.3701 C   0  0  0  0  0  0  0  0  0  0  0  0
  -24.8583  -28.8918   20.3358 C   0  0  0  0  0  0  0  0  0  0  0  0
  -22.2955  -30.8197   15.9225 C   0  0  0  0  0  0  0  0  0  0  0  0
  -26.0608  -29.5188   20.6921 C   0  0  0  0  0  0  0  0  0  0  0  0
  -22.3042   -8.1683   21.5651 C   0  0  0  0  0  0  0  0  0  0  0  0
  -27.2774  -27.5041   20.0833 C   0  0  0  0  0  0  0  0  0  0  0  0
  -22.1161   -6.3283   23.0147 C   0  0  0  0  0  0  0  0  0  0  0  0
  -23.3478   -4.4418   24.6598 C   0  0  0  0  0  0  0  0  0  0  0  0
  -21.9738   -4.9675   22.7433 C   0  0  0  0  0  0  0  0  0  0  0  0
  -24.7842  -10.9742   19.5967 C   0  0  0  0  0  0  0  0  0  0  0  0
  -28.1543  -17.9632   16.4136 C   0  0  0  0  0  0  0  0  0  0  0  0
  -28.5251  -17.9144   17.7411 C   0  0  0  0  0  0  0  0  0  0  0  0
  -25.7236  -12.2932   18.1092 C   0  0  0  0  0  0  0  0  0  0  0  0
  -29.3271  -19.8950   17.2472 C   0  0  0  0  0  0  0  0  0  0  0  0
  -29.8406  -23.4760   18.9301 C   0  0  0  0  0  0  0  0  0  0  0  0
  -23.8095  -10.9561   17.2167 C   0  0  0  0  0  0  0  0  0  0  0  0
  -30.9738  -22.7643   18.8082 C   0  0  0  0  0  0  0  0  0  0  0  0
  -29.7773  -24.8854   19.4162 C   0  0  0  0  0  0  0  0  0  0  0  0
  -30.9547  -21.3453   18.2965 C   0  0  0  0  0  0  0  0  0  0  0  0
  -23.9499  -31.6813   19.1121 C   0  0  0  0  0  0  0  0  0  0  0  0
  -24.6023  -32.7621   22.1002 C   0  0  0  0  0  0  0  0  0  0  0  0
  -26.3066  -32.3386   25.0264 C   0  0  0  0  0  0  0  0  0  0  0  0
  -28.5948  -16.6964   19.9452 C   0  0  0  0  0  0  0  0  0  0  0  0
  -20.3538  -32.4305   15.5675 C   0  0  0  0  0  0  0  0  0  0  0  0
  -23.5474  -29.6120   20.4948 C   0  0  0  0  0  0  0  0  0  0  0  0
  -26.0946  -30.9323   21.2111 C   0  0  0  0  0  0  0  0  0  0  0  0
  -20.9258  -33.2377   16.7300 C   0  0  0  0  0  0  0  0  0  0  0  0
  -29.5245  -13.5064   21.2242 C   0  0  0  0  0  0  0  0  0  0  0  0
  -22.4504  -33.2377   16.6808 C   0  0  0  0  0  0  0  0  0  0  0  0
  -28.3682  -12.5962   20.8040 C   0  0  0  0  0  0  0  0  0  0  0  0
  -29.0371  -14.9026   21.6070 C   0  0  0  0  0  0  0  0  0  0  0  0
  -27.0454  -14.6566   20.1780 C   0  0  0  0  0  0  0  0  0  0  0  0
  -23.0067  -31.8149   16.8135 C   0  0  1  0  0  0  0  0  0  0  0  0
  -23.6950  -31.1304   20.4865 C   0  0  1  0  0  0  0  0  0  0  0  0
  -27.4942  -13.2590   19.7212 C   0  0  2  0  0  0  0  0  0  0  0  0
  -27.4342  -16.9736   15.5860 C   0  0  0  0  0  0  0  0  0  0  0  0
  -26.6647  -33.4052   27.2695 C   0  0  0  0  0  0  0  0  0  0  0  0
  -26.4072  -34.8584   20.8126 C   0  0  0  0  0  0  0  0  0  0  0  0
  -27.4421  -35.2462   23.0591 C   0  0  0  0  0  0  0  0  0  0  0  0
  -25.0149  -35.7042   22.7101 C   0  0  0  0  0  0  0  0  0  0  0  0
  -32.0703  -19.1003   18.3501 C   0  0  0  0  0  0  0  0  0  0  0  0
  -25.2383  -29.9743   26.4504 C   0  0  0  0  0  0  0  0  0  0  0  0
  -28.3916  -25.4935   19.4735 C   0  0  0  0  0  0  0  0  0  1  0  0
  -25.8248  -33.3107   22.7954 C   0  0  1  0  0  0  0  0  0  0  0  0
  -25.8525  -32.3953   26.4738 C   0  0  2  0  0  0  0  0  0  0  0  0
  -26.1721  -34.7539   22.3327 C   0  0  0  0  0  0  0  0  0  0  0  0
  -25.7652  -11.5868   20.2649 N   0  0  0  0  0  0  0  0  0  0  0  0
  -29.1981  -19.0211   18.2208 N   0  0  0  0  0  0  0  0  0  0  0  0
  -26.3182  -12.3822   19.3335 N   0  0  0  0  0  0  0  0  0  0  0  0
  -24.7874  -31.5967   21.3429 N   0  0  0  0  0  0  0  0  0  0  0  0
  -28.2196  -15.4695   20.5322 N   0  0  0  0  0  0  0  0  0  0  0  0
  -26.1542  -13.0247   17.0595 N   0  0  0  0  0  0  0  0  0  0  0  0
  -22.8290  -10.0054   17.5315 N   0  0  0  0  0  0  0  0  0  0  0  0
  -28.2540  -16.8195   18.5986 N   0  0  0  0  0  0  0  0  0  0  0  0
  -29.9590  -21.0974   17.4340 N   0  0  0  0  0  0  0  0  0  0  0  0
  -22.9620  -31.3815   18.1936 N   0  0  0  0  0  0  0  0  0  0  0  0
  -25.5705  -33.1870   24.2266 N   0  0  0  0  0  0  0  0  0  0  0  0
  -31.9118  -20.5116   18.7253 N   0  3  0  0  0  0  0  0  0  0  0  0
  -26.0036  -31.0594   27.1168 N   0  3  0  0  0  0  0  0  0  0  0  0
  -23.8818  -11.3987   16.0452 O   0  0  0  0  0  0  0  0  0  0  0  0
  -30.7817  -25.5088   19.7470 O   0  0  0  0  0  0  0  0  0  0  0  0
  -24.9669  -32.3316   18.9009 O   0  0  0  0  0  0  0  0  0  0  0  0
  -23.5214  -33.3420   22.2302 O   0  0  0  0  0  0  0  0  0  0  0  0
  -27.2250  -31.6169   24.6442 O   0  0  0  0  0  0  0  0  0  0  0  0
  -29.1998  -17.5625   20.5823 O   0  0  0  0  0  0  0  0  0  0  0  0
  -32.2373  -23.2272   19.0971 O   0  0  0  0  0  0  0  0  0  0  0  0
  -21.5060   -7.2660   22.1985 O   0  0  0  0  0  0  0  0  0  0  0  0
  -28.4553  -26.8344   19.9576 O   0  0  0  0  0  0  0  0  0  1  0  0
  -23.9405   -3.5361   25.4489 F   0  0  0  0  0  0  0  0  0  0  0  0
  -21.2477   -4.5604   21.6932 F   0  0  0  0  0  0  0  0  0  0  0  0
  -28.6621  -19.4513   15.7288 S   0  0  0  0  0  0  0  0  0  0  0  0
  1  2  1  0  0  0  0
  1  5  2  0  0  0  0
  2  6  2  0  0  0  0
  3  8  2  0  0  0  0
  3 15  1  0  0  0  0
  4  9  1  0  0  0  0
  4 15  2  0  0  0  0
  5 17  1  0  0  0  0
  6 19  1  0  0  0  0
  7 10  2  0  0  0  0
  7 18  1  0  0  0  0
  8 21  1  0  0  0  0
  9 21  2  0  0  0  0
 10 22  1  0  0  0  0
 11 12  2  0  0  0  0
 11 23  1  0  0  0  0
 12 24  1  0  0  0  0
 13 20  1  0  0  0  0
 13 22  2  0  0  0  0
 14 24  2  0  0  0  0
 14 25  1  0  0  0  0
 15 26  1  0  0  0  0
 16 26  1  0  0  0  0
 16 29  2  0  0  0  0
 16 32  1  0  0  0  0
 17 19  2  0  0  0  0
 17 40  1  0  0  0  0
 18 20  2  0  0  0  0
 18 41  1  0  0  0  0
 19 49  1  0  0  0  0
 20 42  1  0  0  0  0
 21 83  1  0  0  0  0
 22 84  1  0  0  0  0
 23 25  2  0  0  0  0
 23 83  1  0  0  0  0
 24 85  1  0  0  0  0
 25 86  1  0  0  0  0
 26 63  2  0  0  0  0
 27 28  2  0  0  0  0
 27 52  1  0  0  0  0
 27 87  1  0  0  0  0
 28 64  1  0  0  0  0
 28 70  1  0  0  0  0
 29 65  1  0  0  0  0
 29 68  1  0  0  0  0
 30 64  2  0  0  0  0
 30 71  1  0  0  0  0
 30 87  1  0  0  0  0
 31 33  2  0  0  0  0
 31 34  1  0  0  0  0
 32 69  1  0  0  0  0
 32 76  2  0  0  0  0
 33 35  1  0  0  0  0
 33 82  1  0  0  0  0
 34 59  1  0  0  0  0
 34 77  2  0  0  0  0
 35 71  1  0  0  0  0
 35 74  2  0  0  0  0
 36 50  1  0  0  0  0
 36 72  1  0  0  0  0
 36 78  2  0  0  0  0
 37 60  1  0  0  0  0
 37 66  1  0  0  0  0
 37 79  2  0  0  0  0
 38 61  1  0  0  0  0
 38 73  1  0  0  0  0
 38 80  2  0  0  0  0
 39 67  1  0  0  0  0
 39 70  1  0  0  0  0
 39 81  2  0  0  0  0
 40 43  1  0  0  0  0
 41 50  1  0  0  0  0
 42 66  1  0  0  0  0
 43 45  1  0  0  0  0
 44 46  1  0  0  0  0
 44 47  1  0  0  0  0
 45 49  1  0  0  0  0
 46 51  1  0  0  0  0
 47 67  1  0  0  0  0
 48 51  1  0  0  0  0
 48 67  1  0  0  0  0
 49 72  1  0  0  0  0
 50 66  1  0  0  0  0
 51 65  1  0  0  0  0
 53 61  1  0  0  0  0
 54 62  1  0  0  0  0
 55 62  1  0  0  0  0
 56 62  1  0  0  0  0
 57 74  1  0  0  0  0
 58 75  1  0  0  0  0
 59 84  1  0  0  0  0
 60 62  1  0  0  0  0
 60 73  1  0  0  0  0
 61 75  1  0  0  0  0
 63 65  1  0  0  0  0
M  CHG  2  74   1  75   1
M  ISO  4  39 100  59 101  70 100  84 101
M  END
> <Batch ID>
0174

> <Smiles>
CN=C(Nc1nc([100NH:0][100C:0](=O)N2CCCC(n3nc(-c4ccc(Oc5ccc(F)cc5F)cc4)c(C(N)=O)c3N)C2)c(C)s1)C(=O)CC(=O)[101CH2:1][101O:1]c1ccc2c(c1)CN(C(=O)C(NC(=O)C(C)NC)C(C)(C)C)C(C(=O)NC1CCCc3ccccc31)C2

> <Shape>
0.289

> <Color>
0.136

> <Negative vol penalty>
0.000

$$$$

  -OEChem-04052304333D

 88 96  0     1  0  0  0  0  0999 V2000
  -32.0235  -14.6319   19.5980 C   0  0  0  0  0  0  0  0  0  0  0  0
  -31.2736  -15.7089   20.0597 C   0  0  0  0  0  0  0  0  0  0  0  0
  -29.2771  -26.3481   19.1944 C   0  0  0  0  0  0  0  0  0  0  0  0
  -27.3082  -25.1221   18.5182 C   0  0  0  0  0  0  0  0  0  0  0  0
  -31.3827  -13.4682   19.1746 C   0  0  0  0  0  0  0  0  0  0  0  0
  -29.8823  -15.6232   20.0971 C   0  0  0  0  0  0  0  0  0  0  0  0
  -24.2501  -17.8854   23.9022 C   0  0  0  0  0  0  0  0  0  0  0  0
  -18.6349  -27.5490   23.6623 C   0  0  0  0  0  0  0  0  0  0  0  0
  -19.7864  -28.2661   23.3378 C   0  0  0  0  0  0  0  0  0  0  0  0
  -30.0052  -25.1589   19.2305 C   0  0  0  0  0  0  0  0  0  0  0  0
  -28.0363  -23.9329   18.5543 C   0  0  0  0  0  0  0  0  0  0  0  0
  -23.0244  -18.5279   23.7336 C   0  0  0  0  0  0  0  0  0  0  0  0
  -29.2831  -20.5290   18.8169 C   0  0  0  0  0  0  0  0  0  0  0  0
  -28.6892  -19.4235   19.4256 C   0  0  0  0  0  0  0  0  0  0  0  0
  -22.0299  -16.4386   23.0514 C   0  0  0  0  0  0  0  0  0  0  0  0
  -18.7262  -26.4333   21.5213 C   0  0  0  0  0  0  0  0  0  0  0  0
  -28.5408  -20.6473   21.5034 C   0  0  0  0  0  0  0  0  0  0  0  0
  -27.9286  -26.3297   18.8382 C   0  0  0  0  0  0  0  0  0  0  0  0
  -27.0141  -28.4230   17.7026 C   0  0  0  0  0  0  0  0  0  0  0  0
  -29.9833  -13.3647   19.2159 C   0  0  0  0  0  0  0  0  0  0  0  0
  -24.3778  -16.5145   23.6357 C   0  0  0  0  0  0  0  0  0  0  0  0
  -29.2221  -14.4576   19.6726 C   0  0  0  0  0  0  0  0  0  0  0  0
  -23.2578  -15.7806   23.2199 C   0  0  0  0  0  0  0  0  0  0  0  0
  -18.1048  -26.6325   22.7541 C   0  0  0  0  0  0  0  0  0  0  0  0
  -20.4078  -28.0668   22.1050 C   0  0  0  0  0  0  0  0  0  0  0  0
  -19.8778  -27.1504   21.1967 C   0  0  0  0  0  0  0  0  0  0  0  0
  -29.3848  -23.9513   18.9105 C   0  0  0  0  0  0  0  0  0  0  0  0
  -21.9147  -17.8051   23.3053 C   0  0  0  0  0  0  0  0  0  0  0  0
  -29.5060  -21.6937   19.5514 C   0  0  0  0  0  0  0  0  0  0  0  0
  -28.3180  -19.4826   20.7688 C   0  0  0  0  0  0  0  0  0  0  0  0
  -29.1348  -21.7528   20.8947 C   0  0  0  0  0  0  0  0  0  0  0  0
  -27.1758  -27.5578   18.8012 C   0  0  0  0  0  0  0  0  0  0  0  0
  -26.2186  -29.4367   18.1780 C   0  0  0  0  0  0  0  0  0  0  0  0
  -27.5363  -28.3196   16.3713 C   0  0  0  0  0  0  0  0  0  0  0  0
  -17.7151  -22.2710   23.9381 C   0  0  0  0  0  0  0  0  0  0  0  0
  -17.5058  -23.7345   24.2024 C   0  0  0  0  0  0  0  0  0  0  0  0
  -26.0796  -14.7761   21.5899 C   0  0  0  0  0  0  0  0  0  0  0  0
  -19.2721  -20.3742   23.2008 C   0  0  0  0  0  0  0  0  0  0  0  0
  -24.8291  -12.2938   23.2624 C   0  0  0  0  0  0  0  0  0  0  0  0
  -22.3313  -11.1177   25.2684 C   0  0  0  0  0  0  0  0  0  0  0  0
  -22.2146  -29.7505   22.6023 C   0  0  0  0  0  0  0  0  0  0  0  0
  -29.3332  -12.1041   18.7033 C   0  0  0  0  0  0  0  0  0  0  0  0
  -25.7006  -15.8308   23.8482 C   0  0  0  0  0  0  0  0  0  0  0  0
  -23.3374  -14.3028   22.9399 C   0  0  0  0  0  0  0  0  0  0  0  0
  -27.8741  -11.9557   19.1268 C   0  0  0  0  0  0  0  0  0  0  0  0
  -25.1296  -31.7592   22.2221 C   0  0  0  0  0  0  0  0  0  0  0  0
  -27.1182  -13.2619   18.9047 C   0  0  0  0  0  0  0  0  0  0  0  0
  -25.9677  -30.9916   21.1971 C   0  0  0  0  0  0  0  0  0  0  0  0
  -24.3868  -30.8167   23.1674 C   0  0  0  0  0  0  0  0  0  0  0  0
  -24.4115  -29.0207   21.4813 C   0  0  0  0  0  0  0  0  0  0  0  0
  -27.7122  -14.3939   19.7516 C   0  0  1  0  0  0  0  0  0  0  0  0
  -25.8384  -14.5359   23.0534 C   0  0  1  0  0  0  0  0  0  0  0  0
  -25.1271  -29.9266   20.4660 C   0  0  2  0  0  0  0  0  0  0  0  0
  -21.5629   -9.0376   26.4433 C   0  0  0  0  0  0  0  0  0  0  0  0
  -23.8636  -11.1513   20.6030 C   0  0  0  0  0  0  0  0  0  0  0  0
  -22.3330   -9.6421   21.8866 C   0  0  0  0  0  0  0  0  0  0  0  0
  -24.8027   -9.4584   22.1862 C   0  0  0  0  0  0  0  0  0  0  0  0
  -22.5154  -12.4103   27.9244 C   0  0  0  0  0  0  0  0  0  0  0  0
  -16.8653  -25.8609   23.1040 C   0  0  0  0  0  0  0  0  0  0  0  0
  -19.0916  -21.8515   23.4879 C   0  0  0  0  0  0  0  0  0  0  0  0
  -20.6693  -19.8278   23.4221 C   0  0  0  0  0  0  0  0  0  1  0  0
  -23.5818  -11.4506   23.1519 C   0  0  1  0  0  0  0  0  0  0  0  0
  -22.3676  -10.3226   26.5611 C   0  0  2  0  0  0  0  0  0  0  0  0
  -23.6439  -10.4538   21.9603 C   0  0  0  0  0  0  0  0  0  0  0  0
  -26.5347  -27.9846   19.8925 N   0  0  0  0  0  0  0  0  0  0  0  0
  -25.9625  -29.1292   19.4819 N   0  0  0  0  0  0  0  0  0  0  0  0
  -24.6541  -13.6809   23.1563 N   0  0  0  0  0  0  0  0  0  0  0  0
  -23.6088  -29.8384   22.4044 N   0  0  0  0  0  0  0  0  0  0  0  0
  -20.4910  -26.9331   19.9424 N   0  0  0  0  0  0  0  0  0  0  0  0
  -25.7203  -30.5522   17.6039 N   0  0  0  0  0  0  0  0  0  0  0  0
  -28.3357  -27.2138   16.0512 N   0  0  0  0  0  0  0  0  0  0  0  0
  -21.5763  -28.8071   21.7978 N   0  0  0  0  0  0  0  0  0  0  0  0
  -17.0947  -24.4349   23.0913 N   0  0  0  0  0  0  0  0  0  0  0  0
  -27.2816  -14.2746   21.1281 N   0  0  0  0  0  0  0  0  0  0  0  0
  -23.4015  -10.8160   24.4531 N   0  0  0  0  0  0  0  0  0  0  0  0
  -21.8046  -11.1288   27.6810 N   0  3  0  0  0  0  0  0  0  0  0  0
  -27.3144  -29.1906   15.4963 O   0  0  0  0  0  0  0  0  0  0  0  0
  -16.7623  -21.5296   24.1268 O   0  0  0  0  0  0  0  0  0  0  0  0
  -17.7389  -24.1476   25.3276 O   0  0  0  0  0  0  0  0  0  0  0  0
  -25.2369  -15.3709   20.9283 O   0  0  0  0  0  0  0  0  0  0  0  0
  -18.3584  -19.6623   22.7874 O   0  0  0  0  0  0  0  0  0  0  0  0
  -25.9177  -11.7425   23.4434 O   0  0  0  0  0  0  0  0  0  0  0  0
  -21.4405  -11.9228   25.0064 O   0  0  0  0  0  0  0  0  0  0  0  0
  -21.6260  -30.4789   23.4054 O   0  0  0  0  0  0  0  0  0  0  0  0
  -30.0950  -22.7908   18.9454 O   0  0  0  0  0  0  0  0  0  0  0  0
  -20.7173  -18.4299   23.1393 O   0  0  0  0  0  0  0  0  0  1  0  0
  -27.7462  -18.4214   21.3529 F   0  0  0  0  0  0  0  0  0  0  0  0
  -29.3452  -22.8694   21.6052 F   0  0  0  0  0  0  0  0  0  0  0  0
  1  2  1  0  0  0  0
  1  5  2  0  0  0  0
  2  6  2  0  0  0  0
  3 10  2  0  0  0  0
  3 18  1  0  0  0  0
  4 11  1  0  0  0  0
  4 18  2  0  0  0  0
  5 20  1  0  0  0  0
  6 22  1  0  0  0  0
  7 12  2  0  0  0  0
  7 21  1  0  0  0  0
  8  9  2  0  0  0  0
  8 24  1  0  0  0  0
  9 25  1  0  0  0  0
 10 27  1  0  0  0  0
 11 27  2  0  0  0  0
 12 28  1  0  0  0  0
 13 14  2  0  0  0  0
 13 29  1  0  0  0  0
 14 30  1  0  0  0  0
 15 23  1  0  0  0  0
 15 28  2  0  0  0  0
 16 24  2  0  0  0  0
 16 26  1  0  0  0  0
 17 30  2  0  0  0  0
 17 31  1  0  0  0  0
 18 32  1  0  0  0  0
 19 32  1  0  0  0  0
 19 33  2  0  0  0  0
 19 34  1  0  0  0  0
 20 22  2  0  0  0  0
 20 42  1  0  0  0  0
 21 23  2  0  0  0  0
 21 43  1  0  0  0  0
 22 51  1  0  0  0  0
 23 44  1  0  0  0  0
 24 59  1  0  0  0  0
 25 26  2  0  0  0  0
 25 72  1  0  0  0  0
 26 69  1  0  0  0  0
 27 85  1  0  0  0  0
 28 86  1  0  0  0  0
 29 31  2  0  0  0  0
 29 85  1  0  0  0  0
 30 87  1  0  0  0  0
 31 88  1  0  0  0  0
 32 65  2  0  0  0  0
 33 66  1  0  0  0  0
 33 70  1  0  0  0  0
 34 71  1  0  0  0  0
 34 77  2  0  0  0  0
 35 36  1  0  0  0  0
 35 60  1  0  0  0  0
 35 78  2  0  0  0  0
 36 73  1  0  0  0  0
 36 79  2  0  0  0  0
 37 52  1  0  0  0  0
 37 74  1  0  0  0  0
 37 80  2  0  0  0  0
 38 60  1  0  0  0  0
 38 61  1  0  0  0  0
 38 81  2  0  0  0  0
 39 62  1  0  0  0  0
 39 67  1  0  0  0  0
 39 82  2  0  0  0  0
 40 63  1  0  0  0  0
 40 75  1  0  0  0  0
 40 83  2  0  0  0  0
 41 68  1  0  0  0  0
 41 72  1  0  0  0  0
 41 84  2  0  0  0  0
 42 45  1  0  0  0  0
 43 52  1  0  0  0  0
 44 67  1  0  0  0  0
 45 47  1  0  0  0  0
 46 48  1  0  0  0  0
 46 49  1  0  0  0  0
 47 51  1  0  0  0  0
 48 53  1  0  0  0  0
 49 68  1  0  0  0  0
 50 53  1  0  0  0  0
 50 68  1  0  0  0  0
 51 74  1  0  0  0  0
 52 67  1  0  0  0  0
 53 66  1  0  0  0  0
 54 63  1  0  0  0  0
 55 64  1  0  0  0  0
 56 64  1  0  0  0  0
 57 64  1  0  0  0  0
 58 76  1  0  0  0  0
 59 73  1  0  0  0  0
 61 86  1  0  0  0  0
 62 64  1  0  0  0  0
 62 75  1  0  0  0  0
 63 76  1  0  0  0  0
 65 66  1  0  0  0  0
M  CHG  1  76   1
M  ISO  4  41 100  61 101  72 100  86 101
M  END
> <Batch ID>
0174

> <Smiles>
CNC(C)C(=O)NC(C(=O)N1Cc2cc([101O:1][101CH2:1]C(=O)CC(=O)C(=O)NCc3ccc([100NH:0][100C:0](=O)N4CCCC(n5nc(-c6ccc(Oc7ccc(F)cc7F)cc6)c(C(N)=O)c5N)C4)c(N)c3)ccc2CC1C(=O)NC1CCCc2ccccc21)C(C)(C)C

> <Shape>
0.262

> <Color>
0.062

> <Negative vol penalty>
0.000

$$$$

  -OEChem-04052304333D

 90 98  0     1  0  0  0  0  0999 V2000
  -29.5335  -29.4574   26.8113 C   0  0  0  0  0  0  0  0  0  0  0  0
  -29.2073  -28.7623   25.6512 C   0  0  0  0  0  0  0  0  0  0  0  0
  -22.7422  -10.0387   22.8263 C   0  0  0  0  0  0  0  0  0  0  0  0
  -23.9086   -9.7817   20.7262 C   0  0  0  0  0  0  0  0  0  0  0  0
  -28.5275  -30.0479   27.5749 C   0  0  0  0  0  0  0  0  0  0  0  0
  -27.8747  -28.6564   25.2546 C   0  0  0  0  0  0  0  0  0  0  0  0
  -27.2478  -29.5105   20.3026 C   0  0  0  0  0  0  0  0  0  0  0  0
  -22.1086   -8.8125   22.6245 C   0  0  0  0  0  0  0  0  0  0  0  0
  -23.2751   -8.5555   20.5244 C   0  0  0  0  0  0  0  0  0  0  0  0
  -27.5820  -28.4753   19.4306 C   0  0  0  0  0  0  0  0  0  0  0  0
  -22.8724   -5.5332   22.9345 C   0  0  0  0  0  0  0  0  0  0  0  0
  -22.8121   -4.6496   24.0121 C   0  0  0  0  0  0  0  0  0  0  0  0
  -25.2502  -27.8850   19.2472 C   0  0  0  0  0  0  0  0  0  0  0  0
  -28.1136  -19.9586   19.5244 C   0  0  0  0  0  0  0  0  0  0  0  0
  -20.3985   -4.6946   23.9139 C   0  0  0  0  0  0  0  0  0  0  0  0
  -29.3600  -18.1440   19.9554 C   0  0  0  0  0  0  0  0  0  0  0  0
  -23.6421  -10.5233   21.8772 C   0  0  0  0  0  0  0  0  0  0  0  0
  -25.5228  -12.0165   22.7380 C   0  0  0  0  0  0  0  0  0  0  0  0
  -27.1827  -29.9574   27.1823 C   0  0  0  0  0  0  0  0  0  0  0  0
  -25.9111  -29.7343   20.6626 C   0  0  0  0  0  0  0  0  0  0  0  0
  -26.8496  -29.2451   26.0144 C   0  0  0  0  0  0  0  0  0  0  0  0
  -24.9014  -28.9254   20.1219 C   0  0  0  0  0  0  0  0  0  0  0  0
  -28.0618  -18.5819   19.8237 C   0  0  0  0  0  0  0  0  0  0  0  0
  -22.3751   -8.0709   21.4736 C   0  0  0  0  0  0  0  0  0  0  0  0
  -26.5835  -27.6606   18.9050 C   0  0  0  0  0  0  0  0  0  0  0  0
  -21.6957   -5.9976   22.3466 C   0  0  0  0  0  0  0  0  0  0  0  0
  -21.5751   -4.2303   24.5017 C   0  0  0  0  0  0  0  0  0  0  0  0
  -20.4588   -5.5783   22.8363 C   0  0  0  0  0  0  0  0  0  0  0  0
  -24.2965  -11.7901   22.0848 C   0  0  0  0  0  0  0  0  0  0  0  0
  -29.4422  -20.3203   19.4813 C   0  0  0  0  0  0  0  0  0  0  0  0
  -25.7020  -13.3766   22.6701 C   0  0  0  0  0  0  0  0  0  0  0  0
  -26.4198  -11.0811   23.3512 C   0  0  0  0  0  0  0  0  0  0  0  0
  -29.9191  -21.6973   19.1924 C   0  0  0  0  0  0  0  0  0  0  0  0
  -24.2821  -29.6706   23.3914 C   0  0  0  0  0  0  0  0  0  0  0  0
  -28.1448  -24.5794   17.8262 C   0  0  0  0  0  0  0  0  0  0  0  0
  -31.6177  -19.1277   19.8022 C   0  0  0  0  0  0  0  0  0  0  0  0
  -21.8759  -30.7949   21.5290 C   0  0  0  0  0  0  0  0  0  0  0  0
  -20.5165  -31.0808   18.4118 C   0  0  0  0  0  0  0  0  0  0  0  0
  -25.5764  -18.1711   19.8418 C   0  0  0  0  0  0  0  0  0  0  0  0
  -26.1257  -30.5719   28.0654 C   0  0  0  0  0  0  0  0  0  0  0  0
  -25.5643  -30.8720   21.5834 C   0  0  0  0  0  0  0  0  0  0  0  0
  -23.4492  -29.1367   20.4609 C   0  0  0  0  0  0  0  0  0  0  0  0
  -24.7736  -30.7326   27.3754 C   0  0  0  0  0  0  0  0  0  0  0  0
  -22.5149  -17.0534   21.2753 C   0  0  0  0  0  0  0  0  0  0  0  0
  -24.3966  -29.4533   26.6351 C   0  0  0  0  0  0  0  0  0  0  0  0
  -22.8064  -15.6031   21.6675 C   0  0  0  0  0  0  0  0  0  0  0  0
  -23.2056  -17.4372   19.9679 C   0  0  0  0  0  0  0  0  0  0  0  0
  -24.9415  -15.7251   20.3209 C   0  0  0  0  0  0  0  0  0  0  0  0
  -25.4179  -29.1294   25.5380 C   0  0  1  0  0  0  0  0  0  0  0  0
  -24.2225  -30.6853   22.2848 C   0  0  1  0  0  0  0  0  0  0  0  0
  -24.3199  -15.3119   21.6650 C   0  0  2  0  0  0  0  0  0  0  0  0
  -32.1761  -18.0956   20.7339 C   0  0  0  0  0  0  0  0  0  0  0  0
  -18.5250  -32.0225   17.2100 C   0  0  0  0  0  0  0  0  0  0  0  0
  -20.1624  -28.4957   22.5720 C   0  0  0  0  0  0  0  0  0  0  0  0
  -18.5767  -28.9112   20.6796 C   0  0  0  0  0  0  0  0  0  0  0  0
  -18.9693  -30.6859   22.3880 C   0  0  0  0  0  0  0  0  0  0  0  0
  -22.2086  -32.8639   16.7635 C   0  0  0  0  0  0  0  0  0  0  0  0
  -28.1874  -26.0422   18.2237 C   0  0  0  0  0  0  0  0  0  1  0  0
  -29.4467  -23.8055   17.9724 C   0  0  2  0  0  0  0  0  0  0  0  0
  -20.7805  -30.1657   20.7025 C   0  0  1  0  0  0  0  0  0  0  0  0
  -19.9541  -32.2762   17.6639 C   0  0  2  0  0  0  0  0  0  0  0  0
  -19.6497  -29.5592   21.5805 C   0  0  0  0  0  0  0  0  0  0  0  0
  -30.2353  -23.8345   16.6819 C   0  0  0  0  0  0  0  0  0  0  0  0
  -23.7361  -12.9161   21.6352 N   0  0  0  0  0  0  0  0  0  0  0  0
  -30.2192  -19.2085   19.7460 N   0  0  0  0  0  0  0  0  0  0  0  0
  -24.6143  -13.8632   22.0066 N   0  0  0  0  0  0  0  0  0  0  0  0
  -23.1614  -30.2581   21.3705 N   0  0  0  0  0  0  0  0  0  0  0  0
  -24.6372  -17.1370   20.0406 N   0  0  0  0  0  0  0  0  0  0  0  0
  -26.6822  -14.1918   23.1140 N   0  0  0  0  0  0  0  0  0  0  0  0
  -26.0828   -9.7208   23.3313 N   0  0  0  0  0  0  0  0  0  0  0  0
  -26.9071  -17.7733   19.9671 N   0  0  0  0  0  0  0  0  0  0  0  0
  -29.1084  -22.4622   18.3636 N   0  0  0  0  0  0  0  0  0  0  0  0
  -25.1997  -29.9700   24.3803 N   0  0  0  0  0  0  0  0  0  0  0  0
  -20.3281  -31.1951   19.7729 N   0  0  0  0  0  0  0  0  0  0  0  0
  -20.7835  -32.5721   16.4617 N   0  3  0  0  0  0  0  0  0  0  0  0
  -27.4805  -11.4426   23.9149 O   0  0  0  0  0  0  0  0  0  0  0  0
  -30.9860  -22.0752   19.6693 O   0  0  0  0  0  0  0  0  0  0  0  0
  -23.5489  -28.6895   23.3517 O   0  0  0  0  0  0  0  0  0  0  0  0
  -27.1213  -24.0587   17.3818 O   0  0  0  0  0  0  0  0  0  0  0  0
  -32.2878  -19.8797   19.1084 O   0  0  0  0  0  0  0  0  0  0  0  0
  -21.6025  -31.7329   22.2820 O   0  0  0  0  0  0  0  0  0  0  0  0
  -21.0646  -30.1381   17.8448 O   0  0  0  0  0  0  0  0  0  0  0  0
  -25.2254  -19.3301   19.6065 O   0  0  0  0  0  0  0  0  0  0  0  0
  -21.7573   -6.8743   21.2764 O   0  0  0  0  0  0  0  0  0  0  0  0
  -26.9071  -26.6490   18.0542 O   0  0  0  0  0  0  0  0  0  1  0  0
  -21.5174   -3.3805   25.5355 F   0  0  0  0  0  0  0  0  0  0  0  0
  -19.3250   -6.0201   22.2749 F   0  0  0  0  0  0  0  0  0  0  0  0
  -31.3772  -23.1204   16.7928 F   0  0  0  0  0  0  0  0  0  0  0  0
  -30.5685  -25.0930   16.3236 F   0  0  0  0  0  0  0  0  0  0  0  0
  -29.5207  -23.2939   15.6692 F   0  0  0  0  0  0  0  0  0  0  0  0
  1  2  1  0  0  0  0
  1  5  2  0  0  0  0
  2  6  2  0  0  0  0
  3  8  2  0  0  0  0
  3 17  1  0  0  0  0
  4  9  1  0  0  0  0
  4 17  2  0  0  0  0
  5 19  1  0  0  0  0
  6 21  1  0  0  0  0
  7 10  2  0  0  0  0
  7 20  1  0  0  0  0
  8 24  1  0  0  0  0
  9 24  2  0  0  0  0
 10 25  1  0  0  0  0
 11 12  2  0  0  0  0
 11 26  1  0  0  0  0
 12 27  1  0  0  0  0
 13 22  1  0  0  0  0
 13 25  2  0  0  0  0
 14 23  1  0  0  0  0
 14 30  2  0  0  0  0
 15 27  2  0  0  0  0
 15 28  1  0  0  0  0
 16 23  2  0  0  0  0
 16 65  1  0  0  0  0
 17 29  1  0  0  0  0
 18 29  1  0  0  0  0
 18 31  2  0  0  0  0
 18 32  1  0  0  0  0
 19 21  2  0  0  0  0
 19 40  1  0  0  0  0
 20 22  2  0  0  0  0
 20 41  1  0  0  0  0
 21 49  1  0  0  0  0
 22 42  1  0  0  0  0
 23 71  1  0  0  0  0
 24 84  1  0  0  0  0
 25 85  1  0  0  0  0
 26 28  2  0  0  0  0
 26 84  1  0  0  0  0
 27 86  1  0  0  0  0
 28 87  1  0  0  0  0
 29 64  2  0  0  0  0
 30 33  1  0  0  0  0
 30 65  1  0  0  0  0
 31 66  1  0  0  0  0
 31 69  1  0  0  0  0
 32 70  1  0  0  0  0
 32 76  2  0  0  0  0
 33 72  1  0  0  0  0
 33 77  2  0  0  0  0
 34 50  1  0  0  0  0
 34 73  1  0  0  0  0
 34 78  2  0  0  0  0
 35 58  1  0  0  0  0
 35 59  1  0  0  0  0
 35 79  2  0  0  0  0
 36 52  1  0  0  0  0
 36 65  1  0  0  0  0
 36 80  2  0  0  0  0
 37 60  1  0  0  0  0
 37 67  1  0  0  0  0
 37 81  2  0  0  0  0
 38 61  1  0  0  0  0
 38 74  1  0  0  0  0
 38 82  2  0  0  0  0
 39 68  1  0  0  0  0
 39 71  1  0  0  0  0
 39 83  2  0  0  0  0
 40 43  1  0  0  0  0
 41 50  1  0  0  0  0
 42 67  1  0  0  0  0
 43 45  1  0  0  0  0
 44 46  1  0  0  0  0
 44 47  1  0  0  0  0
 45 49  1  0  0  0  0
 46 51  1  0  0  0  0
 47 68  1  0  0  0  0
 48 51  1  0  0  0  0
 48 68  1  0  0  0  0
 49 73  1  0  0  0  0
 50 67  1  0  0  0  0
 51 66  1  0  0  0  0
 53 61  1  0  0  0  0
 54 62  1  0  0  0  0
 55 62  1  0  0  0  0
 56 62  1  0  0  0  0
 57 75  1  0  0  0  0
 58 85  1  0  0  0  0
 59 63  1  0  0  0  0
 59 72  1  0  0  0  0
 60 62  1  0  0  0  0
 60 74  1  0  0  0  0
 61 75  1  0  0  0  0
 63 88  1  0  0  0  0
 63 89  1  0  0  0  0
 63 90  1  0  0  0  0
 64 66  1  0  0  0  0
M  CHG  1  75   1
M  ISO  4  39 100  58 101  71 100  85 101
M  END
> <Batch ID>
0174

> <Smiles>
CNC(C)C(=O)NC(C(=O)N1Cc2cc([101O:1][101CH2:1]C(=O)C(NC(=O)c3cc([100NH:0][100C:0](=O)N4CCCC(n5nc(-c6ccc(Oc7ccc(F)cc7F)cc6)c(C(N)=O)c5N)C4)cn3C(C)=O)C(F)(F)F)ccc2CC1C(=O)NC1CCCc2ccccc21)C(C)(C)C

> <Shape>
0.258

> <Color>
0.102

> <Negative vol penalty>
0.000

$$$$

  -OEChem-04052304333D

 88 96  0     1  0  0  0  0  0999 V2000
  -27.1258  -31.8163   28.4585 C   0  0  0  0  0  0  0  0  0  0  0  0
  -27.5898  -31.0798   27.3732 C   0  0  0  0  0  0  0  0  0  0  0  0
  -22.4901  -10.2964   22.2153 C   0  0  0  0  0  0  0  0  0  0  0  0
  -24.6053   -9.7754   21.1705 C   0  0  0  0  0  0  0  0  0  0  0  0
  -25.7580  -31.8838   28.7201 C   0  0  0  0  0  0  0  0  0  0  0  0
  -26.6861  -30.4095   26.5495 C   0  0  0  0  0  0  0  0  0  0  0  0
  -27.1592  -29.5406   20.5057 C   0  0  0  0  0  0  0  0  0  0  0  0
  -22.0671   -8.9825   22.0141 C   0  0  0  0  0  0  0  0  0  0  0  0
  -24.1824   -8.4615   20.9694 C   0  0  0  0  0  0  0  0  0  0  0  0
  -27.5961  -28.4568   19.7453 C   0  0  0  0  0  0  0  0  0  0  0  0
  -22.5476   -5.9625   23.4569 C   0  0  0  0  0  0  0  0  0  0  0  0
  -21.9170   -5.3148   24.5191 C   0  0  0  0  0  0  0  0  0  0  0  0
  -25.3122  -27.7240   19.4883 C   0  0  0  0  0  0  0  0  0  0  0  0
  -19.9373   -5.0223   23.1653 C   0  0  0  0  0  0  0  0  0  0  0  0
  -23.7592  -10.6928   21.7934 C   0  0  0  0  0  0  0  0  0  0  0  0
  -24.8766  -12.5625   23.1213 C   0  0  0  0  0  0  0  0  0  0  0  0
  -24.8365  -31.2220   27.8934 C   0  0  0  0  0  0  0  0  0  0  0  0
  -25.7941  -29.7184   20.7728 C   0  0  0  0  0  0  0  0  0  0  0  0
  -25.3048  -30.4672   26.8010 C   0  0  0  0  0  0  0  0  0  0  0  0
  -24.8603  -28.8122   20.2503 C   0  0  0  0  0  0  0  0  0  0  0  0
  -22.9132   -8.0650   21.3912 C   0  0  0  0  0  0  0  0  0  0  0  0
  -26.6729  -27.5467   19.2389 C   0  0  0  0  0  0  0  0  0  0  0  0
  -21.8731   -6.1402   22.2489 C   0  0  0  0  0  0  0  0  0  0  0  0
  -20.6118   -4.8447   24.3733 C   0  0  0  0  0  0  0  0  0  0  0  0
  -20.5680   -5.6701   22.1031 C   0  0  0  0  0  0  0  0  0  0  0  0
  -24.1965  -12.0500   22.0003 C   0  0  0  0  0  0  0  0  0  0  0  0
  -29.8646  -20.4508   20.5976 C   0  0  0  0  0  0  0  0  0  0  0  0
  -25.0622  -13.8923   22.8321 C   0  0  0  0  0  0  0  0  0  0  0  0
  -30.5293  -19.6541   21.5062 C   0  0  0  0  0  0  0  0  0  0  0  0
  -28.5607  -18.6897   20.5076 C   0  0  0  0  0  0  0  0  0  0  0  0
  -25.3026  -11.8960   24.3172 C   0  0  0  0  0  0  0  0  0  0  0  0
  -30.2866  -21.8236   20.2173 C   0  0  0  0  0  0  0  0  0  0  0  0
  -24.0143  -29.7907   23.4054 C   0  0  0  0  0  0  0  0  0  0  0  0
  -28.4499  -24.4786   18.5148 C   0  0  0  0  0  0  0  0  0  0  0  0
  -21.6664  -30.6202   21.3266 C   0  0  0  0  0  0  0  0  0  0  0  0
  -20.4781  -30.5698   18.1278 C   0  0  0  0  0  0  0  0  0  0  0  0
  -26.4751  -17.9574   19.2991 C   0  0  0  0  0  0  0  0  0  0  0  0
  -23.3709  -31.2854   28.2438 C   0  0  0  0  0  0  0  0  0  0  0  0
  -25.3366  -30.9075   21.5723 C   0  0  0  0  0  0  0  0  0  0  0  0
  -23.3819  -28.9695   20.4913 C   0  0  0  0  0  0  0  0  0  0  0  0
  -22.4527  -30.8537   27.1032 C   0  0  0  0  0  0  0  0  0  0  0  0
  -23.1253  -16.7615   19.1391 C   0  0  0  0  0  0  0  0  0  0  0  0
  -22.9566  -29.5592   26.4730 C   0  0  0  0  0  0  0  0  0  0  0  0
  -23.1613  -15.4713   19.9615 C   0  0  0  0  0  0  0  0  0  0  0  0
  -24.4114  -16.9601   18.3391 C   0  0  0  0  0  0  0  0  0  0  0  0
  -25.6854  -15.5971   19.9479 C   0  0  0  0  0  0  0  0  0  0  0  0
  -24.3540  -29.7467   25.8699 C   0  0  1  0  0  0  0  0  0  0  0  0
  -23.9674  -30.7050   22.2140 C   0  0  1  0  0  0  0  0  0  0  0  0
  -24.4377  -15.3864   20.8212 C   0  0  2  0  0  0  0  0  0  0  0  0
  -18.5144  -31.2957   16.7442 C   0  0  0  0  0  0  0  0  0  0  0  0
  -20.0148  -28.3235   22.4701 C   0  0  0  0  0  0  0  0  0  0  0  0
  -18.5229  -28.4910   20.4665 C   0  0  0  0  0  0  0  0  0  0  0  0
  -18.7240  -30.4208   22.0344 C   0  0  0  0  0  0  0  0  0  0  0  0
  -22.1699  -32.3015   16.4255 C   0  0  0  0  0  0  0  0  0  0  0  0
  -28.3944  -25.9694   18.7866 C   0  0  0  0  0  0  0  0  0  1  0  0
  -29.7789  -23.7935   18.7967 C   0  0  2  0  0  0  0  0  0  0  0  0
  -20.6545  -29.8643   20.4996 C   0  0  1  0  0  0  0  0  0  0  0  0
  -19.8998  -31.6656   17.2507 C   0  0  2  0  0  0  0  0  0  0  0  0
  -19.5070  -29.2706   21.3646 C   0  0  0  0  0  0  0  0  0  0  0  0
  -30.6388  -23.7592   17.5528 C   0  0  0  0  0  0  0  0  0  0  0  0
  -23.9655  -12.9786   21.0685 N   0  0  0  0  0  0  0  0  0  0  0  0
  -28.7358  -19.8993   20.0236 N   0  0  0  0  0  0  0  0  0  0  0  0
  -24.5034  -14.0880   21.6034 N   0  0  0  0  0  0  0  0  0  0  0  0
  -22.9847  -30.1447   21.2842 N   0  0  0  0  0  0  0  0  0  0  0  0
  -25.5783  -16.8710   19.2195 N   0  0  0  0  0  0  0  0  0  0  0  0
  -25.6472  -14.9016   23.5114 N   0  0  0  0  0  0  0  0  0  0  0  0
  -31.6524  -19.9394   22.2099 N   0  0  0  0  0  0  0  0  0  0  0  0
  -25.0314  -10.5276   24.4522 N   0  0  0  0  0  0  0  0  0  0  0  0
  -27.5288  -17.7709   20.1933 N   0  0  0  0  0  0  0  0  0  0  0  0
  -29.4875  -22.4705   19.2834 N   0  0  0  0  0  0  0  0  0  0  0  0
  -24.2682  -30.4364   24.6005 N   0  0  0  0  0  0  0  0  0  0  0  0
  -20.2051  -30.7861   19.4620 N   0  0  0  0  0  0  0  0  0  0  0  0
  -20.7817  -31.9065   16.0738 N   0  3  0  0  0  0  0  0  0  0  0  0
  -25.8913  -12.4997   25.2458 O   0  0  0  0  0  0  0  0  0  0  0  0
  -31.3032  -22.2988   20.7165 O   0  0  0  0  0  0  0  0  0  0  0  0
  -23.8320  -28.5886   23.2521 O   0  0  0  0  0  0  0  0  0  0  0  0
  -27.4820  -23.8664   18.0625 O   0  0  0  0  0  0  0  0  0  0  0  0
  -21.3019  -31.6007   21.9803 O   0  0  0  0  0  0  0  0  0  0  0  0
  -21.1058  -29.6153   17.6744 O   0  0  0  0  0  0  0  0  0  0  0  0
  -26.3048  -18.9888   18.6440 O   0  0  0  0  0  0  0  0  0  0  0  0
  -22.5009   -6.7828   21.1951 O   0  0  0  0  0  0  0  0  0  0  0  0
  -27.0968  -26.4876   18.4969 O   0  0  0  0  0  0  0  0  0  1  0  0
  -20.0069   -4.2213   25.3929 F   0  0  0  0  0  0  0  0  0  0  0  0
  -19.9154   -5.8369   20.9447 F   0  0  0  0  0  0  0  0  0  0  0  0
  -31.8073  -23.1217   17.7859 F   0  0  0  0  0  0  0  0  0  0  0  0
  -30.9276  -25.0003   17.1059 F   0  0  0  0  0  0  0  0  0  0  0  0
  -30.0131  -23.0972   16.5535 F   0  0  0  0  0  0  0  0  0  0  0  0
  -29.7157  -18.1519   21.6573 S   0  0  0  0  0  0  0  0  0  0  0  0
  1  2  1  0  0  0  0
  1  5  2  0  0  0  0
  2  6  2  0  0  0  0
  3  8  2  0  0  0  0
  3 15  1  0  0  0  0
  4  9  1  0  0  0  0
  4 15  2  0  0  0  0
  5 17  1  0  0  0  0
  6 19  1  0  0  0  0
  7 10  2  0  0  0  0
  7 18  1  0  0  0  0
  8 21  1  0  0  0  0
  9 21  2  0  0  0  0
 10 22  1  0  0  0  0
 11 12  2  0  0  0  0
 11 23  1  0  0  0  0
 12 24  1  0  0  0  0
 13 20  1  0  0  0  0
 13 22  2  0  0  0  0
 14 24  2  0  0  0  0
 14 25  1  0  0  0  0
 15 26  1  0  0  0  0
 16 26  1  0  0  0  0
 16 28  2  0  0  0  0
 16 31  1  0  0  0  0
 17 19  2  0  0  0  0
 17 38  1  0  0  0  0
 18 20  2  0  0  0  0
 18 39  1  0  0  0  0
 19 47  1  0  0  0  0
 20 40  1  0  0  0  0
 21 81  1  0  0  0  0
 22 82  1  0  0  0  0
 23 25  2  0  0  0  0
 23 81  1  0  0  0  0
 24 83  1  0  0  0  0
 25 84  1  0  0  0  0
 26 61  2  0  0  0  0
 27 29  2  0  0  0  0
 27 32  1  0  0  0  0
 27 62  1  0  0  0  0
 28 63  1  0  0  0  0
 28 66  1  0  0  0  0
 29 67  1  0  0  0  0
 29 88  1  0  0  0  0
 30 62  2  0  0  0  0
 30 69  1  0  0  0  0
 30 88  1  0  0  0  0
 31 68  1  0  0  0  0
 31 74  2  0  0  0  0
 32 70  1  0  0  0  0
 32 75  2  0  0  0  0
 33 48  1  0  0  0  0
 33 71  1  0  0  0  0
 33 76  2  0  0  0  0
 34 55  1  0  0  0  0
 34 56  1  0  0  0  0
 34 77  2  0  0  0  0
 35 57  1  0  0  0  0
 35 64  1  0  0  0  0
 35 78  2  0  0  0  0
 36 58  1  0  0  0  0
 36 72  1  0  0  0  0
 36 79  2  0  0  0  0
 37 65  1  0  0  0  0
 37 69  1  0  0  0  0
 37 80  2  0  0  0  0
 38 41  1  0  0  0  0
 39 48  1  0  0  0  0
 40 64  1  0  0  0  0
 41 43  1  0  0  0  0
 42 44  1  0  0  0  0
 42 45  1  0  0  0  0
 43 47  1  0  0  0  0
 44 49  1  0  0  0  0
 45 65  1  0  0  0  0
 46 49  1  0  0  0  0
 46 65  1  0  0  0  0
 47 71  1  0  0  0  0
 48 64  1  0  0  0  0
 49 63  1  0  0  0  0
 50 58  1  0  0  0  0
 51 59  1  0  0  0  0
 52 59  1  0  0  0  0
 53 59  1  0  0  0  0
 54 73  1  0  0  0  0
 55 82  1  0  0  0  0
 56 60  1  0  0  0  0
 56 70  1  0  0  0  0
 57 59  1  0  0  0  0
 57 72  1  0  0  0  0
 58 73  1  0  0  0  0
 60 85  1  0  0  0  0
 60 86  1  0  0  0  0
 60 87  1  0  0  0  0
 61 63  1  0  0  0  0
M  CHG  1  73   1
M  ISO  4  37 100  55 101  69 100  82 101
M  END
> <Batch ID>
0174

> <Smiles>
CNC(C)C(=O)NC(C(=O)N1Cc2cc([101O:1][101CH2:1]C(=O)C(NC(=O)c3nc([100NH:0][100C:0](=O)N4CCCC(n5nc(-c6ccc(Oc7ccc(F)cc7F)cc6)c(C(N)=O)c5N)C4)sc3N)C(F)(F)F)ccc2CC1C(=O)NC1CCCc2ccccc21)C(C)(C)C

> <Shape>
0.274

> <Color>
0.092

> <Negative vol penalty>
0.000

$$$$

  -OEChem-04052304333D

 85 93  0     1  0  0  0  0  0999 V2000
  -19.6828  -24.1862   23.7682 C   0  0  0  0  0  0  0  0  0  0  0  0
  -20.9180  -24.4333   23.1777 C   0  0  0  0  0  0  0  0  0  0  0  0
  -23.1237   -9.8600   20.9741 C   0  0  0  0  0  0  0  0  0  0  0  0
  -23.3998  -11.3238   22.8762 C   0  0  0  0  0  0  0  0  0  0  0  0
  -18.7106  -25.1853   23.7923 C   0  0  0  0  0  0  0  0  0  0  0  0
  -21.1813  -25.6794   22.6100 C   0  0  0  0  0  0  0  0  0  0  0  0
  -25.7578  -27.4538   23.8560 C   0  0  0  0  0  0  0  0  0  0  0  0
  -22.2688   -9.0500   21.7215 C   0  0  0  0  0  0  0  0  0  0  0  0
  -22.5448  -10.5138   23.6237 C   0  0  0  0  0  0  0  0  0  0  0  0
  -26.8534  -26.9214   23.1778 C   0  0  0  0  0  0  0  0  0  0  0  0
  -22.5457   -6.6557   24.0912 C   0  0  0  0  0  0  0  0  0  0  0  0
  -22.7328   -5.2755   24.0175 C   0  0  0  0  0  0  0  0  0  0  0  0
  -31.8353  -19.0360   19.1293 C   0  0  0  0  0  0  0  0  0  0  0  0
  -31.7989  -17.6331   19.3754 C   0  0  0  0  0  0  0  0  0  0  0  0
  -26.9000  -28.8602   21.7432 C   0  0  0  0  0  0  0  0  0  0  0  0
  -20.4863   -5.0164   23.1669 C   0  0  0  0  0  0  0  0  0  0  0  0
  -23.6893  -10.9969   21.5515 C   0  0  0  0  0  0  0  0  0  0  0  0
  -24.2173  -12.9377   19.9824 C   0  0  0  0  0  0  0  0  0  0  0  0
  -18.9656  -26.4475   23.2332 C   0  0  0  0  0  0  0  0  0  0  0  0
  -25.2173  -28.6905   23.4752 C   0  0  0  0  0  0  0  0  0  0  0  0
  -20.2112  -26.6959   22.6255 C   0  0  0  0  0  0  0  0  0  0  0  0
  -25.7991  -29.4073   22.4198 C   0  0  0  0  0  0  0  0  0  0  0  0
  -21.9793   -9.3769   23.0463 C   0  0  0  0  0  0  0  0  0  0  0  0
  -27.4229  -27.6232   22.1194 C   0  0  0  0  0  0  0  0  0  0  0  0
  -21.3289   -7.2163   23.7028 C   0  0  0  0  0  0  0  0  0  0  0  0
  -21.7031   -4.4558   23.5553 C   0  0  0  0  0  0  0  0  0  0  0  0
  -20.2992   -6.3967   23.2407 C   0  0  0  0  0  0  0  0  0  0  0  0
  -24.5730  -11.8336   20.7801 C   0  0  0  0  0  0  0  0  0  0  0  0
  -25.4083  -13.3858   19.4656 C   0  0  0  0  0  0  0  0  0  0  0  0
  -30.5919  -19.6157   19.2539 C   0  0  0  0  0  0  0  0  0  0  0  0
  -30.5289  -17.1939   19.6791 C   0  0  0  0  0  0  0  0  0  0  0  0
  -22.9257  -13.5072   19.7310 C   0  0  0  0  0  0  0  0  0  0  0  0
  -30.1861  -23.3165   18.6908 C   0  0  0  0  0  0  0  0  0  0  0  0
  -30.9696  -22.0369   18.7650 C   0  0  0  0  0  0  0  0  0  0  0  0
  -22.3990  -29.6628   22.3729 C   0  0  0  0  0  0  0  0  0  0  0  0
  -29.3141  -25.2509   20.1299 C   0  0  0  0  0  0  0  0  0  0  0  0
  -23.7217  -32.6058   22.7067 C   0  0  0  0  0  0  0  0  0  0  0  0
  -26.5495  -34.5086   22.8796 C   0  0  0  0  0  0  0  0  0  0  0  0
  -30.7823  -14.7165   20.0598 C   0  0  0  0  0  0  0  0  0  0  0  0
  -17.8668  -27.4805   23.2414 C   0  0  0  0  0  0  0  0  0  0  0  0
  -24.0520  -29.2635   24.2341 C   0  0  0  0  0  0  0  0  0  0  0  0
  -25.2691  -30.7484   21.9850 C   0  0  0  0  0  0  0  0  0  0  0  0
  -18.3591  -28.8958   22.9502 C   0  0  0  0  0  0  0  0  0  0  0  0
  -30.0134  -11.2850   19.5026 C   0  0  0  0  0  0  0  0  0  0  0  0
  -19.2994  -28.8974   21.7491 C   0  0  0  0  0  0  0  0  0  0  0  0
  -28.5002  -11.2126   19.7197 C   0  0  0  0  0  0  0  0  0  0  0  0
  -30.6781  -12.2671   20.4655 C   0  0  0  0  0  0  0  0  0  0  0  0
  -28.5831  -13.5430   20.6940 C   0  0  0  0  0  0  0  0  0  0  0  0
  -20.5434  -28.0430   22.0212 C   0  0  1  0  0  0  0  0  0  0  0  0
  -23.2624  -30.2916   23.4297 C   0  0  1  0  0  0  0  0  0  0  0  0
  -27.8609  -12.6150   19.7037 C   0  0  2  0  0  0  0  0  0  0  0  0
  -27.3115  -36.8878   23.1165 C   0  0  0  0  0  0  0  0  0  0  0  0
  -22.9901  -33.1280   19.7908 C   0  0  0  0  0  0  0  0  0  0  0  0
  -24.5752  -35.0658   19.8128 C   0  0  0  0  0  0  0  0  0  0  0  0
  -22.5936  -35.0604   21.3280 C   0  0  0  0  0  0  0  0  0  0  0  0
  -27.9728  -33.9230   25.4074 C   0  0  0  0  0  0  0  0  0  0  0  0
  -29.4915  -23.7557   19.9549 C   0  0  0  0  0  0  0  0  0  0  0  0
  -28.5891  -25.6833   21.3896 C   0  0  0  0  0  0  0  0  0  1  0  0
  -24.5357  -33.5187   21.8218 C   0  0  1  0  0  0  0  0  0  0  0  0
  -26.9727  -35.5983   23.8481 C   0  0  2  0  0  0  0  0  0  0  0  0
  -23.6827  -34.1671   20.6950 C   0  0  0  0  0  0  0  0  0  0  0  0
  -25.8871  -11.5949   20.7737 N   0  0  0  0  0  0  0  0  0  0  0  0
  -26.3676  -12.5552   19.9655 N   0  0  0  0  0  0  0  0  0  0  0  0
  -24.1244  -31.2637   22.7542 N   0  0  0  0  0  0  0  0  0  0  0  0
  -30.0229  -13.5749   20.3926 N   0  0  0  0  0  0  0  0  0  0  0  0
  -25.7181  -14.4055   18.6369 N   0  0  0  0  0  0  0  0  0  0  0  0
  -21.8076  -12.9232   20.3418 N   0  0  0  0  0  0  0  0  0  0  0  0
  -30.1779  -20.9592   19.0994 N   0  0  0  0  0  0  0  0  0  0  0  0
  -30.0456  -15.8984   19.9888 N   0  0  0  0  0  0  0  0  0  0  0  0
  -21.4749  -28.7607   22.8647 N   0  0  0  0  0  0  0  0  0  0  0  0
  -25.1814  -34.4791   22.7101 N   0  0  0  0  0  0  0  0  0  0  0  0
  -28.1719  -35.1674   24.6208 N   0  3  0  0  0  0  0  0  0  0  0  0
  -22.7659  -14.4944   18.9737 O   0  0  0  0  0  0  0  0  0  0  0  0
  -30.1560  -23.8899   17.6123 O   0  0  0  0  0  0  0  0  0  0  0  0
  -32.1588  -22.1093   18.5023 O   0  0  0  0  0  0  0  0  0  0  0  0
  -22.5582  -29.9743   21.1984 O   0  0  0  0  0  0  0  0  0  0  0  0
  -29.7496  -26.0701   19.3226 O   0  0  0  0  0  0  0  0  0  0  0  0
  -22.7683  -33.0681   23.3383 O   0  0  0  0  0  0  0  0  0  0  0  0
  -27.3525  -33.7610   22.3258 O   0  0  0  0  0  0  0  0  0  0  0  0
  -31.9916  -14.6461   19.8264 O   0  0  0  0  0  0  0  0  0  0  0  0
  -21.1449   -8.5869   23.7758 O   0  0  0  0  0  0  0  0  0  0  0  0
  -28.4919  -27.1055   21.4554 O   0  0  0  0  0  0  0  0  0  1  0  0
  -21.8835   -3.1305   23.4832 F   0  0  0  0  0  0  0  0  0  0  0  0
  -19.1285   -6.9296   22.8650 F   0  0  0  0  0  0  0  0  0  0  0  0
  -29.3875  -18.4703   19.6663 S   0  0  0  0  0  0  0  0  0  0  0  0
  1  2  1  0  0  0  0
  1  5  2  0  0  0  0
  2  6  2  0  0  0  0
  3  8  2  0  0  0  0
  3 17  1  0  0  0  0
  4  9  1  0  0  0  0
  4 17  2  0  0  0  0
  5 19  1  0  0  0  0
  6 21  1  0  0  0  0
  7 10  2  0  0  0  0
  7 20  1  0  0  0  0
  8 23  1  0  0  0  0
  9 23  2  0  0  0  0
 10 24  1  0  0  0  0
 11 12  2  0  0  0  0
 11 25  1  0  0  0  0
 12 26  1  0  0  0  0
 13 14  1  0  0  0  0
 13 30  2  0  0  0  0
 14 31  2  0  0  0  0
 15 22  1  0  0  0  0
 15 24  2  0  0  0  0
 16 26  2  0  0  0  0
 16 27  1  0  0  0  0
 17 28  1  0  0  0  0
 18 28  1  0  0  0  0
 18 29  2  0  0  0  0
 18 32  1  0  0  0  0
 19 21  2  0  0  0  0
 19 40  1  0  0  0  0
 20 22  2  0  0  0  0
 20 41  1  0  0  0  0
 21 49  1  0  0  0  0
 22 42  1  0  0  0  0
 23 81  1  0  0  0  0
 24 82  1  0  0  0  0
 25 27  2  0  0  0  0
 25 81  1  0  0  0  0
 26 83  1  0  0  0  0
 27 84  1  0  0  0  0
 28 62  2  0  0  0  0
 29 63  1  0  0  0  0
 29 66  1  0  0  0  0
 30 68  1  0  0  0  0
 30 85  1  0  0  0  0
 31 69  1  0  0  0  0
 31 85  1  0  0  0  0
 32 67  1  0  0  0  0
 32 73  2  0  0  0  0
 33 34  1  0  0  0  0
 33 57  1  0  0  0  0
 33 74  2  0  0  0  0
 34 68  1  0  0  0  0
 34 75  2  0  0  0  0
 35 50  1  0  0  0  0
 35 70  1  0  0  0  0
 35 76  2  0  0  0  0
 36 57  1  0  0  0  0
 36 58  1  0  0  0  0
 36 77  2  0  0  0  0
 37 59  1  0  0  0  0
 37 64  1  0  0  0  0
 37 78  2  0  0  0  0
 38 60  1  0  0  0  0
 38 71  1  0  0  0  0
 38 79  2  0  0  0  0
 39 65  1  0  0  0  0
 39 69  1  0  0  0  0
 39 80  2  0  0  0  0
 40 43  1  0  0  0  0
 41 50  1  0  0  0  0
 42 64  1  0  0  0  0
 43 45  1  0  0  0  0
 44 46  1  0  0  0  0
 44 47  1  0  0  0  0
 45 49  1  0  0  0  0
 46 51  1  0  0  0  0
 47 65  1  0  0  0  0
 48 51  1  0  0  0  0
 48 65  1  0  0  0  0
 49 70  1  0  0  0  0
 50 64  1  0  0  0  0
 51 63  1  0  0  0  0
 52 60  1  0  0  0  0
 53 61  1  0  0  0  0
 54 61  1  0  0  0  0
 55 61  1  0  0  0  0
 56 72  1  0  0  0  0
 58 82  1  0  0  0  0
 59 61  1  0  0  0  0
 59 71  1  0  0  0  0
 60 72  1  0  0  0  0
 62 63  1  0  0  0  0
M  CHG  1  72   1
M  ISO  4  39 100  58 101  69 100  82 101
M  END
> <Batch ID>
0174

> <Smiles>
CNC(C)C(=O)NC(C(=O)N1Cc2cc([101O:1][101CH2:1]C(=O)CC(=O)C(=O)Nc3ccc([100NH:0][100C:0](=O)N4CCCC(n5nc(-c6ccc(Oc7ccc(F)cc7F)cc6)c(C(N)=O)c5N)C4)s3)ccc2CC1C(=O)NC1CCCc2ccccc21)C(C)(C)C

> <Shape>
0.334

> <Color>
0.125

> <Negative vol penalty>
0.000

$$$$

  -OEChem-04052304333D

 86 94  0     1  0  0  0  0  0999 V2000
  -30.0389  -32.4039   26.0258 C   0  0  0  0  0  0  0  0  0  0  0  0
  -29.4119  -31.4457   25.2357 C   0  0  0  0  0  0  0  0  0  0  0  0
  -24.1625   -8.9152   20.4778 C   0  0  0  0  0  0  0  0  0  0  0  0
  -22.7935  -10.7339   21.2873 C   0  0  0  0  0  0  0  0  0  0  0  0
  -29.2897  -33.1675   26.9199 C   0  0  0  0  0  0  0  0  0  0  0  0
  -28.0352  -31.2499   25.3401 C   0  0  0  0  0  0  0  0  0  0  0  0
  -25.7800  -30.8614   20.8226 C   0  0  0  0  0  0  0  0  0  0  0  0
  -23.2067   -7.9997   20.9180 C   0  0  0  0  0  0  0  0  0  0  0  0
  -21.8376   -9.8183   21.7275 C   0  0  0  0  0  0  0  0  0  0  0  0
  -25.8956  -29.6424   20.1560 C   0  0  0  0  0  0  0  0  0  0  0  0
  -21.2919   -5.1652   22.1520 C   0  0  0  0  0  0  0  0  0  0  0  0
  -21.7403   -4.0369   22.8385 C   0  0  0  0  0  0  0  0  0  0  0  0
  -23.6833  -29.0328   20.8998 C   0  0  0  0  0  0  0  0  0  0  0  0
  -27.6127  -20.3217   19.3286 C   0  0  0  0  0  0  0  0  0  0  0  0
  -29.1158  -19.2850   21.4378 C   0  0  0  0  0  0  0  0  0  0  0  0
  -22.7203   -5.4559   24.5306 C   0  0  0  0  0  0  0  0  0  0  0  0
  -23.9559  -10.2823   20.6625 C   0  0  0  0  0  0  0  0  0  0  0  0
  -25.0127  -11.8439   18.9442 C   0  0  0  0  0  0  0  0  0  0  0  0
  -27.9017  -32.9876   27.0284 C   0  0  0  0  0  0  0  0  0  0  0  0
  -24.6176  -31.1713   21.5431 C   0  0  0  0  0  0  0  0  0  0  0  0
  -27.2669  -32.0109   26.2375 C   0  0  0  0  0  0  0  0  0  0  0  0
  -23.5544  -30.2575   21.5725 C   0  0  0  0  0  0  0  0  0  0  0  0
  -28.2535  -21.1840   20.2182 C   0  0  0  0  0  0  0  0  0  0  0  0
  -28.4750  -18.4227   20.5482 C   0  0  0  0  0  0  0  0  0  0  0  0
  -22.0443   -8.4513   21.5429 C   0  0  0  0  0  0  0  0  0  0  0  0
  -24.8483  -28.7266   20.1969 C   0  0  0  0  0  0  0  0  0  0  0  0
  -21.5578   -6.4390   22.6547 C   0  0  0  0  0  0  0  0  0  0  0  0
  -22.4544   -4.1822   24.0279 C   0  0  0  0  0  0  0  0  0  0  0  0
  -29.0051  -20.6657   21.2728 C   0  0  0  0  0  0  0  0  0  0  0  0
  -27.7234  -18.9410   19.4936 C   0  0  0  0  0  0  0  0  0  0  0  0
  -22.2719   -6.5842   23.8440 C   0  0  0  0  0  0  0  0  0  0  0  0
  -24.9432  -11.2285   20.2084 C   0  0  0  0  0  0  0  0  0  0  0  0
  -26.1230  -12.6493   19.0149 C   0  0  0  0  0  0  0  0  0  0  0  0
  -24.1507  -11.7003   17.8075 C   0  0  0  0  0  0  0  0  0  0  0  0
  -23.9658  -31.7864   24.5927 C   0  0  0  0  0  0  0  0  0  0  0  0
  -26.2122  -25.4718   19.3615 C   0  0  0  0  0  0  0  0  0  0  0  0
  -21.0071  -32.4258   23.4268 C   0  0  0  0  0  0  0  0  0  0  0  0
  -27.4285  -23.2610   19.0655 C   0  0  0  0  0  0  0  0  0  0  0  0
  -18.6972  -31.9404   20.9619 C   0  0  0  0  0  0  0  0  0  0  0  0
  -29.2956  -16.3451   21.7128 C   0  0  0  0  0  0  0  0  0  0  0  0
  -27.1410  -33.8039   28.0431 C   0  0  0  0  0  0  0  0  0  0  0  0
  -24.4979  -32.5017   22.2345 C   0  0  0  0  0  0  0  0  0  0  0  0
  -22.2772  -30.5506   22.3150 C   0  0  0  0  0  0  0  0  0  0  0  0
  -25.6304  -33.7944   27.8236 C   0  0  0  0  0  0  0  0  0  0  0  0
  -29.7892  -12.9069   22.4955 C   0  0  0  0  0  0  0  0  0  0  0  0
  -25.1367  -32.3735   27.5704 C   0  0  0  0  0  0  0  0  0  0  0  0
  -28.5782  -12.2144   21.8662 C   0  0  0  0  0  0  0  0  0  0  0  0
  -29.4236  -14.2716   23.0765 C   0  0  0  0  0  0  0  0  0  0  0  0
  -27.5283  -14.4866   21.5174 C   0  0  0  0  0  0  0  0  0  0  0  0
  -25.7718  -31.7863   26.3042 C   0  0  1  0  0  0  0  0  0  0  0  0
  -23.4729  -32.4978   23.3645 C   0  0  1  0  0  0  0  0  0  0  0  0
  -27.8608  -13.1367   20.8611 C   0  0  2  0  0  0  0  0  0  0  0  0
  -16.3570  -32.5640   20.3047 C   0  0  0  0  0  0  0  0  0  0  0  0
  -19.9078  -30.4596   25.4849 C   0  0  0  0  0  0  0  0  0  0  0  0
  -17.7691  -30.4019   24.1845 C   0  0  0  0  0  0  0  0  0  0  0  0
  -18.5507  -32.5412   25.2020 C   0  0  0  0  0  0  0  0  0  0  0  0
  -19.6217  -33.2574   18.4780 C   0  0  0  0  0  0  0  0  0  0  0  0
  -27.5439  -24.7661   19.2115 C   0  0  0  0  0  0  0  0  0  0  0  0
  -26.2689  -26.9851   19.4193 C   0  0  0  0  0  0  0  0  0  1  0  0
  -19.7567  -31.6162   23.1815 C   0  0  1  0  0  0  0  0  0  0  0  0
  -17.8315  -32.9168   20.1862 C   0  0  2  0  0  0  0  0  0  0  0  0
  -19.0208  -31.2481   24.5007 C   0  0  0  0  0  0  0  0  0  0  0  0
  -25.9308  -11.6102   21.0227 N   0  0  0  0  0  0  0  0  0  0  0  0
  -26.6314  -12.4740   20.2683 N   0  0  0  0  0  0  0  0  0  0  0  0
  -22.2108  -31.8622   22.9805 N   0  0  0  0  0  0  0  0  0  0  0  0
  -28.7516  -15.0922   22.0665 N   0  0  0  0  0  0  0  0  0  0  0  0
  -26.7043  -13.4832   18.1266 N   0  0  0  0  0  0  0  0  0  0  0  0
  -23.0554  -10.8313   17.9051 N   0  0  0  0  0  0  0  0  0  0  0  0
  -28.1389  -22.5846   20.0485 N   0  0  0  0  0  0  0  0  0  0  0  0
  -28.5888  -17.0206   20.7186 N   0  0  0  0  0  0  0  0  0  0  0  0
  -25.1266  -32.3168   25.1224 N   0  0  0  0  0  0  0  0  0  0  0  0
  -18.9493  -32.3867   22.2419 N   0  0  0  0  0  0  0  0  0  0  0  0
  -18.2030  -32.9050   18.7430 N   0  3  0  0  0  0  0  0  0  0  0  0
  -24.3553  -12.3116   16.7314 O   0  0  0  0  0  0  0  0  0  0  0  0
  -23.3385  -30.8281   25.0286 O   0  0  0  0  0  0  0  0  0  0  0  0
  -25.1495  -24.8570   19.4394 O   0  0  0  0  0  0  0  0  0  0  0  0
  -20.9181  -33.5211   23.9870 O   0  0  0  0  0  0  0  0  0  0  0  0
  -26.7410  -22.7775   18.1700 O   0  0  0  0  0  0  0  0  0  0  0  0
  -19.1056  -30.8853   20.4816 O   0  0  0  0  0  0  0  0  0  0  0  0
  -30.3288  -16.7741   22.2329 O   0  0  0  0  0  0  0  0  0  0  0  0
  -21.1112   -7.5582   21.9724 O   0  0  0  0  0  0  0  0  0  0  0  0
  -24.9587  -27.5358   19.5477 O   0  0  0  0  0  0  0  0  0  1  0  0
  -22.8836   -3.0985   24.6878 F   0  0  0  0  0  0  0  0  0  0  0  0
  -29.6258  -21.4850   22.1335 F   0  0  0  0  0  0  0  0  0  0  0  0
  -27.1035  -18.1217   18.6321 F   0  0  0  0  0  0  0  0  0  0  0  0
  -22.5294   -7.8053   24.3326 F   0  0  0  0  0  0  0  0  0  0  0  0
  1  2  1  0  0  0  0
  1  5  2  0  0  0  0
  2  6  2  0  0  0  0
  3  8  2  0  0  0  0
  3 17  1  0  0  0  0
  4  9  1  0  0  0  0
  4 17  2  0  0  0  0
  5 19  1  0  0  0  0
  6 21  1  0  0  0  0
  7 10  2  0  0  0  0
  7 20  1  0  0  0  0
  8 25  1  0  0  0  0
  9 25  2  0  0  0  0
 10 26  1  0  0  0  0
 11 12  2  0  0  0  0
 11 27  1  0  0  0  0
 12 28  1  0  0  0  0
 13 22  1  0  0  0  0
 13 26  2  0  0  0  0
 14 23  1  0  0  0  0
 14 30  2  0  0  0  0
 15 24  2  0  0  0  0
 15 29  1  0  0  0  0
 16 28  2  0  0  0  0
 16 31  1  0  0  0  0
 17 32  1  0  0  0  0
 18 32  1  0  0  0  0
 18 33  2  0  0  0  0
 18 34  1  0  0  0  0
 19 21  2  0  0  0  0
 19 41  1  0  0  0  0
 20 22  2  0  0  0  0
 20 42  1  0  0  0  0
 21 50  1  0  0  0  0
 22 43  1  0  0  0  0
 23 29  2  0  0  0  0
 23 69  1  0  0  0  0
 24 30  1  0  0  0  0
 24 70  1  0  0  0  0
 25 81  1  0  0  0  0
 26 82  1  0  0  0  0
 27 31  2  0  0  0  0
 27 81  1  0  0  0  0
 28 83  1  0  0  0  0
 29 84  1  0  0  0  0
 30 85  1  0  0  0  0
 31 86  1  0  0  0  0
 32 63  2  0  0  0  0
 33 64  1  0  0  0  0
 33 67  1  0  0  0  0
 34 68  1  0  0  0  0
 34 74  2  0  0  0  0
 35 51  1  0  0  0  0
 35 71  1  0  0  0  0
 35 75  2  0  0  0  0
 36 58  1  0  0  0  0
 36 59  1  0  0  0  0
 36 76  2  0  0  0  0
 37 60  1  0  0  0  0
 37 65  1  0  0  0  0
 37 77  2  0  0  0  0
 38 58  1  0  0  0  0
 38 69  1  0  0  0  0
 38 78  2  0  0  0  0
 39 61  1  0  0  0  0
 39 72  1  0  0  0  0
 39 79  2  0  0  0  0
 40 66  1  0  0  0  0
 40 70  1  0  0  0  0
 40 80  2  0  0  0  0
 41 44  1  0  0  0  0
 42 51  1  0  0  0  0
 43 65  1  0  0  0  0
 44 46  1  0  0  0  0
 45 47  1  0  0  0  0
 45 48  1  0  0  0  0
 46 50  1  0  0  0  0
 47 52  1  0  0  0  0
 48 66  1  0  0  0  0
 49 52  1  0  0  0  0
 49 66  1  0  0  0  0
 50 71  1  0  0  0  0
 51 65  1  0  0  0  0
 52 64  1  0  0  0  0
 53 61  1  0  0  0  0
 54 62  1  0  0  0  0
 55 62  1  0  0  0  0
 56 62  1  0  0  0  0
 57 73  1  0  0  0  0
 59 82  1  0  0  0  0
 60 62  1  0  0  0  0
 60 72  1  0  0  0  0
 61 73  1  0  0  0  0
 63 64  1  0  0  0  0
M  CHG  1  73   1
M  ISO  4  40 100  59 101  70 100  82 101
M  END
> <Batch ID>
0174

> <Smiles>
CNC(C)C(=O)NC(C(=O)N1Cc2cc([101O:1][101CH2:1]C(=O)CC(=O)Nc3cc(F)c([100NH:0][100C:0](=O)N4CCCC(n5nc(-c6ccc(Oc7ccc(F)cc7F)cc6)c(C(N)=O)c5N)C4)cc3F)ccc2CC1C(=O)NC1CCCc2ccccc21)C(C)(C)C

> <Shape>
0.307

> <Color>
0.079

> <Negative vol penalty>
0.000

$$$$

  -OEChem-04052304333D

 88 96  0     1  0  0  0  0  0999 V2000
  -29.5041  -31.0236   17.8404 C   0  0  0  0  0  0  0  0  0  0  0  0
  -29.1476  -30.0958   18.8137 C   0  0  0  0  0  0  0  0  0  0  0  0
  -23.0719   -9.8730   19.9401 C   0  0  0  0  0  0  0  0  0  0  0  0
  -23.8308   -9.8773   22.2338 C   0  0  0  0  0  0  0  0  0  0  0  0
  -29.0821  -30.8476   16.5233 C   0  0  0  0  0  0  0  0  0  0  0  0
  -28.3677  -28.9919   18.4707 C   0  0  0  0  0  0  0  0  0  0  0  0
  -30.0951  -24.6865   20.5017 C   0  0  0  0  0  0  0  0  0  0  0  0
  -22.3259   -8.7211   20.1891 C   0  0  0  0  0  0  0  0  0  0  0  0
  -23.0847   -8.7254   22.4828 C   0  0  0  0  0  0  0  0  0  0  0  0
  -29.8121  -24.4591   21.8478 C   0  0  0  0  0  0  0  0  0  0  0  0
  -19.3755   -7.9291   21.6386 C   0  0  0  0  0  0  0  0  0  0  0  0
  -18.0688   -7.8855   21.1527 C   0  0  0  0  0  0  0  0  0  0  0  0
  -27.9992  -22.9993   21.2138 C   0  0  0  0  0  0  0  0  0  0  0  0
  -29.8876  -17.4488   23.1451 C   0  0  0  0  0  0  0  0  0  0  0  0
  -31.8622  -18.3460   24.2094 C   0  0  0  0  0  0  0  0  0  0  0  0
  -32.0702  -16.5962   22.5565 C   0  0  0  0  0  0  0  0  0  0  0  0
  -18.6255   -5.9422   19.8297 C   0  0  0  0  0  0  0  0  0  0  0  0
  -23.8245  -10.4511   20.9624 C   0  0  0  0  0  0  0  0  0  0  0  0
  -24.1710  -12.9757   20.8440 C   0  0  0  0  0  0  0  0  0  0  0  0
  -28.3047  -29.7359   16.1620 C   0  0  0  0  0  0  0  0  0  0  0  0
  -29.3240  -24.0796   19.4999 C   0  0  0  0  0  0  0  0  0  0  0  0
  -27.9337  -28.8015   17.1478 C   0  0  0  0  0  0  0  0  0  0  0  0
  -28.2761  -23.2187   19.8558 C   0  0  0  0  0  0  0  0  0  0  0  0
  -30.4765  -18.3310   24.0509 C   0  0  0  0  0  0  0  0  0  0  0  0
  -30.6845  -16.5813   22.3979 C   0  0  0  0  0  0  0  0  0  0  0  0
  -22.3322   -8.1473   21.4604 C   0  0  0  0  0  0  0  0  0  0  0  0
  -28.7622  -23.6177   22.2041 C   0  0  0  0  0  0  0  0  0  0  0  0
  -20.3073   -6.9793   21.2199 C   0  0  0  0  0  0  0  0  0  0  0  0
  -17.6937   -6.8921   20.2483 C   0  0  0  0  0  0  0  0  0  0  0  0
  -32.6591  -17.4786   23.4622 C   0  0  0  0  0  0  0  0  0  0  0  0
  -19.9323   -5.9858   20.3155 C   0  0  0  0  0  0  0  0  0  0  0  0
  -24.5959  -11.6407   20.7057 C   0  0  0  0  0  0  0  0  0  0  0  0
  -25.2647  -13.7234   20.4816 C   0  0  0  0  0  0  0  0  0  0  0  0
  -22.9013  -13.4936   21.2626 C   0  0  0  0  0  0  0  0  0  0  0  0
  -27.4494  -25.1385   17.1615 C   0  0  0  0  0  0  0  0  0  0  0  0
  -27.3429  -21.9988   16.3530 C   0  0  0  0  0  0  0  0  0  0  0  0
  -28.2813  -19.3229   24.7864 C   0  0  0  0  0  0  0  0  0  0  0  0
  -27.6518  -18.7435   17.3298 C   0  0  0  0  0  0  0  0  0  0  0  0
  -30.7327  -14.7588   20.6594 C   0  0  0  0  0  0  0  0  0  0  0  0
  -27.8325  -29.6131   14.7349 C   0  0  0  0  0  0  0  0  0  0  0  0
  -29.6590  -24.3142   18.0524 C   0  0  0  0  0  0  0  0  0  0  0  0
  -27.4311  -22.5269   18.8185 C   0  0  0  0  0  0  0  0  0  0  0  0
  -27.3228  -28.2187   14.3798 C   0  0  0  0  0  0  0  0  0  0  0  0
  -29.6150  -12.3484   18.2893 C   0  0  0  0  0  0  0  0  0  0  0  0
  -26.3838  -27.7012   15.4648 C   0  0  0  0  0  0  0  0  0  0  0  0
  -28.1746  -12.0592   18.7180 C   0  0  0  0  0  0  0  0  0  0  0  0
  -30.5299  -12.5748   19.4914 C   0  0  0  0  0  0  0  0  0  0  0  0
  -28.6237  -13.3020   20.8722 C   0  0  0  0  0  0  0  0  0  0  0  0
  -27.1096  -27.5781   16.8099 C   0  0  1  0  0  0  0  0  0  0  0  0
  -28.4836  -24.0495   17.1166 C   0  0  1  0  0  0  0  0  0  0  0  0
  -27.6511  -13.1312   19.6939 C   0  0  2  0  0  0  0  0  0  0  0  0
  -27.6908  -18.7262   27.6820 C   0  0  0  0  0  0  0  0  0  0  0  0
  -27.4694  -16.3985   16.4549 C   0  0  0  0  0  0  0  0  0  0  0  0
  -24.3000  -22.2144   16.4167 C   0  0  0  0  0  0  0  0  0  0  0  0
  -24.1939  -19.7139   16.4845 C   0  0  0  0  0  0  0  0  0  0  0  0
  -25.2107  -20.8645   14.5186 C   0  0  0  0  0  0  0  0  0  0  0  0
  -30.4890  -18.1692   17.9458 C   0  0  0  0  0  0  0  0  0  0  0  0
  -28.2151  -20.0763   27.2043 C   0  0  0  0  0  0  0  0  0  0  0  0
  -27.9193  -22.1281   23.8552 C   0  0  0  0  0  0  0  0  0  1  0  0
  -26.4589  -20.8305   16.7170 C   0  0  1  0  0  0  0  0  0  0  0  0
  -27.7841  -20.4022   25.7625 C   0  0  1  0  0  0  0  0  0  0  0  0
  -28.3989  -17.5738   16.7147 C   0  0  2  0  0  0  0  0  0  0  0  0
  -25.0553  -20.9202   16.0540 C   0  0  0  0  0  0  0  0  0  0  0  0
  -28.3153  -21.7622   25.2767 C   0  0  0  0  0  0  0  0  0  0  0  0
  -25.8607  -11.5428   20.2879 N   0  0  0  0  0  0  0  0  0  0  0  0
  -26.2401  -12.8257   20.1605 N   0  0  0  0  0  0  0  0  0  0  0  0
  -27.7940  -22.7930   17.4167 N   0  0  0  0  0  0  0  0  0  0  0  0
  -29.9725  -13.6062   20.3691 N   0  0  0  0  0  0  0  0  0  0  0  0
  -25.4776  -15.0545   20.4094 N   0  0  0  0  0  0  0  0  0  0  0  0
  -21.8875  -12.5861   21.5989 N   0  0  0  0  0  0  0  0  0  0  0  0
  -29.6684  -19.2111   24.8094 N   0  0  0  0  0  0  0  0  0  0  0  0
  -30.0867  -15.6846   21.4780 N   0  0  0  0  0  0  0  0  0  0  0  0
  -27.9349  -26.3895   16.8319 N   0  0  0  0  0  0  0  0  0  0  0  0
  -27.2081  -19.6279   16.3695 N   0  0  0  0  0  0  0  0  0  0  0  0
  -29.4885  -17.1193   17.6241 N   0  3  0  0  0  0  0  0  0  0  0  0
  -22.6673  -14.7246   21.3205 O   0  0  0  0  0  0  0  0  0  0  0  0
  -26.2958  -24.8638   17.4707 O   0  0  0  0  0  0  0  0  0  0  0  0
  -27.6287  -22.1952   15.1692 O   0  0  0  0  0  0  0  0  0  0  0  0
  -27.4973  -18.6515   24.1211 O   0  0  0  0  0  0  0  0  0  0  0  0
  -27.4761  -18.8590   18.5407 O   0  0  0  0  0  0  0  0  0  0  0  0
  -31.8623  -14.9257   20.1924 O   0  0  0  0  0  0  0  0  0  0  0  0
  -21.6041   -7.0234   21.7038 O   0  0  0  0  0  0  0  0  0  0  0  0
  -28.4835  -23.3944   23.5172 O   0  0  0  0  0  0  0  0  0  1  0  0
  -16.4384   -6.8494   19.7830 F   0  0  0  0  0  0  0  0  0  0  0  0
  -33.9898  -17.4922   23.6149 F   0  0  0  0  0  0  0  0  0  0  0  0
  -20.8227   -5.0698   19.9106 F   0  0  0  0  0  0  0  0  0  0  0  0
  -29.6755  -21.7587   25.3440 F   0  0  0  0  0  0  0  0  0  0  0  0
  -27.8894  -22.7421   26.1170 F   0  0  0  0  0  0  0  0  0  0  0  0
  1  2  1  0  0  0  0
  1  5  2  0  0  0  0
  2  6  2  0  0  0  0
  3  8  2  0  0  0  0
  3 18  1  0  0  0  0
  4  9  1  0  0  0  0
  4 18  2  0  0  0  0
  5 20  1  0  0  0  0
  6 22  1  0  0  0  0
  7 10  2  0  0  0  0
  7 21  1  0  0  0  0
  8 26  1  0  0  0  0
  9 26  2  0  0  0  0
 10 27  1  0  0  0  0
 11 12  2  0  0  0  0
 11 28  1  0  0  0  0
 12 29  1  0  0  0  0
 13 23  1  0  0  0  0
 13 27  2  0  0  0  0
 14 24  2  0  0  0  0
 14 25  1  0  0  0  0
 15 24  1  0  0  0  0
 15 30  2  0  0  0  0
 16 25  2  0  0  0  0
 16 30  1  0  0  0  0
 17 29  2  0  0  0  0
 17 31  1  0  0  0  0
 18 32  1  0  0  0  0
 19 32  1  0  0  0  0
 19 33  2  0  0  0  0
 19 34  1  0  0  0  0
 20 22  2  0  0  0  0
 20 40  1  0  0  0  0
 21 23  2  0  0  0  0
 21 41  1  0  0  0  0
 22 49  1  0  0  0  0
 23 42  1  0  0  0  0
 24 71  1  0  0  0  0
 25 72  1  0  0  0  0
 26 82  1  0  0  0  0
 27 83  1  0  0  0  0
 28 31  2  0  0  0  0
 28 82  1  0  0  0  0
 29 84  1  0  0  0  0
 30 85  1  0  0  0  0
 31 86  1  0  0  0  0
 32 65  2  0  0  0  0
 33 66  1  0  0  0  0
 33 69  1  0  0  0  0
 34 70  1  0  0  0  0
 34 76  2  0  0  0  0
 35 50  1  0  0  0  0
 35 73  1  0  0  0  0
 35 77  2  0  0  0  0
 36 60  1  0  0  0  0
 36 67  1  0  0  0  0
 36 78  2  0  0  0  0
 37 61  1  0  0  0  0
 37 71  1  0  0  0  0
 37 79  2  0  0  0  0
 38 62  1  0  0  0  0
 38 74  1  0  0  0  0
 38 80  2  0  0  0  0
 39 68  1  0  0  0  0
 39 72  1  0  0  0  0
 39 81  2  0  0  0  0
 40 43  1  0  0  0  0
 41 50  1  0  0  0  0
 42 67  1  0  0  0  0
 43 45  1  0  0  0  0
 44 46  1  0  0  0  0
 44 47  1  0  0  0  0
 45 49  1  0  0  0  0
 46 51  1  0  0  0  0
 47 68  1  0  0  0  0
 48 51  1  0  0  0  0
 48 68  1  0  0  0  0
 49 73  1  0  0  0  0
 50 67  1  0  0  0  0
 51 66  1  0  0  0  0
 52 58  1  0  0  0  0
 53 62  1  0  0  0  0
 54 63  1  0  0  0  0
 55 63  1  0  0  0  0
 56 63  1  0  0  0  0
 57 75  1  0  0  0  0
 58 61  1  0  0  0  0
 59 64  1  0  0  0  0
 59 83  1  0  0  0  0
 60 63  1  0  0  0  0
 60 74  1  0  0  0  0
 61 64  1  0  0  0  0
 62 75  1  0  0  0  0
 64 87  1  0  0  0  0
 64 88  1  0  0  0  0
 65 66  1  0  0  0  0
M  CHG  1  75   1
M  ISO  4  39 100  59 101  72 100  83 101
M  END
> <Batch ID>
0174

> <Smiles>
CCC(C(=O)Nc1cc(F)cc([100NH:0][100C:0](=O)N2CCCC(n3nc(-c4ccc(Oc5ccc(F)cc5F)cc4)c(C(N)=O)c3N)C2)c1)C(F)(F)[101CH2:1][101O:1]c1ccc2c(c1)CN(C(=O)C(NC(=O)C(C)NC)C(C)(C)C)C(C(=O)NC1CCCc3ccccc31)C2

> <Shape>
0.195

> <Color>
0.187

> <Negative vol penalty>
0.000

$$$$

  -OEChem-04052304333D

 84 92  0     1  0  0  0  0  0999 V2000
  -17.7676  -24.4377   22.2602 C   0  0  0  0  0  0  0  0  0  0  0  0
  -19.0087  -24.3624   21.6361 C   0  0  0  0  0  0  0  0  0  0  0  0
  -25.9565  -13.1860   21.4856 C   0  0  0  0  0  0  0  0  0  0  0  0
  -26.2220  -13.4107   19.0948 C   0  0  0  0  0  0  0  0  0  0  0  0
  -17.4044  -25.5936   22.9500 C   0  0  0  0  0  0  0  0  0  0  0  0
  -19.8869  -25.4436   21.7005 C   0  0  0  0  0  0  0  0  0  0  0  0
  -25.9994  -25.2090   21.9971 C   0  0  0  0  0  0  0  0  0  0  0  0
  -24.8242  -12.3964   21.2857 C   0  0  0  0  0  0  0  0  0  0  0  0
  -25.0897  -12.6210   18.8949 C   0  0  0  0  0  0  0  0  0  0  0  0
  -26.9916  -25.3469   21.0273 C   0  0  0  0  0  0  0  0  0  0  0  0
  -24.1373   -9.1915   20.4556 C   0  0  0  0  0  0  0  0  0  0  0  0
  -24.0170   -8.0269   21.2138 C   0  0  0  0  0  0  0  0  0  0  0  0
  -27.2339  -27.6740   21.6147 C   0  0  0  0  0  0  0  0  0  0  0  0
  -21.9534   -8.8552   22.1586 C   0  0  0  0  0  0  0  0  0  0  0  0
  -29.7393  -21.4779   14.6165 C   0  0  0  0  0  0  0  0  0  0  0  0
  -26.6554  -13.6932   20.3901 C   0  0  0  0  0  0  0  0  0  0  0  0
  -29.1587  -14.0721   20.7028 C   0  0  0  0  0  0  0  0  0  0  0  0
  -18.2825  -26.6859   23.0310 C   0  0  0  0  0  0  0  0  0  0  0  0
  -25.6088  -26.3071   22.7768 C   0  0  0  0  0  0  0  0  0  0  0  0
  -19.5346  -26.6158   22.3908 C   0  0  0  0  0  0  0  0  0  0  0  0
  -26.2383  -27.5468   22.5955 C   0  0  0  0  0  0  0  0  0  0  0  0
  -24.3908  -12.1139   19.9904 C   0  0  0  0  0  0  0  0  0  0  0  0
  -27.6069  -26.5802   20.8340 C   0  0  0  0  0  0  0  0  0  0  0  0
  -23.1656  -10.1880   20.5489 C   0  0  0  0  0  0  0  0  0  0  0  0
  -22.9251   -7.8587   22.0653 C   0  0  0  0  0  0  0  0  0  0  0  0
  -22.0737  -10.0198   21.4004 C   0  0  0  0  0  0  0  0  0  0  0  0
  -27.8248  -14.5094   20.5960 C   0  0  0  0  0  0  0  0  0  0  0  0
  -29.8814  -22.5618   15.4574 C   0  0  0  0  0  0  0  0  0  0  0  0
  -29.8835  -15.2235   20.8906 C   0  0  0  0  0  0  0  0  0  0  0  0
  -29.3043  -21.0609   16.9487 C   0  0  0  0  0  0  0  0  0  0  0  0
  -29.6946  -12.7438   20.6380 C   0  0  0  0  0  0  0  0  0  0  0  0
  -30.2761  -23.9255   14.9959 C   0  0  0  0  0  0  0  0  0  0  0  0
  -22.9000  -27.9201   23.1820 C   0  0  0  0  0  0  0  0  0  0  0  0
  -29.0827  -26.5622   17.5281 C   0  0  0  0  0  0  0  0  0  0  0  0
  -24.6017  -29.4323   25.4928 C   0  0  0  0  0  0  0  0  0  0  0  0
  -27.6552  -30.3407   26.7167 C   0  0  0  0  0  0  0  0  0  0  0  0
  -28.9182  -20.9380   19.4352 C   0  0  0  0  0  0  0  0  0  0  0  0
  -17.8268  -27.9321   23.7479 C   0  0  0  0  0  0  0  0  0  0  0  0
  -24.5557  -26.1354   23.8370 C   0  0  0  0  0  0  0  0  0  0  0  0
  -25.8695  -28.7518   23.4204 C   0  0  0  0  0  0  0  0  0  0  0  0
  -18.9653  -28.8912   24.0859 C   0  0  0  0  0  0  0  0  0  0  0  0
  -29.4944  -19.6403   22.7003 C   0  0  0  0  0  0  0  0  0  0  0  0
  -19.8774  -29.0837   22.8785 C   0  0  0  0  0  0  0  0  0  0  0  0
  -29.2590  -18.1367   22.5396 C   0  0  0  0  0  0  0  0  0  0  0  0
  -28.5317  -20.4599   21.8429 C   0  0  0  0  0  0  0  0  0  0  0  0
  -28.2663  -18.5907   20.2602 C   0  0  0  0  0  0  0  0  0  0  0  0
  -20.5246  -27.7583   22.4592 C   0  0  1  0  0  0  0  0  0  0  0  0
  -23.8757  -27.4458   24.2215 C   0  0  1  0  0  0  0  0  0  0  0  0
  -29.2552  -17.7224   21.0550 C   0  0  2  0  0  0  0  0  0  0  0  0
  -28.7251  -31.6048   28.6021 C   0  0  0  0  0  0  0  0  0  0  0  0
  -23.8357  -32.0669   24.1579 C   0  0  0  0  0  0  0  0  0  0  0  0
  -25.6566  -33.1795   25.4674 C   0  0  0  0  0  0  0  0  0  0  0  0
  -23.7483  -32.0996   26.6571 C   0  0  0  0  0  0  0  0  0  0  0  0
  -29.0842  -27.9324   27.6743 C   0  0  0  0  0  0  0  0  0  0  0  0
  -30.3983  -25.0389   16.0269 C   0  0  0  0  0  0  0  0  0  0  0  0
  -28.4861  -25.8743   18.7400 C   0  0  0  0  0  0  0  0  0  1  0  0
  -29.0834  -25.7855   16.2263 C   0  0  2  0  0  0  0  0  0  0  0  0
  -25.4929  -30.6498   25.5405 C   0  0  1  0  0  0  0  0  0  0  0  0
  -28.2507  -30.2463   28.1099 C   0  0  2  0  0  0  0  0  0  0  0  0
  -24.6892  -31.9769   25.4387 C   0  0  0  0  0  0  0  0  0  0  0  0
  -27.7064  -15.8352   20.7069 N   0  0  0  0  0  0  0  0  0  0  0  0
  -29.6320  -22.3247   16.7951 N   0  0  0  0  0  0  0  0  0  0  0  0
  -28.9751  -16.2409   20.8855 N   0  0  0  0  0  0  0  0  0  0  0  0
  -24.8299  -28.5349   24.4400 N   0  0  0  0  0  0  0  0  0  0  0  0
  -28.5854  -20.0146   20.4487 N   0  0  0  0  0  0  0  0  0  0  0  0
  -31.2029  -15.4549   21.0581 N   0  0  0  0  0  0  0  0  0  0  0  0
  -28.8096  -11.6752   20.4400 N   0  0  0  0  0  0  0  0  0  0  0  0
  -28.9701  -20.3927   18.1528 N   0  0  0  0  0  0  0  0  0  0  0  0
  -21.6194  -27.4276   23.3461 N   0  0  0  0  0  0  0  0  0  0  0  0
  -26.2893  -30.5254   26.7565 N   0  0  0  0  0  0  0  0  0  0  0  0
  -29.4123  -29.3128   28.1145 N   0  3  0  0  0  0  0  0  0  0  0  0
  -30.9200  -12.5099   20.7685 O   0  0  0  0  0  0  0  0  0  0  0  0
  -30.4958  -24.1136   13.8016 O   0  0  0  0  0  0  0  0  0  0  0  0
  -23.2804  -28.6782   22.2975 O   0  0  0  0  0  0  0  0  0  0  0  0
  -29.5401  -27.7037   17.5844 O   0  0  0  0  0  0  0  0  0  0  0  0
  -23.7397  -29.2794   26.3619 O   0  0  0  0  0  0  0  0  0  0  0  0
  -28.3343  -30.2624   25.6953 O   0  0  0  0  0  0  0  0  0  0  0  0
  -29.1674  -22.1192   19.6897 O   0  0  0  0  0  0  0  0  0  0  0  0
  -23.2861  -11.3432   19.7949 O   0  0  0  0  0  0  0  0  0  0  0  0
  -28.5751  -26.7177   19.8877 O   0  0  0  0  0  0  0  0  0  1  0  0
  -22.8089   -6.7396   22.7921 F   0  0  0  0  0  0  0  0  0  0  0  0
  -21.1365  -10.9731   21.4934 F   0  0  0  0  0  0  0  0  0  0  0  0
  -28.9196  -26.6399   15.1743 F   0  0  0  0  0  0  0  0  0  0  0  0
  -29.2767  -20.1002   15.5270 S   0  0  0  0  0  0  0  0  0  0  0  0
  1  2  1  0  0  0  0
  1  5  2  0  0  0  0
  2  6  2  0  0  0  0
  3  8  2  0  0  0  0
  3 16  1  0  0  0  0
  4  9  1  0  0  0  0
  4 16  2  0  0  0  0
  5 18  1  0  0  0  0
  6 20  1  0  0  0  0
  7 10  2  0  0  0  0
  7 19  1  0  0  0  0
  8 22  1  0  0  0  0
  9 22  2  0  0  0  0
 10 23  1  0  0  0  0
 11 12  2  0  0  0  0
 11 24  1  0  0  0  0
 12 25  1  0  0  0  0
 13 21  1  0  0  0  0
 13 23  2  0  0  0  0
 14 25  2  0  0  0  0
 14 26  1  0  0  0  0
 15 28  2  0  0  0  0
 15 84  1  0  0  0  0
 16 27  1  0  0  0  0
 17 27  1  0  0  0  0
 17 29  2  0  0  0  0
 17 31  1  0  0  0  0
 18 20  2  0  0  0  0
 18 38  1  0  0  0  0
 19 21  2  0  0  0  0
 19 39  1  0  0  0  0
 20 47  1  0  0  0  0
 21 40  1  0  0  0  0
 22 79  1  0  0  0  0
 23 80  1  0  0  0  0
 24 26  2  0  0  0  0
 24 79  1  0  0  0  0
 25 81  1  0  0  0  0
 26 82  1  0  0  0  0
 27 61  2  0  0  0  0
 28 32  1  0  0  0  0
 28 62  1  0  0  0  0
 29 63  1  0  0  0  0
 29 66  1  0  0  0  0
 30 62  2  0  0  0  0
 30 68  1  0  0  0  0
 30 84  1  0  0  0  0
 31 67  1  0  0  0  0
 31 72  2  0  0  0  0
 32 55  1  0  0  0  0
 32 73  2  0  0  0  0
 33 48  1  0  0  0  0
 33 69  1  0  0  0  0
 33 74  2  0  0  0  0
 34 56  1  0  0  0  0
 34 57  1  0  0  0  0
 34 75  2  0  0  0  0
 35 58  1  0  0  0  0
 35 64  1  0  0  0  0
 35 76  2  0  0  0  0
 36 59  1  0  0  0  0
 36 70  1  0  0  0  0
 36 77  2  0  0  0  0
 37 65  1  0  0  0  0
 37 68  1  0  0  0  0
 37 78  2  0  0  0  0
 38 41  1  0  0  0  0
 39 48  1  0  0  0  0
 40 64  1  0  0  0  0
 41 43  1  0  0  0  0
 42 44  1  0  0  0  0
 42 45  1  0  0  0  0
 43 47  1  0  0  0  0
 44 49  1  0  0  0  0
 45 65  1  0  0  0  0
 46 49  1  0  0  0  0
 46 65  1  0  0  0  0
 47 69  1  0  0  0  0
 48 64  1  0  0  0  0
 49 63  1  0  0  0  0
 50 59  1  0  0  0  0
 51 60  1  0  0  0  0
 52 60  1  0  0  0  0
 53 60  1  0  0  0  0
 54 71  1  0  0  0  0
 55 57  1  0  0  0  0
 56 80  1  0  0  0  0
 57 83  1  0  0  0  0
 58 60  1  0  0  0  0
 58 70  1  0  0  0  0
 59 71  1  0  0  0  0
 61 63  1  0  0  0  0
M  CHG  1  71   1
M  ISO  4  37 100  56 101  68 100  80 101
M  END
> <Batch ID>
0174

> <Smiles>
CNC(C)C(=O)NC(C(=O)N1Cc2cc([101O:1][101CH2:1]C(=O)C(F)CC(=O)c3csc([100NH:0][100C:0](=O)N4CCCC(n5nc(-c6ccc(Oc7ccc(F)cc7F)cc6)c(C(N)=O)c5N)C4)n3)ccc2CC1C(=O)NC1CCCc2ccccc21)C(C)(C)C

> <Shape>
0.286

> <Color>
0.078

> <Negative vol penalty>
0.000

$$$$

  -OEChem-04052304333D

 88 96  0     1  0  0  0  0  0999 V2000
  -26.2551  -22.3993   18.6376 C   0  0  0  0  0  0  0  0  0  0  0  0
  -25.1492  -23.0749   19.1436 C   0  0  0  0  0  0  0  0  0  0  0  0
  -23.8816   -9.8879   22.0885 C   0  0  0  0  0  0  0  0  0  0  0  0
  -22.2607  -10.3722   20.3637 C   0  0  0  0  0  0  0  0  0  0  0  0
  -27.5267  -22.6711   19.1407 C   0  0  0  0  0  0  0  0  0  0  0  0
  -25.3141  -24.0219   20.1537 C   0  0  0  0  0  0  0  0  0  0  0  0
  -22.6661  -28.2534   19.3008 C   0  0  0  0  0  0  0  0  0  0  0  0
  -23.4832   -8.5512   22.0876 C   0  0  0  0  0  0  0  0  0  0  0  0
  -21.8623   -9.0355   20.3627 C   0  0  0  0  0  0  0  0  0  0  0  0
  -21.2988  -28.2142   19.5708 C   0  0  0  0  0  0  0  0  0  0  0  0
  -20.9385   -6.7101   23.3364 C   0  0  0  0  0  0  0  0  0  0  0  0
  -20.7409   -6.0927   24.5714 C   0  0  0  0  0  0  0  0  0  0  0  0
  -21.6890  -29.3237   21.6769 C   0  0  0  0  0  0  0  0  0  0  0  0
  -18.3438  -19.3809   21.6736 C   0  0  0  0  0  0  0  0  0  0  0  0
  -22.4447   -4.4671   24.0313 C   0  0  0  0  0  0  0  0  0  0  0  0
  -18.3373  -17.8331   20.0383 C   0  0  0  0  0  0  0  0  0  0  0  0
  -23.2703  -10.7985   21.2266 C   0  0  0  0  0  0  0  0  0  0  0  0
  -24.6915  -12.7665   20.4425 C   0  0  0  0  0  0  0  0  0  0  0  0
  -27.7085  -23.6289   20.1508 C   0  0  0  0  0  0  0  0  0  0  0  0
  -23.5578  -28.8192   20.2234 C   0  0  0  0  0  0  0  0  0  0  0  0
  -26.5892  -24.3058   20.6717 C   0  0  0  0  0  0  0  0  0  0  0  0
  -23.0668  -29.3712   21.4152 C   0  0  0  0  0  0  0  0  0  0  0  0
  -18.9149  -18.1569   21.2461 C   0  0  0  0  0  0  0  0  0  0  0  0
  -22.4736   -8.1249   21.2247 C   0  0  0  0  0  0  0  0  0  0  0  0
  -20.8104  -28.7468   20.7602 C   0  0  0  0  0  0  0  0  0  0  0  0
  -21.8892   -6.2060   22.4487 C   0  0  0  0  0  0  0  0  0  0  0  0
  -21.4940   -4.9712   24.9189 C   0  0  0  0  0  0  0  0  0  0  0  0
  -22.6423   -5.0845   22.7962 C   0  0  0  0  0  0  0  0  0  0  0  0
  -23.6811  -12.1796   21.2275 C   0  0  0  0  0  0  0  0  0  0  0  0
  -17.4344  -19.7677   20.7140 C   0  0  0  0  0  0  0  0  0  0  0  0
  -24.6903  -14.0888   20.8138 C   0  0  0  0  0  0  0  0  0  0  0  0
  -25.5541  -12.1697   19.4650 C   0  0  0  0  0  0  0  0  0  0  0  0
  -16.5790  -20.9888   20.7116 C   0  0  0  0  0  0  0  0  0  0  0  0
  -26.0149  -27.7345   21.9234 C   0  0  0  0  0  0  0  0  0  0  0  0
  -16.6105  -23.5617   20.8400 C   0  0  0  0  0  0  0  0  0  0  0  0
  -17.5577  -27.2713   21.3648 C   0  0  0  0  0  0  0  0  0  0  0  0
  -26.3358  -30.8605   22.7282 C   0  0  0  0  0  0  0  0  0  0  0  0
  -24.8779  -33.9261   23.0795 C   0  0  0  0  0  0  0  0  0  0  0  0
  -20.5106  -17.6733   23.1346 C   0  0  0  0  0  0  0  0  0  0  0  0
  -29.0965  -23.8545   20.6959 C   0  0  0  0  0  0  0  0  0  0  0  0
  -25.0267  -28.8778   19.9053 C   0  0  0  0  0  0  0  0  0  0  0  0
  -23.9800  -30.0082   22.4294 C   0  0  0  0  0  0  0  0  0  0  0  0
  -29.2314  -25.1422   21.5046 C   0  0  0  0  0  0  0  0  0  0  0  0
  -23.6979  -16.9318   24.5377 C   0  0  0  0  0  0  0  0  0  0  0  0
  -28.0729  -25.2792   22.4874 C   0  0  0  0  0  0  0  0  0  0  0  0
  -24.1499  -15.6860   23.7723 C   0  0  0  0  0  0  0  0  0  0  0  0
  -22.1931  -16.9206   24.8012 C   0  0  0  0  0  0  0  0  0  0  0  0
  -21.8081  -15.4713   22.8466 C   0  0  0  0  0  0  0  0  0  0  0  0
  -26.7305  -25.3578   21.7503 C   0  0  1  0  0  0  0  0  0  0  0  0
  -25.9020  -29.0161   21.1472 C   0  0  1  0  0  0  0  0  0  0  0  0
  -23.3062  -15.4686   22.5010 C   0  0  2  0  0  0  0  0  0  0  0  0
  -25.3846  -36.2784   23.7920 C   0  0  0  0  0  0  0  0  0  0  0  0
  -26.2811  -29.9844   25.6504 C   0  0  0  0  0  0  0  0  0  0  0  0
  -25.8331  -32.3650   26.2832 C   0  0  0  0  0  0  0  0  0  0  0  0
  -27.9592  -31.7630   25.1257 C   0  0  0  0  0  0  0  0  0  0  0  0
  -16.6267  -18.8402   18.5280 C   0  0  0  0  0  0  0  0  0  0  0  0
  -24.2046  -35.0042   20.4068 C   0  0  0  0  0  0  0  0  0  0  0  0
  -17.0938  -22.2365   21.4044 C   0  0  0  0  0  0  0  0  0  0  0  0
  -17.1299  -24.8049   21.5521 C   0  0  0  0  0  0  0  0  0  0  0  0
  -18.7342  -27.6228   20.4741 C   0  0  0  0  0  0  0  0  0  1  0  0
  -16.6859  -26.1145   20.9048 C   0  0  1  0  0  0  0  0  0  0  0  0
  -25.7913  -31.7434   23.8250 C   0  0  1  0  0  0  0  0  0  0  0  0
  -25.3140  -35.3070   22.6240 C   0  0  2  0  0  0  0  0  0  0  0  0
  -26.4489  -31.4503   25.2030 C   0  0  0  0  0  0  0  0  0  0  0  0
  -23.0816  -13.0571   22.0366 N   0  0  0  0  0  0  0  0  0  0  0  0
  -17.4387  -18.8192   19.7248 N   0  0  0  0  0  0  0  0  0  0  0  0
  -23.7173  -14.2088   21.7620 N   0  0  0  0  0  0  0  0  0  0  0  0
  -25.4088  -30.0355   22.0755 N   0  0  0  0  0  0  0  0  0  0  0  0
  -21.4583  -16.7146   23.5512 N   0  0  0  0  0  0  0  0  0  0  0  0
  -25.4267  -15.1490   20.4185 N   0  0  0  0  0  0  0  0  0  0  0  0
  -25.4219  -10.7988   19.2053 N   0  0  0  0  0  0  0  0  0  0  0  0
  -19.8986  -17.3868   21.9148 N   0  0  0  0  0  0  0  0  0  0  0  0
  -26.5347  -26.6805   21.1965 N   0  0  0  0  0  0  0  0  0  0  0  0
  -25.9579  -33.1174   23.3636 N   0  0  0  0  0  0  0  0  0  0  0  0
  -15.2613  -26.3759   21.2658 N   0  3  0  0  0  0  0  0  0  0  0  0
  -24.3548  -35.8482   21.6200 N   0  3  0  0  0  0  0  0  0  0  0  0
  -26.4277  -12.8292   18.8522 O   0  0  0  0  0  0  0  0  0  0  0  0
  -15.4974  -20.9568   20.1300 O   0  0  0  0  0  0  0  0  0  0  0  0
  -25.6583  -27.7046   23.0954 O   0  0  0  0  0  0  0  0  0  0  0  0
  -15.8252  -23.6268   19.8960 O   0  0  0  0  0  0  0  0  0  0  0  0
  -17.3302  -27.8835   22.4083 O   0  0  0  0  0  0  0  0  0  0  0  0
  -27.5379  -30.9065   22.4555 O   0  0  0  0  0  0  0  0  0  0  0  0
  -23.6973  -33.5990   23.1773 O   0  0  0  0  0  0  0  0  0  0  0  0
  -20.2801  -18.6884   23.7968 O   0  0  0  0  0  0  0  0  0  0  0  0
  -22.0848   -6.8206   21.2233 O   0  0  0  0  0  0  0  0  0  0  0  0
  -19.4764  -28.7092   21.0265 O   0  0  0  0  0  0  0  0  0  1  0  0
  -21.3052   -4.3793   26.1056 F   0  0  0  0  0  0  0  0  0  0  0  0
  -23.5579   -4.5964   21.9482 F   0  0  0  0  0  0  0  0  0  0  0  0
  1  2  1  0  0  0  0
  1  5  2  0  0  0  0
  2  6  2  0  0  0  0
  3  8  2  0  0  0  0
  3 17  1  0  0  0  0
  4  9  1  0  0  0  0
  4 17  2  0  0  0  0
  5 19  1  0  0  0  0
  6 21  1  0  0  0  0
  7 10  2  0  0  0  0
  7 20  1  0  0  0  0
  8 24  1  0  0  0  0
  9 24  2  0  0  0  0
 10 25  1  0  0  0  0
 11 12  2  0  0  0  0
 11 26  1  0  0  0  0
 12 27  1  0  0  0  0
 13 22  1  0  0  0  0
 13 25  2  0  0  0  0
 14 23  1  0  0  0  0
 14 30  2  0  0  0  0
 15 27  2  0  0  0  0
 15 28  1  0  0  0  0
 16 23  2  0  0  0  0
 16 66  1  0  0  0  0
 17 29  1  0  0  0  0
 18 29  1  0  0  0  0
 18 31  2  0  0  0  0
 18 32  1  0  0  0  0
 19 21  2  0  0  0  0
 19 40  1  0  0  0  0
 20 22  2  0  0  0  0
 20 41  1  0  0  0  0
 21 49  1  0  0  0  0
 22 42  1  0  0  0  0
 23 72  1  0  0  0  0
 24 85  1  0  0  0  0
 25 86  1  0  0  0  0
 26 28  2  0  0  0  0
 26 85  1  0  0  0  0
 27 87  1  0  0  0  0
 28 88  1  0  0  0  0
 29 65  2  0  0  0  0
 30 33  1  0  0  0  0
 30 66  1  0  0  0  0
 31 67  1  0  0  0  0
 31 70  1  0  0  0  0
 32 71  1  0  0  0  0
 32 77  2  0  0  0  0
 33 58  1  0  0  0  0
 33 78  2  0  0  0  0
 34 50  1  0  0  0  0
 34 73  1  0  0  0  0
 34 79  2  0  0  0  0
 35 58  1  0  0  0  0
 35 59  1  0  0  0  0
 35 80  2  0  0  0  0
 36 60  1  0  0  0  0
 36 61  1  0  0  0  0
 36 81  2  0  0  0  0
 37 62  1  0  0  0  0
 37 68  1  0  0  0  0
 37 82  2  0  0  0  0
 38 63  1  0  0  0  0
 38 74  1  0  0  0  0
 38 83  2  0  0  0  0
 39 69  1  0  0  0  0
 39 72  1  0  0  0  0
 39 84  2  0  0  0  0
 40 43  1  0  0  0  0
 41 50  1  0  0  0  0
 42 68  1  0  0  0  0
 43 45  1  0  0  0  0
 44 46  1  0  0  0  0
 44 47  1  0  0  0  0
 45 49  1  0  0  0  0
 46 51  1  0  0  0  0
 47 69  1  0  0  0  0
 48 51  1  0  0  0  0
 48 69  1  0  0  0  0
 49 73  1  0  0  0  0
 50 68  1  0  0  0  0
 51 67  1  0  0  0  0
 52 63  1  0  0  0  0
 53 64  1  0  0  0  0
 54 64  1  0  0  0  0
 55 64  1  0  0  0  0
 56 66  1  0  0  0  0
 57 76  1  0  0  0  0
 59 61  1  0  0  0  0
 60 86  1  0  0  0  0
 61 75  1  0  0  0  0
 62 64  1  0  0  0  0
 62 74  1  0  0  0  0
 63 76  1  0  0  0  0
 65 67  1  0  0  0  0
M  CHG  2  75   1  76   1
M  ISO  4  39 100  60 101  72 100  86 101
M  END
> <Batch ID>
0174

> <Smiles>
CNC(C)C(=O)NC(C(=O)N1Cc2cc([101O:1][101CH2:1]C(=O)C(N)CC(=O)CC(=O)c3cc([100NH:0][100C:0](=O)N4CCCC(n5nc(-c6ccc(Oc7ccc(F)cc7F)cc6)c(C(N)=O)c5N)C4)cn3C)ccc2CC1C(=O)NC1CCCc2ccccc21)C(C)(C)C

> <Shape>
0.270

> <Color>
0.119

> <Negative vol penalty>
0.000

$$$$

  -OEChem-04052304333D

 89 97  0     1  0  0  0  0  0999 V2000
  -29.7090  -19.4363   19.1725 C   0  0  0  0  0  0  0  0  0  0  0  0
  -29.5525  -20.1170   20.3757 C   0  0  0  0  0  0  0  0  0  0  0  0
  -27.4272  -12.3682   18.7766 C   0  0  0  0  0  0  0  0  0  0  0  0
  -28.4818  -13.6730   20.5152 C   0  0  0  0  0  0  0  0  0  0  0  0
  -29.7294  -20.1429   17.9707 C   0  0  0  0  0  0  0  0  0  0  0  0
  -29.4173  -21.5048   20.3778 C   0  0  0  0  0  0  0  0  0  0  0  0
  -25.7175  -23.0917   23.4500 C   0  0  0  0  0  0  0  0  0  0  0  0
  -28.6478  -11.7534   18.4976 C   0  0  0  0  0  0  0  0  0  0  0  0
  -29.7023  -13.0581   20.2362 C   0  0  0  0  0  0  0  0  0  0  0  0
  -25.9941  -23.1237   24.8161 C   0  0  0  0  0  0  0  0  0  0  0  0
  -30.5541   -9.2898   19.8128 C   0  0  0  0  0  0  0  0  0  0  0  0
  -30.5579   -7.9061   19.6376 C   0  0  0  0  0  0  0  0  0  0  0  0
  -26.3905  -25.4990   24.6739 C   0  0  0  0  0  0  0  0  0  0  0  0
  -21.4514  -20.1421   24.9955 C   0  0  0  0  0  0  0  0  0  0  0  0
  -20.9789  -17.7886   25.2687 C   0  0  0  0  0  0  0  0  0  0  0  0
  -31.4136   -8.1922   17.3964 C   0  0  0  0  0  0  0  0  0  0  0  0
  -27.3442  -13.3280   19.7854 C   0  0  0  0  0  0  0  0  0  0  0  0
  -24.8914  -13.3395   20.4861 C   0  0  0  0  0  0  0  0  0  0  0  0
  -29.5847  -21.5391   17.9574 C   0  0  0  0  0  0  0  0  0  0  0  0
  -25.7861  -24.2631   22.6822 C   0  0  0  0  0  0  0  0  0  0  0  0
  -29.4371  -22.2309   19.1748 C   0  0  0  0  0  0  0  0  0  0  0  0
  -26.1118  -25.4796   23.2988 C   0  0  0  0  0  0  0  0  0  0  0  0
  -20.8578  -20.4046   26.2301 C   0  0  0  0  0  0  0  0  0  0  0  0
  -21.5119  -18.8341   24.5147 C   0  0  0  0  0  0  0  0  0  0  0  0
  -20.3853  -18.0510   26.5034 C   0  0  0  0  0  0  0  0  0  0  0  0
  -29.7853  -12.0983   19.2274 C   0  0  0  0  0  0  0  0  0  0  0  0
  -26.3334  -24.3270   25.4277 C   0  0  0  0  0  0  0  0  0  0  0  0
  -30.9800  -10.1249   18.7798 C   0  0  0  0  0  0  0  0  0  0  0  0
  -30.9876   -7.3573   18.4294 C   0  0  0  0  0  0  0  0  0  0  0  0
  -31.4098   -9.5760   17.5716 C   0  0  0  0  0  0  0  0  0  0  0  0
  -20.3248  -19.3591   26.9841 C   0  0  0  0  0  0  0  0  0  0  0  0
  -26.0838  -13.9638   20.0737 C   0  0  0  0  0  0  0  0  0  0  0  0
  -23.9944  -14.3703   20.6255 C   0  0  0  0  0  0  0  0  0  0  0  0
  -24.6189  -11.9518   20.7223 C   0  0  0  0  0  0  0  0  0  0  0  0
  -24.0133  -23.6758   27.4380 C   0  0  0  0  0  0  0  0  0  0  0  0
  -22.7152  -23.3795   26.7429 C   0  0  0  0  0  0  0  0  0  0  0  0
  -27.5396  -25.2269   20.2124 C   0  0  0  0  0  0  0  0  0  0  0  0
  -25.5539  -27.7902   20.3024 C   0  0  0  0  0  0  0  0  0  0  0  0
  -23.4414  -29.7560   22.1245 C   0  0  0  0  0  0  0  0  0  0  0  0
  -22.6922  -19.4891   22.3878 C   0  0  0  0  0  0  0  0  0  0  0  0
  -29.6605  -22.2642   16.6371 C   0  0  0  0  0  0  0  0  0  0  0  0
  -25.4587  -24.2165   21.2148 C   0  0  0  0  0  0  0  0  0  0  0  0
  -26.1794  -26.7688   22.5230 C   0  0  0  0  0  0  0  0  0  0  0  0
  -29.1352  -23.6963   16.6977 C   0  0  0  0  0  0  0  0  0  0  0  0
  -24.3128  -19.2251   19.2284 C   0  0  0  0  0  0  0  0  0  0  0  0
  -29.6984  -24.4204   17.9164 C   0  0  0  0  0  0  0  0  0  0  0  0
  -24.8199  -17.7814   19.2006 C   0  0  0  0  0  0  0  0  0  0  0  0
  -24.4107  -19.8337   20.6262 C   0  0  0  0  0  0  0  0  0  0  0  0
  -24.2843  -17.6030   21.6640 C   0  0  0  0  0  0  0  0  0  0  0  0
  -29.2626  -23.7335   19.2164 C   0  0  1  0  0  0  0  0  0  0  0  0
  -26.0609  -25.3786   20.4311 C   0  0  1  0  0  0  0  0  0  0  0  0
  -24.1451  -16.9260   20.2908 C   0  0  2  0  0  0  0  0  0  0  0  0
  -21.7695  -31.5680   22.5925 C   0  0  0  0  0  0  0  0  0  0  0  0
  -28.0405  -29.5549   20.4148 C   0  0  0  0  0  0  0  0  0  0  0  0
  -26.5810  -31.4433   21.1711 C   0  0  0  0  0  0  0  0  0  0  0  0
  -26.2200  -30.4110   18.9291 C   0  0  0  0  0  0  0  0  0  0  0  0
  -26.8660  -23.4152   28.9380 C   0  0  0  0  0  0  0  0  0  0  0  0
  -27.5383  -22.1419   26.8866 C   0  0  0  0  0  0  0  0  0  0  0  0
  -21.1615  -27.9697   21.5162 C   0  0  0  0  0  0  0  0  0  0  0  0
  -20.7948  -21.8136   26.7449 C   0  0  0  0  0  0  0  0  0  0  0  0
  -25.0800  -22.6001   27.3812 C   0  0  0  0  0  0  0  0  0  0  0  0
  -25.5639  -29.1262   21.0053 C   0  0  1  0  0  0  0  0  0  0  0  0
  -22.0491  -30.2834   21.8280 C   0  0  2  0  0  0  0  0  0  0  0  0
  -26.6021  -30.1094   20.3946 C   0  0  0  0  0  0  0  0  0  0  0  0
  -26.5224  -23.1265   27.4720 C   0  0  0  0  0  0  0  0  0  1  0  0
  -25.9589  -15.2887   19.9583 N   0  0  0  0  0  0  0  0  0  0  0  0
  -24.6774  -15.5052   20.3003 N   0  0  0  0  0  0  0  0  0  0  0  0
  -25.8570  -26.6704   21.0898 N   0  0  0  0  0  0  0  0  0  0  0  0
  -23.7460  -18.9711   21.6054 N   0  0  0  0  0  0  0  0  0  0  0  0
  -19.8473  -16.9918   27.2642 N   0  0  0  0  0  0  0  0  0  0  0  0
  -22.6960  -14.4076   20.9931 N   0  0  0  0  0  0  0  0  0  0  0  0
  -24.8289  -11.4394   22.0098 N   0  0  0  0  0  0  0  0  0  0  0  0
  -22.1153  -18.5673   23.2607 N   0  0  0  0  0  0  0  0  0  0  0  0
  -22.0746  -22.2666   27.2382 N   0  0  0  0  0  0  0  0  0  0  0  0
  -27.8929  -24.0759   19.5343 N   0  0  0  0  0  0  0  0  0  0  0  0
  -24.1893  -29.6139   20.9749 N   0  0  0  0  0  0  0  0  0  0  0  0
  -21.0207  -29.2752   22.2111 N   0  3  0  0  0  0  0  0  0  0  0  0
  -24.2171  -11.1851   19.8144 O   0  0  0  0  0  0  0  0  0  0  0  0
  -24.1005  -24.7471   28.0194 O   0  0  0  0  0  0  0  0  0  0  0  0
  -22.3568  -24.1425   25.8595 O   0  0  0  0  0  0  0  0  0  0  0  0
  -28.3035  -26.0909   20.6268 O   0  0  0  0  0  0  0  0  0  0  0  0
  -25.2799  -27.7413   19.1007 O   0  0  0  0  0  0  0  0  0  0  0  0
  -23.8281  -29.4995   23.2626 O   0  0  0  0  0  0  0  0  0  0  0  0
  -22.3104  -20.6564   22.2710 O   0  0  0  0  0  0  0  0  0  0  0  0
  -30.9765  -11.4984   18.9556 O   0  0  0  0  0  0  0  0  0  0  0  0
  -26.6045  -24.3610   26.7608 O   0  0  0  0  0  0  0  0  0  1  0  0
  -30.9926   -6.0283   18.2618 F   0  0  0  0  0  0  0  0  0  0  0  0
  -31.8212  -10.3731   16.5760 F   0  0  0  0  0  0  0  0  0  0  0  0
  -19.7546  -19.6128   28.1716 F   0  0  0  0  0  0  0  0  0  0  0  0
  1  2  1  0  0  0  0
  1  5  2  0  0  0  0
  2  6  2  0  0  0  0
  3  8  2  0  0  0  0
  3 17  1  0  0  0  0
  4  9  1  0  0  0  0
  4 17  2  0  0  0  0
  5 19  1  0  0  0  0
  6 21  1  0  0  0  0
  7 10  2  0  0  0  0
  7 20  1  0  0  0  0
  8 26  1  0  0  0  0
  9 26  2  0  0  0  0
 10 27  1  0  0  0  0
 11 12  2  0  0  0  0
 11 28  1  0  0  0  0
 12 29  1  0  0  0  0
 13 22  1  0  0  0  0
 13 27  2  0  0  0  0
 14 23  1  0  0  0  0
 14 24  2  0  0  0  0
 15 24  1  0  0  0  0
 15 25  2  0  0  0  0
 16 29  2  0  0  0  0
 16 30  1  0  0  0  0
 17 32  1  0  0  0  0
 18 32  1  0  0  0  0
 18 33  2  0  0  0  0
 18 34  1  0  0  0  0
 19 21  2  0  0  0  0
 19 41  1  0  0  0  0
 20 22  2  0  0  0  0
 20 42  1  0  0  0  0
 21 50  1  0  0  0  0
 22 43  1  0  0  0  0
 23 31  2  0  0  0  0
 23 60  1  0  0  0  0
 24 73  1  0  0  0  0
 25 31  1  0  0  0  0
 25 70  1  0  0  0  0
 26 85  1  0  0  0  0
 27 86  1  0  0  0  0
 28 30  2  0  0  0  0
 28 85  1  0  0  0  0
 29 87  1  0  0  0  0
 30 88  1  0  0  0  0
 31 89  1  0  0  0  0
 32 66  2  0  0  0  0
 33 67  1  0  0  0  0
 33 71  1  0  0  0  0
 34 72  1  0  0  0  0
 34 78  2  0  0  0  0
 35 36  1  0  0  0  0
 35 61  1  0  0  0  0
 35 79  2  0  0  0  0
 36 74  1  0  0  0  0
 36 80  2  0  0  0  0
 37 51  1  0  0  0  0
 37 75  1  0  0  0  0
 37 81  2  0  0  0  0
 38 62  1  0  0  0  0
 38 68  1  0  0  0  0
 38 82  2  0  0  0  0
 39 63  1  0  0  0  0
 39 76  1  0  0  0  0
 39 83  2  0  0  0  0
 40 69  1  0  0  0  0
 40 73  1  0  0  0  0
 40 84  2  0  0  0  0
 41 44  1  0  0  0  0
 42 51  1  0  0  0  0
 43 68  1  0  0  0  0
 44 46  1  0  0  0  0
 45 47  1  0  0  0  0
 45 48  1  0  0  0  0
 46 50  1  0  0  0  0
 47 52  1  0  0  0  0
 48 69  1  0  0  0  0
 49 52  1  0  0  0  0
 49 69  1  0  0  0  0
 50 75  1  0  0  0  0
 51 68  1  0  0  0  0
 52 67  1  0  0  0  0
 53 63  1  0  0  0  0
 54 64  1  0  0  0  0
 55 64  1  0  0  0  0
 56 64  1  0  0  0  0
 57 65  1  0  0  0  0
 58 65  1  0  0  0  0
 59 77  1  0  0  0  0
 60 74  1  0  0  0  0
 61 65  1  0  0  0  0
 62 64  1  0  0  0  0
 62 76  1  0  0  0  0
 63 77  1  0  0  0  0
 65 86  1  0  0  0  0
 66 67  1  0  0  0  0
M  CHG  1  77   1
M  ISO  4  40 100  65 101  73 100  86 101
M  END
> <Batch ID>
0174

> <Smiles>
CNC(C)C(=O)NC(C(=O)N1Cc2cc([101O:1][101C:1](C)(C)CC(=O)C(=O)NCc3cc([100NH:0][100C:0](=O)N4CCCC(n5nc(-c6ccc(Oc7ccc(F)cc7F)cc6)c(C(N)=O)c5N)C4)cc(N)c3F)ccc2CC1C(=O)NC1CCCc2ccccc21)C(C)(C)C

> <Shape>
0.206

> <Color>
0.073

> <Negative vol penalty>
0.000

$$$$

  -OEChem-04052304333D

 85 93  0     1  0  0  0  0  0999 V2000
  -27.3391  -37.8016   24.2334 C   0  0  0  0  0  0  0  0  0  0  0  0
  -27.9087  -36.9726   23.2724 C   0  0  0  0  0  0  0  0  0  0  0  0
  -24.6819   -8.8144   21.7428 C   0  0  0  0  0  0  0  0  0  0  0  0
  -23.0144  -10.1970   20.6727 C   0  0  0  0  0  0  0  0  0  0  0  0
  -26.5892  -37.2505   25.2717 C   0  0  0  0  0  0  0  0  0  0  0  0
  -27.7297  -35.5918   23.3496 C   0  0  0  0  0  0  0  0  0  0  0  0
  -27.0492  -29.8086   19.1774 C   0  0  0  0  0  0  0  0  0  0  0  0
  -23.6754   -8.1200   22.4139 C   0  0  0  0  0  0  0  0  0  0  0  0
  -22.0079   -9.5026   21.3438 C   0  0  0  0  0  0  0  0  0  0  0  0
  -27.5940  -28.5373   19.0014 C   0  0  0  0  0  0  0  0  0  0  0  0
  -21.4459   -5.6751   21.7177 C   0  0  0  0  0  0  0  0  0  0  0  0
  -21.5319   -4.2834   21.7538 C   0  0  0  0  0  0  0  0  0  0  0  0
  -26.2127  -27.7037   20.7948 C   0  0  0  0  0  0  0  0  0  0  0  0
  -24.7322  -20.4617   18.4499 C   0  0  0  0  0  0  0  0  0  0  0  0
  -24.5621  -18.0960   18.8485 C   0  0  0  0  0  0  0  0  0  0  0  0
  -21.6106   -4.3510   24.1676 C   0  0  0  0  0  0  0  0  0  0  0  0
  -24.3514   -9.8530   20.8722 C   0  0  0  0  0  0  0  0  0  0  0  0
  -25.9427  -10.2637   18.9212 C   0  0  0  0  0  0  0  0  0  0  0  0
  -26.3928  -35.8631   25.3562 C   0  0  0  0  0  0  0  0  0  0  0  0
  -26.0885  -30.0397   20.1724 C   0  0  0  0  0  0  0  0  0  0  0  0
  -26.9776  -35.0216   24.3907 C   0  0  0  0  0  0  0  0  0  0  0  0
  -25.6555  -28.9781   20.9797 C   0  0  0  0  0  0  0  0  0  0  0  0
  -24.0364  -19.2659   18.3117 C   0  0  0  0  0  0  0  0  0  0  0  0
  -22.3385   -8.4640   22.2144 C   0  0  0  0  0  0  0  0  0  0  0  0
  -27.1779  -27.4853   19.8120 C   0  0  0  0  0  0  0  0  0  0  0  0
  -21.4423   -6.4048   22.9065 C   0  0  0  0  0  0  0  0  0  0  0  0
  -21.6142   -3.6214   22.9788 C   0  0  0  0  0  0  0  0  0  0  0  0
  -21.5246   -5.7428   24.1314 C   0  0  0  0  0  0  0  0  0  0  0  0
  -25.3906  -10.5711   20.1791 C   0  0  0  0  0  0  0  0  0  0  0  0
  -25.9400  -20.4345   19.1284 C   0  0  0  0  0  0  0  0  0  0  0  0
  -25.7776  -18.1747   19.5089 C   0  0  0  0  0  0  0  0  0  0  0  0
  -26.8855  -11.2403   18.7120 C   0  0  0  0  0  0  0  0  0  0  0  0
  -26.8607  -25.2192   19.3272 C   0  0  0  0  0  0  0  0  0  1  0  0
  -25.6311   -9.1912   18.0221 C   0  0  0  0  0  0  0  0  0  0  0  0
  -27.2734  -23.9600   19.1383 C   0  0  0  0  0  0  0  0  0  0  0  0
  -26.2629  -22.9072   18.7938 C   0  0  0  0  0  0  0  0  0  0  0  0
  -25.9437  -31.8662   22.7698 C   0  0  0  0  0  0  0  0  0  0  0  0
  -22.8782  -30.8098   22.8666 C   0  0  0  0  0  0  0  0  0  0  0  0
  -20.6117  -28.4108   21.9979 C   0  0  0  0  0  0  0  0  0  0  0  0
  -27.5021  -16.8228   20.7518 C   0  0  0  0  0  0  0  0  0  0  0  0
  -25.6139  -35.3100   26.5233 C   0  0  0  0  0  0  0  0  0  0  0  0
  -25.4910  -31.4108   20.3318 C   0  0  0  0  0  0  0  0  0  0  0  0
  -24.6119  -29.1694   22.0487 C   0  0  0  0  0  0  0  0  0  0  0  0
  -25.1585  -33.8669   26.3226 C   0  0  0  0  0  0  0  0  0  0  0  0
  -29.8428  -14.1612   21.0905 C   0  0  0  0  0  0  0  0  0  0  0  0
  -26.3063  -33.0138   25.7920 C   0  0  0  0  0  0  0  0  0  0  0  0
  -29.0184  -12.9111   20.7748 C   0  0  0  0  0  0  0  0  0  0  0  0
  -29.0262  -15.2005   21.8566 C   0  0  0  0  0  0  0  0  0  0  0  0
  -26.9260  -14.3214   20.9156 C   0  0  0  0  0  0  0  0  0  0  0  0
  -26.7852  -33.5210   24.4264 C   0  0  1  0  0  0  0  0  0  0  0  0
  -24.8951  -31.6456   21.7164 C   0  0  1  0  0  0  0  0  0  0  0  0
  -27.6868  -13.2727   20.0879 C   0  0  2  0  0  0  0  0  0  0  0  0
  -21.5472  -19.4801   18.5227 C   0  0  0  0  0  0  0  0  0  0  0  0
  -18.1902  -27.8039   22.2531 C   0  0  0  0  0  0  0  0  0  0  0  0
  -23.4039  -29.9308   25.7408 C   0  0  0  0  0  0  0  0  0  0  0  0
  -21.3390  -28.5207   25.6135 C   0  0  0  0  0  0  0  0  0  0  0  0
  -21.1729  -30.9975   25.3676 C   0  0  0  0  0  0  0  0  0  0  0  0
  -20.1617  -28.4993   19.0741 C   0  0  0  0  0  0  0  0  0  0  0  0
  -22.7318  -19.2380   17.5906 C   0  0  0  0  0  0  0  0  0  0  0  0
  -22.1732  -29.6299   23.4911 C   0  0  1  0  0  0  0  0  0  0  0  0
  -19.2245  -28.5089   21.3894 C   0  0  2  0  0  0  0  0  0  0  0  0
  -22.0434  -29.7662   25.0345 C   0  0  0  0  0  0  0  0  0  0  0  0
  -25.9373  -11.6579   20.7305 N   0  0  0  0  0  0  0  0  0  0  0  0
  -26.4826  -19.3179   19.6634 N   0  0  0  0  0  0  0  0  0  0  0  0
  -26.8428  -12.0419   19.8146 N   0  0  0  0  0  0  0  0  0  0  0  0
  -24.0623  -30.5298   22.1700 N   0  0  0  0  0  0  0  0  0  0  0  0
  -27.7813  -15.4966   21.1443 N   0  0  0  0  0  0  0  0  0  0  0  0
  -27.7387  -11.4829   17.6944 N   0  0  0  0  0  0  0  0  0  0  0  0
  -24.6359   -8.2765   18.3926 N   0  0  0  0  0  0  0  0  0  0  0  0
  -26.6406  -21.6572   19.2646 N   0  0  0  0  0  0  0  0  0  0  0  0
  -26.3053  -16.9775   20.0530 N   0  0  0  0  0  0  0  0  0  0  0  0
  -25.8733  -33.1023   23.3835 N   0  0  0  0  0  0  0  0  0  0  0  0
  -20.8986  -29.4999   22.7934 N   0  0  0  0  0  0  0  0  0  0  0  0
  -19.2079  -27.8875   20.0349 N   0  3  0  0  0  0  0  0  0  0  0  0
  -26.2292   -9.0388   16.9300 O   0  0  0  0  0  0  0  0  0  0  0  0
  -25.2467  -23.1900   18.1683 O   0  0  0  0  0  0  0  0  0  0  0  0
  -26.7555  -30.9800   23.0091 O   0  0  0  0  0  0  0  0  0  0  0  0
  -22.3923  -31.9372   22.9862 O   0  0  0  0  0  0  0  0  0  0  0  0
  -21.3640  -27.4611   21.7915 O   0  0  0  0  0  0  0  0  0  0  0  0
  -28.2814  -17.7484   20.9924 O   0  0  0  0  0  0  0  0  0  0  0  0
  -28.5983  -23.5890   19.2470 O   0  0  0  0  0  0  0  0  0  0  0  0
  -21.3561   -7.7864   22.8689 O   0  0  0  0  0  0  0  0  0  0  0  0
  -27.7085  -26.2436   19.6428 O   0  0  0  0  0  0  0  0  0  1  0  0
  -21.6952   -2.2848   23.0134 F   0  0  0  0  0  0  0  0  0  0  0  0
  -21.5204   -6.4383   25.2769 F   0  0  0  0  0  0  0  0  0  0  0  0
  1  2  1  0  0  0  0
  1  5  2  0  0  0  0
  2  6  2  0  0  0  0
  3  8  2  0  0  0  0
  3 17  1  0  0  0  0
  4  9  1  0  0  0  0
  4 17  2  0  0  0  0
  5 19  1  0  0  0  0
  6 21  1  0  0  0  0
  7 10  2  0  0  0  0
  7 20  1  0  0  0  0
  8 24  1  0  0  0  0
  9 24  2  0  0  0  0
 10 25  1  0  0  0  0
 11 12  2  0  0  0  0
 11 26  1  0  0  0  0
 12 27  1  0  0  0  0
 13 22  1  0  0  0  0
 13 25  2  0  0  0  0
 14 23  1  0  0  0  0
 14 30  2  0  0  0  0
 15 23  2  0  0  0  0
 15 31  1  0  0  0  0
 16 27  2  0  0  0  0
 16 28  1  0  0  0  0
 17 29  1  0  0  0  0
 18 29  1  0  0  0  0
 18 32  2  0  0  0  0
 18 34  1  0  0  0  0
 19 21  2  0  0  0  0
 19 41  1  0  0  0  0
 20 22  2  0  0  0  0
 20 42  1  0  0  0  0
 21 50  1  0  0  0  0
 22 43  1  0  0  0  0
 23 59  1  0  0  0  0
 24 82  1  0  0  0  0
 25 83  1  0  0  0  0
 26 28  2  0  0  0  0
 26 82  1  0  0  0  0
 27 84  1  0  0  0  0
 28 85  1  0  0  0  0
 29 63  2  0  0  0  0
 30 64  1  0  0  0  0
 30 70  1  0  0  0  0
 31 64  2  0  0  0  0
 31 71  1  0  0  0  0
 32 65  1  0  0  0  0
 32 68  1  0  0  0  0
 33 35  2  0  0  0  0
 33 83  1  0  0  0  0
 34 69  1  0  0  0  0
 34 75  2  0  0  0  0
 35 36  1  0  0  0  0
 35 81  1  0  0  0  0
 36 70  1  0  0  0  0
 36 76  2  0  0  0  0
 37 51  1  0  0  0  0
 37 72  1  0  0  0  0
 37 77  2  0  0  0  0
 38 60  1  0  0  0  0
 38 66  1  0  0  0  0
 38 78  2  0  0  0  0
 39 61  1  0  0  0  0
 39 73  1  0  0  0  0
 39 79  2  0  0  0  0
 40 67  1  0  0  0  0
 40 71  1  0  0  0  0
 40 80  2  0  0  0  0
 41 44  1  0  0  0  0
 42 51  1  0  0  0  0
 43 66  1  0  0  0  0
 44 46  1  0  0  0  0
 45 47  1  0  0  0  0
 45 48  1  0  0  0  0
 46 50  1  0  0  0  0
 47 52  1  0  0  0  0
 48 67  1  0  0  0  0
 49 52  1  0  0  0  0
 49 67  1  0  0  0  0
 50 72  1  0  0  0  0
 51 66  1  0  0  0  0
 52 65  1  0  0  0  0
 53 59  1  0  0  0  0
 54 61  1  0  0  0  0
 55 62  1  0  0  0  0
 56 62  1  0  0  0  0
 57 62  1  0  0  0  0
 58 74  1  0  0  0  0
 60 62  1  0  0  0  0
 60 73  1  0  0  0  0
 61 74  1  0  0  0  0
 63 65  1  0  0  0  0
M  CHG  1  74   1
M  ISO  4  33 101  40 100  71 100  83 101
M  END
> <Batch ID>
0174

> <Smiles>
CCc1cc(NC(=O)C(=O)[101CH2:1][101O:1]c2ccc3c(c2)CN(C(=O)C(NC(=O)C(C)NC)C(C)(C)C)C(C(=O)NC2CCCc4ccccc42)C3)nc([100NH:0][100C:0](=O)N2CCCC(n3nc(-c4ccc(Oc5ccc(F)cc5F)cc4)c(C(N)=O)c3N)C2)c1

> <Shape>
0.314

> <Color>
0.099

> <Negative vol penalty>
0.000

$$$$

  -OEChem-04052304333D

 85 93  0     1  0  0  0  0  0999 V2000
  -17.1774  -31.1699   23.3980 C   0  0  0  0  0  0  0  0  0  0  0  0
  -18.4089  -31.4386   23.9869 C   0  0  0  0  0  0  0  0  0  0  0  0
  -24.9079  -13.7752   19.7224 C   0  0  0  0  0  0  0  0  0  0  0  0
  -25.5314  -13.1873   21.9814 C   0  0  0  0  0  0  0  0  0  0  0  0
  -16.9646  -29.9512   22.7552 C   0  0  0  0  0  0  0  0  0  0  0  0
  -19.4279  -30.4882   23.9342 C   0  0  0  0  0  0  0  0  0  0  0  0
  -25.4400  -31.5583   23.4714 C   0  0  0  0  0  0  0  0  0  0  0  0
  -25.0461  -12.4418   19.3372 C   0  0  0  0  0  0  0  0  0  0  0  0
  -25.6695  -11.8538   21.5962 C   0  0  0  0  0  0  0  0  0  0  0  0
  -26.4622  -31.5937   24.4189 C   0  0  0  0  0  0  0  0  0  0  0  0
  -25.8363   -8.2350   21.2891 C   0  0  0  0  0  0  0  0  0  0  0  0
  -25.2879   -7.2588   22.1209 C   0  0  0  0  0  0  0  0  0  0  0  0
  -25.5239  -23.2581   27.6623 C   0  0  0  0  0  0  0  0  0  0  0  0
  -25.3947  -22.0491   26.9379 C   0  0  0  0  0  0  0  0  0  0  0  0
  -27.0143  -29.3035   23.8999 C   0  0  0  0  0  0  0  0  0  0  0  0
  -23.0983   -8.2359   21.8242 C   0  0  0  0  0  0  0  0  0  0  0  0
  -25.1507  -14.1480   21.0445 C   0  0  0  0  0  0  0  0  0  0  0  0
  -23.8464  -16.1547   21.9276 C   0  0  0  0  0  0  0  0  0  0  0  0
  -17.9846  -28.9892   22.6862 C   0  0  0  0  0  0  0  0  0  0  0  0
  -25.1899  -30.3898   22.7375 C   0  0  0  0  0  0  0  0  0  0  0  0
  -19.2280  -29.2549   23.2910 C   0  0  0  0  0  0  0  0  0  0  0  0
  -25.9901  -29.2567   22.9418 C   0  0  0  0  0  0  0  0  0  0  0  0
  -25.4268  -11.4811   20.2741 C   0  0  0  0  0  0  0  0  0  0  0  0
  -27.2476  -30.4653   24.6353 C   0  0  0  0  0  0  0  0  0  0  0  0
  -25.0157   -9.2117   20.7249 C   0  0  0  0  0  0  0  0  0  0  0  0
  -23.9190   -7.2592   22.3884 C   0  0  0  0  0  0  0  0  0  0  0  0
  -23.6467   -9.2121   20.9924 C   0  0  0  0  0  0  0  0  0  0  0  0
  -25.0087  -15.5254   21.4429 C   0  0  0  0  0  0  0  0  0  0  0  0
  -24.2304  -17.4527   22.1604 C   0  0  0  0  0  0  0  0  0  0  0  0
  -26.6207  -23.9019   27.1385 C   0  0  0  0  0  0  0  0  0  0  0  0
  -26.4217  -22.0404   26.0229 C   0  0  0  0  0  0  0  0  0  0  0  0
  -22.5368  -15.6142   22.1479 C   0  0  0  0  0  0  0  0  0  0  0  0
  -27.7123  -27.2361   28.5012 C   0  0  0  0  0  0  0  0  0  0  0  0
  -26.8294  -26.0227   28.4429 C   0  0  0  0  0  0  0  0  0  0  0  0
  -22.7248  -28.4032   22.4545 C   0  0  0  0  0  0  0  0  0  0  0  0
  -24.5713  -27.0615   20.1496 C   0  0  0  0  0  0  0  0  0  0  0  0
  -27.6949  -26.5432   18.8763 C   0  0  0  0  0  0  0  0  0  0  0  0
  -27.8631  -21.1761   24.1463 C   0  0  0  0  0  0  0  0  0  0  0  0
  -17.6921  -27.6673   22.0215 C   0  0  0  0  0  0  0  0  0  0  0  0
  -24.1009  -30.3763   21.7001 C   0  0  0  0  0  0  0  0  0  0  0  0
  -25.7756  -27.9839   22.1656 C   0  0  0  0  0  0  0  0  0  0  0  0
  -18.9458  -26.8642   21.6848 C   0  0  0  0  0  0  0  0  0  0  0  0
  -28.4574  -19.9195   20.8683 C   0  0  0  0  0  0  0  0  0  0  0  0
  -19.9014  -26.8428   22.8735 C   0  0  0  0  0  0  0  0  0  0  0  0
  -27.5175  -18.7161   20.7654 C   0  0  0  0  0  0  0  0  0  0  0  0
  -29.0489  -20.0590   22.2699 C   0  0  0  0  0  0  0  0  0  0  0  0
  -27.1250  -18.8783   23.2568 C   0  0  0  0  0  0  0  0  0  0  0  0
  -20.3661  -28.2591   23.2334 C   0  0  1  0  0  0  0  0  0  0  0  0
  -23.6024  -28.9715   21.3754 C   0  0  1  0  0  0  0  0  0  0  0  0
  -26.4541  -18.7346   21.8809 C   0  0  2  0  0  0  0  0  0  0  0  0
  -28.8903  -25.3742   17.0050 C   0  0  0  0  0  0  0  0  0  0  0  0
  -28.5663  -32.0512   27.3604 C   0  0  0  0  0  0  0  0  0  0  0  0
  -24.2092  -24.3947   21.5873 C   0  0  0  0  0  0  0  0  0  0  0  0
  -26.1392  -23.5002   20.2671 C   0  0  0  0  0  0  0  0  0  0  0  0
  -24.0740  -24.2622   19.0936 C   0  0  0  0  0  0  0  0  0  0  0  0
  -28.7530  -29.0913   17.8055 C   0  0  0  0  0  0  0  0  0  0  0  0
  -27.2857  -28.4199   27.6642 C   0  0  0  0  0  0  0  0  0  0  0  0
  -28.2676  -29.5865   27.7922 C   0  0  0  0  0  0  0  0  0  0  0  0
  -25.6225  -25.9785   20.1176 C   0  0  1  0  0  0  0  0  0  0  0  0
  -28.2415  -26.6702   17.4658 C   0  0  2  0  0  0  0  0  0  0  0  0
  -27.8721  -30.7730   26.9094 C   0  0  2  0  0  0  0  0  0  1  0  0
  -25.0143  -24.5571   20.2826 C   0  0  0  0  0  0  0  0  0  0  0  0
  -26.0527  -16.3554   21.3713 N   0  0  0  0  0  0  0  0  0  0  0  0
  -25.5479  -17.5195   21.8140 N   0  0  0  0  0  0  0  0  0  0  0  0
  -24.6944  -28.0184   21.1670 N   0  0  0  0  0  0  0  0  0  0  0  0
  -27.9828  -20.0736   23.2739 N   0  0  0  0  0  0  0  0  0  0  0  0
  -23.5662  -18.5321   22.6254 N   0  0  0  0  0  0  0  0  0  0  0  0
  -22.3146  -14.2615   21.8564 N   0  0  0  0  0  0  0  0  0  0  0  0
  -27.2260  -25.1383   27.4631 N   0  0  0  0  0  0  0  0  0  0  0  0
  -26.7927  -21.0935   25.0362 N   0  0  0  0  0  0  0  0  0  0  0  0
  -21.3848  -28.7072   22.3082 N   0  0  0  0  0  0  0  0  0  0  0  0
  -26.3677  -26.1694   18.8780 N   0  0  0  0  0  0  0  0  0  0  0  0
  -29.2611  -27.7551   17.4011 N   0  3  0  0  0  0  0  0  0  0  0  0
  -21.5875  -16.3143   22.5747 O   0  0  0  0  0  0  0  0  0  0  0  0
  -28.7000  -27.1769   29.2180 O   0  0  0  0  0  0  0  0  0  0  0  0
  -25.9242  -25.9666   29.2586 O   0  0  0  0  0  0  0  0  0  0  0  0
  -23.2261  -27.7369   23.3526 O   0  0  0  0  0  0  0  0  0  0  0  0
  -23.6781  -27.0626   19.2988 O   0  0  0  0  0  0  0  0  0  0  0  0
  -28.3781  -26.7509   19.8766 O   0  0  0  0  0  0  0  0  0  0  0  0
  -28.6356  -22.1362   24.0885 O   0  0  0  0  0  0  0  0  0  0  0  0
  -27.1736  -23.1664   26.1386 O   0  0  0  0  0  0  0  0  0  0  0  0
  -25.5615  -10.1797   19.8986 O   0  0  0  0  0  0  0  0  0  0  0  0
  -28.2455  -30.4969   25.5600 O   0  0  0  0  0  0  0  0  0  1  0  0
  -23.3923   -6.3207   23.1860 F   0  0  0  0  0  0  0  0  0  0  0  0
  -22.8531  -10.1471   20.4522 F   0  0  0  0  0  0  0  0  0  0  0  0
  1  2  1  0  0  0  0
  1  5  2  0  0  0  0
  2  6  2  0  0  0  0
  3  8  2  0  0  0  0
  3 17  1  0  0  0  0
  4  9  1  0  0  0  0
  4 17  2  0  0  0  0
  5 19  1  0  0  0  0
  6 21  1  0  0  0  0
  7 10  2  0  0  0  0
  7 20  1  0  0  0  0
  8 23  1  0  0  0  0
  9 23  2  0  0  0  0
 10 24  1  0  0  0  0
 11 12  2  0  0  0  0
 11 25  1  0  0  0  0
 12 26  1  0  0  0  0
 13 14  1  0  0  0  0
 13 30  2  0  0  0  0
 14 31  2  0  0  0  0
 15 22  1  0  0  0  0
 15 24  2  0  0  0  0
 16 26  2  0  0  0  0
 16 27  1  0  0  0  0
 17 28  1  0  0  0  0
 18 28  1  0  0  0  0
 18 29  2  0  0  0  0
 18 32  1  0  0  0  0
 19 21  2  0  0  0  0
 19 39  1  0  0  0  0
 20 22  2  0  0  0  0
 20 40  1  0  0  0  0
 21 48  1  0  0  0  0
 22 41  1  0  0  0  0
 23 82  1  0  0  0  0
 24 83  1  0  0  0  0
 25 27  2  0  0  0  0
 25 82  1  0  0  0  0
 26 84  1  0  0  0  0
 27 85  1  0  0  0  0
 28 63  2  0  0  0  0
 29 64  1  0  0  0  0
 29 67  1  0  0  0  0
 30 69  1  0  0  0  0
 30 81  1  0  0  0  0
 31 70  1  0  0  0  0
 31 81  1  0  0  0  0
 32 68  1  0  0  0  0
 32 74  2  0  0  0  0
 33 34  1  0  0  0  0
 33 57  1  0  0  0  0
 33 75  2  0  0  0  0
 34 69  1  0  0  0  0
 34 76  2  0  0  0  0
 35 49  1  0  0  0  0
 35 71  1  0  0  0  0
 35 77  2  0  0  0  0
 36 59  1  0  0  0  0
 36 65  1  0  0  0  0
 36 78  2  0  0  0  0
 37 60  1  0  0  0  0
 37 72  1  0  0  0  0
 37 79  2  0  0  0  0
 38 66  1  0  0  0  0
 38 70  1  0  0  0  0
 38 80  2  0  0  0  0
 39 42  1  0  0  0  0
 40 49  1  0  0  0  0
 41 65  1  0  0  0  0
 42 44  1  0  0  0  0
 43 45  1  0  0  0  0
 43 46  1  0  0  0  0
 44 48  1  0  0  0  0
 45 50  1  0  0  0  0
 46 66  1  0  0  0  0
 47 50  1  0  0  0  0
 47 66  1  0  0  0  0
 48 71  1  0  0  0  0
 49 65  1  0  0  0  0
 50 64  1  0  0  0  0
 51 60  1  0  0  0  0
 52 61  1  0  0  0  0
 53 62  1  0  0  0  0
 54 62  1  0  0  0  0
 55 62  1  0  0  0  0
 56 73  1  0  0  0  0
 57 58  1  0  0  0  0
 58 61  1  0  0  0  0
 59 62  1  0  0  0  0
 59 72  1  0  0  0  0
 60 73  1  0  0  0  0
 61 83  1  0  0  0  0
 63 64  1  0  0  0  0
M  CHG  1  73   1
M  ISO  4  38 100  61 101  70 100  83 101
M  END
> <Batch ID>
0174

> <Smiles>
CNC(C)C(=O)NC(C(=O)N1Cc2cc([101O:1][101CH:1](C)CCC(=O)C(=O)Nc3ccc([100NH:0][100C:0](=O)N4CCCC(n5nc(-c6ccc(Oc7ccc(F)cc7F)cc6)c(C(N)=O)c5N)C4)o3)ccc2CC1C(=O)NC1CCCc2ccccc21)C(C)(C)C

> <Shape>
0.235

> <Color>
0.086

> <Negative vol penalty>
0.000

$$$$

  -OEChem-04052304333D

 86 94  0     1  0  0  0  0  0999 V2000
  -29.8027  -35.4512   24.7130 C   0  0  0  0  0  0  0  0  0  0  0  0
  -29.9324  -34.2833   23.9683 C   0  0  0  0  0  0  0  0  0  0  0  0
  -23.7272   -9.6304   22.0706 C   0  0  0  0  0  0  0  0  0  0  0  0
  -23.2256  -11.9589   22.4747 C   0  0  0  0  0  0  0  0  0  0  0  0
  -28.6927  -35.6314   25.5371 C   0  0  0  0  0  0  0  0  0  0  0  0
  -28.9526  -33.2944   24.0482 C   0  0  0  0  0  0  0  0  0  0  0  0
  -27.0638  -29.6102   19.5354 C   0  0  0  0  0  0  0  0  0  0  0  0
  -31.1002  -17.1465   21.5459 C   0  0  0  0  0  0  0  0  0  0  0  0
  -22.9460   -9.2715   23.1690 C   0  0  0  0  0  0  0  0  0  0  0  0
  -22.4443  -11.6000   23.5730 C   0  0  0  0  0  0  0  0  0  0  0  0
  -27.3857  -28.2955   19.2010 C   0  0  0  0  0  0  0  0  0  0  0  0
  -19.6597   -8.9057   23.8753 C   0  0  0  0  0  0  0  0  0  0  0  0
  -31.3693  -18.3646   22.1699 C   0  0  0  0  0  0  0  0  0  0  0  0
  -18.7760   -7.8376   23.7210 C   0  0  0  0  0  0  0  0  0  0  0  0
  -25.4420  -27.5207   20.4013 C   0  0  0  0  0  0  0  0  0  0  0  0
  -28.7825  -17.7837   21.3015 C   0  0  0  0  0  0  0  0  0  0  0  0
  -19.9048   -6.6475   25.4949 C   0  0  0  0  0  0  0  0  0  0  0  0
  -23.8671  -10.9741   21.7235 C   0  0  0  0  0  0  0  0  0  0  0  0
  -24.2511  -11.4862   19.2541 C   0  0  0  0  0  0  0  0  0  0  0  0
  -27.6939  -34.6484   25.6198 C   0  0  0  0  0  0  0  0  0  0  0  0
  -25.9327  -29.8896   20.3157 C   0  0  0  0  0  0  0  0  0  0  0  0
  -27.8288  -33.4610   24.8752 C   0  0  0  0  0  0  0  0  0  0  0  0
  -25.1065  -28.8399   20.7421 C   0  0  0  0  0  0  0  0  0  0  0  0
  -29.8068  -16.8560   21.1117 C   0  0  0  0  0  0  0  0  0  0  0  0
  -22.3045  -10.2563   23.9202 C   0  0  0  0  0  0  0  0  0  0  0  0
  -26.5764  -27.2503   19.6364 C   0  0  0  0  0  0  0  0  0  0  0  0
  -20.6659   -8.8448   24.8394 C   0  0  0  0  0  0  0  0  0  0  0  0
  -18.8985   -6.7085   24.5308 C   0  0  0  0  0  0  0  0  0  0  0  0
  -30.3451  -19.2923   22.3597 C   0  0  0  0  0  0  0  0  0  0  0  0
  -20.7885   -7.7157   25.6492 C   0  0  0  0  0  0  0  0  0  0  0  0
  -29.0517  -19.0018   21.9256 C   0  0  0  0  0  0  0  0  0  0  0  0
  -24.6744  -11.3456   20.5893 C   0  0  0  0  0  0  0  0  0  0  0  0
  -25.3856  -11.8501   18.5707 C   0  0  0  0  0  0  0  0  0  0  0  0
  -22.9488  -11.3043   18.6826 C   0  0  0  0  0  0  0  0  0  0  0  0
  -25.4431  -31.2201   23.1607 C   0  0  0  0  0  0  0  0  0  0  0  0
  -27.4497  -23.7698   20.1672 C   0  0  0  0  0  0  0  0  0  0  0  0
  -22.3221  -30.9301   22.3255 C   0  0  0  0  0  0  0  0  0  0  0  0
  -19.9617  -29.3327   20.4484 C   0  0  0  0  0  0  0  0  0  0  0  0
  -30.4366  -14.5895   20.2102 C   0  0  0  0  0  0  0  0  0  0  0  0
  -26.5357  -34.8676   26.5606 C   0  0  0  0  0  0  0  0  0  0  0  0
  -25.5843  -31.3152   20.6453 C   0  0  0  0  0  0  0  0  0  0  0  0
  -23.8697  -29.0883   21.5650 C   0  0  0  0  0  0  0  0  0  0  0  0
  -25.3559  -33.9340   26.3021 C   0  0  0  0  0  0  0  0  0  0  0  0
  -30.1494  -11.3774   18.7013 C   0  0  0  0  0  0  0  0  0  0  0  0
  -25.8400  -32.4983   26.1256 C   0  0  0  0  0  0  0  0  0  0  0  0
  -28.6729  -11.0202   18.8873 C   0  0  0  0  0  0  0  0  0  0  0  0
  -30.7047  -12.1381   19.9040 C   0  0  0  0  0  0  0  0  0  0  0  0
  -28.4586  -12.9682   20.4830 C   0  0  0  0  0  0  0  0  0  0  0  0
  -26.7747  -32.3760   24.9161 C   0  0  1  0  0  0  0  0  0  0  0  0
  -24.6939  -31.4432   21.8775 C   0  0  1  0  0  0  0  0  0  0  0  0
  -27.8375  -12.2578   19.2693 C   0  0  2  0  0  0  0  0  0  0  0  0
  -17.4912  -29.2901   20.0097 C   0  0  0  0  0  0  0  0  0  0  0  0
  -21.8808  -29.4673   24.9666 C   0  0  0  0  0  0  0  0  0  0  0  0
  -19.6984  -28.6380   24.0625 C   0  0  0  0  0  0  0  0  0  0  0  0
  -20.0750  -31.0864   24.3564 C   0  0  0  0  0  0  0  0  0  0  0  0
  -20.3385  -30.0307   17.5971 C   0  0  0  0  0  0  0  0  0  0  0  0
  -27.1292  -22.6122   21.1008 C   0  0  0  0  0  0  0  0  0  0  0  0
  -26.5005  -24.9501   20.2358 C   0  0  0  0  0  0  0  0  0  1  0  0
  -28.1457  -21.4842   21.0475 C   0  0  0  0  0  0  0  0  0  0  0  0
  -21.2658  -29.8643   22.4907 C   0  0  1  0  0  0  0  0  0  0  0  0
  -18.8332  -29.8645   19.5834 C   0  0  2  0  0  0  0  0  0  0  0  0
  -20.7543  -29.7588   23.9552 C   0  0  0  0  0  0  0  0  0  0  0  0
  -25.9763  -11.5992   20.7469 N   0  0  0  0  0  0  0  0  0  0  0  0
  -26.3808  -11.9028   19.5018 N   0  0  0  0  0  0  0  0  0  0  0  0
  -23.5749  -30.4988   21.8667 N   0  0  0  0  0  0  0  0  0  0  0  0
  -29.8648  -13.2996   20.2046 N   0  0  0  0  0  0  0  0  0  0  0  0
  -25.6190  -12.1268   17.2702 N   0  0  0  0  0  0  0  0  0  0  0  0
  -21.8948  -10.9300   19.5272 N   0  0  0  0  0  0  0  0  0  0  0  0
  -29.5344  -15.6189   20.4767 N   0  0  0  0  0  0  0  0  0  0  0  0
  -26.0114  -32.3646   23.6866 N   0  0  0  0  0  0  0  0  0  0  0  0
  -20.2247  -30.1667   21.5145 N   0  0  0  0  0  0  0  0  0  0  0  0
  -19.0641  -29.5091   18.1546 N   0  3  0  0  0  0  0  0  0  0  0  0
  -22.7297  -11.4530   17.4564 O   0  0  0  0  0  0  0  0  0  0  0  0
  -25.5000  -30.0933   23.6390 O   0  0  0  0  0  0  0  0  0  0  0  0
  -28.4270  -23.7686   19.4205 O   0  0  0  0  0  0  0  0  0  0  0  0
  -22.0438  -32.1030   22.5868 O   0  0  0  0  0  0  0  0  0  0  0  0
  -20.5485  -28.2806   20.2049 O   0  0  0  0  0  0  0  0  0  0  0  0
  -31.6326  -14.7703   19.9676 O   0  0  0  0  0  0  0  0  0  0  0  0
  -26.5211  -19.5396   21.7214 O   0  0  0  0  0  0  0  0  0  0  0  0
  -27.8594  -20.6957   23.5153 O   0  0  0  0  0  0  0  0  0  0  0  0
  -21.5420   -9.9064   24.9919 O   0  0  0  0  0  0  0  0  0  0  0  0
  -26.8886  -25.9661   19.3120 O   0  0  0  0  0  0  0  0  0  1  0  0
  -18.0489   -5.6835   24.3836 F   0  0  0  0  0  0  0  0  0  0  0  0
  -30.6153  -20.4590   22.9617 F   0  0  0  0  0  0  0  0  0  0  0  0
  -21.7524   -7.6518   26.5779 F   0  0  0  0  0  0  0  0  0  0  0  0
  -27.7501  -20.1741   22.1642 S   0  0  0  0  0  0  0  0  0  0  0  0
  1  2  1  0  0  0  0
  1  5  2  0  0  0  0
  2  6  2  0  0  0  0
  3  9  2  0  0  0  0
  3 18  1  0  0  0  0
  4 10  1  0  0  0  0
  4 18  2  0  0  0  0
  5 20  1  0  0  0  0
  6 22  1  0  0  0  0
  7 11  2  0  0  0  0
  7 21  1  0  0  0  0
  8 13  2  0  0  0  0
  8 24  1  0  0  0  0
  9 25  1  0  0  0  0
 10 25  2  0  0  0  0
 11 26  1  0  0  0  0
 12 14  2  0  0  0  0
 12 27  1  0  0  0  0
 13 29  1  0  0  0  0
 14 28  1  0  0  0  0
 15 23  1  0  0  0  0
 15 26  2  0  0  0  0
 16 24  2  0  0  0  0
 16 31  1  0  0  0  0
 17 28  2  0  0  0  0
 17 30  1  0  0  0  0
 18 32  1  0  0  0  0
 19 32  1  0  0  0  0
 19 33  2  0  0  0  0
 19 34  1  0  0  0  0
 20 22  2  0  0  0  0
 20 40  1  0  0  0  0
 21 23  2  0  0  0  0
 21 41  1  0  0  0  0
 22 49  1  0  0  0  0
 23 42  1  0  0  0  0
 24 69  1  0  0  0  0
 25 81  1  0  0  0  0
 26 82  1  0  0  0  0
 27 30  2  0  0  0  0
 27 81  1  0  0  0  0
 28 83  1  0  0  0  0
 29 31  2  0  0  0  0
 29 84  1  0  0  0  0
 30 85  1  0  0  0  0
 31 86  1  0  0  0  0
 32 63  2  0  0  0  0
 33 64  1  0  0  0  0
 33 67  1  0  0  0  0
 34 68  1  0  0  0  0
 34 73  2  0  0  0  0
 35 50  1  0  0  0  0
 35 70  1  0  0  0  0
 35 74  2  0  0  0  0
 36 57  1  0  0  0  0
 36 58  1  0  0  0  0
 36 75  2  0  0  0  0
 37 60  1  0  0  0  0
 37 65  1  0  0  0  0
 37 76  2  0  0  0  0
 38 61  1  0  0  0  0
 38 71  1  0  0  0  0
 38 77  2  0  0  0  0
 39 66  1  0  0  0  0
 39 69  1  0  0  0  0
 39 78  2  0  0  0  0
 40 43  1  0  0  0  0
 41 50  1  0  0  0  0
 42 65  1  0  0  0  0
 43 45  1  0  0  0  0
 44 46  1  0  0  0  0
 44 47  1  0  0  0  0
 45 49  1  0  0  0  0
 46 51  1  0  0  0  0
 47 66  1  0  0  0  0
 48 51  1  0  0  0  0
 48 66  1  0  0  0  0
 49 70  1  0  0  0  0
 50 65  1  0  0  0  0
 51 64  1  0  0  0  0
 52 61  1  0  0  0  0
 53 62  1  0  0  0  0
 54 62  1  0  0  0  0
 55 62  1  0  0  0  0
 56 72  1  0  0  0  0
 57 59  1  0  0  0  0
 58 82  1  0  0  0  0
 59 86  1  0  0  0  0
 60 62  1  0  0  0  0
 60 71  1  0  0  0  0
 61 72  1  0  0  0  0
 63 64  1  0  0  0  0
 79 86  2  0  0  0  0
 80 86  2  0  0  0  0
M  CHG  1  72   1
M  ISO  4  39 100  58 101  69 100  82 101
M  END
> <Batch ID>
0174

> <Smiles>
CNC(C)C(=O)NC(C(=O)N1Cc2cc([101O:1][101CH2:1]C(=O)CCS(=O)(=O)c3cc([100NH:0][100C:0](=O)N4CCCC(n5nc(-c6ccc(Oc7ccc(F)cc7F)cc6)c(C(N)=O)c5N)C4)ccc3F)ccc2CC1C(=O)NC1CCCc2ccccc21)C(C)(C)C

> <Shape>
0.282

> <Color>
0.097

> <Negative vol penalty>
0.000

$$$$

  -OEChem-04052304333D

 88 96  0     1  0  0  0  0  0999 V2000
  -21.1116  -30.0143   14.4407 C   0  0  0  0  0  0  0  0  0  0  0  0
  -22.3399  -29.6308   14.9694 C   0  0  0  0  0  0  0  0  0  0  0  0
  -22.6483  -14.5906   22.0845 C   0  0  0  0  0  0  0  0  0  0  0  0
  -23.5591  -16.8284   22.0799 C   0  0  0  0  0  0  0  0  0  0  0  0
  -20.4862  -31.1720   14.9019 C   0  0  0  0  0  0  0  0  0  0  0  0
  -22.9441  -30.4054   15.9590 C   0  0  0  0  0  0  0  0  0  0  0  0
  -24.7984  -27.6098   19.7526 C   0  0  0  0  0  0  0  0  0  0  0  0
  -21.8454  -14.9196   23.1766 C   0  0  0  0  0  0  0  0  0  0  0  0
  -22.7561  -17.1574   23.1720 C   0  0  0  0  0  0  0  0  0  0  0  0
  -26.0117  -26.9599   19.5305 C   0  0  0  0  0  0  0  0  0  0  0  0
  -22.2066  -15.2616   26.5198 C   0  0  0  0  0  0  0  0  0  0  0  0
  -22.1394  -14.3487   27.5722 C   0  0  0  0  0  0  0  0  0  0  0  0
  -27.1592  -28.7004   20.7442 C   0  0  0  0  0  0  0  0  0  0  0  0
  -33.5549  -18.7720   21.2315 C   0  0  0  0  0  0  0  0  0  0  0  0
  -32.9430  -16.4724   20.8142 C   0  0  0  0  0  0  0  0  0  0  0  0
  -31.3749  -18.2462   20.3327 C   0  0  0  0  0  0  0  0  0  0  0  0
  -19.7537  -14.1493   27.2470 C   0  0  0  0  0  0  0  0  0  0  0  0
  -23.5052  -15.5450   21.5362 C   0  0  0  0  0  0  0  0  0  0  0  0
  -24.0108  -15.3350   19.0446 C   0  0  0  0  0  0  0  0  0  0  0  0
  -21.0785  -31.9559   15.9045 C   0  0  0  0  0  0  0  0  0  0  0  0
  -24.7576  -28.8176   20.4639 C   0  0  0  0  0  0  0  0  0  0  0  0
  -22.3268  -31.5754   16.4331 C   0  0  0  0  0  0  0  0  0  0  0  0
  -25.9438  -29.3624   20.9761 C   0  0  0  0  0  0  0  0  0  0  0  0
  -33.8736  -17.4142   21.2530 C   0  0  0  0  0  0  0  0  0  0  0  0
  -32.3055  -19.1880   20.7714 C   0  0  0  0  0  0  0  0  0  0  0  0
  -31.6935  -16.8884   20.3541 C   0  0  0  0  0  0  0  0  0  0  0  0
  -21.8993  -16.2030   23.7204 C   0  0  0  0  0  0  0  0  0  0  0  0
  -27.1927  -27.5067   20.0239 C   0  0  0  0  0  0  0  0  0  0  0  0
  -21.0473  -15.6185   25.8310 C   0  0  0  0  0  0  0  0  0  0  0  0
  -20.9130  -13.7925   27.9358 C   0  0  0  0  0  0  0  0  0  0  0  0
  -19.8209  -15.0624   26.1946 C   0  0  0  0  0  0  0  0  0  0  0  0
  -24.3352  -15.2056   20.4084 C   0  0  0  0  0  0  0  0  0  0  0  0
  -25.1251  -14.8811   18.3821 C   0  0  0  0  0  0  0  0  0  0  0  0
  -29.7523  -23.3496   20.0857 C   0  0  0  0  0  0  0  0  0  0  0  0
  -22.8098  -15.8221   18.4315 C   0  0  0  0  0  0  0  0  0  0  0  0
  -30.8389  -22.6522   20.4600 C   0  0  0  0  0  0  0  0  0  0  0  0
  -29.6482  -24.8391   20.1599 C   0  0  0  0  0  0  0  0  0  0  0  0
  -30.7969  -21.1533   20.3284 C   0  0  0  0  0  0  0  0  0  0  0  0
  -23.8712  -31.7931   19.7828 C   0  0  0  0  0  0  0  0  0  0  0  0
  -24.4193  -32.2655   22.9449 C   0  0  0  0  0  0  0  0  0  0  0  0
  -26.0305  -31.2751   25.7856 C   0  0  0  0  0  0  0  0  0  0  0  0
  -30.9035  -14.5465   19.8664 C   0  0  0  0  0  0  0  0  0  0  0  0
  -20.3871  -33.2244   16.3375 C   0  0  0  0  0  0  0  0  0  0  0  0
  -23.4376  -29.4924   20.7179 C   0  0  0  0  0  0  0  0  0  0  0  0
  -25.9516  -30.6462   21.7635 C   0  0  0  0  0  0  0  0  0  0  0  0
  -20.9158  -33.7873   17.6543 C   0  0  0  0  0  0  0  0  0  0  0  0
  -28.7999  -11.8501   18.8757 C   0  0  0  0  0  0  0  0  0  0  0  0
  -22.4412  -33.7971   17.6565 C   0  0  0  0  0  0  0  0  0  0  0  0
  -27.3869  -12.4184   19.0264 C   0  0  0  0  0  0  0  0  0  0  0  0
  -29.7347  -12.3562   19.9729 C   0  0  0  0  0  0  0  0  0  0  0  0
  -28.3691  -14.3844   20.2742 C   0  0  0  0  0  0  0  0  0  0  0  0
  -23.0022  -32.3760   17.5254 C   0  0  1  0  0  0  0  0  0  0  0  0
  -23.5754  -30.9828   21.0130 C   0  0  1  0  0  0  0  0  0  0  0  0
  -27.4078  -13.9542   19.1542 C   0  0  2  0  0  0  0  0  0  0  0  0
  -26.3088  -31.8798   28.2052 C   0  0  0  0  0  0  0  0  0  0  0  0
  -26.2512  -34.5740   22.1547 C   0  0  0  0  0  0  0  0  0  0  0  0
  -27.2102  -34.5127   24.4666 C   0  0  0  0  0  0  0  0  0  0  0  0
  -24.7926  -35.0303   24.1343 C   0  0  0  0  0  0  0  0  0  0  0  0
  -24.9321  -28.6769   26.6813 C   0  0  0  0  0  0  0  0  0  0  0  0
  -35.2093  -16.9698   21.7463 C   0  0  0  0  0  0  0  0  0  0  0  0
  -28.3452  -25.4527   19.6939 C   0  0  0  0  0  0  0  0  0  1  0  0
  -25.6150  -32.6667   23.7744 C   0  0  1  0  0  0  0  0  0  0  0  0
  -25.5293  -31.0461   27.2002 C   0  0  2  0  0  0  0  0  0  0  0  0
  -25.9677  -34.1727   23.6160 C   0  0  0  0  0  0  0  0  0  0  0  0
  -25.5596  -14.7082   20.6022 N   0  0  0  0  0  0  0  0  0  0  0  0
  -26.0143  -14.5210   19.3515 N   0  0  0  0  0  0  0  0  0  0  0  0
  -24.6365  -31.2717   21.9800 N   0  0  0  0  0  0  0  0  0  0  0  0
  -29.7058  -13.8192   20.0323 N   0  0  0  0  0  0  0  0  0  0  0  0
  -25.4211  -14.7587   17.0707 N   0  0  0  0  0  0  0  0  0  0  0  0
  -21.7627  -16.2492   19.2595 N   0  0  0  0  0  0  0  0  0  0  0  0
  -31.9826  -20.5662   20.7501 N   0  0  0  0  0  0  0  0  0  0  0  0
  -30.7476  -15.9316   19.9097 N   0  0  0  0  0  0  0  0  0  0  0  0
  -22.9156  -31.6797   18.7911 N   0  0  0  0  0  0  0  0  0  0  0  0
  -25.3152  -32.2641   25.1442 N   0  0  0  0  0  0  0  0  0  0  0  0
  -35.2375  -16.6963   23.2096 N   0  3  0  0  0  0  0  0  0  0  0  0
  -25.6683  -29.6098   27.5728 N   0  3  0  0  0  0  0  0  0  0  0  0
  -22.6630  -15.8617   17.1864 O   0  0  0  0  0  0  0  0  0  0  0  0
  -30.5527  -25.5384   20.6088 O   0  0  0  0  0  0  0  0  0  0  0  0
  -29.8026  -20.5820   19.8935 O   0  0  0  0  0  0  0  0  0  0  0  0
  -24.8902  -32.4723   19.7372 O   0  0  0  0  0  0  0  0  0  0  0  0
  -23.3309  -32.8085   23.1505 O   0  0  0  0  0  0  0  0  0  0  0  0
  -26.9656  -30.6426   25.2997 O   0  0  0  0  0  0  0  0  0  0  0  0
  -31.9833  -13.9828   19.6712 O   0  0  0  0  0  0  0  0  0  0  0  0
  -31.9985  -23.2102   20.9552 O   0  0  0  0  0  0  0  0  0  0  0  0
  -21.1158  -16.5245   24.7859 O   0  0  0  0  0  0  0  0  0  0  0  0
  -28.3784  -26.8747   19.8080 O   0  0  0  0  0  0  0  0  0  1  0  0
  -20.8489  -12.9146   28.9454 F   0  0  0  0  0  0  0  0  0  0  0  0
  -18.7040  -15.4005   25.5358 F   0  0  0  0  0  0  0  0  0  0  0  0
  1  2  1  0  0  0  0
  1  5  2  0  0  0  0
  2  6  2  0  0  0  0
  3  8  2  0  0  0  0
  3 18  1  0  0  0  0
  4  9  1  0  0  0  0
  4 18  2  0  0  0  0
  5 20  1  0  0  0  0
  6 22  1  0  0  0  0
  7 10  2  0  0  0  0
  7 21  1  0  0  0  0
  8 27  1  0  0  0  0
  9 27  2  0  0  0  0
 10 28  1  0  0  0  0
 11 12  2  0  0  0  0
 11 29  1  0  0  0  0
 12 30  1  0  0  0  0
 13 23  1  0  0  0  0
 13 28  2  0  0  0  0
 14 24  2  0  0  0  0
 14 25  1  0  0  0  0
 15 24  1  0  0  0  0
 15 26  2  0  0  0  0
 16 25  2  0  0  0  0
 16 26  1  0  0  0  0
 17 30  2  0  0  0  0
 17 31  1  0  0  0  0
 18 32  1  0  0  0  0
 19 32  1  0  0  0  0
 19 33  2  0  0  0  0
 19 35  1  0  0  0  0
 20 22  2  0  0  0  0
 20 43  1  0  0  0  0
 21 23  2  0  0  0  0
 21 44  1  0  0  0  0
 22 52  1  0  0  0  0
 23 45  1  0  0  0  0
 24 60  1  0  0  0  0
 25 71  1  0  0  0  0
 26 72  1  0  0  0  0
 27 85  1  0  0  0  0
 28 86  1  0  0  0  0
 29 31  2  0  0  0  0
 29 85  1  0  0  0  0
 30 87  1  0  0  0  0
 31 88  1  0  0  0  0
 32 65  2  0  0  0  0
 33 66  1  0  0  0  0
 33 69  1  0  0  0  0
 34 36  2  0  0  0  0
 34 37  1  0  0  0  0
 35 70  1  0  0  0  0
 35 77  2  0  0  0  0
 36 38  1  0  0  0  0
 36 84  1  0  0  0  0
 37 61  1  0  0  0  0
 37 78  2  0  0  0  0
 38 71  1  0  0  0  0
 38 79  2  0  0  0  0
 39 53  1  0  0  0  0
 39 73  1  0  0  0  0
 39 80  2  0  0  0  0
 40 62  1  0  0  0  0
 40 67  1  0  0  0  0
 40 81  2  0  0  0  0
 41 63  1  0  0  0  0
 41 74  1  0  0  0  0
 41 82  2  0  0  0  0
 42 68  1  0  0  0  0
 42 72  1  0  0  0  0
 42 83  2  0  0  0  0
 43 46  1  0  0  0  0
 44 53  1  0  0  0  0
 45 67  1  0  0  0  0
 46 48  1  0  0  0  0
 47 49  1  0  0  0  0
 47 50  1  0  0  0  0
 48 52  1  0  0  0  0
 49 54  1  0  0  0  0
 50 68  1  0  0  0  0
 51 54  1  0  0  0  0
 51 68  1  0  0  0  0
 52 73  1  0  0  0  0
 53 67  1  0  0  0  0
 54 66  1  0  0  0  0
 55 63  1  0  0  0  0
 56 64  1  0  0  0  0
 57 64  1  0  0  0  0
 58 64  1  0  0  0  0
 59 76  1  0  0  0  0
 60 75  1  0  0  0  0
 61 86  1  0  0  0  0
 62 64  1  0  0  0  0
 62 74  1  0  0  0  0
 63 76  1  0  0  0  0
 65 66  1  0  0  0  0
M  CHG  2  75   1  76   1
M  ISO  4  42 100  61 101  72 100  86 101
M  END
> <Batch ID>
0174

> <Smiles>
CNC(C)C(=O)NC(C(=O)N1Cc2cc([101O:1][101CH2:1]C(=O)CC(=O)C(=O)Nc3cc(CN)cc([100NH:0][100C:0](=O)N4CCCC(n5nc(-c6ccc(Oc7ccc(F)cc7F)cc6)c(C(N)=O)c5N)C4)c3)ccc2CC1C(=O)NC1CCCc2ccccc21)C(C)(C)C

> <Shape>
0.236

> <Color>
0.118

> <Negative vol penalty>
0.000

$$$$

  -OEChem-04052304333D

 87 95  0     1  0  0  0  0  0999 V2000
  -16.7930  -26.0982   23.0296 C   0  0  0  0  0  0  0  0  0  0  0  0
  -17.8060  -26.3130   22.1006 C   0  0  0  0  0  0  0  0  0  0  0  0
  -24.6822  -13.3750   19.8898 C   0  0  0  0  0  0  0  0  0  0  0  0
  -26.3026  -13.4141   21.6814 C   0  0  0  0  0  0  0  0  0  0  0  0
  -16.8607  -26.7010   24.2850 C   0  0  0  0  0  0  0  0  0  0  0  0
  -18.8868  -27.1317   22.4260 C   0  0  0  0  0  0  0  0  0  0  0  0
  -23.3271  -25.1298   21.0400 C   0  0  0  0  0  0  0  0  0  0  0  0
  -24.5737  -11.9903   20.0181 C   0  0  0  0  0  0  0  0  0  0  0  0
  -26.1941  -12.0294   21.8097 C   0  0  0  0  0  0  0  0  0  0  0  0
  -23.6735  -25.2204   19.6926 C   0  0  0  0  0  0  0  0  0  0  0  0
  -23.6013   -8.4889   20.1161 C   0  0  0  0  0  0  0  0  0  0  0  0
  -22.3212   -7.9351   20.1069 C   0  0  0  0  0  0  0  0  0  0  0  0
  -25.0979  -27.1022   20.1915 C   0  0  0  0  0  0  0  0  0  0  0  0
  -21.7439   -9.2372   22.0584 C   0  0  0  0  0  0  0  0  0  0  0  0
  -30.0120  -25.0019   17.9854 C   0  0  0  0  0  0  0  0  0  0  0  0
  -25.5467  -14.0869   20.7214 C   0  0  0  0  0  0  0  0  0  0  0  0
  -24.8984  -16.4955   21.2563 C   0  0  0  0  0  0  0  0  0  0  0  0
  -17.9477  -27.5198   24.6294 C   0  0  0  0  0  0  0  0  0  0  0  0
  -23.8559  -26.0331   21.9732 C   0  0  0  0  0  0  0  0  0  0  0  0
  -18.9684  -27.7472   23.6867 C   0  0  0  0  0  0  0  0  0  0  0  0
  -24.7586  -27.0194   21.5506 C   0  0  0  0  0  0  0  0  0  0  0  0
  -25.3297  -11.3175   20.9781 C   0  0  0  0  0  0  0  0  0  0  0  0
  -24.5568  -26.2085   19.2677 C   0  0  0  0  0  0  0  0  0  0  0  0
  -23.9528   -9.4168   21.0965 C   0  0  0  0  0  0  0  0  0  0  0  0
  -21.3925   -8.3092   21.0781 C   0  0  0  0  0  0  0  0  0  0  0  0
  -23.0241   -9.7910   22.0676 C   0  0  0  0  0  0  0  0  0  0  0  0
  -25.6596  -15.5172   20.5890 C   0  0  0  0  0  0  0  0  0  0  0  0
  -28.9611  -24.1118   18.0598 C   0  0  0  0  0  0  0  0  0  0  0  0
  -25.3884  -17.6902   20.7882 C   0  0  0  0  0  0  0  0  0  0  0  0
  -30.3908  -23.0411   19.3324 C   0  0  0  0  0  0  0  0  0  0  0  0
  -23.8428  -16.3383   22.2138 C   0  0  0  0  0  0  0  0  0  0  0  0
  -30.9469  -21.9952   20.2024 C   0  0  0  0  0  0  0  0  0  0  0  0
  -22.6253  -28.2195   23.9249 C   0  0  0  0  0  0  0  0  0  0  0  0
  -30.8735  -19.4849   20.7606 C   0  0  0  0  0  0  0  0  0  0  0  0
  -25.6848  -28.4340   24.9812 C   0  0  0  0  0  0  0  0  0  0  0  0
  -27.3509  -25.3750   16.5917 C   0  0  0  0  0  0  0  0  0  0  0  0
  -29.0077  -27.9861   24.3450 C   0  0  0  0  0  0  0  0  0  0  0  0
  -30.7366  -19.1314   18.4791 C   0  0  0  0  0  0  0  0  0  0  0  0
  -17.9535  -28.1878   25.9816 C   0  0  0  0  0  0  0  0  0  0  0  0
  -23.4930  -25.9053   23.4273 C   0  0  0  0  0  0  0  0  0  0  0  0
  -25.3700  -28.0008   22.5158 C   0  0  0  0  0  0  0  0  0  0  0  0
  -19.3189  -28.7403   26.3822 C   0  0  0  0  0  0  0  0  0  0  0  0
  -27.5051  -19.6477   16.9646 C   0  0  0  0  0  0  0  0  0  0  0  0
  -19.9408  -29.5168   25.2258 C   0  0  0  0  0  0  0  0  0  0  0  0
  -26.5946  -18.7113   17.7586 C   0  0  0  0  0  0  0  0  0  0  0  0
  -28.9013  -19.0569   16.7963 C   0  0  0  0  0  0  0  0  0  0  0  0
  -28.6511  -17.7557   18.8916 C   0  0  0  0  0  0  0  0  0  0  0  0
  -20.1694  -28.6088   24.0113 C   0  0  1  0  0  0  0  0  0  0  0  0
  -23.6922  -27.2002   24.2089 C   0  0  1  0  0  0  0  0  0  0  0  0
  -27.2382  -18.3240   19.1022 C   0  0  2  0  0  0  0  0  0  0  0  0
  -31.2808  -19.1544   22.1815 C   0  0  0  0  0  0  0  0  0  0  0  0
  -29.1755  -21.1202   21.7228 C   0  0  0  0  0  0  0  0  0  0  0  0
  -31.2708  -28.2864   25.3868 C   0  0  0  0  0  0  0  0  0  0  0  0
  -25.5172  -31.4381   24.4738 C   0  0  0  0  0  0  0  0  0  0  0  0
  -28.0155  -31.5300   24.6101 C   0  0  0  0  0  0  0  0  0  0  0  0
  -26.6860  -30.8014   26.5911 C   0  0  0  0  0  0  0  0  0  0  0  0
  -29.5940  -25.0897   24.1845 C   0  0  0  0  0  0  0  0  0  0  0  0
  -25.9273  -25.1863   16.0800 C   0  0  0  0  0  0  0  0  0  0  0  0
  -24.8988  -25.0905   17.1967 C   0  0  0  0  0  0  0  0  0  1  0  0
  -30.0961  -20.7851   20.5525 C   0  0  1  0  0  0  0  0  0  0  0  0
  -26.8921  -29.2564   24.6004 C   0  0  1  0  0  0  0  0  0  0  0  0
  -30.1097  -27.3313   25.1582 C   0  0  2  0  0  0  0  0  0  0  0  0
  -26.7649  -30.7393   25.0501 C   0  0  0  0  0  0  0  0  0  0  0  0
  -26.5643  -16.0447   19.7599 N   0  0  0  0  0  0  0  0  0  0  0  0
  -29.1766  -22.9867   18.8314 N   0  0  0  0  0  0  0  0  0  0  0  0
  -31.1545  -18.7399   19.7332 N   0  0  0  0  0  0  0  0  0  0  0  0
  -26.3746  -17.3674   19.9031 N   0  0  0  0  0  0  0  0  0  0  0  0
  -24.9791  -27.8390   23.9259 N   0  0  0  0  0  0  0  0  0  0  0  0
  -29.4687  -18.6707   18.0883 N   0  0  0  0  0  0  0  0  0  0  0  0
  -25.0674  -18.9747   21.0514 N   0  0  0  0  0  0  0  0  0  0  0  0
  -23.4641  -15.0406   22.5837 N   0  0  0  0  0  0  0  0  0  0  0  0
  -27.7559  -24.2995   17.4168 N   0  0  0  0  0  0  0  0  0  0  0  0
  -21.3440  -27.7869   24.2088 N   0  0  0  0  0  0  0  0  0  0  0  0
  -28.0500  -28.5618   25.1529 N   0  0  0  0  0  0  0  0  0  0  0  0
  -30.6259  -26.1240   24.4533 N   0  3  0  0  0  0  0  0  0  0  0  0
  -23.2419  -17.3193   22.7139 O   0  0  0  0  0  0  0  0  0  0  0  0
  -32.1124  -22.1147   20.5717 O   0  0  0  0  0  0  0  0  0  0  0  0
  -22.9414  -29.3177   23.4824 O   0  0  0  0  0  0  0  0  0  0  0  0
  -25.3833  -28.3178   26.1717 O   0  0  0  0  0  0  0  0  0  0  0  0
  -28.0254  -26.3564   16.2980 O   0  0  0  0  0  0  0  0  0  0  0  0
  -28.9993  -27.9901   23.1160 O   0  0  0  0  0  0  0  0  0  0  0  0
  -31.4150  -19.8692   17.7616 O   0  0  0  0  0  0  0  0  0  0  0  0
  -25.2239   -9.9664   21.1037 O   0  0  0  0  0  0  0  0  0  0  0  0
  -24.8985  -26.3002   17.9437 O   0  0  0  0  0  0  0  0  0  1  0  0
  -20.1627   -7.7785   21.0683 F   0  0  0  0  0  0  0  0  0  0  0  0
  -23.3556  -10.6829   23.0112 F   0  0  0  0  0  0  0  0  0  0  0  0
  -31.3280  -24.4174   18.9170 S   0  0  0  0  0  0  0  0  0  0  0  0
  1  2  1  0  0  0  0
  1  5  2  0  0  0  0
  2  6  2  0  0  0  0
  3  8  2  0  0  0  0
  3 16  1  0  0  0  0
  4  9  1  0  0  0  0
  4 16  2  0  0  0  0
  5 18  1  0  0  0  0
  6 20  1  0  0  0  0
  7 10  2  0  0  0  0
  7 19  1  0  0  0  0
  8 22  1  0  0  0  0
  9 22  2  0  0  0  0
 10 23  1  0  0  0  0
 11 12  2  0  0  0  0
 11 24  1  0  0  0  0
 12 25  1  0  0  0  0
 13 21  1  0  0  0  0
 13 23  2  0  0  0  0
 14 25  2  0  0  0  0
 14 26  1  0  0  0  0
 15 28  2  0  0  0  0
 15 87  1  0  0  0  0
 16 27  1  0  0  0  0
 17 27  1  0  0  0  0
 17 29  2  0  0  0  0
 17 31  1  0  0  0  0
 18 20  2  0  0  0  0
 18 39  1  0  0  0  0
 19 21  2  0  0  0  0
 19 40  1  0  0  0  0
 20 48  1  0  0  0  0
 21 41  1  0  0  0  0
 22 83  1  0  0  0  0
 23 84  1  0  0  0  0
 24 26  2  0  0  0  0
 24 83  1  0  0  0  0
 25 85  1  0  0  0  0
 26 86  1  0  0  0  0
 27 64  2  0  0  0  0
 28 65  1  0  0  0  0
 28 72  1  0  0  0  0
 29 67  1  0  0  0  0
 29 70  1  0  0  0  0
 30 32  1  0  0  0  0
 30 65  2  0  0  0  0
 30 87  1  0  0  0  0
 31 71  1  0  0  0  0
 31 76  2  0  0  0  0
 32 60  1  0  0  0  0
 32 77  2  0  0  0  0
 33 49  1  0  0  0  0
 33 73  1  0  0  0  0
 33 78  2  0  0  0  0
 34 51  1  0  0  0  0
 34 60  1  0  0  0  0
 34 66  2  0  0  0  0
 35 61  1  0  0  0  0
 35 68  1  0  0  0  0
 35 79  2  0  0  0  0
 36 58  1  0  0  0  0
 36 72  1  0  0  0  0
 36 80  2  0  0  0  0
 37 62  1  0  0  0  0
 37 74  1  0  0  0  0
 37 81  2  0  0  0  0
 38 66  1  0  0  0  0
 38 69  1  0  0  0  0
 38 82  2  0  0  0  0
 39 42  1  0  0  0  0
 40 49  1  0  0  0  0
 41 68  1  0  0  0  0
 42 44  1  0  0  0  0
 43 45  1  0  0  0  0
 43 46  1  0  0  0  0
 44 48  1  0  0  0  0
 45 50  1  0  0  0  0
 46 69  1  0  0  0  0
 47 50  1  0  0  0  0
 47 69  1  0  0  0  0
 48 73  1  0  0  0  0
 49 68  1  0  0  0  0
 50 67  1  0  0  0  0
 52 60  1  0  0  0  0
 53 62  1  0  0  0  0
 54 63  1  0  0  0  0
 55 63  1  0  0  0  0
 56 63  1  0  0  0  0
 57 75  1  0  0  0  0
 58 59  1  0  0  0  0
 59 84  1  0  0  0  0
 61 63  1  0  0  0  0
 61 74  1  0  0  0  0
 62 75  1  0  0  0  0
 64 67  1  0  0  0  0
M  CHG  1  75   1
M  ISO  4  38 100  59 101  66 100  84 101
M  END
> <Batch ID>
0174

> <Smiles>
CNC(C)C(=O)NC(C(=O)N1Cc2cc([101O:1][101CH2:1]CC(=O)Nc3csc(C(=O)C(C)=C(C)[100NH:0][100C:0](=O)N4CCCC(n5nc(-c6ccc(Oc7ccc(F)cc7F)cc6)c(C(N)=O)c5N)C4)n3)ccc2CC1C(=O)NC1CCCc2ccccc21)C(C)(C)C

> <Shape>
0.223

> <Color>
0.078

> <Negative vol penalty>
0.000

$$$$

  -OEChem-04052304333D

 89 97  0     1  0  0  0  0  0999 V2000
  -15.1017  -22.2019   23.6674 C   0  0  0  0  0  0  0  0  0  0  0  0
  -16.3395  -22.3954   23.0624 C   0  0  0  0  0  0  0  0  0  0  0  0
  -23.0718   -9.8712   19.9422 C   0  0  0  0  0  0  0  0  0  0  0  0
  -23.8349   -9.8772   22.2346 C   0  0  0  0  0  0  0  0  0  0  0  0
  -15.0272  -21.9622   25.0388 C   0  0  0  0  0  0  0  0  0  0  0  0
  -17.5035  -22.3503   23.8289 C   0  0  0  0  0  0  0  0  0  0  0  0
  -21.1763  -19.6476   21.6263 C   0  0  0  0  0  0  0  0  0  0  0  0
  -22.3281   -8.7180   20.1928 C   0  0  0  0  0  0  0  0  0  0  0  0
  -23.0912   -8.7241   22.4852 C   0  0  0  0  0  0  0  0  0  0  0  0
  -21.8873  -20.2608   20.5957 C   0  0  0  0  0  0  0  0  0  0  0  0
  -19.3818   -7.9213   21.6480 C   0  0  0  0  0  0  0  0  0  0  0  0
  -18.0743   -7.8754   21.1645 C   0  0  0  0  0  0  0  0  0  0  0  0
  -23.6797  -20.7531   22.1333 C   0  0  0  0  0  0  0  0  0  0  0  0
  -31.6206  -18.3544   20.0531 C   0  0  0  0  0  0  0  0  0  0  0  0
  -30.2168  -20.0603   19.0752 C   0  0  0  0  0  0  0  0  0  0  0  0
  -18.6319   -5.9328   19.8408 C   0  0  0  0  0  0  0  0  0  0  0  0
  -23.8253  -10.4508   20.9631 C   0  0  0  0  0  0  0  0  0  0  0  0
  -24.1673  -12.9759   20.8435 C   0  0  0  0  0  0  0  0  0  0  0  0
  -16.1916  -21.9045   25.8208 C   0  0  0  0  0  0  0  0  0  0  0  0
  -21.7078  -19.5922   22.9228 C   0  0  0  0  0  0  0  0  0  0  0  0
  -17.4444  -22.1108   25.2123 C   0  0  0  0  0  0  0  0  0  0  0  0
  -22.9745  -20.1365   23.1781 C   0  0  0  0  0  0  0  0  0  0  0  0
  -30.5870  -18.0011   20.9206 C   0  0  0  0  0  0  0  0  0  0  0  0
  -29.3683  -18.6774   20.8654 C   0  0  0  0  0  0  0  0  0  0  0  0
  -29.1832  -19.7070   19.9427 C   0  0  0  0  0  0  0  0  0  0  0  0
  -22.3378   -8.1445   21.4643 C   0  0  0  0  0  0  0  0  0  0  0  0
  -23.1380  -20.8162   20.8497 C   0  0  0  0  0  0  0  0  0  0  0  0
  -20.3145   -6.9730   21.2278 C   0  0  0  0  0  0  0  0  0  0  0  0
  -17.6993   -6.8811   20.2610 C   0  0  0  0  0  0  0  0  0  0  0  0
  -31.4355  -19.3840   19.1304 C   0  0  0  0  0  0  0  0  0  0  0  0
  -19.9395   -5.9787   20.3242 C   0  0  0  0  0  0  0  0  0  0  0  0
  -24.5941  -11.6416   20.7047 C   0  0  0  0  0  0  0  0  0  0  0  0
  -25.2590  -13.7254   20.4790 C   0  0  0  0  0  0  0  0  0  0  0  0
  -25.0625  -20.9114   19.5239 C   0  0  0  0  0  0  0  0  0  1  0  0
  -22.8974  -13.4917   21.2644 C   0  0  0  0  0  0  0  0  0  0  0  0
  -26.0674  -21.6488   19.0321 C   0  0  0  0  0  0  0  0  0  0  0  0
  -27.3788  -20.9824   18.7461 C   0  0  0  0  0  0  0  0  0  0  0  0
  -20.8248  -20.7227   25.7593 C   0  0  0  0  0  0  0  0  0  0  0  0
  -23.3559  -18.9843   26.8051 C   0  0  0  0  0  0  0  0  0  0  0  0
  -26.3577  -17.5230   26.0974 C   0  0  0  0  0  0  0  0  0  0  0  0
  -30.7431  -14.7436   20.6600 C   0  0  0  0  0  0  0  0  0  0  0  0
  -16.0576  -21.6895   27.3076 C   0  0  0  0  0  0  0  0  0  0  0  0
  -20.9399  -18.9036   24.0177 C   0  0  0  0  0  0  0  0  0  0  0  0
  -23.5983  -20.0852   24.5480 C   0  0  0  0  0  0  0  0  0  0  0  0
  -17.3646  -21.2850   27.9848 C   0  0  0  0  0  0  0  0  0  0  0  0
  -29.6019  -12.3602   18.2740 C   0  0  0  0  0  0  0  0  0  0  0  0
  -18.5076  -22.1801   27.5168 C   0  0  0  0  0  0  0  0  0  0  0  0
  -28.1650  -12.0665   18.7088 C   0  0  0  0  0  0  0  0  0  0  0  0
  -30.5207  -12.5804   19.4737 C   0  0  0  0  0  0  0  0  0  0  0  0
  -28.6210  -13.3112   20.8632 C   0  0  0  0  0  0  0  0  0  0  0  0
  -18.7313  -22.0447   26.0058 C   0  0  1  0  0  0  0  0  0  0  0  0
  -21.3523  -19.3588   25.4141 C   0  0  1  0  0  0  0  0  0  0  0  0
  -27.6452  -13.1372   19.6869 C   0  0  2  0  0  0  0  0  0  0  0  0
  -26.0092  -23.1259   18.7951 C   0  0  0  0  0  0  0  0  0  0  0  0
  -28.2076  -16.2056   27.1648 C   0  0  0  0  0  0  0  0  0  0  0  0
  -24.3827  -21.5221   28.1522 C   0  0  0  0  0  0  0  0  0  0  0  0
  -26.6195  -20.4185   28.3692 C   0  0  0  0  0  0  0  0  0  0  0  0
  -24.6322  -19.4420   29.5180 C   0  0  0  0  0  0  0  0  0  0  0  0
  -25.9267  -15.2263   24.2813 C   0  0  0  0  0  0  0  0  0  0  0  0
  -30.8110  -16.8937   21.8976 C   0  0  0  0  0  0  0  0  0  0  0  0
  -24.8280  -19.2527   27.0045 C   0  0  1  0  0  0  0  0  0  0  0  0
  -26.8978  -16.1359   26.3951 C   0  0  2  0  0  0  0  0  0  0  0  0
  -28.2618  -18.2950   21.7980 C   0  0  0  0  0  0  0  0  0  0  0  0
  -25.1033  -20.1617   28.2355 C   0  0  0  0  0  0  0  0  0  0  0  0
  -25.8584  -11.5458   20.2846 N   0  0  0  0  0  0  0  0  0  0  0  0
  -26.2353  -12.8294   20.1562 N   0  0  0  0  0  0  0  0  0  0  0  0
  -22.8056  -19.4069   25.5867 N   0  0  0  0  0  0  0  0  0  0  0  0
  -29.9715  -13.6087   20.3608 N   0  0  0  0  0  0  0  0  0  0  0  0
  -25.4695  -15.0568   20.4062 N   0  0  0  0  0  0  0  0  0  0  0  0
  -21.8859  -12.5826   21.6028 N   0  0  0  0  0  0  0  0  0  0  0  0
  -27.9547  -20.4080   19.8702 N   0  0  0  0  0  0  0  0  0  0  0  0
  -19.4475  -20.8227   25.7085 N   0  0  0  0  0  0  0  0  0  0  0  0
  -25.4759  -17.9472   27.0689 N   0  0  0  0  0  0  0  0  0  0  0  0
  -30.1453  -15.6722   21.5033 N   0  0  0  0  0  0  0  0  0  0  0  0
  -27.1369  -15.3900   25.1273 N   0  3  0  0  0  0  0  0  0  0  0  0
  -22.6614  -14.7224   21.3226 O   0  0  0  0  0  0  0  0  0  0  0  0
  -27.7920  -20.9514   17.5911 O   0  0  0  0  0  0  0  0  0  0  0  0
  -21.6092  -21.6177   26.0517 O   0  0  0  0  0  0  0  0  0  0  0  0
  -22.7193  -18.4140   27.6946 O   0  0  0  0  0  0  0  0  0  0  0  0
  -26.6879  -18.1675   25.1043 O   0  0  0  0  0  0  0  0  0  0  0  0
  -31.8785  -14.9191   20.2049 O   0  0  0  0  0  0  0  0  0  0  0  0
  -21.6121   -7.0194   21.7092 O   0  0  0  0  0  0  0  0  0  0  0  0
  -23.8338  -21.4159   19.8457 O   0  0  0  0  0  0  0  0  0  1  0  0
  -16.4431   -6.8363   19.7980 F   0  0  0  0  0  0  0  0  0  0  0  0
  -32.4287  -19.7249   18.2988 F   0  0  0  0  0  0  0  0  0  0  0  0
  -20.8307   -5.0642   19.9178 F   0  0  0  0  0  0  0  0  0  0  0  0
  -28.5911  -17.2738   22.6400 F   0  0  0  0  0  0  0  0  0  0  0  0
  -27.8600  -19.3155   22.6085 F   0  0  0  0  0  0  0  0  0  0  0  0
  -27.1433  -17.8842   21.1367 F   0  0  0  0  0  0  0  0  0  0  0  0
  1  2  1  0  0  0  0
  1  5  2  0  0  0  0
  2  6  2  0  0  0  0
  3  8  2  0  0  0  0
  3 17  1  0  0  0  0
  4  9  1  0  0  0  0
  4 17  2  0  0  0  0
  5 19  1  0  0  0  0
  6 21  1  0  0  0  0
  7 10  2  0  0  0  0
  7 20  1  0  0  0  0
  8 26  1  0  0  0  0
  9 26  2  0  0  0  0
 10 27  1  0  0  0  0
 11 12  2  0  0  0  0
 11 28  1  0  0  0  0
 12 29  1  0  0  0  0
 13 22  1  0  0  0  0
 13 27  2  0  0  0  0
 14 23  2  0  0  0  0
 14 30  1  0  0  0  0
 15 25  1  0  0  0  0
 15 30  2  0  0  0  0
 16 29  2  0  0  0  0
 16 31  1  0  0  0  0
 17 32  1  0  0  0  0
 18 32  1  0  0  0  0
 18 33  2  0  0  0  0
 18 35  1  0  0  0  0
 19 21  2  0  0  0  0
 19 42  1  0  0  0  0
 20 22  2  0  0  0  0
 20 43  1  0  0  0  0
 21 51  1  0  0  0  0
 22 44  1  0  0  0  0
 23 24  1  0  0  0  0
 23 60  1  0  0  0  0
 24 25  2  0  0  0  0
 24 63  1  0  0  0  0
 25 71  1  0  0  0  0
 26 82  1  0  0  0  0
 27 83  1  0  0  0  0
 28 31  2  0  0  0  0
 28 82  1  0  0  0  0
 29 84  1  0  0  0  0
 30 85  1  0  0  0  0
 31 86  1  0  0  0  0
 32 65  2  0  0  0  0
 33 66  1  0  0  0  0
 33 69  1  0  0  0  0
 34 36  2  0  0  0  0
 34 83  1  0  0  0  0
 35 70  1  0  0  0  0
 35 76  2  0  0  0  0
 36 37  1  0  0  0  0
 36 54  1  0  0  0  0
 37 71  1  0  0  0  0
 37 77  2  0  0  0  0
 38 52  1  0  0  0  0
 38 72  1  0  0  0  0
 38 78  2  0  0  0  0
 39 61  1  0  0  0  0
 39 67  1  0  0  0  0
 39 79  2  0  0  0  0
 40 62  1  0  0  0  0
 40 73  1  0  0  0  0
 40 80  2  0  0  0  0
 41 68  1  0  0  0  0
 41 74  1  0  0  0  0
 41 81  2  0  0  0  0
 42 45  1  0  0  0  0
 43 52  1  0  0  0  0
 44 67  1  0  0  0  0
 45 47  1  0  0  0  0
 46 48  1  0  0  0  0
 46 49  1  0  0  0  0
 47 51  1  0  0  0  0
 48 53  1  0  0  0  0
 49 68  1  0  0  0  0
 50 53  1  0  0  0  0
 50 68  1  0  0  0  0
 51 72  1  0  0  0  0
 52 67  1  0  0  0  0
 53 66  1  0  0  0  0
 55 62  1  0  0  0  0
 56 64  1  0  0  0  0
 57 64  1  0  0  0  0
 58 64  1  0  0  0  0
 59 75  1  0  0  0  0
 60 74  1  0  0  0  0
 61 64  1  0  0  0  0
 61 73  1  0  0  0  0
 62 75  1  0  0  0  0
 63 87  1  0  0  0  0
 63 88  1  0  0  0  0
 63 89  1  0  0  0  0
 65 66  1  0  0  0  0
M  CHG  1  75   1
M  ISO  4  34 101  41 100  74 100  83 101
M  END
> <Batch ID>
0174

> <Smiles>
CNC(C)C(=O)NC(C(=O)N1Cc2cc([101O:1][101CH:1]=C(C)C(=O)Nc3cc(F)cc(C[100NH:0][100C:0](=O)N4CCCC(n5nc(-c6ccc(Oc7ccc(F)cc7F)cc6)c(C(N)=O)c5N)C4)c3C(F)(F)F)ccc2CC1C(=O)NC1CCCc2ccccc21)C(C)(C)C

> <Shape>
0.179

> <Color>
0.187

> <Negative vol penalty>
0.000

$$$$

  -OEChem-04052304333D

 89 97  0     1  0  0  0  0  0999 V2000
  -14.5448  -28.4826   28.2411 C   0  0  0  0  0  0  0  0  0  0  0  0
  -15.7311  -27.8186   27.9461 C   0  0  0  0  0  0  0  0  0  0  0  0
  -23.0040   -9.8883   19.9799 C   0  0  0  0  0  0  0  0  0  0  0  0
  -23.7244   -9.9448   22.2853 C   0  0  0  0  0  0  0  0  0  0  0  0
  -13.8623  -29.1676   27.2366 C   0  0  0  0  0  0  0  0  0  0  0  0
  -16.2352  -27.8382   26.6461 C   0  0  0  0  0  0  0  0  0  0  0  0
  -22.1287  -27.9340   24.9838 C   0  0  0  0  0  0  0  0  0  0  0  0
  -22.2382   -8.7535   20.2470 C   0  0  0  0  0  0  0  0  0  0  0  0
  -22.9585   -8.8100   22.5525 C   0  0  0  0  0  0  0  0  0  0  0  0
  -23.0032  -26.9298   24.5708 C   0  0  0  0  0  0  0  0  0  0  0  0
  -23.2075   -5.4704   22.0879 C   0  0  0  0  0  0  0  0  0  0  0  0
  -23.7947   -4.4554   22.8433 C   0  0  0  0  0  0  0  0  0  0  0  0
  -31.8419  -18.3559   24.1672 C   0  0  0  0  0  0  0  0  0  0  0  0
  -22.5332  -27.4756   22.2685 C   0  0  0  0  0  0  0  0  0  0  0  0
  -32.0485  -16.5587   22.5658 C   0  0  0  0  0  0  0  0  0  0  0  0
  -22.0671   -4.6998   24.5145 C   0  0  0  0  0  0  0  0  0  0  0  0
  -23.7472  -10.4839   20.9991 C   0  0  0  0  0  0  0  0  0  0  0  0
  -30.4587  -18.3570   23.9876 C   0  0  0  0  0  0  0  0  0  0  0  0
  -24.1300  -12.9996   20.8187 C   0  0  0  0  0  0  0  0  0  0  0  0
  -14.3633  -29.2037   25.9257 C   0  0  0  0  0  0  0  0  0  0  0  0
  -21.4403  -28.7106   24.0406 C   0  0  0  0  0  0  0  0  0  0  0  0
  -15.5581  -28.5231   25.6229 C   0  0  0  0  0  0  0  0  0  0  0  0
  -21.6524  -28.4907   22.6721 C   0  0  0  0  0  0  0  0  0  0  0  0
  -30.6652  -16.5598   22.3862 C   0  0  0  0  0  0  0  0  0  0  0  0
  -22.2154   -8.2143   21.5333 C   0  0  0  0  0  0  0  0  0  0  0  0
  -23.2034  -26.6985   23.2130 C   0  0  0  0  0  0  0  0  0  0  0  0
  -22.0502   -6.1002   22.5458 C   0  0  0  0  0  0  0  0  0  0  0  0
  -23.2244   -4.0701   24.0566 C   0  0  0  0  0  0  0  0  0  0  0  0
  -32.6368  -17.4567   23.4563 C   0  0  0  0  0  0  0  0  0  0  0  0
  -21.4800   -5.7149   23.7591 C   0  0  0  0  0  0  0  0  0  0  0  0
  -29.8703  -17.4589   23.0971 C   0  0  0  0  0  0  0  0  0  0  0  0
  -24.5389  -11.6558   20.7237 C   0  0  0  0  0  0  0  0  0  0  0  0
  -25.2397  -13.7226   20.4551 C   0  0  0  0  0  0  0  0  0  0  0  0
  -29.6198  -19.3102   24.7426 C   0  0  0  0  0  0  0  0  0  0  0  0
  -22.8607  -13.5454   21.2014 C   0  0  0  0  0  0  0  0  0  0  0  0
  -18.3786  -29.1830   23.3290 C   0  0  0  0  0  0  0  0  0  0  0  0
  -25.6321  -23.9251   23.2179 C   0  0  0  0  0  0  0  0  0  0  0  0
  -19.5947  -31.4139   21.3124 C   0  0  0  0  0  0  0  0  0  0  0  0
  -27.9987  -21.1866   24.5980 C   0  0  0  0  0  0  0  0  0  0  0  0
  -22.2524  -32.5222   19.4807 C   0  0  0  0  0  0  0  0  0  0  0  0
  -30.7176  -14.6903   20.6983 C   0  0  0  0  0  0  0  0  0  0  0  0
  -13.5657  -29.9175   24.8632 C   0  0  0  0  0  0  0  0  0  0  0  0
  -20.5208  -29.8077   24.5023 C   0  0  0  0  0  0  0  0  0  0  0  0
  -20.9532  -29.3102   21.6196 C   0  0  0  0  0  0  0  0  0  0  0  0
  -14.3624  -30.2037   23.5929 C   0  0  0  0  0  0  0  0  0  0  0  0
  -29.6069  -12.2314   18.3752 C   0  0  0  0  0  0  0  0  0  0  0  0
  -15.1375  -28.9639   23.1582 C   0  0  0  0  0  0  0  0  0  0  0  0
  -28.1557  -11.9730   18.7869 C   0  0  0  0  0  0  0  0  0  0  0  0
  -30.5046  -12.4783   19.5863 C   0  0  0  0  0  0  0  0  0  0  0  0
  -28.5856  -13.2678   20.9143 C   0  0  0  0  0  0  0  0  0  0  0  0
  -16.1497  -28.5421   24.2301 C   0  0  1  0  0  0  0  0  0  0  0  0
  -19.4811  -30.1960   23.4556 C   0  0  1  0  0  0  0  0  0  0  0  0
  -27.6306  -13.0779   19.7245 C   0  0  2  0  0  0  0  0  0  0  0  0
  -22.9323  -34.3526   17.9045 C   0  0  0  0  0  0  0  0  0  0  0  0
  -18.0184  -30.0680   19.0733 C   0  0  0  0  0  0  0  0  0  0  0  0
  -19.4434  -31.3000   17.4241 C   0  0  0  0  0  0  0  0  0  0  0  0
  -17.9937  -32.5679   19.0095 C   0  0  0  0  0  0  0  0  0  0  0  0
  -24.3791  -33.4657   21.3098 C   0  0  0  0  0  0  0  0  0  0  0  0
  -26.4052  -23.0696   24.2115 C   0  0  0  0  0  0  0  0  0  0  0  0
  -24.7122  -24.9655   23.8264 C   0  0  0  0  0  0  0  0  0  1  0  0
  -27.3138  -22.0358   23.5572 C   0  0  0  0  0  0  0  0  0  0  0  0
  -20.0686  -31.4145   19.8791 C   0  0  1  0  0  0  0  0  0  0  0  0
  -22.8859  -33.8959   19.3543 C   0  0  2  0  0  0  0  0  0  0  0  0
  -18.8929  -31.3207   18.8661 C   0  0  0  0  0  0  0  0  0  0  0  0
  -25.8091  -11.5299   20.3304 N   0  0  0  0  0  0  0  0  0  0  0  0
  -26.2080  -12.8038   20.1749 N   0  0  0  0  0  0  0  0  0  0  0  0
  -20.0592  -30.3670   22.1211 N   0  0  0  0  0  0  0  0  0  0  0  0
  -29.9467  -13.5404   20.4263 N   0  0  0  0  0  0  0  0  0  0  0  0
  -25.4719  -15.0484   20.3507 N   0  0  0  0  0  0  0  0  0  0  0  0
  -21.8291  -12.6608   21.5447 N   0  0  0  0  0  0  0  0  0  0  0  0
  -30.0707  -15.6464   21.4806 N   0  0  0  0  0  0  0  0  0  0  0  0
  -28.8776  -20.1828   24.0482 N   0  0  0  0  0  0  0  0  0  0  0  0
  -17.3169  -29.3967   24.1872 N   0  0  0  0  0  0  0  0  0  0  0  0
  -20.8977  -32.6049   19.7238 N   0  0  0  0  0  0  0  0  0  0  0  0
  -29.6555  -19.2512   26.0733 N   0  3  0  0  0  0  0  0  0  0  0  0
  -24.2782  -33.8751   19.8853 N   0  3  0  0  0  0  0  0  0  0  0  0
  -22.6425  -14.7805   21.2222 O   0  0  0  0  0  0  0  0  0  0  0  0
  -18.4828  -28.2755   22.5120 O   0  0  0  0  0  0  0  0  0  0  0  0
  -25.7296  -23.7837   22.0002 O   0  0  0  0  0  0  0  0  0  0  0  0
  -18.8458  -32.3134   21.7021 O   0  0  0  0  0  0  0  0  0  0  0  0
  -27.8540  -21.3279   25.8045 O   0  0  0  0  0  0  0  0  0  0  0  0
  -22.8944  -31.4799   19.3708 O   0  0  0  0  0  0  0  0  0  0  0  0
  -31.8571  -14.8296   20.2464 O   0  0  0  0  0  0  0  0  0  0  0  0
  -21.4681   -7.1072   21.7943 O   0  0  0  0  0  0  0  0  0  0  0  0
  -24.0559  -25.7185   22.8072 O   0  0  0  0  0  0  0  0  0  1  0  0
  -23.7875   -3.0943   24.7811 F   0  0  0  0  0  0  0  0  0  0  0  0
  -33.9650  -17.4556   23.6290 F   0  0  0  0  0  0  0  0  0  0  0  0
  -20.3675   -6.3154   24.2036 F   0  0  0  0  0  0  0  0  0  0  0  0
  -28.5398  -17.4614   22.9251 F   0  0  0  0  0  0  0  0  0  0  0  0
  1  2  1  0  0  0  0
  1  5  2  0  0  0  0
  2  6  2  0  0  0  0
  3  8  2  0  0  0  0
  3 17  1  0  0  0  0
  4  9  1  0  0  0  0
  4 17  2  0  0  0  0
  5 20  1  0  0  0  0
  6 22  1  0  0  0  0
  7 10  2  0  0  0  0
  7 21  1  0  0  0  0
  8 25  1  0  0  0  0
  9 25  2  0  0  0  0
 10 26  1  0  0  0  0
 11 12  2  0  0  0  0
 11 27  1  0  0  0  0
 12 28  1  0  0  0  0
 13 18  1  0  0  0  0
 13 29  2  0  0  0  0
 14 23  1  0  0  0  0
 14 26  2  0  0  0  0
 15 24  2  0  0  0  0
 15 29  1  0  0  0  0
 16 28  2  0  0  0  0
 16 30  1  0  0  0  0
 17 32  1  0  0  0  0
 18 31  2  0  0  0  0
 18 34  1  0  0  0  0
 19 32  1  0  0  0  0
 19 33  2  0  0  0  0
 19 35  1  0  0  0  0
 20 22  2  0  0  0  0
 20 42  1  0  0  0  0
 21 23  2  0  0  0  0
 21 43  1  0  0  0  0
 22 51  1  0  0  0  0
 23 44  1  0  0  0  0
 24 31  1  0  0  0  0
 24 71  1  0  0  0  0
 25 84  1  0  0  0  0
 26 85  1  0  0  0  0
 27 30  2  0  0  0  0
 27 84  1  0  0  0  0
 28 86  1  0  0  0  0
 29 87  1  0  0  0  0
 30 88  1  0  0  0  0
 31 89  1  0  0  0  0
 32 65  2  0  0  0  0
 33 66  1  0  0  0  0
 33 69  1  0  0  0  0
 34 72  1  0  0  0  0
 34 75  2  0  0  0  0
 35 70  1  0  0  0  0
 35 77  2  0  0  0  0
 36 52  1  0  0  0  0
 36 73  1  0  0  0  0
 36 78  2  0  0  0  0
 37 59  1  0  0  0  0
 37 60  1  0  0  0  0
 37 79  2  0  0  0  0
 38 62  1  0  0  0  0
 38 67  1  0  0  0  0
 38 80  2  0  0  0  0
 39 61  1  0  0  0  0
 39 72  1  0  0  0  0
 39 81  2  0  0  0  0
 40 63  1  0  0  0  0
 40 74  1  0  0  0  0
 40 82  2  0  0  0  0
 41 68  1  0  0  0  0
 41 71  1  0  0  0  0
 41 83  2  0  0  0  0
 42 45  1  0  0  0  0
 43 52  1  0  0  0  0
 44 67  1  0  0  0  0
 45 47  1  0  0  0  0
 46 48  1  0  0  0  0
 46 49  1  0  0  0  0
 47 51  1  0  0  0  0
 48 53  1  0  0  0  0
 49 68  1  0  0  0  0
 50 53  1  0  0  0  0
 50 68  1  0  0  0  0
 51 73  1  0  0  0  0
 52 67  1  0  0  0  0
 53 66  1  0  0  0  0
 54 63  1  0  0  0  0
 55 64  1  0  0  0  0
 56 64  1  0  0  0  0
 57 64  1  0  0  0  0
 58 76  1  0  0  0  0
 59 61  1  0  0  0  0
 60 85  1  0  0  0  0
 62 64  1  0  0  0  0
 62 74  1  0  0  0  0
 63 76  1  0  0  0  0
 65 66  1  0  0  0  0
M  CHG  2  75   1  76   1
M  ISO  4  41 100  60 101  71 100  85 101
M  END
> <Batch ID>
0174

> <Smiles>
CNC(C)C(=O)NC(C(=O)N1Cc2cc([101O:1][101CH2:1]C(=O)CCC(=O)NC(=N)c3cc(F)cc([100NH:0][100C:0](=O)N4CCCC(n5nc(-c6ccc(Oc7ccc(F)cc7F)cc6)c(C(N)=O)c5N)C4)c3F)ccc2CC1C(=O)NC1CCCc2ccccc21)C(C)(C)C

> <Shape>
0.244

> <Color>
0.190

> <Negative vol penalty>
0.000

$$$$

  -OEChem-04052304333D

 90 98  0     1  0  0  0  0  0999 V2000
  -18.5893  -27.5832   21.4072 C   0  0  0  0  0  0  0  0  0  0  0  0
  -19.5966  -26.6744   21.7150 C   0  0  0  0  0  0  0  0  0  0  0  0
  -23.0328   -9.9189   20.0292 C   0  0  0  0  0  0  0  0  0  0  0  0
  -23.7456  -10.0335   22.3348 C   0  0  0  0  0  0  0  0  0  0  0  0
  -18.0537  -28.3936   22.4074 C   0  0  0  0  0  0  0  0  0  0  0  0
  -20.0697  -26.5762   23.0230 C   0  0  0  0  0  0  0  0  0  0  0  0
  -20.5887  -21.7744   24.5458 C   0  0  0  0  0  0  0  0  0  0  0  0
  -32.1619  -16.5347   22.4531 C   0  0  0  0  0  0  0  0  0  0  0  0
  -22.2499   -8.8034   20.3267 C   0  0  0  0  0  0  0  0  0  0  0  0
  -22.9627   -8.9180   22.6323 C   0  0  0  0  0  0  0  0  0  0  0  0
  -21.7114  -21.0814   24.0954 C   0  0  0  0  0  0  0  0  0  0  0  0
  -19.7006   -8.2481   23.2071 C   0  0  0  0  0  0  0  0  0  0  0  0
  -32.7596  -17.4499   23.3196 C   0  0  0  0  0  0  0  0  0  0  0  0
  -18.9191   -8.2960   24.3614 C   0  0  0  0  0  0  0  0  0  0  0  0
  -22.7995  -21.4814   26.2109 C   0  0  0  0  0  0  0  0  0  0  0  0
  -20.0870   -6.3684   25.2320 C   0  0  0  0  0  0  0  0  0  0  0  0
  -23.7807  -10.5339   21.0333 C   0  0  0  0  0  0  0  0  0  0  0  0
  -30.5924  -18.3954   23.8159 C   0  0  0  0  0  0  0  0  0  0  0  0
  -24.1999  -13.0375   20.7801 C   0  0  0  0  0  0  0  0  0  0  0  0
  -18.5137  -28.2985   23.7302 C   0  0  0  0  0  0  0  0  0  0  0  0
  -20.5671  -22.3364   25.8304 C   0  0  0  0  0  0  0  0  0  0  0  0
  -19.5407  -27.3870   24.0416 C   0  0  0  0  0  0  0  0  0  0  0  0
  -21.6743  -22.1788   26.6762 C   0  0  0  0  0  0  0  0  0  0  0  0
  -30.7795  -16.5499   22.2680 C   0  0  0  0  0  0  0  0  0  0  0  0
  -22.2149   -8.3030   21.6282 C   0  0  0  0  0  0  0  0  0  0  0  0
  -22.8182  -20.9373   24.9269 C   0  0  0  0  0  0  0  0  0  0  0  0
  -20.6753   -7.2604   23.0651 C   0  0  0  0  0  0  0  0  0  0  0  0
  -19.1123   -7.3561   25.3739 C   0  0  0  0  0  0  0  0  0  0  0  0
  -31.9749  -18.3802   24.0010 C   0  0  0  0  0  0  0  0  0  0  0  0
  -20.8685   -6.3206   24.0776 C   0  0  0  0  0  0  0  0  0  0  0  0
  -29.9947  -17.4802   22.9493 C   0  0  0  0  0  0  0  0  0  0  0  0
  -24.5900  -11.6859   20.7265 C   0  0  0  0  0  0  0  0  0  0  0  0
  -25.3211  -13.7337   20.3998 C   0  0  0  0  0  0  0  0  0  0  0  0
  -29.7568  -19.3865   24.5415 C   0  0  0  0  0  0  0  0  0  0  0  0
  -22.9371  -13.6122   21.1415 C   0  0  0  0  0  0  0  0  0  0  0  0
  -20.3054  -25.2868   26.9839 C   0  0  0  0  0  0  0  0  0  0  0  0
  -26.2879  -20.3937   24.0181 C   0  0  0  0  0  0  0  0  0  0  0  0
  -20.1902  -23.7437   29.8348 C   0  0  0  0  0  0  0  0  0  0  0  0
  -20.9559  -20.9609   31.6560 C   0  0  0  0  0  0  0  0  0  0  0  0
  -30.8113  -14.6308   20.6363 C   0  0  0  0  0  0  0  0  0  0  0  0
  -17.9372  -29.2287   24.7680 C   0  0  0  0  0  0  0  0  0  0  0  0
  -19.3380  -23.0580   26.3111 C   0  0  0  0  0  0  0  0  0  0  0  0
  -21.6935  -22.7458   28.0714 C   0  0  0  0  0  0  0  0  0  0  0  0
  -18.2326  -28.7989   26.2026 C   0  0  0  0  0  0  0  0  0  0  0  0
  -29.6740  -12.1201   18.3824 C   0  0  0  0  0  0  0  0  0  0  0  0
  -19.7026  -28.4209   26.3547 C   0  0  0  0  0  0  0  0  0  0  0  0
  -28.2179  -11.8945   18.7957 C   0  0  0  0  0  0  0  0  0  0  0  0
  -30.5709  -12.3900   19.5893 C   0  0  0  0  0  0  0  0  0  0  0  0
  -28.6586  -13.2455   20.8856 C   0  0  0  0  0  0  0  0  0  0  0  0
  -20.0630  -27.2337   25.4536 C   0  0  1  0  0  0  0  0  0  0  0  0
  -19.6239  -24.0316   27.4503 C   0  0  1  0  0  0  0  0  0  0  0  0
  -27.7052  -13.0340   19.6981 C   0  0  2  0  0  0  0  0  0  0  0  0
  -20.7678  -20.0074   33.9696 C   0  0  0  0  0  0  0  0  0  0  0  0
  -22.4728  -25.5448   30.7601 C   0  0  0  0  0  0  0  0  0  0  0  0
  -22.8663  -23.9555   32.6541 C   0  0  0  0  0  0  0  0  0  0  0  0
  -20.6892  -25.1593   32.4703 C   0  0  0  0  0  0  0  0  0  0  0  0
  -19.3134  -18.6875   30.7109 C   0  0  0  0  0  0  0  0  0  0  0  0
  -25.1791  -20.6650   25.0163 C   0  0  0  0  0  0  0  0  0  1  0  0
  -27.6956  -20.7653   24.4605 C   0  0  2  0  0  0  0  0  0  0  0  0
  -21.2140  -23.2923   30.8483 C   0  0  1  0  0  0  0  0  0  0  0  0
  -20.1207  -20.1118   32.5973 C   0  0  2  0  0  0  0  0  0  0  0  0
  -21.8113  -24.4788   31.6562 C   0  0  0  0  0  0  0  0  0  0  0  0
  -28.0408  -22.1718   24.0241 C   0  0  0  0  0  0  0  0  0  0  0  0
  -25.8597  -11.5305   20.3422 N   0  0  0  0  0  0  0  0  0  0  0  0
  -26.2772  -12.7935   20.1508 N   0  0  0  0  0  0  0  0  0  0  0  0
  -20.4704  -23.4483   28.4932 N   0  0  0  0  0  0  0  0  0  0  0  0
  -30.0251  -13.4843   20.3952 N   0  0  0  0  0  0  0  0  0  0  0  0
  -25.5725  -15.0524   20.2573 N   0  0  0  0  0  0  0  0  0  0  0  0
  -21.8919  -12.7528   21.5066 N   0  0  0  0  0  0  0  0  0  0  0  0
  -30.1752  -15.6186   21.3874 N   0  0  0  0  0  0  0  0  0  0  0  0
  -28.5955  -19.7933   23.8972 N   0  0  0  0  0  0  0  0  0  0  0  0
  -19.5918  -25.9956   26.0363 N   0  0  0  0  0  0  0  0  0  0  0  0
  -20.5573  -22.2808   31.6692 N   0  0  0  0  0  0  0  0  0  0  0  0
  -19.9590  -18.7359   32.0480 N   0  3  0  0  0  0  0  0  0  0  0  0
  -30.1320  -19.8020   25.6347 O   0  0  0  0  0  0  0  0  0  0  0  0
  -22.7365  -14.8504   21.1249 O   0  0  0  0  0  0  0  0  0  0  0  0
  -21.3971  -25.5906   27.4503 O   0  0  0  0  0  0  0  0  0  0  0  0
  -26.0551  -19.9279   22.9024 O   0  0  0  0  0  0  0  0  0  0  0  0
  -19.1758  -24.3302   30.2201 O   0  0  0  0  0  0  0  0  0  0  0  0
  -21.8727  -20.5000   30.9795 O   0  0  0  0  0  0  0  0  0  0  0  0
  -31.9542  -14.7405   20.1850 O   0  0  0  0  0  0  0  0  0  0  0  0
  -21.4509   -7.2147   21.9189 O   0  0  0  0  0  0  0  0  0  0  0  0
  -23.9157  -20.2619   24.4895 O   0  0  0  0  0  0  0  0  0  1  0  0
  -18.3628   -7.4031   26.4830 F   0  0  0  0  0  0  0  0  0  0  0  0
  -32.5610  -19.2545   24.8310 F   0  0  0  0  0  0  0  0  0  0  0  0
  -21.8041   -5.3701   23.9474 F   0  0  0  0  0  0  0  0  0  0  0  0
  -28.6648  -17.4949   22.7713 F   0  0  0  0  0  0  0  0  0  0  0  0
  -29.3023  -22.4974   24.3833 F   0  0  0  0  0  0  0  0  0  0  0  0
  -27.2081  -23.0860   24.5665 F   0  0  0  0  0  0  0  0  0  0  0  0
  -27.9632  -22.2911   22.6795 F   0  0  0  0  0  0  0  0  0  0  0  0
  1  2  1  0  0  0  0
  1  5  2  0  0  0  0
  2  6  2  0  0  0  0
  3  9  2  0  0  0  0
  3 17  1  0  0  0  0
  4 10  1  0  0  0  0
  4 17  2  0  0  0  0
  5 20  1  0  0  0  0
  6 22  1  0  0  0  0
  7 11  2  0  0  0  0
  7 21  1  0  0  0  0
  8 13  1  0  0  0  0
  8 24  2  0  0  0  0
  9 25  1  0  0  0  0
 10 25  2  0  0  0  0
 11 26  1  0  0  0  0
 12 14  2  0  0  0  0
 12 27  1  0  0  0  0
 13 29  2  0  0  0  0
 14 28  1  0  0  0  0
 15 23  1  0  0  0  0
 15 26  2  0  0  0  0
 16 28  2  0  0  0  0
 16 30  1  0  0  0  0
 17 32  1  0  0  0  0
 18 29  1  0  0  0  0
 18 31  2  0  0  0  0
 18 34  1  0  0  0  0
 19 32  1  0  0  0  0
 19 33  2  0  0  0  0
 19 35  1  0  0  0  0
 20 22  2  0  0  0  0
 20 41  1  0  0  0  0
 21 23  2  0  0  0  0
 21 42  1  0  0  0  0
 22 50  1  0  0  0  0
 23 43  1  0  0  0  0
 24 31  1  0  0  0  0
 24 70  1  0  0  0  0
 25 82  1  0  0  0  0
 26 83  1  0  0  0  0
 27 30  2  0  0  0  0
 27 82  1  0  0  0  0
 28 84  1  0  0  0  0
 29 85  1  0  0  0  0
 30 86  1  0  0  0  0
 31 87  1  0  0  0  0
 32 64  2  0  0  0  0
 33 65  1  0  0  0  0
 33 68  1  0  0  0  0
 34 71  1  0  0  0  0
 34 75  2  0  0  0  0
 35 69  1  0  0  0  0
 35 76  2  0  0  0  0
 36 51  1  0  0  0  0
 36 72  1  0  0  0  0
 36 77  2  0  0  0  0
 37 58  1  0  0  0  0
 37 59  1  0  0  0  0
 37 78  2  0  0  0  0
 38 60  1  0  0  0  0
 38 66  1  0  0  0  0
 38 79  2  0  0  0  0
 39 61  1  0  0  0  0
 39 73  1  0  0  0  0
 39 80  2  0  0  0  0
 40 67  1  0  0  0  0
 40 70  1  0  0  0  0
 40 81  2  0  0  0  0
 41 44  1  0  0  0  0
 42 51  1  0  0  0  0
 43 66  1  0  0  0  0
 44 46  1  0  0  0  0
 45 47  1  0  0  0  0
 45 48  1  0  0  0  0
 46 50  1  0  0  0  0
 47 52  1  0  0  0  0
 48 67  1  0  0  0  0
 49 52  1  0  0  0  0
 49 67  1  0  0  0  0
 50 72  1  0  0  0  0
 51 66  1  0  0  0  0
 52 65  1  0  0  0  0
 53 61  1  0  0  0  0
 54 62  1  0  0  0  0
 55 62  1  0  0  0  0
 56 62  1  0  0  0  0
 57 74  1  0  0  0  0
 58 83  1  0  0  0  0
 59 63  1  0  0  0  0
 59 71  1  0  0  0  0
 60 62  1  0  0  0  0
 60 73  1  0  0  0  0
 61 74  1  0  0  0  0
 63 88  1  0  0  0  0
 63 89  1  0  0  0  0
 63 90  1  0  0  0  0
 64 65  1  0  0  0  0
M  CHG  1  74   1
M  ISO  4  40 100  58 101  70 100  83 101
M  END
> <Batch ID>
0174

> <Smiles>
CNC(C)C(=O)NC(C(=O)N1Cc2cc([101O:1][101CH2:1]C(=O)C(NC(=O)c3c(F)ccc([100NH:0][100C:0](=O)N4CCCC(n5nc(-c6ccc(Oc7ccc(F)cc7F)cc6)c(C(N)=O)c5N)C4)c3F)C(F)(F)F)ccc2CC1C(=O)NC1CCCc2ccccc21)C(C)(C)C

> <Shape>
0.203

> <Color>
0.203

> <Negative vol penalty>
0.000

$$$$

  -OEChem-04052304333D

 90 98  0     1  0  0  0  0  0999 V2000
  -24.1234  -35.0556   22.0676 C   0  0  0  0  0  0  0  0  0  0  0  0
  -24.9742  -33.9627   21.9368 C   0  0  0  0  0  0  0  0  0  0  0  0
  -22.2289  -10.2266   22.4490 C   0  0  0  0  0  0  0  0  0  0  0  0
  -23.8161   -9.8594   20.6650 C   0  0  0  0  0  0  0  0  0  0  0  0
  -27.4159  -21.2785   20.3921 C   0  0  0  0  0  0  0  0  0  0  0  0
  -22.8997  -34.9108   22.7199 C   0  0  0  0  0  0  0  0  0  0  0  0
  -24.6023  -32.7245   22.4593 C   0  0  0  0  0  0  0  0  0  0  0  0
  -25.5060  -28.9116   19.2515 C   0  0  0  0  0  0  0  0  0  0  0  0
  -26.5377  -20.3165   19.8930 C   0  0  0  0  0  0  0  0  0  0  0  0
  -21.7809   -8.9118   22.3212 C   0  0  0  0  0  0  0  0  0  0  0  0
  -23.3682   -8.5446   20.5371 C   0  0  0  0  0  0  0  0  0  0  0  0
  -26.8225  -28.4645   19.1486 C   0  0  0  0  0  0  0  0  0  0  0  0
  -22.8048   -5.8291   23.2599 C   0  0  0  0  0  0  0  0  0  0  0  0
  -22.6206   -5.0904   24.4286 C   0  0  0  0  0  0  0  0  0  0  0  0
  -26.3042  -26.6196   20.6139 C   0  0  0  0  0  0  0  0  0  0  0  0
  -20.2855   -4.8032   23.8792 C   0  0  0  0  0  0  0  0  0  0  0  0
  -23.2464  -10.7004   21.6209 C   0  0  0  0  0  0  0  0  0  0  0  0
  -28.7048  -20.9121   20.7796 C   0  0  0  0  0  0  0  0  0  0  0  0
  -24.7476  -12.5267   22.5794 C   0  0  0  0  0  0  0  0  0  0  0  0
  -22.5083  -33.6679   23.2421 C   0  0  0  0  0  0  0  0  0  0  0  0
  -24.5799  -28.2210   20.0464 C   0  0  0  0  0  0  0  0  0  0  0  0
  -23.3728  -32.5633   23.1204 C   0  0  0  0  0  0  0  0  0  0  0  0
  -24.9759  -27.0585   20.7232 C   0  0  0  0  0  0  0  0  0  0  0  0
  -26.9484  -18.9882   19.7816 C   0  0  0  0  0  0  0  0  0  0  0  0
  -29.1155  -19.5838   20.6682 C   0  0  0  0  0  0  0  0  0  0  0  0
  -22.3506   -8.0708   21.3652 C   0  0  0  0  0  0  0  0  0  0  0  0
  -27.2226  -27.3201   19.8322 C   0  0  0  0  0  0  0  0  0  0  0  0
  -21.7293   -6.0549   22.4007 C   0  0  0  0  0  0  0  0  0  0  0  0
  -21.3610   -4.5775   24.7383 C   0  0  0  0  0  0  0  0  0  0  0  0
  -20.4697   -5.5419   22.7104 C   0  0  0  0  0  0  0  0  0  0  0  0
  -28.2373  -18.6218   20.1692 C   0  0  0  0  0  0  0  0  0  0  0  0
  -23.7092  -12.0586   21.7521 C   0  0  0  0  0  0  0  0  0  0  0  0
  -24.7936  -13.8786   22.3409 C   0  0  0  0  0  0  0  0  0  0  0  0
  -29.6152  -21.9495   21.3047 C   0  0  0  0  0  0  0  0  0  0  0  0
  -25.5949  -11.8042   23.4825 C   0  0  0  0  0  0  0  0  0  0  0  0
  -22.8540  -28.9397   22.6171 C   0  0  0  0  0  0  0  0  0  0  0  0
  -30.2996  -25.3295   20.2245 C   0  0  0  0  0  0  0  0  0  0  0  0
  -21.5577  -26.0142   22.0846 C   0  0  0  0  0  0  0  0  0  0  0  0
  -21.8894  -22.9027   20.7226 C   0  0  0  0  0  0  0  0  0  0  0  0
  -24.7418  -18.2127   18.8458 C   0  0  0  0  0  0  0  0  0  0  0  0
  -21.1968  -33.5713   23.9806 C   0  0  0  0  0  0  0  0  0  0  0  0
  -23.1566  -28.7010   20.1257 C   0  0  0  0  0  0  0  0  0  0  0  0
  -24.0151  -26.2697   21.5735 C   0  0  0  0  0  0  0  0  0  0  0  0
  -20.7125  -32.1371   24.1768 C   0  0  0  0  0  0  0  0  0  0  0  0
  -21.5877  -16.8932   19.8398 C   0  0  0  0  0  0  0  0  0  0  0  0
  -21.8514  -31.2523   24.6736 C   0  0  0  0  0  0  0  0  0  0  0  0
  -21.9439  -15.5563   20.4939 C   0  0  0  0  0  0  0  0  0  0  0  0
  -22.4844  -17.1944   18.6402 C   0  0  0  0  0  0  0  0  0  0  0  0
  -24.2824  -15.7859   19.5636 C   0  0  0  0  0  0  0  0  0  0  0  0
  -22.9938  -31.1981   23.6520 C   0  0  1  0  0  0  0  0  0  0  0  0
  -22.4292  -28.2107   21.3738 C   0  0  1  0  0  0  0  0  0  0  0  0
  -23.4486  -15.4697   20.8160 C   0  0  2  0  0  0  0  0  0  0  0  0
  -20.6786  -20.7176   20.4836 C   0  0  0  0  0  0  0  0  0  0  0  0
  -22.2324  -25.3265   24.9798 C   0  0  0  0  0  0  0  0  0  0  0  0
  -21.8923  -22.9118   24.4123 C   0  0  0  0  0  0  0  0  0  0  0  0
  -19.9945  -24.5181   24.2098 C   0  0  0  0  0  0  0  0  0  0  0  0
  -21.8499  -23.1146   17.7709 C   0  0  0  0  0  0  0  0  0  0  0  0
  -28.8485  -25.7024   20.4610 C   0  0  0  0  0  0  0  0  0  1  0  0
  -30.7986  -24.0838   20.9284 C   0  0  2  0  0  0  0  0  0  0  0  0
  -21.8781  -24.6065   22.5258 C   0  0  1  0  0  0  0  0  0  0  0  0
  -20.9539  -22.0764   19.8585 C   0  0  2  0  0  0  0  0  0  0  0  0
  -21.5182  -24.3564   24.0175 C   0  0  0  0  0  0  0  0  0  0  0  0
  -32.2188  -23.7470   20.5431 C   0  0  0  0  0  0  0  0  0  0  0  0
  -23.1367  -13.0339   21.0414 N   0  0  0  0  0  0  0  0  0  0  0  0
  -23.8177  -14.1283   21.4214 N   0  0  0  0  0  0  0  0  0  0  0  0
  -22.6361  -26.7829   21.6243 N   0  0  0  0  0  0  0  0  0  0  0  0
  -23.8951  -17.0977   19.0214 N   0  0  0  0  0  0  0  0  0  0  0  0
  -30.4174  -19.1970   21.0564 N   0  0  0  0  0  0  0  0  0  0  0  0
  -25.5731  -14.8661   22.8303 N   0  0  0  0  0  0  0  0  0  0  0  0
  -25.4129  -10.4200   23.6065 N   0  0  0  0  0  0  0  0  0  0  0  0
  -26.0538  -18.0135   19.2742 N   0  0  0  0  0  0  0  0  0  0  0  0
  -29.9258  -22.9890   20.5159 N   0  0  0  0  0  0  0  0  0  0  0  0
  -22.6563  -30.3062   22.5633 N   0  0  0  0  0  0  0  0  0  0  0  0
  -21.1954  -23.7200   21.5896 N   0  0  0  0  0  0  0  0  0  0  0  0
  -30.0891  -21.8018   22.5419 N   0  3  0  0  0  0  0  0  0  0  0  0
  -21.5496  -21.8611   18.5095 N   0  3  0  0  0  0  0  0  0  0  0  0
  -26.4760  -12.3717   24.1718 O   0  0  0  0  0  0  0  0  0  0  0  0
  -23.3247  -28.3088   23.5564 O   0  0  0  0  0  0  0  0  0  0  0  0
  -31.0321  -26.0135   19.5091 O   0  0  0  0  0  0  0  0  0  0  0  0
  -20.3922  -26.4146   22.1396 O   0  0  0  0  0  0  0  0  0  0  0  0
  -23.1133  -22.8276   20.6396 O   0  0  0  0  0  0  0  0  0  0  0  0
  -24.3264  -19.2756   18.3770 O   0  0  0  0  0  0  0  0  0  0  0  0
  -21.9140   -6.7877   21.2404 O   0  0  0  0  0  0  0  0  0  0  0  0
  -28.5072  -26.8819   19.7340 O   0  0  0  0  0  0  0  0  0  1  0  0
  -21.1846   -3.8669   25.8599 F   0  0  0  0  0  0  0  0  0  0  0  0
  -19.4330   -5.7546   21.8883 F   0  0  0  0  0  0  0  0  0  0  0  0
  -28.6320  -17.3436   20.0618 F   0  0  0  0  0  0  0  0  0  0  0  0
  -32.6266  -22.5971   21.1222 F   0  0  0  0  0  0  0  0  0  0  0  0
  -33.0802  -24.7215   20.9056 F   0  0  0  0  0  0  0  0  0  0  0  0
  -32.3250  -23.5812   19.2053 F   0  0  0  0  0  0  0  0  0  0  0  0
  1  2  1  0  0  0  0
  1  6  2  0  0  0  0
  2  7  2  0  0  0  0
  3 10  2  0  0  0  0
  3 17  1  0  0  0  0
  4 11  1  0  0  0  0
  4 17  2  0  0  0  0
  5  9  2  0  0  0  0
  5 18  1  0  0  0  0
  6 20  1  0  0  0  0
  7 22  1  0  0  0  0
  8 12  2  0  0  0  0
  8 21  1  0  0  0  0
  9 24  1  0  0  0  0
 10 26  1  0  0  0  0
 11 26  2  0  0  0  0
 12 27  1  0  0  0  0
 13 14  2  0  0  0  0
 13 28  1  0  0  0  0
 14 29  1  0  0  0  0
 15 23  1  0  0  0  0
 15 27  2  0  0  0  0
 16 29  2  0  0  0  0
 16 30  1  0  0  0  0
 17 32  1  0  0  0  0
 18 25  2  0  0  0  0
 18 34  1  0  0  0  0
 19 32  1  0  0  0  0
 19 33  2  0  0  0  0
 19 35  1  0  0  0  0
 20 22  2  0  0  0  0
 20 41  1  0  0  0  0
 21 23  2  0  0  0  0
 21 42  1  0  0  0  0
 22 50  1  0  0  0  0
 23 43  1  0  0  0  0
 24 31  2  0  0  0  0
 24 71  1  0  0  0  0
 25 31  1  0  0  0  0
 25 68  1  0  0  0  0
 26 83  1  0  0  0  0
 27 84  1  0  0  0  0
 28 30  2  0  0  0  0
 28 83  1  0  0  0  0
 29 85  1  0  0  0  0
 30 86  1  0  0  0  0
 31 87  1  0  0  0  0
 32 64  2  0  0  0  0
 33 65  1  0  0  0  0
 33 69  1  0  0  0  0
 34 72  1  0  0  0  0
 34 75  2  0  0  0  0
 35 70  1  0  0  0  0
 35 77  2  0  0  0  0
 36 51  1  0  0  0  0
 36 73  1  0  0  0  0
 36 78  2  0  0  0  0
 37 58  1  0  0  0  0
 37 59  1  0  0  0  0
 37 79  2  0  0  0  0
 38 60  1  0  0  0  0
 38 66  1  0  0  0  0
 38 80  2  0  0  0  0
 39 61  1  0  0  0  0
 39 74  1  0  0  0  0
 39 81  2  0  0  0  0
 40 67  1  0  0  0  0
 40 71  1  0  0  0  0
 40 82  2  0  0  0  0
 41 44  1  0  0  0  0
 42 51  1  0  0  0  0
 43 66  1  0  0  0  0
 44 46  1  0  0  0  0
 45 47  1  0  0  0  0
 45 48  1  0  0  0  0
 46 50  1  0  0  0  0
 47 52  1  0  0  0  0
 48 67  1  0  0  0  0
 49 52  1  0  0  0  0
 49 67  1  0  0  0  0
 50 73  1  0  0  0  0
 51 66  1  0  0  0  0
 52 65  1  0  0  0  0
 53 61  1  0  0  0  0
 54 62  1  0  0  0  0
 55 62  1  0  0  0  0
 56 62  1  0  0  0  0
 57 76  1  0  0  0  0
 58 84  1  0  0  0  0
 59 63  1  0  0  0  0
 59 72  1  0  0  0  0
 60 62  1  0  0  0  0
 60 74  1  0  0  0  0
 61 76  1  0  0  0  0
 63 88  1  0  0  0  0
 63 89  1  0  0  0  0
 63 90  1  0  0  0  0
 64 65  1  0  0  0  0
M  CHG  2  75   1  76   1
M  ISO  4  40 100  58 101  71 100  84 101
M  END
> <Batch ID>
0174

> <Smiles>
CNC(C)C(=O)NC(C(=O)N1Cc2cc([101O:1][101CH2:1]C(=O)C(NC(=N)c3ccc([100NH:0][100C:0](=O)N4CCCC(n5nc(-c6ccc(Oc7ccc(F)cc7F)cc6)c(C(N)=O)c5N)C4)c(F)c3N)C(F)(F)F)ccc2CC1C(=O)NC1CCCc2ccccc21)C(C)(C)C

> <Shape>
0.236

> <Color>
0.107

> <Negative vol penalty>
0.000

$$$$

  -OEChem-04052304333D

 89 97  0     1  0  0  0  0  0999 V2000
  -19.4433  -15.6007   17.9625 C   0  0  0  0  0  0  0  0  0  0  0  0
  -20.3657  -16.6234   18.1593 C   0  0  0  0  0  0  0  0  0  0  0  0
  -19.3286  -20.3378   22.9865 C   0  0  0  0  0  0  0  0  0  0  0  0
  -21.6504  -20.1466   22.3463 C   0  0  0  0  0  0  0  0  0  0  0  0
  -19.6746  -14.3399   18.5108 C   0  0  0  0  0  0  0  0  0  0  0  0
  -21.5196  -16.3860   18.9055 C   0  0  0  0  0  0  0  0  0  0  0  0
  -27.0650  -18.8158   17.9833 C   0  0  0  0  0  0  0  0  0  0  0  0
  -19.1078  -19.0223   22.5788 C   0  0  0  0  0  0  0  0  0  0  0  0
  -21.4296  -18.8310   21.9387 C   0  0  0  0  0  0  0  0  0  0  0  0
  -27.7307  -19.8866   18.5783 C   0  0  0  0  0  0  0  0  0  0  0  0
  -19.6527  -15.9137   23.7924 C   0  0  0  0  0  0  0  0  0  0  0  0
  -18.9107  -15.0889   24.6379 C   0  0  0  0  0  0  0  0  0  0  0  0
  -28.8497  -18.3548   20.0686 C   0  0  0  0  0  0  0  0  0  0  0  0
  -25.9016  -26.7699   19.8391 C   0  0  0  0  0  0  0  0  0  0  0  0
  -24.9384  -28.9852   19.8795 C   0  0  0  0  0  0  0  0  0  0  0  0
  -17.2737  -14.7698   22.8898 C   0  0  0  0  0  0  0  0  0  0  0  0
  -20.5999  -20.9000   22.8702 C   0  0  0  0  0  0  0  0  0  0  0  0
  -21.2177  -22.6992   24.5699 C   0  0  0  0  0  0  0  0  0  0  0  0
  -20.8366  -14.0843   19.2560 C   0  0  0  0  0  0  0  0  0  0  0  0
  -27.2788  -17.5054   18.4344 C   0  0  0  0  0  0  0  0  0  0  0  0
  -21.7660  -15.1209   19.4654 C   0  0  0  0  0  0  0  0  0  0  0  0
  -28.1874  -17.2690   19.4759 C   0  0  0  0  0  0  0  0  0  0  0  0
  -27.3387  -28.7111   19.8998 C   0  0  0  0  0  0  0  0  0  0  0  0
  -24.7805  -27.5997   19.8458 C   0  0  0  0  0  0  0  0  0  0  0  0
  -27.1808  -27.3256   19.8661 C   0  0  0  0  0  0  0  0  0  0  0  0
  -20.1583  -18.2689   22.0550 C   0  0  0  0  0  0  0  0  0  0  0  0
  -28.6210  -19.6565   19.6231 C   0  0  0  0  0  0  0  0  0  0  0  0
  -19.2051  -16.1666   22.4957 C   0  0  0  0  0  0  0  0  0  0  0  0
  -17.7212  -14.5170   24.1866 C   0  0  0  0  0  0  0  0  0  0  0  0
  -26.2176  -29.5409   19.9065 C   0  0  0  0  0  0  0  0  0  0  0  0
  -18.0157  -15.5946   22.0444 C   0  0  0  0  0  0  0  0  0  0  0  0
  -20.8285  -22.2591   23.2906 C   0  0  0  0  0  0  0  0  0  0  0  0
  -21.2988  -24.0653   24.4531 C   0  0  0  0  0  0  0  0  0  0  0  0
  -21.4822  -21.9408   25.7576 C   0  0  0  0  0  0  0  0  0  0  0  0
  -29.6110  -24.4928   20.1098 C   0  0  0  0  0  0  0  0  0  0  0  0
  -29.7872  -23.0298   20.4671 C   0  0  0  0  0  0  0  0  0  0  0  0
  -25.4490  -15.2530   19.7314 C   0  0  0  0  0  0  0  0  0  0  0  0
  -28.1237  -13.4453   19.4139 C   0  0  0  0  0  0  0  0  0  0  0  0
  -31.5229  -13.3248   19.1350 C   0  0  0  0  0  0  0  0  0  0  0  0
  -22.2641  -27.7162   19.8224 C   0  0  0  0  0  0  0  0  0  0  0  0
  -21.0201  -12.7185   19.8688 C   0  0  0  0  0  0  0  0  0  0  0  0
  -26.5731  -16.3586   17.7642 C   0  0  0  0  0  0  0  0  0  0  0  0
  -28.4674  -15.8789   19.9836 C   0  0  0  0  0  0  0  0  0  0  0  0
  -22.4491  -12.4454   20.3312 C   0  0  0  0  0  0  0  0  0  0  0  0
  -19.4417  -27.7303   21.9929 C   0  0  0  0  0  0  0  0  0  0  0  0
  -22.9919  -13.6340   21.1182 C   0  0  0  0  0  0  0  0  0  0  0  0
  -19.5159  -26.3714   22.6929 C   0  0  0  0  0  0  0  0  0  0  0  0
  -19.8842  -27.6414   20.5334 C   0  0  0  0  0  0  0  0  0  0  0  0
  -21.2742  -25.6665   21.0201 C   0  0  0  0  0  0  0  0  0  0  0  0
  -23.0415  -14.8956   20.2480 C   0  0  1  0  0  0  0  0  0  0  0  0
  -26.4792  -15.1173   18.6460 C   0  0  1  0  0  0  0  0  0  0  0  0
  -20.8999  -25.7183   22.5103 C   0  0  2  0  0  0  0  0  0  0  0  0
  -33.4262  -11.7024   18.9293 C   0  0  0  0  0  0  0  0  0  0  0  0
  -27.8792  -12.7857   22.3829 C   0  0  0  0  0  0  0  0  0  0  0  0
  -30.2509  -11.9856   22.3292 C   0  0  0  0  0  0  0  0  0  0  0  0
  -28.5219  -10.8513   20.9340 C   0  0  0  0  0  0  0  0  0  0  0  0
  -32.3315  -14.4274   16.5103 C   0  0  0  0  0  0  0  0  0  0  0  0
  -28.2351  -25.0945   20.2350 C   0  0  0  0  0  0  0  0  0  0  0  0
  -28.9944  -22.0040   19.6974 C   0  0  0  0  0  0  0  0  0  1  0  0
  -29.3274  -13.1562   20.2778 C   0  0  1  0  0  0  0  0  0  0  0  0
  -32.4290  -12.5709   18.1784 C   0  0  2  0  0  0  0  0  0  0  0  0
  -28.6985  -29.3302   19.9282 C   0  0  0  0  0  0  0  0  0  0  0  0
  -28.9883  -12.2212   21.4729 C   0  0  0  0  0  0  0  0  0  0  0  0
  -20.6730  -23.2642   22.4248 N   0  0  0  0  0  0  0  0  0  0  0  0
  -20.9660  -24.3494   23.1614 N   0  0  0  0  0  0  0  0  0  0  0  0
  -27.7481  -14.7913   19.3001 N   0  0  0  0  0  0  0  0  0  0  0  0
  -21.2052  -27.0163   20.4386 N   0  0  0  0  0  0  0  0  0  0  0  0
  -21.6217  -25.0392   25.3305 N   0  0  0  0  0  0  0  0  0  0  0  0
  -21.3516  -20.5465   25.7031 N   0  0  0  0  0  0  0  0  0  0  0  0
  -23.4810  -27.0353   19.8199 N   0  0  0  0  0  0  0  0  0  0  0  0
  -28.2841  -26.4857   19.8582 N   0  0  0  0  0  0  0  0  0  0  0  0
  -24.1811  -14.8506   19.3572 N   0  0  0  0  0  0  0  0  0  0  0  0
  -30.3555  -12.6344   19.3839 N   0  0  0  0  0  0  0  0  0  0  0  0
  -33.1884  -13.5261   17.3230 N   0  3  0  0  0  0  0  0  0  0  0  0
  -21.8084  -22.4850   26.8398 O   0  0  0  0  0  0  0  0  0  0  0  0
  -30.6078  -25.0988   19.7372 O   0  0  0  0  0  0  0  0  0  0  0  0
  -30.5684  -22.7599   21.3703 O   0  0  0  0  0  0  0  0  0  0  0  0
  -25.7802  -15.6890   20.8277 O   0  0  0  0  0  0  0  0  0  0  0  0
  -27.5424  -12.5120   18.8547 O   0  0  0  0  0  0  0  0  0  0  0  0
  -31.8224  -14.4152   19.6165 O   0  0  0  0  0  0  0  0  0  0  0  0
  -22.1097  -28.8484   19.3573 O   0  0  0  0  0  0  0  0  0  0  0  0
  -19.9433  -16.9850   21.6573 O   0  0  0  0  0  0  0  0  0  0  0  0
  -29.2716  -20.6999   20.2061 O   0  0  0  0  0  0  0  0  0  1  0  0
  -17.0096  -13.7237   24.9980 F   0  0  0  0  0  0  0  0  0  0  0  0
  -26.3585  -30.8736   19.9380 F   0  0  0  0  0  0  0  0  0  0  0  0
  -17.5813  -15.8330   20.7993 F   0  0  0  0  0  0  0  0  0  0  0  0
  -29.7129  -28.4172   19.9176 F   0  0  0  0  0  0  0  0  0  0  0  0
  -28.9443  -30.1516   18.8665 F   0  0  0  0  0  0  0  0  0  0  0  0
  -28.9015  -30.0937   21.0399 F   0  0  0  0  0  0  0  0  0  0  0  0
  1  2  1  0  0  0  0
  1  5  2  0  0  0  0
  2  6  2  0  0  0  0
  3  8  2  0  0  0  0
  3 17  1  0  0  0  0
  4  9  1  0  0  0  0
  4 17  2  0  0  0  0
  5 19  1  0  0  0  0
  6 21  1  0  0  0  0
  7 10  2  0  0  0  0
  7 20  1  0  0  0  0
  8 26  1  0  0  0  0
  9 26  2  0  0  0  0
 10 27  1  0  0  0  0
 11 12  2  0  0  0  0
 11 28  1  0  0  0  0
 12 29  1  0  0  0  0
 13 22  1  0  0  0  0
 13 27  2  0  0  0  0
 14 24  2  0  0  0  0
 14 25  1  0  0  0  0
 15 24  1  0  0  0  0
 15 30  2  0  0  0  0
 16 29  2  0  0  0  0
 16 31  1  0  0  0  0
 17 32  1  0  0  0  0
 18 32  1  0  0  0  0
 18 33  2  0  0  0  0
 18 34  1  0  0  0  0
 19 21  2  0  0  0  0
 19 41  1  0  0  0  0
 20 22  2  0  0  0  0
 20 42  1  0  0  0  0
 21 50  1  0  0  0  0
 22 43  1  0  0  0  0
 23 25  2  0  0  0  0
 23 30  1  0  0  0  0
 23 62  1  0  0  0  0
 24 70  1  0  0  0  0
 25 71  1  0  0  0  0
 26 82  1  0  0  0  0
 27 83  1  0  0  0  0
 28 31  2  0  0  0  0
 28 82  1  0  0  0  0
 29 84  1  0  0  0  0
 30 85  1  0  0  0  0
 31 86  1  0  0  0  0
 32 64  2  0  0  0  0
 33 65  1  0  0  0  0
 33 68  1  0  0  0  0
 34 69  1  0  0  0  0
 34 75  2  0  0  0  0
 35 36  1  0  0  0  0
 35 58  1  0  0  0  0
 35 76  2  0  0  0  0
 36 59  1  0  0  0  0
 36 77  2  0  0  0  0
 37 51  1  0  0  0  0
 37 72  1  0  0  0  0
 37 78  2  0  0  0  0
 38 60  1  0  0  0  0
 38 66  1  0  0  0  0
 38 79  2  0  0  0  0
 39 61  1  0  0  0  0
 39 73  1  0  0  0  0
 39 80  2  0  0  0  0
 40 67  1  0  0  0  0
 40 70  1  0  0  0  0
 40 81  2  0  0  0  0
 41 44  1  0  0  0  0
 42 51  1  0  0  0  0
 43 66  1  0  0  0  0
 44 46  1  0  0  0  0
 45 47  1  0  0  0  0
 45 48  1  0  0  0  0
 46 50  1  0  0  0  0
 47 52  1  0  0  0  0
 48 67  1  0  0  0  0
 49 52  1  0  0  0  0
 49 67  1  0  0  0  0
 50 72  1  0  0  0  0
 51 66  1  0  0  0  0
 52 65  1  0  0  0  0
 53 61  1  0  0  0  0
 54 63  1  0  0  0  0
 55 63  1  0  0  0  0
 56 63  1  0  0  0  0
 57 74  1  0  0  0  0
 58 71  1  0  0  0  0
 59 83  1  0  0  0  0
 60 63  1  0  0  0  0
 60 73  1  0  0  0  0
 61 74  1  0  0  0  0
 62 87  1  0  0  0  0
 62 88  1  0  0  0  0
 62 89  1  0  0  0  0
 64 65  1  0  0  0  0
M  CHG  1  74   1
M  ISO  4  40 100  59 101  70 100  83 101
M  END
> <Batch ID>
0174

> <Smiles>
CNC(C)C(=O)NC(C(=O)N1Cc2cc([101O:1][101CH2:1]C(=O)C(=O)CNc3cc([100NH:0][100C:0](=O)N4CCCC(n5nc(-c6ccc(Oc7ccc(F)cc7F)cc6)c(C(N)=O)c5N)C4)cc(F)c3C(F)(F)F)ccc2CC1C(=O)NC1CCCc2ccccc21)C(C)(C)C

> <Shape>
0.215

> <Color>
0.077

> <Negative vol penalty>
0.000

$$$$

  -OEChem-04052304333D

 88 96  0     1  0  0  0  0  0999 V2000
  -31.0310  -38.1527   27.7318 C   0  0  0  0  0  0  0  0  0  0  0  0
  -31.3462  -37.1166   26.8585 C   0  0  0  0  0  0  0  0  0  0  0  0
  -23.1354   -9.7057   20.0232 C   0  0  0  0  0  0  0  0  0  0  0  0
  -23.8288   -9.8868   22.3304 C   0  0  0  0  0  0  0  0  0  0  0  0
  -30.0543  -37.9664   28.7091 C   0  0  0  0  0  0  0  0  0  0  0  0
  -30.6855  -35.8931   26.9629 C   0  0  0  0  0  0  0  0  0  0  0  0
  -29.1561  -32.1323   22.3777 C   0  0  0  0  0  0  0  0  0  0  0  0
  -22.4032   -8.5597   20.3332 C   0  0  0  0  0  0  0  0  0  0  0  0
  -23.0966   -8.7408   22.6405 C   0  0  0  0  0  0  0  0  0  0  0  0
  -29.7564  -30.9817   21.8684 C   0  0  0  0  0  0  0  0  0  0  0  0
  -19.8656   -7.9291   23.2085 C   0  0  0  0  0  0  0  0  0  0  0  0
  -19.0761   -7.9576   24.3580 C   0  0  0  0  0  0  0  0  0  0  0  0
  -31.0678  -17.6839   20.3415 C   0  0  0  0  0  0  0  0  0  0  0  0
  -28.2952  -29.6253   23.2264 C   0  0  0  0  0  0  0  0  0  0  0  0
  -29.5533  -19.3901   21.9471 C   0  0  0  0  0  0  0  0  0  0  0  0
  -20.3267   -6.0991   25.2631 C   0  0  0  0  0  0  0  0  0  0  0  0
  -23.8482  -10.3692   21.0218 C   0  0  0  0  0  0  0  0  0  0  0  0
  -31.2316  -19.0653   20.2397 C   0  0  0  0  0  0  0  0  0  0  0  0
  -24.1529  -12.8855   20.7337 C   0  0  0  0  0  0  0  0  0  0  0  0
  -29.3745  -36.7431   28.8193 C   0  0  0  0  0  0  0  0  0  0  0  0
  -28.1264  -32.0381   23.3250 C   0  0  0  0  0  0  0  0  0  0  0  0
  -29.6997  -35.6897   27.9435 C   0  0  0  0  0  0  0  0  0  0  0  0
  -27.6816  -30.7762   23.7443 C   0  0  0  0  0  0  0  0  0  0  0  0
  -30.1468  -17.1555   21.2461 C   0  0  0  0  0  0  0  0  0  0  0  0
  -30.4743  -19.9184   21.0425 C   0  0  0  0  0  0  0  0  0  0  0  0
  -29.3895  -18.0086   22.0489 C   0  0  0  0  0  0  0  0  0  0  0  0
  -22.3838   -8.0772   21.6418 C   0  0  0  0  0  0  0  0  0  0  0  0
  -29.3280  -29.7281   22.2948 C   0  0  0  0  0  0  0  0  0  0  0  0
  -20.8857   -6.9856   23.0862 C   0  0  0  0  0  0  0  0  0  0  0  0
  -19.3066   -7.0426   25.3853 C   0  0  0  0  0  0  0  0  0  0  0  0
  -21.1162   -6.0706   24.1135 C   0  0  0  0  0  0  0  0  0  0  0  0
  -24.6052  -11.5528   20.7021 C   0  0  0  0  0  0  0  0  0  0  0  0
  -25.2429  -13.6273   20.3487 C   0  0  0  0  0  0  0  0  0  0  0  0
  -32.2006  -19.5856   19.2832 C   0  0  0  0  0  0  0  0  0  0  0  0
  -22.8628  -13.4065   21.0800 C   0  0  0  0  0  0  0  0  0  0  0  0
  -27.7513  -32.9947   26.3330 C   0  0  0  0  0  0  0  0  0  0  0  0
  -30.1563  -26.1992   21.6215 C   0  0  0  0  0  0  0  0  0  0  0  0
  -24.7260  -31.9113   25.8900 C   0  0  0  0  0  0  0  0  0  0  0  0
  -29.9472  -22.2949   21.6881 C   0  0  0  0  0  0  0  0  0  0  0  0
  -22.6073  -29.8511   24.1832 C   0  0  0  0  0  0  0  0  0  0  0  0
  -30.6844  -14.7807   20.5998 C   0  0  0  0  0  0  0  0  0  0  0  0
  -28.3598  -36.5733   29.9221 C   0  0  0  0  0  0  0  0  0  0  0  0
  -27.4709  -33.2882   23.8448 C   0  0  0  0  0  0  0  0  0  0  0  0
  -26.5661  -30.6204   24.7442 C   0  0  0  0  0  0  0  0  0  0  0  0
  -27.4416  -35.3698   29.7249 C   0  0  0  0  0  0  0  0  0  0  0  0
  -29.6773  -12.1874   18.3777 C   0  0  0  0  0  0  0  0  0  0  0  0
  -28.2527  -34.1374   29.3371 C   0  0  0  0  0  0  0  0  0  0  0  0
  -28.2308  -11.9008   18.7869 C   0  0  0  0  0  0  0  0  0  0  0  0
  -30.5537  -12.5162   19.5850 C   0  0  0  0  0  0  0  0  0  0  0  0
  -28.5965  -13.3011   20.8587 C   0  0  0  0  0  0  0  0  0  0  0  0
  -28.9875  -34.3561   28.0091 C   0  0  1  0  0  0  0  0  0  0  0  0
  -26.7803  -33.0857   25.1899 C   0  0  1  0  0  0  0  0  0  0  0  0
  -27.6608  -13.0284   19.6697 C   0  0  2  0  0  0  0  0  0  0  0  0
  -20.1979  -29.1584   24.0715 C   0  0  0  0  0  0  0  0  0  0  0  0
  -25.0997  -30.2153   28.3988 C   0  0  0  0  0  0  0  0  0  0  0  0
  -23.0993  -28.8776   27.7080 C   0  0  0  0  0  0  0  0  0  0  0  0
  -22.8598  -31.3105   28.2040 C   0  0  0  0  0  0  0  0  0  0  0  0
  -22.3407  -30.8095   21.3959 C   0  0  0  0  0  0  0  0  0  0  0  0
  -29.7104  -24.8077   22.0464 C   0  0  0  0  0  0  0  0  0  0  0  0
  -29.4242  -27.3518   22.2806 C   0  0  0  0  0  0  0  0  0  1  0  0
  -30.4128  -23.6889   21.2831 C   0  0  0  0  0  0  0  0  0  0  0  0
  -24.0259  -30.5875   26.0805 C   0  0  1  0  0  0  0  0  0  0  0  0
  -21.2588  -30.1066   23.5346 C   0  0  2  0  0  0  0  0  0  0  0  0
  -23.7936  -30.2504   27.5804 C   0  0  0  0  0  0  0  0  0  0  0  0
  -25.8830  -11.4507   20.3266 N   0  0  0  0  0  0  0  0  0  0  0  0
  -33.2758  -18.9454   18.9377 N   0  0  0  0  0  0  0  0  0  0  0  0
  -26.2428  -12.7287   20.1186 N   0  0  0  0  0  0  0  0  0  0  0  0
  -25.9613  -31.8725   25.2278 N   0  0  0  0  0  0  0  0  0  0  0  0
  -29.9533  -13.5957   20.3719 N   0  0  0  0  0  0  0  0  0  0  0  0
  -28.4506  -17.4946   22.9714 N   0  0  0  0  0  0  0  0  0  0  0  0
  -25.4340  -14.9539   20.1879 N   0  0  0  0  0  0  0  0  0  0  0  0
  -21.8563  -12.5051   21.4525 N   0  0  0  0  0  0  0  0  0  0  0  0
  -30.6247  -21.3230   20.9569 N   0  0  0  0  0  0  0  0  0  0  0  0
  -29.9990  -15.7490   21.3329 N   0  0  0  0  0  0  0  0  0  0  0  0
  -28.0731  -34.2148   26.8963 N   0  0  0  0  0  0  0  0  0  0  0  0
  -22.8037  -30.6542   25.2867 N   0  0  0  0  0  0  0  0  0  0  0  0
  -21.3506  -29.9221   22.0587 N   0  3  0  0  0  0  0  0  0  0  0  0
  -22.6053  -14.6336   21.0440 O   0  0  0  0  0  0  0  0  0  0  0  0
  -28.1759  -31.8986   26.6793 O   0  0  0  0  0  0  0  0  0  0  0  0
  -31.0532  -26.3868   20.8010 O   0  0  0  0  0  0  0  0  0  0  0  0
  -24.1931  -32.9427   26.3069 O   0  0  0  0  0  0  0  0  0  0  0  0
  -29.0924  -22.1167   22.5493 O   0  0  0  0  0  0  0  0  0  0  0  0
  -23.4050  -29.0194   23.7561 O   0  0  0  0  0  0  0  0  0  0  0  0
  -31.8236  -14.9366   20.1528 O   0  0  0  0  0  0  0  0  0  0  0  0
  -21.6692   -6.9591   21.9447 O   0  0  0  0  0  0  0  0  0  0  0  0
  -29.9127  -28.6034   21.7997 O   0  0  0  0  0  0  0  0  0  1  0  0
  -18.5493   -7.0711   26.4898 F   0  0  0  0  0  0  0  0  0  0  0  0
  -22.0955   -5.1626   24.0023 F   0  0  0  0  0  0  0  0  0  0  0  0
  1  2  1  0  0  0  0
  1  5  2  0  0  0  0
  2  6  2  0  0  0  0
  3  8  2  0  0  0  0
  3 17  1  0  0  0  0
  4  9  1  0  0  0  0
  4 17  2  0  0  0  0
  5 20  1  0  0  0  0
  6 22  1  0  0  0  0
  7 10  2  0  0  0  0
  7 21  1  0  0  0  0
  8 27  1  0  0  0  0
  9 27  2  0  0  0  0
 10 28  1  0  0  0  0
 11 12  2  0  0  0  0
 11 29  1  0  0  0  0
 12 30  1  0  0  0  0
 13 18  1  0  0  0  0
 13 24  2  0  0  0  0
 14 23  1  0  0  0  0
 14 28  2  0  0  0  0
 15 25  1  0  0  0  0
 15 26  2  0  0  0  0
 16 30  2  0  0  0  0
 16 31  1  0  0  0  0
 17 32  1  0  0  0  0
 18 25  2  0  0  0  0
 18 34  1  0  0  0  0
 19 32  1  0  0  0  0
 19 33  2  0  0  0  0
 19 35  1  0  0  0  0
 20 22  2  0  0  0  0
 20 42  1  0  0  0  0
 21 23  2  0  0  0  0
 21 43  1  0  0  0  0
 22 51  1  0  0  0  0
 23 44  1  0  0  0  0
 24 26  1  0  0  0  0
 24 74  1  0  0  0  0
 25 73  1  0  0  0  0
 26 70  1  0  0  0  0
 27 85  1  0  0  0  0
 28 86  1  0  0  0  0
 29 31  2  0  0  0  0
 29 85  1  0  0  0  0
 30 87  1  0  0  0  0
 31 88  1  0  0  0  0
 32 65  2  0  0  0  0
 33 67  1  0  0  0  0
 33 71  1  0  0  0  0
 34 66  2  0  0  0  0
 35 72  1  0  0  0  0
 35 78  2  0  0  0  0
 36 52  1  0  0  0  0
 36 75  1  0  0  0  0
 36 79  2  0  0  0  0
 37 59  1  0  0  0  0
 37 60  1  0  0  0  0
 37 80  2  0  0  0  0
 38 62  1  0  0  0  0
 38 68  1  0  0  0  0
 38 81  2  0  0  0  0
 39 61  1  0  0  0  0
 39 73  1  0  0  0  0
 39 82  2  0  0  0  0
 40 63  1  0  0  0  0
 40 76  1  0  0  0  0
 40 83  2  0  0  0  0
 41 69  1  0  0  0  0
 41 74  1  0  0  0  0
 41 84  2  0  0  0  0
 42 45  1  0  0  0  0
 43 52  1  0  0  0  0
 44 68  1  0  0  0  0
 45 47  1  0  0  0  0
 46 48  1  0  0  0  0
 46 49  1  0  0  0  0
 47 51  1  0  0  0  0
 48 53  1  0  0  0  0
 49 69  1  0  0  0  0
 50 53  1  0  0  0  0
 50 69  1  0  0  0  0
 51 75  1  0  0  0  0
 52 68  1  0  0  0  0
 53 67  1  0  0  0  0
 54 63  1  0  0  0  0
 55 64  1  0  0  0  0
 56 64  1  0  0  0  0
 57 64  1  0  0  0  0
 58 77  1  0  0  0  0
 59 61  1  0  0  0  0
 60 86  1  0  0  0  0
 62 64  1  0  0  0  0
 62 76  1  0  0  0  0
 63 77  1  0  0  0  0
 65 67  1  0  0  0  0
M  CHG  1  77   1
M  ISO  4  41 100  60 101  74 100  86 101
M  END
> <Batch ID>
0174

> <Smiles>
CNC(C)C(=O)NC(C(=O)N1Cc2cc([101O:1][101CH2:1]C(=O)CCC(=O)Nc3cc(N)c([100NH:0][100C:0](=O)N4CCCC(n5nc(-c6ccc(Oc7ccc(F)cc7F)cc6)c(C(N)=O)c5N)C4)cc3C=N)ccc2CC1C(=O)NC1CCCc2ccccc21)C(C)(C)C

> <Shape>
0.315

> <Color>
0.201

> <Negative vol penalty>
0.000

$$$$

  -OEChem-04052304333D

 89 97  0     1  0  0  0  0  0999 V2000
  -32.5636  -32.4024   19.5523 C   0  0  0  0  0  0  0  0  0  0  0  0
  -32.0678  -31.5265   20.5128 C   0  0  0  0  0  0  0  0  0  0  0  0
  -22.9136   -9.9962   19.9725 C   0  0  0  0  0  0  0  0  0  0  0  0
  -23.6754   -9.9256   22.2641 C   0  0  0  0  0  0  0  0  0  0  0  0
  -32.5709  -32.0303   18.2087 C   0  0  0  0  0  0  0  0  0  0  0  0
  -31.5780  -30.2783   20.1299 C   0  0  0  0  0  0  0  0  0  0  0  0
  -31.9724  -25.0435   23.2838 C   0  0  0  0  0  0  0  0  0  0  0  0
  -22.1056   -8.8836   20.2068 C   0  0  0  0  0  0  0  0  0  0  0  0
  -22.8673   -8.8130   22.4985 C   0  0  0  0  0  0  0  0  0  0  0  0
  -31.0699  -24.3765   24.1109 C   0  0  0  0  0  0  0  0  0  0  0  0
  -21.2795   -5.7362   23.6038 C   0  0  0  0  0  0  0  0  0  0  0  0
  -21.8350   -4.6683   24.3084 C   0  0  0  0  0  0  0  0  0  0  0  0
  -30.3972  -22.9940   22.2520 C   0  0  0  0  0  0  0  0  0  0  0  0
  -30.0799  -17.4379   22.8835 C   0  0  0  0  0  0  0  0  0  0  0  0
  -32.1171  -16.9379   21.6849 C   0  0  0  0  0  0  0  0  0  0  0  0
  -23.5241   -4.4192   22.5989 C   0  0  0  0  0  0  0  0  0  0  0  0
  -23.6985  -10.5171   21.0012 C   0  0  0  0  0  0  0  0  0  0  0  0
  -24.1834  -13.0203   20.9180 C   0  0  0  0  0  0  0  0  0  0  0  0
  -32.0899  -30.7731   17.8103 C   0  0  0  0  0  0  0  0  0  0  0  0
  -32.0866  -24.6975   21.9296 C   0  0  0  0  0  0  0  0  0  0  0  0
  -31.5777  -29.8896   18.7796 C   0  0  0  0  0  0  0  0  0  0  0  0
  -31.3039  -23.6564   21.4104 C   0  0  0  0  0  0  0  0  0  0  0  0
  -31.9475  -18.9672   22.9848 C   0  0  0  0  0  0  0  0  0  0  0  0
  -30.8155  -16.5948   22.0506 C   0  0  0  0  0  0  0  0  0  0  0  0
  -30.6459  -18.6242   23.3506 C   0  0  0  0  0  0  0  0  0  0  0  0
  -22.0824   -8.2921   21.4698 C   0  0  0  0  0  0  0  0  0  0  0  0
  -30.2800  -23.3535   23.5944 C   0  0  0  0  0  0  0  0  0  0  0  0
  -21.8461   -6.1456   22.3968 C   0  0  0  0  0  0  0  0  0  0  0  0
  -22.9573   -4.0098   23.8060 C   0  0  0  0  0  0  0  0  0  0  0  0
  -32.6831  -18.1241   22.1520 C   0  0  0  0  0  0  0  0  0  0  0  0
  -22.9685   -5.4871   21.8944 C   0  0  0  0  0  0  0  0  0  0  0  0
  -24.5339  -11.6660   20.7596 C   0  0  0  0  0  0  0  0  0  0  0  0
  -25.3161  -13.7117   20.5637 C   0  0  0  0  0  0  0  0  0  0  0  0
  -22.9449  -13.6012   21.3471 C   0  0  0  0  0  0  0  0  0  0  0  0
  -28.1098  -20.3608   25.5208 C   0  0  0  0  0  0  0  0  0  0  0  0
  -28.5978  -19.2486   24.6381 C   0  0  0  0  0  0  0  0  0  0  0  0
  -31.6094  -26.2163   19.1784 C   0  0  0  0  0  0  0  0  0  0  0  0
  -32.8402  -23.4956   17.9115 C   0  0  0  0  0  0  0  0  0  0  0  0
  -33.4445  -20.1544   18.2557 C   0  0  0  0  0  0  0  0  0  0  0  0
  -30.8331  -14.4418   20.7427 C   0  0  0  0  0  0  0  0  0  0  0  0
  -32.0746  -30.4340   16.3408 C   0  0  0  0  0  0  0  0  0  0  0  0
  -33.0841  -25.4087   21.0569 C   0  0  0  0  0  0  0  0  0  0  0  0
  -31.4029  -23.2331   19.9684 C   0  0  0  0  0  0  0  0  0  0  0  0
  -31.8834  -28.9456   16.0611 C   0  0  0  0  0  0  0  0  0  0  0  0
  -29.5803  -12.1310   18.3411 C   0  0  0  0  0  0  0  0  0  0  0  0
  -30.7481  -28.3841   16.9111 C   0  0  0  0  0  0  0  0  0  0  0  0
  -28.1269  -11.9155   18.7692 C   0  0  0  0  0  0  0  0  0  0  0  0
  -30.5083  -12.2894   19.5442 C   0  0  0  0  0  0  0  0  0  0  0  0
  -28.6474  -13.1005   20.9399 C   0  0  0  0  0  0  0  0  0  0  0  0
  -31.0606  -28.5171   18.4065 C   0  0  1  0  0  0  0  0  0  0  0  0
  -32.7490  -25.3194   19.5713 C   0  0  1  0  0  0  0  0  0  0  0  0
  -27.6649  -13.0005   19.7616 C   0  0  2  0  0  0  0  0  0  0  0  0
  -34.3497  -17.8820   17.6952 C   0  0  0  0  0  0  0  0  0  0  0  0
  -30.3514  -23.3370   16.1534 C   0  0  0  0  0  0  0  0  0  0  0  0
  -30.9220  -20.9453   15.6817 C   0  0  0  0  0  0  0  0  0  0  0  0
  -32.4887  -22.7592   14.9904 C   0  0  0  0  0  0  0  0  0  0  0  0
  -35.9986  -20.7010   19.6473 C   0  0  0  0  0  0  0  0  0  0  0  0
  -27.3663  -21.4857   24.8348 C   0  0  0  0  0  0  0  0  0  0  0  0
  -28.2182  -22.1836   23.7853 C   0  0  0  0  0  0  0  0  0  1  0  0
  -32.2669  -22.1805   17.4415 C   0  0  1  0  0  0  0  0  0  0  0  0
  -34.6951  -19.3273   18.0186 C   0  0  2  0  0  0  0  0  0  0  0  0
  -32.5767  -20.2318   23.4732 C   0  0  0  0  0  0  0  0  0  0  0  0
  -31.5038  -22.3146   16.0935 C   0  0  0  0  0  0  0  0  0  0  0  0
  -25.7907  -11.5046   20.3373 N   0  0  0  0  0  0  0  0  0  0  0  0
  -26.2399  -12.7665   20.2273 N   0  0  0  0  0  0  0  0  0  0  0  0
  -32.3884  -23.9630   19.1538 N   0  0  0  0  0  0  0  0  0  0  0  0
  -30.0100  -13.3371   20.4379 N   0  0  0  0  0  0  0  0  0  0  0  0
  -25.6018  -15.0300   20.5100 N   0  0  0  0  0  0  0  0  0  0  0  0
  -21.8832  -12.7462   21.6729 N   0  0  0  0  0  0  0  0  0  0  0  0
  -29.8842  -19.4661   24.1940 N   0  0  0  0  0  0  0  0  0  0  0  0
  -30.2404  -15.3899   21.5761 N   0  0  0  0  0  0  0  0  0  0  0  0
  -31.9964  -27.4936   18.8202 N   0  0  0  0  0  0  0  0  0  0  0  0
  -33.3807  -21.2389   17.4065 N   0  0  0  0  0  0  0  0  0  0  0  0
  -35.5640  -19.3433   19.2293 N   0  3  0  0  0  0  0  0  0  0  0  0
  -22.7791  -14.8423   21.4232 O   0  0  0  0  0  0  0  0  0  0  0  0
  -28.3389  -20.2671   26.7172 O   0  0  0  0  0  0  0  0  0  0  0  0
  -27.8300  -18.3182   24.4568 O   0  0  0  0  0  0  0  0  0  0  0  0
  -30.4639  -25.7813   19.1974 O   0  0  0  0  0  0  0  0  0  0  0  0
  -33.6640  -24.0828   17.2058 O   0  0  0  0  0  0  0  0  0  0  0  0
  -32.6060  -19.8652   19.1065 O   0  0  0  0  0  0  0  0  0  0  0  0
  -31.9694  -14.5530   20.2754 O   0  0  0  0  0  0  0  0  0  0  0  0
  -21.2939   -7.2066   21.6989 O   0  0  0  0  0  0  0  0  0  0  0  0
  -29.3977  -22.7013   24.3995 O   0  0  0  0  0  0  0  0  0  1  0  0
  -23.4917   -2.9852   24.4834 F   0  0  0  0  0  0  0  0  0  0  0  0
  -33.9352  -18.4438   21.7958 F   0  0  0  0  0  0  0  0  0  0  0  0
  -23.5180   -5.8767   20.7359 F   0  0  0  0  0  0  0  0  0  0  0  0
  -31.7600  -20.9700   24.2799 F   0  0  0  0  0  0  0  0  0  0  0  0
  -33.7120  -20.0279   24.2024 F   0  0  0  0  0  0  0  0  0  0  0  0
  -32.9373  -21.0630   22.4540 F   0  0  0  0  0  0  0  0  0  0  0  0
  1  2  1  0  0  0  0
  1  5  2  0  0  0  0
  2  6  2  0  0  0  0
  3  8  2  0  0  0  0
  3 17  1  0  0  0  0
  4  9  1  0  0  0  0
  4 17  2  0  0  0  0
  5 19  1  0  0  0  0
  6 21  1  0  0  0  0
  7 10  2  0  0  0  0
  7 20  1  0  0  0  0
  8 26  1  0  0  0  0
  9 26  2  0  0  0  0
 10 27  1  0  0  0  0
 11 12  2  0  0  0  0
 11 28  1  0  0  0  0
 12 29  1  0  0  0  0
 13 22  1  0  0  0  0
 13 27  2  0  0  0  0
 14 24  2  0  0  0  0
 14 25  1  0  0  0  0
 15 24  1  0  0  0  0
 15 30  2  0  0  0  0
 16 29  2  0  0  0  0
 16 31  1  0  0  0  0
 17 32  1  0  0  0  0
 18 32  1  0  0  0  0
 18 33  2  0  0  0  0
 18 34  1  0  0  0  0
 19 21  2  0  0  0  0
 19 41  1  0  0  0  0
 20 22  2  0  0  0  0
 20 42  1  0  0  0  0
 21 50  1  0  0  0  0
 22 43  1  0  0  0  0
 23 25  2  0  0  0  0
 23 30  1  0  0  0  0
 23 62  1  0  0  0  0
 24 71  1  0  0  0  0
 25 70  1  0  0  0  0
 26 82  1  0  0  0  0
 27 83  1  0  0  0  0
 28 31  2  0  0  0  0
 28 82  1  0  0  0  0
 29 84  1  0  0  0  0
 30 85  1  0  0  0  0
 31 86  1  0  0  0  0
 32 64  2  0  0  0  0
 33 65  1  0  0  0  0
 33 68  1  0  0  0  0
 34 69  1  0  0  0  0
 34 75  2  0  0  0  0
 35 36  1  0  0  0  0
 35 58  1  0  0  0  0
 35 76  2  0  0  0  0
 36 70  1  0  0  0  0
 36 77  2  0  0  0  0
 37 51  1  0  0  0  0
 37 72  1  0  0  0  0
 37 78  2  0  0  0  0
 38 60  1  0  0  0  0
 38 66  1  0  0  0  0
 38 79  2  0  0  0  0
 39 61  1  0  0  0  0
 39 73  1  0  0  0  0
 39 80  2  0  0  0  0
 40 67  1  0  0  0  0
 40 71  1  0  0  0  0
 40 81  2  0  0  0  0
 41 44  1  0  0  0  0
 42 51  1  0  0  0  0
 43 66  1  0  0  0  0
 44 46  1  0  0  0  0
 45 47  1  0  0  0  0
 45 48  1  0  0  0  0
 46 50  1  0  0  0  0
 47 52  1  0  0  0  0
 48 67  1  0  0  0  0
 49 52  1  0  0  0  0
 49 67  1  0  0  0  0
 50 72  1  0  0  0  0
 51 66  1  0  0  0  0
 52 65  1  0  0  0  0
 53 61  1  0  0  0  0
 54 63  1  0  0  0  0
 55 63  1  0  0  0  0
 56 63  1  0  0  0  0
 57 74  1  0  0  0  0
 58 59  1  0  0  0  0
 59 83  1  0  0  0  0
 60 63  1  0  0  0  0
 60 73  1  0  0  0  0
 61 74  1  0  0  0  0
 62 87  1  0  0  0  0
 62 88  1  0  0  0  0
 62 89  1  0  0  0  0
 64 65  1  0  0  0  0
M  CHG  1  74   1
M  ISO  4  40 100  59 101  71 100  83 101
M  END
> <Batch ID>
0174

> <Smiles>
CNC(C)C(=O)NC(C(=O)N1Cc2cc([101O:1][101CH2:1]CC(=O)C(=O)Nc3cc([100NH:0][100C:0](=O)N4CCCC(n5nc(-c6ccc(Oc7ccc(F)cc7F)cc6)c(C(N)=O)c5N)C4)cc(F)c3C(F)(F)F)ccc2CC1C(=O)NC1CCCc2ccccc21)C(C)(C)C

> <Shape>
0.203

> <Color>
0.205

> <Negative vol penalty>
0.000

$$$$

  -OEChem-04052304333D

 92100  0     1  0  0  0  0  0999 V2000
  -27.0469  -34.7756   22.0459 C   0  0  0  0  0  0  0  0  0  0  0  0
  -27.3660  -33.4217   22.0187 C   0  0  0  0  0  0  0  0  0  0  0  0
  -24.0765  -20.1605   24.8056 C   0  0  0  0  0  0  0  0  0  0  0  0
  -25.2705  -19.8277   26.8794 C   0  0  0  0  0  0  0  0  0  0  0  0
  -25.7987  -35.1872   22.5113 C   0  0  0  0  0  0  0  0  0  0  0  0
  -26.4374  -32.4787   22.4579 C   0  0  0  0  0  0  0  0  0  0  0  0
  -26.0845  -28.5024   19.3420 C   0  0  0  0  0  0  0  0  0  0  0  0
  -23.0585  -20.8172   25.4970 C   0  0  0  0  0  0  0  0  0  0  0  0
  -24.2525  -20.4844   27.5708 C   0  0  0  0  0  0  0  0  0  0  0  0
  -27.0896  -27.5394   19.4222 C   0  0  0  0  0  0  0  0  0  0  0  0
  -19.9734  -22.2651   26.7656 C   0  0  0  0  0  0  0  0  0  0  0  0
  -18.6555  -21.9316   26.4532 C   0  0  0  0  0  0  0  0  0  0  0  0
  -25.6425  -26.1494   20.7612 C   0  0  0  0  0  0  0  0  0  0  0  0
  -30.6774  -16.2662   19.5645 C   0  0  0  0  0  0  0  0  0  0  0  0
  -28.2627  -16.3336   19.6007 C   0  0  0  0  0  0  0  0  0  0  0  0
  -19.0818  -19.6427   27.0983 C   0  0  0  0  0  0  0  0  0  0  0  0
  -25.1825  -19.6657   25.4968 C   0  0  0  0  0  0  0  0  0  0  0  0
  -27.3849  -19.5639   24.2135 C   0  0  0  0  0  0  0  0  0  0  0  0
  -24.8508  -34.2481   22.9473 C   0  0  0  0  0  0  0  0  0  0  0  0
  -24.8527  -28.3005   19.9810 C   0  0  0  0  0  0  0  0  0  0  0  0
  -25.1759  -32.8782   22.9308 C   0  0  0  0  0  0  0  0  0  0  0  0
  -24.6226  -27.1101   20.6854 C   0  0  0  0  0  0  0  0  0  0  0  0
  -29.4145  -14.2160   19.7625 C   0  0  0  0  0  0  0  0  0  0  0  0
  -29.4886  -16.9945   19.5226 C   0  0  0  0  0  0  0  0  0  0  0  0
  -30.6404  -14.8769   19.6844 C   0  0  0  0  0  0  0  0  0  0  0  0
  -28.2257  -14.9444   19.7207 C   0  0  0  0  0  0  0  0  0  0  0  0
  -23.1465  -20.9792   26.8796 C   0  0  0  0  0  0  0  0  0  0  0  0
  -26.8697  -26.3640   20.1343 C   0  0  0  0  0  0  0  0  0  0  0  0
  -20.8455  -21.2873   27.2442 C   0  0  0  0  0  0  0  0  0  0  0  0
  -18.2097  -20.6205   26.6196 C   0  0  0  0  0  0  0  0  0  0  0  0
  -20.3997  -19.9761   27.4106 C   0  0  0  0  0  0  0  0  0  0  0  0
  -26.2341  -18.9868   24.7832 C   0  0  0  0  0  0  0  0  0  0  0  0
  -28.0598  -18.5055   23.6561 C   0  0  0  0  0  0  0  0  0  0  0  0
  -28.1165  -21.6682   19.7426 C   0  0  0  0  0  0  0  0  0  0  0  0
  -27.8061  -20.9342   24.1904 C   0  0  0  0  0  0  0  0  0  0  0  0
  -28.8983  -20.7100   19.2153 C   0  0  0  0  0  0  0  0  0  0  0  0
  -28.4335  -23.1282   19.6914 C   0  0  0  0  0  0  0  0  0  0  0  0
  -28.4485  -19.2795   19.3453 C   0  0  0  0  0  0  0  0  0  0  0  0
  -23.2519  -29.7899   22.2880 C   0  0  0  0  0  0  0  0  0  0  0  0
  -20.9301  -27.6597   21.5172 C   0  0  0  0  0  0  0  0  0  0  0  0
  -20.1037  -24.6404   20.1579 C   0  0  0  0  0  0  0  0  0  0  0  0
  -26.5528  -13.4942   20.8996 C   0  0  0  0  0  0  0  0  0  0  0  0
  -23.5323  -34.7440   23.4861 C   0  0  0  0  0  0  0  0  0  0  0  0
  -23.7694  -29.3372   19.8625 C   0  0  0  0  0  0  0  0  0  0  0  0
  -23.3105  -26.8362   21.3723 C   0  0  0  0  0  0  0  0  0  0  0  0
  -22.4657  -33.6562   23.5825 C   0  0  0  0  0  0  0  0  0  0  0  0
  -28.0550  -13.6107   24.2794 C   0  0  0  0  0  0  0  0  0  0  0  0
  -23.0433  -32.3974   24.2218 C   0  0  0  0  0  0  0  0  0  0  0  0
  -27.7666  -15.0416   24.7297 C   0  0  0  0  0  0  0  0  0  0  0  0
  -27.0011  -13.1017   23.3007 C   0  0  0  0  0  0  0  0  0  0  0  0
  -26.5296  -15.4190   22.5597 C   0  0  0  0  0  0  0  0  0  0  0  0
  -24.1861  -31.8234   23.3756 C   0  0  1  0  0  0  0  0  0  0  0  0
  -22.7369  -29.2531   20.9825 C   0  0  1  0  0  0  0  0  0  0  0  0
  -27.5993  -15.9692   23.5149 C   0  0  1  0  0  0  0  0  0  0  0  0
  -18.1302  -23.1583   19.7041 C   0  0  0  0  0  0  0  0  0  0  0  0
  -20.8408  -26.8798   24.4657 C   0  0  0  0  0  0  0  0  0  0  0  0
  -19.5961  -24.8093   23.8086 C   0  0  0  0  0  0  0  0  0  0  0  0
  -18.6022  -27.0538   23.3645 C   0  0  0  0  0  0  0  0  0  0  0  0
  -26.1342  -14.2127   18.5887 C   0  0  0  0  0  0  0  0  0  0  0  0
  -20.5691  -24.7196   17.2363 C   0  0  0  0  0  0  0  0  0  0  0  0
  -27.4347  -24.0630   20.3396 C   0  0  0  0  0  0  0  0  0  1  0  0
  -20.5616  -26.2685   21.9729 C   0  0  1  0  0  0  0  0  0  0  0  0
  -19.0374  -24.2467   19.1517 C   0  0  2  0  0  0  0  0  0  0  0  0
  -29.3750  -12.7247   19.8918 C   0  0  0  0  0  0  0  0  0  0  0  0
  -19.9257  -26.2586   23.3917 C   0  0  0  0  0  0  0  0  0  0  0  0
  -26.1778  -17.6644   24.6040 N   0  0  0  0  0  0  0  0  0  0  0  0
  -27.3016  -17.4018   23.9153 N   0  0  0  0  0  0  0  0  0  0  0  0
  -22.2847  -27.8830   21.2328 N   0  0  0  0  0  0  0  0  0  0  0  0
  -26.8097  -14.0244   22.1806 N   0  0  0  0  0  0  0  0  0  0  0  0
  -31.8553  -14.1575   19.7249 N   0  0  0  0  0  0  0  0  0  0  0  0
  -29.2218  -18.4206   22.9743 N   0  0  0  0  0  0  0  0  0  0  0  0
  -26.9942  -21.8934   24.8109 N   0  0  0  0  0  0  0  0  0  0  0  0
  -29.5253  -18.4045   19.4015 N   0  0  0  0  0  0  0  0  0  0  0  0
  -23.6591  -31.1092   22.2325 N   0  0  0  0  0  0  0  0  0  0  0  0
  -19.7062  -25.7108   20.9309 N   0  0  0  0  0  0  0  0  0  0  0  0
  -26.9467  -14.2821   19.8013 N   0  0  0  0  0  0  0  0  0  0  0  0
  -19.6681  -23.7421   17.8993 N   0  3  0  0  0  0  0  0  0  0  0  0
  -28.8628  -21.2996   23.6217 O   0  0  0  0  0  0  0  0  0  0  0  0
  -29.4667  -23.5580   19.1849 O   0  0  0  0  0  0  0  0  0  0  0  0
  -27.2575  -18.9903   19.3909 O   0  0  0  0  0  0  0  0  0  0  0  0
  -23.2764  -29.0615   23.2732 O   0  0  0  0  0  0  0  0  0  0  0  0
  -20.0474  -28.5148   21.4105 O   0  0  0  0  0  0  0  0  0  0  0  0
  -21.1800  -24.0545   20.2515 O   0  0  0  0  0  0  0  0  0  0  0  0
  -25.9627  -12.4182   20.7431 O   0  0  0  0  0  0  0  0  0  0  0  0
  -30.0875  -20.9405   18.5566 O   0  0  0  0  0  0  0  0  0  0  0  0
  -22.1534  -21.6201   27.5546 O   0  0  0  0  0  0  0  0  0  0  0  0
  -27.8492  -25.4227   20.2147 O   0  0  0  0  0  0  0  0  0  1  0  0
  -16.9436  -20.3007   26.3211 F   0  0  0  0  0  0  0  0  0  0  0  0
  -21.2326  -19.0327   27.8712 F   0  0  0  0  0  0  0  0  0  0  0  0
  -30.6116  -12.1507   19.9201 F   0  0  0  0  0  0  0  0  0  0  0  0
  -28.7520  -12.2967   21.0266 F   0  0  0  0  0  0  0  0  0  0  0  0
  -28.7138  -12.1314   18.8587 F   0  0  0  0  0  0  0  0  0  0  0  0
  1  2  1  0  0  0  0
  1  5  2  0  0  0  0
  2  6  2  0  0  0  0
  3  8  2  0  0  0  0
  3 17  1  0  0  0  0
  4  9  1  0  0  0  0
  4 17  2  0  0  0  0
  5 19  1  0  0  0  0
  6 21  1  0  0  0  0
  7 10  2  0  0  0  0
  7 20  1  0  0  0  0
  8 27  1  0  0  0  0
  9 27  2  0  0  0  0
 10 28  1  0  0  0  0
 11 12  2  0  0  0  0
 11 29  1  0  0  0  0
 12 30  1  0  0  0  0
 13 22  1  0  0  0  0
 13 28  2  0  0  0  0
 14 24  1  0  0  0  0
 14 25  2  0  0  0  0
 15 24  2  0  0  0  0
 15 26  1  0  0  0  0
 16 30  2  0  0  0  0
 16 31  1  0  0  0  0
 17 32  1  0  0  0  0
 18 32  1  0  0  0  0
 18 33  2  0  0  0  0
 18 35  1  0  0  0  0
 19 21  2  0  0  0  0
 19 43  1  0  0  0  0
 20 22  2  0  0  0  0
 20 44  1  0  0  0  0
 21 52  1  0  0  0  0
 22 45  1  0  0  0  0
 23 25  1  0  0  0  0
 23 26  2  0  0  0  0
 23 64  1  0  0  0  0
 24 73  1  0  0  0  0
 25 70  1  0  0  0  0
 26 76  1  0  0  0  0
 27 86  1  0  0  0  0
 28 87  1  0  0  0  0
 29 31  2  0  0  0  0
 29 86  1  0  0  0  0
 30 88  1  0  0  0  0
 31 89  1  0  0  0  0
 32 66  2  0  0  0  0
 33 67  1  0  0  0  0
 33 71  1  0  0  0  0
 34 36  2  0  0  0  0
 34 37  1  0  0  0  0
 35 72  1  0  0  0  0
 35 78  2  0  0  0  0
 36 38  1  0  0  0  0
 36 85  1  0  0  0  0
 37 61  1  0  0  0  0
 37 79  2  0  0  0  0
 38 73  1  0  0  0  0
 38 80  2  0  0  0  0
 39 53  1  0  0  0  0
 39 74  1  0  0  0  0
 39 81  2  0  0  0  0
 40 62  1  0  0  0  0
 40 68  1  0  0  0  0
 40 82  2  0  0  0  0
 41 63  1  0  0  0  0
 41 75  1  0  0  0  0
 41 83  2  0  0  0  0
 42 69  1  0  0  0  0
 42 76  1  0  0  0  0
 42 84  2  0  0  0  0
 43 46  1  0  0  0  0
 44 53  1  0  0  0  0
 45 68  1  0  0  0  0
 46 48  1  0  0  0  0
 47 49  1  0  0  0  0
 47 50  1  0  0  0  0
 48 52  1  0  0  0  0
 49 54  1  0  0  0  0
 50 69  1  0  0  0  0
 51 54  1  0  0  0  0
 51 69  1  0  0  0  0
 52 74  1  0  0  0  0
 53 68  1  0  0  0  0
 54 67  1  0  0  0  0
 55 63  1  0  0  0  0
 56 65  1  0  0  0  0
 57 65  1  0  0  0  0
 58 65  1  0  0  0  0
 59 76  1  0  0  0  0
 60 77  1  0  0  0  0
 61 87  1  0  0  0  0
 62 65  1  0  0  0  0
 62 75  1  0  0  0  0
 63 77  1  0  0  0  0
 64 90  1  0  0  0  0
 64 91  1  0  0  0  0
 64 92  1  0  0  0  0
 66 67  1  0  0  0  0
M  CHG  1  77   1
M  ISO  4  42 100  61 101  76 100  87 101
M  END
> <Batch ID>
0174

> <Smiles>
CNC(C)C(=O)NC(C(=O)N1Cc2cc([101O:1][101CH2:1]C(=O)CC(=O)C(=O)Nc3cc(N)c(C(F)(F)F)c([100N:0](C)[100C:0](=O)N4CCCC(n5nc(-c6ccc(Oc7ccc(F)cc7F)cc6)c(C(N)=O)c5N)C4)c3)ccc2CC1C(=O)NC1CCCc2ccccc21)C(C)(C)C

> <Shape>
0.241

> <Color>
0.058

> <Negative vol penalty>
0.000

$$$$

  -OEChem-04052304333D

 86 94  0     1  0  0  0  0  0999 V2000
  -24.7495  -34.7015   23.9186 C   0  0  0  0  0  0  0  0  0  0  0  0
  -25.4769  -33.5501   23.6349 C   0  0  0  0  0  0  0  0  0  0  0  0
  -21.5327  -10.2024   23.2080 C   0  0  0  0  0  0  0  0  0  0  0  0
  -23.3387  -10.3349   21.6087 C   0  0  0  0  0  0  0  0  0  0  0  0
  -27.9195  -20.2289   21.8199 C   0  0  0  0  0  0  0  0  0  0  0  0
  -23.4020  -34.6061   24.2638 C   0  0  0  0  0  0  0  0  0  0  0  0
  -24.8575  -32.3024   23.6972 C   0  0  0  0  0  0  0  0  0  0  0  0
  -26.0172  -29.3579   19.7437 C   0  0  0  0  0  0  0  0  0  0  0  0
  -26.8164  -19.4183   22.0876 C   0  0  0  0  0  0  0  0  0  0  0  0
  -21.2999   -8.8786   22.8355 C   0  0  0  0  0  0  0  0  0  0  0  0
  -23.1060   -9.0110   21.2362 C   0  0  0  0  0  0  0  0  0  0  0  0
  -27.2630  -28.7322   19.7596 C   0  0  0  0  0  0  0  0  0  0  0  0
  -22.6607   -5.8436   23.4439 C   0  0  0  0  0  0  0  0  0  0  0  0
  -22.4633   -4.9093   24.4606 C   0  0  0  0  0  0  0  0  0  0  0  0
  -26.2203  -26.6883   20.5041 C   0  0  0  0  0  0  0  0  0  0  0  0
  -25.4981  -20.6927   20.5144 C   0  0  0  0  0  0  0  0  0  0  0  0
  -20.2686   -4.4146   23.5799 C   0  0  0  0  0  0  0  0  0  0  0  0
  -22.5521  -10.9306   22.5946 C   0  0  0  0  0  0  0  0  0  0  0  0
  -27.8119  -21.2716   20.8995 C   0  0  0  0  0  0  0  0  0  0  0  0
  -23.6560  -12.7578   23.9912 C   0  0  0  0  0  0  0  0  0  0  0  0
  -22.7633  -33.3573   24.3210 C   0  0  0  0  0  0  0  0  0  0  0  0
  -24.8631  -28.6554   20.1190 C   0  0  0  0  0  0  0  0  0  0  0  0
  -23.5006  -32.1900   24.0448 C   0  0  0  0  0  0  0  0  0  0  0  0
  -24.9607  -27.3066   20.4897 C   0  0  0  0  0  0  0  0  0  0  0  0
  -25.6058  -19.6501   21.4348 C   0  0  0  0  0  0  0  0  0  0  0  0
  -22.0865   -8.2828   21.8496 C   0  0  0  0  0  0  0  0  0  0  0  0
  -27.3651  -27.3980   20.1426 C   0  0  0  0  0  0  0  0  0  0  0  0
  -21.6620   -6.0635   22.4953 C   0  0  0  0  0  0  0  0  0  0  0  0
  -21.2672   -4.1948   24.5286 C   0  0  0  0  0  0  0  0  0  0  0  0
  -26.6012  -21.5034   20.2467 C   0  0  0  0  0  0  0  0  0  0  0  0
  -20.4660   -5.3490   22.5632 C   0  0  0  0  0  0  0  0  0  0  0  0
  -22.7927  -12.2984   22.9785 C   0  0  0  0  0  0  0  0  0  0  0  0
  -23.5274  -14.1249   23.9579 C   0  0  0  0  0  0  0  0  0  0  0  0
  -28.9887  -22.1342   20.6198 C   0  0  0  0  0  0  0  0  0  0  0  0
  -24.4989  -12.0152   24.8821 C   0  0  0  0  0  0  0  0  0  0  0  0
  -22.6967  -28.9683   22.4240 C   0  0  0  0  0  0  0  0  0  0  0  0
  -29.9191  -24.9774   19.2664 C   0  0  0  0  0  0  0  0  0  0  0  0
  -21.2272  -26.5519   20.8354 C   0  0  0  0  0  0  0  0  0  0  0  0
  -21.4982  -23.8928   18.7135 C   0  0  0  0  0  0  0  0  0  0  0  0
  -23.2118  -18.9206   21.1465 C   0  0  0  0  0  0  0  0  0  0  0  0
  -21.3171  -33.3004   24.7449 C   0  0  0  0  0  0  0  0  0  0  0  0
  -23.5232  -29.3371   20.0709 C   0  0  0  0  0  0  0  0  0  0  0  0
  -23.7492  -26.5023   20.8820 C   0  0  0  0  0  0  0  0  0  0  0  0
  -20.6399  -31.9706   24.4233 C   0  0  0  0  0  0  0  0  0  0  0  0
  -20.1987  -17.0621   21.5261 C   0  0  0  0  0  0  0  0  0  0  0  0
  -21.5287  -30.8039   24.8423 C   0  0  0  0  0  0  0  0  0  0  0  0
  -20.6759  -15.6949   22.0211 C   0  0  0  0  0  0  0  0  0  0  0  0
  -21.1645  -17.6654   20.5078 C   0  0  0  0  0  0  0  0  0  0  0  0
  -23.0411  -16.3713   21.4420 C   0  0  0  0  0  0  0  0  0  0  0  0
  -22.8578  -30.8204   24.0776 C   0  0  1  0  0  0  0  0  0  0  0  0
  -22.4822  -28.6725   20.9665 C   0  0  1  0  0  0  0  0  0  0  0  0
  -22.1338  -15.7529   22.5180 C   0  0  2  0  0  0  0  0  0  0  0  0
  -30.3906  -23.3413   17.4189 C   0  0  0  0  0  0  0  0  0  0  0  0
  -20.1302  -22.0886   17.6313 C   0  0  0  0  0  0  0  0  0  0  0  0
  -21.1494  -25.0290   23.4782 C   0  0  0  0  0  0  0  0  0  0  0  0
  -20.6714  -22.9415   22.1812 C   0  0  0  0  0  0  0  0  0  0  0  0
  -19.0648  -24.8484   22.1084 C   0  0  0  0  0  0  0  0  0  0  0  0
  -22.1489  -24.8685   15.9962 C   0  0  0  0  0  0  0  0  0  0  0  0
  -28.6026  -25.3810   19.9057 C   0  0  0  0  0  0  0  0  0  1  0  0
  -30.1502  -23.5085   18.9116 C   0  0  2  0  0  0  0  0  0  0  0  0
  -21.2766  -25.0444   20.8995 C   0  0  1  0  0  0  0  0  0  0  0  0
  -20.6930  -23.4943   17.4898 C   0  0  2  0  0  0  0  0  0  0  0  0
  -20.5638  -24.4813   22.1614 C   0  0  0  0  0  0  0  0  0  0  0  0
  -22.1621  -13.2929   22.3481 N   0  0  0  0  0  0  0  0  0  0  0  0
  -22.6296  -14.3908   22.9663 N   0  0  0  0  0  0  0  0  0  0  0  0
  -22.4624  -27.2152   20.8249 N   0  0  0  0  0  0  0  0  0  0  0  0
  -22.5250  -17.6919   21.0493 N   0  0  0  0  0  0  0  0  0  0  0  0
  -24.0958  -15.1134   24.6806 N   0  0  0  0  0  0  0  0  0  0  0  0
  -24.5108  -10.6174   24.7810 N   0  0  0  0  0  0  0  0  0  0  0  0
  -24.4853  -18.8265   21.7068 N   0  0  0  0  0  0  0  0  0  0  0  0
  -29.0600  -22.6738   19.3416 N   0  0  0  0  0  0  0  0  0  0  0  0
  -22.6742  -30.3146   22.7341 N   0  0  0  0  0  0  0  0  0  0  0  0
  -20.7252  -24.5638   19.6373 N   0  0  0  0  0  0  0  0  0  0  0  0
  -21.5484  -23.5376   16.2702 N   0  3  0  0  0  0  0  0  0  0  0  0
  -29.8283  -22.3072   21.4993 O   0  0  0  0  0  0  0  0  0  0  0  0
  -25.2076  -12.5738   25.7534 O   0  0  0  0  0  0  0  0  0  0  0  0
  -22.8685  -28.0433   23.2093 O   0  0  0  0  0  0  0  0  0  0  0  0
  -30.8125  -25.8086   19.0815 O   0  0  0  0  0  0  0  0  0  0  0  0
  -20.1330  -27.1196   20.7887 O   0  0  0  0  0  0  0  0  0  0  0  0
  -22.6926  -23.6313   18.8390 O   0  0  0  0  0  0  0  0  0  0  0  0
  -22.6968  -19.9822   20.7863 O   0  0  0  0  0  0  0  0  0  0  0  0
  -21.8598   -6.9909   21.4861 O   0  0  0  0  0  0  0  0  0  0  0  0
  -28.5800  -26.7851   20.1596 O   0  0  0  0  0  0  0  0  0  1  0  0
  -21.0784   -3.2964   25.5040 F   0  0  0  0  0  0  0  0  0  0  0  0
  -26.4861  -22.5029   19.3605 F   0  0  0  0  0  0  0  0  0  0  0  0
  -19.5034   -5.5551   21.6540 F   0  0  0  0  0  0  0  0  0  0  0  0
  1  2  1  0  0  0  0
  1  6  2  0  0  0  0
  2  7  2  0  0  0  0
  3 10  2  0  0  0  0
  3 18  1  0  0  0  0
  4 11  1  0  0  0  0
  4 18  2  0  0  0  0
  5  9  2  0  0  0  0
  5 19  1  0  0  0  0
  6 21  1  0  0  0  0
  7 23  1  0  0  0  0
  8 12  2  0  0  0  0
  8 22  1  0  0  0  0
  9 25  1  0  0  0  0
 10 26  1  0  0  0  0
 11 26  2  0  0  0  0
 12 27  1  0  0  0  0
 13 14  2  0  0  0  0
 13 28  1  0  0  0  0
 14 29  1  0  0  0  0
 15 24  1  0  0  0  0
 15 27  2  0  0  0  0
 16 25  2  0  0  0  0
 16 30  1  0  0  0  0
 17 29  2  0  0  0  0
 17 31  1  0  0  0  0
 18 32  1  0  0  0  0
 19 30  2  0  0  0  0
 19 34  1  0  0  0  0
 20 32  1  0  0  0  0
 20 33  2  0  0  0  0
 20 35  1  0  0  0  0
 21 23  2  0  0  0  0
 21 41  1  0  0  0  0
 22 24  2  0  0  0  0
 22 42  1  0  0  0  0
 23 50  1  0  0  0  0
 24 43  1  0  0  0  0
 25 70  1  0  0  0  0
 26 82  1  0  0  0  0
 27 83  1  0  0  0  0
 28 31  2  0  0  0  0
 28 82  1  0  0  0  0
 29 84  1  0  0  0  0
 30 85  1  0  0  0  0
 31 86  1  0  0  0  0
 32 64  2  0  0  0  0
 33 65  1  0  0  0  0
 33 68  1  0  0  0  0
 34 71  1  0  0  0  0
 34 75  2  0  0  0  0
 35 69  1  0  0  0  0
 35 76  2  0  0  0  0
 36 51  1  0  0  0  0
 36 72  1  0  0  0  0
 36 77  2  0  0  0  0
 37 59  1  0  0  0  0
 37 60  1  0  0  0  0
 37 78  2  0  0  0  0
 38 61  1  0  0  0  0
 38 66  1  0  0  0  0
 38 79  2  0  0  0  0
 39 62  1  0  0  0  0
 39 73  1  0  0  0  0
 39 80  2  0  0  0  0
 40 67  1  0  0  0  0
 40 70  1  0  0  0  0
 40 81  2  0  0  0  0
 41 44  1  0  0  0  0
 42 51  1  0  0  0  0
 43 66  1  0  0  0  0
 44 46  1  0  0  0  0
 45 47  1  0  0  0  0
 45 48  1  0  0  0  0
 46 50  1  0  0  0  0
 47 52  1  0  0  0  0
 48 67  1  0  0  0  0
 49 52  1  0  0  0  0
 49 67  1  0  0  0  0
 50 72  1  0  0  0  0
 51 66  1  0  0  0  0
 52 65  1  0  0  0  0
 53 60  1  0  0  0  0
 54 62  1  0  0  0  0
 55 63  1  0  0  0  0
 56 63  1  0  0  0  0
 57 63  1  0  0  0  0
 58 74  1  0  0  0  0
 59 83  1  0  0  0  0
 60 71  1  0  0  0  0
 61 63  1  0  0  0  0
 61 73  1  0  0  0  0
 62 74  1  0  0  0  0
 64 65  1  0  0  0  0
M  CHG  1  74   1
M  ISO  4  40 100  59 101  70 100  83 101
M  END
> <Batch ID>
0174

> <Smiles>
CNC(C)C(=O)NC(C(=O)N1Cc2cc([101O:1][101CH2:1]C(=O)C(C)NC(=O)c3ccc([100NH:0][100C:0](=O)N4CCCC(n5nc(-c6ccc(Oc7ccc(F)cc7F)cc6)c(C(N)=O)c5N)C4)cc3F)ccc2CC1C(=O)NC1CCCc2ccccc21)C(C)(C)C

> <Shape>
0.225

> <Color>
0.099

> <Negative vol penalty>
0.000

$$$$

  -OEChem-04052304333D

 85 93  0     1  0  0  0  0  0999 V2000
  -28.2913  -24.0763   17.8830 C   0  0  0  0  0  0  0  0  0  0  0  0
  -27.0865  -24.3584   18.5188 C   0  0  0  0  0  0  0  0  0  0  0  0
  -26.5693  -12.8829   19.3601 C   0  0  0  0  0  0  0  0  0  0  0  0
  -24.4972  -13.5655   20.3981 C   0  0  0  0  0  0  0  0  0  0  0  0
  -29.4750  -24.6455   18.3507 C   0  0  0  0  0  0  0  0  0  0  0  0
  -27.0649  -25.2090   19.6235 C   0  0  0  0  0  0  0  0  0  0  0  0
  -23.2938  -28.5819   19.4047 C   0  0  0  0  0  0  0  0  0  0  0  0
  -22.2696  -22.3282   23.0601 C   0  0  0  0  0  0  0  0  0  0  0  0
  -26.4860  -11.6490   20.0051 C   0  0  0  0  0  0  0  0  0  0  0  0
  -24.4139  -12.3316   21.0432 C   0  0  0  0  0  0  0  0  0  0  0  0
  -22.0166  -28.1314   19.7357 C   0  0  0  0  0  0  0  0  0  0  0  0
  -23.5025   -9.1720   20.2641 C   0  0  0  0  0  0  0  0  0  0  0  0
  -22.2682   -8.5223   20.2600 C   0  0  0  0  0  0  0  0  0  0  0  0
  -23.1652  -21.4403   22.4746 C   0  0  0  0  0  0  0  0  0  0  0  0
  -22.2541  -29.0928   21.9354 C   0  0  0  0  0  0  0  0  0  0  0  0
  -22.2320   -8.5760   22.6752 C   0  0  0  0  0  0  0  0  0  0  0  0
  -23.9828  -23.9779   23.0559 C   0  0  0  0  0  0  0  0  0  0  0  0
  -25.5749  -13.8412   19.5566 C   0  0  0  0  0  0  0  0  0  0  0  0
  -25.1384  -15.4525   17.6277 C   0  0  0  0  0  0  0  0  0  0  0  0
  -29.4665  -25.5112   19.4558 C   0  0  0  0  0  0  0  0  0  0  0  0
  -24.0664  -29.2830   20.3418 C   0  0  0  0  0  0  0  0  0  0  0  0
  -28.2497  -25.7893   20.1073 C   0  0  0  0  0  0  0  0  0  0  0  0
  -23.5398  -29.5534   21.6129 C   0  0  0  0  0  0  0  0  0  0  0  0
  -22.6783  -23.6230   23.3594 C   0  0  0  0  0  0  0  0  0  0  0  0
  -25.4083  -11.3733   20.8467 C   0  0  0  0  0  0  0  0  0  0  0  0
  -21.4977  -28.3843   21.0021 C   0  0  0  0  0  0  0  0  0  0  0  0
  -24.1016   -9.5236   21.4738 C   0  0  0  0  0  0  0  0  0  0  0  0
  -21.6329   -8.2243   21.4656 C   0  0  0  0  0  0  0  0  0  0  0  0
  -23.4663   -9.2256   22.6793 C   0  0  0  0  0  0  0  0  0  0  0  0
  -25.6607  -15.1162   18.8910 C   0  0  0  0  0  0  0  0  0  0  0  0
  -24.4479  -21.8929   22.2104 C   0  0  0  0  0  0  0  0  0  0  0  0
  -25.4840  -16.7703   17.4530 C   0  0  0  0  0  0  0  0  0  0  0  0
  -24.4062  -14.6459   16.6955 C   0  0  0  0  0  0  0  0  0  0  0  0
  -19.8393  -25.5420   24.9201 C   0  0  0  0  0  0  0  0  0  0  0  0
  -20.4765  -24.3271   24.3082 C   0  0  0  0  0  0  0  0  0  0  0  0
  -26.8557  -28.7751   21.7790 C   0  0  0  0  0  0  0  0  0  0  0  0
  -26.3666  -31.7691   22.9275 C   0  0  0  0  0  0  0  0  0  0  0  0
  -24.1538  -34.2474   23.7075 C   0  0  0  0  0  0  0  0  0  0  0  0
  -26.6813  -21.2160   21.2618 C   0  0  0  0  0  0  0  0  0  0  0  0
  -30.7779  -26.0651   19.9541 C   0  0  0  0  0  0  0  0  0  0  0  0
  -25.4318  -29.7854   19.9603 C   0  0  0  0  0  0  0  0  0  0  0  0
  -24.3207  -30.3194   22.6483 C   0  0  0  0  0  0  0  0  0  0  0  0
  -30.6174  -27.2522   20.9003 C   0  0  0  0  0  0  0  0  0  0  0  0
  -28.8243  -19.9639   18.7090 C   0  0  0  0  0  0  0  0  0  0  0  0
  -29.5489  -26.9586   21.9487 C   0  0  0  0  0  0  0  0  0  0  0  0
  -28.2052  -18.6120   18.3467 C   0  0  0  0  0  0  0  0  0  0  0  0
  -28.7147  -20.2554   20.2046 C   0  0  0  0  0  0  0  0  0  0  0  0
  -26.7409  -18.7939   20.3985 C   0  0  0  0  0  0  0  0  0  0  0  0
  -28.1821  -26.7267   21.2933 C   0  0  1  0  0  0  0  0  0  0  0  0
  -26.3320  -30.0425   21.1648 C   0  0  1  0  0  0  0  0  0  0  0  0
  -26.7694  -18.4853   18.8926 C   0  0  2  0  0  0  0  0  0  0  0  0
  -24.0485  -36.5647   24.6647 C   0  0  0  0  0  0  0  0  0  0  0  0
  -26.7908  -30.6298   25.7261 C   0  0  0  0  0  0  0  0  0  0  0  0
  -25.7567  -32.7121   26.6549 C   0  0  0  0  0  0  0  0  0  0  0  0
  -27.8661  -32.8528   25.3308 C   0  0  0  0  0  0  0  0  0  0  0  0
  -22.9967  -35.3490   21.2162 C   0  0  0  0  0  0  0  0  0  0  0  0
  -18.6372  -26.1107   24.2010 C   0  0  0  0  0  0  0  0  0  0  0  0
  -18.9489  -26.5372   22.7698 C   0  0  0  0  0  0  0  0  0  0  0  0
  -20.0132  -27.6259   22.6983 C   0  0  0  0  0  0  0  0  0  1  0  0
  -25.6901  -32.3495   24.1459 C   0  0  1  0  0  0  0  0  0  0  0  0
  -24.1545  -35.7331   23.3958 C   0  0  2  0  0  0  0  0  0  0  0  0
  -26.5117  -32.1199   25.4458 C   0  0  0  0  0  0  0  0  0  0  0  0
  -24.8813  -23.1432   22.4870 N   0  0  0  0  0  0  0  0  0  0  0  0
  -26.2904  -16.1379   19.4772 N   0  0  0  0  0  0  0  0  0  0  0  0
  -26.1661  -17.1291   18.5782 N   0  0  0  0  0  0  0  0  0  0  0  0
  -25.6534  -30.7842   22.2295 N   0  0  0  0  0  0  0  0  0  0  0  0
  -27.3260  -20.1203   20.6497 N   0  0  0  0  0  0  0  0  0  0  0  0
  -25.2680  -17.6455   16.4481 N   0  0  0  0  0  0  0  0  0  0  0  0
  -24.1370  -13.3125   17.0332 N   0  0  0  0  0  0  0  0  0  0  0  0
  -21.7906  -24.5486   23.9560 N   0  0  0  0  0  0  0  0  0  0  0  0
  -25.3526  -20.9804   21.6132 N   0  0  0  0  0  0  0  0  0  0  0  0
  -27.5855  -27.9880   20.9088 N   0  0  0  0  0  0  0  0  0  0  0  0
  -25.4341  -33.7530   23.8409 N   0  0  0  0  0  0  0  0  0  0  0  0
  -23.0057  -36.0773   22.5110 N   0  3  0  0  0  0  0  0  0  0  0  0
  -24.0169  -15.0895   15.5887 O   0  0  0  0  0  0  0  0  0  0  0  0
  -20.3275  -25.9690   25.9557 O   0  0  0  0  0  0  0  0  0  0  0  0
  -19.7656  -23.3438   24.1816 O   0  0  0  0  0  0  0  0  0  0  0  0
  -26.6166  -28.5302   22.9557 O   0  0  0  0  0  0  0  0  0  0  0  0
  -27.4836  -32.1797   22.6028 O   0  0  0  0  0  0  0  0  0  0  0  0
  -23.1209  -33.5918   23.8247 O   0  0  0  0  0  0  0  0  0  0  0  0
  -27.2567  -22.2935   21.4349 O   0  0  0  0  0  0  0  0  0  0  0  0
  -25.3266  -10.1693   21.4761 O   0  0  0  0  0  0  0  0  0  0  0  0
  -20.2516  -27.9451   21.3280 O   0  0  0  0  0  0  0  0  0  1  0  0
  -20.4469   -7.6018   21.4614 F   0  0  0  0  0  0  0  0  0  0  0  0
  -24.0364   -9.5620   23.8445 F   0  0  0  0  0  0  0  0  0  0  0  0
  1  2  1  0  0  0  0
  1  5  2  0  0  0  0
  2  6  2  0  0  0  0
  3  9  2  0  0  0  0
  3 18  1  0  0  0  0
  4 10  1  0  0  0  0
  4 18  2  0  0  0  0
  5 20  1  0  0  0  0
  6 22  1  0  0  0  0
  7 11  2  0  0  0  0
  7 21  1  0  0  0  0
  8 14  2  0  0  0  0
  8 24  1  0  0  0  0
  9 25  1  0  0  0  0
 10 25  2  0  0  0  0
 11 26  1  0  0  0  0
 12 13  2  0  0  0  0
 12 27  1  0  0  0  0
 13 28  1  0  0  0  0
 14 31  1  0  0  0  0
 15 23  1  0  0  0  0
 15 26  2  0  0  0  0
 16 28  2  0  0  0  0
 16 29  1  0  0  0  0
 17 24  2  0  0  0  0
 17 63  1  0  0  0  0
 18 30  1  0  0  0  0
 19 30  1  0  0  0  0
 19 32  2  0  0  0  0
 19 33  1  0  0  0  0
 20 22  2  0  0  0  0
 20 40  1  0  0  0  0
 21 23  2  0  0  0  0
 21 41  1  0  0  0  0
 22 49  1  0  0  0  0
 23 42  1  0  0  0  0
 24 70  1  0  0  0  0
 25 82  1  0  0  0  0
 26 83  1  0  0  0  0
 27 29  2  0  0  0  0
 27 82  1  0  0  0  0
 28 84  1  0  0  0  0
 29 85  1  0  0  0  0
 30 64  2  0  0  0  0
 31 63  2  0  0  0  0
 31 71  1  0  0  0  0
 32 65  1  0  0  0  0
 32 68  1  0  0  0  0
 33 69  1  0  0  0  0
 33 75  2  0  0  0  0
 34 35  1  0  0  0  0
 34 57  1  0  0  0  0
 34 76  2  0  0  0  0
 35 70  1  0  0  0  0
 35 77  2  0  0  0  0
 36 50  1  0  0  0  0
 36 72  1  0  0  0  0
 36 78  2  0  0  0  0
 37 60  1  0  0  0  0
 37 66  1  0  0  0  0
 37 79  2  0  0  0  0
 38 61  1  0  0  0  0
 38 73  1  0  0  0  0
 38 80  2  0  0  0  0
 39 67  1  0  0  0  0
 39 71  1  0  0  0  0
 39 81  2  0  0  0  0
 40 43  1  0  0  0  0
 41 50  1  0  0  0  0
 42 66  1  0  0  0  0
 43 45  1  0  0  0  0
 44 46  1  0  0  0  0
 44 47  1  0  0  0  0
 45 49  1  0  0  0  0
 46 51  1  0  0  0  0
 47 67  1  0  0  0  0
 48 51  1  0  0  0  0
 48 67  1  0  0  0  0
 49 72  1  0  0  0  0
 50 66  1  0  0  0  0
 51 65  1  0  0  0  0
 52 61  1  0  0  0  0
 53 62  1  0  0  0  0
 54 62  1  0  0  0  0
 55 62  1  0  0  0  0
 56 74  1  0  0  0  0
 57 58  1  0  0  0  0
 58 59  1  0  0  0  0
 59 83  1  0  0  0  0
 60 62  1  0  0  0  0
 60 73  1  0  0  0  0
 61 74  1  0  0  0  0
 64 65  1  0  0  0  0
M  CHG  1  74   1
M  ISO  4  39 100  59 101  71 100  83 101
M  END
> <Batch ID>
0174

> <Smiles>
CNC(C)C(=O)NC(C(=O)N1Cc2cc([101O:1][101CH2:1]CCC(=O)C(=O)Nc3ccc([100NH:0][100C:0](=O)N4CCCC(n5nc(-c6ccc(Oc7ccc(F)cc7F)cc6)c(C(N)=O)c5N)C4)nc3)ccc2CC1C(=O)NC1CCCc2ccccc21)C(C)(C)C

> <Shape>
0.302

> <Color>
0.073

> <Negative vol penalty>
0.000

$$$$

  -OEChem-04052304333D

 89 97  0     1  0  0  0  0  0999 V2000
  -17.3490  -30.3681   24.1480 C   0  0  0  0  0  0  0  0  0  0  0  0
  -18.7116  -30.1733   23.9461 C   0  0  0  0  0  0  0  0  0  0  0  0
  -24.9844  -13.9130   21.2809 C   0  0  0  0  0  0  0  0  0  0  0  0
  -26.2795  -13.5815   19.2684 C   0  0  0  0  0  0  0  0  0  0  0  0
  -16.4361  -29.4118   23.7054 C   0  0  0  0  0  0  0  0  0  0  0  0
  -19.1622  -29.0214   23.3024 C   0  0  0  0  0  0  0  0  0  0  0  0
  -22.7184  -30.0001   19.8323 C   0  0  0  0  0  0  0  0  0  0  0  0
  -24.1865  -12.8184   20.9477 C   0  0  0  0  0  0  0  0  0  0  0  0
  -25.4816  -12.4869   18.9353 C   0  0  0  0  0  0  0  0  0  0  0  0
  -24.0116  -30.2383   20.2956 C   0  0  0  0  0  0  0  0  0  0  0  0
  -24.3939   -9.4469   21.0987 C   0  0  0  0  0  0  0  0  0  0  0  0
  -24.0990   -8.5291   22.1068 C   0  0  0  0  0  0  0  0  0  0  0  0
  -24.6209  -27.9707   19.7428 C   0  0  0  0  0  0  0  0  0  0  0  0
  -31.6952  -22.9098   20.2926 C   0  0  0  0  0  0  0  0  0  0  0  0
  -32.8760  -20.8236   19.9924 C   0  0  0  0  0  0  0  0  0  0  0  0
  -21.7412   -8.9706   21.8189 C   0  0  0  0  0  0  0  0  0  0  0  0
  -26.0309  -14.2945   20.4412 C   0  0  0  0  0  0  0  0  0  0  0  0
  -28.0381  -15.4148   21.5474 C   0  0  0  0  0  0  0  0  0  0  0  0
  -16.8752  -28.2521   23.0473 C   0  0  0  0  0  0  0  0  0  0  0  0
  -22.3631  -28.7399   19.3301 C   0  0  0  0  0  0  0  0  0  0  0  0
  -18.2545  -28.0480   22.8517 C   0  0  0  0  0  0  0  0  0  0  0  0
  -23.3233  -27.7197   19.2714 C   0  0  0  0  0  0  0  0  0  0  0  0
  -31.7142  -21.5840   19.8597 C   0  0  0  0  0  0  0  0  0  0  0  0
  -32.8381  -23.4753   20.8581 C   0  0  0  0  0  0  0  0  0  0  0  0
  -24.4351  -12.1054   19.7750 C   0  0  0  0  0  0  0  0  0  0  0  0
  -24.9623  -29.2227   20.2536 C   0  0  0  0  0  0  0  0  0  0  0  0
  -23.3625  -10.1267   20.4508 C   0  0  0  0  0  0  0  0  0  0  0  0
  -22.7726   -8.2909   22.4668 C   0  0  0  0  0  0  0  0  0  0  0  0
  -34.0189  -21.3891   20.5579 C   0  0  0  0  0  0  0  0  0  0  0  0
  -22.0361   -9.8885   20.8109 C   0  0  0  0  0  0  0  0  0  0  0  0
  -33.9999  -22.7149   20.9908 C   0  0  0  0  0  0  0  0  0  0  0  0
  -26.8550  -15.4254   20.7845 C   0  0  0  0  0  0  0  0  0  0  0  0
  -28.4344  -16.7293   21.5848 C   0  0  0  0  0  0  0  0  0  0  0  0
  -28.7181  -14.3149   22.1667 C   0  0  0  0  0  0  0  0  0  0  0  0
  -30.9124  -28.0668   21.7383 C   0  0  0  0  0  0  0  0  0  0  0  0
  -31.9956  -27.0082   21.7506 C   0  0  0  0  0  0  0  0  0  0  0  0
  -20.2662  -26.5019   20.1655 C   0  0  0  0  0  0  0  0  0  0  0  0
  -28.5033  -28.7738   21.1808 C   0  0  0  0  0  0  0  0  0  0  0  0
  -21.2458  -25.1056   17.4063 C   0  0  0  0  0  0  0  0  0  0  0  0
  -23.6792  -24.7611   15.0385 C   0  0  0  0  0  0  0  0  0  0  0  0
  -29.3187  -21.6234   19.0810 C   0  0  0  0  0  0  0  0  0  0  0  0
  -15.8539  -27.2242   22.6288 C   0  0  0  0  0  0  0  0  0  0  0  0
  -20.9713  -28.5069   18.8094 C   0  0  0  0  0  0  0  0  0  0  0  0
  -22.9981  -26.3553   18.7228 C   0  0  0  0  0  0  0  0  0  0  0  0
  -16.3888  -26.2089   21.6221 C   0  0  0  0  0  0  0  0  0  0  0  0
  -26.0035  -20.9436   20.1875 C   0  0  0  0  0  0  0  0  0  0  0  0
  -17.7527  -25.6874   22.0631 C   0  0  0  0  0  0  0  0  0  0  0  0
  -26.0268  -19.4465   20.5042 C   0  0  0  0  0  0  0  0  0  0  0  0
  -26.8604  -21.2787   18.9680 C   0  0  0  0  0  0  0  0  0  0  0  0
  -28.2666  -19.2911   19.3438 C   0  0  0  0  0  0  0  0  0  0  0  0
  -18.7806  -26.8231   22.1354 C   0  0  1  0  0  0  0  0  0  0  0  0
  -20.5778  -27.0330   18.7949 C   0  0  1  0  0  0  0  0  0  0  0  0
  -27.4698  -18.9139   20.6034 C   0  0  2  0  0  0  0  0  0  0  0  0
  -24.2076  -23.5189   12.9231 C   0  0  0  0  0  0  0  0  0  0  0  0
  -21.8217  -22.5881   19.0314 C   0  0  0  0  0  0  0  0  0  0  0  0
  -23.1966  -21.7494   17.1146 C   0  0  0  0  0  0  0  0  0  0  0  0
  -20.7577  -22.1729   16.8066 C   0  0  0  0  0  0  0  0  0  0  0  0
  -23.8959  -27.2693   13.4825 C   0  0  0  0  0  0  0  0  0  0  0  0
  -29.5656  -27.6908   21.1718 C   0  0  0  0  0  0  0  0  0  0  0  0
  -31.6615  -25.6506   21.1887 C   0  0  0  0  0  0  0  0  0  0  0  0
  -27.1485  -28.3669   20.6331 C   0  0  0  0  0  0  0  0  0  1  0  0
  -22.3378  -24.1340   17.0289 C   0  0  1  0  0  0  0  0  0  0  0  0
  -23.6198  -24.7872   13.5218 C   0  0  2  0  0  0  0  0  0  0  0  0
  -22.0344  -22.6861   17.5076 C   0  0  0  0  0  0  0  0  0  0  0  0
  -26.5214  -16.6497   20.3675 N   0  0  0  0  0  0  0  0  0  0  0  0
  -27.5008  -17.4206   20.8702 N   0  0  0  0  0  0  0  0  0  0  0  0
  -21.6220  -26.1748   18.2316 N   0  0  0  0  0  0  0  0  0  0  0  0
  -28.2146  -20.7466   19.1348 N   0  0  0  0  0  0  0  0  0  0  0  0
  -29.4869  -17.3498   22.1591 N   0  0  0  0  0  0  0  0  0  0  0  0
  -28.1744  -13.0304   22.0293 N   0  0  0  0  0  0  0  0  0  0  0  0
  -30.5536  -21.0087   19.2855 N   0  0  0  0  0  0  0  0  0  0  0  0
  -32.8169  -24.7938   21.2875 N   0  0  0  0  0  0  0  0  0  0  0  0
  -19.2429  -27.1715   20.8090 N   0  0  0  0  0  0  0  0  0  0  0  0
  -22.5169  -24.2613   15.5866 N   0  0  0  0  0  0  0  0  0  0  0  0
  -24.3823  -25.9535   12.9935 N   0  3  0  0  0  0  0  0  0  0  0  0
  -29.7676  -14.4689   22.8363 O   0  0  0  0  0  0  0  0  0  0  0  0
  -31.2021  -29.1605   22.2042 O   0  0  0  0  0  0  0  0  0  0  0  0
  -33.0787  -27.3253   22.2251 O   0  0  0  0  0  0  0  0  0  0  0  0
  -20.9056  -25.5539   20.6059 O   0  0  0  0  0  0  0  0  0  0  0  0
  -28.7198  -29.9174   21.5774 O   0  0  0  0  0  0  0  0  0  0  0  0
  -20.1027  -24.9265   16.9787 O   0  0  0  0  0  0  0  0  0  0  0  0
  -24.6601  -25.1423   15.6733 O   0  0  0  0  0  0  0  0  0  0  0  0
  -29.1770  -22.8349   18.8961 O   0  0  0  0  0  0  0  0  0  0  0  0
  -23.6570  -11.0371   19.4497 O   0  0  0  0  0  0  0  0  0  0  0  0
  -26.2251  -29.4524   20.7057 O   0  0  0  0  0  0  0  0  0  1  0  0
  -22.4894   -7.4083   23.4338 F   0  0  0  0  0  0  0  0  0  0  0  0
  -35.1343  -20.6586   20.6860 F   0  0  0  0  0  0  0  0  0  0  0  0
  -21.0409  -10.5377   20.1912 F   0  0  0  0  0  0  0  0  0  0  0  0
  -35.1044  -23.2486   21.5322 F   0  0  0  0  0  0  0  0  0  0  0  0
  1  2  1  0  0  0  0
  1  5  2  0  0  0  0
  2  6  2  0  0  0  0
  3  8  2  0  0  0  0
  3 17  1  0  0  0  0
  4  9  1  0  0  0  0
  4 17  2  0  0  0  0
  5 19  1  0  0  0  0
  6 21  1  0  0  0  0
  7 10  2  0  0  0  0
  7 20  1  0  0  0  0
  8 25  1  0  0  0  0
  9 25  2  0  0  0  0
 10 26  1  0  0  0  0
 11 12  2  0  0  0  0
 11 27  1  0  0  0  0
 12 28  1  0  0  0  0
 13 22  1  0  0  0  0
 13 26  2  0  0  0  0
 14 23  2  0  0  0  0
 14 24  1  0  0  0  0
 15 23  1  0  0  0  0
 15 29  2  0  0  0  0
 16 28  2  0  0  0  0
 16 30  1  0  0  0  0
 17 32  1  0  0  0  0
 18 32  1  0  0  0  0
 18 33  2  0  0  0  0
 18 34  1  0  0  0  0
 19 21  2  0  0  0  0
 19 42  1  0  0  0  0
 20 22  2  0  0  0  0
 20 43  1  0  0  0  0
 21 51  1  0  0  0  0
 22 44  1  0  0  0  0
 23 71  1  0  0  0  0
 24 31  2  0  0  0  0
 24 72  1  0  0  0  0
 25 84  1  0  0  0  0
 26 85  1  0  0  0  0
 27 30  2  0  0  0  0
 27 84  1  0  0  0  0
 28 86  1  0  0  0  0
 29 31  1  0  0  0  0
 29 87  1  0  0  0  0
 30 88  1  0  0  0  0
 31 89  1  0  0  0  0
 32 65  2  0  0  0  0
 33 66  1  0  0  0  0
 33 69  1  0  0  0  0
 34 70  1  0  0  0  0
 34 76  2  0  0  0  0
 35 36  1  0  0  0  0
 35 59  1  0  0  0  0
 35 77  2  0  0  0  0
 36 60  1  0  0  0  0
 36 78  2  0  0  0  0
 37 52  1  0  0  0  0
 37 73  1  0  0  0  0
 37 79  2  0  0  0  0
 38 59  1  0  0  0  0
 38 61  1  0  0  0  0
 38 80  2  0  0  0  0
 39 62  1  0  0  0  0
 39 67  1  0  0  0  0
 39 81  2  0  0  0  0
 40 63  1  0  0  0  0
 40 74  1  0  0  0  0
 40 82  2  0  0  0  0
 41 68  1  0  0  0  0
 41 71  1  0  0  0  0
 41 83  2  0  0  0  0
 42 45  1  0  0  0  0
 43 52  1  0  0  0  0
 44 67  1  0  0  0  0
 45 47  1  0  0  0  0
 46 48  1  0  0  0  0
 46 49  1  0  0  0  0
 47 51  1  0  0  0  0
 48 53  1  0  0  0  0
 49 68  1  0  0  0  0
 50 53  1  0  0  0  0
 50 68  1  0  0  0  0
 51 73  1  0  0  0  0
 52 67  1  0  0  0  0
 53 66  1  0  0  0  0
 54 63  1  0  0  0  0
 55 64  1  0  0  0  0
 56 64  1  0  0  0  0
 57 64  1  0  0  0  0
 58 75  1  0  0  0  0
 60 72  1  0  0  0  0
 61 85  1  0  0  0  0
 62 64  1  0  0  0  0
 62 74  1  0  0  0  0
 63 75  1  0  0  0  0
 65 66  1  0  0  0  0
M  CHG  1  75   1
M  ISO  4  41 100  61 101  71 100  85 101
M  END
> <Batch ID>
0174

> <Smiles>
CNC(C)C(=O)NC(C(=O)N1Cc2cc([101O:1][101CH2:1]C(=O)CC(=O)C(=O)CNc3cc([100NH:0][100C:0](=O)N4CCCC(n5nc(-c6ccc(Oc7ccc(F)cc7F)cc6)c(C(N)=O)c5N)C4)cc(F)c3F)ccc2CC1C(=O)NC1CCCc2ccccc21)C(C)(C)C

> <Shape>
0.252

> <Color>
0.062

> <Negative vol penalty>
0.000

$$$$

  -OEChem-04052304333D

 88 96  0     1  0  0  0  0  0999 V2000
  -29.5841  -24.0287   14.2755 C   0  0  0  0  0  0  0  0  0  0  0  0
  -28.4356  -24.3663   14.9825 C   0  0  0  0  0  0  0  0  0  0  0  0
  -24.3243   -9.5110   20.6633 C   0  0  0  0  0  0  0  0  0  0  0  0
  -24.9015  -10.1803   22.9118 C   0  0  0  0  0  0  0  0  0  0  0  0
  -30.8353  -24.3828   14.7758 C   0  0  0  0  0  0  0  0  0  0  0  0
  -28.5372  -25.0685   16.1839 C   0  0  0  0  0  0  0  0  0  0  0  0
  -24.3387  -26.6076   18.2351 C   0  0  0  0  0  0  0  0  0  0  0  0
  -24.0387   -8.2242   21.1197 C   0  0  0  0  0  0  0  0  0  0  0  0
  -24.6159   -8.8935   23.3682 C   0  0  0  0  0  0  0  0  0  0  0  0
  -23.4341  -25.7384   18.8433 C   0  0  0  0  0  0  0  0  0  0  0  0
  -22.8117   -4.8612   21.7521 C   0  0  0  0  0  0  0  0  0  0  0  0
  -21.6422   -4.2551   21.2933 C   0  0  0  0  0  0  0  0  0  0  0  0
  -24.2107  -26.4567   21.0113 C   0  0  0  0  0  0  0  0  0  0  0  0
  -28.9446  -19.7551   19.8508 C   0  0  0  0  0  0  0  0  0  0  0  0
  -27.2611  -19.6223   21.5787 C   0  0  0  0  0  0  0  0  0  0  0  0
  -20.3365   -6.0448   22.2574 C   0  0  0  0  0  0  0  0  0  0  0  0
  -24.7557  -10.4890   21.5594 C   0  0  0  0  0  0  0  0  0  0  0  0
  -24.1609  -12.9044   20.9941 C   0  0  0  0  0  0  0  0  0  0  0  0
  -30.9520  -25.0787   15.9903 C   0  0  0  0  0  0  0  0  0  0  0  0
  -25.1952  -27.4012   19.0117 C   0  0  0  0  0  0  0  0  0  0  0  0
  -29.7898  -25.4559   16.6934 C   0  0  0  0  0  0  0  0  0  0  0  0
  -25.1235  -27.3370   20.4106 C   0  0  0  0  0  0  0  0  0  0  0  0
  -28.5953  -21.0843   19.6127 C   0  0  0  0  0  0  0  0  0  0  0  0
  -27.5789  -21.6826   20.3575 C   0  0  0  0  0  0  0  0  0  0  0  0
  -28.2774  -19.0240   20.8338 C   0  0  0  0  0  0  0  0  0  0  0  0
  -26.9118  -20.9516   21.3406 C   0  0  0  0  0  0  0  0  0  0  0  0
  -24.1844   -7.9155   22.4721 C   0  0  0  0  0  0  0  0  0  0  0  0
  -23.3719  -25.6607   20.2315 C   0  0  0  0  0  0  0  0  0  0  0  0
  -22.7436   -6.0591   22.4636 C   0  0  0  0  0  0  0  0  0  0  0  0
  -20.4046   -4.8469   21.5459 C   0  0  0  0  0  0  0  0  0  0  0  0
  -21.5060   -6.6509   22.7162 C   0  0  0  0  0  0  0  0  0  0  0  0
  -25.0515  -11.8183   21.0885 C   0  0  0  0  0  0  0  0  0  0  0  0
  -24.9235  -13.9312   20.4935 C   0  0  0  0  0  0  0  0  0  0  0  0
  -22.3109  -22.8866   22.2008 C   0  0  0  0  0  0  0  0  0  0  0  0
  -22.7687  -12.9786   21.3289 C   0  0  0  0  0  0  0  0  0  0  0  0
  -22.8111  -21.8387   22.8874 C   0  0  0  0  0  0  0  0  0  0  0  0
  -28.3476  -27.6394   19.3420 C   0  0  0  0  0  0  0  0  0  0  0  0
  -27.5682  -30.1636   21.2243 C   0  0  0  0  0  0  0  0  0  0  0  0
  -25.1284  -20.9438   23.1189 C   0  0  0  0  0  0  0  0  0  0  0  0
  -25.2439  -31.6986   23.1962 C   0  0  0  0  0  0  0  0  0  0  0  0
  -29.6153  -16.9288   20.4255 C   0  0  0  0  0  0  0  0  0  0  0  0
  -32.3306  -25.4438   16.4816 C   0  0  0  0  0  0  0  0  0  0  0  0
  -26.1468  -28.3533   18.3406 C   0  0  0  0  0  0  0  0  0  0  0  0
  -26.0070  -28.1827   21.2895 C   0  0  0  0  0  0  0  0  0  0  0  0
  -32.3602  -25.7896   17.9668 C   0  0  0  0  0  0  0  0  0  0  0  0
  -29.5888  -13.9151   18.5298 C   0  0  0  0  0  0  0  0  0  0  0  0
  -31.2628  -26.7929   18.2888 C   0  0  0  0  0  0  0  0  0  0  0  0
  -28.3327  -13.1903   19.0187 C   0  0  0  0  0  0  0  0  0  0  0  0
  -30.2899  -14.6620   19.6630 C   0  0  0  0  0  0  0  0  0  0  0  0
  -28.1769  -14.8535   20.9151 C   0  0  0  0  0  0  0  0  0  0  0  0
  -29.8774  -26.1928   18.0177 C   0  0  1  0  0  0  0  0  0  0  0  0
  -27.3294  -28.7381   19.2242 C   0  0  1  0  0  0  0  0  0  0  0  0
  -27.4006  -14.1401   19.7961 C   0  0  2  0  0  0  0  0  0  0  0  0
  -29.3258  -21.8451   18.5545 C   0  0  0  0  0  0  0  0  0  0  0  0
  -27.2083  -23.1094   20.0980 C   0  0  0  0  0  0  0  0  0  0  0  0
  -22.1640  -20.4755   22.9222 C   0  0  0  0  0  0  0  0  0  0  0  0
  -23.9788  -21.6544   25.2075 C   0  0  0  0  0  0  0  0  0  0  0  0
  -24.9099  -33.7310   24.6297 C   0  0  0  0  0  0  0  0  0  0  0  0
  -29.2691  -28.8941   23.4163 C   0  0  0  0  0  0  0  0  0  0  0  0
  -28.1545  -30.4136   25.0647 C   0  0  0  0  0  0  0  0  0  0  0  0
  -29.5165  -31.3740   23.2085 C   0  0  0  0  0  0  0  0  0  0  0  0
  -23.0106  -32.6631   21.5108 C   0  0  0  0  0  0  0  0  0  0  0  0
  -22.8633  -24.2737   22.0953 C   0  0  0  0  0  0  0  0  0  1  0  0
  -24.0995  -21.9217   23.7037 C   0  0  2  0  0  0  0  0  0  0  0  0
  -27.2637  -30.3497   22.6912 C   0  0  1  0  0  0  0  0  0  0  0  0
  -24.7500  -33.1333   23.2405 C   0  0  2  0  0  0  0  0  0  0  0  0
  -28.5355  -30.2404   23.5789 C   0  0  0  0  0  0  0  0  0  0  0  0
  -26.2854  -12.1263   20.6806 N   0  0  0  0  0  0  0  0  0  0  0  0
  -26.1757  -13.4176   20.3249 N   0  0  0  0  0  0  0  0  0  0  0  0
  -26.9253  -29.0935   20.5861 N   0  0  0  0  0  0  0  0  0  0  0  0
  -29.3465  -15.5457   20.3514 N   0  0  0  0  0  0  0  0  0  0  0  0
  -24.6384  -15.2143   20.1855 N   0  0  0  0  0  0  0  0  0  0  0  0
  -22.1403  -11.8309   21.8311 N   0  0  0  0  0  0  0  0  0  0  0  0
  -25.8768  -21.5386   22.1070 N   0  0  0  0  0  0  0  0  0  0  0  0
  -28.6314  -17.6734   21.0752 N   0  0  0  0  0  0  0  0  0  0  0  0
  -28.8808  -27.2345   18.1332 N   0  0  0  0  0  0  0  0  0  0  0  0
  -26.5638  -31.6247   22.8043 N   0  0  0  0  0  0  0  0  0  0  0  0
  -23.3093  -33.1970   22.8645 N   0  3  0  0  0  0  0  0  0  0  0  0
  -22.0979  -14.0268   21.1715 O   0  0  0  0  0  0  0  0  0  0  0  0
  -28.6298  -27.1932   20.4479 O   0  0  0  0  0  0  0  0  0  0  0  0
  -28.3421  -30.9436   20.6637 O   0  0  0  0  0  0  0  0  0  0  0  0
  -25.2483  -19.8011   23.5530 O   0  0  0  0  0  0  0  0  0  0  0  0
  -24.5313  -30.7396   23.4844 O   0  0  0  0  0  0  0  0  0  0  0  0
  -30.6294  -17.4206   19.9239 O   0  0  0  0  0  0  0  0  0  0  0  0
  -23.9056   -6.6600   22.9178 O   0  0  0  0  0  0  0  0  0  0  0  0
  -22.4903  -24.8127   20.8277 O   0  0  0  0  0  0  0  0  0  1  0  0
  -19.2817   -4.2655   21.1039 F   0  0  0  0  0  0  0  0  0  0  0  0
  -21.4343   -7.8022   23.3982 F   0  0  0  0  0  0  0  0  0  0  0  0
  1  2  1  0  0  0  0
  1  5  2  0  0  0  0
  2  6  2  0  0  0  0
  3  8  2  0  0  0  0
  3 17  1  0  0  0  0
  4  9  1  0  0  0  0
  4 17  2  0  0  0  0
  5 19  1  0  0  0  0
  6 21  1  0  0  0  0
  7 10  2  0  0  0  0
  7 20  1  0  0  0  0
  8 27  1  0  0  0  0
  9 27  2  0  0  0  0
 10 28  1  0  0  0  0
 11 12  2  0  0  0  0
 11 29  1  0  0  0  0
 12 30  1  0  0  0  0
 13 22  1  0  0  0  0
 13 28  2  0  0  0  0
 14 23  2  0  0  0  0
 14 25  1  0  0  0  0
 15 25  2  0  0  0  0
 15 26  1  0  0  0  0
 16 30  2  0  0  0  0
 16 31  1  0  0  0  0
 17 32  1  0  0  0  0
 18 32  1  0  0  0  0
 18 33  2  0  0  0  0
 18 35  1  0  0  0  0
 19 21  2  0  0  0  0
 19 42  1  0  0  0  0
 20 22  2  0  0  0  0
 20 43  1  0  0  0  0
 21 51  1  0  0  0  0
 22 44  1  0  0  0  0
 23 24  1  0  0  0  0
 23 54  1  0  0  0  0
 24 26  2  0  0  0  0
 24 55  1  0  0  0  0
 25 75  1  0  0  0  0
 26 74  1  0  0  0  0
 27 85  1  0  0  0  0
 28 86  1  0  0  0  0
 29 31  2  0  0  0  0
 29 85  1  0  0  0  0
 30 87  1  0  0  0  0
 31 88  1  0  0  0  0
 32 68  2  0  0  0  0
 33 69  1  0  0  0  0
 33 72  1  0  0  0  0
 34 36  2  0  0  0  0
 34 63  1  0  0  0  0
 35 73  1  0  0  0  0
 35 79  2  0  0  0  0
 36 56  1  0  0  0  0
 36 64  1  0  0  0  0
 37 52  1  0  0  0  0
 37 76  1  0  0  0  0
 37 80  2  0  0  0  0
 38 65  1  0  0  0  0
 38 70  1  0  0  0  0
 38 81  2  0  0  0  0
 39 64  1  0  0  0  0
 39 74  1  0  0  0  0
 39 82  2  0  0  0  0
 40 66  1  0  0  0  0
 40 77  1  0  0  0  0
 40 83  2  0  0  0  0
 41 71  1  0  0  0  0
 41 75  1  0  0  0  0
 41 84  2  0  0  0  0
 42 45  1  0  0  0  0
 43 52  1  0  0  0  0
 44 70  1  0  0  0  0
 45 47  1  0  0  0  0
 46 48  1  0  0  0  0
 46 49  1  0  0  0  0
 47 51  1  0  0  0  0
 48 53  1  0  0  0  0
 49 71  1  0  0  0  0
 50 53  1  0  0  0  0
 50 71  1  0  0  0  0
 51 76  1  0  0  0  0
 52 70  1  0  0  0  0
 53 69  1  0  0  0  0
 57 64  1  0  0  0  0
 58 66  1  0  0  0  0
 59 67  1  0  0  0  0
 60 67  1  0  0  0  0
 61 67  1  0  0  0  0
 62 78  1  0  0  0  0
 63 86  1  0  0  0  0
 65 67  1  0  0  0  0
 65 77  1  0  0  0  0
 66 78  1  0  0  0  0
 68 69  1  0  0  0  0
M  CHG  1  78   1
M  ISO  4  41 100  63 101  75 100  86 101
M  END
> <Batch ID>
0174

> <Smiles>
CNC(C)C(=O)NC(C(=O)N1Cc2cc([101O:1][101CH2:1]C=C(C)C(C)C(=O)Nc3cc([100NH:0][100C:0](=O)N4CCCC(n5nc(-c6ccc(Oc7ccc(F)cc7F)cc6)c(C(N)=O)c5N)C4)cc(C)c3C)ccc2CC1C(=O)NC1CCCc2ccccc21)C(C)(C)C

> <Shape>
0.291

> <Color>
0.122

> <Negative vol penalty>
0.000

$$$$

  -OEChem-04052304333D

 87 95  0     1  0  0  0  0  0999 V2000
  -22.6053  -36.0439   25.6299 C   0  0  0  0  0  0  0  0  0  0  0  0
  -22.1885  -35.5744   24.3885 C   0  0  0  0  0  0  0  0  0  0  0  0
  -24.4245   -9.8190   21.3735 C   0  0  0  0  0  0  0  0  0  0  0  0
  -24.8822  -10.8464   23.5118 C   0  0  0  0  0  0  0  0  0  0  0  0
  -23.9458  -35.9401   25.9990 C   0  0  0  0  0  0  0  0  0  0  0  0
  -23.1123  -35.0018   23.5149 C   0  0  0  0  0  0  0  0  0  0  0  0
  -22.2869  -28.2477   21.1501 C   0  0  0  0  0  0  0  0  0  0  0  0
  -24.0939   -8.6266   22.0172 C   0  0  0  0  0  0  0  0  0  0  0  0
  -24.5516   -9.6539   24.1555 C   0  0  0  0  0  0  0  0  0  0  0  0
  -22.0873  -27.0362   20.4879 C   0  0  0  0  0  0  0  0  0  0  0  0
  -21.4520   -7.3538   23.7004 C   0  0  0  0  0  0  0  0  0  0  0  0
  -20.2996   -6.6889   23.2815 C   0  0  0  0  0  0  0  0  0  0  0  0
  -24.1985  -27.3039   19.3393 C   0  0  0  0  0  0  0  0  0  0  0  0
  -27.7253  -20.0309   21.1882 C   0  0  0  0  0  0  0  0  0  0  0  0
  -29.9198  -20.0265   20.1775 C   0  0  0  0  0  0  0  0  0  0  0  0
  -21.6265   -4.7551   22.7009 C   0  0  0  0  0  0  0  0  0  0  0  0
  -24.8187  -10.9289   22.1208 C   0  0  0  0  0  0  0  0  0  0  0  0
  -24.2935  -13.2215   21.1328 C   0  0  0  0  0  0  0  0  0  0  0  0
  -24.8847  -35.3571   25.1334 C   0  0  0  0  0  0  0  0  0  0  0  0
  -23.4517  -28.9853   20.9207 C   0  0  0  0  0  0  0  0  0  0  0  0
  -24.4668  -34.8913   23.8722 C   0  0  0  0  0  0  0  0  0  0  0  0
  -24.4097  -28.5120   20.0091 C   0  0  0  0  0  0  0  0  0  0  0  0
  -27.7247  -21.4257   21.1809 C   0  0  0  0  0  0  0  0  0  0  0  0
  -28.8229  -19.3313   20.6866 C   0  0  0  0  0  0  0  0  0  0  0  0
  -29.9192  -21.4214   20.1702 C   0  0  0  0  0  0  0  0  0  0  0  0
  -24.1574   -8.5440   23.4081 C   0  0  0  0  0  0  0  0  0  0  0  0
  -23.0406  -26.5656   19.5846 C   0  0  0  0  0  0  0  0  0  0  0  0
  -22.6917   -6.7194   23.6195 C   0  0  0  0  0  0  0  0  0  0  0  0
  -20.3868   -5.3895   22.7818 C   0  0  0  0  0  0  0  0  0  0  0  0
  -22.7789   -5.4200   23.1198 C   0  0  0  0  0  0  0  0  0  0  0  0
  -28.8216  -22.1209   20.6719 C   0  0  0  0  0  0  0  0  0  0  0  0
  -25.1608  -12.1609   21.4565 C   0  0  0  0  0  0  0  0  0  0  0  0
  -25.0989  -14.1477   20.5163 C   0  0  0  0  0  0  0  0  0  0  0  0
  -22.8858  -13.3573   21.3684 C   0  0  0  0  0  0  0  0  0  0  0  0
  -23.2371  -22.6581   19.9519 C   0  0  0  0  0  0  0  0  0  0  0  0
  -24.2363  -22.7983   21.0631 C   0  0  0  0  0  0  0  0  0  0  0  0
  -25.4580  -32.0516   21.7259 C   0  0  0  0  0  0  0  0  0  0  0  0
  -27.4400  -29.7196   21.5162 C   0  0  0  0  0  0  0  0  0  0  0  0
  -29.2343  -26.8199   21.6133 C   0  0  0  0  0  0  0  0  0  0  0  0
  -29.8315  -17.0676   20.2338 C   0  0  0  0  0  0  0  0  0  0  0  0
  -26.3314  -35.3098   25.5572 C   0  0  0  0  0  0  0  0  0  0  0  0
  -23.6800  -30.3254   21.5654 C   0  0  0  0  0  0  0  0  0  0  0  0
  -25.6314  -29.3560   19.7678 C   0  0  0  0  0  0  0  0  0  0  0  0
  -27.1785  -34.3500   24.7257 C   0  0  0  0  0  0  0  0  0  0  0  0
  -29.8681  -13.7830   18.8600 C   0  0  0  0  0  0  0  0  0  0  0  0
  -26.9007  -34.5442   23.2384 C   0  0  0  0  0  0  0  0  0  0  0  0
  -28.5754  -13.1554   19.3864 C   0  0  0  0  0  0  0  0  0  0  0  0
  -30.5144  -14.7025   19.8947 C   0  0  0  0  0  0  0  0  0  0  0  0
  -28.3364  -15.1091   20.9717 C   0  0  0  0  0  0  0  0  0  0  0  0
  -25.4344  -34.2414   22.9070 C   0  0  1  0  0  0  0  0  0  0  0  0
  -25.1593  -30.5912   21.8975 C   0  0  1  0  0  0  0  0  0  0  0  0
  -27.6147  -14.2254   19.9412 C   0  0  2  0  0  0  0  0  0  0  0  0
  -31.5659  -25.9567   21.9540 C   0  0  0  0  0  0  0  0  0  0  0  0
  -28.1857  -30.6343   18.7036 C   0  0  0  0  0  0  0  0  0  0  0  0
  -30.0660  -28.9817   18.7413 C   0  0  0  0  0  0  0  0  0  0  0  0
  -30.0180  -30.8516   20.3917 C   0  0  0  0  0  0  0  0  0  0  0  0
  -28.4292  -25.2459   23.9868 C   0  0  0  0  0  0  0  0  0  0  0  0
  -26.5415  -22.1756   21.7211 C   0  0  0  0  0  0  0  0  0  0  0  0
  -23.6701  -23.1484   18.5877 C   0  0  0  0  0  0  0  0  0  0  0  0
  -24.0036  -24.6328   18.5874 C   0  0  0  0  0  0  0  0  0  1  0  0
  -28.3848  -28.9375   20.6393 C   0  0  1  0  0  0  0  0  0  0  0  0
  -30.2399  -26.2905   22.6197 C   0  0  2  0  0  0  0  0  0  0  0  0
  -29.1368  -29.8428   19.6232 C   0  0  0  0  0  0  0  0  0  0  0  0
  -26.4206  -12.3908   21.0769 N   0  0  0  0  0  0  0  0  0  0  0  0
  -26.3508  -13.6065   20.5083 N   0  0  0  0  0  0  0  0  0  0  0  0
  -26.1331  -29.8900   21.0436 N   0  0  0  0  0  0  0  0  0  0  0  0
  -29.5465  -15.6926   20.3719 N   0  0  0  0  0  0  0  0  0  0  0  0
  -31.0296  -22.1222   19.6545 N   0  0  0  0  0  0  0  0  0  0  0  0
  -24.8512  -15.3640   19.9858 N   0  0  0  0  0  0  0  0  0  0  0  0
  -22.2124  -12.3114   22.0142 N   0  0  0  0  0  0  0  0  0  0  0  0
  -28.8233  -17.9143   20.6935 N   0  0  0  0  0  0  0  0  0  0  0  0
  -25.4217  -22.1476   20.8094 N   0  0  0  0  0  0  0  0  0  0  0  0
  -25.2131  -32.8122   22.8533 N   0  0  0  0  0  0  0  0  0  0  0  0
  -29.2600  -28.1966   21.5413 N   0  0  0  0  0  0  0  0  0  0  0  0
  -29.7184  -25.0569   23.2732 N   0  3  0  0  0  0  0  0  0  0  0  0
  -22.2409  -14.3689   21.0019 O   0  0  0  0  0  0  0  0  0  0  0  0
  -22.1591  -22.1545   20.2300 O   0  0  0  0  0  0  0  0  0  0  0  0
  -23.9206  -23.4735   22.0301 O   0  0  0  0  0  0  0  0  0  0  0  0
  -25.8811  -32.4594   20.6506 O   0  0  0  0  0  0  0  0  0  0  0  0
  -27.8484  -30.1730   22.5890 O   0  0  0  0  0  0  0  0  0  0  0  0
  -28.5020  -26.0853   20.9540 O   0  0  0  0  0  0  0  0  0  0  0  0
  -30.8799  -17.4645   19.7189 O   0  0  0  0  0  0  0  0  0  0  0  0
  -23.8347   -7.3806   24.0366 O   0  0  0  0  0  0  0  0  0  0  0  0
  -22.8416  -25.3799   18.9449 O   0  0  0  0  0  0  0  0  0  1  0  0
  -19.2799   -4.7506   22.3810 F   0  0  0  0  0  0  0  0  0  0  0  0
  -23.9668   -4.8049   23.0409 F   0  0  0  0  0  0  0  0  0  0  0  0
  -28.8196  -23.4625   20.6650 F   0  0  0  0  0  0  0  0  0  0  0  0
  1  2  1  0  0  0  0
  1  5  2  0  0  0  0
  2  6  2  0  0  0  0
  3  8  2  0  0  0  0
  3 17  1  0  0  0  0
  4  9  1  0  0  0  0
  4 17  2  0  0  0  0
  5 19  1  0  0  0  0
  6 21  1  0  0  0  0
  7 10  2  0  0  0  0
  7 20  1  0  0  0  0
  8 26  1  0  0  0  0
  9 26  2  0  0  0  0
 10 27  1  0  0  0  0
 11 12  2  0  0  0  0
 11 28  1  0  0  0  0
 12 29  1  0  0  0  0
 13 22  1  0  0  0  0
 13 27  2  0  0  0  0
 14 23  1  0  0  0  0
 14 24  2  0  0  0  0
 15 24  1  0  0  0  0
 15 25  2  0  0  0  0
 16 29  2  0  0  0  0
 16 30  1  0  0  0  0
 17 32  1  0  0  0  0
 18 32  1  0  0  0  0
 18 33  2  0  0  0  0
 18 34  1  0  0  0  0
 19 21  2  0  0  0  0
 19 41  1  0  0  0  0
 20 22  2  0  0  0  0
 20 42  1  0  0  0  0
 21 50  1  0  0  0  0
 22 43  1  0  0  0  0
 23 31  2  0  0  0  0
 23 58  1  0  0  0  0
 24 71  1  0  0  0  0
 25 31  1  0  0  0  0
 25 68  1  0  0  0  0
 26 83  1  0  0  0  0
 27 84  1  0  0  0  0
 28 30  2  0  0  0  0
 28 83  1  0  0  0  0
 29 85  1  0  0  0  0
 30 86  1  0  0  0  0
 31 87  1  0  0  0  0
 32 64  2  0  0  0  0
 33 65  1  0  0  0  0
 33 69  1  0  0  0  0
 34 70  1  0  0  0  0
 34 76  2  0  0  0  0
 35 36  1  0  0  0  0
 35 59  1  0  0  0  0
 35 77  2  0  0  0  0
 36 72  1  0  0  0  0
 36 78  2  0  0  0  0
 37 51  1  0  0  0  0
 37 73  1  0  0  0  0
 37 79  2  0  0  0  0
 38 61  1  0  0  0  0
 38 66  1  0  0  0  0
 38 80  2  0  0  0  0
 39 62  1  0  0  0  0
 39 74  1  0  0  0  0
 39 81  2  0  0  0  0
 40 67  1  0  0  0  0
 40 71  1  0  0  0  0
 40 82  2  0  0  0  0
 41 44  1  0  0  0  0
 42 51  1  0  0  0  0
 43 66  1  0  0  0  0
 44 46  1  0  0  0  0
 45 47  1  0  0  0  0
 45 48  1  0  0  0  0
 46 50  1  0  0  0  0
 47 52  1  0  0  0  0
 48 67  1  0  0  0  0
 49 52  1  0  0  0  0
 49 67  1  0  0  0  0
 50 73  1  0  0  0  0
 51 66  1  0  0  0  0
 52 65  1  0  0  0  0
 53 62  1  0  0  0  0
 54 63  1  0  0  0  0
 55 63  1  0  0  0  0
 56 63  1  0  0  0  0
 57 75  1  0  0  0  0
 58 72  1  0  0  0  0
 59 60  1  0  0  0  0
 60 84  1  0  0  0  0
 61 63  1  0  0  0  0
 61 74  1  0  0  0  0
 62 75  1  0  0  0  0
 64 65  1  0  0  0  0
M  CHG  1  75   1
M  ISO  4  40 100  60 101  71 100  84 101
M  END
> <Batch ID>
0174

> <Smiles>
CNC(C)C(=O)NC(C(=O)N1Cc2cc([101O:1][101CH2:1]CC(=O)C(=O)NCc3cc([100NH:0][100C:0](=O)N4CCCC(n5nc(-c6ccc(Oc7ccc(F)cc7F)cc6)c(C(N)=O)c5N)C4)cc(N)c3F)ccc2CC1C(=O)NC1CCCc2ccccc21)C(C)(C)C

> <Shape>
0.312

> <Color>
0.115

> <Negative vol penalty>
0.000

$$$$

  -OEChem-04052304333D

 84 92  0     1  0  0  0  0  0999 V2000
  -27.7417  -37.2781   19.1578 C   0  0  0  0  0  0  0  0  0  0  0  0
  -28.1700  -35.9654   18.9880 C   0  0  0  0  0  0  0  0  0  0  0  0
  -24.8099   -8.9917   21.6609 C   0  0  0  0  0  0  0  0  0  0  0  0
  -23.2089  -10.4452   20.5832 C   0  0  0  0  0  0  0  0  0  0  0  0
  -26.9283  -37.6103   20.2404 C   0  0  0  0  0  0  0  0  0  0  0  0
  -27.7859  -34.9843   19.9014 C   0  0  0  0  0  0  0  0  0  0  0  0
  -26.5924  -29.0992   18.6982 C   0  0  0  0  0  0  0  0  0  0  0  0
  -23.7920   -8.4552   22.4494 C   0  0  0  0  0  0  0  0  0  0  0  0
  -22.1911   -9.9086   21.3717 C   0  0  0  0  0  0  0  0  0  0  0  0
  -27.3589  -27.9416   18.8258 C   0  0  0  0  0  0  0  0  0  0  0  0
  -21.2996   -6.1969   22.1018 C   0  0  0  0  0  0  0  0  0  0  0  0
  -21.2568   -4.8106   22.2501 C   0  0  0  0  0  0  0  0  0  0  0  0
  -26.3503  -27.5181   20.9759 C   0  0  0  0  0  0  0  0  0  0  0  0
  -21.5100   -5.0584   24.6400 C   0  0  0  0  0  0  0  0  0  0  0  0
  -24.5184   -9.9867   20.7278 C   0  0  0  0  0  0  0  0  0  0  0  0
  -26.0009  -10.0837   18.6541 C   0  0  0  0  0  0  0  0  0  0  0  0
  -26.5262  -36.6309   21.1621 C   0  0  0  0  0  0  0  0  0  0  0  0
  -25.7057  -29.4814   19.7151 C   0  0  0  0  0  0  0  0  0  0  0  0
  -26.9675  -35.3039   20.9981 C   0  0  0  0  0  0  0  0  0  0  0  0
  -25.5719  -28.6796   20.8576 C   0  0  0  0  0  0  0  0  0  0  0  0
  -22.4826   -8.9136   22.3048 C   0  0  0  0  0  0  0  0  0  0  0  0
  -27.2400  -27.1524   19.9660 C   0  0  0  0  0  0  0  0  0  0  0  0
  -21.4476   -7.0140   23.2226 C   0  0  0  0  0  0  0  0  0  0  0  0
  -21.3620   -4.2414   23.5191 C   0  0  0  0  0  0  0  0  0  0  0  0
  -21.5528   -6.4447   24.4917 C   0  0  0  0  0  0  0  0  0  0  0  0
  -25.5694  -10.5417   19.9134 C   0  0  0  0  0  0  0  0  0  0  0  0
  -26.4605  -20.0435   17.8174 C   0  0  0  0  0  0  0  0  0  0  0  0
  -27.0144  -10.9425   18.3051 C   0  0  0  0  0  0  0  0  0  0  0  0
  -25.2285  -19.5744   17.4122 C   0  0  0  0  0  0  0  0  0  0  0  0
  -26.6209  -17.9936   18.5805 C   0  0  0  0  0  0  0  0  0  0  0  0
  -25.5279   -8.9805   17.8699 C   0  0  0  0  0  0  0  0  0  0  0  0
  -26.9539  -21.4243   17.5788 C   0  0  0  0  0  0  0  0  0  0  0  0
  -25.4533  -31.9958   21.6433 C   0  0  0  0  0  0  0  0  0  0  0  0
  -28.4741  -23.8497   19.1387 C   0  0  0  0  0  0  0  0  0  0  0  0
  -22.6823  -30.5549   22.5194 C   0  0  0  0  0  0  0  0  0  0  0  0
  -20.8634  -27.6774   22.7611 C   0  0  0  0  0  0  0  0  0  0  0  0
  -28.2935  -16.5784   19.8238 C   0  0  0  0  0  0  0  0  0  0  0  0
  -25.6852  -37.0470   22.3429 C   0  0  0  0  0  0  0  0  0  0  0  0
  -24.8664  -30.7188   19.5503 C   0  0  0  0  0  0  0  0  0  0  0  0
  -24.6194  -29.0352   21.9689 C   0  0  0  0  0  0  0  0  0  0  0  0
  -25.0156  -35.8755   23.0568 C   0  0  0  0  0  0  0  0  0  0  0  0
  -30.3918  -13.7322   20.2402 C   0  0  0  0  0  0  0  0  0  0  0  0
  -26.0163  -34.7471   23.2852 C   0  0  0  0  0  0  0  0  0  0  0  0
  -29.4337  -12.5493   20.0830 C   0  0  0  0  0  0  0  0  0  0  0  0
  -29.7320  -14.9041   20.9649 C   0  0  0  0  0  0  0  0  0  0  0  0
  -27.4979  -14.1671   20.2337 C   0  0  0  0  0  0  0  0  0  0  0  0
  -26.5517  -34.2067   21.9537 C   0  0  1  0  0  0  0  0  0  0  0  0
  -24.3725  -31.2868   20.8772 C   0  0  1  0  0  0  0  0  0  0  0  0
  -28.0972  -12.9866   19.4520 C   0  0  2  0  0  0  0  0  0  0  0  0
  -18.6465  -26.8090   23.5540 C   0  0  0  0  0  0  0  0  0  0  0  0
  -23.6471  -30.7365   25.4084 C   0  0  0  0  0  0  0  0  0  0  0  0
  -21.9005  -29.0519   26.0244 C   0  0  0  0  0  0  0  0  0  0  0  0
  -21.2235  -31.2606   25.0831 C   0  0  0  0  0  0  0  0  0  0  0  0
  -20.1242  -26.7534   20.0484 C   0  0  0  0  0  0  0  0  0  0  0  0
  -28.8300  -23.0093   17.9309 C   0  0  0  0  0  0  0  0  0  0  0  0
  -28.3419  -25.3392   18.8917 C   0  0  0  0  0  0  0  0  0  1  0  0
  -22.2890  -29.5411   23.5666 C   0  0  1  0  0  0  0  0  0  0  0  0
  -19.4320  -27.3548   22.3717 C   0  0  2  0  0  0  0  0  0  0  0  0
  -22.2845  -30.1416   25.0007 C   0  0  0  0  0  0  0  0  0  0  0  0
  -26.2529  -11.6087   20.3359 N   0  0  0  0  0  0  0  0  0  0  0  0
  -27.2602  -19.1386   18.4878 N   0  0  0  0  0  0  0  0  0  0  0  0
  -27.1242  -11.8281   19.3366 N   0  0  0  0  0  0  0  0  0  0  0  0
  -23.8254  -30.2579   21.7639 N   0  0  0  0  0  0  0  0  0  0  0  0
  -28.4736  -15.2657   20.3088 N   0  0  0  0  0  0  0  0  0  0  0  0
  -27.8134  -11.0190   17.2197 N   0  0  0  0  0  0  0  0  0  0  0  0
  -24.2546  -20.2399   16.7439 N   0  0  0  0  0  0  0  0  0  0  0  0
  -24.4796   -8.2009   18.3774 N   0  0  0  0  0  0  0  0  0  0  0  0
  -27.0706  -16.7961   19.1900 N   0  0  0  0  0  0  0  0  0  0  0  0
  -28.2269  -21.7165   18.0621 N   0  0  0  0  0  0  0  0  0  0  0  0
  -25.5763  -33.3366   21.3325 N   0  0  0  0  0  0  0  0  0  0  0  0
  -21.0042  -28.9947   23.1435 N   0  0  0  0  0  0  0  0  0  0  0  0
  -19.4082  -26.3384   21.2821 N   0  3  0  0  0  0  0  0  0  0  0  0
  -26.0313   -8.6846   16.7597 O   0  0  0  0  0  0  0  0  0  0  0  0
  -26.2285  -22.2291   17.0003 O   0  0  0  0  0  0  0  0  0  0  0  0
  -26.1249  -31.3728   22.4573 O   0  0  0  0  0  0  0  0  0  0  0  0
  -28.3510  -23.3657   20.2635 O   0  0  0  0  0  0  0  0  0  0  0  0
  -21.9963  -31.5695   22.3723 O   0  0  0  0  0  0  0  0  0  0  0  0
  -21.7656  -26.8432   22.7327 O   0  0  0  0  0  0  0  0  0  0  0  0
  -29.1712  -17.4380   19.9365 O   0  0  0  0  0  0  0  0  0  0  0  0
  -21.4891   -8.3901   23.0738 O   0  0  0  0  0  0  0  0  0  0  0  0
  -27.9874  -26.0223   20.0934 O   0  0  0  0  0  0  0  0  0  1  0  0
  -21.3194   -2.9102   23.6615 F   0  0  0  0  0  0  0  0  0  0  0  0
  -21.6940   -7.2246   25.5723 F   0  0  0  0  0  0  0  0  0  0  0  0
  -25.0541  -17.9344   17.8828 S   0  0  0  0  0  0  0  0  0  0  0  0
  1  2  1  0  0  0  0
  1  5  2  0  0  0  0
  2  6  2  0  0  0  0
  3  8  2  0  0  0  0
  3 15  1  0  0  0  0
  4  9  1  0  0  0  0
  4 15  2  0  0  0  0
  5 17  1  0  0  0  0
  6 19  1  0  0  0  0
  7 10  2  0  0  0  0
  7 18  1  0  0  0  0
  8 21  1  0  0  0  0
  9 21  2  0  0  0  0
 10 22  1  0  0  0  0
 11 12  2  0  0  0  0
 11 23  1  0  0  0  0
 12 24  1  0  0  0  0
 13 20  1  0  0  0  0
 13 22  2  0  0  0  0
 14 24  2  0  0  0  0
 14 25  1  0  0  0  0
 15 26  1  0  0  0  0
 16 26  1  0  0  0  0
 16 28  2  0  0  0  0
 16 31  1  0  0  0  0
 17 19  2  0  0  0  0
 17 38  1  0  0  0  0
 18 20  2  0  0  0  0
 18 39  1  0  0  0  0
 19 47  1  0  0  0  0
 20 40  1  0  0  0  0
 21 80  1  0  0  0  0
 22 81  1  0  0  0  0
 23 25  2  0  0  0  0
 23 80  1  0  0  0  0
 24 82  1  0  0  0  0
 25 83  1  0  0  0  0
 26 60  2  0  0  0  0
 27 29  2  0  0  0  0
 27 32  1  0  0  0  0
 27 61  1  0  0  0  0
 28 62  1  0  0  0  0
 28 65  1  0  0  0  0
 29 66  1  0  0  0  0
 29 84  1  0  0  0  0
 30 61  2  0  0  0  0
 30 68  1  0  0  0  0
 30 84  1  0  0  0  0
 31 67  1  0  0  0  0
 31 73  2  0  0  0  0
 32 69  1  0  0  0  0
 32 74  2  0  0  0  0
 33 48  1  0  0  0  0
 33 70  1  0  0  0  0
 33 75  2  0  0  0  0
 34 55  1  0  0  0  0
 34 56  1  0  0  0  0
 34 76  2  0  0  0  0
 35 57  1  0  0  0  0
 35 63  1  0  0  0  0
 35 77  2  0  0  0  0
 36 58  1  0  0  0  0
 36 71  1  0  0  0  0
 36 78  2  0  0  0  0
 37 64  1  0  0  0  0
 37 68  1  0  0  0  0
 37 79  2  0  0  0  0
 38 41  1  0  0  0  0
 39 48  1  0  0  0  0
 40 63  1  0  0  0  0
 41 43  1  0  0  0  0
 42 44  1  0  0  0  0
 42 45  1  0  0  0  0
 43 47  1  0  0  0  0
 44 49  1  0  0  0  0
 45 64  1  0  0  0  0
 46 49  1  0  0  0  0
 46 64  1  0  0  0  0
 47 70  1  0  0  0  0
 48 63  1  0  0  0  0
 49 62  1  0  0  0  0
 50 58  1  0  0  0  0
 51 59  1  0  0  0  0
 52 59  1  0  0  0  0
 53 59  1  0  0  0  0
 54 72  1  0  0  0  0
 55 69  1  0  0  0  0
 56 81  1  0  0  0  0
 57 59  1  0  0  0  0
 57 71  1  0  0  0  0
 58 72  1  0  0  0  0
 60 62  1  0  0  0  0
M  CHG  1  72   1
M  ISO  4  37 100  56 101  68 100  81 101
M  END
> <Batch ID>
0174

> <Smiles>
CNC(C)C(=O)NC(C(=O)N1Cc2cc([101O:1][101CH2:1]C(=O)CNC(=O)c3nc([100NH:0][100C:0](=O)N4CCCC(n5nc(-c6ccc(Oc7ccc(F)cc7F)cc6)c(C(N)=O)c5N)C4)sc3N)ccc2CC1C(=O)NC1CCCc2ccccc21)C(C)(C)C

> <Shape>
0.305

> <Color>
0.100

> <Negative vol penalty>
0.000

$$$$

  -OEChem-04052304333D

 87 95  0     1  0  0  0  0  0999 V2000
  -22.0507   -7.7722   21.4067 C   0  0  0  0  0  0  0  0  0  0  0  0
  -23.1622   -8.5530   21.1062 C   0  0  0  0  0  0  0  0  0  0  0  0
  -24.7763  -31.5644   21.1048 C   0  0  0  0  0  0  0  0  0  0  0  0
  -24.9668  -30.2422   23.1179 C   0  0  0  0  0  0  0  0  0  0  0  0
  -20.7884   -8.3593   21.4851 C   0  0  0  0  0  0  0  0  0  0  0  0
  -23.0119   -9.9212   20.8827 C   0  0  0  0  0  0  0  0  0  0  0  0
  -26.5369  -12.6758   23.2559 C   0  0  0  0  0  0  0  0  0  0  0  0
  -24.3167  -32.6448   21.8578 C   0  0  0  0  0  0  0  0  0  0  0  0
  -24.5073  -31.3227   23.8710 C   0  0  0  0  0  0  0  0  0  0  0  0
  -27.8030  -12.7272   22.6744 C   0  0  0  0  0  0  0  0  0  0  0  0
  -23.4364  -35.8664   23.2934 C   0  0  0  0  0  0  0  0  0  0  0  0
  -23.9743  -37.1238   23.0189 C   0  0  0  0  0  0  0  0  0  0  0  0
  -27.2774  -14.8862   21.7353 C   0  0  0  0  0  0  0  0  0  0  0  0
  -26.1786  -36.3003   23.5669 C   0  0  0  0  0  0  0  0  0  0  0  0
  -25.1013  -30.3630   21.7348 C   0  0  0  0  0  0  0  0  0  0  0  0
  -26.9112  -28.9432   20.6321 C   0  0  0  0  0  0  0  0  0  0  0  0
  -20.6240   -9.7370   21.2720 C   0  0  0  0  0  0  0  0  0  0  0  0
  -25.6261  -13.7261   23.0722 C   0  0  0  0  0  0  0  0  0  0  0  0
  -21.7461  -10.5270   20.9570 C   0  0  0  0  0  0  0  0  0  0  0  0
  -26.0013  -14.8468   22.3177 C   0  0  0  0  0  0  0  0  0  0  0  0
  -24.1823  -32.5240   23.2409 C   0  0  0  0  0  0  0  0  0  0  0  0
  -28.1723  -13.8312   21.9115 C   0  0  0  0  0  0  0  0  0  0  0  0
  -24.2695  -34.8260   23.7047 C   0  0  0  0  0  0  0  0  0  0  0  0
  -25.3454  -37.3407   23.1557 C   0  0  0  0  0  0  0  0  0  0  0  0
  -25.6406  -35.0430   23.8414 C   0  0  0  0  0  0  0  0  0  0  0  0
  -27.8361  -19.3448   18.9121 C   0  0  0  0  0  0  0  0  0  0  0  0
  -26.7024  -20.1991   18.7898 C   0  0  0  0  0  0  0  0  0  0  0  0
  -25.5756  -29.2464   20.9574 C   0  0  0  0  0  0  0  0  0  0  0  0
  -28.8739  -19.9548   19.5817 C   0  0  0  0  0  0  0  0  0  0  0  0
  -26.8302  -27.7932   19.8855 C   0  0  0  0  0  0  0  0  0  0  0  0
  -26.9168  -21.4296   19.3710 C   0  0  0  0  0  0  0  0  0  0  0  0
  -28.1173  -29.6389   20.9743 C   0  0  0  0  0  0  0  0  0  0  0  0
  -30.2161  -19.4111   19.9136 C   0  0  0  0  0  0  0  0  0  0  0  0
  -31.6132  -16.0645   19.1630 C   0  0  0  0  0  0  0  0  0  0  0  0
  -31.1103  -14.9223   20.0089 C   0  0  0  0  0  0  0  0  0  0  0  0
  -22.7492  -13.9943   21.7472 C   0  0  0  0  0  0  0  0  0  0  0  0
  -22.9063  -17.0040   22.9470 C   0  0  0  0  0  0  0  0  0  0  0  0
  -24.8477  -19.5978   24.0191 C   0  0  0  0  0  0  0  0  0  0  0  0
  -24.7713  -22.6963   18.9991 C   0  0  0  0  0  0  0  0  0  0  0  0
  -19.2332  -10.3182   21.3209 C   0  0  0  0  0  0  0  0  0  0  0  0
  -24.2738  -13.6675   23.7283 C   0  0  0  0  0  0  0  0  0  0  0  0
  -25.0676  -16.0097   22.1070 C   0  0  0  0  0  0  0  0  0  0  0  0
  -19.2128  -11.8400   21.4397 C   0  0  0  0  0  0  0  0  0  0  0  0
  -22.8222  -25.4523   17.8663 C   0  0  0  0  0  0  0  0  0  0  0  0
  -20.1883  -12.4660   20.4480 C   0  0  0  0  0  0  0  0  0  0  0  0
  -23.4746  -26.6601   18.5428 C   0  0  0  0  0  0  0  0  0  0  0  0
  -22.8242  -24.2239   18.7746 C   0  0  0  0  0  0  0  0  0  0  0  0
  -24.7895  -25.0664   19.9982 C   0  0  0  0  0  0  0  0  0  0  0  0
  -21.6272  -12.0188   20.7326 C   0  0  1  0  0  0  0  0  0  0  0  0
  -23.2408  -14.5612   23.0490 C   0  0  1  0  0  0  0  0  0  0  0  0
  -24.8692  -26.3100   19.0978 C   0  0  2  0  0  0  0  0  0  0  0  0
  -24.6913  -21.9406   24.9048 C   0  0  0  0  0  0  0  0  0  0  0  0
  -22.2841  -18.0216   20.1385 C   0  0  0  0  0  0  0  0  0  0  0  0
  -23.0690  -20.2867   20.8608 C   0  0  0  0  0  0  0  0  0  0  0  0
  -21.0992  -19.2373   21.9749 C   0  0  0  0  0  0  0  0  0  0  0  0
  -26.1689  -18.8495   26.5595 C   0  0  0  0  0  0  0  0  0  0  0  0
  -31.7114  -17.4369   19.7627 C   0  0  0  0  0  0  0  0  0  0  0  0
  -29.7193  -15.0446   20.5735 C   0  0  0  0  0  0  0  0  0  1  0  0
  -23.4137  -18.3321   22.4393 C   0  0  1  0  0  0  0  0  0  0  0  0
  -24.7731  -20.4649   25.2630 C   0  0  2  0  0  0  0  0  0  0  0  0
  -22.4836  -18.9468   21.3556 C   0  0  0  0  0  0  0  0  0  0  0  0
  -24.7094  -28.3606   20.4582 N   0  0  0  0  0  0  0  0  0  0  0  0
  -31.9324  -15.8019   17.9395 N   0  0  0  0  0  0  0  0  0  0  0  0
  -25.5027  -27.4895   19.8116 N   0  0  0  0  0  0  0  0  0  0  0  0
  -23.7543  -15.9026   22.7637 N   0  0  0  0  0  0  0  0  0  0  0  0
  -24.1790  -23.9503   19.2589 N   0  0  0  0  0  0  0  0  0  0  0  0
  -27.7658  -27.0223   19.2916 N   0  0  0  0  0  0  0  0  0  0  0  0
  -28.0203  -30.8037   21.7476 N   0  0  0  0  0  0  0  0  0  0  0  0
  -26.0735  -22.5631   19.4796 N   0  0  0  0  0  0  0  0  0  0  0  0
  -30.4737  -18.1075   19.4966 N   0  0  0  0  0  0  0  0  0  0  0  0
  -22.1685  -12.7456   21.8610 N   0  0  0  0  0  0  0  0  0  0  0  0
  -23.5989  -19.1749   23.6157 N   0  0  0  0  0  0  0  0  0  0  0  0
  -25.9778  -20.2539   26.1145 N   0  3  0  0  0  0  0  0  0  0  0  0
  -29.2463  -29.2484   20.5914 O   0  0  0  0  0  0  0  0  0  0  0  0
  -31.0079  -20.1093   20.5412 O   0  0  0  0  0  0  0  0  0  0  0  0
  -31.8671  -13.9815   20.2020 O   0  0  0  0  0  0  0  0  0  0  0  0
  -22.8852  -14.6425   20.7162 O   0  0  0  0  0  0  0  0  0  0  0  0
  -21.8014  -16.9473   23.4926 O   0  0  0  0  0  0  0  0  0  0  0  0
  -25.9075  -19.3262   23.4592 O   0  0  0  0  0  0  0  0  0  0  0  0
  -24.1776  -21.8159   18.3711 O   0  0  0  0  0  0  0  0  0  0  0  0
  -23.7341  -33.5781   23.9761 O   0  0  0  0  0  0  0  0  0  0  0  0
  -29.4073  -13.8836   21.3423 O   0  0  0  0  0  0  0  0  0  1  0  0
  -25.8620  -38.5478   22.8906 F   0  0  0  0  0  0  0  0  0  0  0  0
  -26.4462  -34.0470   24.2351 F   0  0  0  0  0  0  0  0  0  0  0  0
  -27.8810  -18.1004   18.4318 F   0  0  0  0  0  0  0  0  0  0  0  0
  -25.5683  -19.8440   18.1827 F   0  0  0  0  0  0  0  0  0  0  0  0
  -28.4798  -21.5511   20.0599 S   0  0  0  0  0  0  0  0  0  0  0  0
  1  2  1  0  0  0  0
  1  5  2  0  0  0  0
  2  6  2  0  0  0  0
  3  8  2  0  0  0  0
  3 15  1  0  0  0  0
  4  9  1  0  0  0  0
  4 15  2  0  0  0  0
  5 17  1  0  0  0  0
  6 19  1  0  0  0  0
  7 10  2  0  0  0  0
  7 18  1  0  0  0  0
  8 21  1  0  0  0  0
  9 21  2  0  0  0  0
 10 22  1  0  0  0  0
 11 12  2  0  0  0  0
 11 23  1  0  0  0  0
 12 24  1  0  0  0  0
 13 20  1  0  0  0  0
 13 22  2  0  0  0  0
 14 24  2  0  0  0  0
 14 25  1  0  0  0  0
 15 28  1  0  0  0  0
 16 28  1  0  0  0  0
 16 30  2  0  0  0  0
 16 32  1  0  0  0  0
 17 19  2  0  0  0  0
 17 40  1  0  0  0  0
 18 20  2  0  0  0  0
 18 41  1  0  0  0  0
 19 49  1  0  0  0  0
 20 42  1  0  0  0  0
 21 81  1  0  0  0  0
 22 82  1  0  0  0  0
 23 25  2  0  0  0  0
 23 81  1  0  0  0  0
 24 83  1  0  0  0  0
 25 84  1  0  0  0  0
 26 27  1  0  0  0  0
 26 29  2  0  0  0  0
 26 85  1  0  0  0  0
 27 31  2  0  0  0  0
 27 86  1  0  0  0  0
 28 62  2  0  0  0  0
 29 33  1  0  0  0  0
 29 87  1  0  0  0  0
 30 64  1  0  0  0  0
 30 67  1  0  0  0  0
 31 69  1  0  0  0  0
 31 87  1  0  0  0  0
 32 68  1  0  0  0  0
 32 74  2  0  0  0  0
 33 70  1  0  0  0  0
 33 75  2  0  0  0  0
 34 35  1  0  0  0  0
 34 57  1  0  0  0  0
 34 63  2  0  0  0  0
 35 58  1  0  0  0  0
 35 76  2  0  0  0  0
 36 50  1  0  0  0  0
 36 71  1  0  0  0  0
 36 77  2  0  0  0  0
 37 59  1  0  0  0  0
 37 65  1  0  0  0  0
 37 78  2  0  0  0  0
 38 60  1  0  0  0  0
 38 72  1  0  0  0  0
 38 79  2  0  0  0  0
 39 66  1  0  0  0  0
 39 69  1  0  0  0  0
 39 80  2  0  0  0  0
 40 43  1  0  0  0  0
 41 50  1  0  0  0  0
 42 65  1  0  0  0  0
 43 45  1  0  0  0  0
 44 46  1  0  0  0  0
 44 47  1  0  0  0  0
 45 49  1  0  0  0  0
 46 51  1  0  0  0  0
 47 66  1  0  0  0  0
 48 51  1  0  0  0  0
 48 66  1  0  0  0  0
 49 71  1  0  0  0  0
 50 65  1  0  0  0  0
 51 64  1  0  0  0  0
 52 60  1  0  0  0  0
 53 61  1  0  0  0  0
 54 61  1  0  0  0  0
 55 61  1  0  0  0  0
 56 73  1  0  0  0  0
 57 70  1  0  0  0  0
 58 82  1  0  0  0  0
 59 61  1  0  0  0  0
 59 72  1  0  0  0  0
 60 73  1  0  0  0  0
 62 64  1  0  0  0  0
M  CHG  1  73   1
M  ISO  4  39 100  58 101  69 100  82 101
M  END
> <Batch ID>
0174

> <Smiles>
CNC(C)C(=O)NC(C(=O)N1Cc2cc([101O:1][101CH2:1]C(=O)C(=N)CNC(=O)c3sc([100NH:0][100C:0](=O)N4CCCC(n5nc(-c6ccc(Oc7ccc(F)cc7F)cc6)c(C(N)=O)c5N)C4)c(F)c3F)ccc2CC1C(=O)NC1CCCc2ccccc21)C(C)(C)C

> <Shape>
0.234

> <Color>
0.073

> <Negative vol penalty>
0.000

$$$$

  -OEChem-04052304333D

 86 94  0     1  0  0  0  0  0999 V2000
  -29.2259  -30.9006   26.9845 C   0  0  0  0  0  0  0  0  0  0  0  0
  -28.8171  -29.9450   26.0597 C   0  0  0  0  0  0  0  0  0  0  0  0
  -24.3179   -8.6025   21.4420 C   0  0  0  0  0  0  0  0  0  0  0  0
  -24.6512  -10.0660   23.3352 C   0  0  0  0  0  0  0  0  0  0  0  0
  -28.3184  -31.8507   27.4509 C   0  0  0  0  0  0  0  0  0  0  0  0
  -27.5001  -29.9383   25.6017 C   0  0  0  0  0  0  0  0  0  0  0  0
  -27.1912  -29.3207   20.5849 C   0  0  0  0  0  0  0  0  0  0  0  0
  -23.9346   -7.5749   22.3038 C   0  0  0  0  0  0  0  0  0  0  0  0
  -24.2678   -9.0384   24.1970 C   0  0  0  0  0  0  0  0  0  0  0  0
  -27.3620  -28.0283   20.0908 C   0  0  0  0  0  0  0  0  0  0  0  0
  -21.1783   -6.6851   24.0485 C   0  0  0  0  0  0  0  0  0  0  0  0
  -20.0474   -5.9425   23.7091 C   0  0  0  0  0  0  0  0  0  0  0  0
  -29.7411  -19.9199   19.9796 C   0  0  0  0  0  0  0  0  0  0  0  0
  -24.9691  -27.7933   19.8951 C   0  0  0  0  0  0  0  0  0  0  0  0
  -21.3872   -3.9330   23.6423 C   0  0  0  0  0  0  0  0  0  0  0  0
  -24.6763   -9.8481   21.9577 C   0  0  0  0  0  0  0  0  0  0  0  0
  -30.0843  -18.5633   19.7115 C   0  0  0  0  0  0  0  0  0  0  0  0
  -24.2392  -11.8737   20.4699 C   0  0  0  0  0  0  0  0  0  0  0  0
  -26.9921  -31.8616   26.9910 C   0  0  0  0  0  0  0  0  0  0  0  0
  -25.9054  -29.8561   20.7484 C   0  0  0  0  0  0  0  0  0  0  0  0
  -26.5736  -30.8886   26.0634 C   0  0  0  0  0  0  0  0  0  0  0  0
  -24.7848  -29.0937   20.3891 C   0  0  0  0  0  0  0  0  0  0  0  0
  -23.9095   -7.7928   23.6813 C   0  0  0  0  0  0  0  0  0  0  0  0
  -26.2508  -27.2633   19.7485 C   0  0  0  0  0  0  0  0  0  0  0  0
  -22.4136   -6.0518   24.1847 C   0  0  0  0  0  0  0  0  0  0  0  0
  -20.1518   -4.5664   23.5060 C   0  0  0  0  0  0  0  0  0  0  0  0
  -22.5180   -4.6758   23.9817 C   0  0  0  0  0  0  0  0  0  0  0  0
  -25.0729  -10.9098   21.0680 C   0  0  0  0  0  0  0  0  0  0  0  0
  -25.0918  -12.6484   19.7220 C   0  0  0  0  0  0  0  0  0  0  0  0
  -28.3778  -20.1046   20.0495 C   0  0  0  0  0  0  0  0  0  0  0  0
  -28.9701  -17.7627   19.5870 C   0  0  0  0  0  0  0  0  0  0  0  0
  -31.4286  -18.0623   19.5816 C   0  0  0  0  0  0  0  0  0  0  0  0
  -22.8210  -12.0528   20.5806 C   0  0  0  0  0  0  0  0  0  0  0  0
  -26.9841  -23.5318   20.7348 C   0  0  0  0  0  0  0  0  0  0  0  0
  -28.0921  -22.5427   20.5150 C   0  0  0  0  0  0  0  0  0  0  0  0
  -24.2069  -30.8957   23.2259 C   0  0  0  0  0  0  0  0  0  0  0  0
  -22.0999  -31.7658   20.9180 C   0  0  0  0  0  0  0  0  0  0  0  0
  -20.9117  -31.2961   17.7535 C   0  0  0  0  0  0  0  0  0  0  0  0
  -29.8642  -15.4536   19.1232 C   0  0  0  0  0  0  0  0  0  0  0  0
  -26.0349  -32.8790   27.5597 C   0  0  0  0  0  0  0  0  0  0  0  0
  -25.7391  -31.2616   21.2575 C   0  0  0  0  0  0  0  0  0  0  0  0
  -23.3839  -29.6296   20.5266 C   0  0  0  0  0  0  0  0  0  0  0  0
  -24.7555  -33.0355   26.7418 C   0  0  0  0  0  0  0  0  0  0  0  0
  -29.9516  -11.9509   18.4901 C   0  0  0  0  0  0  0  0  0  0  0  0
  -24.1792  -31.6689   26.3855 C   0  0  0  0  0  0  0  0  0  0  0  0
  -28.6215  -11.4471   19.0552 C   0  0  0  0  0  0  0  0  0  0  0  0
  -30.5415  -13.0728   19.3429 C   0  0  0  0  0  0  0  0  0  0  0  0
  -28.3045  -13.6946   20.1666 C   0  0  0  0  0  0  0  0  0  0  0  0
  -25.1598  -30.8641   25.5241 C   0  0  1  0  0  0  0  0  0  0  0  0
  -24.3643  -31.5176   21.8671 C   0  0  1  0  0  0  0  0  0  0  0  0
  -27.6395  -12.6084   19.3054 C   0  0  2  0  0  0  0  0  0  0  0  0
  -32.2985  -18.6441   18.4964 C   0  0  0  0  0  0  0  0  0  0  0  0
  -19.1592  -32.1310   16.1632 C   0  0  0  0  0  0  0  0  0  0  0  0
  -19.9712  -30.2048   22.4482 C   0  0  0  0  0  0  0  0  0  0  0  0
  -18.5452  -30.2688   20.3913 C   0  0  0  0  0  0  0  0  0  0  0  0
  -19.1953  -32.3948   21.5228 C   0  0  0  0  0  0  0  0  0  0  0  0
  -22.9460  -32.1908   15.7990 C   0  0  0  0  0  0  0  0  0  0  0  0
  -25.9694  -23.6624   19.6202 C   0  0  0  0  0  0  0  0  0  0  0  0
  -25.3768  -25.0612   19.5414 C   0  0  0  0  0  0  0  0  0  1  0  0
  -20.9360  -31.0982   20.2263 C   0  0  1  0  0  0  0  0  0  0  0  0
  -20.5958  -32.2784   16.6400 C   0  0  2  0  0  0  0  0  0  0  0  0
  -19.6881  -30.9805   21.1463 C   0  0  0  0  0  0  0  0  0  0  0  0
  -26.3565  -11.0566   20.7292 N   0  0  0  0  0  0  0  0  0  0  0  0
  -26.3358  -12.1218   19.9100 N   0  0  0  0  0  0  0  0  0  0  0  0
  -23.2730  -31.0069   21.0348 N   0  0  0  0  0  0  0  0  0  0  0  0
  -29.5563  -14.1394   19.5342 N   0  0  0  0  0  0  0  0  0  0  0  0
  -24.8913  -13.7219   18.9284 N   0  0  0  0  0  0  0  0  0  0  0  0
  -22.0970  -11.1678   21.3911 N   0  0  0  0  0  0  0  0  0  0  0  0
  -27.6134  -21.2698   20.2916 N   0  0  0  0  0  0  0  0  0  0  0  0
  -28.8384  -16.3763   19.3255 N   0  0  0  0  0  0  0  0  0  0  0  0
  -25.1318  -31.3324   24.1550 N   0  0  0  0  0  0  0  0  0  0  0  0
  -20.7043  -31.8513   18.9985 N   0  0  0  0  0  0  0  0  0  0  0  0
  -21.5019  -32.0536   15.4784 N   0  3  0  0  0  0  0  0  0  0  0  0
  -31.9400  -17.1801   20.2885 O   0  0  0  0  0  0  0  0  0  0  0  0
  -22.2115  -12.9603   19.9655 O   0  0  0  0  0  0  0  0  0  0  0  0
  -26.9806  -24.1420   21.7932 O   0  0  0  0  0  0  0  0  0  0  0  0
  -29.2294  -22.9831   20.5356 O   0  0  0  0  0  0  0  0  0  0  0  0
  -23.3116  -30.0812   23.4175 O   0  0  0  0  0  0  0  0  0  0  0  0
  -21.9752  -32.9208   21.3329 O   0  0  0  0  0  0  0  0  0  0  0  0
  -21.2998  -30.1497   17.5401 O   0  0  0  0  0  0  0  0  0  0  0  0
  -30.9473  -15.7339   18.6032 O   0  0  0  0  0  0  0  0  0  0  0  0
  -23.5352   -6.7904   24.5225 O   0  0  0  0  0  0  0  0  0  0  0  0
  -26.4147  -26.0012   19.2666 O   0  0  0  0  0  0  0  0  0  1  0  0
  -19.0655   -3.8531   23.1816 F   0  0  0  0  0  0  0  0  0  0  0  0
  -23.7019   -4.0615   24.1123 F   0  0  0  0  0  0  0  0  0  0  0  0
  -27.5178  -18.6463   19.7927 S   0  0  0  0  0  0  0  0  0  0  0  0
  1  2  1  0  0  0  0
  1  5  2  0  0  0  0
  2  6  2  0  0  0  0
  3  8  2  0  0  0  0
  3 16  1  0  0  0  0
  4  9  1  0  0  0  0
  4 16  2  0  0  0  0
  5 19  1  0  0  0  0
  6 21  1  0  0  0  0
  7 10  2  0  0  0  0
  7 20  1  0  0  0  0
  8 23  1  0  0  0  0
  9 23  2  0  0  0  0
 10 24  1  0  0  0  0
 11 12  2  0  0  0  0
 11 25  1  0  0  0  0
 12 26  1  0  0  0  0
 13 17  1  0  0  0  0
 13 30  2  0  0  0  0
 14 22  1  0  0  0  0
 14 24  2  0  0  0  0
 15 26  2  0  0  0  0
 15 27  1  0  0  0  0
 16 28  1  0  0  0  0
 17 31  2  0  0  0  0
 17 32  1  0  0  0  0
 18 28  1  0  0  0  0
 18 29  2  0  0  0  0
 18 33  1  0  0  0  0
 19 21  2  0  0  0  0
 19 40  1  0  0  0  0
 20 22  2  0  0  0  0
 20 41  1  0  0  0  0
 21 49  1  0  0  0  0
 22 42  1  0  0  0  0
 23 82  1  0  0  0  0
 24 83  1  0  0  0  0
 25 27  2  0  0  0  0
 25 82  1  0  0  0  0
 26 84  1  0  0  0  0
 27 85  1  0  0  0  0
 28 63  2  0  0  0  0
 29 64  1  0  0  0  0
 29 67  1  0  0  0  0
 30 69  1  0  0  0  0
 30 86  1  0  0  0  0
 31 70  1  0  0  0  0
 31 86  1  0  0  0  0
 32 52  1  0  0  0  0
 32 74  2  0  0  0  0
 33 68  1  0  0  0  0
 33 75  2  0  0  0  0
 34 35  1  0  0  0  0
 34 58  1  0  0  0  0
 34 76  2  0  0  0  0
 35 69  1  0  0  0  0
 35 77  2  0  0  0  0
 36 50  1  0  0  0  0
 36 71  1  0  0  0  0
 36 78  2  0  0  0  0
 37 60  1  0  0  0  0
 37 65  1  0  0  0  0
 37 79  2  0  0  0  0
 38 61  1  0  0  0  0
 38 72  1  0  0  0  0
 38 80  2  0  0  0  0
 39 66  1  0  0  0  0
 39 70  1  0  0  0  0
 39 81  2  0  0  0  0
 40 43  1  0  0  0  0
 41 50  1  0  0  0  0
 42 65  1  0  0  0  0
 43 45  1  0  0  0  0
 44 46  1  0  0  0  0
 44 47  1  0  0  0  0
 45 49  1  0  0  0  0
 46 51  1  0  0  0  0
 47 66  1  0  0  0  0
 48 51  1  0  0  0  0
 48 66  1  0  0  0  0
 49 71  1  0  0  0  0
 50 65  1  0  0  0  0
 51 64  1  0  0  0  0
 53 61  1  0  0  0  0
 54 62  1  0  0  0  0
 55 62  1  0  0  0  0
 56 62  1  0  0  0  0
 57 73  1  0  0  0  0
 58 59  1  0  0  0  0
 59 83  1  0  0  0  0
 60 62  1  0  0  0  0
 60 72  1  0  0  0  0
 61 73  1  0  0  0  0
 63 64  1  0  0  0  0
M  CHG  1  73   1
M  ISO  4  39 100  59 101  70 100  83 101
M  END
> <Batch ID>
0174

> <Smiles>
CNC(C)C(=O)NC(C(=O)N1Cc2cc([101O:1][101CH2:1]CC(=O)C(=O)Nc3cc(C(C)=O)c([100NH:0][100C:0](=O)N4CCCC(n5nc(-c6ccc(Oc7ccc(F)cc7F)cc6)c(C(N)=O)c5N)C4)s3)ccc2CC1C(=O)NC1CCCc2ccccc21)C(C)(C)C

> <Shape>
0.319

> <Color>
0.094

> <Negative vol penalty>
0.000

$$$$

  -OEChem-04052304333D

 88 96  0     1  0  0  0  0  0999 V2000
  -18.8967  -24.5570   22.1689 C   0  0  0  0  0  0  0  0  0  0  0  0
  -20.1826  -24.7468   21.6729 C   0  0  0  0  0  0  0  0  0  0  0  0
  -23.8847  -16.0408   16.1484 C   0  0  0  0  0  0  0  0  0  0  0  0
  -23.4808  -13.6807   15.8259 C   0  0  0  0  0  0  0  0  0  0  0  0
  -31.7079  -19.4983   18.3196 C   0  0  0  0  0  0  0  0  0  0  0  0
  -18.0894  -25.6586   22.4493 C   0  0  0  0  0  0  0  0  0  0  0  0
  -20.6614  -26.0384   21.4559 C   0  0  0  0  0  0  0  0  0  0  0  0
  -25.3895  -26.6687   23.1567 C   0  0  0  0  0  0  0  0  0  0  0  0
  -23.2789  -16.3122   14.9217 C   0  0  0  0  0  0  0  0  0  0  0  0
  -22.8750  -13.9521   14.5991 C   0  0  0  0  0  0  0  0  0  0  0  0
  -26.4223  -26.1613   22.3694 C   0  0  0  0  0  0  0  0  0  0  0  0
  -20.1376  -16.5587   13.6952 C   0  0  0  0  0  0  0  0  0  0  0  0
  -19.2275  -17.6143   13.6410 C   0  0  0  0  0  0  0  0  0  0  0  0
  -31.3593  -20.8392   18.2016 C   0  0  0  0  0  0  0  0  0  0  0  0
  -26.8357  -28.3723   21.4977 C   0  0  0  0  0  0  0  0  0  0  0  0
  -20.6028  -18.7153   11.9878 C   0  0  0  0  0  0  0  0  0  0  0  0
  -23.9857  -14.7251   16.6006 C   0  0  0  0  0  0  0  0  0  0  0  0
  -30.9945  -18.6736   19.1823 C   0  0  0  0  0  0  0  0  0  0  0  0
  -23.9883  -14.3783   19.1279 C   0  0  0  0  0  0  0  0  0  0  0  0
  -18.5620  -26.9645   22.2449 C   0  0  0  0  0  0  0  0  0  0  0  0
  -25.0644  -28.0320   23.1121 C   0  0  0  0  0  0  0  0  0  0  0  0
  -19.8591  -27.1584   21.7326 C   0  0  0  0  0  0  0  0  0  0  0  0
  -25.8001  -28.8949   22.2873 C   0  0  0  0  0  0  0  0  0  0  0  0
  -22.7740  -15.2678   14.1470 C   0  0  0  0  0  0  0  0  0  0  0  0
  -27.1437  -27.0127   21.5376 C   0  0  0  0  0  0  0  0  0  0  0  0
  -21.2804  -16.5814   12.8957 C   0  0  0  0  0  0  0  0  0  0  0  0
  -19.4601  -18.6926   12.7873 C   0  0  0  0  0  0  0  0  0  0  0  0
  -21.5130  -17.6597   12.0419 C   0  0  0  0  0  0  0  0  0  0  0  0
  -24.6118  -14.4441   17.8675 C   0  0  0  0  0  0  0  0  0  0  0  0
  -30.2979  -21.3027   18.9621 C   0  0  0  0  0  0  0  0  0  0  0  0
  -29.9496  -19.2341   19.8991 C   0  0  0  0  0  0  0  0  0  0  0  0
  -25.0075  -14.0838   20.0002 C   0  0  0  0  0  0  0  0  0  0  0  0
  -31.3716  -17.2538   19.2995 C   0  0  0  0  0  0  0  0  0  0  0  0
  -29.9669  -23.3164   19.9757 C   0  0  0  0  0  0  0  0  0  0  0  0
  -22.6109  -14.5665   19.4788 C   0  0  0  0  0  0  0  0  0  0  0  0
  -29.5626  -24.7547   19.9590 C   0  0  0  0  0  0  0  0  0  0  0  0
  -22.4858  -29.6973   22.2866 C   0  0  0  0  0  0  0  0  0  0  0  0
  -24.2265  -32.2005   23.3941 C   0  0  0  0  0  0  0  0  0  0  0  0
  -28.1383  -18.7676   21.5853 C   0  0  0  0  0  0  0  0  0  0  0  0
  -27.3009  -33.5127   24.0820 C   0  0  0  0  0  0  0  0  0  0  0  0
  -30.9275  -15.0289   19.6791 C   0  0  0  0  0  0  0  0  0  0  0  0
  -17.6356  -28.1229   22.5180 C   0  0  0  0  0  0  0  0  0  0  0  0
  -23.9651  -28.5683   23.9875 C   0  0  0  0  0  0  0  0  0  0  0  0
  -25.5040  -30.3700   22.2182 C   0  0  0  0  0  0  0  0  0  0  0  0
  -18.3528  -29.4669   22.6139 C   0  0  0  0  0  0  0  0  0  0  0  0
  -29.2442  -11.8863   20.2219 C   0  0  0  0  0  0  0  0  0  0  0  0
  -19.3398  -29.6288   21.4622 C   0  0  0  0  0  0  0  0  0  0  0  0
  -27.8153  -12.1739   19.7614 C   0  0  0  0  0  0  0  0  0  0  0  0
  -30.2669  -12.6420   19.3792 C   0  0  0  0  0  0  0  0  0  0  0  0
  -28.6046  -14.4096   18.8680 C   0  0  0  0  0  0  0  0  0  0  0  0
  -20.4231  -28.5445   21.5074 C   0  0  1  0  0  0  0  0  0  0  0  0
  -23.3829  -29.8830   23.4776 C   0  0  1  0  0  0  0  0  0  0  0  0
  -27.5432  -13.6881   19.7160 C   0  0  1  0  0  0  0  0  0  0  0  0
  -26.4847  -17.9165   23.3021 C   0  0  0  0  0  0  0  0  0  0  0  0
  -28.4063  -35.5943   24.9435 C   0  0  0  0  0  0  0  0  0  0  0  0
  -23.7269  -33.5719   20.7146 C   0  0  0  0  0  0  0  0  0  0  0  0
  -25.5876  -35.1565   21.2578 C   0  0  0  0  0  0  0  0  0  0  0  0
  -23.5570  -35.0771   22.7046 C   0  0  0  0  0  0  0  0  0  0  0  0
  -28.4923  -32.0702   26.3752 C   0  0  0  0  0  0  0  0  0  0  0  0
  -28.4166  -25.1209   20.8616 C   0  0  0  0  0  0  0  0  0  1  0  0
  -27.6395  -17.5696   22.3796 C   0  0  0  0  0  0  0  0  0  0  0  0
  -25.2131  -33.1685   22.7870 C   0  0  1  0  0  0  0  0  0  0  0  0
  -27.8384  -34.2311   25.3065 C   0  0  2  0  0  0  0  0  0  0  0  0
  -24.5257  -34.2154   21.8656 C   0  0  0  0  0  0  0  0  0  0  0  0
  -25.9254  -14.2103   17.9292 N   0  0  0  0  0  0  0  0  0  0  0  0
  -29.5815  -20.5319   19.8108 N   0  0  0  0  0  0  0  0  0  0  0  0
  -29.9067  -22.6494   18.8759 N   0  0  0  0  0  0  0  0  0  0  0  0
  -30.5023  -16.3402   19.5840 N   0  0  0  0  0  0  0  0  0  0  0  0
  -26.1357  -13.9949   19.2390 N   0  0  0  0  0  0  0  0  0  0  0  0
  -24.4157  -30.8453   23.0884 N   0  0  0  0  0  0  0  0  0  0  0  0
  -29.9566  -14.0715   19.3322 N   0  0  0  0  0  0  0  0  0  0  0  0
  -25.0398  -13.8949   21.3365 N   0  0  0  0  0  0  0  0  0  0  0  0
  -21.6962  -14.8632   18.4592 N   0  0  0  0  0  0  0  0  0  0  0  0
  -29.2215  -18.4133   20.7727 N   0  0  0  0  0  0  0  0  0  0  0  0
  -21.4114  -28.8593   22.5167 N   0  0  0  0  0  0  0  0  0  0  0  0
  -25.9544  -33.7486   23.9015 N   0  0  0  0  0  0  0  0  0  0  0  0
  -28.9181  -33.4273   25.9462 N   0  3  0  0  0  0  0  0  0  0  0  0
  -22.2062  -14.4906   20.6637 O   0  0  0  0  0  0  0  0  0  0  0  0
  -30.1843  -25.5213   19.2405 O   0  0  0  0  0  0  0  0  0  0  0  0
  -22.7481  -30.2730   21.2371 O   0  0  0  0  0  0  0  0  0  0  0  0
  -23.3256  -32.6302   24.1189 O   0  0  0  0  0  0  0  0  0  0  0  0
  -27.6201  -19.8749   21.6840 O   0  0  0  0  0  0  0  0  0  0  0  0
  -28.0058  -32.8153   23.3559 O   0  0  0  0  0  0  0  0  0  0  0  0
  -32.0623  -14.6981   20.0311 O   0  0  0  0  0  0  0  0  0  0  0  0
  -22.1826  -15.5323   12.9500 O   0  0  0  0  0  0  0  0  0  0  0  0
  -28.1518  -26.5200   20.7676 O   0  0  0  0  0  0  0  0  0  1  0  0
  -18.5852  -19.7055   12.7343 F   0  0  0  0  0  0  0  0  0  0  0  0
  -22.6085  -17.6866   11.2706 F   0  0  0  0  0  0  0  0  0  0  0  0
  1  2  1  0  0  0  0
  1  6  2  0  0  0  0
  2  7  2  0  0  0  0
  3  9  2  0  0  0  0
  3 17  1  0  0  0  0
  4 10  1  0  0  0  0
  4 17  2  0  0  0  0
  5 14  2  0  0  0  0
  5 18  1  0  0  0  0
  6 20  1  0  0  0  0
  7 22  1  0  0  0  0
  8 11  2  0  0  0  0
  8 21  1  0  0  0  0
  9 24  1  0  0  0  0
 10 24  2  0  0  0  0
 11 25  1  0  0  0  0
 12 13  2  0  0  0  0
 12 26  1  0  0  0  0
 13 27  1  0  0  0  0
 14 30  1  0  0  0  0
 15 23  1  0  0  0  0
 15 25  2  0  0  0  0
 16 27  2  0  0  0  0
 16 28  1  0  0  0  0
 17 29  1  0  0  0  0
 18 31  2  0  0  0  0
 18 33  1  0  0  0  0
 19 29  1  0  0  0  0
 19 32  2  0  0  0  0
 19 35  1  0  0  0  0
 20 22  2  0  0  0  0
 20 42  1  0  0  0  0
 21 23  2  0  0  0  0
 21 43  1  0  0  0  0
 22 51  1  0  0  0  0
 23 44  1  0  0  0  0
 24 85  1  0  0  0  0
 25 86  1  0  0  0  0
 26 28  2  0  0  0  0
 26 85  1  0  0  0  0
 27 87  1  0  0  0  0
 28 88  1  0  0  0  0
 29 65  2  0  0  0  0
 30 66  2  0  0  0  0
 30 67  1  0  0  0  0
 31 66  1  0  0  0  0
 31 74  1  0  0  0  0
 32 69  1  0  0  0  0
 32 72  1  0  0  0  0
 33 68  2  0  0  0  0
 34 36  1  0  0  0  0
 34 67  2  0  0  0  0
 35 73  1  0  0  0  0
 35 78  2  0  0  0  0
 36 60  1  0  0  0  0
 36 79  2  0  0  0  0
 37 52  1  0  0  0  0
 37 75  1  0  0  0  0
 37 80  2  0  0  0  0
 38 62  1  0  0  0  0
 38 70  1  0  0  0  0
 38 81  2  0  0  0  0
 39 61  1  0  0  0  0
 39 74  1  0  0  0  0
 39 82  2  0  0  0  0
 40 63  1  0  0  0  0
 40 76  1  0  0  0  0
 40 83  2  0  0  0  0
 41 68  1  0  0  0  0
 41 71  1  0  0  0  0
 41 84  2  0  0  0  0
 42 45  1  0  0  0  0
 43 52  1  0  0  0  0
 44 70  1  0  0  0  0
 45 47  1  0  0  0  0
 46 48  1  0  0  0  0
 46 49  1  0  0  0  0
 47 51  1  0  0  0  0
 48 53  1  0  0  0  0
 49 71  1  0  0  0  0
 50 53  1  0  0  0  0
 50 71  1  0  0  0  0
 51 75  1  0  0  0  0
 52 70  1  0  0  0  0
 53 69  1  0  0  0  0
 54 61  1  0  0  0  0
 55 63  1  0  0  0  0
 56 64  1  0  0  0  0
 57 64  1  0  0  0  0
 58 64  1  0  0  0  0
 59 77  1  0  0  0  0
 60 86  1  0  0  0  0
 62 64  1  0  0  0  0
 62 76  1  0  0  0  0
 63 77  1  0  0  0  0
 65 69  1  0  0  0  0
M  CHG  1  77   1
M  ISO  4  41 100  60 101  68 100  86 101
M  END
> <Batch ID>
0174

> <Smiles>
C=CC(=O)Nc1nc(NCC(=O)[101CH2:1][101O:1]c2ccc3c(c2)CN(C(=O)C(NC(=O)C(C)NC)C(C)(C)C)C(C(=O)NC2CCCc4ccccc42)C3)ccc1C=[100N:0][100C:0](=O)N1CCCC(n2nc(-c3ccc(Oc4ccc(F)cc4F)cc3)c(C(N)=O)c2N)C1

> <Shape>
0.264

> <Color>
0.154

> <Negative vol penalty>
0.000

$$$$

  -OEChem-04052304333D

 87 95  0     1  0  0  0  0  0999 V2000
  -16.8744  -27.0418   23.3174 C   0  0  0  0  0  0  0  0  0  0  0  0
  -18.0679  -26.3324   23.2287 C   0  0  0  0  0  0  0  0  0  0  0  0
  -23.2220  -16.5069   21.5504 C   0  0  0  0  0  0  0  0  0  0  0  0
  -22.4260  -15.6404   19.4403 C   0  0  0  0  0  0  0  0  0  0  0  0
  -16.8023  -28.3462   22.8303 C   0  0  0  0  0  0  0  0  0  0  0  0
  -19.1897  -26.9268   22.6520 C   0  0  0  0  0  0  0  0  0  0  0  0
  -23.4067  -26.1357   25.3420 C   0  0  0  0  0  0  0  0  0  0  0  0
  -30.3143  -17.8442   19.3528 C   0  0  0  0  0  0  0  0  0  0  0  0
  -22.2155  -17.4724   21.5337 C   0  0  0  0  0  0  0  0  0  0  0  0
  -21.4193  -16.6058   19.4236 C   0  0  0  0  0  0  0  0  0  0  0  0
  -24.0146  -24.8870   25.2204 C   0  0  0  0  0  0  0  0  0  0  0  0
  -21.6357  -20.4396   20.0226 C   0  0  0  0  0  0  0  0  0  0  0  0
  -29.7834  -19.0777   18.9759 C   0  0  0  0  0  0  0  0  0  0  0  0
  -21.9886  -21.7484   20.3515 C   0  0  0  0  0  0  0  0  0  0  0  0
  -25.6162  -25.8236   23.6787 C   0  0  0  0  0  0  0  0  0  0  0  0
  -20.4308  -21.7044   22.1977 C   0  0  0  0  0  0  0  0  0  0  0  0
  -23.3273  -15.5909   20.5037 C   0  0  0  0  0  0  0  0  0  0  0  0
  -24.2980  -13.3023   21.0763 C   0  0  0  0  0  0  0  0  0  0  0  0
  -17.9265  -28.9602   22.2560 C   0  0  0  0  0  0  0  0  0  0  0  0
  -23.8931  -27.2372   24.6233 C   0  0  0  0  0  0  0  0  0  0  0  0
  -19.1322  -28.2401   22.1555 C   0  0  0  0  0  0  0  0  0  0  0  0
  -25.0142  -27.0858   23.7950 C   0  0  0  0  0  0  0  0  0  0  0  0
  -30.1385  -17.3779   20.6556 C   0  0  0  0  0  0  0  0  0  0  0  0
  -28.9010  -19.3790   21.2047 C   0  0  0  0  0  0  0  0  0  0  0  0
  -21.3141  -17.5218   20.4704 C   0  0  0  0  0  0  0  0  0  0  0  0
  -25.1178  -24.7301   24.3865 C   0  0  0  0  0  0  0  0  0  0  0  0
  -20.6803  -19.7633   20.7812 C   0  0  0  0  0  0  0  0  0  0  0  0
  -21.3862  -22.3808   21.4391 C   0  0  0  0  0  0  0  0  0  0  0  0
  -29.0768  -19.8451   19.9018 C   0  0  0  0  0  0  0  0  0  0  0  0
  -20.0779  -20.3956   21.8688 C   0  0  0  0  0  0  0  0  0  0  0  0
  -29.4319  -18.1454   21.5816 C   0  0  0  0  0  0  0  0  0  0  0  0
  -24.3672  -14.5937   20.5201 C   0  0  0  0  0  0  0  0  0  0  0  0
  -25.5347  -12.7568   20.8327 C   0  0  0  0  0  0  0  0  0  0  0  0
  -23.2127  -12.6538   21.7526 C   0  0  0  0  0  0  0  0  0  0  0  0
  -26.8181  -20.8139   23.9904 C   0  0  0  0  0  0  0  0  0  0  0  0
  -27.4421  -19.6944   23.2083 C   0  0  0  0  0  0  0  0  0  0  0  0
  -22.7021  -29.1634   22.3928 C   0  0  0  0  0  0  0  0  0  0  0  0
  -25.4942  -30.7556   22.8303 C   0  0  0  0  0  0  0  0  0  0  0  0
  -28.7518  -30.6671   23.8435 C   0  0  0  0  0  0  0  0  0  0  0  0
  -30.8371  -15.0537   20.1070 C   0  0  0  0  0  0  0  0  0  0  0  0
  -17.7871  -30.3554   21.7005 C   0  0  0  0  0  0  0  0  0  0  0  0
  -23.2424  -28.5835   24.7861 C   0  0  0  0  0  0  0  0  0  0  0  0
  -25.5876  -28.2414   23.0175 C   0  0  0  0  0  0  0  0  0  0  0  0
  -19.1245  -31.0450   21.4431 C   0  0  0  0  0  0  0  0  0  0  0  0
  -29.1849  -12.9572   17.7580 C   0  0  0  0  0  0  0  0  0  0  0  0
  -20.0788  -30.1039   20.7148 C   0  0  0  0  0  0  0  0  0  0  0  0
  -27.7410  -13.0243   18.2544 C   0  0  0  0  0  0  0  0  0  0  0  0
  -29.8897  -14.3100   17.8629 C   0  0  0  0  0  0  0  0  0  0  0  0
  -28.3867  -14.9824   19.7103 C   0  0  0  0  0  0  0  0  0  0  0  0
  -20.3776  -28.8592   21.5591 C   0  0  1  0  0  0  0  0  0  0  0  0
  -23.5057  -29.5203   23.6112 C   0  0  1  0  0  0  0  0  0  0  0  0
  -27.6711  -13.6231   19.6702 C   0  0  1  0  0  0  0  0  0  0  0  0
  -30.7914  -32.1149   24.0473 C   0  0  0  0  0  0  0  0  0  0  0  0
  -25.9402  -30.5471   19.8191 C   0  0  0  0  0  0  0  0  0  0  0  0
  -28.3448  -31.1276   20.2053 C   0  0  0  0  0  0  0  0  0  0  0  0
  -26.5568  -32.7569   20.8144 C   0  0  0  0  0  0  0  0  0  0  0  0
  -31.3201  -15.9808   22.3614 C   0  0  0  0  0  0  0  0  0  0  0  0
  -28.8567  -30.3065   26.7791 C   0  0  0  0  0  0  0  0  0  0  0  0
  -25.4212  -21.2238   23.5784 C   0  0  0  0  0  0  0  0  0  0  0  0
  -24.8811  -22.3641   24.4283 C   0  0  0  0  0  0  0  0  0  1  0  0
  -26.8740  -30.6811   22.2224 C   0  0  1  0  0  0  0  0  0  0  0  0
  -29.5502  -31.5868   24.7497 C   0  0  2  0  0  0  0  0  0  0  0  0
  -26.9172  -31.2558   20.7783 C   0  0  0  0  0  0  0  0  0  0  0  0
  -25.5541  -14.8531   19.9652 N   0  0  0  0  0  0  0  0  0  0  0  0
  -26.2421  -13.7173   20.1715 N   0  0  0  0  0  0  0  0  0  0  0  0
  -24.9125  -29.5362   23.2052 N   0  0  0  0  0  0  0  0  0  0  0  0
  -29.7616  -14.8605   19.2196 N   0  0  0  0  0  0  0  0  0  0  0  0
  -26.0753  -11.5540   21.1219 N   0  0  0  0  0  0  0  0  0  0  0  0
  -22.0120  -13.3578   21.9173 N   0  0  0  0  0  0  0  0  0  0  0  0
  -28.1835  -20.1572   22.1427 N   0  0  0  0  0  0  0  0  0  0  0  0
  -21.3356  -29.1712   22.5980 N   0  0  0  0  0  0  0  0  0  0  0  0
  -27.7695  -31.3512   23.1592 N   0  0  0  0  0  0  0  0  0  0  0  0
  -30.6896  -16.1004   21.0424 N   0  0  0  0  0  0  0  0  0  0  0  0
  -29.9788  -30.8596   25.9779 N   0  3  0  0  0  0  0  0  0  0  0  0
  -23.3104  -11.4907   22.2121 O   0  0  0  0  0  0  0  0  0  0  0  0
  -27.4766  -21.2964   24.8993 O   0  0  0  0  0  0  0  0  0  0  0  0
  -27.2408  -18.5633   23.6183 O   0  0  0  0  0  0  0  0  0  0  0  0
  -23.2790  -28.9017   21.3438 O   0  0  0  0  0  0  0  0  0  0  0  0
  -24.9553  -31.8559   22.9741 O   0  0  0  0  0  0  0  0  0  0  0  0
  -28.9795  -29.4631   23.7491 O   0  0  0  0  0  0  0  0  0  0  0  0
  -31.8403  -14.3305   20.0831 O   0  0  0  0  0  0  0  0  0  0  0  0
  -20.3317  -18.4637   20.4538 O   0  0  0  0  0  0  0  0  0  0  0  0
  -25.7127  -23.5122   24.2654 O   0  0  0  0  0  0  0  0  0  1  0  0
  -21.7263  -23.6371   21.7558 F   0  0  0  0  0  0  0  0  0  0  0  0
  -28.5700  -21.0288   19.5274 F   0  0  0  0  0  0  0  0  0  0  0  0
  -19.1603  -19.7505   22.6020 F   0  0  0  0  0  0  0  0  0  0  0  0
  -29.2621  -17.6963   22.8349 F   0  0  0  0  0  0  0  0  0  0  0  0
  1  2  1  0  0  0  0
  1  5  2  0  0  0  0
  2  6  2  0  0  0  0
  3  9  2  0  0  0  0
  3 17  1  0  0  0  0
  4 10  1  0  0  0  0
  4 17  2  0  0  0  0
  5 19  1  0  0  0  0
  6 21  1  0  0  0  0
  7 11  2  0  0  0  0
  7 20  1  0  0  0  0
  8 13  1  0  0  0  0
  8 23  2  0  0  0  0
  9 25  1  0  0  0  0
 10 25  2  0  0  0  0
 11 26  1  0  0  0  0
 12 14  2  0  0  0  0
 12 27  1  0  0  0  0
 13 29  2  0  0  0  0
 14 28  1  0  0  0  0
 15 22  1  0  0  0  0
 15 26  2  0  0  0  0
 16 28  2  0  0  0  0
 16 30  1  0  0  0  0
 17 32  1  0  0  0  0
 18 32  1  0  0  0  0
 18 33  2  0  0  0  0
 18 34  1  0  0  0  0
 19 21  2  0  0  0  0
 19 41  1  0  0  0  0
 20 22  2  0  0  0  0
 20 42  1  0  0  0  0
 21 50  1  0  0  0  0
 22 43  1  0  0  0  0
 23 31  1  0  0  0  0
 23 73  1  0  0  0  0
 24 29  1  0  0  0  0
 24 31  2  0  0  0  0
 24 70  1  0  0  0  0
 25 82  1  0  0  0  0
 26 83  1  0  0  0  0
 27 30  2  0  0  0  0
 27 82  1  0  0  0  0
 28 84  1  0  0  0  0
 29 85  1  0  0  0  0
 30 86  1  0  0  0  0
 31 87  1  0  0  0  0
 32 64  2  0  0  0  0
 33 65  1  0  0  0  0
 33 68  1  0  0  0  0
 34 69  1  0  0  0  0
 34 75  2  0  0  0  0
 35 36  1  0  0  0  0
 35 59  1  0  0  0  0
 35 76  2  0  0  0  0
 36 70  1  0  0  0  0
 36 77  2  0  0  0  0
 37 51  1  0  0  0  0
 37 71  1  0  0  0  0
 37 78  2  0  0  0  0
 38 61  1  0  0  0  0
 38 66  1  0  0  0  0
 38 79  2  0  0  0  0
 39 62  1  0  0  0  0
 39 72  1  0  0  0  0
 39 80  2  0  0  0  0
 40 67  1  0  0  0  0
 40 73  1  0  0  0  0
 40 81  2  0  0  0  0
 41 44  1  0  0  0  0
 42 51  1  0  0  0  0
 43 66  1  0  0  0  0
 44 46  1  0  0  0  0
 45 47  1  0  0  0  0
 45 48  1  0  0  0  0
 46 50  1  0  0  0  0
 47 52  1  0  0  0  0
 48 67  1  0  0  0  0
 49 52  1  0  0  0  0
 49 67  1  0  0  0  0
 50 71  1  0  0  0  0
 51 66  1  0  0  0  0
 52 65  1  0  0  0  0
 53 62  1  0  0  0  0
 54 63  1  0  0  0  0
 55 63  1  0  0  0  0
 56 63  1  0  0  0  0
 57 73  1  0  0  0  0
 58 74  1  0  0  0  0
 59 60  1  0  0  0  0
 60 83  1  0  0  0  0
 61 63  1  0  0  0  0
 61 72  1  0  0  0  0
 62 74  1  0  0  0  0
 64 65  1  0  0  0  0
M  CHG  1  74   1
M  ISO  4  40 100  60 101  73 100  83 101
M  END
> <Batch ID>
0174

> <Smiles>
CNC(C)C(=O)NC(C(=O)N1Cc2cc([101O:1][101CH2:1]CC(=O)C(=O)Nc3c(F)ccc([100N:0](C)[100C:0](=O)N4CCCC(n5nc(-c6ccc(Oc7ccc(F)cc7F)cc6)c(C(N)=O)c5N)C4)c3F)ccc2CC1C(=O)NC1CCCc2ccccc21)C(C)(C)C

> <Shape>
0.246

> <Color>
0.089

> <Negative vol penalty>
0.000

$$$$

  -OEChem-04052304333D

 90 98  0     1  0  0  0  0  0999 V2000
  -37.4283  -13.4708   23.5868 C   0  0  0  0  0  0  0  0  0  0  0  0
  -36.7943  -14.6731   23.2898 C   0  0  0  0  0  0  0  0  0  0  0  0
  -17.5554  -24.1836   26.5081 C   0  0  0  0  0  0  0  0  0  0  0  0
  -18.4239  -26.4209   26.7859 C   0  0  0  0  0  0  0  0  0  0  0  0
  -36.9896  -12.2877   22.9938 C   0  0  0  0  0  0  0  0  0  0  0  0
  -35.7220  -14.6929   22.3987 C   0  0  0  0  0  0  0  0  0  0  0  0
  -30.7994  -18.3282   22.6427 C   0  0  0  0  0  0  0  0  0  0  0  0
  -27.2324  -28.7131   19.1823 C   0  0  0  0  0  0  0  0  0  0  0  0
  -16.7356  -24.3634   27.6222 C   0  0  0  0  0  0  0  0  0  0  0  0
  -17.6041  -26.6008   27.9000 C   0  0  0  0  0  0  0  0  0  0  0  0
  -30.4752  -19.5136   21.9843 C   0  0  0  0  0  0  0  0  0  0  0  0
  -14.1501  -24.3628   30.1776 C   0  0  0  0  0  0  0  0  0  0  0  0
  -12.8226  -23.9461   30.0800 C   0  0  0  0  0  0  0  0  0  0  0  0
  -25.8441  -28.6585   19.0588 C   0  0  0  0  0  0  0  0  0  0  0  0
  -29.2387  -18.2547   20.3395 C   0  0  0  0  0  0  0  0  0  0  0  0
  -27.1633  -26.8905   20.7666 C   0  0  0  0  0  0  0  0  0  0  0  0
  -12.4777  -25.4756   28.2418 C   0  0  0  0  0  0  0  0  0  0  0  0
  -18.3996  -25.2123   26.0900 C   0  0  0  0  0  0  0  0  0  0  0  0
  -18.9340  -25.3152   23.5977 C   0  0  0  0  0  0  0  0  0  0  0  0
  -35.9052  -12.2917   22.1024 C   0  0  0  0  0  0  0  0  0  0  0  0
  -30.3540  -17.0942   22.1475 C   0  0  0  0  0  0  0  0  0  0  0  0
  -35.2693  -13.5089   21.7922 C   0  0  0  0  0  0  0  0  0  0  0  0
  -29.5565  -17.0553   20.9949 C   0  0  0  0  0  0  0  0  0  0  0  0
  -27.8920  -27.8291   20.0361 C   0  0  0  0  0  0  0  0  0  0  0  0
  -25.7750  -26.8358   20.6432 C   0  0  0  0  0  0  0  0  0  0  0  0
  -16.7599  -25.5721   28.3181 C   0  0  0  0  0  0  0  0  0  0  0  0
  -29.6972  -19.4768   20.8309 C   0  0  0  0  0  0  0  0  0  0  0  0
  -14.6415  -25.3360   29.3074 C   0  0  0  0  0  0  0  0  0  0  0  0
  -11.9864  -24.5025   29.1121 C   0  0  0  0  0  0  0  0  0  0  0  0
  -13.8053  -25.8923   28.3395 C   0  0  0  0  0  0  0  0  0  0  0  0
  -25.1154  -27.7198   19.7893 C   0  0  0  0  0  0  0  0  0  0  0  0
  -19.2471  -25.0269   24.9396 C   0  0  0  0  0  0  0  0  0  0  0  0
  -20.0631  -24.9646   22.8986 C   0  0  0  0  0  0  0  0  0  0  0  0
  -29.8697  -24.3683   20.4205 C   0  0  0  0  0  0  0  0  0  0  0  0
  -17.7301  -25.8521   23.0336 C   0  0  0  0  0  0  0  0  0  0  0  0
  -29.5666  -25.5383   19.8334 C   0  0  0  0  0  0  0  0  0  0  0  0
  -29.4169  -23.0346   19.9277 C   0  0  0  0  0  0  0  0  0  0  0  0
  -30.0745  -26.8461   20.3879 C   0  0  0  0  0  0  0  0  0  0  0  0
  -31.7769  -14.4681   21.0599 C   0  0  0  0  0  0  0  0  0  0  0  0
  -28.7444  -13.3178   21.0047 C   0  0  0  0  0  0  0  0  0  0  0  0
  -25.3992  -13.9743   20.8451 C   0  0  0  0  0  0  0  0  0  0  0  0
  -25.5969  -24.9318   22.2831 C   0  0  0  0  0  0  0  0  0  0  0  0
  -35.4972  -10.9946   21.4499 C   0  0  0  0  0  0  0  0  0  0  0  0
  -30.6901  -15.8267   22.8844 C   0  0  0  0  0  0  0  0  0  0  0  0
  -29.0363  -15.7580   20.4339 C   0  0  0  0  0  0  0  0  0  0  0  0
  -34.1147  -11.0460   20.8045 C   0  0  0  0  0  0  0  0  0  0  0  0
  -24.1813  -22.4098   24.3598 C   0  0  0  0  0  0  0  0  0  0  0  0
  -33.9604  -12.3156   19.9732 C   0  0  0  0  0  0  0  0  0  0  0  0
  -22.7456  -22.8896   24.5854 C   0  0  0  0  0  0  0  0  0  0  0  0
  -25.1689  -23.5746   24.3203 C   0  0  0  0  0  0  0  0  0  0  0  0
  -23.3946  -25.1235   23.5979 C   0  0  0  0  0  0  0  0  0  0  0  0
  -34.0868  -13.5676   20.8496 C   0  0  1  0  0  0  0  0  0  0  0  0
  -30.6126  -14.5843   22.0025 C   0  0  1  0  0  0  0  0  0  0  0  0
  -22.3550  -23.9909   23.5804 C   0  0  2  0  0  0  0  0  0  0  0  0
  -23.1677  -12.8282   20.7805 C   0  0  0  0  0  0  0  0  0  0  0  0
  -32.8042  -28.6338   20.6184 C   0  0  0  0  0  0  0  0  0  0  0  0
  -32.6841  -27.5119   22.8727 C   0  0  0  0  0  0  0  0  0  0  0  0
  -29.2111  -12.5791   18.0813 C   0  0  0  0  0  0  0  0  0  0  0  0
  -26.7330  -12.3378   17.8191 C   0  0  0  0  0  0  0  0  0  0  0  0
  -27.9671  -10.8607   19.4058 C   0  0  0  0  0  0  0  0  0  0  0  0
  -24.5321  -15.2677   23.3619 C   0  0  0  0  0  0  0  0  0  0  0  0
  -29.8776  -21.8466   20.7462 C   0  0  0  0  0  0  0  0  0  1  0  0
  -27.6272  -13.2970   19.9897 C   0  0  1  0  0  0  0  0  0  0  0  0
  -24.2312  -13.4586   21.6662 C   0  0  2  0  0  0  0  0  0  0  0  0
  -31.9040  -27.9942   21.6615 C   0  0  0  0  0  0  0  0  0  0  0  0
  -27.8959  -12.2931   18.8332 C   0  0  0  0  0  0  0  0  0  0  0  0
  -20.4786  -24.5311   25.0866 N   0  0  0  0  0  0  0  0  0  0  0  0
  -20.9492  -24.5051   23.8281 N   0  0  0  0  0  0  0  0  0  0  0  0
  -29.3972  -14.5453   21.1866 N   0  0  0  0  0  0  0  0  0  0  0  0
  -24.7365  -24.5765   23.3434 N   0  0  0  0  0  0  0  0  0  0  0  0
  -20.3744  -25.0075   21.5858 N   0  0  0  0  0  0  0  0  0  0  0  0
  -16.6670  -26.1571   23.8944 N   0  0  0  0  0  0  0  0  0  0  0  0
  -29.2568  -27.8827   20.1566 N   0  0  0  0  0  0  0  0  0  0  0  0
  -25.0653  -25.8698   21.3988 N   0  0  0  0  0  0  0  0  0  0  0  0
  -32.8622  -13.7942   21.5867 N   0  0  0  0  0  0  0  0  0  0  0  0
  -26.4019  -13.0341   20.7366 N   0  0  0  0  0  0  0  0  0  0  0  0
  -31.2400  -26.8362   21.0486 N   0  3  0  0  0  0  0  0  0  0  0  0
  -23.6047  -14.5728   22.4324 N   0  3  0  0  0  0  0  0  0  0  0  0
  -17.5951  -26.0400   21.8007 O   0  0  0  0  0  0  0  0  0  0  0  0
  -28.7182  -22.9101   18.9261 O   0  0  0  0  0  0  0  0  0  0  0  0
  -31.6961  -14.9526   19.9372 O   0  0  0  0  0  0  0  0  0  0  0  0
  -29.0227  -12.2849   21.6190 O   0  0  0  0  0  0  0  0  0  0  0  0
  -25.4185  -15.0975   20.3464 O   0  0  0  0  0  0  0  0  0  0  0  0
  -26.7118  -24.4199   22.1527 O   0  0  0  0  0  0  0  0  0  0  0  0
  -28.8114  -25.6819   18.6918 O   0  0  0  0  0  0  0  0  0  0  0  0
  -15.9599  -25.7480   29.4051 O   0  0  0  0  0  0  0  0  0  0  0  0
  -29.3798  -20.6322   20.1859 O   0  0  0  0  0  0  0  0  0  1  0  0
  -10.7120  -24.1011   29.0174 F   0  0  0  0  0  0  0  0  0  0  0  0
  -14.2720  -26.8267   27.4999 F   0  0  0  0  0  0  0  0  0  0  0  0
  -23.3977  -27.6874   19.6069 Cl  0  0  0  0  0  0  0  0  0  0  0  0
  1  2  1  0  0  0  0
  1  5  2  0  0  0  0
  2  6  2  0  0  0  0
  3  9  2  0  0  0  0
  3 18  1  0  0  0  0
  4 10  1  0  0  0  0
  4 18  2  0  0  0  0
  5 20  1  0  0  0  0
  6 22  1  0  0  0  0
  7 11  2  0  0  0  0
  7 21  1  0  0  0  0
  8 14  2  0  0  0  0
  8 24  1  0  0  0  0
  9 26  1  0  0  0  0
 10 26  2  0  0  0  0
 11 27  1  0  0  0  0
 12 13  2  0  0  0  0
 12 28  1  0  0  0  0
 13 29  1  0  0  0  0
 14 31  1  0  0  0  0
 15 23  1  0  0  0  0
 15 27  2  0  0  0  0
 16 24  2  0  0  0  0
 16 25  1  0  0  0  0
 17 29  2  0  0  0  0
 17 30  1  0  0  0  0
 18 32  1  0  0  0  0
 19 32  1  0  0  0  0
 19 33  2  0  0  0  0
 19 35  1  0  0  0  0
 20 22  2  0  0  0  0
 20 43  1  0  0  0  0
 21 23  2  0  0  0  0
 21 44  1  0  0  0  0
 22 52  1  0  0  0  0
 23 45  1  0  0  0  0
 24 73  1  0  0  0  0
 25 31  2  0  0  0  0
 25 74  1  0  0  0  0
 26 86  1  0  0  0  0
 27 87  1  0  0  0  0
 28 30  2  0  0  0  0
 28 86  1  0  0  0  0
 29 88  1  0  0  0  0
 30 89  1  0  0  0  0
 31 90  1  0  0  0  0
 32 67  2  0  0  0  0
 33 68  1  0  0  0  0
 33 71  1  0  0  0  0
 34 36  2  0  0  0  0
 34 37  1  0  0  0  0
 35 72  1  0  0  0  0
 35 79  2  0  0  0  0
 36 38  1  0  0  0  0
 36 85  1  0  0  0  0
 37 62  1  0  0  0  0
 37 80  2  0  0  0  0
 38 73  1  0  0  0  0
 38 77  2  0  0  0  0
 39 53  1  0  0  0  0
 39 75  1  0  0  0  0
 39 81  2  0  0  0  0
 40 63  1  0  0  0  0
 40 69  1  0  0  0  0
 40 82  2  0  0  0  0
 41 64  1  0  0  0  0
 41 76  1  0  0  0  0
 41 83  2  0  0  0  0
 42 70  1  0  0  0  0
 42 74  1  0  0  0  0
 42 84  2  0  0  0  0
 43 46  1  0  0  0  0
 44 53  1  0  0  0  0
 45 69  1  0  0  0  0
 46 48  1  0  0  0  0
 47 49  1  0  0  0  0
 47 50  1  0  0  0  0
 48 52  1  0  0  0  0
 49 54  1  0  0  0  0
 50 70  1  0  0  0  0
 51 54  1  0  0  0  0
 51 70  1  0  0  0  0
 52 75  1  0  0  0  0
 53 69  1  0  0  0  0
 54 68  1  0  0  0  0
 55 64  1  0  0  0  0
 56 65  1  0  0  0  0
 57 65  1  0  0  0  0
 58 66  1  0  0  0  0
 59 66  1  0  0  0  0
 60 66  1  0  0  0  0
 61 78  1  0  0  0  0
 62 87  1  0  0  0  0
 63 66  1  0  0  0  0
 63 76  1  0  0  0  0
 64 78  1  0  0  0  0
 65 77  1  0  0  0  0
 67 68  1  0  0  0  0
M  CHG  2  77   1  78   1
M  ISO  4  42 100  62 101  74 100  87 101
M  END
> <Batch ID>
0174

> <Smiles>
CNC(C)C(=O)NC(C(=O)N1Cc2cc([101O:1][101CH2:1]C(=O)CC(=O)C(=NC(C)C)Nc3ccc(Cl)c([100NH:0][100C:0](=O)N4CCCC(n5nc(-c6ccc(Oc7ccc(F)cc7F)cc6)c(C(N)=O)c5N)C4)c3)ccc2CC1C(=O)NC1CCCc2ccccc21)C(C)(C)C

> <Shape>
0.216

> <Color>
0.078

> <Negative vol penalty>
0.000

$$$$

  -OEChem-04052304333D

 85 93  0     1  0  0  0  0  0999 V2000
  -18.3036  -30.3104   21.2956 C   0  0  0  0  0  0  0  0  0  0  0  0
  -19.4173  -29.5544   21.6472 C   0  0  0  0  0  0  0  0  0  0  0  0
  -23.0830   -9.8057   20.2386 C   0  0  0  0  0  0  0  0  0  0  0  0
  -23.7631  -10.1214   22.5353 C   0  0  0  0  0  0  0  0  0  0  0  0
  -18.4689  -31.5304   20.6413 C   0  0  0  0  0  0  0  0  0  0  0  0
  -20.6970  -30.0176   21.3436 C   0  0  0  0  0  0  0  0  0  0  0  0
  -23.9237  -29.4850   25.2102 C   0  0  0  0  0  0  0  0  0  0  0  0
  -22.3285   -8.6945   20.6148 C   0  0  0  0  0  0  0  0  0  0  0  0
  -23.0086   -9.0102   22.9115 C   0  0  0  0  0  0  0  0  0  0  0  0
  -24.4454  -28.2115   25.4333 C   0  0  0  0  0  0  0  0  0  0  0  0
  -19.7598   -8.2920   23.5034 C   0  0  0  0  0  0  0  0  0  0  0  0
  -18.9627   -8.4072   24.6422 C   0  0  0  0  0  0  0  0  0  0  0  0
  -26.4795  -28.8539   24.3069 C   0  0  0  0  0  0  0  0  0  0  0  0
  -29.4700  -18.1099   21.7800 C   0  0  0  0  0  0  0  0  0  0  0  0
  -20.1738   -6.5889   25.6738 C   0  0  0  0  0  0  0  0  0  0  0  0
  -30.6057  -19.8689   20.6519 C   0  0  0  0  0  0  0  0  0  0  0  0
  -31.1344  -17.6942   20.1328 C   0  0  0  0  0  0  0  0  0  0  0  0
  -23.8004  -10.5191   21.1989 C   0  0  0  0  0  0  0  0  0  0  0  0
  -24.1515  -13.0063   20.7539 C   0  0  0  0  0  0  0  0  0  0  0  0
  -19.7517  -32.0133   20.3381 C   0  0  0  0  0  0  0  0  0  0  0  0
  -24.6730  -30.4507   24.5229 C   0  0  0  0  0  0  0  0  0  0  0  0
  -20.8796  -31.2445   20.6834 C   0  0  0  0  0  0  0  0  0  0  0  0
  -25.9661  -30.1397   24.0785 C   0  0  0  0  0  0  0  0  0  0  0  0
  -29.6625  -19.4732   21.5865 C   0  0  0  0  0  0  0  0  0  0  0  0
  -30.2161  -17.1967   21.0432 C   0  0  0  0  0  0  0  0  0  0  0  0
  -22.2912   -8.2967   21.9512 C   0  0  0  0  0  0  0  0  0  0  0  0
  -25.7223  -27.8948   24.9791 C   0  0  0  0  0  0  0  0  0  0  0  0
  -20.7639   -7.3252   23.4497 C   0  0  0  0  0  0  0  0  0  0  0  0
  -19.1697   -7.5557   25.7275 C   0  0  0  0  0  0  0  0  0  0  0  0
  -20.9709   -6.4737   24.5349 C   0  0  0  0  0  0  0  0  0  0  0  0
  -24.5805  -11.6667   20.8109 C   0  0  0  0  0  0  0  0  0  0  0  0
  -25.2572  -13.7032   20.3316 C   0  0  0  0  0  0  0  0  0  0  0  0
  -22.8684  -13.5704   21.0559 C   0  0  0  0  0  0  0  0  0  0  0  0
  -24.3007  -32.0673   21.8115 C   0  0  0  0  0  0  0  0  0  0  0  0
  -27.1006  -24.6410   24.1586 C   0  0  0  0  0  0  0  0  0  0  0  0
  -26.9717  -33.6080   22.8185 C   0  0  0  0  0  0  0  0  0  0  0  0
  -29.0010  -21.8143   22.2376 C   0  0  0  0  0  0  0  0  0  0  0  0
  -29.8010  -33.5561   24.7262 C   0  0  0  0  0  0  0  0  0  0  0  0
  -30.7163  -14.7766   20.5537 C   0  0  0  0  0  0  0  0  0  0  0  0
  -19.8786  -33.3153   19.5877 C   0  0  0  0  0  0  0  0  0  0  0  0
  -24.1064  -31.8282   24.3137 C   0  0  0  0  0  0  0  0  0  0  0  0
  -26.8191  -31.1471   23.3534 C   0  0  0  0  0  0  0  0  0  0  0  0
  -21.2828  -33.9122   19.6365 C   0  0  0  0  0  0  0  0  0  0  0  0
  -29.6794  -12.0648   18.4927 C   0  0  0  0  0  0  0  0  0  0  0  0
  -22.3286  -32.8412   19.3429 C   0  0  0  0  0  0  0  0  0  0  0  0
  -28.2251  -11.8297   18.9074 C   0  0  0  0  0  0  0  0  0  0  0  0
  -30.5528  -12.4547   19.6838 C   0  0  0  0  0  0  0  0  0  0  0  0
  -28.6008  -13.3526   20.8889 C   0  0  0  0  0  0  0  0  0  0  0  0
  -22.2851  -31.7249   20.3934 C   0  0  1  0  0  0  0  0  0  0  0  0
  -24.7570  -32.5717   23.1512 C   0  0  1  0  0  0  0  0  0  0  0  0
  -27.6689  -13.0209   19.7119 C   0  0  2  0  0  0  0  0  0  0  0  0
  -31.8059  -34.9458   25.3145 C   0  0  0  0  0  0  0  0  0  0  0  0
  -28.2231  -32.9421   20.1165 C   0  0  0  0  0  0  0  0  0  0  0  0
  -30.4611  -33.4888   21.0966 C   0  0  0  0  0  0  0  0  0  0  0  0
  -28.7025  -35.2517   20.9474 C   0  0  0  0  0  0  0  0  0  0  0  0
  -29.0550  -33.6290   27.5892 C   0  0  0  0  0  0  0  0  0  0  0  0
  -28.0575  -23.9915   23.1696 C   0  0  0  0  0  0  0  0  0  0  0  0
  -27.1596  -26.1544   24.2302 C   0  0  0  0  0  0  0  0  0  1  0  0
  -28.0230  -22.4667   23.2082 C   0  0  0  0  0  0  0  0  0  0  0  0
  -28.4566  -33.3965   22.6473 C   0  0  1  0  0  0  0  0  0  0  0  0
  -30.3819  -34.5709   25.6942 C   0  0  2  0  0  0  0  0  0  0  0  0
  -28.9443  -33.7500   21.2139 C   0  0  0  0  0  0  0  0  0  0  0  0
  -31.3494  -19.0115   19.9175 N   0  0  0  0  0  0  0  0  0  0  0  0
  -25.8588  -11.5190   20.4532 N   0  0  0  0  0  0  0  0  0  0  0  0
  -26.2427  -12.7748   20.1673 N   0  0  0  0  0  0  0  0  0  0  0  0
  -26.2183  -32.4783   23.1676 N   0  0  0  0  0  0  0  0  0  0  0  0
  -29.9660  -13.5922   20.3955 N   0  0  0  0  0  0  0  0  0  0  0  0
  -25.4728  -15.0135   20.0884 N   0  0  0  0  0  0  0  0  0  0  0  0
  -21.8435  -12.7119   21.4766 N   0  0  0  0  0  0  0  0  0  0  0  0
  -28.9198  -20.4271   22.3223 N   0  0  0  0  0  0  0  0  0  0  0  0
  -30.0429  -15.8013   21.2181 N   0  0  0  0  0  0  0  0  0  0  0  0
  -22.9359  -32.1531   21.6131 N   0  0  0  0  0  0  0  0  0  0  0  0
  -29.1031  -34.1657   23.7051 N   0  0  0  0  0  0  0  0  0  0  0  0
  -30.3946  -34.0183   27.0782 N   0  3  0  0  0  0  0  0  0  0  0  0
  -22.6329  -14.7970   20.9398 O   0  0  0  0  0  0  0  0  0  0  0  0
  -25.1259  -31.6337   21.0161 O   0  0  0  0  0  0  0  0  0  0  0  0
  -26.3240  -23.9900   24.8556 O   0  0  0  0  0  0  0  0  0  0  0  0
  -26.4988  -34.7356   22.6556 O   0  0  0  0  0  0  0  0  0  0  0  0
  -29.7310  -22.4734   21.5049 O   0  0  0  0  0  0  0  0  0  0  0  0
  -29.9543  -32.3440   24.8602 O   0  0  0  0  0  0  0  0  0  0  0  0
  -31.8612  -14.8841   20.1070 O   0  0  0  0  0  0  0  0  0  0  0  0
  -21.5549   -7.2126   22.3187 O   0  0  0  0  0  0  0  0  0  0  0  0
  -26.2336  -26.6523   25.1951 O   0  0  0  0  0  0  0  0  0  1  0  0
  -18.4052   -7.6675   26.8216 F   0  0  0  0  0  0  0  0  0  0  0  0
  -21.9347   -5.5437   24.4897 F   0  0  0  0  0  0  0  0  0  0  0  0
  1  2  1  0  0  0  0
  1  5  2  0  0  0  0
  2  6  2  0  0  0  0
  3  8  2  0  0  0  0
  3 18  1  0  0  0  0
  4  9  1  0  0  0  0
  4 18  2  0  0  0  0
  5 20  1  0  0  0  0
  6 22  1  0  0  0  0
  7 10  2  0  0  0  0
  7 21  1  0  0  0  0
  8 26  1  0  0  0  0
  9 26  2  0  0  0  0
 10 27  1  0  0  0  0
 11 12  2  0  0  0  0
 11 28  1  0  0  0  0
 12 29  1  0  0  0  0
 13 23  1  0  0  0  0
 13 27  2  0  0  0  0
 14 24  2  0  0  0  0
 14 25  1  0  0  0  0
 15 29  2  0  0  0  0
 15 30  1  0  0  0  0
 16 24  1  0  0  0  0
 16 63  2  0  0  0  0
 17 25  2  0  0  0  0
 17 63  1  0  0  0  0
 18 31  1  0  0  0  0
 19 31  1  0  0  0  0
 19 32  2  0  0  0  0
 19 33  1  0  0  0  0
 20 22  2  0  0  0  0
 20 40  1  0  0  0  0
 21 23  2  0  0  0  0
 21 41  1  0  0  0  0
 22 49  1  0  0  0  0
 23 42  1  0  0  0  0
 24 70  1  0  0  0  0
 25 71  1  0  0  0  0
 26 82  1  0  0  0  0
 27 83  1  0  0  0  0
 28 30  2  0  0  0  0
 28 82  1  0  0  0  0
 29 84  1  0  0  0  0
 30 85  1  0  0  0  0
 31 64  2  0  0  0  0
 32 65  1  0  0  0  0
 32 68  1  0  0  0  0
 33 69  1  0  0  0  0
 33 75  2  0  0  0  0
 34 50  1  0  0  0  0
 34 72  1  0  0  0  0
 34 76  2  0  0  0  0
 35 57  1  0  0  0  0
 35 58  1  0  0  0  0
 35 77  2  0  0  0  0
 36 60  1  0  0  0  0
 36 66  1  0  0  0  0
 36 78  2  0  0  0  0
 37 59  1  0  0  0  0
 37 70  1  0  0  0  0
 37 79  2  0  0  0  0
 38 61  1  0  0  0  0
 38 73  1  0  0  0  0
 38 80  2  0  0  0  0
 39 67  1  0  0  0  0
 39 71  1  0  0  0  0
 39 81  2  0  0  0  0
 40 43  1  0  0  0  0
 41 50  1  0  0  0  0
 42 66  1  0  0  0  0
 43 45  1  0  0  0  0
 44 46  1  0  0  0  0
 44 47  1  0  0  0  0
 45 49  1  0  0  0  0
 46 51  1  0  0  0  0
 47 67  1  0  0  0  0
 48 51  1  0  0  0  0
 48 67  1  0  0  0  0
 49 72  1  0  0  0  0
 50 66  1  0  0  0  0
 51 65  1  0  0  0  0
 52 61  1  0  0  0  0
 53 62  1  0  0  0  0
 54 62  1  0  0  0  0
 55 62  1  0  0  0  0
 56 74  1  0  0  0  0
 57 59  1  0  0  0  0
 58 83  1  0  0  0  0
 60 62  1  0  0  0  0
 60 73  1  0  0  0  0
 61 74  1  0  0  0  0
 64 65  1  0  0  0  0
M  CHG  1  74   1
M  ISO  4  39 100  58 101  71 100  83 101
M  END
> <Batch ID>
0174

> <Smiles>
CNC(C)C(=O)NC(C(=O)N1Cc2cc([101O:1][101CH2:1]C(=O)CCC(=O)Nc3cncc([100NH:0][100C:0](=O)N4CCCC(n5nc(-c6ccc(Oc7ccc(F)cc7F)cc6)c(C(N)=O)c5N)C4)c3)ccc2CC1C(=O)NC1CCCc2ccccc21)C(C)(C)C

> <Shape>
0.268

> <Color>
0.193

> <Negative vol penalty>
0.000

$$$$

  -OEChem-04052304333D

 93101  0     1  0  0  0  0  0999 V2000
  -32.5298  -26.9004   17.3521 C   0  0  0  0  0  0  0  0  0  0  0  0
  -31.2203  -26.4396   17.4432 C   0  0  0  0  0  0  0  0  0  0  0  0
  -25.0008  -11.2200   20.5486 C   0  0  0  0  0  0  0  0  0  0  0  0
  -25.3771  -11.9760   22.8122 C   0  0  0  0  0  0  0  0  0  0  0  0
  -33.0869  -27.6265   18.4039 C   0  0  0  0  0  0  0  0  0  0  0  0
  -30.4675  -26.7038   18.5869 C   0  0  0  0  0  0  0  0  0  0  0  0
  -24.4442  -27.7759   18.8630 C   0  0  0  0  0  0  0  0  0  0  0  0
  -25.0277   -9.8959   20.9863 C   0  0  0  0  0  0  0  0  0  0  0  0
  -25.4039  -10.6519   23.2500 C   0  0  0  0  0  0  0  0  0  0  0  0
  -23.3592  -26.9580   19.1754 C   0  0  0  0  0  0  0  0  0  0  0  0
  -22.9311   -7.7406   22.5328 C   0  0  0  0  0  0  0  0  0  0  0  0
  -21.9439   -6.8794   22.0540 C   0  0  0  0  0  0  0  0  0  0  0  0
  -23.4213  -27.7551   21.4513 C   0  0  0  0  0  0  0  0  0  0  0  0
  -28.1990  -22.2002   22.0285 C   0  0  0  0  0  0  0  0  0  0  0  0
  -23.6469   -5.4656   21.0854 C   0  0  0  0  0  0  0  0  0  0  0  0
  -25.1756  -12.2601   21.4616 C   0  0  0  0  0  0  0  0  0  0  0  0
  -24.0242  -14.4701   20.9158 C   0  0  0  0  0  0  0  0  0  0  0  0
  -32.3373  -27.9080   19.5569 C   0  0  0  0  0  0  0  0  0  0  0  0
  -25.0338  -28.5828   19.8468 C   0  0  0  0  0  0  0  0  0  0  0  0
  -31.0155  -27.4332   19.6557 C   0  0  0  0  0  0  0  0  0  0  0  0
  -24.5120  -28.5843   21.1483 C   0  0  0  0  0  0  0  0  0  0  0  0
  -28.0816  -23.3739   22.7728 C   0  0  0  0  0  0  0  0  0  0  0  0
  -26.8606  -23.7097   23.3576 C   0  0  0  0  0  0  0  0  0  0  0  0
  -27.0954  -21.3622   21.8688 C   0  0  0  0  0  0  0  0  0  0  0  0
  -25.7569  -22.8717   23.1980 C   0  0  0  0  0  0  0  0  0  0  0  0
  -25.2293   -9.6118   22.3370 C   0  0  0  0  0  0  0  0  0  0  0  0
  -22.8494  -26.9453   20.4704 C   0  0  0  0  0  0  0  0  0  0  0  0
  -24.2763   -7.4643   22.2878 C   0  0  0  0  0  0  0  0  0  0  0  0
  -22.3017   -5.7419   21.3303 C   0  0  0  0  0  0  0  0  0  0  0  0
  -24.6341   -6.3269   21.5641 C   0  0  0  0  0  0  0  0  0  0  0  0
  -25.8744  -21.6979   22.4536 C   0  0  0  0  0  0  0  0  0  0  0  0
  -25.1485  -13.6281   21.0100 C   0  0  0  0  0  0  0  0  0  0  0  0
  -24.5232  -15.6570   20.4374 C   0  0  0  0  0  0  0  0  0  0  0  0
  -22.6516  -14.2033   21.2326 C   0  0  0  0  0  0  0  0  0  0  0  0
  -27.9175  -28.7580   21.1723 C   0  0  0  0  0  0  0  0  0  0  0  0
  -21.0045  -24.3133   22.1464 C   0  0  0  0  0  0  0  0  0  0  0  0
  -26.6690  -31.3839   22.6104 C   0  0  0  0  0  0  0  0  0  0  0  0
  -23.2445  -22.8678   23.3173 C   0  0  0  0  0  0  0  0  0  0  0  0
  -23.8930  -33.0641   23.6674 C   0  0  0  0  0  0  0  0  0  0  0  0
  -28.3588  -19.6932   20.4672 C   0  0  0  0  0  0  0  0  0  0  0  0
  -32.9981  -28.6560   20.6876 C   0  0  0  0  0  0  0  0  0  0  0  0
  -26.1866  -29.4795   19.4873 C   0  0  0  0  0  0  0  0  0  0  0  0
  -25.0961  -29.4472   22.2358 C   0  0  0  0  0  0  0  0  0  0  0  0
  -32.0097  -29.2149   21.7079 C   0  0  0  0  0  0  0  0  0  0  0  0
  -29.0762  -16.7885   18.5370 C   0  0  0  0  0  0  0  0  0  0  0  0
  -30.9800  -28.1560   22.0892 C   0  0  0  0  0  0  0  0  0  0  0  0
  -28.0258  -15.7766   19.0005 C   0  0  0  0  0  0  0  0  0  0  0  0
  -29.5657  -17.6655   19.6881 C   0  0  0  0  0  0  0  0  0  0  0  0
  -27.4556  -17.3266   20.9135 C   0  0  0  0  0  0  0  0  0  0  0  0
  -30.1588  -27.7207   20.8695 C   0  0  1  0  0  0  0  0  0  0  0  0
  -27.0345  -29.8749   20.6923 C   0  0  1  0  0  0  0  0  0  0  0  0
  -26.8849  -16.4639   19.7761 C   0  0  2  0  0  0  0  0  0  0  0  0
  -29.2784  -24.2538   22.9278 C   0  0  0  0  0  0  0  0  0  0  0  0
  -23.1919  -35.1675   24.8428 C   0  0  0  0  0  0  0  0  0  0  0  0
  -19.9095  -24.5273   24.4073 C   0  0  0  0  0  0  0  0  0  0  0  0
  -20.0412  -22.3006   23.3154 C   0  0  0  0  0  0  0  0  0  0  0  0
  -27.5217  -30.1741   25.2786 C   0  0  0  0  0  0  0  0  0  0  0  0
  -25.9935  -31.7943   26.4222 C   0  0  0  0  0  0  0  0  0  0  0  0
  -27.9173  -32.6351   25.0750 C   0  0  0  0  0  0  0  0  0  0  0  0
  -22.3617  -34.0055   21.3163 C   0  0  0  0  0  0  0  0  0  0  0  0
  -21.7140  -25.6578   22.1163 C   0  0  0  0  0  0  0  0  0  1  0  0
  -22.1428  -23.3977   24.2277 C   0  0  0  0  0  0  0  0  0  0  0  0
  -25.9148  -31.6441   23.8919 C   0  0  1  0  0  0  0  0  0  0  0  0
  -23.4662  -34.5111   23.4987 C   0  0  2  0  0  0  0  0  0  0  0  0
  -26.7387  -24.9706   24.1549 C   0  0  0  0  0  0  0  0  0  0  0  0
  -20.7906  -23.6322   23.5164 C   0  0  0  0  0  0  0  0  0  0  0  0
  -26.8268  -31.5441   25.1471 C   0  0  0  0  0  0  0  0  0  0  0  0
  -26.2766  -14.2289   20.6223 N   0  0  0  0  0  0  0  0  0  0  0  0
  -25.8638  -15.4612   20.2799 N   0  0  0  0  0  0  0  0  0  0  0  0
  -26.2263  -30.3019   21.8363 N   0  0  0  0  0  0  0  0  0  0  0  0
  -28.4306  -18.2871   20.3736 N   0  0  0  0  0  0  0  0  0  0  0  0
  -23.9417  -16.8385   20.1403 N   0  0  0  0  0  0  0  0  0  0  0  0
  -22.3118  -12.9313   21.7131 N   0  0  0  0  0  0  0  0  0  0  0  0
  -24.5106  -23.1958   23.7834 N   0  0  0  0  0  0  0  0  0  0  0  0
  -27.2182  -20.1706   21.1120 N   0  0  0  0  0  0  0  0  0  0  0  0
  -29.1537  -28.7138   20.5564 N   0  0  0  0  0  0  0  0  0  0  0  0
  -25.2649  -32.9399   23.7272 N   0  0  0  0  0  0  0  0  0  0  0  0
  -22.2276  -34.5931   22.6741 N   0  3  0  0  0  0  0  0  0  0  0  0
  -21.7504  -15.0622   21.0782 O   0  0  0  0  0  0  0  0  0  0  0  0
  -27.5082  -27.9937   22.0384 O   0  0  0  0  0  0  0  0  0  0  0  0
  -20.6414  -23.7753   21.0975 O   0  0  0  0  0  0  0  0  0  0  0  0
  -27.6117  -32.1181   22.3037 O   0  0  0  0  0  0  0  0  0  0  0  0
  -22.9611  -22.2400   22.3005 O   0  0  0  0  0  0  0  0  0  0  0  0
  -23.0895  -32.1371   23.7426 O   0  0  0  0  0  0  0  0  0  0  0  0
  -29.2304  -20.4210   19.9850 O   0  0  0  0  0  0  0  0  0  0  0  0
  -25.2553   -8.3199   22.7645 O   0  0  0  0  0  0  0  0  0  0  0  0
  -21.7909  -26.1474   20.7781 O   0  0  0  0  0  0  0  0  0  1  0  0
  -21.3536   -4.9142   20.8720 F   0  0  0  0  0  0  0  0  0  0  0  0
  -25.9248   -6.0556   21.3266 F   0  0  0  0  0  0  0  0  0  0  0  0
  -24.8135  -20.8906   22.2992 F   0  0  0  0  0  0  0  0  0  0  0  0
  -27.8989  -25.6845   24.2210 F   0  0  0  0  0  0  0  0  0  0  0  0
  -25.8097  -25.8371   23.6588 F   0  0  0  0  0  0  0  0  0  0  0  0
  -26.3740  -24.7355   25.4468 F   0  0  0  0  0  0  0  0  0  0  0  0
  1  2  1  0  0  0  0
  1  5  2  0  0  0  0
  2  6  2  0  0  0  0
  3  8  2  0  0  0  0
  3 16  1  0  0  0  0
  4  9  1  0  0  0  0
  4 16  2  0  0  0  0
  5 18  1  0  0  0  0
  6 20  1  0  0  0  0
  7 10  2  0  0  0  0
  7 19  1  0  0  0  0
  8 26  1  0  0  0  0
  9 26  2  0  0  0  0
 10 27  1  0  0  0  0
 11 12  2  0  0  0  0
 11 28  1  0  0  0  0
 12 29  1  0  0  0  0
 13 21  1  0  0  0  0
 13 27  2  0  0  0  0
 14 22  2  0  0  0  0
 14 24  1  0  0  0  0
 15 29  2  0  0  0  0
 15 30  1  0  0  0  0
 16 32  1  0  0  0  0
 17 32  1  0  0  0  0
 17 33  2  0  0  0  0
 17 34  1  0  0  0  0
 18 20  2  0  0  0  0
 18 41  1  0  0  0  0
 19 21  2  0  0  0  0
 19 42  1  0  0  0  0
 20 50  1  0  0  0  0
 21 43  1  0  0  0  0
 22 23  1  0  0  0  0
 22 53  1  0  0  0  0
 23 25  2  0  0  0  0
 23 65  1  0  0  0  0
 24 31  2  0  0  0  0
 24 75  1  0  0  0  0
 25 31  1  0  0  0  0
 25 74  1  0  0  0  0
 26 86  1  0  0  0  0
 27 87  1  0  0  0  0
 28 30  2  0  0  0  0
 28 86  1  0  0  0  0
 29 88  1  0  0  0  0
 30 89  1  0  0  0  0
 31 90  1  0  0  0  0
 32 68  2  0  0  0  0
 33 69  1  0  0  0  0
 33 72  1  0  0  0  0
 34 73  1  0  0  0  0
 34 79  2  0  0  0  0
 35 51  1  0  0  0  0
 35 76  1  0  0  0  0
 35 80  2  0  0  0  0
 36 61  1  0  0  0  0
 36 66  1  0  0  0  0
 36 81  2  0  0  0  0
 37 63  1  0  0  0  0
 37 70  1  0  0  0  0
 37 82  2  0  0  0  0
 38 62  1  0  0  0  0
 38 74  1  0  0  0  0
 38 83  2  0  0  0  0
 39 64  1  0  0  0  0
 39 77  1  0  0  0  0
 39 84  2  0  0  0  0
 40 71  1  0  0  0  0
 40 75  1  0  0  0  0
 40 85  2  0  0  0  0
 41 44  1  0  0  0  0
 42 51  1  0  0  0  0
 43 70  1  0  0  0  0
 44 46  1  0  0  0  0
 45 47  1  0  0  0  0
 45 48  1  0  0  0  0
 46 50  1  0  0  0  0
 47 52  1  0  0  0  0
 48 71  1  0  0  0  0
 49 52  1  0  0  0  0
 49 71  1  0  0  0  0
 50 76  1  0  0  0  0
 51 70  1  0  0  0  0
 52 69  1  0  0  0  0
 54 64  1  0  0  0  0
 55 66  1  0  0  0  0
 56 66  1  0  0  0  0
 57 67  1  0  0  0  0
 58 67  1  0  0  0  0
 59 67  1  0  0  0  0
 60 78  1  0  0  0  0
 61 87  1  0  0  0  0
 62 66  1  0  0  0  0
 63 67  1  0  0  0  0
 63 77  1  0  0  0  0
 64 78  1  0  0  0  0
 65 91  1  0  0  0  0
 65 92  1  0  0  0  0
 65 93  1  0  0  0  0
 68 69  1  0  0  0  0
M  CHG  1  78   1
M  ISO  4  40 100  61 101  75 100  87 101
M  END
> <Batch ID>
0174

> <Smiles>
CNC(C)C(=O)NC(C(=O)N1Cc2cc([101O:1][101CH2:1]C(=O)C(C)(C)CC(=O)Nc3c(F)c([100NH:0][100C:0](=O)N4CCCC(n5nc(-c6ccc(Oc7ccc(F)cc7F)cc6)c(C(N)=O)c5N)C4)cc(C)c3C(F)(F)F)ccc2CC1C(=O)NC1CCCc2ccccc21)C(C)(C)C

> <Shape>
0.267

> <Color>
0.090

> <Negative vol penalty>
0.000

$$$$

  -OEChem-04052304333D

 85 93  0     1  0  0  0  0  0999 V2000
  -26.2071  -21.8677   15.8979 C   0  0  0  0  0  0  0  0  0  0  0  0
  -26.7327  -20.7422   16.5222 C   0  0  0  0  0  0  0  0  0  0  0  0
  -23.3505  -30.0291   21.4495 C   0  0  0  0  0  0  0  0  0  0  0  0
  -25.2142  -28.8966   20.4098 C   0  0  0  0  0  0  0  0  0  0  0  0
  -24.9398  -22.3274   16.2498 C   0  0  0  0  0  0  0  0  0  0  0  0
  -25.9864  -20.0690   17.4901 C   0  0  0  0  0  0  0  0  0  0  0  0
  -27.8221  -15.8281   19.1777 C   0  0  0  0  0  0  0  0  0  0  0  0
  -24.1434  -31.1611   21.6378 C   0  0  0  0  0  0  0  0  0  0  0  0
  -26.0071  -30.0287   20.5981 C   0  0  0  0  0  0  0  0  0  0  0  0
  -28.9308  -15.7692   20.0210 C   0  0  0  0  0  0  0  0  0  0  0  0
  -26.5444  -32.1912   23.7822 C   0  0  0  0  0  0  0  0  0  0  0  0
  -26.4890  -32.8207   25.0257 C   0  0  0  0  0  0  0  0  0  0  0  0
  -27.4743  -15.3446   21.8965 C   0  0  0  0  0  0  0  0  0  0  0  0
  -25.7262  -34.8521   23.9632 C   0  0  0  0  0  0  0  0  0  0  0  0
  -25.9837  -19.9502   23.4908 C   0  0  0  0  0  0  0  0  0  0  0  0
  -23.8859  -28.8968   20.8355 C   0  0  0  0  0  0  0  0  0  0  0  0
  -22.2635  -27.4278   19.5250 C   0  0  0  0  0  0  0  0  0  0  0  0
  -24.1834  -21.6663   17.2315 C   0  0  0  0  0  0  0  0  0  0  0  0
  -26.5282  -15.6562   19.6902 C   0  0  0  0  0  0  0  0  0  0  0  0
  -24.6957  -20.5034   17.8420 C   0  0  0  0  0  0  0  0  0  0  0  0
  -26.3510  -15.3993   21.0572 C   0  0  0  0  0  0  0  0  0  0  0  0
  -25.4717  -31.1609   21.2121 C   0  0  0  0  0  0  0  0  0  0  0  0
  -28.7569  -15.5303   21.3810 C   0  0  0  0  0  0  0  0  0  0  0  0
  -26.1908  -32.8921   22.6292 C   0  0  0  0  0  0  0  0  0  0  0  0
  -26.0799  -34.1512   25.1162 C   0  0  0  0  0  0  0  0  0  0  0  0
  -25.7817  -34.2225   22.7197 C   0  0  0  0  0  0  0  0  0  0  0  0
  -27.2468  -19.3740   23.1704 C   0  0  0  0  0  0  0  0  0  0  0  0
  -23.0676  -27.7269   20.6412 C   0  0  0  0  0  0  0  0  0  0  0  0
  -27.7599  -19.8735   21.9936 C   0  0  0  0  0  0  0  0  0  0  0  0
  -21.6953  -26.2142   19.8265 C   0  0  0  0  0  0  0  0  0  0  0  0
  -25.5796  -20.8685   22.5467 C   0  0  0  0  0  0  0  0  0  0  0  0
  -22.0493  -28.1797   18.3232 C   0  0  0  0  0  0  0  0  0  0  0  0
  -23.9217  -17.4681   19.8546 C   0  0  0  0  0  0  0  0  0  0  0  0
  -22.5815  -14.7533   21.0191 C   0  0  0  0  0  0  0  0  0  0  0  0
  -23.0114  -11.7478   22.5776 C   0  0  0  0  0  0  0  0  0  0  0  0
  -30.4547  -17.4963   21.0937 C   0  0  0  0  0  0  0  0  0  0  0  0
  -23.3508  -21.7008   23.3752 C   0  0  0  0  0  0  0  0  0  0  0  0
  -22.8143  -22.2023   17.5682 C   0  0  0  0  0  0  0  0  0  0  0  0
  -25.3445  -15.6961   18.7630 C   0  0  0  0  0  0  0  0  0  0  0  0
  -24.9844  -15.1877   21.6538 C   0  0  0  0  0  0  0  0  0  0  0  0
  -22.2890  -21.6928   18.9064 C   0  0  0  0  0  0  0  0  0  0  0  0
  -20.3137  -23.5499   23.5583 C   0  0  0  0  0  0  0  0  0  0  0  0
  -22.4372  -20.1805   18.9813 C   0  0  0  0  0  0  0  0  0  0  0  0
  -20.6000  -24.8008   22.7244 C   0  0  0  0  0  0  0  0  0  0  0  0
  -21.5424  -23.1007   24.3471 C   0  0  0  0  0  0  0  0  0  0  0  0
  -23.0466  -24.1677   22.7138 C   0  0  0  0  0  0  0  0  0  0  0  0
  -23.9147  -19.7729   18.9194 C   0  0  1  0  0  0  0  0  0  0  0  0
  -24.0359  -16.0180   19.4781 C   0  0  1  0  0  0  0  0  0  0  0  0
  -21.8572  -24.6204   21.8512 C   0  0  2  0  0  0  0  0  0  0  0  0
  -32.9414  -17.5192   22.9119 C   0  0  0  0  0  0  0  0  0  0  0  0
  -21.7252   -9.7678   23.4277 C   0  0  0  0  0  0  0  0  0  0  0  0
  -31.8634  -15.4101   20.9406 C   0  0  0  0  0  0  0  0  0  0  0  0
  -21.6522  -16.3909   23.4201 C   0  0  0  0  0  0  0  0  0  0  0  0
  -21.2357  -14.2424   24.6361 C   0  0  0  0  0  0  0  0  0  0  0  0
  -19.9651  -14.7611   22.5530 C   0  0  0  0  0  0  0  0  0  0  0  0
  -24.4361   -9.8958   20.7611 C   0  0  0  0  0  0  0  0  0  0  0  0
  -29.0546  -19.5265   21.3172 C   0  0  0  0  0  0  0  0  0  0  0  0
  -31.7185  -16.6360   23.1409 C   0  0  0  0  0  0  0  0  0  0  0  0
  -22.4126  -14.1480   22.3918 C   0  0  1  0  0  0  0  0  0  0  0  0
  -22.4873  -10.3606   22.2528 C   0  0  2  0  0  0  0  0  0  0  0  0
  -30.9710  -16.2621   21.8480 C   0  0  1  0  0  0  0  0  0  1  0  0
  -21.3422  -14.8915   23.2397 C   0  0  0  0  0  0  0  0  0  0  0  0
  -23.0173  -26.7798   21.5816 N   0  0  0  0  0  0  0  0  0  0  0  0
  -22.1747  -25.8736   21.0571 N   0  0  0  0  0  0  0  0  0  0  0  0
  -23.8580  -15.2424   20.7074 N   0  0  0  0  0  0  0  0  0  0  0  0
  -22.6929  -22.9465   23.4543 N   0  0  0  0  0  0  0  0  0  0  0  0
  -20.8374  -25.4160   19.1564 N   0  0  0  0  0  0  0  0  0  0  0  0
  -22.7112  -29.4063   18.1755 N   0  0  0  0  0  0  0  0  0  0  0  0
  -24.4100  -21.6647   22.4689 N   0  0  0  0  0  0  0  0  0  0  0  0
  -24.0026  -18.3358   18.7822 N   0  0  0  0  0  0  0  0  0  0  0  0
  -29.6371  -18.3190   21.8525 N   0  0  0  0  0  0  0  0  0  0  0  0
  -22.1308  -12.7321   22.1817 N   0  0  0  0  0  0  0  0  0  0  0  0
  -23.6151   -9.4468   21.9149 N   0  3  0  0  0  0  0  0  0  0  0  0
  -21.2806  -27.7837   17.4145 O   0  0  0  0  0  0  0  0  0  0  0  0
  -23.7697  -17.7768   21.0307 O   0  0  0  0  0  0  0  0  0  0  0  0
  -21.6182  -14.7843   20.2492 O   0  0  0  0  0  0  0  0  0  0  0  0
  -24.0922  -11.9389   23.1308 O   0  0  0  0  0  0  0  0  0  0  0  0
  -30.7534  -17.7139   19.9194 O   0  0  0  0  0  0  0  0  0  0  0  0
  -22.9833  -20.7294   24.0409 O   0  0  0  0  0  0  0  0  0  0  0  0
  -26.2456  -32.2654   21.3955 O   0  0  0  0  0  0  0  0  0  0  0  0
  -29.8373  -15.4730   22.2064 O   0  0  0  0  0  0  0  0  0  1  0  0
  -26.0252  -34.7551   26.3105 F   0  0  0  0  0  0  0  0  0  0  0  0
  -25.4396  -34.9007   21.6157 F   0  0  0  0  0  0  0  0  0  0  0  0
  -27.8582  -18.4587   23.9249 F   0  0  0  0  0  0  0  0  0  0  0  0
  -26.7205  -21.0325   21.2804 S   0  0  0  0  0  0  0  0  0  0  0  0
  1  2  1  0  0  0  0
  1  5  2  0  0  0  0
  2  6  2  0  0  0  0
  3  8  2  0  0  0  0
  3 16  1  0  0  0  0
  4  9  1  0  0  0  0
  4 16  2  0  0  0  0
  5 18  1  0  0  0  0
  6 20  1  0  0  0  0
  7 10  2  0  0  0  0
  7 19  1  0  0  0  0
  8 22  1  0  0  0  0
  9 22  2  0  0  0  0
 10 23  1  0  0  0  0
 11 12  2  0  0  0  0
 11 24  1  0  0  0  0
 12 25  1  0  0  0  0
 13 21  1  0  0  0  0
 13 23  2  0  0  0  0
 14 25  2  0  0  0  0
 14 26  1  0  0  0  0
 15 27  1  0  0  0  0
 15 31  2  0  0  0  0
 16 28  1  0  0  0  0
 17 28  1  0  0  0  0
 17 30  2  0  0  0  0
 17 32  1  0  0  0  0
 18 20  2  0  0  0  0
 18 38  1  0  0  0  0
 19 21  2  0  0  0  0
 19 39  1  0  0  0  0
 20 47  1  0  0  0  0
 21 40  1  0  0  0  0
 22 80  1  0  0  0  0
 23 81  1  0  0  0  0
 24 26  2  0  0  0  0
 24 80  1  0  0  0  0
 25 82  1  0  0  0  0
 26 83  1  0  0  0  0
 27 29  2  0  0  0  0
 27 84  1  0  0  0  0
 28 63  2  0  0  0  0
 29 57  1  0  0  0  0
 29 85  1  0  0  0  0
 30 64  1  0  0  0  0
 30 67  1  0  0  0  0
 31 69  1  0  0  0  0
 31 85  1  0  0  0  0
 32 68  1  0  0  0  0
 32 74  2  0  0  0  0
 33 48  1  0  0  0  0
 33 70  1  0  0  0  0
 33 75  2  0  0  0  0
 34 59  1  0  0  0  0
 34 65  1  0  0  0  0
 34 76  2  0  0  0  0
 35 60  1  0  0  0  0
 35 72  1  0  0  0  0
 35 77  2  0  0  0  0
 36 61  1  0  0  0  0
 36 71  1  0  0  0  0
 36 78  2  0  0  0  0
 37 66  1  0  0  0  0
 37 69  1  0  0  0  0
 37 79  2  0  0  0  0
 38 41  1  0  0  0  0
 39 48  1  0  0  0  0
 40 65  1  0  0  0  0
 41 43  1  0  0  0  0
 42 44  1  0  0  0  0
 42 45  1  0  0  0  0
 43 47  1  0  0  0  0
 44 49  1  0  0  0  0
 45 66  1  0  0  0  0
 46 49  1  0  0  0  0
 46 66  1  0  0  0  0
 47 70  1  0  0  0  0
 48 65  1  0  0  0  0
 49 64  1  0  0  0  0
 50 58  1  0  0  0  0
 51 60  1  0  0  0  0
 52 61  1  0  0  0  0
 53 62  1  0  0  0  0
 54 62  1  0  0  0  0
 55 62  1  0  0  0  0
 56 73  1  0  0  0  0
 57 71  1  0  0  0  0
 58 61  1  0  0  0  0
 59 62  1  0  0  0  0
 59 72  1  0  0  0  0
 60 73  1  0  0  0  0
 61 81  1  0  0  0  0
 63 64  1  0  0  0  0
M  CHG  1  73   1
M  ISO  4  37 100  61 101  69 100  81 101
M  END
> <Batch ID>
0174

> <Smiles>
CC[101C:1](C)(C(=O)NCc1sc([100NH:0][100C:0](=O)N2CCCC(n3nc(-c4ccc(Oc5ccc(F)cc5F)cc4)c(C(N)=O)c3N)C2)cc1F)[101O:1]c1ccc2c(c1)CN(C(=O)C(NC(=O)C(C)NC)C(C)(C)C)C(C(=O)NC1CCCc3ccccc31)C2

> <Shape>
0.190

> <Color>
0.060

> <Negative vol penalty>
0.000

$$$$

  -OEChem-04052304333D

 85 93  0     1  0  0  0  0  0999 V2000
  -17.5384  -24.5135   24.2087 C   0  0  0  0  0  0  0  0  0  0  0  0
  -18.1227  -23.8276   23.1488 C   0  0  0  0  0  0  0  0  0  0  0  0
  -25.6846  -14.6041   21.5424 C   0  0  0  0  0  0  0  0  0  0  0  0
  -25.0850  -15.3831   19.3354 C   0  0  0  0  0  0  0  0  0  0  0  0
  -17.7703  -25.8792   24.3662 C   0  0  0  0  0  0  0  0  0  0  0  0
  -18.9385  -24.5073   22.2450 C   0  0  0  0  0  0  0  0  0  0  0  0
  -24.7090  -23.5393   18.1121 C   0  0  0  0  0  0  0  0  0  0  0  0
  -29.6977  -23.7497   15.4990 C   0  0  0  0  0  0  0  0  0  0  0  0
  -24.6017  -13.7251   21.5263 C   0  0  0  0  0  0  0  0  0  0  0  0
  -24.0022  -14.5040   19.3192 C   0  0  0  0  0  0  0  0  0  0  0  0
  -25.1277  -23.7003   16.7921 C   0  0  0  0  0  0  0  0  0  0  0  0
  -22.2067  -11.0185   21.9180 C   0  0  0  0  0  0  0  0  0  0  0  0
  -22.4256   -9.7119   22.3545 C   0  0  0  0  0  0  0  0  0  0  0  0
  -29.1952  -22.9305   16.5039 C   0  0  0  0  0  0  0  0  0  0  0  0
  -25.5212  -26.0435   17.2091 C   0  0  0  0  0  0  0  0  0  0  0  0
  -24.0749   -9.4072   20.6155 C   0  0  0  0  0  0  0  0  0  0  0  0
  -25.9262  -15.4332   20.4469 C   0  0  0  0  0  0  0  0  0  0  0  0
  -28.3545  -16.0858   20.0167 C   0  0  0  0  0  0  0  0  0  0  0  0
  -18.5972  -26.5741   23.4694 C   0  0  0  0  0  0  0  0  0  0  0  0
  -24.6829  -24.6332   18.9891 C   0  0  0  0  0  0  0  0  0  0  0  0
  -19.1807  -25.8839   22.3898 C   0  0  0  0  0  0  0  0  0  0  0  0
  -25.1043  -25.8932   18.5405 C   0  0  0  0  0  0  0  0  0  0  0  0
  -30.0012  -25.0774   15.7788 C   0  0  0  0  0  0  0  0  0  0  0  0
  -23.7606  -13.6750   20.4147 C   0  0  0  0  0  0  0  0  0  0  0  0
  -25.5311  -24.9532   16.3396 C   0  0  0  0  0  0  0  0  0  0  0  0
  -22.9219  -11.5195   20.8302 C   0  0  0  0  0  0  0  0  0  0  0  0
  -23.3596   -8.9063   21.7033 C   0  0  0  0  0  0  0  0  0  0  0  0
  -23.8559  -10.7138   20.1790 C   0  0  0  0  0  0  0  0  0  0  0  0
  -27.0443  -16.3420   20.4632 C   0  0  0  0  0  0  0  0  0  0  0  0
  -29.7858  -25.5338   17.0692 C   0  0  0  0  0  0  0  0  0  0  0  0
  -29.0161  -23.4830   17.7618 C   0  0  0  0  0  0  0  0  0  0  0  0
  -29.0310  -17.2589   20.2461 C   0  0  0  0  0  0  0  0  0  0  0  0
  -28.9104  -14.8940   19.4455 C   0  0  0  0  0  0  0  0  0  0  0  0
  -22.4129  -26.1478   20.6190 C   0  0  0  0  0  0  0  0  0  0  0  0
  -27.7675  -25.7690   13.6021 C   0  0  0  0  0  0  0  0  0  0  0  0
  -24.9331  -27.7580   21.8754 C   0  0  0  0  0  0  0  0  0  0  0  0
  -28.1651  -28.8002   21.5369 C   0  0  0  0  0  0  0  0  0  0  0  0
  -28.2449  -22.9793   20.1066 C   0  0  0  0  0  0  0  0  0  0  0  0
  -18.7804  -28.0598   23.6532 C   0  0  0  0  0  0  0  0  0  0  0  0
  -24.2541  -24.4374   20.4174 C   0  0  0  0  0  0  0  0  0  0  0  0
  -25.1142  -27.0954   19.4478 C   0  0  0  0  0  0  0  0  0  0  0  0
  -19.9588  -28.6300   22.8680 C   0  0  0  0  0  0  0  0  0  0  0  0
  -28.3131  -21.1796   23.1780 C   0  0  0  0  0  0  0  0  0  0  0  0
  -19.9480  -28.1076   21.4349 C   0  0  0  0  0  0  0  0  0  0  0  0
  -28.1211  -19.7231   22.7491 C   0  0  0  0  0  0  0  0  0  0  0  0
  -27.4891  -22.1371   22.3189 C   0  0  0  0  0  0  0  0  0  0  0  0
  -27.4950  -20.5419   20.4416 C   0  0  0  0  0  0  0  0  0  0  0  0
  -20.0916  -26.5813   21.4029 C   0  0  1  0  0  0  0  0  0  0  0  0
  -23.7793  -25.7266   21.0808 C   0  0  1  0  0  0  0  0  0  0  0  0
  -28.3552  -19.5457   21.2361 C   0  0  2  0  0  0  0  0  0  0  0  0
  -30.0927  -26.9508   17.4312 C   0  0  0  0  0  0  0  0  0  0  0  0
  -29.9386  -30.1321   22.7108 C   0  0  0  0  0  0  0  0  0  0  0  0
  -23.5264  -30.3413   21.0643 C   0  0  0  0  0  0  0  0  0  0  0  0
  -25.7010  -31.5418   21.3777 C   0  0  0  0  0  0  0  0  0  0  0  0
  -24.6137  -30.4080   23.3155 C   0  0  0  0  0  0  0  0  0  0  0  0
  -31.7670  -25.5761   14.1075 C   0  0  0  0  0  0  0  0  0  0  0  0
  -29.9723  -26.4626   21.7059 C   0  0  0  0  0  0  0  0  0  0  0  0
  -28.8335  -26.7884   13.2262 C   0  0  0  0  0  0  0  0  0  0  0  0
  -26.9093  -26.1293   14.7991 C   0  0  0  0  0  0  0  0  0  1  0  0
  -29.8038  -27.1030   14.3581 C   0  0  0  0  0  0  0  0  0  0  0  0
  -25.6933  -29.0092   21.5072 C   0  0  1  0  0  0  0  0  0  0  0  0
  -29.3450  -28.7494   22.4907 C   0  0  2  0  0  0  0  0  0  0  0  0
  -24.8817  -30.3031   21.7983 C   0  0  0  0  0  0  0  0  0  0  0  0
  -26.8951  -17.5805   20.9404 N   0  0  0  0  0  0  0  0  0  0  0  0
  -29.2994  -24.7681   18.0715 N   0  0  0  0  0  0  0  0  0  0  0  0
  -28.1204  -18.1131   20.7950 N   0  0  0  0  0  0  0  0  0  0  0  0
  -24.6800  -26.8543   20.8337 N   0  0  0  0  0  0  0  0  0  0  0  0
  -27.7661  -21.9140   20.8982 N   0  0  0  0  0  0  0  0  0  0  0  0
  -30.3100  -17.6328   20.0298 N   0  0  0  0  0  0  0  0  0  0  0  0
  -28.0758  -13.7802   19.2799 N   0  0  0  0  0  0  0  0  0  0  0  0
  -28.5034  -22.6401   18.7789 N   0  0  0  0  0  0  0  0  0  0  0  0
  -21.4691  -26.1984   21.6271 N   0  0  0  0  0  0  0  0  0  0  0  0
  -26.9693  -28.9334   22.2104 N   0  0  0  0  0  0  0  0  0  0  0  0
  -30.5074  -25.9113   14.7727 N   0  0  3  0  0  0  0  0  0  0  0  0
  -30.4115  -27.8609   21.9484 N   0  3  0  0  0  0  0  0  0  0  0  0
  -30.1157  -14.8135   19.1075 O   0  0  0  0  0  0  0  0  0  0  0  0
  -22.2289  -26.4092   19.4360 O   0  0  0  0  0  0  0  0  0  0  0  0
  -27.6130  -24.7136   12.9896 O   0  0  0  0  0  0  0  0  0  0  0  0
  -24.5830  -27.5854   23.0456 O   0  0  0  0  0  0  0  0  0  0  0  0
  -28.2919  -28.7326   20.3163 O   0  0  0  0  0  0  0  0  0  0  0  0
  -28.4389  -24.1024   20.5787 O   0  0  0  0  0  0  0  0  0  0  0  0
  -22.7040  -12.8171   20.3985 O   0  0  0  0  0  0  0  0  0  0  0  0
  -25.9396  -25.1133   15.0514 O   0  0  0  0  0  0  0  0  0  1  0  0
  -23.5708   -7.6521   22.1235 F   0  0  0  0  0  0  0  0  0  0  0  0
  -24.5469  -11.1899   19.1341 F   0  0  0  0  0  0  0  0  0  0  0  0
  1  2  1  0  0  0  0
  1  5  2  0  0  0  0
  2  6  2  0  0  0  0
  3  9  2  0  0  0  0
  3 17  1  0  0  0  0
  4 10  1  0  0  0  0
  4 17  2  0  0  0  0
  5 19  1  0  0  0  0
  6 21  1  0  0  0  0
  7 11  2  0  0  0  0
  7 20  1  0  0  0  0
  8 14  2  0  0  0  0
  8 23  1  0  0  0  0
  9 24  1  0  0  0  0
 10 24  2  0  0  0  0
 11 25  1  0  0  0  0
 12 13  2  0  0  0  0
 12 26  1  0  0  0  0
 13 27  1  0  0  0  0
 14 31  1  0  0  0  0
 15 22  1  0  0  0  0
 15 25  2  0  0  0  0
 16 27  2  0  0  0  0
 16 28  1  0  0  0  0
 17 29  1  0  0  0  0
 18 29  1  0  0  0  0
 18 32  2  0  0  0  0
 18 33  1  0  0  0  0
 19 21  2  0  0  0  0
 19 39  1  0  0  0  0
 20 22  2  0  0  0  0
 20 40  1  0  0  0  0
 21 48  1  0  0  0  0
 22 41  1  0  0  0  0
 23 30  2  0  0  0  0
 23 74  1  0  0  0  0
 24 82  1  0  0  0  0
 25 83  1  0  0  0  0
 26 28  2  0  0  0  0
 26 82  1  0  0  0  0
 27 84  1  0  0  0  0
 28 85  1  0  0  0  0
 29 64  2  0  0  0  0
 30 51  1  0  0  0  0
 30 65  1  0  0  0  0
 31 65  2  0  0  0  0
 31 71  1  0  0  0  0
 32 66  1  0  0  0  0
 32 69  1  0  0  0  0
 33 70  1  0  0  0  0
 33 76  2  0  0  0  0
 34 49  1  0  0  0  0
 34 72  1  0  0  0  0
 34 77  2  0  0  0  0
 35 58  1  0  0  0  0
 35 59  1  0  0  0  0
 35 78  2  0  0  0  0
 36 61  1  0  0  0  0
 36 67  1  0  0  0  0
 36 79  2  0  0  0  0
 37 62  1  0  0  0  0
 37 73  1  0  0  0  0
 37 80  2  0  0  0  0
 38 68  1  0  0  0  0
 38 71  1  0  0  0  0
 38 81  2  0  0  0  0
 39 42  1  0  0  0  0
 40 49  1  0  0  0  0
 41 67  1  0  0  0  0
 42 44  1  0  0  0  0
 43 45  1  0  0  0  0
 43 46  1  0  0  0  0
 44 48  1  0  0  0  0
 45 50  1  0  0  0  0
 46 68  1  0  0  0  0
 47 50  1  0  0  0  0
 47 68  1  0  0  0  0
 48 72  1  0  0  0  0
 49 67  1  0  0  0  0
 50 66  1  0  0  0  0
 52 62  1  0  0  0  0
 53 63  1  0  0  0  0
 54 63  1  0  0  0  0
 55 63  1  0  0  0  0
 56 74  1  0  0  0  0
 57 75  1  0  0  0  0
 58 60  1  0  0  0  0
 59 83  1  0  0  0  0
 60 74  1  0  0  0  0
 61 63  1  0  0  0  0
 61 73  1  0  0  0  0
 62 75  1  0  0  0  0
 64 66  1  0  0  0  0
M  CHG  1  75   1
M  ISO  4  38 100  59 101  71 100  83 101
M  END
> <Batch ID>
0174

> <Smiles>
CNC(C)C(=O)NC(C(=O)N1Cc2cc([101O:1][101CH2:1]C(=O)CCN(C)c3ccc([100NH:0][100C:0](=O)N4CCCC(n5nc(-c6ccc(Oc7ccc(F)cc7F)cc6)c(C(N)=O)c5N)C4)nc3C)ccc2CC1C(=O)NC1CCCc2ccccc21)C(C)(C)C

> <Shape>
0.253

> <Color>
0.046

> <Negative vol penalty>
0.000

$$$$

  -OEChem-04052304333D

 89 97  0     1  0  0  0  0  0999 V2000
  -22.9880  -33.0876   25.4302 C   0  0  0  0  0  0  0  0  0  0  0  0
  -23.8808  -32.1405   24.9390 C   0  0  0  0  0  0  0  0  0  0  0  0
  -26.2239  -11.9270   21.5103 C   0  0  0  0  0  0  0  0  0  0  0  0
  -25.7914  -13.2552   19.5390 C   0  0  0  0  0  0  0  0  0  0  0  0
  -21.6184  -32.8270   25.4145 C   0  0  0  0  0  0  0  0  0  0  0  0
  -23.4045  -30.9317   24.4328 C   0  0  0  0  0  0  0  0  0  0  0  0
  -25.6328  -29.6386   20.0730 C   0  0  0  0  0  0  0  0  0  0  0  0
  -24.9061  -11.4704   21.4919 C   0  0  0  0  0  0  0  0  0  0  0  0
  -24.4735  -12.7986   19.5206 C   0  0  0  0  0  0  0  0  0  0  0  0
  -26.9137  -29.0934   20.1498 C   0  0  0  0  0  0  0  0  0  0  0  0
  -21.8583  -12.6232   22.3900 C   0  0  0  0  0  0  0  0  0  0  0  0
  -21.1631  -12.6034   23.5991 C   0  0  0  0  0  0  0  0  0  0  0  0
  -28.7380  -22.9978   18.6293 C   0  0  0  0  0  0  0  0  0  0  0  0
  -29.1131  -20.6127   18.5424 C   0  0  0  0  0  0  0  0  0  0  0  0
  -25.9812  -26.8826   19.9010 C   0  0  0  0  0  0  0  0  0  0  0  0
  -29.6544  -21.8484   20.5467 C   0  0  0  0  0  0  0  0  0  0  0  0
  -20.8590  -10.2161   23.3852 C   0  0  0  0  0  0  0  0  0  0  0  0
  -26.6666  -12.8194   20.5339 C   0  0  0  0  0  0  0  0  0  0  0  0
  -28.6826  -21.7908   17.9323 C   0  0  0  0  0  0  0  0  0  0  0  0
  -29.1390  -12.7083   19.9154 C   0  0  0  0  0  0  0  0  0  0  0  0
  -21.1245  -31.6184   24.8989 C   0  0  0  0  0  0  0  0  0  0  0  0
  -24.5136  -28.8076   19.9203 C   0  0  0  0  0  0  0  0  0  0  0  0
  -22.0271  -30.6541   24.4114 C   0  0  0  0  0  0  0  0  0  0  0  0
  -24.6874  -27.4199   19.8199 C   0  0  0  0  0  0  0  0  0  0  0  0
  -29.2239  -23.0266   19.9365 C   0  0  0  0  0  0  0  0  0  0  0  0
  -29.5990  -20.6415   19.8497 C   0  0  0  0  0  0  0  0  0  0  0  0
  -24.0308  -11.9062   20.4970 C   0  0  0  0  0  0  0  0  0  0  0  0
  -27.0878  -27.7151   20.0667 C   0  0  0  0  0  0  0  0  0  0  0  0
  -22.0538  -11.4395   21.6784 C   0  0  0  0  0  0  0  0  0  0  0  0
  -20.6635  -11.3999   24.0967 C   0  0  0  0  0  0  0  0  0  0  0  0
  -21.5542  -10.2360   22.1760 C   0  0  0  0  0  0  0  0  0  0  0  0
  -28.0277  -13.2919   20.5527 C   0  0  0  0  0  0  0  0  0  0  0  0
  -30.1907  -13.5307   20.2377 C   0  0  0  0  0  0  0  0  0  0  0  0
  -28.1758  -21.7608   16.5695 C   0  0  0  0  0  0  0  0  0  0  0  0
  -29.2139  -11.5283   19.1044 C   0  0  0  0  0  0  0  0  0  0  0  0
  -29.6416  -25.8835   22.3496 C   0  0  0  0  0  0  0  0  0  0  0  0
  -29.7305  -24.4437   21.9307 C   0  0  0  0  0  0  0  0  0  0  0  0
  -21.9191  -28.1982   21.6528 C   0  0  0  0  0  0  0  0  0  0  0  0
  -21.0661  -26.4587   19.0511 C   0  0  0  0  0  0  0  0  0  0  0  0
  -22.0403  -24.7454   16.2650 C   0  0  0  0  0  0  0  0  0  0  0  0
  -30.5451  -19.2983   21.7594 C   0  0  0  0  0  0  0  0  0  0  0  0
  -19.6389  -31.3621   24.9464 C   0  0  0  0  0  0  0  0  0  0  0  0
  -23.1410  -29.4132   19.8123 C   0  0  0  0  0  0  0  0  0  0  0  0
  -23.5204  -26.4858   19.6353 C   0  0  0  0  0  0  0  0  0  0  0  0
  -19.1903  -30.2120   24.0486 C   0  0  0  0  0  0  0  0  0  0  0  0
  -31.6940  -16.5188   23.6650 C   0  0  0  0  0  0  0  0  0  0  0  0
  -20.1053  -29.0050   24.2298 C   0  0  0  0  0  0  0  0  0  0  0  0
  -30.9901  -15.3220   23.0213 C   0  0  0  0  0  0  0  0  0  0  0  0
  -30.7988  -17.7563   23.6915 C   0  0  0  0  0  0  0  0  0  0  0  0
  -29.5212  -16.9388   21.7502 C   0  0  0  0  0  0  0  0  0  0  0  0
  -21.5474  -29.3413   23.8313 C   0  0  1  0  0  0  0  0  0  0  0  0
  -22.0266  -28.4356   20.1730 C   0  0  1  0  0  0  0  0  0  0  0  0
  -30.4065  -15.6865   21.6421 C   0  0  2  0  0  0  0  0  0  0  0  0
  -32.4957  -26.7671   22.8367 C   0  0  0  0  0  0  0  0  0  0  0  0
  -21.1193  -23.3998   14.3575 C   0  0  0  0  0  0  0  0  0  0  0  0
  -20.6465  -24.0899   20.9280 C   0  0  0  0  0  0  0  0  0  0  0  0
  -20.6663  -22.5884   18.9246 C   0  0  0  0  0  0  0  0  0  0  0  0
  -18.9017  -24.3367   19.1534 C   0  0  0  0  0  0  0  0  0  0  0  0
  -23.0938  -26.6506   14.2602 C   0  0  0  0  0  0  0  0  0  0  0  0
  -31.4092  -27.6730   22.2706 C   0  0  0  0  0  0  0  0  0  0  0  0
  -29.3008  -27.8887   20.9201 C   0  0  0  0  0  0  0  0  0  1  0  0
  -21.2704  -25.0307   18.6060 C   0  0  1  0  0  0  0  0  0  0  0  0
  -21.5381  -24.7823   14.8329 C   0  0  2  0  0  0  0  0  0  0  0  0
  -30.3394  -26.9107   21.4747 C   0  0  2  0  0  0  0  0  0  0  0  0
  -20.3932  -24.0286   19.4084 C   0  0  0  0  0  0  0  0  0  0  0  0
  -28.3439  -14.3994   21.2289 N   0  0  0  0  0  0  0  0  0  0  0  0
  -27.7577  -22.8170   15.9372 N   0  0  0  0  0  0  0  0  0  0  0  0
  -29.6659  -14.5183   21.0184 N   0  0  0  0  0  0  0  0  0  0  0  0
  -22.1977  -27.1255   19.5417 N   0  0  0  0  0  0  0  0  0  0  0  0
  -30.2861  -18.0433   22.3500 N   0  0  0  0  0  0  0  0  0  0  0  0
  -31.5040  -13.4983   19.9268 N   0  0  0  0  0  0  0  0  0  0  0  0
  -28.0385  -10.8008   18.8731 N   0  0  0  0  0  0  0  0  0  0  0  0
  -29.2801  -24.2500   20.6431 N   0  0  0  0  0  0  0  0  0  0  0  0
  -30.0358  -19.4445   20.4694 N   0  0  0  0  0  0  0  0  0  0  0  0
  -21.6864  -29.3430   22.3908 N   0  0  0  0  0  0  0  0  0  0  0  0
  -21.0323  -25.0137   17.1667 N   0  0  0  0  0  0  0  0  0  0  0  0
  -22.6041  -25.2891   13.9231 N   0  3  0  0  0  0  0  0  0  0  0  0
  -30.2942  -11.1216   18.6134 O   0  0  0  0  0  0  0  0  0  0  0  0
  -28.9648  -26.1378   23.3361 O   0  0  0  0  0  0  0  0  0  0  0  0
  -30.1993  -23.6653   22.7444 O   0  0  0  0  0  0  0  0  0  0  0  0
  -22.0371  -27.0604   22.0923 O   0  0  0  0  0  0  0  0  0  0  0  0
  -19.9455  -26.9661   18.9600 O   0  0  0  0  0  0  0  0  0  0  0  0
  -23.2090  -24.4992   16.5549 O   0  0  0  0  0  0  0  0  0  0  0  0
  -31.1958  -20.1685   22.3435 O   0  0  0  0  0  0  0  0  0  0  0  0
  -22.7449  -11.4606   20.4786 O   0  0  0  0  0  0  0  0  0  0  0  0
  -28.3369  -27.1804   20.1420 O   0  0  0  0  0  0  0  0  0  1  0  0
  -19.9973  -11.3808   25.2586 F   0  0  0  0  0  0  0  0  0  0  0  0
  -21.7399   -9.0954   21.4975 F   0  0  0  0  0  0  0  0  0  0  0  0
  -30.9557  -26.3248   20.4054 F   0  0  0  0  0  0  0  0  0  0  0  0
  1  2  1  0  0  0  0
  1  5  2  0  0  0  0
  2  6  2  0  0  0  0
  3  8  2  0  0  0  0
  3 18  1  0  0  0  0
  4  9  1  0  0  0  0
  4 18  2  0  0  0  0
  5 21  1  0  0  0  0
  6 23  1  0  0  0  0
  7 10  2  0  0  0  0
  7 22  1  0  0  0  0
  8 27  1  0  0  0  0
  9 27  2  0  0  0  0
 10 28  1  0  0  0  0
 11 12  2  0  0  0  0
 11 29  1  0  0  0  0
 12 30  1  0  0  0  0
 13 19  2  0  0  0  0
 13 25  1  0  0  0  0
 14 19  1  0  0  0  0
 14 26  2  0  0  0  0
 15 24  1  0  0  0  0
 15 28  2  0  0  0  0
 16 25  2  0  0  0  0
 16 26  1  0  0  0  0
 17 30  2  0  0  0  0
 17 31  1  0  0  0  0
 18 32  1  0  0  0  0
 19 34  1  0  0  0  0
 20 32  1  0  0  0  0
 20 33  2  0  0  0  0
 20 35  1  0  0  0  0
 21 23  2  0  0  0  0
 21 42  1  0  0  0  0
 22 24  2  0  0  0  0
 22 43  1  0  0  0  0
 23 51  1  0  0  0  0
 24 44  1  0  0  0  0
 25 73  1  0  0  0  0
 26 74  1  0  0  0  0
 27 85  1  0  0  0  0
 28 86  1  0  0  0  0
 29 31  2  0  0  0  0
 29 85  1  0  0  0  0
 30 87  1  0  0  0  0
 31 88  1  0  0  0  0
 32 66  2  0  0  0  0
 33 68  1  0  0  0  0
 33 71  1  0  0  0  0
 34 67  2  0  0  0  0
 35 72  1  0  0  0  0
 35 78  2  0  0  0  0
 36 37  1  0  0  0  0
 36 64  1  0  0  0  0
 36 79  2  0  0  0  0
 37 73  1  0  0  0  0
 37 80  2  0  0  0  0
 38 52  1  0  0  0  0
 38 75  1  0  0  0  0
 38 81  2  0  0  0  0
 39 62  1  0  0  0  0
 39 69  1  0  0  0  0
 39 82  2  0  0  0  0
 40 63  1  0  0  0  0
 40 76  1  0  0  0  0
 40 83  2  0  0  0  0
 41 70  1  0  0  0  0
 41 74  1  0  0  0  0
 41 84  2  0  0  0  0
 42 45  1  0  0  0  0
 43 52  1  0  0  0  0
 44 69  1  0  0  0  0
 45 47  1  0  0  0  0
 46 48  1  0  0  0  0
 46 49  1  0  0  0  0
 47 51  1  0  0  0  0
 48 53  1  0  0  0  0
 49 70  1  0  0  0  0
 50 53  1  0  0  0  0
 50 70  1  0  0  0  0
 51 75  1  0  0  0  0
 52 69  1  0  0  0  0
 53 68  1  0  0  0  0
 54 60  1  0  0  0  0
 55 63  1  0  0  0  0
 56 65  1  0  0  0  0
 57 65  1  0  0  0  0
 58 65  1  0  0  0  0
 59 77  1  0  0  0  0
 60 64  1  0  0  0  0
 61 64  1  0  0  0  0
 61 86  1  0  0  0  0
 62 65  1  0  0  0  0
 62 76  1  0  0  0  0
 63 77  1  0  0  0  0
 64 89  1  0  0  0  0
 66 68  1  0  0  0  0
M  CHG  1  77   1
M  ISO  4  41 100  61 101  74 100  86 101
M  END
> <Batch ID>
0174

> <Smiles>
CCC(F)(C(=O)C(=O)Nc1cc(C=N)cc([100NH:0][100C:0](=O)N2CCCC(n3nc(-c4ccc(Oc5ccc(F)cc5F)cc4)c(C(N)=O)c3N)C2)c1)[101CH2:1][101O:1]c1ccc2c(c1)CN(C(=O)C(NC(=O)C(C)NC)C(C)(C)C)C(C(=O)NC1CCCc3ccccc31)C2

> <Shape>
0.281

> <Color>
0.070

> <Negative vol penalty>
0.000

$$$$

  -OEChem-04052304333D

 89 97  0     1  0  0  0  0  0999 V2000
  -40.7080  -26.6432   16.9366 C   0  0  0  0  0  0  0  0  0  0  0  0
  -39.9618  -26.3795   18.0807 C   0  0  0  0  0  0  0  0  0  0  0  0
  -23.0289   -9.8459   20.0111 C   0  0  0  0  0  0  0  0  0  0  0  0
  -23.7312   -9.9789   22.3190 C   0  0  0  0  0  0  0  0  0  0  0  0
  -40.0697  -27.0678   15.7719 C   0  0  0  0  0  0  0  0  0  0  0  0
  -38.5769  -26.5412   18.0611 C   0  0  0  0  0  0  0  0  0  0  0  0
  -36.1396  -22.6873   20.2640 C   0  0  0  0  0  0  0  0  0  0  0  0
  -22.2758   -8.7094   20.3058 C   0  0  0  0  0  0  0  0  0  0  0  0
  -22.9780   -8.8424   22.6137 C   0  0  0  0  0  0  0  0  0  0  0  0
  -36.1102  -22.6659   21.6577 C   0  0  0  0  0  0  0  0  0  0  0  0
  -23.2735   -5.4942   22.2486 C   0  0  0  0  0  0  0  0  0  0  0  0
  -23.8680   -4.5094   23.0375 C   0  0  0  0  0  0  0  0  0  0  0  0
  -30.5718  -18.8479   23.3510 C   0  0  0  0  0  0  0  0  0  0  0  0
  -33.8752  -23.5728   21.6185 C   0  0  0  0  0  0  0  0  0  0  0  0
  -32.3461  -17.2769   23.8207 C   0  0  0  0  0  0  0  0  0  0  0  0
  -22.1249   -4.7797   24.6884 C   0  0  0  0  0  0  0  0  0  0  0  0
  -23.7567  -10.4806   21.0177 C   0  0  0  0  0  0  0  0  0  0  0  0
  -29.9894  -17.9292   22.4778 C   0  0  0  0  0  0  0  0  0  0  0  0
  -24.1085  -12.9947   20.7667 C   0  0  0  0  0  0  0  0  0  0  0  0
  -38.6753  -27.2256   15.7353 C   0  0  0  0  0  0  0  0  0  0  0  0
  -35.0393  -23.1627   19.5361 C   0  0  0  0  0  0  0  0  0  0  0  0
  -37.9195  -26.9696   16.8953 C   0  0  0  0  0  0  0  0  0  0  0  0
  -33.8922  -23.5968   20.2156 C   0  0  0  0  0  0  0  0  0  0  0  0
  -31.7501  -18.5218   24.0224 C   0  0  0  0  0  0  0  0  0  0  0  0
  -30.5854  -16.6842   22.2762 C   0  0  0  0  0  0  0  0  0  0  0  0
  -22.2503   -8.2077   21.6070 C   0  0  0  0  0  0  0  0  0  0  0  0
  -34.9790  -23.1114   22.3353 C   0  0  0  0  0  0  0  0  0  0  0  0
  -22.1047   -6.1219   22.6797 C   0  0  0  0  0  0  0  0  0  0  0  0
  -23.2936   -4.1521   24.2574 C   0  0  0  0  0  0  0  0  0  0  0  0
  -31.7637  -16.3581   22.9476 C   0  0  0  0  0  0  0  0  0  0  0  0
  -21.5304   -5.7646   23.8995 C   0  0  0  0  0  0  0  0  0  0  0  0
  -24.5353  -11.6543   20.7139 C   0  0  0  0  0  0  0  0  0  0  0  0
  -25.2115  -13.7214   20.3901 C   0  0  0  0  0  0  0  0  0  0  0  0
  -33.9809  -22.3443   24.3066 C   0  0  0  0  0  0  0  0  0  1  0  0
  -28.7581  -18.3011   21.7920 C   0  0  0  0  0  0  0  0  0  0  0  0
  -22.8294  -13.5348   21.1243 C   0  0  0  0  0  0  0  0  0  0  0  0
  -33.8573  -22.2532   25.6353 C   0  0  0  0  0  0  0  0  0  0  0  0
  -32.7706  -21.4117   26.1929 C   0  0  0  0  0  0  0  0  0  0  0  0
  -31.8779  -20.7151   25.2116 C   0  0  0  0  0  0  0  0  0  0  0  0
  -34.5577  -25.5659   17.5122 C   0  0  0  0  0  0  0  0  0  0  0  0
  -31.6388  -24.1898   17.1826 C   0  0  0  0  0  0  0  0  0  0  0  0
  -29.2083  -22.1971   18.5126 C   0  0  0  0  0  0  0  0  0  0  0  0
  -30.6745  -14.7673   20.6440 C   0  0  0  0  0  0  0  0  0  0  0  0
  -38.0351  -27.7322   14.4672 C   0  0  0  0  0  0  0  0  0  0  0  0
  -35.0766  -23.1543   18.0324 C   0  0  0  0  0  0  0  0  0  0  0  0
  -32.6769  -24.0976   19.4802 C   0  0  0  0  0  0  0  0  0  0  0  0
  -36.5244  -27.5185   14.4201 C   0  0  0  0  0  0  0  0  0  0  0  0
  -29.6130  -12.2276   18.3858 C   0  0  0  0  0  0  0  0  0  0  0  0
  -35.8833  -27.9472   15.7361 C   0  0  0  0  0  0  0  0  0  0  0  0
  -28.1622  -11.9623   18.7945 C   0  0  0  0  0  0  0  0  0  0  0  0
  -30.4983  -12.5213   19.5955 C   0  0  0  0  0  0  0  0  0  0  0  0
  -28.5595  -13.3239   20.8862 C   0  0  0  0  0  0  0  0  0  0  0  0
  -36.4127  -27.1094   16.9063 C   0  0  1  0  0  0  0  0  0  0  0  0
  -34.0959  -24.1401   17.4049 C   0  0  1  0  0  0  0  0  0  0  0  0
  -27.6159  -13.0870   19.6956 C   0  0  2  0  0  0  0  0  0  0  0  0
  -27.8358  -19.2509   22.4962 C   0  0  0  0  0  0  0  0  0  0  0  0
  -27.0735  -20.8821   18.6160 C   0  0  0  0  0  0  0  0  0  0  0  0
  -30.4210  -26.9084   17.8429 C   0  0  0  0  0  0  0  0  0  0  0  0
  -28.2436  -25.7504   18.2743 C   0  0  0  0  0  0  0  0  0  0  0  0
  -29.2689  -25.6687   16.0017 C   0  0  0  0  0  0  0  0  0  0  0  0
  -30.5099  -19.7772   17.4131 C   0  0  0  0  0  0  0  0  0  0  0  0
  -30.3063  -24.3293   17.8783 C   0  0  1  0  0  0  0  0  0  0  0  0
  -28.4179  -21.0428   17.9234 C   0  0  2  0  0  0  0  0  0  0  0  0
  -29.5834  -25.6567   17.5135 C   0  0  0  0  0  0  0  0  0  0  0  0
  -25.8100  -11.5336   20.3335 N   0  0  0  0  0  0  0  0  0  0  0  0
  -26.1936  -12.8076   20.1438 N   0  0  0  0  0  0  0  0  0  0  0  0
  -32.7644  -24.0758   18.0108 N   0  0  0  0  0  0  0  0  0  0  0  0
  -29.9205  -13.6000   20.4001 N   0  0  0  0  0  0  0  0  0  0  0  0
  -25.4274  -15.0465   20.2487 N   0  0  0  0  0  0  0  0  0  0  0  0
  -21.8068  -12.6471   21.4859 N   0  0  0  0  0  0  0  0  0  0  0  0
  -32.3411  -19.4530   24.9075 N   0  0  0  0  0  0  0  0  0  0  0  0
  -30.0094  -15.7372   21.3934 N   0  0  0  0  0  0  0  0  0  0  0  0
  -35.7831  -25.8064   16.9207 N   0  0  0  0  0  0  0  0  0  0  0  0
  -29.5477  -23.1266   17.5524 N   0  0  0  0  0  0  0  0  0  0  0  0
  -29.1765  -19.7682   18.0680 N   0  3  0  0  0  0  0  0  0  0  0  0
  -28.4194  -17.8897   20.6824 O   0  0  0  0  0  0  0  0  0  0  0  0
  -22.5952  -14.7670   21.1075 O   0  0  0  0  0  0  0  0  0  0  0  0
  -32.5342  -21.2528   27.3803 O   0  0  0  0  0  0  0  0  0  0  0  0
  -30.8913  -21.3259   24.8363 O   0  0  0  0  0  0  0  0  0  0  0  0
  -33.8535  -26.3873   18.0877 O   0  0  0  0  0  0  0  0  0  0  0  0
  -31.6787  -24.1750   15.9498 O   0  0  0  0  0  0  0  0  0  0  0  0
  -29.4929  -22.2690   19.7061 O   0  0  0  0  0  0  0  0  0  0  0  0
  -31.8154  -14.9083   20.1963 O   0  0  0  0  0  0  0  0  0  0  0  0
  -34.6930  -22.9040   26.5156 O   0  0  0  0  0  0  0  0  0  0  0  0
  -21.5154   -7.0989   21.8949 O   0  0  0  0  0  0  0  0  0  0  0  0
  -34.9479  -23.0922   23.6956 O   0  0  0  0  0  0  0  0  0  1  0  0
  -23.8637   -3.2053   25.0141 F   0  0  0  0  0  0  0  0  0  0  0  0
  -32.3461  -15.1647   22.7620 F   0  0  0  0  0  0  0  0  0  0  0  0
  -20.4070   -6.3632   24.3184 F   0  0  0  0  0  0  0  0  0  0  0  0
  1  2  1  0  0  0  0
  1  5  2  0  0  0  0
  2  6  2  0  0  0  0
  3  8  2  0  0  0  0
  3 17  1  0  0  0  0
  4  9  1  0  0  0  0
  4 17  2  0  0  0  0
  5 20  1  0  0  0  0
  6 22  1  0  0  0  0
  7 10  2  0  0  0  0
  7 21  1  0  0  0  0
  8 26  1  0  0  0  0
  9 26  2  0  0  0  0
 10 27  1  0  0  0  0
 11 12  2  0  0  0  0
 11 28  1  0  0  0  0
 12 29  1  0  0  0  0
 13 18  1  0  0  0  0
 13 24  2  0  0  0  0
 14 23  1  0  0  0  0
 14 27  2  0  0  0  0
 15 24  1  0  0  0  0
 15 30  2  0  0  0  0
 16 29  2  0  0  0  0
 16 31  1  0  0  0  0
 17 32  1  0  0  0  0
 18 25  2  0  0  0  0
 18 35  1  0  0  0  0
 19 32  1  0  0  0  0
 19 33  2  0  0  0  0
 19 36  1  0  0  0  0
 20 22  2  0  0  0  0
 20 44  1  0  0  0  0
 21 23  2  0  0  0  0
 21 45  1  0  0  0  0
 22 53  1  0  0  0  0
 23 46  1  0  0  0  0
 24 71  1  0  0  0  0
 25 30  1  0  0  0  0
 25 72  1  0  0  0  0
 26 85  1  0  0  0  0
 27 86  1  0  0  0  0
 28 31  2  0  0  0  0
 28 85  1  0  0  0  0
 29 87  1  0  0  0  0
 30 88  1  0  0  0  0
 31 89  1  0  0  0  0
 32 65  2  0  0  0  0
 33 66  1  0  0  0  0
 33 69  1  0  0  0  0
 34 37  2  0  0  0  0
 34 86  1  0  0  0  0
 35 56  1  0  0  0  0
 35 76  2  0  0  0  0
 36 70  1  0  0  0  0
 36 77  2  0  0  0  0
 37 38  1  0  0  0  0
 37 84  1  0  0  0  0
 38 39  1  0  0  0  0
 38 78  2  0  0  0  0
 39 71  1  0  0  0  0
 39 79  2  0  0  0  0
 40 54  1  0  0  0  0
 40 73  1  0  0  0  0
 40 80  2  0  0  0  0
 41 62  1  0  0  0  0
 41 67  1  0  0  0  0
 41 81  2  0  0  0  0
 42 63  1  0  0  0  0
 42 74  1  0  0  0  0
 42 82  2  0  0  0  0
 43 68  1  0  0  0  0
 43 72  1  0  0  0  0
 43 83  2  0  0  0  0
 44 47  1  0  0  0  0
 45 54  1  0  0  0  0
 46 67  1  0  0  0  0
 47 49  1  0  0  0  0
 48 50  1  0  0  0  0
 48 51  1  0  0  0  0
 49 53  1  0  0  0  0
 50 55  1  0  0  0  0
 51 68  1  0  0  0  0
 52 55  1  0  0  0  0
 52 68  1  0  0  0  0
 53 73  1  0  0  0  0
 54 67  1  0  0  0  0
 55 66  1  0  0  0  0
 57 63  1  0  0  0  0
 58 64  1  0  0  0  0
 59 64  1  0  0  0  0
 60 64  1  0  0  0  0
 61 75  1  0  0  0  0
 62 64  1  0  0  0  0
 62 74  1  0  0  0  0
 63 75  1  0  0  0  0
 65 66  1  0  0  0  0
M  CHG  1  75   1
M  ISO  4  34 101  43 100  72 100  86 101
M  END
> <Batch ID>
0174

> <Smiles>
CNC(C)C(=O)NC(C(=O)N1Cc2cc([101O:1][101CH2:1]C(=O)C(=O)C(=O)Nc3cc(F)c([100NH:0][100C:0](=O)N4CCCC(n5nc(-c6ccc(Oc7ccc(F)cc7F)cc6)c(C(N)=O)c5N)C4)c(C(C)=O)c3)ccc2CC1C(=O)NC1CCCc2ccccc21)C(C)(C)C

> <Shape>
0.235

> <Color>
0.190

> <Negative vol penalty>
0.000

$$$$

  -OEChem-04052304333D

 85 93  0     1  0  0  0  0  0999 V2000
  -29.2320  -37.0838   20.3995 C   0  0  0  0  0  0  0  0  0  0  0  0
  -29.4458  -35.7262   20.1837 C   0  0  0  0  0  0  0  0  0  0  0  0
  -24.8651   -8.4210   21.4659 C   0  0  0  0  0  0  0  0  0  0  0  0
  -23.4756   -9.3649   19.7295 C   0  0  0  0  0  0  0  0  0  0  0  0
  -28.3285  -37.4993   21.3767 C   0  0  0  0  0  0  0  0  0  0  0  0
  -28.7571  -34.7832   20.9459 C   0  0  0  0  0  0  0  0  0  0  0  0
  -26.7598  -29.2990   19.0914 C   0  0  0  0  0  0  0  0  0  0  0  0
  -23.8012   -7.6208   21.8823 C   0  0  0  0  0  0  0  0  0  0  0  0
  -22.4116   -8.5647   20.1459 C   0  0  0  0  0  0  0  0  0  0  0  0
  -27.2824  -28.0140   19.2309 C   0  0  0  0  0  0  0  0  0  0  0  0
  -20.9822   -7.9801   23.7122 C   0  0  0  0  0  0  0  0  0  0  0  0
  -20.7320   -7.8972   25.0819 C   0  0  0  0  0  0  0  0  0  0  0  0
  -23.9319  -18.1983   16.4716 C   0  0  0  0  0  0  0  0  0  0  0  0
  -24.4074  -17.2022   17.3172 C   0  0  0  0  0  0  0  0  0  0  0  0
  -25.8888  -27.6641   21.1686 C   0  0  0  0  0  0  0  0  0  0  0  0
  -21.0921   -5.5095   25.0031 C   0  0  0  0  0  0  0  0  0  0  0  0
  -24.7023   -9.2931   20.3895 C   0  0  0  0  0  0  0  0  0  0  0  0
  -26.7811   -9.8008   19.0007 C   0  0  0  0  0  0  0  0  0  0  0  0
  -27.6211  -36.5610   22.1446 C   0  0  0  0  0  0  0  0  0  0  0  0
  -25.8041  -29.7809   19.9974 C   0  0  0  0  0  0  0  0  0  0  0  0
  -27.8443  -35.1866   21.9352 C   0  0  0  0  0  0  0  0  0  0  0  0
  -25.3537  -28.9546   21.0369 C   0  0  0  0  0  0  0  0  0  0  0  0
  -22.5745   -7.6927   21.2223 C   0  0  0  0  0  0  0  0  0  0  0  0
  -26.8491  -27.1974   20.2713 C   0  0  0  0  0  0  0  0  0  0  0  0
  -21.2873   -6.8277   22.9879 C   0  0  0  0  0  0  0  0  0  0  0  0
  -20.7870   -6.6619   25.7273 C   0  0  0  0  0  0  0  0  0  0  0  0
  -24.3636  -19.5093   16.6393 C   0  0  0  0  0  0  0  0  0  0  0  0
  -21.3422   -5.5924   23.6333 C   0  0  0  0  0  0  0  0  0  0  0  0
  -25.8008  -10.1203   19.9592 C   0  0  0  0  0  0  0  0  0  0  0  0
  -25.3060  -17.5660   18.3070 C   0  0  0  0  0  0  0  0  0  0  0  0
  -25.2641  -19.7700   17.6596 C   0  0  0  0  0  0  0  0  0  0  0  0
  -27.5904  -10.9095   18.9546 C   0  0  0  0  0  0  0  0  0  0  0  0
  -26.7912  -23.0674   18.6152 C   0  0  0  0  0  0  0  0  0  0  0  0
  -26.9453   -8.6083   18.2217 C   0  0  0  0  0  0  0  0  0  0  0  0
  -27.6020  -23.7956   19.4000 C   0  0  0  0  0  0  0  0  0  0  0  0
  -26.5922  -21.5923   18.7747 C   0  0  0  0  0  0  0  0  0  0  0  0
  -25.6933  -32.1855   22.0733 C   0  0  0  0  0  0  0  0  0  0  0  0
  -22.6102  -31.2361   22.4138 C   0  0  0  0  0  0  0  0  0  0  0  0
  -20.3020  -28.7367   22.1461 C   0  0  0  0  0  0  0  0  0  0  0  0
  -26.6863  -16.6792   20.2187 C   0  0  0  0  0  0  0  0  0  0  0  0
  -26.6900  -37.0584   23.2217 C   0  0  0  0  0  0  0  0  0  0  0  0
  -25.2305  -31.1596   19.8173 C   0  0  0  0  0  0  0  0  0  0  0  0
  -24.3146  -29.4172   22.0241 C   0  0  0  0  0  0  0  0  0  0  0  0
  -25.7220  -35.9930   23.7298 C   0  0  0  0  0  0  0  0  0  0  0  0
  -29.1300  -14.5378   21.6747 C   0  0  0  0  0  0  0  0  0  0  0  0
  -26.4614  -34.6875   24.0051 C   0  0  0  0  0  0  0  0  0  0  0  0
  -28.6461  -13.1331   21.3076 C   0  0  0  0  0  0  0  0  0  0  0  0
  -27.9647  -15.4778   21.9786 C   0  0  0  0  0  0  0  0  0  0  0  0
  -26.4502  -14.1419   20.5677 C   0  0  0  0  0  0  0  0  0  0  0  0
  -27.0977  -34.1333   22.7247 C   0  0  1  0  0  0  0  0  0  0  0  0
  -24.6400  -31.7335   21.1016 C   0  0  1  0  0  0  0  0  0  0  0  0
  -27.5856  -13.1766   20.1899 C   0  0  2  0  0  0  0  0  0  0  0  0
  -17.8706  -28.2510   22.5331 C   0  0  0  0  0  0  0  0  0  0  0  0
  -23.1235  -31.0723   25.4171 C   0  0  0  0  0  0  0  0  0  0  0  0
  -21.0346  -29.7086   25.6292 C   0  0  0  0  0  0  0  0  0  0  0  0
  -20.9108  -32.0541   24.7890 C   0  0  0  0  0  0  0  0  0  0  0  0
  -19.8506  -28.1205   19.2868 C   0  0  0  0  0  0  0  0  0  0  0  0
  -27.7731  -25.2750   19.2195 C   0  0  0  0  0  0  0  0  0  1  0  0
  -21.8857  -30.2553   23.3038 C   0  0  1  0  0  0  0  0  0  0  0  0
  -18.9160  -28.7076   21.5275 C   0  0  2  0  0  0  0  0  0  0  0  0
  -21.7597  -30.7643   24.7675 C   0  0  0  0  0  0  0  0  0  0  0  0
  -25.9702  -11.3368   20.4842 N   0  0  0  0  0  0  0  0  0  0  0  0
  -25.7482  -18.8288   18.5007 N   0  0  0  0  0  0  0  0  0  0  0  0
  -27.0664  -11.7913   19.8534 N   0  0  0  0  0  0  0  0  0  0  0  0
  -23.7887  -30.7755   21.8098 N   0  0  0  0  0  0  0  0  0  0  0  0
  -27.0027  -15.4706   20.8743 N   0  0  0  0  0  0  0  0  0  0  0  0
  -28.6923  -11.2064   18.2333 N   0  0  0  0  0  0  0  0  0  0  0  0
  -26.0242   -7.5660   18.3933 N   0  0  0  0  0  0  0  0  0  0  0  0
  -25.7003  -21.1077   17.8255 N   0  0  0  0  0  0  0  0  0  0  0  0
  -25.7847  -16.5438   19.1635 N   0  0  0  0  0  0  0  0  0  0  0  0
  -26.0959  -33.4956   21.8976 N   0  0  0  0  0  0  0  0  0  0  0  0
  -20.6084  -29.9813   22.6543 N   0  0  0  0  0  0  0  0  0  0  0  0
  -18.8874  -27.7764   20.3643 N   0  3  0  0  0  0  0  0  0  0  0  0
  -27.8907   -8.4648   17.4098 O   0  0  0  0  0  0  0  0  0  0  0  0
  -27.1701  -20.9560   19.6473 O   0  0  0  0  0  0  0  0  0  0  0  0
  -26.1087  -31.4038   22.9208 O   0  0  0  0  0  0  0  0  0  0  0  0
  -22.1438  -32.3670   22.2547 O   0  0  0  0  0  0  0  0  0  0  0  0
  -21.0376  -27.7527   22.1788 O   0  0  0  0  0  0  0  0  0  0  0  0
  -27.1996  -17.7509   20.5501 O   0  0  0  0  0  0  0  0  0  0  0  0
  -28.3194  -23.2373   20.4394 O   0  0  0  0  0  0  0  0  0  0  0  0
  -21.5362   -6.9118   21.6282 O   0  0  0  0  0  0  0  0  0  0  0  0
  -27.3581  -25.9430   20.4102 O   0  0  0  0  0  0  0  0  0  1  0  0
  -20.5482   -6.5826   27.0430 F   0  0  0  0  0  0  0  0  0  0  0  0
  -23.9139  -20.4790   15.8323 F   0  0  0  0  0  0  0  0  0  0  0  0
  -21.6360   -4.4820   22.9430 F   0  0  0  0  0  0  0  0  0  0  0  0
  1  2  1  0  0  0  0
  1  5  2  0  0  0  0
  2  6  2  0  0  0  0
  3  8  2  0  0  0  0
  3 17  1  0  0  0  0
  4  9  1  0  0  0  0
  4 17  2  0  0  0  0
  5 19  1  0  0  0  0
  6 21  1  0  0  0  0
  7 10  2  0  0  0  0
  7 20  1  0  0  0  0
  8 23  1  0  0  0  0
  9 23  2  0  0  0  0
 10 24  1  0  0  0  0
 11 12  2  0  0  0  0
 11 25  1  0  0  0  0
 12 26  1  0  0  0  0
 13 14  2  0  0  0  0
 13 27  1  0  0  0  0
 14 30  1  0  0  0  0
 15 22  1  0  0  0  0
 15 24  2  0  0  0  0
 16 26  2  0  0  0  0
 16 28  1  0  0  0  0
 17 29  1  0  0  0  0
 18 29  1  0  0  0  0
 18 32  2  0  0  0  0
 18 34  1  0  0  0  0
 19 21  2  0  0  0  0
 19 41  1  0  0  0  0
 20 22  2  0  0  0  0
 20 42  1  0  0  0  0
 21 50  1  0  0  0  0
 22 43  1  0  0  0  0
 23 81  1  0  0  0  0
 24 82  1  0  0  0  0
 25 28  2  0  0  0  0
 25 81  1  0  0  0  0
 26 83  1  0  0  0  0
 27 31  2  0  0  0  0
 27 84  1  0  0  0  0
 28 85  1  0  0  0  0
 29 62  2  0  0  0  0
 30 63  2  0  0  0  0
 30 70  1  0  0  0  0
 31 63  1  0  0  0  0
 31 69  1  0  0  0  0
 32 64  1  0  0  0  0
 32 67  1  0  0  0  0
 33 35  2  0  0  0  0
 33 36  1  0  0  0  0
 34 68  1  0  0  0  0
 34 74  2  0  0  0  0
 35 58  1  0  0  0  0
 35 80  1  0  0  0  0
 36 69  1  0  0  0  0
 36 75  2  0  0  0  0
 37 51  1  0  0  0  0
 37 71  1  0  0  0  0
 37 76  2  0  0  0  0
 38 59  1  0  0  0  0
 38 65  1  0  0  0  0
 38 77  2  0  0  0  0
 39 60  1  0  0  0  0
 39 72  1  0  0  0  0
 39 78  2  0  0  0  0
 40 66  1  0  0  0  0
 40 70  1  0  0  0  0
 40 79  2  0  0  0  0
 41 44  1  0  0  0  0
 42 51  1  0  0  0  0
 43 65  1  0  0  0  0
 44 46  1  0  0  0  0
 45 47  1  0  0  0  0
 45 48  1  0  0  0  0
 46 50  1  0  0  0  0
 47 52  1  0  0  0  0
 48 66  1  0  0  0  0
 49 52  1  0  0  0  0
 49 66  1  0  0  0  0
 50 71  1  0  0  0  0
 51 65  1  0  0  0  0
 52 64  1  0  0  0  0
 53 60  1  0  0  0  0
 54 61  1  0  0  0  0
 55 61  1  0  0  0  0
 56 61  1  0  0  0  0
 57 73  1  0  0  0  0
 58 82  1  0  0  0  0
 59 61  1  0  0  0  0
 59 72  1  0  0  0  0
 60 73  1  0  0  0  0
 62 64  1  0  0  0  0
M  CHG  1  73   1
M  ISO  4  40 100  58 101  70 100  82 101
M  END
> <Batch ID>
0174

> <Smiles>
CNC(C)C(=O)NC(C(=O)N1Cc2cc([101O:1][101CH2:1]C(=O)CC(=O)Nc3nc([100NH:0][100C:0](=O)N4CCCC(n5nc(-c6ccc(Oc7ccc(F)cc7F)cc6)c(C(N)=O)c5N)C4)ccc3F)ccc2CC1C(=O)NC1CCCc2ccccc21)C(C)(C)C

> <Shape>
0.262

> <Color>
0.087

> <Negative vol penalty>
0.000

$$$$

  -OEChem-04052304333D

 85 93  0     1  0  0  0  0  0999 V2000
  -22.6917  -22.2678   19.5107 C   0  0  0  0  0  0  0  0  0  0  0  0
  -23.2316  -21.2880   18.6852 C   0  0  0  0  0  0  0  0  0  0  0  0
  -23.8895  -27.4359   20.3487 C   0  0  0  0  0  0  0  0  0  0  0  0
  -25.0423  -26.3223   22.1565 C   0  0  0  0  0  0  0  0  0  0  0  0
  -22.9130  -22.2151   20.8853 C   0  0  0  0  0  0  0  0  0  0  0  0
  -23.9828  -20.2487   19.2352 C   0  0  0  0  0  0  0  0  0  0  0  0
  -28.3951  -13.6355   19.3732 C   0  0  0  0  0  0  0  0  0  0  0  0
  -22.8833  -27.8278   21.2317 C   0  0  0  0  0  0  0  0  0  0  0  0
  -24.0361  -26.7142   23.0395 C   0  0  0  0  0  0  0  0  0  0  0  0
  -29.2993  -12.9174   20.1546 C   0  0  0  0  0  0  0  0  0  0  0  0
  -20.1749  -26.4350   22.6977 C   0  0  0  0  0  0  0  0  0  0  0  0
  -18.8526  -26.2832   22.2808 C   0  0  0  0  0  0  0  0  0  0  0  0
  -27.7016  -12.8836   21.9617 C   0  0  0  0  0  0  0  0  0  0  0  0
  -18.5039  -28.6618   22.5206 C   0  0  0  0  0  0  0  0  0  0  0  0
  -29.4465  -18.0337   19.0557 C   0  0  0  0  0  0  0  0  0  0  0  0
  -24.9690  -26.6831   20.8111 C   0  0  0  0  0  0  0  0  0  0  0  0
  -27.1851  -26.9828   19.5836 C   0  0  0  0  0  0  0  0  0  0  0  0
  -23.6778  -21.1813   21.4502 C   0  0  0  0  0  0  0  0  0  0  0  0
  -27.1394  -13.9931   19.8850 C   0  0  0  0  0  0  0  0  0  0  0  0
  -24.1972  -20.1648   20.6228 C   0  0  0  0  0  0  0  0  0  0  0  0
  -26.7823  -13.6040   21.1839 C   0  0  0  0  0  0  0  0  0  0  0  0
  -22.9567  -27.4670   22.5771 C   0  0  0  0  0  0  0  0  0  0  0  0
  -28.9538  -12.5438   21.4500 C   0  0  0  0  0  0  0  0  0  0  0  0
  -20.6618  -27.7002   23.0261 C   0  0  0  0  0  0  0  0  0  0  0  0
  -18.0170  -27.3966   22.1922 C   0  0  0  0  0  0  0  0  0  0  0  0
  -19.8263  -28.8136   22.9375 C   0  0  0  0  0  0  0  0  0  0  0  0
  -26.0083  -26.2775   19.8993 C   0  0  0  0  0  0  0  0  0  0  0  0
  -27.8335  -26.1803   18.6769 C   0  0  0  0  0  0  0  0  0  0  0  0
  -28.9943  -19.2500   19.5230 C   0  0  0  0  0  0  0  0  0  0  0  0
  -30.2708  -17.9342   21.0856 C   0  0  0  0  0  0  0  0  0  0  0  0
  -27.6505  -28.2499   20.0668 C   0  0  0  0  0  0  0  0  0  0  0  0
  -25.6561  -16.7427   20.4707 C   0  0  0  0  0  0  0  0  0  0  0  0
  -23.1489  -14.7978   21.1443 C   0  0  0  0  0  0  0  0  0  0  0  0
  -31.6539  -15.1700   23.1362 C   0  0  0  0  0  0  0  0  0  0  0  0
  -22.6316  -11.6679   22.8629 C   0  0  0  0  0  0  0  0  0  0  0  0
  -27.7235  -20.3005   17.6183 C   0  0  0  0  0  0  0  0  0  0  0  0
  -23.8794  -21.1685   22.9450 C   0  0  0  0  0  0  0  0  0  0  0  0
  -26.1651  -14.7446   19.0199 C   0  0  0  0  0  0  0  0  0  0  0  0
  -25.4389  -13.9456   21.7729 C   0  0  0  0  0  0  0  0  0  0  0  0
  -25.0475  -20.2895   23.3798 C   0  0  0  0  0  0  0  0  0  0  0  0
  -26.9771  -22.8962   15.2983 C   0  0  0  0  0  0  0  0  0  0  0  0
  -24.9424  -18.9221   22.7211 C   0  0  0  0  0  0  0  0  0  0  0  0
  -26.7571  -24.1234   16.1858 C   0  0  0  0  0  0  0  0  0  0  0  0
  -26.4417  -21.6221   15.9494 C   0  0  0  0  0  0  0  0  0  0  0  0
  -26.7126  -22.5937   18.1970 C   0  0  0  0  0  0  0  0  0  0  0  0
  -25.0432  -19.0419   21.1952 C   0  0  1  0  0  0  0  0  0  0  0  0
  -25.1117  -15.5004   19.8241 C   0  0  1  0  0  0  0  0  0  0  0  0
  -27.2938  -23.8912   17.6118 C   0  0  2  0  0  0  0  0  0  0  0  0
  -32.1270  -18.3622   22.7480 C   0  0  0  0  0  0  0  0  0  0  0  0
  -20.8654   -9.9116   22.5578 C   0  0  0  0  0  0  0  0  0  0  0  0
  -29.8043  -11.5581   24.5949 C   0  0  0  0  0  0  0  0  0  0  0  0
  -21.6896  -16.2911   23.3693 C   0  0  0  0  0  0  0  0  0  0  0  0
  -20.9497  -14.0772   24.2747 C   0  0  0  0  0  0  0  0  0  0  0  0
  -20.2372  -14.7908   21.9930 C   0  0  0  0  0  0  0  0  0  0  0  0
  -24.6508   -9.5433   22.4534 C   0  0  0  0  0  0  0  0  0  0  0  0
  -32.2290  -13.8562   22.6331 C   0  0  0  0  0  0  0  0  0  0  0  0
  -31.7744  -12.6381   23.4407 C   0  0  0  0  0  0  0  0  0  0  0  0
  -31.0004  -17.4280   22.3112 C   0  0  2  0  0  0  0  0  0  0  0  0
  -22.6383  -14.1018   22.3828 C   0  0  1  0  0  0  0  0  0  0  0  0
  -22.2906  -10.3301   22.2317 C   0  0  2  0  0  0  0  0  0  0  0  0
  -30.2522  -12.4447   23.4400 C   0  0  1  0  0  0  0  0  0  1  0  0
  -21.4064  -14.8209   23.0014 C   0  0  0  0  0  0  0  0  0  0  0  0
  -30.1790  -17.2780   19.9502 N   0  0  0  0  0  0  0  0  0  0  0  0
  -25.9121  -25.1164   19.2461 N   0  0  0  0  0  0  0  0  0  0  0  0
  -27.0366  -25.0860   18.5109 N   0  0  0  0  0  0  0  0  0  0  0  0
  -24.5233  -14.6870   20.8900 N   0  0  0  0  0  0  0  0  0  0  0  0
  -26.9965  -21.4659   17.2958 N   0  0  0  0  0  0  0  0  0  0  0  0
  -29.0019  -26.3112   18.0134 N   0  0  0  0  0  0  0  0  0  0  0  0
  -26.8610  -28.9417   20.9955 N   0  0  0  0  0  0  0  0  0  0  0  0
  -28.2304  -20.2782   18.9172 N   0  0  0  0  0  0  0  0  0  0  0  0
  -24.7313  -17.7613   20.5996 N   0  0  0  0  0  0  0  0  0  0  0  0
  -31.5013  -16.0879   22.1072 N   0  0  0  0  0  0  0  0  0  0  0  0
  -22.3912  -12.7160   21.9998 N   0  0  0  0  0  0  0  0  0  0  0  0
  -23.2161   -9.2725   22.7276 N   0  3  0  0  0  0  0  0  0  0  0  0
  -28.7264  -28.7614   19.6740 O   0  0  0  0  0  0  0  0  0  0  0  0
  -26.8279  -16.7741   20.8277 O   0  0  0  0  0  0  0  0  0  0  0  0
  -22.3563  -15.4110   20.4250 O   0  0  0  0  0  0  0  0  0  0  0  0
  -31.3883  -15.3795   24.3167 O   0  0  0  0  0  0  0  0  0  0  0  0
  -23.0641  -11.7730   24.0085 O   0  0  0  0  0  0  0  0  0  0  0  0
  -27.9077  -19.4015   16.7938 O   0  0  0  0  0  0  0  0  0  0  0  0
  -21.9752  -27.8494   23.4391 O   0  0  0  0  0  0  0  0  0  0  0  0
  -29.8347  -11.8434   22.2151 O   0  0  0  0  0  0  0  0  0  1  0  0
  -16.7476  -27.2508   21.7904 F   0  0  0  0  0  0  0  0  0  0  0  0
  -20.2887  -30.0318   23.2505 F   0  0  0  0  0  0  0  0  0  0  0  0
  -29.4993  -19.4658   21.1477 S   0  0  0  0  0  0  0  0  0  0  0  0
  1  2  1  0  0  0  0
  1  5  2  0  0  0  0
  2  6  2  0  0  0  0
  3  8  2  0  0  0  0
  3 16  1  0  0  0  0
  4  9  1  0  0  0  0
  4 16  2  0  0  0  0
  5 18  1  0  0  0  0
  6 20  1  0  0  0  0
  7 10  2  0  0  0  0
  7 19  1  0  0  0  0
  8 22  1  0  0  0  0
  9 22  2  0  0  0  0
 10 23  1  0  0  0  0
 11 12  2  0  0  0  0
 11 24  1  0  0  0  0
 12 25  1  0  0  0  0
 13 21  1  0  0  0  0
 13 23  2  0  0  0  0
 14 25  2  0  0  0  0
 14 26  1  0  0  0  0
 15 29  2  0  0  0  0
 15 63  1  0  0  0  0
 16 27  1  0  0  0  0
 17 27  1  0  0  0  0
 17 28  2  0  0  0  0
 17 31  1  0  0  0  0
 18 20  2  0  0  0  0
 18 37  1  0  0  0  0
 19 21  2  0  0  0  0
 19 38  1  0  0  0  0
 20 46  1  0  0  0  0
 21 39  1  0  0  0  0
 22 81  1  0  0  0  0
 23 82  1  0  0  0  0
 24 26  2  0  0  0  0
 24 81  1  0  0  0  0
 25 83  1  0  0  0  0
 26 84  1  0  0  0  0
 27 64  2  0  0  0  0
 28 65  1  0  0  0  0
 28 68  1  0  0  0  0
 29 70  1  0  0  0  0
 29 85  1  0  0  0  0
 30 58  1  0  0  0  0
 30 63  2  0  0  0  0
 30 85  1  0  0  0  0
 31 69  1  0  0  0  0
 31 75  2  0  0  0  0
 32 47  1  0  0  0  0
 32 71  1  0  0  0  0
 32 76  2  0  0  0  0
 33 59  1  0  0  0  0
 33 66  1  0  0  0  0
 33 77  2  0  0  0  0
 34 56  1  0  0  0  0
 34 72  1  0  0  0  0
 34 78  2  0  0  0  0
 35 60  1  0  0  0  0
 35 73  1  0  0  0  0
 35 79  2  0  0  0  0
 36 67  1  0  0  0  0
 36 70  1  0  0  0  0
 36 80  2  0  0  0  0
 37 40  1  0  0  0  0
 38 47  1  0  0  0  0
 39 66  1  0  0  0  0
 40 42  1  0  0  0  0
 41 43  1  0  0  0  0
 41 44  1  0  0  0  0
 42 46  1  0  0  0  0
 43 48  1  0  0  0  0
 44 67  1  0  0  0  0
 45 48  1  0  0  0  0
 45 67  1  0  0  0  0
 46 71  1  0  0  0  0
 47 66  1  0  0  0  0
 48 65  1  0  0  0  0
 49 58  1  0  0  0  0
 50 60  1  0  0  0  0
 51 61  1  0  0  0  0
 52 62  1  0  0  0  0
 53 62  1  0  0  0  0
 54 62  1  0  0  0  0
 55 74  1  0  0  0  0
 56 57  1  0  0  0  0
 57 61  1  0  0  0  0
 58 72  1  0  0  0  0
 59 62  1  0  0  0  0
 59 73  1  0  0  0  0
 60 74  1  0  0  0  0
 61 82  1  0  0  0  0
 64 65  1  0  0  0  0
M  CHG  1  74   1
M  ISO  4  36 100  61 101  70 100  82 101
M  END
> <Batch ID>
0174

> <Smiles>
CNC(C)C(=O)NC(C(=O)N1Cc2cc([101O:1][101CH:1](C)CCC(=O)NC(C)c3ncc([100NH:0][100C:0](=O)N4CCCC(n5nc(-c6ccc(Oc7ccc(F)cc7F)cc6)c(C(N)=O)c5N)C4)s3)ccc2CC1C(=O)NC1CCCc2ccccc21)C(C)(C)C

> <Shape>
0.237

> <Color>
0.063

> <Negative vol penalty>
0.000

$$$$

  -OEChem-04052304333D

 89 97  0     1  0  0  0  0  0999 V2000
  -36.9948  -13.4198   24.1317 C   0  0  0  0  0  0  0  0  0  0  0  0
  -36.4070  -14.6361   23.7996 C   0  0  0  0  0  0  0  0  0  0  0  0
  -20.0741  -24.3131   21.3187 C   0  0  0  0  0  0  0  0  0  0  0  0
  -20.8676  -24.3585   23.6003 C   0  0  0  0  0  0  0  0  0  0  0  0
  -36.5615  -12.2463   23.5161 C   0  0  0  0  0  0  0  0  0  0  0  0
  -35.3861  -14.6799   22.8508 C   0  0  0  0  0  0  0  0  0  0  0  0
  -30.5457  -18.4315   22.8213 C   0  0  0  0  0  0  0  0  0  0  0  0
  -20.6548  -23.0573   21.1417 C   0  0  0  0  0  0  0  0  0  0  0  0
  -21.4483  -23.1027   23.4233 C   0  0  0  0  0  0  0  0  0  0  0  0
  -30.2866  -19.6230   22.1454 C   0  0  0  0  0  0  0  0  0  0  0  0
  -23.4480  -20.0680   23.4635 C   0  0  0  0  0  0  0  0  0  0  0  0
  -24.7444  -19.8799   23.9426 C   0  0  0  0  0  0  0  0  0  0  0  0
  -26.0310  -27.5951   21.2486 C   0  0  0  0  0  0  0  0  0  0  0  0
  -29.1128  -18.3909   20.4357 C   0  0  0  0  0  0  0  0  0  0  0  0
  -25.5375  -21.6371   22.4864 C   0  0  0  0  0  0  0  0  0  0  0  0
  -27.2388  -27.7358   19.3635 C   0  0  0  0  0  0  0  0  0  0  0  0
  -20.1805  -24.9637   22.5480 C   0  0  0  0  0  0  0  0  0  0  0  0
  -27.2007  -27.1424   20.6049 C   0  0  0  0  0  0  0  0  0  0  0  0
  -18.2761  -26.5391   23.1799 C   0  0  0  0  0  0  0  0  0  0  0  0
  -35.5281  -12.2744   22.5663 C   0  0  0  0  0  0  0  0  0  0  0  0
  -30.0989  -17.2075   22.3030 C   0  0  0  0  0  0  0  0  0  0  0  0
  -34.9394  -13.5058   22.2209 C   0  0  0  0  0  0  0  0  0  0  0  0
  -29.3653  -17.1855   21.1082 C   0  0  0  0  0  0  0  0  0  0  0  0
  -21.3419  -22.4521   22.1940 C   0  0  0  0  0  0  0  0  0  0  0  0
  -29.5725  -19.6026   20.9509 C   0  0  0  0  0  0  0  0  0  0  0  0
  -23.1963  -21.0406   22.4958 C   0  0  0  0  0  0  0  0  0  0  0  0
  -25.7892  -20.6644   23.4541 C   0  0  0  0  0  0  0  0  0  0  0  0
  -24.2411  -21.8251   22.0073 C   0  0  0  0  0  0  0  0  0  0  0  0
  -19.5812  -26.2612   22.7313 C   0  0  0  0  0  0  0  0  0  0  0  0
  -25.3890  -28.4508   20.3806 C   0  0  0  0  0  0  0  0  0  0  0  0
  -18.1980  -27.9104   23.1806 C   0  0  0  0  0  0  0  0  0  0  0  0
  -28.2291  -26.2047   21.1248 C   0  0  0  0  0  0  0  0  0  0  0  0
  -17.2281  -25.6383   23.5618 C   0  0  0  0  0  0  0  0  0  0  0  0
  -31.5165  -14.5464   21.2968 C   0  0  0  0  0  0  0  0  0  0  0  0
  -31.3128  -24.8939   19.9781 C   0  0  0  0  0  0  0  0  0  0  0  0
  -29.4591  -23.1666   20.0182 C   0  0  0  0  0  0  0  0  0  0  0  0
  -25.8382  -29.3040   18.0723 C   0  0  0  0  0  0  0  0  0  0  0  0
  -28.4651  -13.4684   21.0753 C   0  0  0  0  0  0  0  0  0  0  0  0
  -25.1504  -14.2039   20.7313 C   0  0  0  0  0  0  0  0  0  0  0  0
  -23.3786  -29.0837   21.7759 C   0  0  0  0  0  0  0  0  0  0  0  0
  -35.1258  -10.9862   21.8930 C   0  0  0  0  0  0  0  0  0  0  0  0
  -30.3636  -15.9338   23.0580 C   0  0  0  0  0  0  0  0  0  0  0  0
  -28.8461  -15.8998   20.5201 C   0  0  0  0  0  0  0  0  0  0  0  0
  -33.7826  -11.0691   21.1724 C   0  0  0  0  0  0  0  0  0  0  0  0
  -20.4660  -31.3523   20.6639 C   0  0  0  0  0  0  0  0  0  0  0  0
  -33.7047  -12.3405   20.3332 C   0  0  0  0  0  0  0  0  0  0  0  0
  -19.4513  -30.3416   21.1832 C   0  0  0  0  0  0  0  0  0  0  0  0
  -21.8431  -30.7053   20.5432 C   0  0  0  0  0  0  0  0  0  0  0  0
  -21.3504  -29.9993   22.8865 C   0  0  0  0  0  0  0  0  0  0  0  0
  -33.8124  -13.5908   21.2146 C   0  0  1  0  0  0  0  0  0  0  0  0
  -30.3052  -14.6920   22.1738 C   0  0  1  0  0  0  0  0  0  0  0  0
  -19.8550  -29.7957   22.5675 C   0  0  2  0  0  0  0  0  0  0  0  0
  -32.5432  -24.5298   20.7698 C   0  0  0  0  0  0  0  0  0  0  0  0
  -26.8313  -29.2049   16.9546 C   0  0  0  0  0  0  0  0  0  0  0  0
  -22.8991  -13.1110   20.5446 C   0  0  0  0  0  0  0  0  0  0  0  0
  -29.0743  -12.7133   18.1825 C   0  0  0  0  0  0  0  0  0  0  0  0
  -26.6093  -12.5305   17.7843 C   0  0  0  0  0  0  0  0  0  0  0  0
  -27.7187  -11.0274   19.4373 C   0  0  0  0  0  0  0  0  0  0  0  0
  -24.1771  -15.5221   23.1959 C   0  0  0  0  0  0  0  0  0  0  0  0
  -29.8137  -21.9673   20.8750 C   0  0  0  0  0  0  0  0  0  1  0  0
  -29.9427  -24.5161   20.5182 C   0  0  2  0  0  0  0  0  0  0  0  0
  -27.4053  -13.4722   20.0003 C   0  0  1  0  0  0  0  0  0  0  0  0
  -23.9269  -13.7176   21.4871 C   0  0  2  0  0  0  0  0  0  0  0  0
  -27.7132  -12.4600   18.8609 C   0  0  0  0  0  0  0  0  0  0  0  0
  -20.2818  -27.3671   22.4662 N   0  0  0  0  0  0  0  0  0  0  0  0
  -26.1258  -28.5447   19.2152 N   0  0  0  0  0  0  0  0  0  0  0  0
  -19.4136  -28.3532   22.7489 N   0  0  0  0  0  0  0  0  0  0  0  0
  -29.1360  -14.6803   21.2922 N   0  0  0  0  0  0  0  0  0  0  0  0
  -22.2130  -29.8872   21.7075 N   0  0  0  0  0  0  0  0  0  0  0  0
  -17.2088  -28.7685   23.5083 N   0  0  0  0  0  0  0  0  0  0  0  0
  -17.4768  -24.2603   23.5020 N   0  0  0  0  0  0  0  0  0  0  0  0
  -24.1707  -29.1332   20.6257 N   0  0  0  0  0  0  0  0  0  0  0  0
  -28.9348  -25.4788   20.1715 N   0  0  0  0  0  0  0  0  0  0  0  0
  -32.5548  -13.8478   21.8830 N   0  0  0  0  0  0  0  0  0  0  0  0
  -26.1348  -13.2398   20.6787 N   0  0  0  0  0  0  0  0  0  0  0  0
  -23.2860  -14.8477   22.2171 N   0  3  0  0  0  0  0  0  0  0  0  0
  -28.3890  -26.1023   22.3382 O   0  0  0  0  0  0  0  0  0  0  0  0
  -16.0991  -26.0430   23.9292 O   0  0  0  0  0  0  0  0  0  0  0  0
  -31.5092  -15.0306   20.1711 O   0  0  0  0  0  0  0  0  0  0  0  0
  -31.4214  -25.4540   18.8843 O   0  0  0  0  0  0  0  0  0  0  0  0
  -28.8423  -23.0484   18.9591 O   0  0  0  0  0  0  0  0  0  0  0  0
  -24.8227  -29.9852   18.0477 O   0  0  0  0  0  0  0  0  0  0  0  0
  -28.6845  -12.4303   21.7045 O   0  0  0  0  0  0  0  0  0  0  0  0
  -25.2238  -15.3253   20.2339 O   0  0  0  0  0  0  0  0  0  0  0  0
  -23.6460  -28.4142   22.7759 O   0  0  0  0  0  0  0  0  0  0  0  0
  -21.9086  -21.2267   22.0217 O   0  0  0  0  0  0  0  0  0  0  0  0
  -29.3188  -20.7641   20.2888 O   0  0  0  0  0  0  0  0  0  1  0  0
  -27.0338  -20.4848   23.9154 F   0  0  0  0  0  0  0  0  0  0  0  0
  -24.0052  -22.7619   21.0784 F   0  0  0  0  0  0  0  0  0  0  0  0
  1  2  1  0  0  0  0
  1  5  2  0  0  0  0
  2  6  2  0  0  0  0
  3  8  2  0  0  0  0
  3 17  1  0  0  0  0
  4  9  1  0  0  0  0
  4 17  2  0  0  0  0
  5 20  1  0  0  0  0
  6 22  1  0  0  0  0
  7 10  2  0  0  0  0
  7 21  1  0  0  0  0
  8 24  1  0  0  0  0
  9 24  2  0  0  0  0
 10 25  1  0  0  0  0
 11 12  2  0  0  0  0
 11 26  1  0  0  0  0
 12 27  1  0  0  0  0
 13 18  1  0  0  0  0
 13 30  2  0  0  0  0
 14 23  1  0  0  0  0
 14 25  2  0  0  0  0
 15 27  2  0  0  0  0
 15 28  1  0  0  0  0
 16 18  2  0  0  0  0
 16 66  1  0  0  0  0
 17 29  1  0  0  0  0
 18 32  1  0  0  0  0
 19 29  1  0  0  0  0
 19 31  2  0  0  0  0
 19 33  1  0  0  0  0
 20 22  2  0  0  0  0
 20 41  1  0  0  0  0
 21 23  2  0  0  0  0
 21 42  1  0  0  0  0
 22 50  1  0  0  0  0
 23 43  1  0  0  0  0
 24 86  1  0  0  0  0
 25 87  1  0  0  0  0
 26 28  2  0  0  0  0
 26 86  1  0  0  0  0
 27 88  1  0  0  0  0
 28 89  1  0  0  0  0
 29 65  2  0  0  0  0
 30 66  1  0  0  0  0
 30 72  1  0  0  0  0
 31 67  1  0  0  0  0
 31 70  1  0  0  0  0
 32 73  1  0  0  0  0
 32 77  2  0  0  0  0
 33 71  1  0  0  0  0
 33 78  2  0  0  0  0
 34 51  1  0  0  0  0
 34 74  1  0  0  0  0
 34 79  2  0  0  0  0
 35 53  1  0  0  0  0
 35 61  1  0  0  0  0
 35 80  2  0  0  0  0
 36 60  1  0  0  0  0
 36 61  1  0  0  0  0
 36 81  2  0  0  0  0
 37 54  1  0  0  0  0
 37 66  1  0  0  0  0
 37 82  2  0  0  0  0
 38 62  1  0  0  0  0
 38 68  1  0  0  0  0
 38 83  2  0  0  0  0
 39 63  1  0  0  0  0
 39 75  1  0  0  0  0
 39 84  2  0  0  0  0
 40 69  1  0  0  0  0
 40 72  1  0  0  0  0
 40 85  2  0  0  0  0
 41 44  1  0  0  0  0
 42 51  1  0  0  0  0
 43 68  1  0  0  0  0
 44 46  1  0  0  0  0
 45 47  1  0  0  0  0
 45 48  1  0  0  0  0
 46 50  1  0  0  0  0
 47 52  1  0  0  0  0
 48 69  1  0  0  0  0
 49 52  1  0  0  0  0
 49 69  1  0  0  0  0
 50 74  1  0  0  0  0
 51 68  1  0  0  0  0
 52 67  1  0  0  0  0
 55 63  1  0  0  0  0
 56 64  1  0  0  0  0
 57 64  1  0  0  0  0
 58 64  1  0  0  0  0
 59 76  1  0  0  0  0
 60 87  1  0  0  0  0
 61 73  1  0  0  0  0
 62 64  1  0  0  0  0
 62 75  1  0  0  0  0
 63 76  1  0  0  0  0
 65 67  1  0  0  0  0
M  CHG  1  76   1
M  ISO  4  40 100  60 101  72 100  87 101
M  END
> <Batch ID>
0174

> <Smiles>
CNC(C)C(=O)NC(C(=O)N1Cc2cc([101O:1][101CH2:1]C(=O)C(NC(=O)c3cc([100NH:0][100C:0](=O)N4CCCC(n5nc(-c6ccc(Oc7ccc(F)cc7F)cc6)c(C(N)=O)c5N)C4)n(C(C)=O)c3)C(C)=O)ccc2CC1C(=O)NC1CCCc2ccccc21)C(C)(C)C

> <Shape>
0.270

> <Color>
0.114

> <Negative vol penalty>
0.000

$$$$

  -OEChem-04052304333D

 88 96  0     1  0  0  0  0  0999 V2000
  -16.5342  -25.6687   24.2581 C   0  0  0  0  0  0  0  0  0  0  0  0
  -17.0801  -24.8819   23.2490 C   0  0  0  0  0  0  0  0  0  0  0  0
  -25.3591  -13.8656   21.5680 C   0  0  0  0  0  0  0  0  0  0  0  0
  -26.9372  -13.4893   19.7777 C   0  0  0  0  0  0  0  0  0  0  0  0
  -16.9257  -27.0002   24.3911 C   0  0  0  0  0  0  0  0  0  0  0  0
  -18.0171  -25.4265   22.3716 C   0  0  0  0  0  0  0  0  0  0  0  0
  -23.8184  -23.6235   18.5754 C   0  0  0  0  0  0  0  0  0  0  0  0
  -24.5551  -12.8378   21.0754 C   0  0  0  0  0  0  0  0  0  0  0  0
  -26.1332  -12.4615   19.2851 C   0  0  0  0  0  0  0  0  0  0  0  0
  -24.3179  -23.6885   17.2754 C   0  0  0  0  0  0  0  0  0  0  0  0
  -24.5130   -9.4574   21.1440 C   0  0  0  0  0  0  0  0  0  0  0  0
  -23.9995   -8.5401   22.0606 C   0  0  0  0  0  0  0  0  0  0  0  0
  -24.9780  -25.9783   17.6500 C   0  0  0  0  0  0  0  0  0  0  0  0
  -29.7588  -21.7920   16.1873 C   0  0  0  0  0  0  0  0  0  0  0  0
  -30.8638  -19.6436   16.1932 C   0  0  0  0  0  0  0  0  0  0  0  0
  -21.7532   -9.1529   21.4157 C   0  0  0  0  0  0  0  0  0  0  0  0
  -26.5501  -14.1914   20.9192 C   0  0  0  0  0  0  0  0  0  0  0  0
  -28.4220  -15.1422   22.3682 C   0  0  0  0  0  0  0  0  0  0  0  0
  -17.8751  -27.5587   23.5209 C   0  0  0  0  0  0  0  0  0  0  0  0
  -23.8853  -24.7407   19.4203 C   0  0  0  0  0  0  0  0  0  0  0  0
  -18.4207  -26.7671   22.4923 C   0  0  0  0  0  0  0  0  0  0  0  0
  -24.4810  -25.9241   18.9611 C   0  0  0  0  0  0  0  0  0  0  0  0
  -30.2104  -22.0208   14.8876 C   0  0  0  0  0  0  0  0  0  0  0  0
  -30.0855  -20.6034   16.8401 C   0  0  0  0  0  0  0  0  0  0  0  0
  -24.9421  -12.1357   19.9339 C   0  0  0  0  0  0  0  0  0  0  0  0
  -24.8952  -24.8669   16.8115 C   0  0  0  0  0  0  0  0  0  0  0  0
  -23.6466  -10.2227   20.3632 C   0  0  0  0  0  0  0  0  0  0  0  0
  -22.6196   -8.3877   22.1965 C   0  0  0  0  0  0  0  0  0  0  0  0
  -31.3155  -19.8723   14.8934 C   0  0  0  0  0  0  0  0  0  0  0  0
  -22.2668  -10.0704   20.4990 C   0  0  0  0  0  0  0  0  0  0  0  0
  -30.9888  -21.0610   14.2406 C   0  0  0  0  0  0  0  0  0  0  0  0
  -27.3808  -15.2535   21.4273 C   0  0  0  0  0  0  0  0  0  0  0  0
  -28.8927  -16.4245   22.5126 C   0  0  0  0  0  0  0  0  0  0  0  0
  -31.0918  -24.1091   13.8393 C   0  0  0  0  0  0  0  0  0  0  0  0
  -28.9193  -13.9835   23.0507 C   0  0  0  0  0  0  0  0  0  0  0  0
  -21.7435  -26.5747   20.8876 C   0  0  0  0  0  0  0  0  0  0  0  0
  -26.9708  -24.0189   13.9588 C   0  0  0  0  0  0  0  0  0  0  0  0
  -24.3793  -27.9047   22.2315 C   0  0  0  0  0  0  0  0  0  0  0  0
  -27.7283  -28.5315   22.0359 C   0  0  0  0  0  0  0  0  0  0  0  0
  -28.8434  -21.2171   18.9442 C   0  0  0  0  0  0  0  0  0  0  0  0
  -18.2319  -29.0160   23.6744 C   0  0  0  0  0  0  0  0  0  0  0  0
  -23.3660  -24.6460   20.8288 C   0  0  0  0  0  0  0  0  0  0  0  0
  -24.5954  -27.1453   19.8353 C   0  0  0  0  0  0  0  0  0  0  0  0
  -19.5089  -29.4114   22.9374 C   0  0  0  0  0  0  0  0  0  0  0  0
  -27.4740  -20.9893   22.2229 C   0  0  0  0  0  0  0  0  0  0  0  0
  -19.5037  -28.8474   21.5201 C   0  0  0  0  0  0  0  0  0  0  0  0
  -27.3951  -19.4825   22.4789 C   0  0  0  0  0  0  0  0  0  0  0  0
  -27.1600  -21.3346   20.7683 C   0  0  0  0  0  0  0  0  0  0  0  0
  -27.8730  -19.0957   20.0276 C   0  0  0  0  0  0  0  0  0  0  0  0
  -19.4583  -27.3147   21.5364 C   0  0  1  0  0  0  0  0  0  0  0  0
  -23.0228  -26.0047   21.4317 C   0  0  1  0  0  0  0  0  0  0  0  0
  -28.2450  -18.6931   21.4640 C   0  0  2  0  0  0  0  0  0  0  0  0
  -26.8901  -22.4788   11.9543 C   0  0  0  0  0  0  0  0  0  0  0  0
  -29.5936  -29.6741   23.2657 C   0  0  0  0  0  0  0  0  0  0  0  0
  -23.3452  -30.6127   21.2790 C   0  0  0  0  0  0  0  0  0  0  0  0
  -25.6339  -31.5475   21.6743 C   0  0  0  0  0  0  0  0  0  0  0  0
  -24.3209  -30.6198   23.5817 C   0  0  0  0  0  0  0  0  0  0  0  0
  -29.2213  -25.9970   22.3620 C   0  0  0  0  0  0  0  0  0  0  0  0
  -25.8840  -23.7236   14.9755 C   0  0  0  0  0  0  0  0  0  1  0  0
  -29.8565  -23.3087   14.1840 C   0  0  1  0  0  0  0  0  0  0  0  0
  -27.5875  -22.8168   13.2627 C   0  0  1  0  0  0  0  0  0  0  0  0
  -25.3059  -29.0405   21.8706 C   0  0  1  0  0  0  0  0  0  0  0  0
  -28.8447  -28.3680   23.0515 C   0  0  2  0  0  0  0  0  0  0  0  0
  -24.6477  -30.4329   22.0841 C   0  0  0  0  0  0  0  0  0  0  0  0
  -27.2002  -16.5073   21.0039 N   0  0  0  0  0  0  0  0  0  0  0  0
  -28.1342  -17.1957   21.6820 N   0  0  0  0  0  0  0  0  0  0  0  0
  -24.0675  -27.0049   21.2024 N   0  0  0  0  0  0  0  0  0  0  0  0
  -28.0060  -20.5520   19.8646 N   0  0  0  0  0  0  0  0  0  0  0  0
  -29.8773  -16.9561   23.2678 N   0  0  0  0  0  0  0  0  0  0  0  0
  -28.3215  -12.7439   22.7852 N   0  0  0  0  0  0  0  0  0  0  0  0
  -29.6257  -20.3700   18.1599 N   0  0  0  0  0  0  0  0  0  0  0  0
  -20.7651  -26.7736   21.8429 N   0  0  0  0  0  0  0  0  0  0  0  0
  -26.5267  -28.8322   22.6418 N   0  0  0  0  0  0  0  0  0  0  0  0
  -29.8181  -27.3382   22.5900 N   0  3  0  0  0  0  0  0  0  0  0  0
  -29.0212  -23.0910   12.9737 N   0  3  0  0  0  0  0  0  0  0  0  0
  -31.4234  -24.4198   12.6994 O   0  0  0  0  0  0  0  0  0  0  0  0
  -29.8548  -14.0481   23.8838 O   0  0  0  0  0  0  0  0  0  0  0  0
  -21.6514  -26.8176   19.6900 O   0  0  0  0  0  0  0  0  0  0  0  0
  -27.3408  -25.1696   13.7262 O   0  0  0  0  0  0  0  0  0  0  0  0
  -23.9537  -27.8148   23.3859 O   0  0  0  0  0  0  0  0  0  0  0  0
  -27.9053  -28.4087   20.8259 O   0  0  0  0  0  0  0  0  0  0  0  0
  -28.8850  -22.4482   18.8769 O   0  0  0  0  0  0  0  0  0  0  0  0
  -24.1580  -11.1325   19.4530 O   0  0  0  0  0  0  0  0  0  0  0  0
  -25.3829  -24.9333   15.5428 O   0  0  0  0  0  0  0  0  0  1  0  0
  -22.1266   -7.5056   23.0757 F   0  0  0  0  0  0  0  0  0  0  0  0
  -32.0628  -18.9507   14.2721 F   0  0  0  0  0  0  0  0  0  0  0  0
  -21.4295  -10.8018   19.7508 F   0  0  0  0  0  0  0  0  0  0  0  0
  -31.4281  -21.2721   12.9921 F   0  0  0  0  0  0  0  0  0  0  0  0
  1  2  1  0  0  0  0
  1  5  2  0  0  0  0
  2  6  2  0  0  0  0
  3  8  2  0  0  0  0
  3 17  1  0  0  0  0
  4  9  1  0  0  0  0
  4 17  2  0  0  0  0
  5 19  1  0  0  0  0
  6 21  1  0  0  0  0
  7 10  2  0  0  0  0
  7 20  1  0  0  0  0
  8 25  1  0  0  0  0
  9 25  2  0  0  0  0
 10 26  1  0  0  0  0
 11 12  2  0  0  0  0
 11 27  1  0  0  0  0
 12 28  1  0  0  0  0
 13 22  1  0  0  0  0
 13 26  2  0  0  0  0
 14 23  1  0  0  0  0
 14 24  2  0  0  0  0
 15 24  1  0  0  0  0
 15 29  2  0  0  0  0
 16 28  2  0  0  0  0
 16 30  1  0  0  0  0
 17 32  1  0  0  0  0
 18 32  1  0  0  0  0
 18 33  2  0  0  0  0
 18 35  1  0  0  0  0
 19 21  2  0  0  0  0
 19 41  1  0  0  0  0
 20 22  2  0  0  0  0
 20 42  1  0  0  0  0
 21 50  1  0  0  0  0
 22 43  1  0  0  0  0
 23 31  2  0  0  0  0
 23 60  1  0  0  0  0
 24 71  1  0  0  0  0
 25 83  1  0  0  0  0
 26 84  1  0  0  0  0
 27 30  2  0  0  0  0
 27 83  1  0  0  0  0
 28 85  1  0  0  0  0
 29 31  1  0  0  0  0
 29 86  1  0  0  0  0
 30 87  1  0  0  0  0
 31 88  1  0  0  0  0
 32 65  2  0  0  0  0
 33 66  1  0  0  0  0
 33 69  1  0  0  0  0
 34 60  1  0  0  0  0
 34 76  2  0  0  0  0
 35 70  1  0  0  0  0
 35 77  2  0  0  0  0
 36 51  1  0  0  0  0
 36 72  1  0  0  0  0
 36 78  2  0  0  0  0
 37 59  1  0  0  0  0
 37 61  1  0  0  0  0
 37 79  2  0  0  0  0
 38 62  1  0  0  0  0
 38 67  1  0  0  0  0
 38 80  2  0  0  0  0
 39 63  1  0  0  0  0
 39 73  1  0  0  0  0
 39 81  2  0  0  0  0
 40 68  1  0  0  0  0
 40 71  1  0  0  0  0
 40 82  2  0  0  0  0
 41 44  1  0  0  0  0
 42 51  1  0  0  0  0
 43 67  1  0  0  0  0
 44 46  1  0  0  0  0
 45 47  1  0  0  0  0
 45 48  1  0  0  0  0
 46 50  1  0  0  0  0
 47 52  1  0  0  0  0
 48 68  1  0  0  0  0
 49 52  1  0  0  0  0
 49 68  1  0  0  0  0
 50 72  1  0  0  0  0
 51 67  1  0  0  0  0
 52 66  1  0  0  0  0
 53 61  1  0  0  0  0
 54 63  1  0  0  0  0
 55 64  1  0  0  0  0
 56 64  1  0  0  0  0
 57 64  1  0  0  0  0
 58 74  1  0  0  0  0
 59 84  1  0  0  0  0
 60 75  1  0  0  0  0
 61 75  1  0  0  0  0
 62 64  1  0  0  0  0
 62 73  1  0  0  0  0
 63 74  1  0  0  0  0
 65 66  1  0  0  0  0
M  CHG  2  74   1  75   1
M  ISO  4  40 100  59 101  71 100  84 101
M  END
> <Batch ID>
0174

> <Smiles>
CNC(C)C(=O)NC(C(=O)N1Cc2cc([101O:1][101CH2:1]C(=O)C(C)NC(C=O)c3cc([100NH:0][100C:0](=O)N4CCCC(n5nc(-c6ccc(Oc7ccc(F)cc7F)cc6)c(C(N)=O)c5N)C4)cc(F)c3F)ccc2CC1C(=O)NC1CCCc2ccccc21)C(C)(C)C

> <Shape>
0.226

> <Color>
0.059

> <Negative vol penalty>
0.000

$$$$

  -OEChem-04052304333D

 89 97  0     1  0  0  0  0  0999 V2000
  -25.5675  -35.1233   23.5165 C   0  0  0  0  0  0  0  0  0  0  0  0
  -26.1677  -33.8835   23.3214 C   0  0  0  0  0  0  0  0  0  0  0  0
  -19.2308  -16.0382   20.9283 C   0  0  0  0  0  0  0  0  0  0  0  0
  -20.3761  -18.1294   21.3184 C   0  0  0  0  0  0  0  0  0  0  0  0
  -24.2169  -35.1971   23.8547 C   0  0  0  0  0  0  0  0  0  0  0  0
  -25.4179  -32.7167   23.4655 C   0  0  0  0  0  0  0  0  0  0  0  0
  -26.2628  -29.3921   19.7401 C   0  0  0  0  0  0  0  0  0  0  0  0
  -18.0951  -16.5419   21.5625 C   0  0  0  0  0  0  0  0  0  0  0  0
  -19.2404  -18.6331   21.9525 C   0  0  0  0  0  0  0  0  0  0  0  0
  -27.4342  -28.6396   19.8119 C   0  0  0  0  0  0  0  0  0  0  0  0
  -16.2510  -19.9241   21.0484 C   0  0  0  0  0  0  0  0  0  0  0  0
  -15.8454  -21.2170   20.7173 C   0  0  0  0  0  0  0  0  0  0  0  0
  -26.1768  -26.7768   20.6882 C   0  0  0  0  0  0  0  0  0  0  0  0
  -16.1151  -21.8918   23.0214 C   0  0  0  0  0  0  0  0  0  0  0  0
  -29.6497  -20.1961   19.4680 C   0  0  0  0  0  0  0  0  0  0  0  0
  -20.3713  -16.8320   20.8063 C   0  0  0  0  0  0  0  0  0  0  0  0
  -21.8615  -16.3942   18.7827 C   0  0  0  0  0  0  0  0  0  0  0  0
  -23.4478  -34.0309   23.9935 C   0  0  0  0  0  0  0  0  0  0  0  0
  -25.0392  -28.8454   20.1529 C   0  0  0  0  0  0  0  0  0  0  0  0
  -24.0561  -32.7749   23.8072 C   0  0  0  0  0  0  0  0  0  0  0  0
  -24.9908  -27.5236   20.6183 C   0  0  0  0  0  0  0  0  0  0  0  0
  -29.5609  -21.0041   20.5901 C   0  0  0  0  0  0  0  0  0  0  0  0
  -29.4477  -18.9973   21.9109 C   0  0  0  0  0  0  0  0  0  0  0  0
  -18.0999  -17.8394   22.0745 C   0  0  0  0  0  0  0  0  0  0  0  0
  -27.3918  -27.3327   20.2887 C   0  0  0  0  0  0  0  0  0  0  0  0
  -16.5886  -19.6151   22.3661 C   0  0  0  0  0  0  0  0  0  0  0  0
  -15.7775  -22.2008   21.7037 C   0  0  0  0  0  0  0  0  0  0  0  0
  -16.5206  -20.5989   23.3526 C   0  0  0  0  0  0  0  0  0  0  0  0
  -29.4582  -20.3854   21.8310 C   0  0  0  0  0  0  0  0  0  0  0  0
  -21.5450  -16.3120   20.1519 C   0  0  0  0  0  0  0  0  0  0  0  0
  -29.5414  -18.2792   20.7297 C   0  0  0  0  0  0  0  0  0  0  0  0
  -23.0713  -15.7535   18.6709 C   0  0  0  0  0  0  0  0  0  0  0  0
  -21.1278  -16.9961   17.7079 C   0  0  0  0  0  0  0  0  0  0  0  0
  -29.6545  -24.6257   19.5731 C   0  0  0  0  0  0  0  0  0  0  0  0
  -29.6714  -23.1475   19.3110 C   0  0  0  0  0  0  0  0  0  0  0  0
  -22.9144  -29.5507   22.4093 C   0  0  0  0  0  0  0  0  0  0  0  0
  -21.1972  -27.1986   20.9806 C   0  0  0  0  0  0  0  0  0  0  0  0
  -29.2436  -18.9566   24.4171 C   0  0  0  0  0  0  0  0  0  0  0  0
  -21.1856  -24.3820   19.0536 C   0  0  0  0  0  0  0  0  0  0  0  0
  -28.0189  -15.0060   21.5824 C   0  0  0  0  0  0  0  0  0  0  0  0
  -22.0029  -34.1591   24.4065 C   0  0  0  0  0  0  0  0  0  0  0  0
  -23.7802  -29.6612   20.0441 C   0  0  0  0  0  0  0  0  0  0  0  0
  -23.6993  -26.8832   21.0546 C   0  0  0  0  0  0  0  0  0  0  0  0
  -21.1877  -32.8899   24.1727 C   0  0  0  0  0  0  0  0  0  0  0  0
  -25.5360  -12.4598   21.4129 C   0  0  0  0  0  0  0  0  0  0  0  0
  -21.9453  -31.6675   24.6813 C   0  0  0  0  0  0  0  0  0  0  0  0
  -24.2832  -13.2012   20.9432 C   0  0  0  0  0  0  0  0  0  0  0  0
  -26.3794  -13.3169   22.3541 C   0  0  0  0  0  0  0  0  0  0  0  0
  -25.4890  -15.3864   21.3551 C   0  0  0  0  0  0  0  0  0  0  0  0
  -23.2700  -31.4876   23.9300 C   0  0  1  0  0  0  0  0  0  0  0  0
  -22.6722  -29.1769   20.9743 C   0  0  1  0  0  0  0  0  0  0  0  0
  -24.6350  -14.5828   20.3595 C   0  0  2  0  0  0  0  0  0  0  0  0
  -29.1516  -17.9225   25.5110 C   0  0  0  0  0  0  0  0  0  0  0  0
  -19.6340  -22.6622   18.0880 C   0  0  0  0  0  0  0  0  0  0  0  0
  -20.9513  -25.8841   23.7231 C   0  0  0  0  0  0  0  0  0  0  0  0
  -20.2547  -23.7730   22.5716 C   0  0  0  0  0  0  0  0  0  0  0  0
  -18.8621  -25.8307   22.3496 C   0  0  0  0  0  0  0  0  0  0  0  0
  -21.9425  -25.0873   16.2808 C   0  0  0  0  0  0  0  0  0  0  0  0
  -29.5361  -16.7848   20.7498 C   0  0  0  0  0  0  0  0  0  0  0  0
  -28.4063  -25.1833   20.2060 C   0  0  0  0  0  0  0  0  0  1  0  0
  -21.0845  -25.7029   21.1511 C   0  0  1  0  0  0  0  0  0  0  0  0
  -20.3447  -23.9861   17.8534 C   0  0  2  0  0  0  0  0  0  0  0  0
  -20.3130  -25.3101   22.4425 C   0  0  0  0  0  0  0  0  0  0  0  0
  -29.6426  -18.8448   19.5059 N   0  0  0  0  0  0  0  0  0  0  0  0
  -22.4782  -15.6695   20.8592 N   0  0  0  0  0  0  0  0  0  0  0  0
  -23.3930  -15.3421   19.9308 N   0  0  0  0  0  0  0  0  0  0  0  0
  -22.4964  -27.7237   20.9353 N   0  0  0  0  0  0  0  0  0  0  0  0
  -26.6797  -14.6127   21.7403 N   0  0  0  0  0  0  0  0  0  0  0  0
  -23.8805  -15.5074   17.6187 N   0  0  0  0  0  0  0  0  0  0  0  0
  -19.9027  -17.6121   17.9980 N   0  0  0  0  0  0  0  0  0  0  0  0
  -29.5746  -22.4136   20.4735 N   0  0  0  0  0  0  0  0  0  0  0  0
  -29.3450  -18.3656   23.1505 N   0  0  0  0  0  0  0  0  0  0  0  0
  -23.0359  -30.9104   22.6238 N   0  0  0  0  0  0  0  0  0  0  0  0
  -20.4872  -25.1956   19.9205 N   0  0  0  0  0  0  0  0  0  0  0  0
  -28.2154  -16.2456   20.9860 N   0  0  0  0  0  0  0  0  0  0  0  0
  -21.2021  -23.8510   16.6420 N   0  3  0  0  0  0  0  0  0  0  0  0
  -21.5382  -16.9735   16.5228 O   0  0  0  0  0  0  0  0  0  0  0  0
  -30.6371  -25.2704   19.2393 O   0  0  0  0  0  0  0  0  0  0  0  0
  -29.7907  -22.8002   18.1478 O   0  0  0  0  0  0  0  0  0  0  0  0
  -22.9844  -28.6707   23.2593 O   0  0  0  0  0  0  0  0  0  0  0  0
  -20.1704  -27.8753   20.8837 O   0  0  0  0  0  0  0  0  0  0  0  0
  -29.2224  -20.1543   24.6816 O   0  0  0  0  0  0  0  0  0  0  0  0
  -22.3447  -24.0040   19.2086 O   0  0  0  0  0  0  0  0  0  0  0  0
  -28.9691  -14.3022   21.9411 O   0  0  0  0  0  0  0  0  0  0  0  0
  -16.9918  -18.3313   22.6932 O   0  0  0  0  0  0  0  0  0  0  0  0
  -28.5339  -26.5962   20.3603 O   0  0  0  0  0  0  0  0  0  1  0  0
  -15.3895  -23.4426   21.3853 F   0  0  0  0  0  0  0  0  0  0  0  0
  -16.8448  -20.3083   24.6200 F   0  0  0  0  0  0  0  0  0  0  0  0
  -29.3695  -21.1259   22.9463 F   0  0  0  0  0  0  0  0  0  0  0  0
  1  2  1  0  0  0  0
  1  5  2  0  0  0  0
  2  6  2  0  0  0  0
  3  8  2  0  0  0  0
  3 16  1  0  0  0  0
  4  9  1  0  0  0  0
  4 16  2  0  0  0  0
  5 18  1  0  0  0  0
  6 20  1  0  0  0  0
  7 10  2  0  0  0  0
  7 19  1  0  0  0  0
  8 24  1  0  0  0  0
  9 24  2  0  0  0  0
 10 25  1  0  0  0  0
 11 12  2  0  0  0  0
 11 26  1  0  0  0  0
 12 27  1  0  0  0  0
 13 21  1  0  0  0  0
 13 25  2  0  0  0  0
 14 27  2  0  0  0  0
 14 28  1  0  0  0  0
 15 22  1  0  0  0  0
 15 64  2  0  0  0  0
 16 30  1  0  0  0  0
 17 30  1  0  0  0  0
 17 32  2  0  0  0  0
 17 33  1  0  0  0  0
 18 20  2  0  0  0  0
 18 41  1  0  0  0  0
 19 21  2  0  0  0  0
 19 42  1  0  0  0  0
 20 50  1  0  0  0  0
 21 43  1  0  0  0  0
 22 29  2  0  0  0  0
 22 71  1  0  0  0  0
 23 29  1  0  0  0  0
 23 31  2  0  0  0  0
 23 72  1  0  0  0  0
 24 85  1  0  0  0  0
 25 86  1  0  0  0  0
 26 28  2  0  0  0  0
 26 85  1  0  0  0  0
 27 87  1  0  0  0  0
 28 88  1  0  0  0  0
 29 89  1  0  0  0  0
 30 65  2  0  0  0  0
 31 59  1  0  0  0  0
 31 64  1  0  0  0  0
 32 66  1  0  0  0  0
 32 69  1  0  0  0  0
 33 70  1  0  0  0  0
 33 77  2  0  0  0  0
 34 35  1  0  0  0  0
 34 60  1  0  0  0  0
 34 78  2  0  0  0  0
 35 71  1  0  0  0  0
 35 79  2  0  0  0  0
 36 51  1  0  0  0  0
 36 73  1  0  0  0  0
 36 80  2  0  0  0  0
 37 61  1  0  0  0  0
 37 67  1  0  0  0  0
 37 81  2  0  0  0  0
 38 53  1  0  0  0  0
 38 72  1  0  0  0  0
 38 82  2  0  0  0  0
 39 62  1  0  0  0  0
 39 74  1  0  0  0  0
 39 83  2  0  0  0  0
 40 68  1  0  0  0  0
 40 75  1  0  0  0  0
 40 84  2  0  0  0  0
 41 44  1  0  0  0  0
 42 51  1  0  0  0  0
 43 67  1  0  0  0  0
 44 46  1  0  0  0  0
 45 47  1  0  0  0  0
 45 48  1  0  0  0  0
 46 50  1  0  0  0  0
 47 52  1  0  0  0  0
 48 68  1  0  0  0  0
 49 52  1  0  0  0  0
 49 68  1  0  0  0  0
 50 73  1  0  0  0  0
 51 67  1  0  0  0  0
 52 66  1  0  0  0  0
 54 62  1  0  0  0  0
 55 63  1  0  0  0  0
 56 63  1  0  0  0  0
 57 63  1  0  0  0  0
 58 76  1  0  0  0  0
 59 75  1  0  0  0  0
 60 86  1  0  0  0  0
 61 63  1  0  0  0  0
 61 74  1  0  0  0  0
 62 76  1  0  0  0  0
 65 66  1  0  0  0  0
M  CHG  1  76   1
M  ISO  4  40 100  60 101  75 100  86 101
M  END
> <Batch ID>
0174

> <Smiles>
CNC(C)C(=O)NC(C(=O)N1Cc2cc([101O:1][101CH2:1]C(=O)C(=O)Nc3cnc(C[100NH:0][100C:0](=O)N4CCCC(n5nc(-c6ccc(Oc7ccc(F)cc7F)cc6)c(C(N)=O)c5N)C4)c(NC(C)=O)c3F)ccc2CC1C(=O)NC1CCCc2ccccc21)C(C)(C)C

> <Shape>
0.226

> <Color>
0.080

> <Negative vol penalty>
0.000

$$$$

  -OEChem-04052304333D

 93101  0     1  0  0  0  0  0999 V2000
  -25.4604  -33.5933   28.6819 C   0  0  0  0  0  0  0  0  0  0  0  0
  -24.9507  -34.0762   27.4809 C   0  0  0  0  0  0  0  0  0  0  0  0
  -23.7514   -9.7780   22.2851 C   0  0  0  0  0  0  0  0  0  0  0  0
  -23.0570   -9.7327   19.9715 C   0  0  0  0  0  0  0  0  0  0  0  0
  -26.6042  -32.7959   28.6820 C   0  0  0  0  0  0  0  0  0  0  0  0
  -25.5851  -33.7628   26.2793 C   0  0  0  0  0  0  0  0  0  0  0  0
  -22.0696  -30.3220   21.0168 C   0  0  0  0  0  0  0  0  0  0  0  0
  -23.5592   -8.3991   22.3698 C   0  0  0  0  0  0  0  0  0  0  0  0
  -22.8649   -8.3538   20.0561 C   0  0  0  0  0  0  0  0  0  0  0  0
  -21.4055  -29.8536   19.8829 C   0  0  0  0  0  0  0  0  0  0  0  0
  -20.9635   -6.2635   22.7243 C   0  0  0  0  0  0  0  0  0  0  0  0
  -20.2964   -5.7705   23.8457 C   0  0  0  0  0  0  0  0  0  0  0  0
  -23.4862  -29.8553   18.6506 C   0  0  0  0  0  0  0  0  0  0  0  0
  -23.2780  -21.5103   16.5152 C   0  0  0  0  0  0  0  0  0  0  0  0
  -23.5774  -19.1950   17.1369 C   0  0  0  0  0  0  0  0  0  0  0  0
  -21.8096  -20.4974   18.1445 C   0  0  0  0  0  0  0  0  0  0  0  0
  -22.2373   -4.4514   24.4203 C   0  0  0  0  0  0  0  0  0  0  0  0
  -23.5002  -10.4449   21.0860 C   0  0  0  0  0  0  0  0  0  0  0  0
  -24.8783  -12.5427   20.6304 C   0  0  0  0  0  0  0  0  0  0  0  0
  -27.2474  -32.4647   27.4790 C   0  0  0  0  0  0  0  0  0  0  0  0
  -23.4489  -30.5445   20.9763 C   0  0  0  0  0  0  0  0  0  0  0  0
  -26.7393  -32.9614   26.2635 C   0  0  0  0  0  0  0  0  0  0  0  0
  -24.1589  -30.3125   19.7868 C   0  0  0  0  0  0  0  0  0  0  0  0
  -23.9671  -20.3044   16.3866 C   0  0  0  0  0  0  0  0  0  0  0  0
  -22.1993  -21.6068   17.3942 C   0  0  0  0  0  0  0  0  0  0  0  0
  -22.4986  -19.2914   18.0159 C   0  0  0  0  0  0  0  0  0  0  0  0
  -23.1160   -7.6869   21.2553 C   0  0  0  0  0  0  0  0  0  0  0  0
  -22.1121  -29.6210   18.7027 C   0  0  0  0  0  0  0  0  0  0  0  0
  -22.2674   -5.8504   22.4508 C   0  0  0  0  0  0  0  0  0  0  0  0
  -20.9333   -4.8645   24.6937 C   0  0  0  0  0  0  0  0  0  0  0  0
  -22.9043   -4.9444   23.2989 C   0  0  0  0  0  0  0  0  0  0  0  0
  -23.6980  -11.8694   20.9980 C   0  0  0  0  0  0  0  0  0  0  0  0
  -24.5504  -13.8746   20.7018 C   0  0  0  0  0  0  0  0  0  0  0  0
  -26.1569  -12.0117   20.2576 C   0  0  0  0  0  0  0  0  0  0  0  0
  -19.9440  -24.5016   18.2175 C   0  0  0  0  0  0  0  0  0  0  0  0
  -20.4252  -23.0857   18.3467 C   0  0  0  0  0  0  0  0  0  0  0  0
  -26.5303  -31.6185   22.8275 C   0  0  0  0  0  0  0  0  0  0  0  0
  -26.2793  -21.1317   15.8444 C   0  0  0  0  0  0  0  0  0  0  0  0
  -20.1445  -27.3363   16.6969 C   0  0  0  0  0  0  0  0  0  0  0  0
  -27.3271  -29.2225   21.0855 C   0  0  0  0  0  0  0  0  0  0  0  0
  -27.6943  -26.3098   19.3480 C   0  0  0  0  0  0  0  0  0  0  0  0
  -21.0558  -18.0912   19.6964 C   0  0  0  0  0  0  0  0  0  0  0  0
  -28.5081  -31.6388   27.5334 C   0  0  0  0  0  0  0  0  0  0  0  0
  -24.1950  -31.1072   22.1554 C   0  0  0  0  0  0  0  0  0  0  0  0
  -25.6357  -30.5988   19.7795 C   0  0  0  0  0  0  0  0  0  0  0  0
  -28.9050  -31.0435   26.1849 C   0  0  0  0  0  0  0  0  0  0  0  0
  -20.4684  -16.1629   22.6312 C   0  0  0  0  0  0  0  0  0  0  0  0
  -28.8188  -32.1006   25.0886 C   0  0  0  0  0  0  0  0  0  0  0  0
  -21.3533  -14.9293   22.4377 C   0  0  0  0  0  0  0  0  0  0  0  0
  -19.8566  -16.6343   21.3132 C   0  0  0  0  0  0  0  0  0  0  0  0
  -21.7040  -15.6251   20.0336 C   0  0  0  0  0  0  0  0  0  0  0  0
  -27.3850  -32.6230   24.9373 C   0  0  1  0  0  0  0  0  0  0  0  0
  -25.6246  -30.5519   22.2859 C   0  0  1  0  0  0  0  0  0  0  0  0
  -22.3944  -15.1519   21.3232 C   0  0  2  0  0  0  0  0  0  0  0  0
  -27.3225  -20.5543   16.7697 C   0  0  0  0  0  0  0  0  0  0  0  0
  -24.7070  -20.4495   13.9861 C   0  0  0  0  0  0  0  0  0  0  0  0
  -18.0221  -26.6105   15.6413 C   0  0  0  0  0  0  0  0  0  0  0  0
  -29.4070  -24.5766   18.7482 C   0  0  0  0  0  0  0  0  0  0  0  0
  -28.5452  -31.1370   19.0471 C   0  0  0  0  0  0  0  0  0  0  0  0
  -29.5287  -29.1536   17.8777 C   0  0  0  0  0  0  0  0  0  0  0  0
  -30.1984  -29.6749   20.2234 C   0  0  0  0  0  0  0  0  0  0  0  0
  -26.1635  -24.1641   20.6938 C   0  0  0  0  0  0  0  0  0  0  0  0
  -19.4290  -24.9125   16.8546 C   0  0  0  0  0  0  0  0  0  0  0  0
  -20.3120  -28.3391   17.8230 C   0  0  0  0  0  0  0  0  0  1  0  0
  -25.1215  -20.2021   15.4474 C   0  0  2  0  0  0  0  0  0  0  0  0
  -18.9627  -26.3739   16.8202 C   0  0  1  0  0  0  0  0  0  0  0  0
  -27.8908  -28.7465   19.7706 C   0  0  1  0  0  0  0  0  0  0  0  0
  -28.3188  -24.9802   19.7308 C   0  0  2  0  0  0  0  0  0  0  0  0
  -29.0127  -29.6798   19.2341 C   0  0  0  0  0  0  0  0  0  0  0  0
  -22.6951  -12.7046   21.2821 N   0  0  0  0  0  0  0  0  0  0  0  0
  -23.2445  -13.9164   21.0930 N   0  0  0  0  0  0  0  0  0  0  0  0
  -26.2479  -30.1126   21.0259 N   0  0  0  0  0  0  0  0  0  0  0  0
  -20.9023  -16.8282   20.3064 N   0  0  0  0  0  0  0  0  0  0  0  0
  -25.2546  -15.0022   20.4677 N   0  0  0  0  0  0  0  0  0  0  0  0
  -26.3219  -10.6201   20.2361 N   0  0  0  0  0  0  0  0  0  0  0  0
  -21.5011  -22.8297   17.5244 N   0  0  0  0  0  0  0  0  0  0  0  0
  -22.1036  -18.1649   18.7791 N   0  0  0  0  0  0  0  0  0  0  0  0
  -26.5748  -31.6714   24.2076 N   0  0  0  0  0  0  0  0  0  0  0  0
  -28.3126  -27.3661   19.9830 N   0  0  0  0  0  0  0  0  0  0  0  0
  -27.2834  -23.9086   19.7517 N   0  3  0  0  0  0  0  0  0  0  0  0
  -27.1291  -12.7497   19.9684 O   0  0  0  0  0  0  0  0  0  0  0  0
  -19.9874  -25.2004   19.2185 O   0  0  0  0  0  0  0  0  0  0  0  0
  -19.8391  -22.3800   19.1505 O   0  0  0  0  0  0  0  0  0  0  0  0
  -27.1454  -32.3403   22.0513 O   0  0  0  0  0  0  0  0  0  0  0  0
  -26.3542  -22.3005   15.4648 O   0  0  0  0  0  0  0  0  0  0  0  0
  -20.9064  -27.3178   15.7303 O   0  0  0  0  0  0  0  0  0  0  0  0
  -27.8317  -28.8222   22.1383 O   0  0  0  0  0  0  0  0  0  0  0  0
  -26.7546  -26.4025   18.5613 O   0  0  0  0  0  0  0  0  0  0  0  0
  -20.3299  -19.0452   19.9877 O   0  0  0  0  0  0  0  0  0  0  0  0
  -22.9287   -6.3413   21.3375 O   0  0  0  0  0  0  0  0  0  0  0  0
  -21.4583  -29.1595   17.6007 O   0  0  0  0  0  0  0  0  0  1  0  0
  -20.2931   -4.3924   25.7714 F   0  0  0  0  0  0  0  0  0  0  0  0
  -24.1574   -4.5448   23.0420 F   0  0  0  0  0  0  0  0  0  0  0  0
  1  2  1  0  0  0  0
  1  5  2  0  0  0  0
  2  6  2  0  0  0  0
  3  8  2  0  0  0  0
  3 18  1  0  0  0  0
  4  9  1  0  0  0  0
  4 18  2  0  0  0  0
  5 20  1  0  0  0  0
  6 22  1  0  0  0  0
  7 10  2  0  0  0  0
  7 21  1  0  0  0  0
  8 27  1  0  0  0  0
  9 27  2  0  0  0  0
 10 28  1  0  0  0  0
 11 12  2  0  0  0  0
 11 29  1  0  0  0  0
 12 30  1  0  0  0  0
 13 23  1  0  0  0  0
 13 28  2  0  0  0  0
 14 24  1  0  0  0  0
 14 25  2  0  0  0  0
 15 24  2  0  0  0  0
 15 26  1  0  0  0  0
 16 25  1  0  0  0  0
 16 26  2  0  0  0  0
 17 30  2  0  0  0  0
 17 31  1  0  0  0  0
 18 32  1  0  0  0  0
 19 32  1  0  0  0  0
 19 33  2  0  0  0  0
 19 34  1  0  0  0  0
 20 22  2  0  0  0  0
 20 43  1  0  0  0  0
 21 23  2  0  0  0  0
 21 44  1  0  0  0  0
 22 52  1  0  0  0  0
 23 45  1  0  0  0  0
 24 65  1  0  0  0  0
 25 76  1  0  0  0  0
 26 77  1  0  0  0  0
 27 90  1  0  0  0  0
 28 91  1  0  0  0  0
 29 31  2  0  0  0  0
 29 90  1  0  0  0  0
 30 92  1  0  0  0  0
 31 93  1  0  0  0  0
 32 70  2  0  0  0  0
 33 71  1  0  0  0  0
 33 74  1  0  0  0  0
 34 75  1  0  0  0  0
 34 81  2  0  0  0  0
 35 36  1  0  0  0  0
 35 63  1  0  0  0  0
 35 82  2  0  0  0  0
 36 76  1  0  0  0  0
 36 83  2  0  0  0  0
 37 53  1  0  0  0  0
 37 78  1  0  0  0  0
 37 84  2  0  0  0  0
 38 55  1  0  0  0  0
 38 65  1  0  0  0  0
 38 85  2  0  0  0  0
 39 64  1  0  0  0  0
 39 66  1  0  0  0  0
 39 86  2  0  0  0  0
 40 67  1  0  0  0  0
 40 72  1  0  0  0  0
 40 87  2  0  0  0  0
 41 68  1  0  0  0  0
 41 79  1  0  0  0  0
 41 88  2  0  0  0  0
 42 73  1  0  0  0  0
 42 77  1  0  0  0  0
 42 89  2  0  0  0  0
 43 46  1  0  0  0  0
 44 53  1  0  0  0  0
 45 72  1  0  0  0  0
 46 48  1  0  0  0  0
 47 49  1  0  0  0  0
 47 50  1  0  0  0  0
 48 52  1  0  0  0  0
 49 54  1  0  0  0  0
 50 73  1  0  0  0  0
 51 54  1  0  0  0  0
 51 73  1  0  0  0  0
 52 78  1  0  0  0  0
 53 72  1  0  0  0  0
 54 71  1  0  0  0  0
 56 65  1  0  0  0  0
 57 66  1  0  0  0  0
 58 68  1  0  0  0  0
 59 69  1  0  0  0  0
 60 69  1  0  0  0  0
 61 69  1  0  0  0  0
 62 80  1  0  0  0  0
 63 66  1  0  0  0  0
 64 91  1  0  0  0  0
 67 69  1  0  0  0  0
 67 79  1  0  0  0  0
 68 80  1  0  0  0  0
 70 71  1  0  0  0  0
M  CHG  1  80   1
M  ISO  4  42 100  64 101  77 100  91 101
M  END
> <Batch ID>
0174

> <Smiles>
CNC(C)C(=O)NC(C(=O)N1Cc2cc([101O:1][101CH2:1]C(=O)C(C)CC(=O)C(=O)Nc3cc([100NH:0][100C:0](=O)N4CCCC(n5nc(-c6ccc(Oc7ccc(F)cc7F)cc6)c(C(N)=O)c5N)C4)cc(C(C)C(C)=O)c3)ccc2CC1C(=O)NC1CCCc2ccccc21)C(C)(C)C

> <Shape>
0.238

> <Color>
0.089

> <Negative vol penalty>
0.000

$$$$

  -OEChem-04052304333D

 88 96  0     1  0  0  0  0  0999 V2000
  -20.2497  -25.4075   22.7585 C   0  0  0  0  0  0  0  0  0  0  0  0
  -21.2899  -24.9480   21.9571 C   0  0  0  0  0  0  0  0  0  0  0  0
  -22.0475  -18.0782   19.4458 C   0  0  0  0  0  0  0  0  0  0  0  0
  -20.1927  -16.5314   19.3806 C   0  0  0  0  0  0  0  0  0  0  0  0
  -20.0909  -26.7755   22.9760 C   0  0  0  0  0  0  0  0  0  0  0  0
  -22.1713  -25.8563   21.3718 C   0  0  0  0  0  0  0  0  0  0  0  0
  -27.0081  -24.4167   21.7926 C   0  0  0  0  0  0  0  0  0  0  0  0
  -21.3963  -18.8979   18.5242 C   0  0  0  0  0  0  0  0  0  0  0  0
  -19.5414  -17.3512   18.4590 C   0  0  0  0  0  0  0  0  0  0  0  0
  -27.4568  -23.4285   20.9174 C   0  0  0  0  0  0  0  0  0  0  0  0
  -18.9053  -21.1843   18.5479 C   0  0  0  0  0  0  0  0  0  0  0  0
  -18.8881  -22.5562   18.7993 C   0  0  0  0  0  0  0  0  0  0  0  0
  -29.0504  -16.3466   20.0175 C   0  0  0  0  0  0  0  0  0  0  0  0
  -28.4678  -25.1239   19.5308 C   0  0  0  0  0  0  0  0  0  0  0  0
  -30.4761  -18.1295   20.8086 C   0  0  0  0  0  0  0  0  0  0  0  0
  -20.0435  -22.9527   16.7149 C   0  0  0  0  0  0  0  0  0  0  0  0
  -21.4457  -16.8948   19.8741 C   0  0  0  0  0  0  0  0  0  0  0  0
  -29.8369  -15.4162   20.6968 C   0  0  0  0  0  0  0  0  0  0  0  0
  -22.0227  -16.1023   22.2292 C   0  0  0  0  0  0  0  0  0  0  0  0
  -20.9765  -27.7005   22.4008 C   0  0  0  0  0  0  0  0  0  0  0  0
  -27.2770  -25.7691   21.5372 C   0  0  0  0  0  0  0  0  0  0  0  0
  -22.0233  -27.2380   21.5806 C   0  0  0  0  0  0  0  0  0  0  0  0
  -28.0236  -26.1271   20.4056 C   0  0  0  0  0  0  0  0  0  0  0  0
  -29.3700  -17.7032   20.0734 C   0  0  0  0  0  0  0  0  0  0  0  0
  -31.2626  -17.1991   21.4878 C   0  0  0  0  0  0  0  0  0  0  0  0
  -20.1433  -18.5345   18.0307 C   0  0  0  0  0  0  0  0  0  0  0  0
  -28.1842  -23.7822   19.7848 C   0  0  0  0  0  0  0  0  0  0  0  0
  -19.4918  -20.6965   17.3801 C   0  0  0  0  0  0  0  0  0  0  0  0
  -19.4571  -23.4404   17.8828 C   0  0  0  0  0  0  0  0  0  0  0  0
  -20.0609  -21.5808   16.4636 C   0  0  0  0  0  0  0  0  0  0  0  0
  -30.9430  -15.8425   21.4319 C   0  0  0  0  0  0  0  0  0  0  0  0
  -22.1181  -16.0473   20.8257 C   0  0  0  0  0  0  0  0  0  0  0  0
  -22.8462  -15.0949   22.6690 C   0  0  0  0  0  0  0  0  0  0  0  0
  -29.4930  -13.9724   20.6348 C   0  0  0  0  0  0  0  0  0  0  0  0
  -21.2580  -16.9849   23.0609 C   0  0  0  0  0  0  0  0  0  0  0  0
  -27.6923  -20.6866   18.4967 C   0  0  0  0  0  0  0  0  0  0  0  0
  -27.6913  -22.0213   18.3264 C   0  0  0  0  0  0  0  0  0  1  0  0
  -28.7475  -20.0243   19.3342 C   0  0  0  0  0  0  0  0  0  0  0  0
  -25.4978  -28.3441   20.9831 C   0  0  0  0  0  0  0  0  0  0  0  0
  -28.3572  -29.8698   21.1193 C   0  0  0  0  0  0  0  0  0  0  0  0
  -31.7511  -29.6970   20.8058 C   0  0  0  0  0  0  0  0  0  0  0  0
  -27.6088  -12.3925   20.3566 C   0  0  0  0  0  0  0  0  0  0  0  0
  -20.7363  -29.1723   22.6262 C   0  0  0  0  0  0  0  0  0  0  0  0
  -26.8090  -26.8210   22.5052 C   0  0  0  0  0  0  0  0  0  0  0  0
  -28.3564  -27.5633   20.0970 C   0  0  0  0  0  0  0  0  0  0  0  0
  -21.9372  -30.0464   22.2738 C   0  0  0  0  0  0  0  0  0  0  0  0
  -24.5917  -10.8334   21.3381 C   0  0  0  0  0  0  0  0  0  0  0  0
  -22.5147  -29.6401   20.9217 C   0  0  0  0  0  0  0  0  0  0  0  0
  -23.6067  -11.9990   21.4623 C   0  0  0  0  0  0  0  0  0  0  0  0
  -25.5509  -11.0237   20.1639 C   0  0  0  0  0  0  0  0  0  0  0  0
  -25.2779  -13.4678   20.2649 C   0  0  0  0  0  0  0  0  0  0  0  0
  -23.0147  -28.1907   20.9484 C   0  0  1  0  0  0  0  0  0  0  0  0
  -26.6989  -28.2060   21.8752 C   0  0  1  0  0  0  0  0  0  0  0  0
  -24.3363  -13.3573   21.4750 C   0  0  1  0  0  0  0  0  0  0  0  0
  -26.6810  -22.7573   17.4955 C   0  0  0  0  0  0  0  0  0  0  0  0
  -33.8166  -31.1159   20.9395 C   0  0  0  0  0  0  0  0  0  0  0  0
  -27.7016  -31.0766   18.3946 C   0  0  0  0  0  0  0  0  0  0  0  0
  -30.1191  -31.6839   18.1596 C   0  0  0  0  0  0  0  0  0  0  0  0
  -28.7631  -32.6633   20.0102 C   0  0  0  0  0  0  0  0  0  0  0  0
  -32.8597  -28.0788   23.0220 C   0  0  0  0  0  0  0  0  0  0  0  0
  -29.4276  -30.2263   20.1162 C   0  0  1  0  0  0  0  0  0  0  0  0
  -32.8720  -30.1973   21.6990 C   0  0  2  0  0  0  0  0  0  0  0  0
  -28.9951  -31.3855   19.1747 C   0  0  0  0  0  0  0  0  0  0  0  0
  -22.9377  -15.0815   20.4020 N   0  0  0  0  0  0  0  0  0  0  0  0
  -23.3649  -14.5204   21.5460 N   0  0  0  0  0  0  0  0  0  0  0  0
  -27.8711  -28.5556   21.0703 N   0  0  0  0  0  0  0  0  0  0  0  0
  -26.2081  -12.3287   20.2548 N   0  0  0  0  0  0  0  0  0  0  0  0
  -32.3804  -17.6330   22.2312 N   0  0  0  0  0  0  0  0  0  0  0  0
  -23.1701  -14.6533   23.9029 N   0  0  0  0  0  0  0  0  0  0  0  0
  -20.4650  -17.9630   22.4455 N   0  0  0  0  0  0  0  0  0  0  0  0
  -28.5716  -18.6479   19.3834 N   0  0  0  0  0  0  0  0  0  0  0  0
  -28.1370  -13.6823   20.4814 N   0  0  0  0  0  0  0  0  0  0  0  0
  -24.2941  -28.1096   21.6199 N   0  0  0  0  0  0  0  0  0  0  0  0
  -30.6346  -30.5019   20.8879 N   0  0  0  0  0  0  0  0  0  0  0  0
  -33.6598  -29.0506   22.2331 N   0  3  0  0  0  0  0  0  0  0  0  0
  -30.3950  -13.1403   20.6802 O   0  0  0  0  0  0  0  0  0  0  0  0
  -21.2901  -16.9192   24.3131 O   0  0  0  0  0  0  0  0  0  0  0  0
  -29.6242  -20.6859   19.8788 O   0  0  0  0  0  0  0  0  0  0  0  0
  -25.6516  -28.6429   19.8046 O   0  0  0  0  0  0  0  0  0  0  0  0
  -27.9718  -30.7239   21.9216 O   0  0  0  0  0  0  0  0  0  0  0  0
  -31.8568  -28.6945   20.1026 O   0  0  0  0  0  0  0  0  0  0  0  0
  -28.3248  -11.3864   20.3735 O   0  0  0  0  0  0  0  0  0  0  0  0
  -26.7335  -19.8880   17.9021 O   0  0  0  0  0  0  0  0  0  0  0  0
  -19.5075  -19.3343   17.1315 O   0  0  0  0  0  0  0  0  0  0  0  0
  -28.6228  -22.8197   18.9286 O   0  0  0  0  0  0  0  0  0  1  0  0
  -19.4391  -24.7579   18.1236 F   0  0  0  0  0  0  0  0  0  0  0  0
  -20.6247  -21.1182   15.3393 F   0  0  0  0  0  0  0  0  0  0  0  0
  -31.6998  -14.9474   22.0850 F   0  0  0  0  0  0  0  0  0  0  0  0
  1  2  1  0  0  0  0
  1  5  2  0  0  0  0
  2  6  2  0  0  0  0
  3  8  2  0  0  0  0
  3 17  1  0  0  0  0
  4  9  1  0  0  0  0
  4 17  2  0  0  0  0
  5 20  1  0  0  0  0
  6 22  1  0  0  0  0
  7 10  2  0  0  0  0
  7 21  1  0  0  0  0
  8 26  1  0  0  0  0
  9 26  2  0  0  0  0
 10 27  1  0  0  0  0
 11 12  2  0  0  0  0
 11 28  1  0  0  0  0
 12 29  1  0  0  0  0
 13 18  1  0  0  0  0
 13 24  2  0  0  0  0
 14 23  1  0  0  0  0
 14 27  2  0  0  0  0
 15 24  1  0  0  0  0
 15 25  2  0  0  0  0
 16 29  2  0  0  0  0
 16 30  1  0  0  0  0
 17 32  1  0  0  0  0
 18 31  2  0  0  0  0
 18 34  1  0  0  0  0
 19 32  1  0  0  0  0
 19 33  2  0  0  0  0
 19 35  1  0  0  0  0
 20 22  2  0  0  0  0
 20 43  1  0  0  0  0
 21 23  2  0  0  0  0
 21 44  1  0  0  0  0
 22 52  1  0  0  0  0
 23 45  1  0  0  0  0
 24 71  1  0  0  0  0
 25 31  1  0  0  0  0
 25 68  1  0  0  0  0
 26 84  1  0  0  0  0
 27 85  1  0  0  0  0
 28 30  2  0  0  0  0
 28 84  1  0  0  0  0
 29 86  1  0  0  0  0
 30 87  1  0  0  0  0
 31 88  1  0  0  0  0
 32 64  2  0  0  0  0
 33 65  1  0  0  0  0
 33 69  1  0  0  0  0
 34 72  1  0  0  0  0
 34 76  2  0  0  0  0
 35 70  1  0  0  0  0
 35 77  2  0  0  0  0
 36 37  2  0  0  0  0
 36 38  1  0  0  0  0
 36 83  1  0  0  0  0
 37 55  1  0  0  0  0
 37 85  1  0  0  0  0
 38 71  1  0  0  0  0
 38 78  2  0  0  0  0
 39 53  1  0  0  0  0
 39 73  1  0  0  0  0
 39 79  2  0  0  0  0
 40 61  1  0  0  0  0
 40 66  1  0  0  0  0
 40 80  2  0  0  0  0
 41 62  1  0  0  0  0
 41 74  1  0  0  0  0
 41 81  2  0  0  0  0
 42 67  1  0  0  0  0
 42 72  1  0  0  0  0
 42 82  2  0  0  0  0
 43 46  1  0  0  0  0
 44 53  1  0  0  0  0
 45 66  1  0  0  0  0
 46 48  1  0  0  0  0
 47 49  1  0  0  0  0
 47 50  1  0  0  0  0
 48 52  1  0  0  0  0
 49 54  1  0  0  0  0
 50 67  1  0  0  0  0
 51 54  1  0  0  0  0
 51 67  1  0  0  0  0
 52 73  1  0  0  0  0
 53 66  1  0  0  0  0
 54 65  1  0  0  0  0
 56 62  1  0  0  0  0
 57 63  1  0  0  0  0
 58 63  1  0  0  0  0
 59 63  1  0  0  0  0
 60 75  1  0  0  0  0
 61 63  1  0  0  0  0
 61 74  1  0  0  0  0
 62 75  1  0  0  0  0
 64 65  1  0  0  0  0
M  CHG  1  75   1
M  ISO  4  37 101  42 100  72 100  85 101
M  END
> <Batch ID>
0174

> <Smiles>
CNC(C)C(=O)NC(C(=O)N1Cc2cc([101O:1][101CH:1](C)C(=O)C(=O)Nc3cc(N)c(F)c(C(=O)[100NH:0][100C:0](=O)N4CCCC(n5nc(-c6ccc(Oc7ccc(F)cc7F)cc6)c(C(N)=O)c5N)C4)c3)ccc2CC1C(=O)NC1CCCc2ccccc21)C(C)(C)C

> <Shape>
0.221

> <Color>
0.052

> <Negative vol penalty>
0.000

$$$$

  -OEChem-04052304333D

 87 95  0     1  0  0  0  0  0999 V2000
  -23.6955  -30.0403   22.2098 C   0  0  0  0  0  0  0  0  0  0  0  0
  -24.0742  -29.1390   23.1996 C   0  0  0  0  0  0  0  0  0  0  0  0
  -23.7156   -9.8564   21.9799 C   0  0  0  0  0  0  0  0  0  0  0  0
  -24.3212  -11.1777   23.9098 C   0  0  0  0  0  0  0  0  0  0  0  0
  -23.6346  -29.6278   20.8794 C   0  0  0  0  0  0  0  0  0  0  0  0
  -24.3913  -27.8244   22.8597 C   0  0  0  0  0  0  0  0  0  0  0  0
  -28.6189  -24.2589   25.4904 C   0  0  0  0  0  0  0  0  0  0  0  0
  -23.1701   -8.8833   22.8172 C   0  0  0  0  0  0  0  0  0  0  0  0
  -23.7756  -10.2047   24.7472 C   0  0  0  0  0  0  0  0  0  0  0  0
  -28.5322  -23.2591   26.4582 C   0  0  0  0  0  0  0  0  0  0  0  0
  -21.2954   -6.2202   24.4323 C   0  0  0  0  0  0  0  0  0  0  0  0
  -20.0503   -5.6933   24.0891 C   0  0  0  0  0  0  0  0  0  0  0  0
  -28.4688  -21.5891   24.7185 C   0  0  0  0  0  0  0  0  0  0  0  0
  -31.1180  -15.8593   23.9050 C   0  0  0  0  0  0  0  0  0  0  0  0
  -19.0758   -7.8991   24.2381 C   0  0  0  0  0  0  0  0  0  0  0  0
  -24.2912  -11.0036   22.5262 C   0  0  0  0  0  0  0  0  0  0  0  0
  -24.1947  -13.1215   21.1075 C   0  0  0  0  0  0  0  0  0  0  0  0
  -23.9605  -28.3100   20.5217 C   0  0  0  0  0  0  0  0  0  0  0  0
  -28.6202  -23.9315   24.1269 C   0  0  0  0  0  0  0  0  0  0  0  0
  -24.3335  -27.3935   21.5233 C   0  0  0  0  0  0  0  0  0  0  0  0
  -28.5581  -22.5865   23.7355 C   0  0  0  0  0  0  0  0  0  0  0  0
  -31.9067  -16.7242   24.6555 C   0  0  0  0  0  0  0  0  0  0  0  0
  -33.1622  -17.0948   24.1869 C   0  0  0  0  0  0  0  0  0  0  0  0
  -23.2001   -9.0575   24.2009 C   0  0  0  0  0  0  0  0  0  0  0  0
  -28.4542  -21.9241   26.0722 C   0  0  0  0  0  0  0  0  0  0  0  0
  -21.4307   -7.5866   24.6784 C   0  0  0  0  0  0  0  0  0  0  0  0
  -18.9406   -6.5327   23.9920 C   0  0  0  0  0  0  0  0  0  0  0  0
  -20.3209   -8.4260   24.5813 C   0  0  0  0  0  0  0  0  0  0  0  0
  -24.8554  -12.0088   21.6617 C   0  0  0  0  0  0  0  0  0  0  0  0
  -33.5796  -16.5769   22.9714 C   0  0  0  0  0  0  0  0  0  0  0  0
  -31.6269  -15.3968   22.7021 C   0  0  0  0  0  0  0  0  0  0  0  0
  -25.1597  -13.7607   20.3681 C   0  0  0  0  0  0  0  0  0  0  0  0
  -22.8306  -13.5399   21.2484 C   0  0  0  0  0  0  0  0  0  0  0  0
  -30.0236  -17.6237   27.7737 C   0  0  0  0  0  0  0  0  0  0  0  0
  -29.3999  -18.9855   27.9395 C   0  0  0  0  0  0  0  0  0  0  0  0
  -30.1946  -16.9215   26.4628 C   0  0  0  0  0  0  0  0  0  0  0  0
  -26.7149  -24.5718   21.6645 C   0  0  0  0  0  0  0  0  0  0  0  0
  -29.0454  -23.0776   19.9739 C   0  0  0  0  0  0  0  0  0  0  0  0
  -31.6417  -20.8627   19.9516 C   0  0  0  0  0  0  0  0  0  0  0  0
  -31.1225  -13.9318   20.7157 C   0  0  0  0  0  0  0  0  0  0  0  0
  -23.8343  -27.8978   19.0764 C   0  0  0  0  0  0  0  0  0  0  0  0
  -28.7412  -25.0201   23.0959 C   0  0  0  0  0  0  0  0  0  0  0  0
  -28.5764  -22.1810   22.2851 C   0  0  0  0  0  0  0  0  0  0  0  0
  -24.5480  -26.5879   18.7521 C   0  0  0  0  0  0  0  0  0  0  0  0
  -29.1815  -12.8983   17.9154 C   0  0  0  0  0  0  0  0  0  0  0  0
  -24.2254  -25.5299   19.8026 C   0  0  0  0  0  0  0  0  0  0  0  0
  -27.7902  -12.6600   18.5068 C   0  0  0  0  0  0  0  0  0  0  0  0
  -30.2879  -12.4780   18.8813 C   0  0  0  0  0  0  0  0  0  0  0  0
  -28.8031  -12.8248   20.8163 C   0  0  0  0  0  0  0  0  0  0  0  0
  -24.7089  -25.9657   21.1910 C   0  0  1  0  0  0  0  0  0  0  0  0
  -28.2158  -24.6056   21.7250 C   0  0  1  0  0  0  0  0  0  0  0  0
  -27.6564  -13.2933   19.9056 C   0  0  2  0  0  0  0  0  0  0  0  0
  -34.9173  -16.9389   22.4120 C   0  0  0  0  0  0  0  0  0  0  0  0
  -33.3289  -19.8207   18.4138 C   0  0  0  0  0  0  0  0  0  0  0  0
  -26.8773  -21.2606   18.8302 C   0  0  0  0  0  0  0  0  0  0  0  0
  -28.6816  -19.6930   18.0852 C   0  0  0  0  0  0  0  0  0  0  0  0
  -28.5909  -22.0121   17.1709 C   0  0  0  0  0  0  0  0  0  0  0  0
  -33.9078  -21.9923   21.4838 C   0  0  0  0  0  0  0  0  0  0  0  0
  -28.9306  -19.6764   26.6859 C   0  0  0  0  0  0  0  0  0  1  0  0
  -29.3216  -21.6511   19.5642 C   0  0  1  0  0  0  0  0  0  0  0  0
  -33.0444  -20.9607   19.3793 C   0  0  2  0  0  0  0  0  0  0  0  0
  -28.3655  -21.1616   18.4400 C   0  0  0  0  0  0  0  0  0  0  0  0
  -26.1408  -11.9419   21.3049 N   0  0  0  0  0  0  0  0  0  0  0  0
  -32.8416  -15.7344   22.2142 N   0  0  0  0  0  0  0  0  0  0  0  0
  -26.2955  -13.0206   20.5183 N   0  0  0  0  0  0  0  0  0  0  0  0
  -28.6896  -23.2823   21.3145 N   0  0  0  0  0  0  0  0  0  0  0  0
  -30.0983  -13.1200   20.1839 N   0  0  0  0  0  0  0  0  0  0  0  0
  -33.9849  -17.9695   24.9239 N   0  0  0  0  0  0  0  0  0  0  0  0
  -25.1391  -14.8779   19.6106 N   0  0  0  0  0  0  0  0  0  0  0  0
  -21.9738  -12.7680   22.0449 N   0  0  0  0  0  0  0  0  0  0  0  0
  -31.4126  -17.2104   25.8880 N   0  0  0  0  0  0  0  0  0  0  0  0
  -30.8162  -14.5156   21.9445 N   0  0  0  0  0  0  0  0  0  0  0  0
  -26.1388  -25.7769   21.3105 N   0  0  0  0  0  0  0  0  0  0  0  0
  -30.7363  -21.5941   19.2123 N   0  0  0  0  0  0  0  0  0  0  0  0
  -34.0548  -20.9129   20.4737 N   0  3  0  0  0  0  0  0  0  0  0  0
  -22.3806  -14.5589   20.6716 O   0  0  0  0  0  0  0  0  0  0  0  0
  -30.4128  -17.0359   28.7724 O   0  0  0  0  0  0  0  0  0  0  0  0
  -29.3108  -19.4429   29.0696 O   0  0  0  0  0  0  0  0  0  0  0  0
  -29.2751  -16.2093   26.0971 O   0  0  0  0  0  0  0  0  0  0  0  0
  -26.1233  -23.5292   21.9186 O   0  0  0  0  0  0  0  0  0  0  0  0
  -29.1487  -23.9779   19.1370 O   0  0  0  0  0  0  0  0  0  0  0  0
  -31.3752  -20.2005   20.9520 O   0  0  0  0  0  0  0  0  0  0  0  0
  -32.1818  -14.1189   20.1116 O   0  0  0  0  0  0  0  0  0  0  0  0
  -22.6676   -8.1083   25.0183 O   0  0  0  0  0  0  0  0  0  0  0  0
  -28.3688  -20.9463   27.0148 O   0  0  0  0  0  0  0  0  0  1  0  0
  -17.7453   -6.0269   23.6609 F   0  0  0  0  0  0  0  0  0  0  0  0
  -20.4450   -9.7396   24.8154 F   0  0  0  0  0  0  0  0  0  0  0  0
  1  2  1  0  0  0  0
  1  5  2  0  0  0  0
  2  6  2  0  0  0  0
  3  8  2  0  0  0  0
  3 16  1  0  0  0  0
  4  9  1  0  0  0  0
  4 16  2  0  0  0  0
  5 18  1  0  0  0  0
  6 20  1  0  0  0  0
  7 10  2  0  0  0  0
  7 19  1  0  0  0  0
  8 24  1  0  0  0  0
  9 24  2  0  0  0  0
 10 25  1  0  0  0  0
 11 12  2  0  0  0  0
 11 26  1  0  0  0  0
 12 27  1  0  0  0  0
 13 21  1  0  0  0  0
 13 25  2  0  0  0  0
 14 22  1  0  0  0  0
 14 31  2  0  0  0  0
 15 27  2  0  0  0  0
 15 28  1  0  0  0  0
 16 29  1  0  0  0  0
 17 29  1  0  0  0  0
 17 32  2  0  0  0  0
 17 33  1  0  0  0  0
 18 20  2  0  0  0  0
 18 41  1  0  0  0  0
 19 21  2  0  0  0  0
 19 42  1  0  0  0  0
 20 50  1  0  0  0  0
 21 43  1  0  0  0  0
 22 23  2  0  0  0  0
 22 71  1  0  0  0  0
 23 30  1  0  0  0  0
 23 68  1  0  0  0  0
 24 84  1  0  0  0  0
 25 85  1  0  0  0  0
 26 28  2  0  0  0  0
 26 84  1  0  0  0  0
 27 86  1  0  0  0  0
 28 87  1  0  0  0  0
 29 63  2  0  0  0  0
 30 53  1  0  0  0  0
 30 64  2  0  0  0  0
 31 64  1  0  0  0  0
 31 72  1  0  0  0  0
 32 65  1  0  0  0  0
 32 69  1  0  0  0  0
 33 70  1  0  0  0  0
 33 76  2  0  0  0  0
 34 35  1  0  0  0  0
 34 36  1  0  0  0  0
 34 77  2  0  0  0  0
 35 59  1  0  0  0  0
 35 78  2  0  0  0  0
 36 71  1  0  0  0  0
 36 79  2  0  0  0  0
 37 51  1  0  0  0  0
 37 73  1  0  0  0  0
 37 80  2  0  0  0  0
 38 60  1  0  0  0  0
 38 66  1  0  0  0  0
 38 81  2  0  0  0  0
 39 61  1  0  0  0  0
 39 74  1  0  0  0  0
 39 82  2  0  0  0  0
 40 67  1  0  0  0  0
 40 72  1  0  0  0  0
 40 83  2  0  0  0  0
 41 44  1  0  0  0  0
 42 51  1  0  0  0  0
 43 66  1  0  0  0  0
 44 46  1  0  0  0  0
 45 47  1  0  0  0  0
 45 48  1  0  0  0  0
 46 50  1  0  0  0  0
 47 52  1  0  0  0  0
 48 67  1  0  0  0  0
 49 52  1  0  0  0  0
 49 67  1  0  0  0  0
 50 73  1  0  0  0  0
 51 66  1  0  0  0  0
 52 65  1  0  0  0  0
 54 61  1  0  0  0  0
 55 62  1  0  0  0  0
 56 62  1  0  0  0  0
 57 62  1  0  0  0  0
 58 75  1  0  0  0  0
 59 85  1  0  0  0  0
 60 62  1  0  0  0  0
 60 74  1  0  0  0  0
 61 75  1  0  0  0  0
 63 65  1  0  0  0  0
M  CHG  1  75   1
M  ISO  4  40 100  59 101  72 100  85 101
M  END
> <Batch ID>
0174

> <Smiles>
CNC(C)C(=O)NC(C(=O)N1Cc2cc([101O:1][101CH2:1]C(=O)C(=O)C(=O)Nc3cc([100NH:0][100C:0](=O)N4CCCC(n5nc(-c6ccc(Oc7ccc(F)cc7F)cc6)c(C(N)=O)c5N)C4)nc(C)c3N)ccc2CC1C(=O)NC1CCCc2ccccc21)C(C)(C)C

> <Shape>
0.200

> <Color>
0.114

> <Negative vol penalty>
0.000

$$$$

  -OEChem-04052304333D

 87 95  0     1  0  0  0  0  0999 V2000
  -28.8192  -23.7125   18.6575 C   0  0  0  0  0  0  0  0  0  0  0  0
  -27.5715  -24.0101   19.1961 C   0  0  0  0  0  0  0  0  0  0  0  0
  -30.3607  -13.2596   19.7399 C   0  0  0  0  0  0  0  0  0  0  0  0
  -28.1421  -13.5916   18.8429 C   0  0  0  0  0  0  0  0  0  0  0  0
  -29.9608  -24.3353   19.1602 C   0  0  0  0  0  0  0  0  0  0  0  0
  -27.4648  -24.9300   20.2386 C   0  0  0  0  0  0  0  0  0  0  0  0
  -23.6600  -28.2024   19.5601 C   0  0  0  0  0  0  0  0  0  0  0  0
  -24.7715  -21.9676   21.7012 C   0  0  0  0  0  0  0  0  0  0  0  0
  -23.4338  -22.3208   21.8784 C   0  0  0  0  0  0  0  0  0  0  0  0
  -30.0351  -11.9409   20.0572 C   0  0  0  0  0  0  0  0  0  0  0  0
  -27.8165  -12.2729   19.1602 C   0  0  0  0  0  0  0  0  0  0  0  0
  -22.3719  -27.7478   19.8390 C   0  0  0  0  0  0  0  0  0  0  0  0
  -26.9289  -10.5185   21.9107 C   0  0  0  0  0  0  0  0  0  0  0  0
  -25.6971  -10.2842   22.5217 C   0  0  0  0  0  0  0  0  0  0  0  0
  -22.4516  -28.8547   21.9809 C   0  0  0  0  0  0  0  0  0  0  0  0
  -25.0502   -8.8680   20.6742 C   0  0  0  0  0  0  0  0  0  0  0  0
  -29.4142  -14.0850   19.1328 C   0  0  0  0  0  0  0  0  0  0  0  0
  -30.3067  -15.9200   17.6020 C   0  0  0  0  0  0  0  0  0  0  0  0
  -29.8669  -25.2706   20.2029 C   0  0  0  0  0  0  0  0  0  0  0  0
  -24.3590  -28.9787   20.4956 C   0  0  0  0  0  0  0  0  0  0  0  0
  -28.6064  -25.5650   20.7567 C   0  0  0  0  0  0  0  0  0  0  0  0
  -23.7475  -29.3200   21.7104 C   0  0  0  0  0  0  0  0  0  0  0  0
  -25.1387  -21.1337   20.6451 C   0  0  0  0  0  0  0  0  0  0  0  0
  -22.4633  -21.8400   20.9995 C   0  0  0  0  0  0  0  0  0  0  0  0
  -24.1682  -20.6529   19.7662 C   0  0  0  0  0  0  0  0  0  0  0  0
  -28.7631  -11.4475   19.7673 C   0  0  0  0  0  0  0  0  0  0  0  0
  -21.7686  -28.0715   21.0508 C   0  0  0  0  0  0  0  0  0  0  0  0
  -27.2214   -9.9277   20.6814 C   0  0  0  0  0  0  0  0  0  0  0  0
  -24.7578   -9.4589   21.9035 C   0  0  0  0  0  0  0  0  0  0  0  0
  -26.2821   -9.1024   20.0632 C   0  0  0  0  0  0  0  0  0  0  0  0
  -22.8304  -21.0060   19.9433 C   0  0  0  0  0  0  0  0  0  0  0  0
  -29.7497  -15.4474   18.8054 C   0  0  0  0  0  0  0  0  0  0  0  0
  -30.4323  -17.2747   17.7904 C   0  0  0  0  0  0  0  0  0  0  0  0
  -30.6774  -15.1989   16.4194 C   0  0  0  0  0  0  0  0  0  0  0  0
  -27.0583  -28.6233   22.1361 C   0  0  0  0  0  0  0  0  0  0  0  0
  -19.1321  -25.6604   21.6338 C   0  0  0  0  0  0  0  0  0  0  0  0
  -26.4468  -31.6748   23.0511 C   0  0  0  0  0  0  0  0  0  0  0  0
  -20.5718  -23.0157   22.1751 C   0  0  0  0  0  0  0  0  0  0  0  0
  -24.1475  -34.1519   23.5245 C   0  0  0  0  0  0  0  0  0  0  0  0
  -27.5753  -21.1926   21.2822 C   0  0  0  0  0  0  0  0  0  0  0  0
  -31.1342  -25.8829   20.7451 C   0  0  0  0  0  0  0  0  0  0  0  0
  -25.7376  -29.4836   20.1685 C   0  0  0  0  0  0  0  0  0  0  0  0
  -24.4474  -30.1677   22.7399 C   0  0  0  0  0  0  0  0  0  0  0  0
  -30.8935  -27.1253   21.5988 C   0  0  0  0  0  0  0  0  0  0  0  0
  -31.0737  -20.5317   21.2423 C   0  0  0  0  0  0  0  0  0  0  0  0
  -29.7650  -26.8782   22.5949 C   0  0  0  0  0  0  0  0  0  0  0  0
  -31.1824  -19.1989   20.4980 C   0  0  0  0  0  0  0  0  0  0  0  0
  -29.8313  -20.5861   22.1295 C   0  0  0  0  0  0  0  0  0  0  0  0
  -28.6768  -18.9413   20.7044 C   0  0  0  0  0  0  0  0  0  0  0  0
  -28.4471  -26.5759   21.8715 C   0  0  1  0  0  0  0  0  0  0  0  0
  -26.5541  -29.8370   21.4077 C   0  0  1  0  0  0  0  0  0  0  0  0
  -29.8781  -18.8642   19.7481 C   0  0  2  0  0  0  0  0  0  0  0  0
  -23.9424  -36.5238   24.3178 C   0  0  0  0  0  0  0  0  0  0  0  0
  -26.7092  -30.7286   25.9400 C   0  0  0  0  0  0  0  0  0  0  0  0
  -25.5830  -32.8449   26.6621 C   0  0  0  0  0  0  0  0  0  0  0  0
  -27.7705  -32.9432   25.4671 C   0  0  0  0  0  0  0  0  0  0  0  0
  -23.1346  -35.0651   20.8979 C   0  0  0  0  0  0  0  0  0  0  0  0
  -18.6483  -24.3128   21.1185 C   0  0  0  0  0  0  0  0  0  0  0  0
  -20.1173  -26.3884   20.7402 C   0  0  0  0  0  0  0  0  0  1  0  0
  -19.0621  -23.1428   22.0059 C   0  0  0  0  0  0  0  0  0  0  0  0
  -25.6838  -32.3188   24.1834 C   0  0  1  0  0  0  0  0  0  0  0  0
  -24.1434  -35.6139   23.1160 C   0  0  2  0  0  0  0  0  0  0  0  0
  -26.4239  -32.1913   25.5448 C   0  0  0  0  0  0  0  0  0  0  0  0
  -29.5363  -16.4226   19.6928 N   0  0  0  0  0  0  0  0  0  0  0  0
  -29.9616  -17.5215   19.0465 N   0  0  0  0  0  0  0  0  0  0  0  0
  -25.7963  -30.6320   22.3762 N   0  0  0  0  0  0  0  0  0  0  0  0
  -28.6341  -20.2625   21.3505 N   0  0  0  0  0  0  0  0  0  0  0  0
  -24.5207  -19.8059   18.6914 N   0  0  0  0  0  0  0  0  0  0  0  0
  -30.8985  -18.2669   17.0027 N   0  0  0  0  0  0  0  0  0  0  0  0
  -30.4809  -13.8115   16.3938 N   0  0  0  0  0  0  0  0  0  0  0  0
  -21.1068  -22.1995   21.1823 N   0  0  0  0  0  0  0  0  0  0  0  0
  -26.5039  -20.7892   20.4860 N   0  0  0  0  0  0  0  0  0  0  0  0
  -27.8555  -27.7968   21.3676 N   0  0  0  0  0  0  0  0  0  0  0  0
  -25.4246  -33.6939   23.7707 N   0  0  0  0  0  0  0  0  0  0  0  0
  -23.0483  -35.8759   22.1397 N   0  3  0  0  0  0  0  0  0  0  0  0
  -31.1835  -15.7659   15.4214 O   0  0  0  0  0  0  0  0  0  0  0  0
  -26.7483  -28.4504   23.3090 O   0  0  0  0  0  0  0  0  0  0  0  0
  -18.7520  -26.1378   22.7017 O   0  0  0  0  0  0  0  0  0  0  0  0
  -27.5753  -32.0866   22.7710 O   0  0  0  0  0  0  0  0  0  0  0  0
  -21.1772  -23.5818   23.0791 O   0  0  0  0  0  0  0  0  0  0  0  0
  -23.1202  -33.4840   23.6195 O   0  0  0  0  0  0  0  0  0  0  0  0
  -27.6277  -22.2794   21.8637 O   0  0  0  0  0  0  0  0  0  0  0  0
  -28.4451  -10.1607   20.0765 O   0  0  0  0  0  0  0  0  0  0  0  0
  -20.5116  -27.6286   21.3258 O   0  0  0  0  0  0  0  0  0  1  0  0
  -23.5755   -9.2326   22.4910 F   0  0  0  0  0  0  0  0  0  0  0  0
  -26.5578   -8.5310   18.8828 F   0  0  0  0  0  0  0  0  0  0  0  0
  -21.8960  -20.5426   19.0990 F   0  0  0  0  0  0  0  0  0  0  0  0
  1  2  1  0  0  0  0
  1  5  2  0  0  0  0
  2  6  2  0  0  0  0
  3 10  2  0  0  0  0
  3 17  1  0  0  0  0
  4 11  1  0  0  0  0
  4 17  2  0  0  0  0
  5 19  1  0  0  0  0
  6 21  1  0  0  0  0
  7 12  2  0  0  0  0
  7 20  1  0  0  0  0
  8  9  2  0  0  0  0
  8 23  1  0  0  0  0
  9 24  1  0  0  0  0
 10 26  1  0  0  0  0
 11 26  2  0  0  0  0
 12 27  1  0  0  0  0
 13 14  2  0  0  0  0
 13 28  1  0  0  0  0
 14 29  1  0  0  0  0
 15 22  1  0  0  0  0
 15 27  2  0  0  0  0
 16 29  2  0  0  0  0
 16 30  1  0  0  0  0
 17 32  1  0  0  0  0
 18 32  1  0  0  0  0
 18 33  2  0  0  0  0
 18 34  1  0  0  0  0
 19 21  2  0  0  0  0
 19 41  1  0  0  0  0
 20 22  2  0  0  0  0
 20 42  1  0  0  0  0
 21 50  1  0  0  0  0
 22 43  1  0  0  0  0
 23 25  2  0  0  0  0
 23 72  1  0  0  0  0
 24 31  2  0  0  0  0
 24 71  1  0  0  0  0
 25 31  1  0  0  0  0
 25 68  1  0  0  0  0
 26 83  1  0  0  0  0
 27 84  1  0  0  0  0
 28 30  2  0  0  0  0
 28 83  1  0  0  0  0
 29 85  1  0  0  0  0
 30 86  1  0  0  0  0
 31 87  1  0  0  0  0
 32 64  2  0  0  0  0
 33 65  1  0  0  0  0
 33 69  1  0  0  0  0
 34 70  1  0  0  0  0
 34 76  2  0  0  0  0
 35 51  1  0  0  0  0
 35 73  1  0  0  0  0
 35 77  2  0  0  0  0
 36 58  1  0  0  0  0
 36 59  1  0  0  0  0
 36 78  2  0  0  0  0
 37 61  1  0  0  0  0
 37 66  1  0  0  0  0
 37 79  2  0  0  0  0
 38 60  1  0  0  0  0
 38 71  1  0  0  0  0
 38 80  2  0  0  0  0
 39 62  1  0  0  0  0
 39 74  1  0  0  0  0
 39 81  2  0  0  0  0
 40 67  1  0  0  0  0
 40 72  1  0  0  0  0
 40 82  2  0  0  0  0
 41 44  1  0  0  0  0
 42 51  1  0  0  0  0
 43 66  1  0  0  0  0
 44 46  1  0  0  0  0
 45 47  1  0  0  0  0
 45 48  1  0  0  0  0
 46 50  1  0  0  0  0
 47 52  1  0  0  0  0
 48 67  1  0  0  0  0
 49 52  1  0  0  0  0
 49 67  1  0  0  0  0
 50 73  1  0  0  0  0
 51 66  1  0  0  0  0
 52 65  1  0  0  0  0
 53 62  1  0  0  0  0
 54 63  1  0  0  0  0
 55 63  1  0  0  0  0
 56 63  1  0  0  0  0
 57 75  1  0  0  0  0
 58 60  1  0  0  0  0
 59 84  1  0  0  0  0
 61 63  1  0  0  0  0
 61 74  1  0  0  0  0
 62 75  1  0  0  0  0
 64 65  1  0  0  0  0
M  CHG  1  75   1
M  ISO  4  40 100  59 101  72 100  84 101
M  END
> <Batch ID>
0174

> <Smiles>
CNC(C)C(=O)NC(C(=O)N1Cc2cc([101O:1][101CH2:1]C(=O)CCC(=O)Nc3ccc([100NH:0][100C:0](=O)N4CCCC(n5nc(-c6ccc(Oc7ccc(F)cc7F)cc6)c(C(N)=O)c5N)C4)c(N)c3F)ccc2CC1C(=O)NC1CCCc2ccccc21)C(C)(C)C

> <Shape>
0.283

> <Color>
0.054

> <Negative vol penalty>
0.000

$$$$

  -OEChem-04052304333D

 89 97  0     1  0  0  0  0  0999 V2000
  -17.2113  -31.8638   20.9749 C   0  0  0  0  0  0  0  0  0  0  0  0
  -18.5164  -32.2153   21.3045 C   0  0  0  0  0  0  0  0  0  0  0  0
  -24.1356   -9.1563   20.5460 C   0  0  0  0  0  0  0  0  0  0  0  0
  -22.9981  -10.9565   21.6872 C   0  0  0  0  0  0  0  0  0  0  0  0
  -16.6797  -30.6574   21.4290 C   0  0  0  0  0  0  0  0  0  0  0  0
  -19.2903  -31.3612   22.0892 C   0  0  0  0  0  0  0  0  0  0  0  0
  -25.5496  -28.7492   19.6622 C   0  0  0  0  0  0  0  0  0  0  0  0
  -23.4093   -8.2260   21.2894 C   0  0  0  0  0  0  0  0  0  0  0  0
  -22.2718  -10.0262   22.4306 C   0  0  0  0  0  0  0  0  0  0  0  0
  -26.8577  -28.3764   19.3525 C   0  0  0  0  0  0  0  0  0  0  0  0
  -19.5889   -8.0230   21.9729 C   0  0  0  0  0  0  0  0  0  0  0  0
  -18.2182   -8.2381   22.1161 C   0  0  0  0  0  0  0  0  0  0  0  0
  -28.6285  -19.7373   19.6024 C   0  0  0  0  0  0  0  0  0  0  0  0
  -26.9984  -27.1184   21.4131 C   0  0  0  0  0  0  0  0  0  0  0  0
  -26.7219  -19.2511   18.2004 C   0  0  0  0  0  0  0  0  0  0  0  0
  -18.4848   -8.3403   24.5152 C   0  0  0  0  0  0  0  0  0  0  0  0
  -23.9301  -10.5215   20.7449 C   0  0  0  0  0  0  0  0  0  0  0  0
  -28.4025  -21.1036   19.4360 C   0  0  0  0  0  0  0  0  0  0  0  0
  -24.3244  -12.0448   18.7370 C   0  0  0  0  0  0  0  0  0  0  0  0
  -17.4508  -29.7836   22.2116 C   0  0  0  0  0  0  0  0  0  0  0  0
  -24.9548  -28.2948   20.8426 C   0  0  0  0  0  0  0  0  0  0  0  0
  -18.7682  -30.1426   22.5553 C   0  0  0  0  0  0  0  0  0  0  0  0
  -25.6841  -27.4783   21.7225 C   0  0  0  0  0  0  0  0  0  0  0  0
  -27.7883  -18.8110   18.9846 C   0  0  0  0  0  0  0  0  0  0  0  0
  -22.4774   -8.6609   22.2317 C   0  0  0  0  0  0  0  0  0  0  0  0
  -27.5804  -27.5632   20.2259 C   0  0  0  0  0  0  0  0  0  0  0  0
  -20.4075   -7.9664   23.1009 C   0  0  0  0  0  0  0  0  0  0  0  0
  -17.6661   -8.3968   23.3872 C   0  0  0  0  0  0  0  0  0  0  0  0
  -26.4959  -20.6174   18.0340 C   0  0  0  0  0  0  0  0  0  0  0  0
  -19.8555   -8.1251   24.3720 C   0  0  0  0  0  0  0  0  0  0  0  0
  -27.3362  -21.5437   18.6518 C   0  0  0  0  0  0  0  0  0  0  0  0
  -24.6805  -11.4830   19.9777 C   0  0  0  0  0  0  0  0  0  0  0  0
  -25.3612  -12.8932   18.4340 C   0  0  0  0  0  0  0  0  0  0  0  0
  -29.2935  -22.0822   20.0910 C   0  0  0  0  0  0  0  0  0  0  0  0
  -23.1604  -11.8200   17.9305 C   0  0  0  0  0  0  0  0  0  0  0  0
  -21.9056  -28.2490   23.0280 C   0  0  0  0  0  0  0  0  0  0  0  0
  -32.2261  -23.6438   19.2878 C   0  0  0  0  0  0  0  0  0  0  0  0
  -30.3148  -25.3214   19.4550 C   0  0  0  0  0  0  0  0  0  0  0  0
  -23.0676  -25.4102   23.0601 C   0  0  0  0  0  0  0  0  0  0  0  0
  -24.4182  -22.3291   22.4945 C   0  0  0  0  0  0  0  0  0  0  0  0
  -29.0299  -16.8179   19.8969 C   0  0  0  0  0  0  0  0  0  0  0  0
  -16.8171  -28.5124   22.7187 C   0  0  0  0  0  0  0  0  0  0  0  0
  -23.5696  -28.7215   21.2463 C   0  0  0  0  0  0  0  0  0  0  0  0
  -25.0156  -27.0417   22.9975 C   0  0  0  0  0  0  0  0  0  0  0  0
  -17.8283  -27.4908   23.2327 C   0  0  0  0  0  0  0  0  0  0  0  0
  -29.9089  -13.4377   20.5889 C   0  0  0  0  0  0  0  0  0  0  0  0
  -18.8509  -28.1633   24.1431 C   0  0  0  0  0  0  0  0  0  0  0  0
  -28.5977  -12.6741   20.3895 C   0  0  0  0  0  0  0  0  0  0  0  0
  -29.6754  -14.8120   21.2139 C   0  0  0  0  0  0  0  0  0  0  0  0
  -27.3819  -14.8885   20.3177 C   0  0  0  0  0  0  0  0  0  0  0  0
  -19.6474  -29.2312   23.3838 C   0  0  1  0  0  0  0  0  0  0  0  0
  -22.7933  -27.6222   21.9933 C   0  0  1  0  0  0  0  0  0  0  0  0
  -27.5600  -13.5245   19.6310 C   0  0  2  0  0  0  0  0  0  0  0  0
  -33.3733  -24.5187   19.7248 C   0  0  0  0  0  0  0  0  0  0  0  0
  -24.6377  -19.8308   22.5839 C   0  0  0  0  0  0  0  0  0  0  0  0
  -24.3364  -25.9833   25.7741 C   0  0  0  0  0  0  0  0  0  0  0  0
  -24.9074  -23.5514   25.9413 C   0  0  0  0  0  0  0  0  0  0  0  0
  -22.5204  -24.2642   25.8132 C   0  0  0  0  0  0  0  0  0  0  0  0
  -22.7554  -21.9801   20.0712 C   0  0  0  0  0  0  0  0  0  0  0  0
  -29.3084  -25.9389   20.4077 C   0  0  0  0  0  0  0  0  0  1  0  0
  -30.8655  -23.9715   19.8533 C   0  0  1  0  0  0  0  0  0  0  0  0
  -23.9734  -24.4218   23.7502 C   0  0  1  0  0  0  0  0  0  0  0  0
  -23.7803  -21.0012   22.1279 C   0  0  2  0  0  0  0  0  0  0  0  0
  -23.9434  -24.5707   25.2976 C   0  0  0  0  0  0  0  0  0  0  0  0
  -25.8520  -11.9361   20.4317 N   0  0  0  0  0  0  0  0  0  0  0  0
  -26.2412  -12.7916   19.4711 N   0  0  0  0  0  0  0  0  0  0  0  0
  -23.6232  -26.6513   22.7265 N   0  0  0  0  0  0  0  0  0  0  0  0
  -28.6842  -15.5623   20.4397 N   0  0  0  0  0  0  0  0  0  0  0  0
  -25.5969  -13.7086   17.3843 N   0  0  0  0  0  0  0  0  0  0  0  0
  -22.1932  -10.9161   18.3907 N   0  0  0  0  0  0  0  0  0  0  0  0
  -28.0175  -17.4229   19.1528 N   0  0  0  0  0  0  0  0  0  0  0  0
  -29.9731  -22.9512   19.3237 N   0  0  0  0  0  0  0  0  0  0  0  0
  -20.6594  -28.6126   22.5545 N   0  0  0  0  0  0  0  0  0  0  0  0
  -23.5794  -23.1021   23.2691 N   0  0  0  0  0  0  0  0  0  0  0  0
  -29.3852  -22.0568   21.4207 N   0  3  0  0  0  0  0  0  0  0  0  0
  -23.5987  -20.9038   20.6519 N   0  3  0  0  0  0  0  0  0  0  0  0
  -22.9912  -12.3911   16.8266 O   0  0  0  0  0  0  0  0  0  0  0  0
  -22.3193  -28.3915   24.1727 O   0  0  0  0  0  0  0  0  0  0  0  0
  -32.4072  -22.7005   18.5180 O   0  0  0  0  0  0  0  0  0  0  0  0
  -30.6609  -25.8943   18.4220 O   0  0  0  0  0  0  0  0  0  0  0  0
  -21.8973  -25.0950   22.8271 O   0  0  0  0  0  0  0  0  0  0  0  0
  -25.5491  -22.6471   22.1331 O   0  0  0  0  0  0  0  0  0  0  0  0
  -30.1512  -17.3072   20.0559 O   0  0  0  0  0  0  0  0  0  0  0  0
  -21.7683   -7.7535   22.9571 O   0  0  0  0  0  0  0  0  0  0  0  0
  -28.8555  -27.1993   19.9153 O   0  0  0  0  0  0  0  0  0  1  0  0
  -16.3501   -8.6050   23.5244 F   0  0  0  0  0  0  0  0  0  0  0  0
  -25.4722  -21.0403   17.2811 F   0  0  0  0  0  0  0  0  0  0  0  0
  -20.6371   -8.0729   25.4593 F   0  0  0  0  0  0  0  0  0  0  0  0
  -27.1110  -22.8545   18.4855 F   0  0  0  0  0  0  0  0  0  0  0  0
  1  2  1  0  0  0  0
  1  5  2  0  0  0  0
  2  6  2  0  0  0  0
  3  8  2  0  0  0  0
  3 17  1  0  0  0  0
  4  9  1  0  0  0  0
  4 17  2  0  0  0  0
  5 20  1  0  0  0  0
  6 22  1  0  0  0  0
  7 10  2  0  0  0  0
  7 21  1  0  0  0  0
  8 25  1  0  0  0  0
  9 25  2  0  0  0  0
 10 26  1  0  0  0  0
 11 12  2  0  0  0  0
 11 27  1  0  0  0  0
 12 28  1  0  0  0  0
 13 18  1  0  0  0  0
 13 24  2  0  0  0  0
 14 23  1  0  0  0  0
 14 26  2  0  0  0  0
 15 24  1  0  0  0  0
 15 29  2  0  0  0  0
 16 28  2  0  0  0  0
 16 30  1  0  0  0  0
 17 32  1  0  0  0  0
 18 31  2  0  0  0  0
 18 34  1  0  0  0  0
 19 32  1  0  0  0  0
 19 33  2  0  0  0  0
 19 35  1  0  0  0  0
 20 22  2  0  0  0  0
 20 42  1  0  0  0  0
 21 23  2  0  0  0  0
 21 43  1  0  0  0  0
 22 51  1  0  0  0  0
 23 44  1  0  0  0  0
 24 71  1  0  0  0  0
 25 84  1  0  0  0  0
 26 85  1  0  0  0  0
 27 30  2  0  0  0  0
 27 84  1  0  0  0  0
 28 86  1  0  0  0  0
 29 31  1  0  0  0  0
 29 87  1  0  0  0  0
 30 88  1  0  0  0  0
 31 89  1  0  0  0  0
 32 65  2  0  0  0  0
 33 66  1  0  0  0  0
 33 69  1  0  0  0  0
 34 72  1  0  0  0  0
 34 75  2  0  0  0  0
 35 70  1  0  0  0  0
 35 77  2  0  0  0  0
 36 52  1  0  0  0  0
 36 73  1  0  0  0  0
 36 78  2  0  0  0  0
 37 54  1  0  0  0  0
 37 61  1  0  0  0  0
 37 79  2  0  0  0  0
 38 60  1  0  0  0  0
 38 61  1  0  0  0  0
 38 80  2  0  0  0  0
 39 62  1  0  0  0  0
 39 67  1  0  0  0  0
 39 81  2  0  0  0  0
 40 63  1  0  0  0  0
 40 74  1  0  0  0  0
 40 82  2  0  0  0  0
 41 68  1  0  0  0  0
 41 71  1  0  0  0  0
 41 83  2  0  0  0  0
 42 45  1  0  0  0  0
 43 52  1  0  0  0  0
 44 67  1  0  0  0  0
 45 47  1  0  0  0  0
 46 48  1  0  0  0  0
 46 49  1  0  0  0  0
 47 51  1  0  0  0  0
 48 53  1  0  0  0  0
 49 68  1  0  0  0  0
 50 53  1  0  0  0  0
 50 68  1  0  0  0  0
 51 73  1  0  0  0  0
 52 67  1  0  0  0  0
 53 66  1  0  0  0  0
 55 63  1  0  0  0  0
 56 64  1  0  0  0  0
 57 64  1  0  0  0  0
 58 64  1  0  0  0  0
 59 76  1  0  0  0  0
 60 85  1  0  0  0  0
 61 72  1  0  0  0  0
 62 64  1  0  0  0  0
 62 74  1  0  0  0  0
 63 76  1  0  0  0  0
 65 66  1  0  0  0  0
M  CHG  2  75   1  76   1
M  ISO  4  41 100  60 101  71 100  85 101
M  END
> <Batch ID>
0174

> <Smiles>
CNC(C)C(=O)NC(C(=O)N1Cc2cc([101O:1][101CH2:1]C(=O)C(NC(=N)c3cc([100NH:0][100C:0](=O)N4CCCC(n5nc(-c6ccc(Oc7ccc(F)cc7F)cc6)c(C(N)=O)c5N)C4)cc(F)c3F)C(C)=O)ccc2CC1C(=O)NC1CCCc2ccccc21)C(C)(C)C

> <Shape>
0.245

> <Color>
0.101

> <Negative vol penalty>
0.000

$$$$

  -OEChem-04052304333D

 86 94  0     1  0  0  0  0  0999 V2000
  -18.1331  -26.7831   25.6790 C   0  0  0  0  0  0  0  0  0  0  0  0
  -19.3200  -26.2774   25.1586 C   0  0  0  0  0  0  0  0  0  0  0  0
  -23.2165   -9.6610   20.2501 C   0  0  0  0  0  0  0  0  0  0  0  0
  -23.7852  -10.1118   22.5545 C   0  0  0  0  0  0  0  0  0  0  0  0
  -17.5546  -27.9197   25.1156 C   0  0  0  0  0  0  0  0  0  0  0  0
  -19.9286  -26.9074   24.0737 C   0  0  0  0  0  0  0  0  0  0  0  0
  -24.9291  -27.4263   24.6832 C   0  0  0  0  0  0  0  0  0  0  0  0
  -22.4971   -8.5342   20.6480 C   0  0  0  0  0  0  0  0  0  0  0  0
  -23.0657   -8.9851   22.9525 C   0  0  0  0  0  0  0  0  0  0  0  0
  -25.7180  -26.2984   24.4614 C   0  0  0  0  0  0  0  0  0  0  0  0
  -19.8302   -8.1446   23.4481 C   0  0  0  0  0  0  0  0  0  0  0  0
  -18.9818   -8.2743   24.5476 C   0  0  0  0  0  0  0  0  0  0  0  0
  -29.4545  -18.0303   22.5221 C   0  0  0  0  0  0  0  0  0  0  0  0
  -26.2730  -27.1258   22.2645 C   0  0  0  0  0  0  0  0  0  0  0  0
  -31.7087  -17.2023   22.2581 C   0  0  0  0  0  0  0  0  0  0  0  0
  -20.2283   -6.5628   25.7113 C   0  0  0  0  0  0  0  0  0  0  0  0
  -23.8606  -10.4498   21.2033 C   0  0  0  0  0  0  0  0  0  0  0  0
  -29.9337  -19.0894   23.2930 C   0  0  0  0  0  0  0  0  0  0  0  0
  -24.1191  -12.9279   20.6556 C   0  0  0  0  0  0  0  0  0  0  0  0
  -18.1615  -28.5696   24.0294 C   0  0  0  0  0  0  0  0  0  0  0  0
  -24.7973  -28.4089   23.6914 C   0  0  0  0  0  0  0  0  0  0  0  0
  -19.3570  -28.0530   23.4943 C   0  0  0  0  0  0  0  0  0  0  0  0
  -25.4839  -28.2665   22.4771 C   0  0  0  0  0  0  0  0  0  0  0  0
  -30.3420  -17.0867   22.0047 C   0  0  0  0  0  0  0  0  0  0  0  0
  -22.4216   -8.1962   21.9992 C   0  0  0  0  0  0  0  0  0  0  0  0
  -26.3878  -26.1466   23.2509 C   0  0  0  0  0  0  0  0  0  0  0  0
  -20.8776   -7.2240   23.4801 C   0  0  0  0  0  0  0  0  0  0  0  0
  -19.1809   -7.4834   25.6792 C   0  0  0  0  0  0  0  0  0  0  0  0
  -32.1880  -18.2614   23.0289 C   0  0  0  0  0  0  0  0  0  0  0  0
  -21.0767   -6.4331   24.6117 C   0  0  0  0  0  0  0  0  0  0  0  0
  -31.3005  -19.2050   23.5464 C   0  0  0  0  0  0  0  0  0  0  0  0
  -24.6044  -11.6135   20.7928 C   0  0  0  0  0  0  0  0  0  0  0  0
  -25.2093  -13.6554   20.2451 C   0  0  0  0  0  0  0  0  0  0  0  0
  -28.9862  -20.0932   23.8423 C   0  0  0  0  0  0  0  0  0  0  0  0
  -22.8006  -13.4449   20.8794 C   0  0  0  0  0  0  0  0  0  0  0  0
  -22.3728  -29.5792   22.0014 C   0  0  0  0  0  0  0  0  0  0  0  0
  -27.1793  -22.6288   22.8767 C   0  0  0  0  0  0  0  0  0  0  0  0
  -24.6228  -31.6650   20.9482 C   0  0  0  0  0  0  0  0  0  0  0  0
  -27.9252  -32.3360   20.4090 C   0  0  0  0  0  0  0  0  0  0  0  0
  -30.6012  -14.9897   20.6329 C   0  0  0  0  0  0  0  0  0  0  0  0
  -17.4739  -29.7676   23.4238 C   0  0  0  0  0  0  0  0  0  0  0  0
  -23.9639  -29.6327   23.9563 C   0  0  0  0  0  0  0  0  0  0  0  0
  -25.3916  -29.3025   21.3878 C   0  0  0  0  0  0  0  0  0  0  0  0
  -18.3793  -30.5943   22.5144 C   0  0  0  0  0  0  0  0  0  0  0  0
  -29.7730  -12.1420   18.6628 C   0  0  0  0  0  0  0  0  0  0  0  0
  -19.1514  -29.6868   21.5620 C   0  0  0  0  0  0  0  0  0  0  0  0
  -28.3146  -11.8587   19.0300 C   0  0  0  0  0  0  0  0  0  0  0  0
  -30.5777  -12.6256   19.8679 C   0  0  0  0  0  0  0  0  0  0  0  0
  -28.5389  -13.4858   20.9507 C   0  0  0  0  0  0  0  0  0  0  0  0
  -20.0604  -28.7228   22.3339 C   0  0  1  0  0  0  0  0  0  0  0  0
  -23.4898  -30.3206   22.6798 C   0  0  1  0  0  0  0  0  0  0  0  0
  -27.6728  -13.0581   19.7547 C   0  0  2  0  0  0  0  0  0  0  0  0
  -29.4526  -34.1082   19.5013 C   0  0  0  0  0  0  0  0  0  0  0  0
  -23.8399  -30.8802   18.1054 C   0  0  0  0  0  0  0  0  0  0  0  0
  -25.9735  -31.9178   17.3058 C   0  0  0  0  0  0  0  0  0  0  0  0
  -24.2517  -33.3245   18.4369 C   0  0  0  0  0  0  0  0  0  0  0  0
  -29.3005  -32.6473   23.0111 C   0  0  0  0  0  0  0  0  0  0  0  0
  -26.8393  -21.2832   23.4810 C   0  0  0  0  0  0  0  0  0  0  0  0
  -26.7707  -23.8408   23.6898 C   0  0  0  0  0  0  0  0  0  1  0  0
  -25.6082  -31.6872   19.8047 C   0  0  1  0  0  0  0  0  0  0  0  0
  -28.7739  -33.5497   20.7423 C   0  0  2  0  0  0  0  0  0  0  0  0
  -24.9187  -31.9318   18.4328 C   0  0  0  0  0  0  0  0  0  0  0  0
  -25.9019  -11.5091   20.4935 N   0  0  0  0  0  0  0  0  0  0  0  0
  -26.2411  -12.7671   20.1642 N   0  0  0  0  0  0  0  0  0  0  0  0
  -24.5594  -30.4782   21.6921 N   0  0  0  0  0  0  0  0  0  0  0  0
  -29.9116  -13.7658   20.5012 N   0  0  0  0  0  0  0  0  0  0  0  0
  -25.3764  -14.9618   19.9490 N   0  0  0  0  0  0  0  0  0  0  0  0
  -21.7982  -12.5599   21.2991 N   0  0  0  0  0  0  0  0  0  0  0  0
  -29.8557  -16.0111   21.2209 N   0  0  0  0  0  0  0  0  0  0  0  0
  -27.8348  -20.3281   23.0950 N   0  0  0  0  0  0  0  0  0  0  0  0
  -21.2513  -29.4071   22.7901 N   0  0  0  0  0  0  0  0  0  0  0  0
  -26.6155  -32.6833   20.1533 N   0  0  0  0  0  0  0  0  0  0  0  0
  -29.8279  -33.1887   21.7321 N   0  3  0  0  0  0  0  0  0  0  0  0
  -29.2638  -20.6693   24.8909 O   0  0  0  0  0  0  0  0  0  0  0  0
  -22.5159  -14.6527   20.6962 O   0  0  0  0  0  0  0  0  0  0  0  0
  -22.5171  -29.1932   20.8473 O   0  0  0  0  0  0  0  0  0  0  0  0
  -27.7066  -22.7384   21.7701 O   0  0  0  0  0  0  0  0  0  0  0  0
  -23.9398  -32.6662   21.1774 O   0  0  0  0  0  0  0  0  0  0  0  0
  -28.3795  -31.1946   20.3750 O   0  0  0  0  0  0  0  0  0  0  0  0
  -31.7579  -15.1298   20.2275 O   0  0  0  0  0  0  0  0  0  0  0  0
  -21.7195   -7.0969   22.3879 O   0  0  0  0  0  0  0  0  0  0  0  0
  -27.1579  -25.0463   23.0316 O   0  0  0  0  0  0  0  0  0  1  0  0
  -18.3670   -7.6092   26.7357 F   0  0  0  0  0  0  0  0  0  0  0  0
  -33.5004  -18.3725   23.2723 F   0  0  0  0  0  0  0  0  0  0  0  0
  -22.0820   -5.5477   24.6487 F   0  0  0  0  0  0  0  0  0  0  0  0
  -31.7721  -20.2185   24.2860 F   0  0  0  0  0  0  0  0  0  0  0  0
  1  2  1  0  0  0  0
  1  5  2  0  0  0  0
  2  6  2  0  0  0  0
  3  8  2  0  0  0  0
  3 17  1  0  0  0  0
  4  9  1  0  0  0  0
  4 17  2  0  0  0  0
  5 20  1  0  0  0  0
  6 22  1  0  0  0  0
  7 10  2  0  0  0  0
  7 21  1  0  0  0  0
  8 25  1  0  0  0  0
  9 25  2  0  0  0  0
 10 26  1  0  0  0  0
 11 12  2  0  0  0  0
 11 27  1  0  0  0  0
 12 28  1  0  0  0  0
 13 18  1  0  0  0  0
 13 24  2  0  0  0  0
 14 23  1  0  0  0  0
 14 26  2  0  0  0  0
 15 24  1  0  0  0  0
 15 29  2  0  0  0  0
 16 28  2  0  0  0  0
 16 30  1  0  0  0  0
 17 32  1  0  0  0  0
 18 31  2  0  0  0  0
 18 34  1  0  0  0  0
 19 32  1  0  0  0  0
 19 33  2  0  0  0  0
 19 35  1  0  0  0  0
 20 22  2  0  0  0  0
 20 41  1  0  0  0  0
 21 23  2  0  0  0  0
 21 42  1  0  0  0  0
 22 50  1  0  0  0  0
 23 43  1  0  0  0  0
 24 69  1  0  0  0  0
 25 81  1  0  0  0  0
 26 82  1  0  0  0  0
 27 30  2  0  0  0  0
 27 81  1  0  0  0  0
 28 83  1  0  0  0  0
 29 31  1  0  0  0  0
 29 84  1  0  0  0  0
 30 85  1  0  0  0  0
 31 86  1  0  0  0  0
 32 63  2  0  0  0  0
 33 64  1  0  0  0  0
 33 67  1  0  0  0  0
 34 70  1  0  0  0  0
 34 74  2  0  0  0  0
 35 68  1  0  0  0  0
 35 75  2  0  0  0  0
 36 51  1  0  0  0  0
 36 71  1  0  0  0  0
 36 76  2  0  0  0  0
 37 58  1  0  0  0  0
 37 59  1  0  0  0  0
 37 77  2  0  0  0  0
 38 60  1  0  0  0  0
 38 65  1  0  0  0  0
 38 78  2  0  0  0  0
 39 61  1  0  0  0  0
 39 72  1  0  0  0  0
 39 79  2  0  0  0  0
 40 66  1  0  0  0  0
 40 69  1  0  0  0  0
 40 80  2  0  0  0  0
 41 44  1  0  0  0  0
 42 51  1  0  0  0  0
 43 65  1  0  0  0  0
 44 46  1  0  0  0  0
 45 47  1  0  0  0  0
 45 48  1  0  0  0  0
 46 50  1  0  0  0  0
 47 52  1  0  0  0  0
 48 66  1  0  0  0  0
 49 52  1  0  0  0  0
 49 66  1  0  0  0  0
 50 71  1  0  0  0  0
 51 65  1  0  0  0  0
 52 64  1  0  0  0  0
 53 61  1  0  0  0  0
 54 62  1  0  0  0  0
 55 62  1  0  0  0  0
 56 62  1  0  0  0  0
 57 73  1  0  0  0  0
 58 70  1  0  0  0  0
 59 82  1  0  0  0  0
 60 62  1  0  0  0  0
 60 72  1  0  0  0  0
 61 73  1  0  0  0  0
 63 64  1  0  0  0  0
M  CHG  1  73   1
M  ISO  4  40 100  59 101  69 100  82 101
M  END
> <Batch ID>
0174

> <Smiles>
CNC(C)C(=O)NC(C(=O)N1Cc2cc([101O:1][101CH2:1]C(=O)CNC(=O)c3cc([100NH:0][100C:0](=O)N4CCCC(n5nc(-c6ccc(Oc7ccc(F)cc7F)cc6)c(C(N)=O)c5N)C4)cc(F)c3F)ccc2CC1C(=O)NC1CCCc2ccccc21)C(C)(C)C

> <Shape>
0.267

> <Color>
0.191

> <Negative vol penalty>
0.000

$$$$

  -OEChem-04052304333D

 87 95  0     1  0  0  0  0  0999 V2000
  -26.5649  -13.4251   37.3531 C   0  0  0  0  0  0  0  0  0  0  0  0
  -27.4075  -14.0046   36.4099 C   0  0  0  0  0  0  0  0  0  0  0  0
  -23.3371  -10.1588   22.2377 C   0  0  0  0  0  0  0  0  0  0  0  0
  -23.5797   -9.5448   19.9136 C   0  0  0  0  0  0  0  0  0  0  0  0
  -32.7343  -17.3599   23.4897 C   0  0  0  0  0  0  0  0  0  0  0  0
  -25.5984  -12.5044   36.9506 C   0  0  0  0  0  0  0  0  0  0  0  0
  -27.2848  -13.6628   35.0636 C   0  0  0  0  0  0  0  0  0  0  0  0
  -27.4473  -17.7004   32.0114 C   0  0  0  0  0  0  0  0  0  0  0  0
  -32.1230  -16.5072   22.5706 C   0  0  0  0  0  0  0  0  0  0  0  0
  -22.5923   -9.0018   22.4656 C   0  0  0  0  0  0  0  0  0  0  0  0
  -22.8349   -8.3877   20.1416 C   0  0  0  0  0  0  0  0  0  0  0  0
  -28.7013  -18.2508   31.7499 C   0  0  0  0  0  0  0  0  0  0  0  0
  -19.4258   -7.9369   21.9523 C   0  0  0  0  0  0  0  0  0  0  0  0
  -18.2584   -8.0565   22.7063 C   0  0  0  0  0  0  0  0  0  0  0  0
  -28.7544  -17.1062   29.6272 C   0  0  0  0  0  0  0  0  0  0  0  0
  -19.1514   -6.5106   24.3341 C   0  0  0  0  0  0  0  0  0  0  0  0
  -23.8308  -10.4304   20.9616 C   0  0  0  0  0  0  0  0  0  0  0  0
  -31.9568  -18.2064   24.2801 C   0  0  0  0  0  0  0  0  0  0  0  0
  -24.1812  -12.9568   20.9126 C   0  0  0  0  0  0  0  0  0  0  0  0
  -25.4574  -12.1583   35.5974 C   0  0  0  0  0  0  0  0  0  0  0  0
  -26.8413  -16.8386   31.0860 C   0  0  0  0  0  0  0  0  0  0  0  0
  -26.3164  -12.7355   34.6427 C   0  0  0  0  0  0  0  0  0  0  0  0
  -27.4916  -16.5481   29.8782 C   0  0  0  0  0  0  0  0  0  0  0  0
  -30.7341  -16.5010   22.4417 C   0  0  0  0  0  0  0  0  0  0  0  0
  -22.3412   -8.1162   21.4176 C   0  0  0  0  0  0  0  0  0  0  0  0
  -29.3563  -17.9515   30.5590 C   0  0  0  0  0  0  0  0  0  0  0  0
  -20.4559   -7.1040   22.3891 C   0  0  0  0  0  0  0  0  0  0  0  0
  -18.1212   -7.3435   23.8972 C   0  0  0  0  0  0  0  0  0  0  0  0
  -20.3188   -6.3910   23.5801 C   0  0  0  0  0  0  0  0  0  0  0  0
  -30.5679  -18.2002   24.1511 C   0  0  0  0  0  0  0  0  0  0  0  0
  -29.9565  -17.3475   23.2320 C   0  0  0  0  0  0  0  0  0  0  0  0
  -24.5998  -11.6258   20.7253 C   0  0  0  0  0  0  0  0  0  0  0  0
  -25.2692  -13.7130   20.5508 C   0  0  0  0  0  0  0  0  0  0  0  0
  -32.6121  -19.1121   25.2585 C   0  0  0  0  0  0  0  0  0  0  0  0
  -22.9216  -13.4641   21.3727 C   0  0  0  0  0  0  0  0  0  0  0  0
  -25.9042  -13.8016   31.1290 C   0  0  0  0  0  0  0  0  0  0  0  0
  -31.8771  -19.8850   28.8105 C   0  0  0  0  0  0  0  0  0  0  0  0
  -24.6973  -14.5390   28.2097 C   0  0  0  0  0  0  0  0  0  0  0  0
  -24.8116  -16.5423   25.4492 C   0  0  0  0  0  0  0  0  0  0  0  0
  -30.7423  -14.7321   20.6481 C   0  0  0  0  0  0  0  0  0  0  0  0
  -24.4295  -11.1226   35.2163 C   0  0  0  0  0  0  0  0  0  0  0  0
  -25.4765  -16.2743   31.3712 C   0  0  0  0  0  0  0  0  0  0  0  0
  -26.8749  -15.6447   28.8428 C   0  0  0  0  0  0  0  0  0  0  0  0
  -24.1163  -11.0962   33.7225 C   0  0  0  0  0  0  0  0  0  0  0  0
  -29.5704  -12.3969   18.2293 C   0  0  0  0  0  0  0  0  0  0  0  0
  -25.4047  -11.1232   32.9063 C   0  0  0  0  0  0  0  0  0  0  0  0
  -28.1383  -12.0976   18.6785 C   0  0  0  0  0  0  0  0  0  0  0  0
  -30.5102  -12.5850   19.4189 C   0  0  0  0  0  0  0  0  0  0  0  0
  -28.6344  -13.2736   20.8598 C   0  0  0  0  0  0  0  0  0  0  0  0
  -26.1978  -12.4089   33.1699 C   0  0  1  0  0  0  0  0  0  0  0  0
  -25.1803  -15.0007   30.5852 C   0  0  1  0  0  0  0  0  0  0  0  0
  -27.6375  -13.1405   19.6969 C   0  0  2  0  0  0  0  0  0  0  0  0
  -31.9717  -21.7388   27.1174 C   0  0  0  0  0  0  0  0  0  0  0  0
  -24.1185  -17.4957   23.2338 C   0  0  0  0  0  0  0  0  0  0  0  0
  -26.2345  -12.1446   27.1079 C   0  0  0  0  0  0  0  0  0  0  0  0
  -25.8970  -13.0747   24.8081 C   0  0  0  0  0  0  0  0  0  0  0  0
  -23.9253  -12.4154   26.1867 C   0  0  0  0  0  0  0  0  0  0  0  0
  -23.0050  -18.5065   26.7287 C   0  0  0  0  0  0  0  0  0  0  0  0
  -30.9137  -18.7182   28.9333 C   0  0  0  0  0  0  0  0  0  1  0  0
  -32.3631  -20.3008   27.4220 C   0  0  2  0  0  0  0  0  0  0  0  0
  -25.2220  -14.4989   26.7948 C   0  0  1  0  0  0  0  0  0  0  0  0
  -23.7182  -17.2642   24.6826 C   0  0  2  0  0  0  0  0  0  0  0  0
  -25.3325  -13.0489   26.2445 C   0  0  0  0  0  0  0  0  0  0  0  0
  -25.8556  -11.5382   20.2790 N   0  0  0  0  0  0  0  0  0  0  0  0
  -26.2355  -12.8237   20.1828 N   0  0  0  0  0  0  0  0  0  0  0  0
  -25.5419  -15.1126   29.1707 N   0  0  0  0  0  0  0  0  0  0  0  0
  -29.9734  -13.5903   20.3386 N   0  0  0  0  0  0  0  0  0  0  0  0
  -25.4839  -15.0453   20.5147 N   0  0  0  0  0  0  0  0  0  0  0  0
  -21.9244  -13.7350   20.4258 N   0  0  0  0  0  0  0  0  0  0  0  0
  -30.1154  -15.6338   21.5074 N   0  0  0  0  0  0  0  0  0  0  0  0
  -31.8749  -19.4189   26.3953 N   0  0  0  0  0  0  0  0  0  0  0  0
  -25.6130  -13.5200   32.4501 N   0  0  0  0  0  0  0  0  0  0  0  0
  -24.3523  -15.3704   26.0121 N   0  0  0  0  0  0  0  0  0  0  0  0
  -23.4331  -18.5863   25.3084 N   0  3  0  0  0  0  0  0  0  0  0  0
  -33.7331  -19.5501   25.0132 O   0  0  0  0  0  0  0  0  0  0  0  0
  -22.6930  -13.6867   22.5858 O   0  0  0  0  0  0  0  0  0  0  0  0
  -26.6690  -13.1771   30.4032 O   0  0  0  0  0  0  0  0  0  0  0  0
  -32.3052  -20.4591   29.8157 O   0  0  0  0  0  0  0  0  0  0  0  0
  -23.5764  -14.0847   28.4521 O   0  0  0  0  0  0  0  0  0  0  0  0
  -25.9594  -16.9730   25.5367 O   0  0  0  0  0  0  0  0  0  0  0  0
  -31.8626  -14.9110   20.1633 O   0  0  0  0  0  0  0  0  0  0  0  0
  -21.6146   -6.9869   21.6398 O   0  0  0  0  0  0  0  0  0  0  0  0
  -30.5806  -18.4869   30.3015 O   0  0  0  0  0  0  0  0  0  1  0  0
  -17.0008   -7.4597   24.6220 F   0  0  0  0  0  0  0  0  0  0  0  0
  -21.3055   -5.5902   24.0055 F   0  0  0  0  0  0  0  0  0  0  0  0
  -29.8102  -19.0094   24.9054 F   0  0  0  0  0  0  0  0  0  0  0  0
  -28.6210  -17.3505   23.1165 F   0  0  0  0  0  0  0  0  0  0  0  0
  1  2  1  0  0  0  0
  1  6  2  0  0  0  0
  2  7  2  0  0  0  0
  3 10  2  0  0  0  0
  3 17  1  0  0  0  0
  4 11  1  0  0  0  0
  4 17  2  0  0  0  0
  5  9  2  0  0  0  0
  5 18  1  0  0  0  0
  6 20  1  0  0  0  0
  7 22  1  0  0  0  0
  8 12  2  0  0  0  0
  8 21  1  0  0  0  0
  9 24  1  0  0  0  0
 10 25  1  0  0  0  0
 11 25  2  0  0  0  0
 12 26  1  0  0  0  0
 13 14  2  0  0  0  0
 13 27  1  0  0  0  0
 14 28  1  0  0  0  0
 15 23  1  0  0  0  0
 15 26  2  0  0  0  0
 16 28  2  0  0  0  0
 16 29  1  0  0  0  0
 17 32  1  0  0  0  0
 18 30  2  0  0  0  0
 18 34  1  0  0  0  0
 19 32  1  0  0  0  0
 19 33  2  0  0  0  0
 19 35  1  0  0  0  0
 20 22  2  0  0  0  0
 20 41  1  0  0  0  0
 21 23  2  0  0  0  0
 21 42  1  0  0  0  0
 22 50  1  0  0  0  0
 23 43  1  0  0  0  0
 24 31  2  0  0  0  0
 24 70  1  0  0  0  0
 25 82  1  0  0  0  0
 26 83  1  0  0  0  0
 27 29  2  0  0  0  0
 27 82  1  0  0  0  0
 28 84  1  0  0  0  0
 29 85  1  0  0  0  0
 30 31  1  0  0  0  0
 30 86  1  0  0  0  0
 31 87  1  0  0  0  0
 32 64  2  0  0  0  0
 33 65  1  0  0  0  0
 33 68  1  0  0  0  0
 34 71  1  0  0  0  0
 34 75  2  0  0  0  0
 35 69  1  0  0  0  0
 35 76  2  0  0  0  0
 36 51  1  0  0  0  0
 36 72  1  0  0  0  0
 36 77  2  0  0  0  0
 37 59  1  0  0  0  0
 37 60  1  0  0  0  0
 37 78  2  0  0  0  0
 38 61  1  0  0  0  0
 38 66  1  0  0  0  0
 38 79  2  0  0  0  0
 39 62  1  0  0  0  0
 39 73  1  0  0  0  0
 39 80  2  0  0  0  0
 40 67  1  0  0  0  0
 40 70  1  0  0  0  0
 40 81  2  0  0  0  0
 41 44  1  0  0  0  0
 42 51  1  0  0  0  0
 43 66  1  0  0  0  0
 44 46  1  0  0  0  0
 45 47  1  0  0  0  0
 45 48  1  0  0  0  0
 46 50  1  0  0  0  0
 47 52  1  0  0  0  0
 48 67  1  0  0  0  0
 49 52  1  0  0  0  0
 49 67  1  0  0  0  0
 50 72  1  0  0  0  0
 51 66  1  0  0  0  0
 52 65  1  0  0  0  0
 53 60  1  0  0  0  0
 54 62  1  0  0  0  0
 55 63  1  0  0  0  0
 56 63  1  0  0  0  0
 57 63  1  0  0  0  0
 58 74  1  0  0  0  0
 59 83  1  0  0  0  0
 60 71  1  0  0  0  0
 61 63  1  0  0  0  0
 61 73  1  0  0  0  0
 62 74  1  0  0  0  0
 64 65  1  0  0  0  0
M  CHG  1  74   1
M  ISO  4  40 100  59 101  70 100  83 101
M  END
> <Batch ID>
0174

> <Smiles>
CNC(C)C(=O)NC(C(=O)N1Cc2cc([101O:1][101CH2:1]C(=O)C(C)NC(=O)c3ccc([100NH:0][100C:0](=O)N4CCCC(n5nc(-c6ccc(Oc7ccc(F)cc7F)cc6)c(C(N)=O)c5N)C4)c(F)c3F)ccc2CC1C(=O)NC1CCCc2ccccc21)C(C)(C)C

> <Shape>
0.150

> <Color>
0.156

> <Negative vol penalty>
0.000

$$$$

  -OEChem-04052304333D

 88 96  0     1  0  0  0  0  0999 V2000
  -16.5000  -29.3357   23.8038 C   0  0  0  0  0  0  0  0  0  0  0  0
  -17.3416  -28.2409   23.9726 C   0  0  0  0  0  0  0  0  0  0  0  0
  -23.9613   -9.4959   21.9073 C   0  0  0  0  0  0  0  0  0  0  0  0
  -22.7595  -11.4408   21.1262 C   0  0  0  0  0  0  0  0  0  0  0  0
  -17.0036  -30.5268   23.2825 C   0  0  0  0  0  0  0  0  0  0  0  0
  -18.6871  -28.3362   23.6191 C   0  0  0  0  0  0  0  0  0  0  0  0
  -23.4250  -25.6310   26.4012 C   0  0  0  0  0  0  0  0  0  0  0  0
  -22.9676   -9.2637   22.8582 C   0  0  0  0  0  0  0  0  0  0  0  0
  -21.7657  -11.2086   22.0770 C   0  0  0  0  0  0  0  0  0  0  0  0
  -24.1438  -24.4713   26.1144 C   0  0  0  0  0  0  0  0  0  0  0  0
  -19.8602   -7.9330   22.9398 C   0  0  0  0  0  0  0  0  0  0  0  0
  -19.3991   -6.6251   23.0894 C   0  0  0  0  0  0  0  0  0  0  0  0
  -25.8052  -25.7919   24.9678 C   0  0  0  0  0  0  0  0  0  0  0  0
  -26.8853  -19.7978   19.0428 C   0  0  0  0  0  0  0  0  0  0  0  0
  -20.1034   -6.6411   25.4004 C   0  0  0  0  0  0  0  0  0  0  0  0
  -23.8573  -10.5845   21.0413 C   0  0  0  0  0  0  0  0  0  0  0  0
  -24.9345  -10.3281   18.7431 C   0  0  0  0  0  0  0  0  0  0  0  0
  -18.3581  -30.6397   22.9315 C   0  0  0  0  0  0  0  0  0  0  0  0
  -23.8862  -26.8808   25.9633 C   0  0  0  0  0  0  0  0  0  0  0  0
  -19.2090  -29.5294   23.0913 C   0  0  0  0  0  0  0  0  0  0  0  0
  -25.0918  -26.9662   25.2526 C   0  0  0  0  0  0  0  0  0  0  0  0
  -26.7528  -18.4018   18.7905 C   0  0  0  0  0  0  0  0  0  0  0  0
  -21.8698  -10.1200   22.9430 C   0  0  0  0  0  0  0  0  0  0  0  0
  -25.3326  -24.5513   25.3951 C   0  0  0  0  0  0  0  0  0  0  0  0
  -20.4431   -8.5949   24.0205 C   0  0  0  0  0  0  0  0  0  0  0  0
  -19.5206   -5.9791   24.3197 C   0  0  0  0  0  0  0  0  0  0  0  0
  -20.5647   -7.9489   25.2508 C   0  0  0  0  0  0  0  0  0  0  0  0
  -24.8838  -10.8252   20.0592 C   0  0  0  0  0  0  0  0  0  0  0  0
  -28.1033  -20.1084   19.6063 C   0  0  0  0  0  0  0  0  0  0  0  0
  -26.0991  -10.8414   18.2268 C   0  0  0  0  0  0  0  0  0  0  0  0
  -27.8748  -17.6985   19.1705 C   0  0  0  0  0  0  0  0  0  0  0  0
  -26.2506  -23.1073   23.8004 C   0  0  0  0  0  0  0  0  0  1  0  0
  -24.0113   -9.4784   18.0493 C   0  0  0  0  0  0  0  0  0  0  0  0
  -26.9275  -22.0222   23.4077 C   0  0  0  0  0  0  0  0  0  0  0  0
  -27.0654  -21.7757   21.9438 C   0  0  0  0  0  0  0  0  0  0  0  0
  -22.7634  -29.1305   24.0186 C   0  0  0  0  0  0  0  0  0  0  0  0
  -28.1079  -22.5812   19.1203 C   0  0  0  0  0  0  0  0  0  0  0  0
  -25.3569  -30.7769   25.0604 C   0  0  0  0  0  0  0  0  0  0  0  0
  -28.4957  -30.6945   26.3977 C   0  0  0  0  0  0  0  0  0  0  0  0
  -29.3500  -15.6861   19.5174 C   0  0  0  0  0  0  0  0  0  0  0  0
  -18.8461  -31.9328   22.3277 C   0  0  0  0  0  0  0  0  0  0  0  0
  -23.1130  -28.1252   26.3040 C   0  0  0  0  0  0  0  0  0  0  0  0
  -25.6405  -28.2859   24.7773 C   0  0  0  0  0  0  0  0  0  0  0  0
  -20.3665  -32.0696   22.3280 C   0  0  0  0  0  0  0  0  0  0  0  0
  -30.4609  -12.3036   19.5576 C   0  0  0  0  0  0  0  0  0  0  0  0
  -21.0182  -30.7845   21.8275 C   0  0  0  0  0  0  0  0  0  0  0  0
  -29.1614  -11.4953   19.5649 C   0  0  0  0  0  0  0  0  0  0  0  0
  -30.3397  -13.5798   20.3885 C   0  0  0  0  0  0  0  0  0  0  0  0
  -27.8997  -13.6303   20.0519 C   0  0  0  0  0  0  0  0  0  0  0  0
  -20.6799  -29.6016   22.7428 C   0  0  1  0  0  0  0  0  0  0  0  0
  -23.4113  -29.2899   25.3649 C   0  0  1  0  0  0  0  0  0  0  0  0
  -27.9525  -12.3684   19.1752 C   0  0  2  0  0  0  0  0  0  0  0  0
  -25.5447  -17.7895   18.1870 C   0  0  0  0  0  0  0  0  0  0  0  0
  -28.4152  -22.5423   17.6442 C   0  0  0  0  0  0  0  0  0  0  0  0
  -30.3779  -32.1984   27.0997 C   0  0  0  0  0  0  0  0  0  0  0  0
  -26.1117  -31.1944   22.1336 C   0  0  0  0  0  0  0  0  0  0  0  0
  -28.4102  -31.8367   22.8903 C   0  0  0  0  0  0  0  0  0  0  0  0
  -26.4418  -33.1988   23.5923 C   0  0  0  0  0  0  0  0  0  0  0  0
  -29.5424  -21.9380   22.2643 C   0  0  0  0  0  0  0  0  0  0  0  0
  -28.3419  -29.7695   29.2048 C   0  0  0  0  0  0  0  0  0  0  0  0
  -28.6303  -21.4631   20.0209 C   0  0  1  0  0  0  0  0  0  0  0  0
  -26.7911  -30.9102   24.6082 C   0  0  1  0  0  0  0  0  0  0  0  0
  -29.1221  -31.4656   27.5455 C   0  0  2  0  0  0  0  0  0  0  0  0
  -26.9276  -31.7598   23.3133 C   0  0  0  0  0  0  0  0  0  0  0  0
  -25.9329  -11.5950   20.3604 N   0  0  0  0  0  0  0  0  0  0  0  0
  -26.6538  -11.5855   19.2263 N   0  0  0  0  0  0  0  0  0  0  0  0
  -24.8449  -29.4735   25.1298 N   0  0  0  0  0  0  0  0  0  0  0  0
  -29.1752  -14.3580   19.9605 N   0  0  0  0  0  0  0  0  0  0  0  0
  -26.6926  -10.7243   17.0200 N   0  0  0  0  0  0  0  0  0  0  0  0
  -22.8653   -9.0419   18.7280 N   0  0  0  0  0  0  0  0  0  0  0  0
  -28.1761  -16.3155   19.1048 N   0  0  0  0  0  0  0  0  0  0  0  0
  -21.4838  -29.6468   23.9453 N   0  0  0  0  0  0  0  0  0  0  0  0
  -27.5316  -31.4371   25.7495 N   0  0  0  0  0  0  0  0  0  0  0  0
  -28.3620  -21.7272   21.4284 N   0  0  0  0  0  0  0  0  0  0  0  0
  -29.4872  -30.5388   28.6540 N   0  3  0  0  0  0  0  0  0  0  0  0
  -24.2053   -9.1036   16.8680 O   0  0  0  0  0  0  0  0  0  0  0  0
  -26.0467  -21.6033   21.2713 O   0  0  0  0  0  0  0  0  0  0  0  0
  -23.3795  -28.5811   23.1129 O   0  0  0  0  0  0  0  0  0  0  0  0
  -27.4189  -23.4938   19.5845 O   0  0  0  0  0  0  0  0  0  0  0  0
  -24.7169  -31.7912   25.3485 O   0  0  0  0  0  0  0  0  0  0  0  0
  -28.8309  -29.5493   26.1032 O   0  0  0  0  0  0  0  0  0  0  0  0
  -30.4633  -16.2163   19.4793 O   0  0  0  0  0  0  0  0  0  0  0  0
  -27.4509  -21.0983   24.2844 O   0  0  0  0  0  0  0  0  0  0  0  0
  -20.8997   -9.8936   23.8706 O   0  0  0  0  0  0  0  0  0  0  0  0
  -26.0357  -23.4208   25.1132 O   0  0  0  0  0  0  0  0  0  1  0  0
  -19.0763   -4.7237   24.4636 F   0  0  0  0  0  0  0  0  0  0  0  0
  -21.1226   -8.5801   26.2929 F   0  0  0  0  0  0  0  0  0  0  0  0
  -29.0810  -18.7203   19.8288 S   0  0  0  0  0  0  0  0  0  0  0  0
  1  2  1  0  0  0  0
  1  5  2  0  0  0  0
  2  6  2  0  0  0  0
  3  8  2  0  0  0  0
  3 16  1  0  0  0  0
  4  9  1  0  0  0  0
  4 16  2  0  0  0  0
  5 18  1  0  0  0  0
  6 20  1  0  0  0  0
  7 10  2  0  0  0  0
  7 19  1  0  0  0  0
  8 23  1  0  0  0  0
  9 23  2  0  0  0  0
 10 24  1  0  0  0  0
 11 12  2  0  0  0  0
 11 25  1  0  0  0  0
 12 26  1  0  0  0  0
 13 21  1  0  0  0  0
 13 24  2  0  0  0  0
 14 22  1  0  0  0  0
 14 29  2  0  0  0  0
 15 26  2  0  0  0  0
 15 27  1  0  0  0  0
 16 28  1  0  0  0  0
 17 28  1  0  0  0  0
 17 30  2  0  0  0  0
 17 33  1  0  0  0  0
 18 20  2  0  0  0  0
 18 41  1  0  0  0  0
 19 21  2  0  0  0  0
 19 42  1  0  0  0  0
 20 50  1  0  0  0  0
 21 43  1  0  0  0  0
 22 31  2  0  0  0  0
 22 53  1  0  0  0  0
 23 84  1  0  0  0  0
 24 85  1  0  0  0  0
 25 27  2  0  0  0  0
 25 84  1  0  0  0  0
 26 86  1  0  0  0  0
 27 87  1  0  0  0  0
 28 65  2  0  0  0  0
 29 61  1  0  0  0  0
 29 88  1  0  0  0  0
 30 66  1  0  0  0  0
 30 69  1  0  0  0  0
 31 71  1  0  0  0  0
 31 88  1  0  0  0  0
 32 34  2  0  0  0  0
 32 85  1  0  0  0  0
 33 70  1  0  0  0  0
 33 76  2  0  0  0  0
 34 35  1  0  0  0  0
 34 83  1  0  0  0  0
 35 74  1  0  0  0  0
 35 77  2  0  0  0  0
 36 51  1  0  0  0  0
 36 72  1  0  0  0  0
 36 78  2  0  0  0  0
 37 54  1  0  0  0  0
 37 61  1  0  0  0  0
 37 79  2  0  0  0  0
 38 62  1  0  0  0  0
 38 67  1  0  0  0  0
 38 80  2  0  0  0  0
 39 63  1  0  0  0  0
 39 73  1  0  0  0  0
 39 81  2  0  0  0  0
 40 68  1  0  0  0  0
 40 71  1  0  0  0  0
 40 82  2  0  0  0  0
 41 44  1  0  0  0  0
 42 51  1  0  0  0  0
 43 67  1  0  0  0  0
 44 46  1  0  0  0  0
 45 47  1  0  0  0  0
 45 48  1  0  0  0  0
 46 50  1  0  0  0  0
 47 52  1  0  0  0  0
 48 68  1  0  0  0  0
 49 52  1  0  0  0  0
 49 68  1  0  0  0  0
 50 72  1  0  0  0  0
 51 67  1  0  0  0  0
 52 66  1  0  0  0  0
 55 63  1  0  0  0  0
 56 64  1  0  0  0  0
 57 64  1  0  0  0  0
 58 64  1  0  0  0  0
 59 74  1  0  0  0  0
 60 75  1  0  0  0  0
 61 74  1  0  0  0  0
 62 64  1  0  0  0  0
 62 73  1  0  0  0  0
 63 75  1  0  0  0  0
 65 66  1  0  0  0  0
M  CHG  1  75   1
M  ISO  4  32 101  40 100  71 100  85 101
M  END
> <Batch ID>
0174

> <Smiles>
CNC(C)C(=O)NC(C(=O)N1Cc2cc([101O:1][101CH2:1]C(=O)C(=O)N(C)C(C(C)=O)c3cc(C)c([100NH:0][100C:0](=O)N4CCCC(n5nc(-c6ccc(Oc7ccc(F)cc7F)cc6)c(C(N)=O)c5N)C4)s3)ccc2CC1C(=O)NC1CCCc2ccccc21)C(C)(C)C

> <Shape>
0.245

> <Color>
0.079

> <Negative vol penalty>
0.000

$$$$

  -OEChem-04052304333D

 87 95  0     1  0  0  0  0  0999 V2000
  -27.5126  -25.0869   16.2472 C   0  0  0  0  0  0  0  0  0  0  0  0
  -26.3522  -25.3127   16.9807 C   0  0  0  0  0  0  0  0  0  0  0  0
  -26.2191  -12.4408   21.3190 C   0  0  0  0  0  0  0  0  0  0  0  0
  -24.1896  -12.5851   20.0162 C   0  0  0  0  0  0  0  0  0  0  0  0
  -28.7476  -25.4820   16.7596 C   0  0  0  0  0  0  0  0  0  0  0  0
  -26.4263  -25.9327   18.2275 C   0  0  0  0  0  0  0  0  0  0  0  0
  -22.8892  -29.5057   18.8336 C   0  0  0  0  0  0  0  0  0  0  0  0
  -25.7476  -11.2762   21.9246 C   0  0  0  0  0  0  0  0  0  0  0  0
  -23.7181  -11.4203   20.6218 C   0  0  0  0  0  0  0  0  0  0  0  0
  -21.5962  -29.0776   19.1314 C   0  0  0  0  0  0  0  0  0  0  0  0
  -24.2024   -8.0890   20.3251 C   0  0  0  0  0  0  0  0  0  0  0  0
  -23.6213   -7.1228   19.5038 C   0  0  0  0  0  0  0  0  0  0  0  0
  -21.9735  -29.5781   21.4609 C   0  0  0  0  0  0  0  0  0  0  0  0
  -21.0820  -21.5358   19.8941 C   0  0  0  0  0  0  0  0  0  0  0  0
  -18.9144  -21.2615   18.8630 C   0  0  0  0  0  0  0  0  0  0  0  0
  -20.7110  -19.7395   18.3216 C   0  0  0  0  0  0  0  0  0  0  0  0
  -21.5531   -7.3181   20.7372 C   0  0  0  0  0  0  0  0  0  0  0  0
  -25.4401  -13.0953   20.3648 C   0  0  0  0  0  0  0  0  0  0  0  0
  -26.6897  -14.3954   18.5604 C   0  0  0  0  0  0  0  0  0  0  0  0
  -28.8359  -26.1159   18.0090 C   0  0  0  0  0  0  0  0  0  0  0  0
  -23.7392  -29.9637   19.8505 C   0  0  0  0  0  0  0  0  0  0  0  0
  -27.6638  -26.3354   18.7576 C   0  0  0  0  0  0  0  0  0  0  0  0
  -23.2759  -30.0138   21.1730 C   0  0  0  0  0  0  0  0  0  0  0  0
  -19.7607  -21.9517   19.7309 C   0  0  0  0  0  0  0  0  0  0  0  0
  -21.5572  -20.4297   19.1894 C   0  0  0  0  0  0  0  0  0  0  0  0
  -24.4971  -10.7659   21.5760 C   0  0  0  0  0  0  0  0  0  0  0  0
  -21.1391  -29.1110   20.4456 C   0  0  0  0  0  0  0  0  0  0  0  0
  -23.4588   -8.6696   21.3526 C   0  0  0  0  0  0  0  0  0  0  0  0
  -22.2967   -6.7374   19.7098 C   0  0  0  0  0  0  0  0  0  0  0  0
  -19.3896  -20.1554   18.1584 C   0  0  0  0  0  0  0  0  0  0  0  0
  -22.1342   -8.2842   21.5586 C   0  0  0  0  0  0  0  0  0  0  0  0
  -25.9263  -14.2988   19.7393 C   0  0  0  0  0  0  0  0  0  0  0  0
  -26.8925  -15.7434   18.3921 C   0  0  0  0  0  0  0  0  0  0  0  0
  -27.1723  -13.3593   17.6948 C   0  0  0  0  0  0  0  0  0  0  0  0
  -17.8560  -24.7997   21.2891 C   0  0  0  0  0  0  0  0  0  0  0  0
  -18.0077  -23.6045   20.3926 C   0  0  0  0  0  0  0  0  0  0  0  0
  -26.5346  -29.0191   21.0326 C   0  0  0  0  0  0  0  0  0  0  0  0
  -26.2905  -31.7576   22.7541 C   0  0  0  0  0  0  0  0  0  0  0  0
  -24.2800  -34.1668   24.0958 C   0  0  0  0  0  0  0  0  0  0  0  0
  -23.8706  -20.5800   20.1753 C   0  0  0  0  0  0  0  0  0  0  0  0
  -30.1982  -26.4824   18.5424 C   0  0  0  0  0  0  0  0  0  0  0  0
  -25.1220  -30.4471   19.5090 C   0  0  0  0  0  0  0  0  0  0  0  0
  -24.1421  -30.5159   22.2982 C   0  0  0  0  0  0  0  0  0  0  0  0
  -30.1515  -27.4709   19.7047 C   0  0  0  0  0  0  0  0  0  0  0  0
  -27.2738  -19.8131   20.8874 C   0  0  0  0  0  0  0  0  0  0  0  0
  -29.1017  -27.0448   20.7261 C   0  0  0  0  0  0  0  0  0  0  0  0
  -27.3855  -18.3221   20.5607 C   0  0  0  0  0  0  0  0  0  0  0  0
  -25.9226  -20.1573   21.5115 C   0  0  0  0  0  0  0  0  0  0  0  0
  -24.8643  -18.2201   20.4177 C   0  0  0  0  0  0  0  0  0  0  0  0
  -27.7007  -27.0275   20.1029 C   0  0  1  0  0  0  0  0  0  0  0  0
  -26.0781  -30.4108   20.6972 C   0  0  1  0  0  0  0  0  0  0  0  0
  -26.1833  -17.8362   19.7274 C   0  0  2  0  0  0  0  0  0  0  0  0
  -24.3657  -36.2566   25.4824 C   0  0  0  0  0  0  0  0  0  0  0  0
  -26.7308  -30.0737   25.2602 C   0  0  0  0  0  0  0  0  0  0  0  0
  -25.8735  -31.9951   26.6173 C   0  0  0  0  0  0  0  0  0  0  0  0
  -27.9413  -32.2621   25.2478 C   0  0  0  0  0  0  0  0  0  0  0  0
  -23.1167  -35.7985   21.9179 C   0  0  0  0  0  0  0  0  0  0  0  0
  -18.7871  -25.9618   21.0261 C   0  0  0  0  0  0  0  0  0  0  0  0
  -19.6648  -28.1293   22.0325 C   0  0  0  0  0  0  0  0  0  1  0  0
  -25.6971  -32.1305   24.0911 C   0  0  1  0  0  0  0  0  0  0  0  0
  -24.3715  -35.6819   24.0744 C   0  0  2  0  0  0  0  0  0  0  0  0
  -18.5270  -27.1194   21.9850 C   0  0  1  0  0  0  0  0  0  0  0  0
  -26.5448  -31.6040   25.2834 C   0  0  0  0  0  0  0  0  0  0  0  0
  -25.6623  -15.4905   20.2816 N   0  0  0  0  0  0  0  0  0  0  0  0
  -26.2631  -16.3486   19.4398 N   0  0  0  0  0  0  0  0  0  0  0  0
  -25.4884  -30.9717   21.9146 N   0  0  0  0  0  0  0  0  0  0  0  0
  -24.8313  -19.6701   20.6651 N   0  0  0  0  0  0  0  0  0  0  0  0
  -27.5461  -16.4581   17.4517 N   0  0  0  0  0  0  0  0  0  0  0  0
  -26.8731  -12.0280   18.0149 N   0  0  0  0  0  0  0  0  0  0  0  0
  -19.2785  -23.0733   20.4449 N   0  0  0  0  0  0  0  0  0  0  0  0
  -22.8995  -20.0071   19.3547 N   0  0  0  0  0  0  0  0  0  0  0  0
  -27.1790  -28.3730   19.9949 N   0  0  0  0  0  0  0  0  0  0  0  0
  -25.5272  -33.5794   24.0725 N   0  0  0  0  0  0  0  0  0  0  0  0
  -23.2195  -36.2599   23.3262 N   0  3  0  0  0  0  0  0  0  0  0  0
  -27.8627  -13.6057   16.6768 O   0  0  0  0  0  0  0  0  0  0  0  0
  -16.9995  -24.7425   22.1585 O   0  0  0  0  0  0  0  0  0  0  0  0
  -17.0291  -23.2861   19.7375 O   0  0  0  0  0  0  0  0  0  0  0  0
  -26.3195  -28.5656   22.1505 O   0  0  0  0  0  0  0  0  0  0  0  0
  -27.4212  -32.1550   22.4623 O   0  0  0  0  0  0  0  0  0  0  0  0
  -23.2092  -33.5646   24.1335 O   0  0  0  0  0  0  0  0  0  0  0  0
  -23.9224  -21.7837   20.4406 O   0  0  0  0  0  0  0  0  0  0  0  0
  -24.0368   -9.6293   22.1666 O   0  0  0  0  0  0  0  0  0  0  0  0
  -19.8777  -28.6932   20.7391 O   0  0  0  0  0  0  0  0  0  1  0  0
  -21.7384   -5.8107   18.9201 F   0  0  0  0  0  0  0  0  0  0  0  0
  -18.5773  -19.4929   17.3243 F   0  0  0  0  0  0  0  0  0  0  0  0
  -21.4144   -8.8394   22.5433 F   0  0  0  0  0  0  0  0  0  0  0  0
  -17.4054  -27.7749   21.5654 F   0  0  0  0  0  0  0  0  0  0  0  0
  1  2  1  0  0  0  0
  1  5  2  0  0  0  0
  2  6  2  0  0  0  0
  3  8  2  0  0  0  0
  3 18  1  0  0  0  0
  4  9  1  0  0  0  0
  4 18  2  0  0  0  0
  5 20  1  0  0  0  0
  6 22  1  0  0  0  0
  7 10  2  0  0  0  0
  7 21  1  0  0  0  0
  8 26  1  0  0  0  0
  9 26  2  0  0  0  0
 10 27  1  0  0  0  0
 11 12  2  0  0  0  0
 11 28  1  0  0  0  0
 12 29  1  0  0  0  0
 13 23  1  0  0  0  0
 13 27  2  0  0  0  0
 14 24  2  0  0  0  0
 14 25  1  0  0  0  0
 15 24  1  0  0  0  0
 15 30  2  0  0  0  0
 16 25  2  0  0  0  0
 16 30  1  0  0  0  0
 17 29  2  0  0  0  0
 17 31  1  0  0  0  0
 18 32  1  0  0  0  0
 19 32  1  0  0  0  0
 19 33  2  0  0  0  0
 19 34  1  0  0  0  0
 20 22  2  0  0  0  0
 20 41  1  0  0  0  0
 21 23  2  0  0  0  0
 21 42  1  0  0  0  0
 22 50  1  0  0  0  0
 23 43  1  0  0  0  0
 24 70  1  0  0  0  0
 25 71  1  0  0  0  0
 26 82  1  0  0  0  0
 27 83  1  0  0  0  0
 28 31  2  0  0  0  0
 28 82  1  0  0  0  0
 29 84  1  0  0  0  0
 30 85  1  0  0  0  0
 31 86  1  0  0  0  0
 32 64  2  0  0  0  0
 33 65  1  0  0  0  0
 33 68  1  0  0  0  0
 34 69  1  0  0  0  0
 34 75  2  0  0  0  0
 35 36  1  0  0  0  0
 35 58  1  0  0  0  0
 35 76  2  0  0  0  0
 36 70  1  0  0  0  0
 36 77  2  0  0  0  0
 37 51  1  0  0  0  0
 37 72  1  0  0  0  0
 37 78  2  0  0  0  0
 38 60  1  0  0  0  0
 38 66  1  0  0  0  0
 38 79  2  0  0  0  0
 39 61  1  0  0  0  0
 39 73  1  0  0  0  0
 39 80  2  0  0  0  0
 40 67  1  0  0  0  0
 40 71  1  0  0  0  0
 40 81  2  0  0  0  0
 41 44  1  0  0  0  0
 42 51  1  0  0  0  0
 43 66  1  0  0  0  0
 44 46  1  0  0  0  0
 45 47  1  0  0  0  0
 45 48  1  0  0  0  0
 46 50  1  0  0  0  0
 47 52  1  0  0  0  0
 48 67  1  0  0  0  0
 49 52  1  0  0  0  0
 49 67  1  0  0  0  0
 50 72  1  0  0  0  0
 51 66  1  0  0  0  0
 52 65  1  0  0  0  0
 53 61  1  0  0  0  0
 54 63  1  0  0  0  0
 55 63  1  0  0  0  0
 56 63  1  0  0  0  0
 57 74  1  0  0  0  0
 58 62  1  0  0  0  0
 59 62  1  0  0  0  0
 59 83  1  0  0  0  0
 60 63  1  0  0  0  0
 60 73  1  0  0  0  0
 61 74  1  0  0  0  0
 62 87  1  0  0  0  0
 64 65  1  0  0  0  0
M  CHG  1  74   1
M  ISO  4  40 100  59 101  71 100  83 101
M  END
> <Batch ID>
0174

> <Smiles>
CNC(C)C(=O)NC(C(=O)N1Cc2cc([101O:1][101CH2:1]C(F)CC(=O)C(=O)Nc3cc(F)cc([100NH:0][100C:0](=O)N4CCCC(n5nc(-c6ccc(Oc7ccc(F)cc7F)cc6)c(C(N)=O)c5N)C4)c3)ccc2CC1C(=O)NC1CCCc2ccccc21)C(C)(C)C

> <Shape>
0.291

> <Color>
0.080

> <Negative vol penalty>
0.000

$$$$

  -OEChem-04052304333D

 87 95  0     1  0  0  0  0  0999 V2000
  -21.5625  -35.0328   25.1180 C   0  0  0  0  0  0  0  0  0  0  0  0
  -22.3022  -34.6636   23.9991 C   0  0  0  0  0  0  0  0  0  0  0  0
  -26.6193  -12.5879   21.6168 C   0  0  0  0  0  0  0  0  0  0  0  0
  -26.1620  -13.6465   19.4938 C   0  0  0  0  0  0  0  0  0  0  0  0
  -21.7758  -34.3897   26.3365 C   0  0  0  0  0  0  0  0  0  0  0  0
  -23.2565  -33.6518   24.0984 C   0  0  0  0  0  0  0  0  0  0  0  0
  -24.7331  -29.5491   19.7980 C   0  0  0  0  0  0  0  0  0  0  0  0
  -25.3387  -12.0353   21.6172 C   0  0  0  0  0  0  0  0  0  0  0  0
  -24.8813  -13.0938   19.4941 C   0  0  0  0  0  0  0  0  0  0  0  0
  -25.7744  -29.4937   18.8726 C   0  0  0  0  0  0  0  0  0  0  0  0
  -23.7473   -9.4354   20.1538 C   0  0  0  0  0  0  0  0  0  0  0  0
  -23.6217   -8.0907   20.5025 C   0  0  0  0  0  0  0  0  0  0  0  0
  -27.0330  -28.0945   20.3817 C   0  0  0  0  0  0  0  0  0  0  0  0
  -31.3212  -23.7176   21.6737 C   0  0  0  0  0  0  0  0  0  0  0  0
  -29.8179  -23.0198   19.9158 C   0  0  0  0  0  0  0  0  0  0  0  0
  -22.1912   -8.7036   22.3506 C   0  0  0  0  0  0  0  0  0  0  0  0
  -27.0310  -13.3936   20.5552 C   0  0  0  0  0  0  0  0  0  0  0  0
  -29.5250  -13.3973   20.0188 C   0  0  0  0  0  0  0  0  0  0  0  0
  -22.7264  -33.3628   26.4485 C   0  0  0  0  0  0  0  0  0  0  0  0
  -24.8386  -28.8855   21.0288 C   0  0  0  0  0  0  0  0  0  0  0  0
  -23.4837  -32.9952   25.3199 C   0  0  0  0  0  0  0  0  0  0  0  0
  -25.9905  -28.1409   21.3199 C   0  0  0  0  0  0  0  0  0  0  0  0
  -31.2839  -25.0242   21.1869 C   0  0  0  0  0  0  0  0  0  0  0  0
  -30.5882  -22.7153   21.0381 C   0  0  0  0  0  0  0  0  0  0  0  0
  -30.5136  -25.3287   20.0646 C   0  0  0  0  0  0  0  0  0  0  0  0
  -24.4697  -12.2881   20.5558 C   0  0  0  0  0  0  0  0  0  0  0  0
  -26.9258  -28.7687   19.1656 C   0  0  0  0  0  0  0  0  0  0  0  0
  -23.0949  -10.4143   20.9036 C   0  0  0  0  0  0  0  0  0  0  0  0
  -22.8436   -7.7248   21.6009 C   0  0  0  0  0  0  0  0  0  0  0  0
  -29.7806  -24.3265   19.4290 C   0  0  0  0  0  0  0  0  0  0  0  0
  -22.3169  -10.0483   22.0019 C   0  0  0  0  0  0  0  0  0  0  0  0
  -28.3536  -13.9653   20.5545 C   0  0  0  0  0  0  0  0  0  0  0  0
  -30.5038  -14.3273   20.2707 C   0  0  0  0  0  0  0  0  0  0  0  0
  -29.7116  -12.1413   19.3529 C   0  0  0  0  0  0  0  0  0  0  0  0
  -24.8488  -29.7956   24.0743 C   0  0  0  0  0  0  0  0  0  0  0  0
  -31.3538  -26.2476   17.3619 C   0  0  0  0  0  0  0  0  0  0  0  0
  -24.8371  -26.5988   24.6244 C   0  0  0  0  0  0  0  0  0  0  0  0
  -25.5499  -23.4608   23.4879 C   0  0  0  0  0  0  0  0  0  0  0  0
  -29.9605  -20.2678   21.0262 C   0  0  0  0  0  0  0  0  0  0  0  0
  -22.9550  -32.7292   27.7979 C   0  0  0  0  0  0  0  0  0  0  0  0
  -23.6954  -28.9330   22.0051 C   0  0  0  0  0  0  0  0  0  0  0  0
  -26.1448  -27.3939   22.6187 C   0  0  0  0  0  0  0  0  0  0  0  0
  -23.7211  -31.4106   27.7297 C   0  0  0  0  0  0  0  0  0  0  0  0
  -30.9033  -17.7001   23.7173 C   0  0  0  0  0  0  0  0  0  0  0  0
  -24.9348  -31.5450   26.8155 C   0  0  0  0  0  0  0  0  0  0  0  0
  -31.1059  -16.4707   22.8347 C   0  0  0  0  0  0  0  0  0  0  0  0
  -31.0678  -19.0011   22.9419 C   0  0  0  0  0  0  0  0  0  0  0  0
  -29.5534  -17.8330   21.3300 C   0  0  0  0  0  0  0  0  0  0  0  0
  -24.5105  -31.8853   25.3817 C   0  0  1  0  0  0  0  0  0  0  0  0
  -24.1230  -28.6427   23.4405 C   0  0  1  0  0  0  0  0  0  0  0  0
  -30.5174  -16.6398   21.4200 C   0  0  2  0  0  0  0  0  0  0  0  0
  -32.0791  -26.0778   21.8869 C   0  0  0  0  0  0  0  0  0  0  0  0
  -30.9788  -25.7856   15.9761 C   0  0  0  0  0  0  0  0  0  0  0  0
  -25.4654  -21.0494   24.1775 C   0  0  0  0  0  0  0  0  0  0  0  0
  -29.2753  -30.7067   18.3762 C   0  0  0  0  0  0  0  0  0  0  0  0
  -27.2902  -27.0200   26.3894 C   0  0  0  0  0  0  0  0  0  0  0  0
  -27.7142  -24.5555   26.2684 C   0  0  0  0  0  0  0  0  0  0  0  0
  -25.6111  -25.4081   27.3043 C   0  0  0  0  0  0  0  0  0  0  0  0
  -23.7024  -22.7739   21.2803 C   0  0  0  0  0  0  0  0  0  0  0  0
  -30.3228  -28.4520   17.9539 C   0  0  0  0  0  0  0  0  0  0  0  0
  -30.2635  -26.9355   18.1722 C   0  0  2  0  0  0  0  0  0  0  0  0
  -25.8991  -25.5396   24.7959 C   0  0  1  0  0  0  0  0  0  0  0  0
  -24.7308  -22.1827   23.4783 C   0  0  2  0  0  0  0  0  0  0  0  0
  -29.2115  -29.2164   18.6849 C   0  0  2  0  0  0  0  0  0  1  0  0
  -26.6269  -25.6464   26.1658 C   0  0  0  0  0  0  0  0  0  0  0  0
  -28.5668  -15.1633   21.1054 N   0  0  0  0  0  0  0  0  0  0  0  0
  -29.8835  -15.3556   20.9171 N   0  0  0  0  0  0  0  0  0  0  0  0
  -25.0021  -27.4762   23.5434 N   0  0  0  0  0  0  0  0  0  0  0  0
  -30.2074  -19.0770   21.7522 N   0  0  0  0  0  0  0  0  0  0  0  0
  -31.8261  -14.3575   20.0001 N   0  0  0  0  0  0  0  0  0  0  0  0
  -28.5995  -11.3066   19.1771 N   0  0  0  0  0  0  0  0  0  0  0  0
  -30.6257  -21.3876   21.5325 N   0  0  0  0  0  0  0  0  0  0  0  0
  -30.4667  -26.6202   19.5700 N   0  0  0  0  0  0  0  0  0  0  0  0
  -24.0201  -30.7033   24.7058 N   0  0  0  0  0  0  0  0  0  0  0  0
  -25.2387  -24.2588   24.5684 N   0  0  0  0  0  0  0  0  0  0  0  0
  -24.4427  -21.7626   22.0778 N   0  3  0  0  0  0  0  0  0  0  0  0
  -30.8344  -11.7630   18.9410 O   0  0  0  0  0  0  0  0  0  0  0  0
  -26.0703  -29.8562   23.9975 O   0  0  0  0  0  0  0  0  0  0  0  0
  -32.4965  -26.0879   17.7917 O   0  0  0  0  0  0  0  0  0  0  0  0
  -23.8922  -26.6414   25.4162 O   0  0  0  0  0  0  0  0  0  0  0  0
  -26.3852  -23.7231   22.6253 O   0  0  0  0  0  0  0  0  0  0  0  0
  -29.2302  -20.2814   20.0330 O   0  0  0  0  0  0  0  0  0  0  0  0
  -23.2200  -11.7488   20.5556 O   0  0  0  0  0  0  0  0  0  0  0  0
  -27.9440  -28.7135   18.2644 O   0  0  0  0  0  0  0  0  0  1  0  0
  -22.7218   -6.4333   21.9347 F   0  0  0  0  0  0  0  0  0  0  0  0
  -29.0362  -24.6071   18.3498 F   0  0  0  0  0  0  0  0  0  0  0  0
  -21.6869  -10.9841   22.7253 F   0  0  0  0  0  0  0  0  0  0  0  0
  1  2  1  0  0  0  0
  1  5  2  0  0  0  0
  2  6  2  0  0  0  0
  3  8  2  0  0  0  0
  3 17  1  0  0  0  0
  4  9  1  0  0  0  0
  4 17  2  0  0  0  0
  5 19  1  0  0  0  0
  6 21  1  0  0  0  0
  7 10  2  0  0  0  0
  7 20  1  0  0  0  0
  8 26  1  0  0  0  0
  9 26  2  0  0  0  0
 10 27  1  0  0  0  0
 11 12  2  0  0  0  0
 11 28  1  0  0  0  0
 12 29  1  0  0  0  0
 13 22  1  0  0  0  0
 13 27  2  0  0  0  0
 14 23  2  0  0  0  0
 14 24  1  0  0  0  0
 15 24  2  0  0  0  0
 15 30  1  0  0  0  0
 16 29  2  0  0  0  0
 16 31  1  0  0  0  0
 17 32  1  0  0  0  0
 18 32  1  0  0  0  0
 18 33  2  0  0  0  0
 18 34  1  0  0  0  0
 19 21  2  0  0  0  0
 19 40  1  0  0  0  0
 20 22  2  0  0  0  0
 20 41  1  0  0  0  0
 21 49  1  0  0  0  0
 22 42  1  0  0  0  0
 23 25  1  0  0  0  0
 23 52  1  0  0  0  0
 24 72  1  0  0  0  0
 25 30  2  0  0  0  0
 25 73  1  0  0  0  0
 26 83  1  0  0  0  0
 27 84  1  0  0  0  0
 28 31  2  0  0  0  0
 28 83  1  0  0  0  0
 29 85  1  0  0  0  0
 30 86  1  0  0  0  0
 31 87  1  0  0  0  0
 32 66  2  0  0  0  0
 33 67  1  0  0  0  0
 33 70  1  0  0  0  0
 34 71  1  0  0  0  0
 34 77  2  0  0  0  0
 35 50  1  0  0  0  0
 35 74  1  0  0  0  0
 35 78  2  0  0  0  0
 36 53  1  0  0  0  0
 36 61  1  0  0  0  0
 36 79  2  0  0  0  0
 37 62  1  0  0  0  0
 37 68  1  0  0  0  0
 37 80  2  0  0  0  0
 38 63  1  0  0  0  0
 38 75  1  0  0  0  0
 38 81  2  0  0  0  0
 39 69  1  0  0  0  0
 39 72  1  0  0  0  0
 39 82  2  0  0  0  0
 40 43  1  0  0  0  0
 41 50  1  0  0  0  0
 42 68  1  0  0  0  0
 43 45  1  0  0  0  0
 44 46  1  0  0  0  0
 44 47  1  0  0  0  0
 45 49  1  0  0  0  0
 46 51  1  0  0  0  0
 47 69  1  0  0  0  0
 48 51  1  0  0  0  0
 48 69  1  0  0  0  0
 49 74  1  0  0  0  0
 50 68  1  0  0  0  0
 51 67  1  0  0  0  0
 54 63  1  0  0  0  0
 55 64  1  0  0  0  0
 56 65  1  0  0  0  0
 57 65  1  0  0  0  0
 58 65  1  0  0  0  0
 59 76  1  0  0  0  0
 60 61  1  0  0  0  0
 60 64  1  0  0  0  0
 61 73  1  0  0  0  0
 62 65  1  0  0  0  0
 62 75  1  0  0  0  0
 63 76  1  0  0  0  0
 64 84  1  0  0  0  0
 66 67  1  0  0  0  0
M  CHG  1  76   1
M  ISO  4  39 100  64 101  72 100  84 101
M  END
> <Batch ID>
0174

> <Smiles>
CNC(C)C(=O)NC(C(=O)N1Cc2cc([101O:1][101CH:1](C)CC(Nc3c(C)cc([100NH:0][100C:0](=O)N4CCCC(n5nc(-c6ccc(Oc7ccc(F)cc7F)cc6)c(C(N)=O)c5N)C4)cc3F)C(C)=O)ccc2CC1C(=O)NC1CCCc2ccccc21)C(C)(C)C

> <Shape>
0.258

> <Color>
0.083

> <Negative vol penalty>
0.000

$$$$

  -OEChem-04052304333D

 89 97  0     1  0  0  0  0  0999 V2000
  -30.1840  -33.1659   25.5074 C   0  0  0  0  0  0  0  0  0  0  0  0
  -29.8740  -31.9748   24.8588 C   0  0  0  0  0  0  0  0  0  0  0  0
  -24.7374   -8.1908   21.3079 C   0  0  0  0  0  0  0  0  0  0  0  0
  -23.6078  -10.2351   21.9259 C   0  0  0  0  0  0  0  0  0  0  0  0
  -29.1652  -33.9500   26.0470 C   0  0  0  0  0  0  0  0  0  0  0  0
  -28.5451  -31.5666   24.7504 C   0  0  0  0  0  0  0  0  0  0  0  0
  -27.3984  -29.8959   20.1094 C   0  0  0  0  0  0  0  0  0  0  0  0
  -24.0789   -7.5161   22.3359 C   0  0  0  0  0  0  0  0  0  0  0  0
  -22.9492   -9.5604   22.9538 C   0  0  0  0  0  0  0  0  0  0  0  0
  -27.8137  -28.6075   19.7758 C   0  0  0  0  0  0  0  0  0  0  0  0
  -22.4228   -5.1741   24.5691 C   0  0  0  0  0  0  0  0  0  0  0  0
  -21.8737   -3.9255   24.2778 C   0  0  0  0  0  0  0  0  0  0  0  0
  -25.5909  -27.7824   20.2201 C   0  0  0  0  0  0  0  0  0  0  0  0
  -27.2933  -17.5690   21.0575 C   0  0  0  0  0  0  0  0  0  0  0  0
  -20.4691   -4.9365   22.5920 C   0  0  0  0  0  0  0  0  0  0  0  0
  -29.4805  -19.1750   20.7705 C   0  0  0  0  0  0  0  0  0  0  0  0
  -24.5020   -9.5503   21.1029 C   0  0  0  0  0  0  0  0  0  0  0  0
  -24.7456  -10.4084   18.7130 C   0  0  0  0  0  0  0  0  0  0  0  0
  -27.8224  -33.5561   25.9367 C   0  0  0  0  0  0  0  0  0  0  0  0
  -26.0767  -30.1358   20.5120 C   0  0  0  0  0  0  0  0  0  0  0  0
  -27.5075  -32.3456   25.2902 C   0  0  0  0  0  0  0  0  0  0  0  0
  -25.1606  -29.0751   20.5558 C   0  0  0  0  0  0  0  0  0  0  0  0
  -27.1627  -18.9399   21.2493 C   0  0  0  0  0  0  0  0  0  0  0  0
  -28.2723  -19.7652   21.1049 C   0  0  0  0  0  0  0  0  0  0  0  0
  -23.1847   -8.2009   23.1588 C   0  0  0  0  0  0  0  0  0  0  0  0
  -26.9107  -27.5500   19.8339 C   0  0  0  0  0  0  0  0  0  0  0  0
  -21.9950   -6.3040   23.8720 C   0  0  0  0  0  0  0  0  0  0  0  0
  -20.8968   -3.8066   23.2892 C   0  0  0  0  0  0  0  0  0  0  0  0
  -21.0182   -6.1852   22.8834 C   0  0  0  0  0  0  0  0  0  0  0  0
  -25.1824  -10.2479   20.0416 C   0  0  0  0  0  0  0  0  0  0  0  0
  -28.5452  -17.0771   20.7250 C   0  0  0  0  0  0  0  0  0  0  0  0
  -25.7395  -11.1406   18.1108 C   0  0  0  0  0  0  0  0  0  0  0  0
  -27.8103  -25.4980   20.5053 C   0  0  0  0  0  0  0  0  0  1  0  0
  -23.5484   -9.9377   18.0797 C   0  0  0  0  0  0  0  0  0  0  0  0
  -28.2348  -24.2463   20.3001 C   0  0  0  0  0  0  0  0  0  0  0  0
  -28.7554  -23.4732   21.4540 C   0  0  0  0  0  0  0  0  0  0  0  0
  -29.2208  -22.0752   21.1818 C   0  0  0  0  0  0  0  0  0  0  0  0
  -24.7019  -31.2244   23.1631 C   0  0  0  0  0  0  0  0  0  0  0  0
  -22.0109  -31.0916   21.3566 C   0  0  0  0  0  0  0  0  0  0  0  0
  -20.3766  -29.7281   18.6889 C   0  0  0  0  0  0  0  0  0  0  0  0
  -29.8232  -14.9711   20.1978 C   0  0  0  0  0  0  0  0  0  0  0  0
  -26.7594  -34.4132   26.5772 C   0  0  0  0  0  0  0  0  0  0  0  0
  -25.6375  -31.5358   20.8428 C   0  0  0  0  0  0  0  0  0  0  0  0
  -23.7253  -29.2832   20.9621 C   0  0  0  0  0  0  0  0  0  0  0  0
  -25.3473  -34.0965   26.0916 C   0  0  0  0  0  0  0  0  0  0  0  0
  -30.4469  -11.9835   18.3641 C   0  0  0  0  0  0  0  0  0  0  0  0
  -25.1095  -32.5898   26.0874 C   0  0  0  0  0  0  0  0  0  0  0  0
  -29.1259  -11.2167   18.4601 C   0  0  0  0  0  0  0  0  0  0  0  0
  -30.7618  -12.7348   19.6564 C   0  0  0  0  0  0  0  0  0  0  0  0
  -28.3699  -12.8493   20.2350 C   0  0  0  0  0  0  0  0  0  0  0  0
  -26.0760  -31.8814   25.1306 C   0  0  1  0  0  0  0  0  0  0  0  0
  -24.4003  -31.5789   21.7344 C   0  0  1  0  0  0  0  0  0  0  0  0
  -27.9779  -12.1292   18.9344 C   0  0  2  0  0  0  0  0  0  0  0  0
  -18.1751  -29.7897   17.4861 C   0  0  0  0  0  0  0  0  0  0  0  0
  -20.7546  -29.4154   23.5751 C   0  0  0  0  0  0  0  0  0  0  0  0
  -18.9767  -28.7267   21.9525 C   0  0  0  0  0  0  0  0  0  0  0  0
  -19.2332  -31.1290   22.5736 C   0  0  0  0  0  0  0  0  0  0  0  0
  -21.6410  -30.6630   16.1816 C   0  0  0  0  0  0  0  0  0  0  0  0
  -20.9600  -30.0439   21.0794 C   0  0  1  0  0  0  0  0  0  0  0  0
  -19.5814  -30.3635   17.5627 C   0  0  2  0  0  0  0  0  0  0  0  0
  -25.8247  -19.4977   21.6090 C   0  0  0  0  0  0  0  0  0  0  0  0
  -20.0086  -29.8242   22.2893 C   0  0  0  0  0  0  0  0  0  0  0  0
  -29.6461  -17.8475   20.5761 N   0  0  0  0  0  0  0  0  0  0  0  0
  -26.3620  -10.8311   20.2706 N   0  0  0  0  0  0  0  0  0  0  0  0
  -26.6749  -11.3651   19.0777 N   0  0  0  0  0  0  0  0  0  0  0  0
  -23.3458  -30.6692   21.2823 N   0  0  0  0  0  0  0  0  0  0  0  0
  -29.6311  -13.5820   20.0420 N   0  0  0  0  0  0  0  0  0  0  0  0
  -25.8958  -11.6077   16.8540 N   0  0  0  0  0  0  0  0  0  0  0  0
  -22.6338   -9.2004   18.8440 N   0  0  0  0  0  0  0  0  0  0  0  0
  -28.1922  -21.1644   21.2936 N   0  0  0  0  0  0  0  0  0  0  0  0
  -28.6695  -15.6786   20.5340 N   0  0  0  0  0  0  0  0  0  0  0  0
  -25.6405  -32.0443   23.7601 N   0  0  0  0  0  0  0  0  0  0  0  0
  -20.2837  -30.4582   19.8549 N   0  0  0  0  0  0  0  0  0  0  0  0
  -20.2567  -30.1287   16.2551 N   0  3  0  0  0  0  0  0  0  0  0  0
  -23.3050  -10.1503   16.8677 O   0  0  0  0  0  0  0  0  0  0  0  0
  -28.8210  -23.8743   22.6054 O   0  0  0  0  0  0  0  0  0  0  0  0
  -30.3977  -21.9337   20.8953 O   0  0  0  0  0  0  0  0  0  0  0  0
  -24.1246  -30.2781   23.6856 O   0  0  0  0  0  0  0  0  0  0  0  0
  -21.6605  -32.2442   21.6222 O   0  0  0  0  0  0  0  0  0  0  0  0
  -21.0134  -28.6862   18.5493 O   0  0  0  0  0  0  0  0  0  0  0  0
  -30.9239  -15.4982   20.0177 O   0  0  0  0  0  0  0  0  0  0  0  0
  -28.2118  -23.6364   19.0655 O   0  0  0  0  0  0  0  0  0  0  0  0
  -22.5417   -7.5429   24.1618 O   0  0  0  0  0  0  0  0  0  0  0  0
  -27.3137  -26.2914   19.5094 O   0  0  0  0  0  0  0  0  0  1  0  0
  -20.3707   -2.6072   23.0085 F   0  0  0  0  0  0  0  0  0  0  0  0
  -20.6041   -7.2669   22.2094 F   0  0  0  0  0  0  0  0  0  0  0  0
  -24.8479  -18.5495   21.7103 F   0  0  0  0  0  0  0  0  0  0  0  0
  -25.8121  -20.1538   22.8060 F   0  0  0  0  0  0  0  0  0  0  0  0
  -25.3696  -20.3982   20.6910 F   0  0  0  0  0  0  0  0  0  0  0  0
  1  2  1  0  0  0  0
  1  5  2  0  0  0  0
  2  6  2  0  0  0  0
  3  8  2  0  0  0  0
  3 17  1  0  0  0  0
  4  9  1  0  0  0  0
  4 17  2  0  0  0  0
  5 19  1  0  0  0  0
  6 21  1  0  0  0  0
  7 10  2  0  0  0  0
  7 20  1  0  0  0  0
  8 25  1  0  0  0  0
  9 25  2  0  0  0  0
 10 26  1  0  0  0  0
 11 12  2  0  0  0  0
 11 27  1  0  0  0  0
 12 28  1  0  0  0  0
 13 22  1  0  0  0  0
 13 26  2  0  0  0  0
 14 23  1  0  0  0  0
 14 31  2  0  0  0  0
 15 28  2  0  0  0  0
 15 29  1  0  0  0  0
 16 24  1  0  0  0  0
 16 63  2  0  0  0  0
 17 30  1  0  0  0  0
 18 30  1  0  0  0  0
 18 32  2  0  0  0  0
 18 34  1  0  0  0  0
 19 21  2  0  0  0  0
 19 42  1  0  0  0  0
 20 22  2  0  0  0  0
 20 43  1  0  0  0  0
 21 51  1  0  0  0  0
 22 44  1  0  0  0  0
 23 24  2  0  0  0  0
 23 61  1  0  0  0  0
 24 70  1  0  0  0  0
 25 83  1  0  0  0  0
 26 84  1  0  0  0  0
 27 29  2  0  0  0  0
 27 83  1  0  0  0  0
 28 85  1  0  0  0  0
 29 86  1  0  0  0  0
 30 64  2  0  0  0  0
 31 63  1  0  0  0  0
 31 71  1  0  0  0  0
 32 65  1  0  0  0  0
 32 68  1  0  0  0  0
 33 35  2  0  0  0  0
 33 84  1  0  0  0  0
 34 69  1  0  0  0  0
 34 75  2  0  0  0  0
 35 36  1  0  0  0  0
 35 82  1  0  0  0  0
 36 37  1  0  0  0  0
 36 76  2  0  0  0  0
 37 70  1  0  0  0  0
 37 77  2  0  0  0  0
 38 52  1  0  0  0  0
 38 72  1  0  0  0  0
 38 78  2  0  0  0  0
 39 59  1  0  0  0  0
 39 66  1  0  0  0  0
 39 79  2  0  0  0  0
 40 60  1  0  0  0  0
 40 73  1  0  0  0  0
 40 80  2  0  0  0  0
 41 67  1  0  0  0  0
 41 71  1  0  0  0  0
 41 81  2  0  0  0  0
 42 45  1  0  0  0  0
 43 52  1  0  0  0  0
 44 66  1  0  0  0  0
 45 47  1  0  0  0  0
 46 48  1  0  0  0  0
 46 49  1  0  0  0  0
 47 51  1  0  0  0  0
 48 53  1  0  0  0  0
 49 67  1  0  0  0  0
 50 53  1  0  0  0  0
 50 67  1  0  0  0  0
 51 72  1  0  0  0  0
 52 66  1  0  0  0  0
 53 65  1  0  0  0  0
 54 60  1  0  0  0  0
 55 62  1  0  0  0  0
 56 62  1  0  0  0  0
 57 62  1  0  0  0  0
 58 74  1  0  0  0  0
 59 62  1  0  0  0  0
 59 73  1  0  0  0  0
 60 74  1  0  0  0  0
 61 87  1  0  0  0  0
 61 88  1  0  0  0  0
 61 89  1  0  0  0  0
 64 65  1  0  0  0  0
M  CHG  1  74   1
M  ISO  4  33 101  41 100  71 100  84 101
M  END
> <Batch ID>
0174

> <Smiles>
CNC(C)C(=O)NC(C(=O)N1Cc2cc([101O:1][101CH2:1]C(=O)C(=O)C(=O)Nc3cnc([100NH:0][100C:0](=O)N4CCCC(n5nc(-c6ccc(Oc7ccc(F)cc7F)cc6)c(C(N)=O)c5N)C4)cc3C(F)(F)F)ccc2CC1C(=O)NC1CCCc2ccccc21)C(C)(C)C

> <Shape>
0.323

> <Color>
0.088

> <Negative vol penalty>
0.000

$$$$

  -OEChem-04052304333D

 88 96  0     1  0  0  0  0  0999 V2000
  -27.8854  -34.7573   28.7477 C   0  0  0  0  0  0  0  0  0  0  0  0
  -27.9314  -33.6766   27.8729 C   0  0  0  0  0  0  0  0  0  0  0  0
  -24.7373   -8.3639   21.8711 C   0  0  0  0  0  0  0  0  0  0  0  0
  -23.6137   -9.2998   19.9479 C   0  0  0  0  0  0  0  0  0  0  0  0
  -26.7349  -35.5410   28.8259 C   0  0  0  0  0  0  0  0  0  0  0  0
  -26.8264  -33.3782   27.0765 C   0  0  0  0  0  0  0  0  0  0  0  0
  -26.8934  -31.1266   21.3816 C   0  0  0  0  0  0  0  0  0  0  0  0
  -23.5733   -7.6778   22.2173 C   0  0  0  0  0  0  0  0  0  0  0  0
  -22.4497   -8.6136   20.2941 C   0  0  0  0  0  0  0  0  0  0  0  0
  -26.7355  -29.8346   20.8818 C   0  0  0  0  0  0  0  0  0  0  0  0
  -21.9487   -4.8777   21.2411 C   0  0  0  0  0  0  0  0  0  0  0  0
  -22.0717   -3.5390   21.6129 C   0  0  0  0  0  0  0  0  0  0  0  0
  -24.3987  -30.2809   20.4831 C   0  0  0  0  0  0  0  0  0  0  0  0
  -25.6042  -19.1907   16.4570 C   0  0  0  0  0  0  0  0  0  0  0  0
  -25.4217  -16.9100   17.2112 C   0  0  0  0  0  0  0  0  0  0  0  0
  -21.1287   -4.0535   23.7770 C   0  0  0  0  0  0  0  0  0  0  0  0
  -24.7575   -9.1750   20.7365 C   0  0  0  0  0  0  0  0  0  0  0  0
  -27.0006   -9.4284   19.5481 C   0  0  0  0  0  0  0  0  0  0  0  0
  -25.6187  -35.2579   28.0230 C   0  0  0  0  0  0  0  0  0  0  0  0
  -25.8008  -32.0032   21.4461 C   0  0  0  0  0  0  0  0  0  0  0  0
  -25.6594  -34.1580   27.1449 C   0  0  0  0  0  0  0  0  0  0  0  0
  -24.5458  -31.5843   20.9817 C   0  0  0  0  0  0  0  0  0  0  0  0
  -25.1040  -17.9030   16.2893 C   0  0  0  0  0  0  0  0  0  0  0  0
  -22.4295   -7.8025   21.4288 C   0  0  0  0  0  0  0  0  0  0  0  0
  -25.4874  -29.4106   20.4352 C   0  0  0  0  0  0  0  0  0  0  0  0
  -21.4158   -5.8043   22.1372 C   0  0  0  0  0  0  0  0  0  0  0  0
  -21.6617   -3.1269   22.8809 C   0  0  0  0  0  0  0  0  0  0  0  0
  -21.0057   -5.3922   23.4051 C   0  0  0  0  0  0  0  0  0  0  0  0
  -25.9594   -9.8846   20.3787 C   0  0  0  0  0  0  0  0  0  0  0  0
  -27.9011  -10.4653   19.5255 C   0  0  0  0  0  0  0  0  0  0  0  0
  -26.4161  -19.4551   17.5508 C   0  0  0  0  0  0  0  0  0  0  0  0
  -26.2382  -17.2322   18.2858 C   0  0  0  0  0  0  0  0  0  0  0  0
  -27.1411   -8.1792   18.8587 C   0  0  0  0  0  0  0  0  0  0  0  0
  -28.0852  -22.6573   18.6034 C   0  0  0  0  0  0  0  0  0  0  0  0
  -27.7425  -21.2028   18.7461 C   0  0  0  0  0  0  0  0  0  0  0  0
  -24.2589  -33.4972   23.7901 C   0  0  0  0  0  0  0  0  0  0  0  0
  -26.1569  -25.9570   19.3334 C   0  0  0  0  0  0  0  0  0  0  0  0
  -22.6850  -34.9077   21.3292 C   0  0  0  0  0  0  0  0  0  0  0  0
  -21.6858  -34.7677   18.0691 C   0  0  0  0  0  0  0  0  0  0  0  0
  -27.3642  -16.3573   20.3627 C   0  0  0  0  0  0  0  0  0  0  0  0
  -24.3803  -36.1048   28.1767 C   0  0  0  0  0  0  0  0  0  0  0  0
  -25.9935  -33.4025   21.9630 C   0  0  0  0  0  0  0  0  0  0  0  0
  -23.3456  -32.4937   21.0106 C   0  0  0  0  0  0  0  0  0  0  0  0
  -23.3884  -35.9478   27.0271 C   0  0  0  0  0  0  0  0  0  0  0  0
  -29.4602  -14.1298   22.1854 C   0  0  0  0  0  0  0  0  0  0  0  0
  -23.1797  -34.4727   26.6997 C   0  0  0  0  0  0  0  0  0  0  0  0
  -28.8988  -12.7465   21.8485 C   0  0  0  0  0  0  0  0  0  0  0  0
  -28.3536  -15.1754   22.3118 C   0  0  0  0  0  0  0  0  0  0  0  0
  -26.8812  -13.8739   20.8262 C   0  0  0  0  0  0  0  0  0  0  0  0
  -24.4900  -33.8174   26.2467 C   0  0  1  0  0  0  0  0  0  0  0  0
  -24.6994  -34.0395   22.4598 C   0  0  1  0  0  0  0  0  0  0  0  0
  -27.9634  -12.8006   20.6248 C   0  0  2  0  0  0  0  0  0  0  0  0
  -20.3800  -36.0501   16.3522 C   0  0  0  0  0  0  0  0  0  0  0  0
  -20.0816  -34.0201   22.6498 C   0  0  0  0  0  0  0  0  0  0  0  0
  -18.9110  -34.4674   20.4824 C   0  0  0  0  0  0  0  0  0  0  0  0
  -20.0337  -36.3329   21.6997 C   0  0  0  0  0  0  0  0  0  0  0  0
  -24.0477  -35.0394   16.3066 C   0  0  0  0  0  0  0  0  0  0  0  0
  -26.9260  -23.6278   18.6528 C   0  0  0  0  0  0  0  0  0  0  0  0
  -27.3196  -24.9793   19.2413 C   0  0  0  0  0  0  0  0  0  0  0  0
  -26.4870  -27.3145   19.9225 C   0  0  0  0  0  0  0  0  0  1  0  0
  -21.4435  -34.5894   20.5316 C   0  0  1  0  0  0  0  0  0  0  0  0
  -21.7542  -35.7909   16.9497 C   0  0  2  0  0  0  0  0  0  0  0  0
  -20.1394  -34.8344   21.3420 C   0  0  0  0  0  0  0  0  0  0  0  0
  -26.1772  -11.1153   20.8497 N   0  0  0  0  0  0  0  0  0  0  0  0
  -27.3656  -11.4413   20.3135 N   0  0  0  0  0  0  0  0  0  0  0  0
  -26.7063  -18.4802   18.4232 N   0  3  0  0  0  0  0  0  0  0  0  0
  -23.5833  -33.8503   21.5309 N   0  0  0  0  0  0  0  0  0  0  0  0
  -27.5102  -15.1723   21.1146 N   0  0  0  0  0  0  0  0  0  0  0  0
  -24.2767  -17.6048   15.1870 N   0  0  0  0  0  0  0  0  0  0  0  0
  -29.0908  -10.6282   18.9088 N   0  0  0  0  0  0  0  0  0  0  0  0
  -26.1228   -7.2252   18.9903 N   0  0  0  0  0  0  0  0  0  0  0  0
  -26.9271  -20.7620   17.7261 N   0  0  0  0  0  0  0  0  0  0  0  0
  -26.5649  -16.2251   19.2276 N   0  0  0  0  0  0  0  0  0  0  0  0
  -24.7848  -34.1724   24.8750 N   0  0  0  0  0  0  0  0  0  0  0  0
  -21.5378  -35.3681   19.3015 N   0  0  0  0  0  0  0  0  0  0  0  0
  -22.6559  -35.3116   15.8643 N   0  3  0  0  0  0  0  0  0  0  0  0
  -28.1477   -7.9103   18.1602 O   0  0  0  0  0  0  0  0  0  0  0  0
  -29.2654  -22.9435   18.4717 O   0  0  0  0  0  0  0  0  0  0  0  0
  -28.2332  -20.6159   19.6961 O   0  0  0  0  0  0  0  0  0  0  0  0
  -23.4971  -32.5381   23.8293 O   0  0  0  0  0  0  0  0  0  0  0  0
  -25.0217  -25.6758   18.9526 O   0  0  0  0  0  0  0  0  0  0  0  0
  -22.8551  -36.0542   21.7516 O   0  0  0  0  0  0  0  0  0  0  0  0
  -21.7528  -33.5568   17.8697 O   0  0  0  0  0  0  0  0  0  0  0  0
  -27.9302  -17.4048   20.6858 O   0  0  0  0  0  0  0  0  0  0  0  0
  -21.2936   -7.1329   21.7662 O   0  0  0  0  0  0  0  0  0  0  0  0
  -25.3304  -28.1499   19.9475 O   0  0  0  0  0  0  0  0  0  1  0  0
  -21.7784   -1.8410   23.2373 F   0  0  0  0  0  0  0  0  0  0  0  0
  -20.4918   -6.2776   24.2698 F   0  0  0  0  0  0  0  0  0  0  0  0
  1  2  1  0  0  0  0
  1  5  2  0  0  0  0
  2  6  2  0  0  0  0
  3  8  2  0  0  0  0
  3 17  1  0  0  0  0
  4  9  1  0  0  0  0
  4 17  2  0  0  0  0
  5 19  1  0  0  0  0
  6 21  1  0  0  0  0
  7 10  2  0  0  0  0
  7 20  1  0  0  0  0
  8 24  1  0  0  0  0
  9 24  2  0  0  0  0
 10 25  1  0  0  0  0
 11 12  2  0  0  0  0
 11 26  1  0  0  0  0
 12 27  1  0  0  0  0
 13 22  1  0  0  0  0
 13 25  2  0  0  0  0
 14 23  2  0  0  0  0
 14 31  1  0  0  0  0
 15 23  1  0  0  0  0
 15 32  2  0  0  0  0
 16 27  2  0  0  0  0
 16 28  1  0  0  0  0
 17 29  1  0  0  0  0
 18 29  1  0  0  0  0
 18 30  2  0  0  0  0
 18 33  1  0  0  0  0
 19 21  2  0  0  0  0
 19 41  1  0  0  0  0
 20 22  2  0  0  0  0
 20 42  1  0  0  0  0
 21 50  1  0  0  0  0
 22 43  1  0  0  0  0
 23 69  1  0  0  0  0
 24 85  1  0  0  0  0
 25 86  1  0  0  0  0
 26 28  2  0  0  0  0
 26 85  1  0  0  0  0
 27 87  1  0  0  0  0
 28 88  1  0  0  0  0
 29 64  2  0  0  0  0
 30 65  1  0  0  0  0
 30 70  1  0  0  0  0
 31 66  2  0  0  0  0
 31 72  1  0  0  0  0
 32 66  1  0  0  0  0
 32 73  1  0  0  0  0
 33 71  1  0  0  0  0
 33 77  2  0  0  0  0
 34 35  1  0  0  0  0
 34 58  1  0  0  0  0
 34 78  2  0  0  0  0
 35 72  1  0  0  0  0
 35 79  2  0  0  0  0
 36 51  1  0  0  0  0
 36 74  1  0  0  0  0
 36 80  2  0  0  0  0
 37 59  1  0  0  0  0
 37 60  1  0  0  0  0
 37 81  2  0  0  0  0
 38 61  1  0  0  0  0
 38 67  1  0  0  0  0
 38 82  2  0  0  0  0
 39 62  1  0  0  0  0
 39 75  1  0  0  0  0
 39 83  2  0  0  0  0
 40 68  1  0  0  0  0
 40 73  1  0  0  0  0
 40 84  2  0  0  0  0
 41 44  1  0  0  0  0
 42 51  1  0  0  0  0
 43 67  1  0  0  0  0
 44 46  1  0  0  0  0
 45 47  1  0  0  0  0
 45 48  1  0  0  0  0
 46 50  1  0  0  0  0
 47 52  1  0  0  0  0
 48 68  1  0  0  0  0
 49 52  1  0  0  0  0
 49 68  1  0  0  0  0
 50 74  1  0  0  0  0
 51 67  1  0  0  0  0
 52 65  1  0  0  0  0
 53 62  1  0  0  0  0
 54 63  1  0  0  0  0
 55 63  1  0  0  0  0
 56 63  1  0  0  0  0
 57 76  1  0  0  0  0
 58 59  1  0  0  0  0
 60 86  1  0  0  0  0
 61 63  1  0  0  0  0
 61 75  1  0  0  0  0
 62 76  1  0  0  0  0
 64 65  1  0  0  0  0
M  CHG  2  66   1  76   1
M  ISO  4  40 100  60 101  73 100  86 101
M  END
> <Batch ID>
0174

> <Smiles>
CNC(C)C(=O)NC(C(=O)N1Cc2cc([101O:1][101CH2:1]C(=O)CCC(=O)C(=O)Nc3cc(N)cc([100NH:0][100C:0](=O)N4CCCC(n5nc(-c6ccc(Oc7ccc(F)cc7F)cc6)c(C(N)=O)c5N)C4)n3)ccc2CC1C(=O)NC1CCCc2ccccc21)C(C)(C)C

> <Shape>
0.206

> <Color>
0.081

> <Negative vol penalty>
0.000

$$$$

  -OEChem-04052304333D

 86 94  0     1  0  0  0  0  0999 V2000
  -17.4703  -26.2000   22.7383 C   0  0  0  0  0  0  0  0  0  0  0  0
  -18.7468  -25.7644   22.3974 C   0  0  0  0  0  0  0  0  0  0  0  0
  -20.0898  -14.3626   23.4472 C   0  0  0  0  0  0  0  0  0  0  0  0
  -22.1140  -13.3522   22.5994 C   0  0  0  0  0  0  0  0  0  0  0  0
  -17.1391  -27.5487   22.6149 C   0  0  0  0  0  0  0  0  0  0  0  0
  -19.6926  -26.6771   21.9319 C   0  0  0  0  0  0  0  0  0  0  0  0
  -25.7321  -26.5568   22.9393 C   0  0  0  0  0  0  0  0  0  0  0  0
  -19.3400  -13.6373   22.5214 C   0  0  0  0  0  0  0  0  0  0  0  0
  -21.3642  -12.6268   21.6736 C   0  0  0  0  0  0  0  0  0  0  0  0
  -26.8027  -26.1043   22.1693 C   0  0  0  0  0  0  0  0  0  0  0  0
  -19.4394   -9.8491   21.6586 C   0  0  0  0  0  0  0  0  0  0  0  0
  -19.7403   -8.4963   21.5008 C   0  0  0  0  0  0  0  0  0  0  0  0
  -27.1653  -28.3494   21.3648 C   0  0  0  0  0  0  0  0  0  0  0  0
  -28.8686  -19.9399   21.7244 C   0  0  0  0  0  0  0  0  0  0  0  0
  -29.0568  -17.5501   22.0247 C   0  0  0  0  0  0  0  0  0  0  0  0
  -20.2506   -8.8817   19.1709 C   0  0  0  0  0  0  0  0  0  0  0  0
  -21.4769  -14.2201   23.4862 C   0  0  0  0  0  0  0  0  0  0  0  0
  -22.6028  -14.5764   25.7474 C   0  0  0  0  0  0  0  0  0  0  0  0
  -18.0843  -28.4800   22.1567 C   0  0  0  0  0  0  0  0  0  0  0  0
  -25.3627  -27.9094   22.9194 C   0  0  0  0  0  0  0  0  0  0  0  0
  -19.3733  -28.0394   21.8009 C   0  0  0  0  0  0  0  0  0  0  0  0
  -26.0913  -28.8170   22.1374 C   0  0  0  0  0  0  0  0  0  0  0  0
  -28.4261  -18.7587   22.3199 C   0  0  0  0  0  0  0  0  0  0  0  0
  -29.9416  -19.9125   20.8336 C   0  0  0  0  0  0  0  0  0  0  0  0
  -19.9771  -12.7694   21.6346 C   0  0  0  0  0  0  0  0  0  0  0  0
  -27.5176  -27.0001   21.3796 C   0  0  0  0  0  0  0  0  0  0  0  0
  -19.5440  -10.7183   20.5726 C   0  0  0  0  0  0  0  0  0  0  0  0
  -20.1459   -8.0126   20.2569 C   0  0  0  0  0  0  0  0  0  0  0  0
  -30.1299  -17.5227   21.1339 C   0  0  0  0  0  0  0  0  0  0  0  0
  -19.9497  -10.2346   19.3288 C   0  0  0  0  0  0  0  0  0  0  0  0
  -30.5723  -18.7039   20.5384 C   0  0  0  0  0  0  0  0  0  0  0  0
  -22.2521  -14.9696   24.4420 C   0  0  0  0  0  0  0  0  0  0  0  0
  -23.3351  -15.6296   26.2382 C   0  0  0  0  0  0  0  0  0  0  0  0
  -22.2942  -13.3671   26.4533 C   0  0  0  0  0  0  0  0  0  0  0  0
  -30.5098  -23.4258   19.6830 C   0  0  0  0  0  0  0  0  0  0  0  0
  -30.0392  -24.8632   19.7899 C   0  0  0  0  0  0  0  0  0  0  0  0
  -22.7531  -29.5095   22.0627 C   0  0  0  0  0  0  0  0  0  0  0  0
  -24.3774  -32.0393   23.2809 C   0  0  0  0  0  0  0  0  0  0  0  0
  -27.3857  -33.4341   24.0881 C   0  0  0  0  0  0  0  0  0  0  0  0
  -26.5999  -19.8994   23.6277 C   0  0  0  0  0  0  0  0  0  0  0  0
  -17.6655  -29.9199   21.9951 C   0  0  0  0  0  0  0  0  0  0  0  0
  -24.2222  -28.3864   23.7763 C   0  0  0  0  0  0  0  0  0  0  0  0
  -25.7477  -30.2829   22.0966 C   0  0  0  0  0  0  0  0  0  0  0  0
  -18.8405  -30.8834   21.8496 C   0  0  0  0  0  0  0  0  0  0  0  0
  -23.8243  -20.3739   25.8066 C   0  0  0  0  0  0  0  0  0  0  0  0
  -19.8535  -30.3421   20.8458 C   0  0  0  0  0  0  0  0  0  0  0  0
  -23.1415  -19.0044   25.8275 C   0  0  0  0  0  0  0  0  0  0  0  0
  -24.3890  -20.7051   24.4263 C   0  0  0  0  0  0  0  0  0  0  0  0
  -24.5914  -18.3121   23.8768 C   0  0  0  0  0  0  0  0  0  0  0  0
  -20.4345  -29.0030   21.3157 C   0  0  1  0  0  0  0  0  0  0  0  0
  -23.6103  -29.6939   23.2829 C   0  0  1  0  0  0  0  0  0  0  0  0
  -24.0637  -17.9063   25.2626 C   0  0  2  0  0  0  0  0  0  0  0  0
  -28.3963  -35.5281   25.0320 C   0  0  0  0  0  0  0  0  0  0  0  0
  -23.9059  -33.4621   20.6232 C   0  0  0  0  0  0  0  0  0  0  0  0
  -25.6964  -35.0927   21.2581 C   0  0  0  0  0  0  0  0  0  0  0  0
  -23.6307  -34.9091   22.6443 C   0  0  0  0  0  0  0  0  0  0  0  0
  -28.5615  -31.9731   26.3776 C   0  0  0  0  0  0  0  0  0  0  0  0
  -29.7865  -22.3791   20.4903 C   0  0  0  0  0  0  0  0  0  0  0  0
  -28.8716  -25.1693   20.6933 C   0  0  0  0  0  0  0  0  0  1  0  0
  -25.3472  -33.0546   22.7262 C   0  0  1  0  0  0  0  0  0  0  0  0
  -27.8649  -34.1380   25.3448 C   0  0  2  0  0  0  0  0  0  0  0  0
  -24.6505  -34.1017   21.8120 C   0  0  0  0  0  0  0  0  0  0  0  0
  -22.7227  -16.1784   24.1236 N   0  0  0  0  0  0  0  0  0  0  0  0
  -23.3766  -16.5538   25.2360 N   0  0  0  0  0  0  0  0  0  0  0  0
  -24.6204  -30.6994   22.9471 N   0  0  0  0  0  0  0  0  0  0  0  0
  -25.2563  -19.6222   23.9573 N   0  0  0  0  0  0  0  0  0  0  0  0
  -23.9410  -15.8461   27.4249 N   0  0  0  0  0  0  0  0  0  0  0  0
  -21.5317  -12.3887   25.8009 N   0  0  0  0  0  0  0  0  0  0  0  0
  -27.3364  -18.7858   23.2252 N   0  0  0  0  0  0  0  0  0  0  0  0
  -30.3795  -21.0880   20.2426 N   0  0  0  0  0  0  0  0  0  0  0  0
  -21.4318  -29.2172   22.3422 N   0  0  0  0  0  0  0  0  0  0  0  0
  -26.0375  -33.6301   23.8754 N   0  0  0  0  0  0  0  0  0  0  0  0
  -28.9530  -33.3541   25.9947 N   0  3  0  0  0  0  0  0  0  0  0  0
  -22.6693  -13.1673   27.6335 O   0  0  0  0  0  0  0  0  0  0  0  0
  -31.4583  -23.2044   18.9406 O   0  0  0  0  0  0  0  0  0  0  0  0
  -30.6370  -25.7030   19.1293 O   0  0  0  0  0  0  0  0  0  0  0  0
  -23.2532  -29.6253   20.9499 O   0  0  0  0  0  0  0  0  0  0  0  0
  -23.4429  -32.4203   23.9903 O   0  0  0  0  0  0  0  0  0  0  0  0
  -28.1334  -32.7792   23.3652 O   0  0  0  0  0  0  0  0  0  0  0  0
  -27.0704  -21.0358   23.7234 O   0  0  0  0  0  0  0  0  0  0  0  0
  -19.2457  -12.0612   20.7312 O   0  0  0  0  0  0  0  0  0  0  0  0
  -28.5626  -26.5609   20.6266 O   0  0  0  0  0  0  0  0  0  1  0  0
  -20.4363   -6.7138   20.1058 F   0  0  0  0  0  0  0  0  0  0  0  0
  -30.7360  -16.3622   20.8511 F   0  0  0  0  0  0  0  0  0  0  0  0
  -20.0532  -11.0649   18.2821 F   0  0  0  0  0  0  0  0  0  0  0  0
  -31.6042  -18.6658   19.6830 F   0  0  0  0  0  0  0  0  0  0  0  0
  1  2  1  0  0  0  0
  1  5  2  0  0  0  0
  2  6  2  0  0  0  0
  3  8  2  0  0  0  0
  3 17  1  0  0  0  0
  4  9  1  0  0  0  0
  4 17  2  0  0  0  0
  5 19  1  0  0  0  0
  6 21  1  0  0  0  0
  7 10  2  0  0  0  0
  7 20  1  0  0  0  0
  8 25  1  0  0  0  0
  9 25  2  0  0  0  0
 10 26  1  0  0  0  0
 11 12  2  0  0  0  0
 11 27  1  0  0  0  0
 12 28  1  0  0  0  0
 13 22  1  0  0  0  0
 13 26  2  0  0  0  0
 14 23  2  0  0  0  0
 14 24  1  0  0  0  0
 15 23  1  0  0  0  0
 15 29  2  0  0  0  0
 16 28  2  0  0  0  0
 16 30  1  0  0  0  0
 17 32  1  0  0  0  0
 18 32  1  0  0  0  0
 18 33  2  0  0  0  0
 18 34  1  0  0  0  0
 19 21  2  0  0  0  0
 19 41  1  0  0  0  0
 20 22  2  0  0  0  0
 20 42  1  0  0  0  0
 21 50  1  0  0  0  0
 22 43  1  0  0  0  0
 23 69  1  0  0  0  0
 24 31  2  0  0  0  0
 24 70  1  0  0  0  0
 25 81  1  0  0  0  0
 26 82  1  0  0  0  0
 27 30  2  0  0  0  0
 27 81  1  0  0  0  0
 28 83  1  0  0  0  0
 29 31  1  0  0  0  0
 29 84  1  0  0  0  0
 30 85  1  0  0  0  0
 31 86  1  0  0  0  0
 32 63  2  0  0  0  0
 33 64  1  0  0  0  0
 33 67  1  0  0  0  0
 34 68  1  0  0  0  0
 34 74  2  0  0  0  0
 35 36  1  0  0  0  0
 35 58  1  0  0  0  0
 35 75  2  0  0  0  0
 36 59  1  0  0  0  0
 36 76  2  0  0  0  0
 37 51  1  0  0  0  0
 37 71  1  0  0  0  0
 37 77  2  0  0  0  0
 38 60  1  0  0  0  0
 38 65  1  0  0  0  0
 38 78  2  0  0  0  0
 39 61  1  0  0  0  0
 39 72  1  0  0  0  0
 39 79  2  0  0  0  0
 40 66  1  0  0  0  0
 40 69  1  0  0  0  0
 40 80  2  0  0  0  0
 41 44  1  0  0  0  0
 42 51  1  0  0  0  0
 43 65  1  0  0  0  0
 44 46  1  0  0  0  0
 45 47  1  0  0  0  0
 45 48  1  0  0  0  0
 46 50  1  0  0  0  0
 47 52  1  0  0  0  0
 48 66  1  0  0  0  0
 49 52  1  0  0  0  0
 49 66  1  0  0  0  0
 50 71  1  0  0  0  0
 51 65  1  0  0  0  0
 52 64  1  0  0  0  0
 53 61  1  0  0  0  0
 54 62  1  0  0  0  0
 55 62  1  0  0  0  0
 56 62  1  0  0  0  0
 57 73  1  0  0  0  0
 58 70  1  0  0  0  0
 59 82  1  0  0  0  0
 60 62  1  0  0  0  0
 60 72  1  0  0  0  0
 61 73  1  0  0  0  0
 63 64  1  0  0  0  0
M  CHG  1  73   1
M  ISO  4  40 100  59 101  69 100  82 101
M  END
> <Batch ID>
0174

> <Smiles>
CNC(C)C(=O)NC(C(=O)N1Cc2cc([101O:1][101CH2:1]C(=O)C(=O)CNc3cc([100NH:0][100C:0](=O)N4CCCC(n5nc(-c6ccc(Oc7ccc(F)cc7F)cc6)c(C(N)=O)c5N)C4)cc(F)c3F)ccc2CC1C(=O)NC1CCCc2ccccc21)C(C)(C)C

> <Shape>
0.217

> <Color>
0.081

> <Negative vol penalty>
0.000

$$$$

  -OEChem-04052304333D

 89 97  0     1  0  0  0  0  0999 V2000
  -18.0583  -28.7801   22.5215 C   0  0  0  0  0  0  0  0  0  0  0  0
  -18.0115  -27.5010   21.9763 C   0  0  0  0  0  0  0  0  0  0  0  0
  -29.1591  -23.3658   20.7441 C   0  0  0  0  0  0  0  0  0  0  0  0
  -28.6152  -22.8804   18.4407 C   0  0  0  0  0  0  0  0  0  0  0  0
  -19.2025  -29.2092   23.1926 C   0  0  0  0  0  0  0  0  0  0  0  0
  -19.1096  -26.6506   22.1011 C   0  0  0  0  0  0  0  0  0  0  0  0
  -18.9948  -20.5653   22.7806 C   0  0  0  0  0  0  0  0  0  0  0  0
  -29.4673  -24.6804   20.3943 C   0  0  0  0  0  0  0  0  0  0  0  0
  -28.9235  -24.1950   18.0908 C   0  0  0  0  0  0  0  0  0  0  0  0
  -19.1583  -19.5172   21.8759 C   0  0  0  0  0  0  0  0  0  0  0  0
  -30.0515  -28.2614   20.1690 C   0  0  0  0  0  0  0  0  0  0  0  0
  -29.5640  -29.2812   20.9862 C   0  0  0  0  0  0  0  0  0  0  0  0
  -21.4862  -19.3595   22.4886 C   0  0  0  0  0  0  0  0  0  0  0  0
  -26.5403  -11.8067   20.6778 C   0  0  0  0  0  0  0  0  0  0  0  0
  -24.3891  -12.5401   21.4765 C   0  0  0  0  0  0  0  0  0  0  0  0
  -27.3023  -28.5589   20.5384 C   0  0  0  0  0  0  0  0  0  0  0  0
  -28.7331  -22.4658   19.7673 C   0  0  0  0  0  0  0  0  0  0  0  0
  -27.1626  -20.6055   20.5292 C   0  0  0  0  0  0  0  0  0  0  0  0
  -20.3115  -28.3602   23.3340 C   0  0  0  0  0  0  0  0  0  0  0  0
  -20.0801  -21.0264   23.5395 C   0  0  0  0  0  0  0  0  0  0  0  0
  -20.2703  -27.0693   22.7736 C   0  0  0  0  0  0  0  0  0  0  0  0
  -21.3332  -20.4118   23.4042 C   0  0  0  0  0  0  0  0  0  0  0  0
  -25.4704  -11.6678   21.5567 C   0  0  0  0  0  0  0  0  0  0  0  0
  -29.3495  -25.0951   19.0677 C   0  0  0  0  0  0  0  0  0  0  0  0
  -20.4048  -18.9161   21.7277 C   0  0  0  0  0  0  0  0  0  0  0  0
  -29.1644  -27.3903   19.5364 C   0  0  0  0  0  0  0  0  0  0  0  0
  -28.1895  -29.4300   21.1710 C   0  0  0  0  0  0  0  0  0  0  0  0
  -27.7899  -27.5391   19.7212 C   0  0  0  0  0  0  0  0  0  0  0  0
  -28.4151  -21.1075   20.1279 C   0  0  0  0  0  0  0  0  0  0  0  0
  -26.5017  -12.8226   19.7333 C   0  0  0  0  0  0  0  0  0  0  0  0
  -27.3852  -19.2695   20.7573 C   0  0  0  0  0  0  0  0  0  0  0  0
  -24.4050  -13.5375   20.5119 C   0  0  0  0  0  0  0  0  0  0  0  0
  -25.9099  -21.2860   20.6820 C   0  0  0  0  0  0  0  0  0  0  0  0
  -21.8599  -16.1997   19.7407 C   0  0  0  0  0  0  0  0  0  0  0  0
  -23.1552  -15.4687   19.5365 C   0  0  0  0  0  0  0  0  0  0  0  0
  -21.6364  -23.7874   23.7813 C   0  0  0  0  0  0  0  0  0  0  0  0
  -23.1680  -22.2651   26.2019 C   0  0  0  0  0  0  0  0  0  0  0  0
  -24.1295  -19.3135   27.6199 C   0  0  0  0  0  0  0  0  0  0  0  0
  -29.6273  -14.3838   19.2580 C   0  0  0  0  0  0  0  0  0  0  0  0
  -21.5440  -28.8853   24.0268 C   0  0  0  0  0  0  0  0  0  0  0  0
  -19.8810  -22.1402   24.5305 C   0  0  0  0  0  0  0  0  0  0  0  0
  -22.5255  -20.8561   24.2101 C   0  0  0  0  0  0  0  0  0  0  0  0
  -22.5235  -27.7899   24.4405 C   0  0  0  0  0  0  0  0  0  0  0  0
  -31.7053  -16.6543   21.0477 C   0  0  0  0  0  0  0  0  0  0  0  0
  -22.7415  -26.8078   23.2938 C   0  0  0  0  0  0  0  0  0  0  0  0
  -30.9344  -17.9745   20.9956 C   0  0  0  0  0  0  0  0  0  0  0  0
  -31.5537  -15.8607   19.7519 C   0  0  0  0  0  0  0  0  0  0  0  0
  -29.3895  -16.9410   19.2798 C   0  0  0  0  0  0  0  0  0  0  0  0
  -21.4318  -26.1088   22.9096 C   0  0  1  0  0  0  0  0  0  0  0  0
  -21.1752  -22.8694   24.8778 C   0  0  1  0  0  0  0  0  0  0  0  0
  -29.4664  -17.7509   20.5854 C   0  0  2  0  0  0  0  0  0  0  0  0
  -25.4030  -18.3899   29.5750 C   0  0  0  0  0  0  0  0  0  0  0  0
  -25.7950  -22.9989   24.8343 C   0  0  0  0  0  0  0  0  0  0  0  0
  -26.9355  -21.2867   26.2611 C   0  0  0  0  0  0  0  0  0  0  0  0
  -25.8106  -23.2437   27.3231 C   0  0  0  0  0  0  0  0  0  0  0  0
  -21.7442  -17.8990   28.6538 C   0  0  0  0  0  0  0  0  0  0  0  0
  -21.8717  -17.3234   20.7439 C   0  0  0  0  0  0  0  0  0  1  0  0
  -27.6028  -13.0374   18.7600 C   0  0  1  0  0  0  0  0  0  0  0  0
  -24.4027  -21.4034   26.3115 C   0  0  1  0  0  0  0  0  0  0  0  0
  -24.0384  -18.8049   29.0473 C   0  0  2  0  0  0  0  0  0  0  0  0
  -25.7141  -22.2259   26.1658 C   0  0  0  0  0  0  0  0  0  0  0  0
  -27.1662  -12.9026   17.2967 C   0  0  0  0  0  0  0  0  0  0  0  0
  -29.3632  -20.1670   20.1017 N   0  0  0  0  0  0  0  0  0  0  0  0
  -28.7061  -19.0607   20.4896 N   0  0  0  0  0  0  0  0  0  0  0  0
  -25.4480  -13.6487   19.6780 N   0  3  0  0  0  0  0  0  0  0  0  0
  -22.2817  -21.9531   25.1612 N   0  0  0  0  0  0  0  0  0  0  0  0
  -30.1381  -15.6822   19.4201 N   0  0  0  0  0  0  0  0  0  0  0  0
  -25.4821  -10.6447   22.5270 N   0  0  0  0  0  0  0  0  0  0  0  0
  -26.5780  -18.2648   21.1589 N   0  0  0  0  0  0  0  0  0  0  0  0
  -25.8573  -22.6591   20.4058 N   0  0  0  0  0  0  0  0  0  0  0  0
  -23.3086  -14.4270   20.4257 N   0  0  0  0  0  0  0  0  0  0  0  0
  -21.1175  -25.0655   23.8621 N   0  0  0  0  0  0  0  0  0  0  0  0
  -24.2867  -20.6826   27.5746 N   0  0  0  0  0  0  0  0  0  0  0  0
  -28.2745  -14.3036   18.9507 N   0  0  0  0  0  0  0  0  0  0  0  0
  -23.1282  -17.6272   29.1205 N   0  3  0  0  0  0  0  0  0  0  0  0
  -24.8717  -20.6973   21.0683 O   0  0  0  0  0  0  0  0  0  0  0  0
  -20.8907  -15.8226   19.0997 O   0  0  0  0  0  0  0  0  0  0  0  0
  -23.8893  -15.8923   18.6592 O   0  0  0  0  0  0  0  0  0  0  0  0
  -22.4073  -23.3675   22.9262 O   0  0  0  0  0  0  0  0  0  0  0  0
  -22.9927  -23.1767   27.0143 O   0  0  0  0  0  0  0  0  0  0  0  0
  -24.0709  -18.5701   26.6429 O   0  0  0  0  0  0  0  0  0  0  0  0
  -30.3238  -13.3709   19.3834 O   0  0  0  0  0  0  0  0  0  0  0  0
  -29.6499  -26.3778   18.7260 O   0  0  0  0  0  0  0  0  0  0  0  0
  -20.5673  -17.8933   20.8448 O   0  0  0  0  0  0  0  0  0  1  0  0
  -27.7215  -30.4085   21.9570 F   0  0  0  0  0  0  0  0  0  0  0  0
  -26.9328  -26.7046   19.1171 F   0  0  0  0  0  0  0  0  0  0  0  0
  -26.6987  -11.6671   17.0201 F   0  0  0  0  0  0  0  0  0  0  0  0
  -26.1900  -13.7866   16.9848 F   0  0  0  0  0  0  0  0  0  0  0  0
  -28.2048  -13.1480   16.4665 F   0  0  0  0  0  0  0  0  0  0  0  0
  1  2  1  0  0  0  0
  1  5  2  0  0  0  0
  2  6  2  0  0  0  0
  3  8  2  0  0  0  0
  3 17  1  0  0  0  0
  4  9  1  0  0  0  0
  4 17  2  0  0  0  0
  5 19  1  0  0  0  0
  6 21  1  0  0  0  0
  7 10  2  0  0  0  0
  7 20  1  0  0  0  0
  8 24  1  0  0  0  0
  9 24  2  0  0  0  0
 10 25  1  0  0  0  0
 11 12  2  0  0  0  0
 11 26  1  0  0  0  0
 12 27  1  0  0  0  0
 13 22  1  0  0  0  0
 13 25  2  0  0  0  0
 14 23  1  0  0  0  0
 14 30  2  0  0  0  0
 15 23  2  0  0  0  0
 15 32  1  0  0  0  0
 16 27  2  0  0  0  0
 16 28  1  0  0  0  0
 17 29  1  0  0  0  0
 18 29  1  0  0  0  0
 18 31  2  0  0  0  0
 18 33  1  0  0  0  0
 19 21  2  0  0  0  0
 19 40  1  0  0  0  0
 20 22  2  0  0  0  0
 20 41  1  0  0  0  0
 21 49  1  0  0  0  0
 22 42  1  0  0  0  0
 23 68  1  0  0  0  0
 24 83  1  0  0  0  0
 25 84  1  0  0  0  0
 26 28  2  0  0  0  0
 26 83  1  0  0  0  0
 27 85  1  0  0  0  0
 28 86  1  0  0  0  0
 29 63  2  0  0  0  0
 30 58  1  0  0  0  0
 30 65  1  0  0  0  0
 31 64  1  0  0  0  0
 31 69  1  0  0  0  0
 32 65  2  0  0  0  0
 32 71  1  0  0  0  0
 33 70  1  0  0  0  0
 33 76  2  0  0  0  0
 34 35  1  0  0  0  0
 34 57  1  0  0  0  0
 34 77  2  0  0  0  0
 35 71  1  0  0  0  0
 35 78  2  0  0  0  0
 36 50  1  0  0  0  0
 36 72  1  0  0  0  0
 36 79  2  0  0  0  0
 37 59  1  0  0  0  0
 37 66  1  0  0  0  0
 37 80  2  0  0  0  0
 38 60  1  0  0  0  0
 38 73  1  0  0  0  0
 38 81  2  0  0  0  0
 39 67  1  0  0  0  0
 39 74  1  0  0  0  0
 39 82  2  0  0  0  0
 40 43  1  0  0  0  0
 41 50  1  0  0  0  0
 42 66  1  0  0  0  0
 43 45  1  0  0  0  0
 44 46  1  0  0  0  0
 44 47  1  0  0  0  0
 45 49  1  0  0  0  0
 46 51  1  0  0  0  0
 47 67  1  0  0  0  0
 48 51  1  0  0  0  0
 48 67  1  0  0  0  0
 49 72  1  0  0  0  0
 50 66  1  0  0  0  0
 51 64  1  0  0  0  0
 52 60  1  0  0  0  0
 53 61  1  0  0  0  0
 54 61  1  0  0  0  0
 55 61  1  0  0  0  0
 56 75  1  0  0  0  0
 57 84  1  0  0  0  0
 58 62  1  0  0  0  0
 58 74  1  0  0  0  0
 59 61  1  0  0  0  0
 59 73  1  0  0  0  0
 60 75  1  0  0  0  0
 62 87  1  0  0  0  0
 62 88  1  0  0  0  0
 62 89  1  0  0  0  0
 63 64  1  0  0  0  0
M  CHG  2  65   1  75   1
M  ISO  4  39 100  57 101  74 100  84 101
M  END
> <Batch ID>
0174

> <Smiles>
CNC(C)C(=O)NC(C(=O)N1Cc2cc([101O:1][101CH2:1]C(=O)C(=O)Nc3cc(N)cc(C([100NH:0][100C:0](=O)N4CCCC(n5nc(-c6ccc(Oc7ccc(F)cc7F)cc6)c(C(N)=O)c5N)C4)C(F)(F)F)n3)ccc2CC1C(=O)NC1CCCc2ccccc21)C(C)(C)C

> <Shape>
0.237

> <Color>
0.052

> <Negative vol penalty>
0.000

$$$$

  -OEChem-04052304333D

 91 99  0     1  0  0  0  0  0999 V2000
  -35.2425  -24.4824   17.6449 C   0  0  0  0  0  0  0  0  0  0  0  0
  -34.0804  -23.9110   18.1531 C   0  0  0  0  0  0  0  0  0  0  0  0
  -23.0019   -9.8804   19.9847 C   0  0  0  0  0  0  0  0  0  0  0  0
  -23.7223   -9.9452   22.2899 C   0  0  0  0  0  0  0  0  0  0  0  0
  -35.8010  -25.5967   18.2697 C   0  0  0  0  0  0  0  0  0  0  0  0
  -33.4766  -24.4529   19.2872 C   0  0  0  0  0  0  0  0  0  0  0  0
  -27.4772  -24.7363   20.4843 C   0  0  0  0  0  0  0  0  0  0  0  0
  -22.2371   -8.7458   20.2555 C   0  0  0  0  0  0  0  0  0  0  0  0
  -22.9575   -8.8106   22.5607 C   0  0  0  0  0  0  0  0  0  0  0  0
  -26.6373  -23.9404   21.2621 C   0  0  0  0  0  0  0  0  0  0  0  0
  -23.2094   -5.4696   22.1071 C   0  0  0  0  0  0  0  0  0  0  0  0
  -23.7975   -4.4577   22.8658 C   0  0  0  0  0  0  0  0  0  0  0  0
  -26.8922  -25.4799   23.1017 C   0  0  0  0  0  0  0  0  0  0  0  0
  -31.1777  -17.6122   20.5514 C   0  0  0  0  0  0  0  0  0  0  0  0
  -29.5194  -17.8765   22.2884 C   0  0  0  0  0  0  0  0  0  0  0  0
  -22.0697   -4.7060   24.5362 C   0  0  0  0  0  0  0  0  0  0  0  0
  -23.7446  -10.4801   21.0019 C   0  0  0  0  0  0  0  0  0  0  0  0
  -30.6307  -19.8170   21.3739 C   0  0  0  0  0  0  0  0  0  0  0  0
  -24.1252  -12.9955   20.8132 C   0  0  0  0  0  0  0  0  0  0  0  0
  -35.1984  -26.1584   19.4064 C   0  0  0  0  0  0  0  0  0  0  0  0
  -28.0406  -25.9062   21.0138 C   0  0  0  0  0  0  0  0  0  0  0  0
  -34.0283  -25.5749   19.9286 C   0  0  0  0  0  0  0  0  0  0  0  0
  -27.7369  -26.2902   22.3277 C   0  0  0  0  0  0  0  0  0  0  0  0
  -31.3657  -18.9940   20.5207 C   0  0  0  0  0  0  0  0  0  0  0  0
  -30.2544  -17.0534   21.4352 C   0  0  0  0  0  0  0  0  0  0  0  0
  -29.7075  -19.2583   22.2578 C   0  0  0  0  0  0  0  0  0  0  0  0
  -22.2149   -8.2109   21.5435 C   0  0  0  0  0  0  0  0  0  0  0  0
  -26.3470  -24.3107   22.5719 C   0  0  0  0  0  0  0  0  0  0  0  0
  -22.0516   -6.0999   22.5630 C   0  0  0  0  0  0  0  0  0  0  0  0
  -23.2277   -4.0758   24.0804 C   0  0  0  0  0  0  0  0  0  0  0  0
  -21.4817   -5.7181   23.7775 C   0  0  0  0  0  0  0  0  0  0  0  0
  -24.5352  -11.6518   20.7226 C   0  0  0  0  0  0  0  0  0  0  0  0
  -25.2342  -13.7183   20.4472 C   0  0  0  0  0  0  0  0  0  0  0  0
  -30.8302  -21.2633   21.3379 C   0  0  0  0  0  0  0  0  0  0  0  0
  -22.8554  -13.5414   21.1943 C   0  0  0  0  0  0  0  0  0  0  0  0
  -27.4056  -20.7978   24.8044 C   0  0  0  0  0  0  0  0  0  0  0  0
  -28.0098  -19.6499   24.0484 C   0  0  0  0  0  0  0  0  0  0  0  0
  -31.0024  -26.9163   21.5712 C   0  0  0  0  0  0  0  0  0  0  0  0
  -29.4971  -29.6858   22.3370 C   0  0  0  0  0  0  0  0  0  0  0  0
  -26.6414  -31.2403   23.3738 C   0  0  0  0  0  0  0  0  0  0  0  0
  -30.7113  -14.6917   20.6871 C   0  0  0  0  0  0  0  0  0  0  0  0
  -35.8651  -27.3344   20.0752 C   0  0  0  0  0  0  0  0  0  0  0  0
  -28.9233  -26.7678   20.1531 C   0  0  0  0  0  0  0  0  0  0  0  0
  -28.2999  -27.5474   22.9367 C   0  0  0  0  0  0  0  0  0  0  0  0
  -34.9558  -28.0753   21.0523 C   0  0  0  0  0  0  0  0  0  0  0  0
  -29.6026  -12.2242   18.3720 C   0  0  0  0  0  0  0  0  0  0  0  0
  -34.2278  -27.0872   21.9581 C   0  0  0  0  0  0  0  0  0  0  0  0
  -28.1517  -11.9659   18.7846 C   0  0  0  0  0  0  0  0  0  0  0  0
  -30.5002  -12.4759   19.5823 C   0  0  0  0  0  0  0  0  0  0  0  0
  -28.5806  -13.2680   20.9077 C   0  0  0  0  0  0  0  0  0  0  0  0
  -33.3302  -26.1490   21.1424 C   0  0  1  0  0  0  0  0  0  0  0  0
  -29.8523  -27.6675   20.9623 C   0  0  1  0  0  0  0  0  0  0  0  0
  -27.6257  -13.0734   19.7186 C   0  0  2  0  0  0  0  0  0  0  0  0
  -32.3625  -19.5627   19.5637 C   0  0  0  0  0  0  0  0  0  0  0  0
  -31.8760  -21.8356   22.2455 C   0  0  0  0  0  0  0  0  0  0  0  0
  -25.7286  -33.5069   23.9455 C   0  0  0  0  0  0  0  0  0  0  0  0
  -30.9752  -29.6054   25.0051 C   0  0  0  0  0  0  0  0  0  0  0  0
  -29.3525  -31.3016   25.8757 C   0  0  0  0  0  0  0  0  0  0  0  0
  -30.8395  -31.8713   23.9555 C   0  0  0  0  0  0  0  0  0  0  0  0
  -25.5277  -22.1643   26.8861 C   0  0  0  0  0  0  0  0  0  0  0  0
  -24.6087  -31.0909   21.2279 C   0  0  0  0  0  0  0  0  0  0  0  0
  -25.9099  -20.9859   24.6466 C   0  0  0  0  0  0  0  0  0  0  0  0
  -25.7578  -23.5360   24.7419 C   0  0  0  0  0  0  0  0  0  1  0  0
  -28.9141  -30.2718   23.6002 C   0  0  1  0  0  0  0  0  0  0  0  0
  -25.9158  -32.4672   22.8515 C   0  0  2  0  0  0  0  0  0  0  0  0
  -30.0111  -30.7378   24.5986 C   0  0  0  0  0  0  0  0  0  0  0  0
  -25.3085  -22.2067   25.3692 C   0  0  2  0  0  0  0  0  0  0  0  0
  -25.8056  -11.5258   20.3296 N   0  0  0  0  0  0  0  0  0  0  0  0
  -26.2033  -12.7995   20.1700 N   0  0  0  0  0  0  0  0  0  0  0  0
  -29.1628  -28.3532   22.0571 N   0  0  0  0  0  0  0  0  0  0  0  0
  -29.9413  -13.5402   20.4188 N   0  0  0  0  0  0  0  0  0  0  0  0
  -25.4653  -15.0439   20.3385 N   0  0  0  0  0  0  0  0  0  0  0  0
  -21.8246  -12.6570   21.5404 N   0  0  0  0  0  0  0  0  0  0  0  0
  -28.9495  -20.0710   23.1324 N   0  0  0  0  0  0  0  0  0  0  0  0
  -30.0635  -15.6498   21.4662 N   0  0  0  0  0  0  0  0  0  0  0  0
  -32.1123  -26.8269   20.7528 N   0  0  0  0  0  0  0  0  0  0  0  0
  -28.0031  -31.3298   23.1767 N   0  0  0  0  0  0  0  0  0  0  0  0
  -23.8136  -22.1150   25.1622 N   0  3  0  0  0  0  0  0  0  0  0  0
  -24.5730  -32.0904   22.3264 N   0  3  0  0  0  0  0  0  0  0  0  0
  -30.2004  -22.0396   20.6225 O   0  0  0  0  0  0  0  0  0  0  0  0
  -22.6361  -14.7764   21.2110 O   0  0  0  0  0  0  0  0  0  0  0  0
  -28.1655  -21.4751   25.4786 O   0  0  0  0  0  0  0  0  0  0  0  0
  -27.5868  -18.5373   24.3150 O   0  0  0  0  0  0  0  0  0  0  0  0
  -30.8917  -26.4535   22.7004 O   0  0  0  0  0  0  0  0  0  0  0  0
  -30.2167  -30.3868   21.6212 O   0  0  0  0  0  0  0  0  0  0  0  0
  -26.0588  -30.2985   23.9069 O   0  0  0  0  0  0  0  0  0  0  0  0
  -31.8506  -14.8305   20.2346 O   0  0  0  0  0  0  0  0  0  0  0  0
  -21.4685   -7.1039   21.8082 O   0  0  0  0  0  0  0  0  0  0  0  0
  -25.5280  -23.5353   23.3335 O   0  0  0  0  0  0  0  0  0  1  0  0
  -23.7916   -3.1029   24.8081 F   0  0  0  0  0  0  0  0  0  0  0  0
  -20.3687   -6.3191   24.2201 F   0  0  0  0  0  0  0  0  0  0  0  0
  1  2  1  0  0  0  0
  1  5  2  0  0  0  0
  2  6  2  0  0  0  0
  3  8  2  0  0  0  0
  3 17  1  0  0  0  0
  4  9  1  0  0  0  0
  4 17  2  0  0  0  0
  5 20  1  0  0  0  0
  6 22  1  0  0  0  0
  7 10  2  0  0  0  0
  7 21  1  0  0  0  0
  8 27  1  0  0  0  0
  9 27  2  0  0  0  0
 10 28  1  0  0  0  0
 11 12  2  0  0  0  0
 11 29  1  0  0  0  0
 12 30  1  0  0  0  0
 13 23  1  0  0  0  0
 13 28  2  0  0  0  0
 14 24  2  0  0  0  0
 14 25  1  0  0  0  0
 15 25  2  0  0  0  0
 15 26  1  0  0  0  0
 16 30  2  0  0  0  0
 16 31  1  0  0  0  0
 17 32  1  0  0  0  0
 18 24  1  0  0  0  0
 18 26  2  0  0  0  0
 18 34  1  0  0  0  0
 19 32  1  0  0  0  0
 19 33  2  0  0  0  0
 19 35  1  0  0  0  0
 20 22  2  0  0  0  0
 20 42  1  0  0  0  0
 21 23  2  0  0  0  0
 21 43  1  0  0  0  0
 22 51  1  0  0  0  0
 23 44  1  0  0  0  0
 24 54  1  0  0  0  0
 25 75  1  0  0  0  0
 26 74  1  0  0  0  0
 27 88  1  0  0  0  0
 28 89  1  0  0  0  0
 29 31  2  0  0  0  0
 29 88  1  0  0  0  0
 30 90  1  0  0  0  0
 31 91  1  0  0  0  0
 32 68  2  0  0  0  0
 33 69  1  0  0  0  0
 33 72  1  0  0  0  0
 34 55  1  0  0  0  0
 34 80  2  0  0  0  0
 35 73  1  0  0  0  0
 35 81  2  0  0  0  0
 36 37  1  0  0  0  0
 36 62  1  0  0  0  0
 36 82  2  0  0  0  0
 37 74  1  0  0  0  0
 37 83  2  0  0  0  0
 38 52  1  0  0  0  0
 38 76  1  0  0  0  0
 38 84  2  0  0  0  0
 39 64  1  0  0  0  0
 39 70  1  0  0  0  0
 39 85  2  0  0  0  0
 40 65  1  0  0  0  0
 40 77  1  0  0  0  0
 40 86  2  0  0  0  0
 41 71  1  0  0  0  0
 41 75  1  0  0  0  0
 41 87  2  0  0  0  0
 42 45  1  0  0  0  0
 43 52  1  0  0  0  0
 44 70  1  0  0  0  0
 45 47  1  0  0  0  0
 46 48  1  0  0  0  0
 46 49  1  0  0  0  0
 47 51  1  0  0  0  0
 48 53  1  0  0  0  0
 49 71  1  0  0  0  0
 50 53  1  0  0  0  0
 50 71  1  0  0  0  0
 51 76  1  0  0  0  0
 52 70  1  0  0  0  0
 53 69  1  0  0  0  0
 56 65  1  0  0  0  0
 57 66  1  0  0  0  0
 58 66  1  0  0  0  0
 59 66  1  0  0  0  0
 60 67  1  0  0  0  0
 61 79  1  0  0  0  0
 62 67  1  0  0  0  0
 63 67  1  0  0  0  0
 63 89  1  0  0  0  0
 64 66  1  0  0  0  0
 64 77  1  0  0  0  0
 65 79  1  0  0  0  0
 67 78  1  0  0  0  0
 68 69  1  0  0  0  0
M  CHG  2  78   1  79   1
M  ISO  4  41 100  63 101  75 100  89 101
M  END
> <Batch ID>
0174

> <Smiles>
CNC(C)C(=O)NC(C(=O)N1Cc2cc([101O:1][101CH2:1]C(C)(N)CC(=O)C(=O)Nc3cc([100NH:0][100C:0](=O)N4CCCC(n5nc(-c6ccc(Oc7ccc(F)cc7F)cc6)c(C(N)=O)c5N)C4)cc(C)c3C(C)=O)ccc2CC1C(=O)NC1CCCc2ccccc21)C(C)(C)C

> <Shape>
0.272

> <Color>
0.183

> <Negative vol penalty>
0.000

$$$$

  -OEChem-04052304333D

 91 99  0     1  0  0  0  0  0999 V2000
  -28.4464  -32.1661   26.8330 C   0  0  0  0  0  0  0  0  0  0  0  0
  -28.3983  -31.0035   26.0705 C   0  0  0  0  0  0  0  0  0  0  0  0
  -24.6411   -8.7577   21.5566 C   0  0  0  0  0  0  0  0  0  0  0  0
  -22.8827  -10.3641   21.1512 C   0  0  0  0  0  0  0  0  0  0  0  0
  -27.2727  -32.8660   27.1097 C   0  0  0  0  0  0  0  0  0  0  0  0
  -27.1763  -30.5395   25.5850 C   0  0  0  0  0  0  0  0  0  0  0  0
  -27.4315  -29.1032   20.7356 C   0  0  0  0  0  0  0  0  0  0  0  0
  -23.8183   -8.0849   22.4599 C   0  0  0  0  0  0  0  0  0  0  0  0
  -22.0598   -9.6914   22.0545 C   0  0  0  0  0  0  0  0  0  0  0  0
  -28.0015  -27.8591   20.4692 C   0  0  0  0  0  0  0  0  0  0  0  0
  -22.0535   -5.7369   24.6017 C   0  0  0  0  0  0  0  0  0  0  0  0
  -22.0023   -4.3454   24.5202 C   0  0  0  0  0  0  0  0  0  0  0  0
  -24.6256  -18.2522   19.4610 C   0  0  0  0  0  0  0  0  0  0  0  0
  -25.7975  -26.9027   20.2517 C   0  0  0  0  0  0  0  0  0  0  0  0
  -21.1889   -4.5082   22.2510 C   0  0  0  0  0  0  0  0  0  0  0  0
  -24.1733   -9.8973   20.9023 C   0  0  0  0  0  0  0  0  0  0  0  0
  -24.0877  -19.5058   19.1922 C   0  0  0  0  0  0  0  0  0  0  0  0
  -25.1324  -10.3635   18.5848 C   0  0  0  0  0  0  0  0  0  0  0  0
  -26.0369  -32.4156   26.6192 C   0  0  0  0  0  0  0  0  0  0  0  0
  -26.0378  -29.2544   20.7729 C   0  0  0  0  0  0  0  0  0  0  0  0
  -25.9848  -31.2333   25.8564 C   0  0  0  0  0  0  0  0  0  0  0  0
  -25.2124  -28.1503   20.5163 C   0  0  0  0  0  0  0  0  0  0  0  0
  -24.9142  -20.6239   19.1855 C   0  0  0  0  0  0  0  0  0  0  0  0
  -22.5277   -8.5518   22.7089 C   0  0  0  0  0  0  0  0  0  0  0  0
  -27.1845  -26.7579   20.2300 C   0  0  0  0  0  0  0  0  0  0  0  0
  -21.6723   -6.5141   23.5079 C   0  0  0  0  0  0  0  0  0  0  0  0
  -21.5700   -3.7310   23.3448 C   0  0  0  0  0  0  0  0  0  0  0  0
  -21.2400   -5.8997   22.3326 C   0  0  0  0  0  0  0  0  0  0  0  0
  -25.0230  -10.5930   19.9695 C   0  0  0  0  0  0  0  0  0  0  0  0
  -25.9853  -18.1707   19.7148 C   0  0  0  0  0  0  0  0  0  0  0  0
  -26.2609  -20.4363   19.4517 C   0  0  0  0  0  0  0  0  0  0  0  0
  -26.0646  -11.2774   18.1579 C   0  0  0  0  0  0  0  0  0  0  0  0
  -24.4520   -9.4096   17.7584 C   0  0  0  0  0  0  0  0  0  0  0  0
  -22.6606  -19.6165   18.9217 C   0  0  0  0  0  0  0  0  0  0  0  0
  -29.0518  -22.9575   19.5563 C   0  0  0  0  0  0  0  0  0  0  0  0
  -28.4713  -21.5784   19.6807 C   0  0  0  0  0  0  0  0  0  0  0  0
  -23.9332  -30.1114   22.9954 C   0  0  0  0  0  0  0  0  0  0  0  0
  -21.8433  -29.9607   20.5192 C   0  0  0  0  0  0  0  0  0  0  0  0
  -21.0783  -28.6864   17.4471 C   0  0  0  0  0  0  0  0  0  0  0  0
  -27.8534  -16.5738   20.2683 C   0  0  0  0  0  0  0  0  0  0  0  0
  -24.7890  -33.1800   26.9841 C   0  0  0  0  0  0  0  0  0  0  0  0
  -25.4387  -30.6088   21.0353 C   0  0  0  0  0  0  0  0  0  0  0  0
  -23.7105  -28.2641   20.5248 C   0  0  0  0  0  0  0  0  0  0  0  0
  -23.5829  -32.8264   26.1176 C   0  0  0  0  0  0  0  0  0  0  0  0
  -29.8933  -13.7142   19.6868 C   0  0  0  0  0  0  0  0  0  0  0  0
  -23.4502  -31.3130   25.9795 C   0  0  0  0  0  0  0  0  0  0  0  0
  -28.8855  -12.5693   19.5612 C   0  0  0  0  0  0  0  0  0  0  0  0
  -29.4613  -14.7376   20.7354 C   0  0  0  0  0  0  0  0  0  0  0  0
  -27.0945  -14.1220   20.4378 C   0  0  0  0  0  0  0  0  0  0  0  0
  -24.6815  -30.7118   25.2912 C   0  0  1  0  0  0  0  0  0  0  0  0
  -24.0067  -30.5379   21.5565 C   0  0  1  0  0  0  0  0  0  0  0  0
  -27.4541  -13.0995   19.3475 C   0  0  2  0  0  0  0  0  0  0  0  0
  -19.2836  -28.7161   15.6934 C   0  0  0  0  0  0  0  0  0  0  0  0
  -23.8987  -22.6878   20.1695 C   0  0  0  0  0  0  0  0  0  0  0  0
  -20.1428  -28.0934   22.2313 C   0  0  0  0  0  0  0  0  0  0  0  0
  -18.9155  -27.4210   20.1553 C   0  0  0  0  0  0  0  0  0  0  0  0
  -18.8435  -29.7903   20.9325 C   0  0  0  0  0  0  0  0  0  0  0  0
  -22.9109  -29.8327   15.4256 C   0  0  0  0  0  0  0  0  0  0  0  0
  -29.1254  -23.7724   20.8289 C   0  0  0  0  0  0  0  0  0  0  0  0
  -29.0059  -25.2657   20.5646 C   0  0  0  0  0  0  0  0  0  1  0  0
  -20.9740  -28.8828   19.9179 C   0  0  1  0  0  0  0  0  0  0  0  0
  -20.5782  -29.3508   16.1771 C   0  0  2  0  0  0  0  0  0  0  0  0
  -24.3580  -21.9801   18.8979 C   0  0  0  0  0  0  0  0  0  0  0  0
  -19.7472  -28.5440   20.8110 C   0  0  0  0  0  0  0  0  0  0  0  0
  -25.8221  -11.5755   20.3940 N   0  0  0  0  0  0  0  0  0  0  0  0
  -26.8198  -19.2343   19.7171 N   0  0  0  0  0  0  0  0  0  0  0  0
  -26.4425  -11.9714   19.2695 N   0  0  0  0  0  0  0  0  0  0  0  0
  -23.1725  -29.6081   20.7925 N   0  0  0  0  0  0  0  0  0  0  0  0
  -28.0974  -15.1983   20.4664 N   0  0  0  0  0  0  0  0  0  0  0  0
  -26.5898  -11.5470   16.9438 N   0  0  0  0  0  0  0  0  0  0  0  0
  -23.5257   -8.5460   18.3587 N   0  0  0  0  0  0  0  0  0  0  0  0
  -27.1130  -21.5653   19.4478 N   0  0  0  0  0  0  0  0  0  0  0  0
  -26.5243  -16.8890   19.9878 N   0  0  0  0  0  0  0  0  0  0  0  0
  -24.6225  -30.9372   23.8629 N   0  0  0  0  0  0  0  0  0  0  0  0
  -20.6285  -29.3384   18.5758 N   0  0  0  0  0  0  0  0  0  0  0  0
  -21.5946  -29.2291   15.0940 N   0  3  0  0  0  0  0  0  0  0  0  0
  -24.6715   -9.3146   16.5271 O   0  0  0  0  0  0  0  0  0  0  0  0
  -22.0719  -19.0571   18.0017 O   0  0  0  0  0  0  0  0  0  0  0  0
  -29.4276  -23.3085   18.4481 O   0  0  0  0  0  0  0  0  0  0  0  0
  -29.2531  -20.6777   19.9362 O   0  0  0  0  0  0  0  0  0  0  0  0
  -23.2970  -29.1083   23.2966 O   0  0  0  0  0  0  0  0  0  0  0  0
  -21.3626  -31.0767   20.7317 O   0  0  0  0  0  0  0  0  0  0  0  0
  -21.7932  -27.6867   17.4388 O   0  0  0  0  0  0  0  0  0  0  0  0
  -28.7616  -17.4073   20.3153 O   0  0  0  0  0  0  0  0  0  0  0  0
  -21.7244   -7.8955   23.5901 O   0  0  0  0  0  0  0  0  0  0  0  0
  -27.7382  -25.5423   19.9704 O   0  0  0  0  0  0  0  0  0  1  0  0
  -21.5224   -2.3947   23.2662 F   0  0  0  0  0  0  0  0  0  0  0  0
  -20.8737   -6.6411   21.2781 F   0  0  0  0  0  0  0  0  0  0  0  0
  -21.9095  -20.3860   19.7322 F   0  0  0  0  0  0  0  0  0  0  0  0
  -23.2852  -21.9476   18.0452 F   0  0  0  0  0  0  0  0  0  0  0  0
  -25.2599  -22.8071   18.2799 F   0  0  0  0  0  0  0  0  0  0  0  0
  1  2  1  0  0  0  0
  1  5  2  0  0  0  0
  2  6  2  0  0  0  0
  3  8  2  0  0  0  0
  3 16  1  0  0  0  0
  4  9  1  0  0  0  0
  4 16  2  0  0  0  0
  5 19  1  0  0  0  0
  6 21  1  0  0  0  0
  7 10  2  0  0  0  0
  7 20  1  0  0  0  0
  8 24  1  0  0  0  0
  9 24  2  0  0  0  0
 10 25  1  0  0  0  0
 11 12  2  0  0  0  0
 11 26  1  0  0  0  0
 12 27  1  0  0  0  0
 13 17  2  0  0  0  0
 13 30  1  0  0  0  0
 14 22  1  0  0  0  0
 14 25  2  0  0  0  0
 15 27  2  0  0  0  0
 15 28  1  0  0  0  0
 16 29  1  0  0  0  0
 17 23  1  0  0  0  0
 17 34  1  0  0  0  0
 18 29  1  0  0  0  0
 18 32  2  0  0  0  0
 18 33  1  0  0  0  0
 19 21  2  0  0  0  0
 19 41  1  0  0  0  0
 20 22  2  0  0  0  0
 20 42  1  0  0  0  0
 21 50  1  0  0  0  0
 22 43  1  0  0  0  0
 23 31  2  0  0  0  0
 23 63  1  0  0  0  0
 24 85  1  0  0  0  0
 25 86  1  0  0  0  0
 26 28  2  0  0  0  0
 26 85  1  0  0  0  0
 27 87  1  0  0  0  0
 28 88  1  0  0  0  0
 29 65  2  0  0  0  0
 30 66  2  0  0  0  0
 30 73  1  0  0  0  0
 31 66  1  0  0  0  0
 31 72  1  0  0  0  0
 32 67  1  0  0  0  0
 32 70  1  0  0  0  0
 33 71  1  0  0  0  0
 33 77  2  0  0  0  0
 34 78  2  0  0  0  0
 34 89  1  0  0  0  0
 35 36  1  0  0  0  0
 35 59  1  0  0  0  0
 35 79  2  0  0  0  0
 36 72  1  0  0  0  0
 36 80  2  0  0  0  0
 37 51  1  0  0  0  0
 37 74  1  0  0  0  0
 37 81  2  0  0  0  0
 38 61  1  0  0  0  0
 38 68  1  0  0  0  0
 38 82  2  0  0  0  0
 39 62  1  0  0  0  0
 39 75  1  0  0  0  0
 39 83  2  0  0  0  0
 40 69  1  0  0  0  0
 40 73  1  0  0  0  0
 40 84  2  0  0  0  0
 41 44  1  0  0  0  0
 42 51  1  0  0  0  0
 43 68  1  0  0  0  0
 44 46  1  0  0  0  0
 45 47  1  0  0  0  0
 45 48  1  0  0  0  0
 46 50  1  0  0  0  0
 47 52  1  0  0  0  0
 48 69  1  0  0  0  0
 49 52  1  0  0  0  0
 49 69  1  0  0  0  0
 50 74  1  0  0  0  0
 51 68  1  0  0  0  0
 52 67  1  0  0  0  0
 53 62  1  0  0  0  0
 54 63  1  0  0  0  0
 55 64  1  0  0  0  0
 56 64  1  0  0  0  0
 57 64  1  0  0  0  0
 58 76  1  0  0  0  0
 59 60  1  0  0  0  0
 60 86  1  0  0  0  0
 61 64  1  0  0  0  0
 61 75  1  0  0  0  0
 62 76  1  0  0  0  0
 63 90  1  0  0  0  0
 63 91  1  0  0  0  0
 65 67  1  0  0  0  0
M  CHG  1  76   1
M  ISO  4  40 100  60 101  73 100  86 101
M  END
> <Batch ID>
0174

> <Smiles>
CNC(C)C(=O)NC(C(=O)N1Cc2cc([101O:1][101CH2:1]CC(=O)C(=O)Nc3nc([100NH:0][100C:0](=O)N4CCCC(n5nc(-c6ccc(Oc7ccc(F)cc7F)cc6)c(C(N)=O)c5N)C4)cc(C(=O)F)c3C(C)(F)F)ccc2CC1C(=O)NC1CCCc2ccccc21)C(C)(C)C

> <Shape>
0.307

> <Color>
0.129

> <Negative vol penalty>
0.000

$$$$

  -OEChem-04052304333D

 92100  0     1  0  0  0  0  0999 V2000
  -33.7671  -27.6956   26.2103 C   0  0  0  0  0  0  0  0  0  0  0  0
  -33.5682  -27.1571   24.9430 C   0  0  0  0  0  0  0  0  0  0  0  0
  -24.5229   -9.7175   21.4695 C   0  0  0  0  0  0  0  0  0  0  0  0
  -24.8650  -10.8204   23.5917 C   0  0  0  0  0  0  0  0  0  0  0  0
  -32.6709  -28.0448   26.9979 C   0  0  0  0  0  0  0  0  0  0  0  0
  -32.2730  -26.9665   24.4631 C   0  0  0  0  0  0  0  0  0  0  0  0
  -31.7320  -28.5040   19.6685 C   0  0  0  0  0  0  0  0  0  0  0  0
  -24.2273   -8.5280   22.1353 C   0  0  0  0  0  0  0  0  0  0  0  0
  -24.5694   -9.6309   24.2576 C   0  0  0  0  0  0  0  0  0  0  0  0
  -32.2181  -27.6604   18.6706 C   0  0  0  0  0  0  0  0  0  0  0  0
  -21.5947   -7.1773   23.7717 C   0  0  0  0  0  0  0  0  0  0  0  0
  -20.4879   -6.4485   23.3363 C   0  0  0  0  0  0  0  0  0  0  0  0
  -27.3293  -20.0046   21.0926 C   0  0  0  0  0  0  0  0  0  0  0  0
  -29.9809  -26.8501   18.2740 C   0  0  0  0  0  0  0  0  0  0  0  0
  -21.9199   -4.5644   22.8497 C   0  0  0  0  0  0  0  0  0  0  0  0
  -24.8419  -10.8637   22.1977 C   0  0  0  0  0  0  0  0  0  0  0  0
  -27.2444  -21.3908   21.0246 C   0  0  0  0  0  0  0  0  0  0  0  0
  -24.2435  -13.1027   21.1316 C   0  0  0  0  0  0  0  0  0  0  0  0
  -31.3616  -27.8674   26.5235 C   0  0  0  0  0  0  0  0  0  0  0  0
  -30.3659  -28.5191   19.9846 C   0  0  0  0  0  0  0  0  0  0  0  0
  -31.1582  -27.3124   25.2456 C   0  0  0  0  0  0  0  0  0  0  0  0
  -29.4795  -27.6967   19.2746 C   0  0  0  0  0  0  0  0  0  0  0  0
  -28.3052  -22.1218   20.5015 C   0  0  0  0  0  0  0  0  0  0  0  0
  -24.2505   -8.4847   23.5293 C   0  0  0  0  0  0  0  0  0  0  0  0
  -31.3430  -26.8312   17.9752 C   0  0  0  0  0  0  0  0  0  0  0  0
  -22.8641   -6.5997   23.7460 C   0  0  0  0  0  0  0  0  0  0  0  0
  -20.6505   -5.1421   22.8754 C   0  0  0  0  0  0  0  0  0  0  0  0
  -23.0267   -5.2932   23.2851 C   0  0  0  0  0  0  0  0  0  0  0  0
  -25.1479  -12.0926   21.5105 C   0  0  0  0  0  0  0  0  0  0  0  0
  -28.4873  -19.4022   20.6281 C   0  0  0  0  0  0  0  0  0  0  0  0
  -29.4196  -21.4246   20.0637 C   0  0  0  0  0  0  0  0  0  0  0  0
  -25.0246  -14.0492   20.5148 C   0  0  0  0  0  0  0  0  0  0  0  0
  -26.0362  -22.0468   21.5062 C   0  0  0  0  0  0  0  0  0  0  0  0
  -22.8242  -13.1786   21.3205 C   0  0  0  0  0  0  0  0  0  0  0  0
  -28.6567  -27.8517   22.5802 C   0  0  0  0  0  0  0  0  0  0  0  0
  -26.2045  -28.9768   20.7792 C   0  0  0  0  0  0  0  0  0  0  0  0
  -31.7055  -21.6540   19.0389 C   0  0  0  0  0  0  0  0  0  0  0  0
  -24.9364  -29.5903   17.6708 C   0  0  0  0  0  0  0  0  0  0  0  0
  -29.6246  -17.1789   20.2963 C   0  0  0  0  0  0  0  0  0  0  0  0
  -30.2076  -28.2158   27.4299 C   0  0  0  0  0  0  0  0  0  0  0  0
  -29.8534  -29.4543   21.0454 C   0  0  0  0  0  0  0  0  0  0  0  0
  -28.0010  -27.6900   19.5619 C   0  0  0  0  0  0  0  0  0  0  0  0
  -28.8722  -28.3303   26.6992 C   0  0  0  0  0  0  0  0  0  0  0  0
  -29.8556  -13.8650   19.0150 C   0  0  0  0  0  0  0  0  0  0  0  0
  -28.6767  -27.1476   25.7560 C   0  0  0  0  0  0  0  0  0  0  0  0
  -28.5770  -13.1916   19.5188 C   0  0  0  0  0  0  0  0  0  0  0  0
  -30.4259  -14.8404   20.0432 C   0  0  0  0  0  0  0  0  0  0  0  0
  -28.1984  -15.1725   21.0419 C   0  0  0  0  0  0  0  0  0  0  0  0
  -29.7687  -27.1135   24.6800 C   0  0  1  0  0  0  0  0  0  0  0  0
  -28.5182  -29.0129   21.6367 C   0  0  1  0  0  0  0  0  0  0  0  0
  -27.5511  -14.2295   20.0145 C   0  0  2  0  0  0  0  0  0  0  0  0
  -22.8930  -30.4797   16.5172 C   0  0  0  0  0  0  0  0  0  0  0  0
  -24.7377  -26.3675   21.3708 C   0  0  0  0  0  0  0  0  0  0  0  0
  -23.1847  -26.8927   19.4786 C   0  0  0  0  0  0  0  0  0  0  0  0
  -23.3016  -28.4132   21.4527 C   0  0  0  0  0  0  0  0  0  0  0  0
  -34.7768  -23.6708   16.6559 C   0  0  0  0  0  0  0  0  0  0  0  0
  -33.0546  -24.3044   14.9616 C   0  0  0  0  0  0  0  0  0  0  0  0
  -26.4651  -31.7846   16.4032 C   0  0  0  0  0  0  0  0  0  0  0  0
  -32.6315  -22.7629   18.5681 C   0  0  0  0  0  0  0  0  0  0  0  0
  -32.3879  -23.0732   17.0890 C   0  0  0  0  0  0  0  0  0  0  0  0
  -33.1510  -25.5268   17.1473 C   0  0  0  0  0  0  0  0  0  1  0  0
  -25.2223  -28.3657   19.8093 C   0  0  1  0  0  0  0  0  0  0  0  0
  -24.2644  -30.8171   17.0812 C   0  0  2  0  0  0  0  0  0  0  0  0
  -28.2351  -23.6115   20.4176 C   0  0  0  0  0  0  0  0  0  0  0  0
  -24.1396  -27.5083   20.5235 C   0  0  0  0  0  0  0  0  0  0  0  0
  -33.3210  -24.1502   16.4695 C   0  0  0  0  0  0  0  0  0  0  0  0
  -26.4072  -12.3712   21.1633 N   0  0  0  0  0  0  0  0  0  0  0  0
  -29.5385  -20.0789   20.1136 N   0  0  0  0  0  0  0  0  0  0  0  0
  -24.8560  -21.8202   21.0138 N   0  0  0  0  0  0  0  0  0  0  0  0
  -26.2996  -13.5671   20.5597 N   0  0  0  0  0  0  0  0  0  0  0  0
  -27.5494  -28.6175   20.6123 N   0  0  0  0  0  0  0  0  0  0  0  0
  -29.3989  -15.7962   20.4634 N   0  0  0  0  0  0  0  0  0  0  0  0
  -24.7382  -15.2384   19.9437 N   0  0  0  0  0  0  0  0  0  0  0  0
  -22.1795  -12.1195   21.9739 N   0  0  0  0  0  0  0  0  0  0  0  0
  -30.5063  -22.1563   19.5289 N   0  0  0  0  0  0  0  0  0  0  0  0
  -28.5646  -17.9893   20.7017 N   0  0  0  0  0  0  0  0  0  0  0  0
  -29.4954  -28.0941   23.6513 N   0  0  0  0  0  0  0  0  0  0  0  0
  -24.6858  -29.4702   19.0214 N   0  0  0  0  0  0  0  0  0  0  0  0
  -25.0967  -31.3865   15.9839 N   0  3  0  0  0  0  0  0  0  0  0  0
  -22.1455  -14.1491   20.9070 O   0  0  0  0  0  0  0  0  0  0  0  0
  -28.0466  -26.8133   22.3540 O   0  0  0  0  0  0  0  0  0  0  0  0
  -25.7945  -29.7502   21.6484 O   0  0  0  0  0  0  0  0  0  0  0  0
  -32.0581  -20.4799   18.9732 O   0  0  0  0  0  0  0  0  0  0  0  0
  -25.6126  -28.8139   16.9996 O   0  0  0  0  0  0  0  0  0  0  0  0
  -30.6695  -17.6110   19.8029 O   0  0  0  0  0  0  0  0  0  0  0  0
  -23.9618   -7.3242   24.1793 O   0  0  0  0  0  0  0  0  0  0  0  0
  -31.8150  -26.0064   17.0012 O   0  0  0  0  0  0  0  0  0  1  0  0
  -19.5873   -4.4419   22.4588 F   0  0  0  0  0  0  0  0  0  0  0  0
  -24.2436   -4.7326   23.2592 F   0  0  0  0  0  0  0  0  0  0  0  0
  -27.0650  -24.1299   20.8925 F   0  0  0  0  0  0  0  0  0  0  0  0
  -29.2187  -24.2434   21.1223 F   0  0  0  0  0  0  0  0  0  0  0  0
  -28.3474  -24.0689   19.1375 F   0  0  0  0  0  0  0  0  0  0  0  0
  1  2  1  0  0  0  0
  1  5  2  0  0  0  0
  2  6  2  0  0  0  0
  3  8  2  0  0  0  0
  3 16  1  0  0  0  0
  4  9  1  0  0  0  0
  4 16  2  0  0  0  0
  5 19  1  0  0  0  0
  6 21  1  0  0  0  0
  7 10  2  0  0  0  0
  7 20  1  0  0  0  0
  8 24  1  0  0  0  0
  9 24  2  0  0  0  0
 10 25  1  0  0  0  0
 11 12  2  0  0  0  0
 11 26  1  0  0  0  0
 12 27  1  0  0  0  0
 13 17  2  0  0  0  0
 13 30  1  0  0  0  0
 14 22  1  0  0  0  0
 14 25  2  0  0  0  0
 15 27  2  0  0  0  0
 15 28  1  0  0  0  0
 16 29  1  0  0  0  0
 17 23  1  0  0  0  0
 17 33  1  0  0  0  0
 18 29  1  0  0  0  0
 18 32  2  0  0  0  0
 18 34  1  0  0  0  0
 19 21  2  0  0  0  0
 19 40  1  0  0  0  0
 20 22  2  0  0  0  0
 20 41  1  0  0  0  0
 21 49  1  0  0  0  0
 22 42  1  0  0  0  0
 23 31  2  0  0  0  0
 23 64  1  0  0  0  0
 24 86  1  0  0  0  0
 25 87  1  0  0  0  0
 26 28  2  0  0  0  0
 26 86  1  0  0  0  0
 27 88  1  0  0  0  0
 28 89  1  0  0  0  0
 29 67  2  0  0  0  0
 30 68  2  0  0  0  0
 30 76  1  0  0  0  0
 31 68  1  0  0  0  0
 31 75  1  0  0  0  0
 32 70  1  0  0  0  0
 32 73  1  0  0  0  0
 33 69  2  0  0  0  0
 34 74  1  0  0  0  0
 34 80  2  0  0  0  0
 35 50  1  0  0  0  0
 35 77  1  0  0  0  0
 35 81  2  0  0  0  0
 36 62  1  0  0  0  0
 36 71  1  0  0  0  0
 36 82  2  0  0  0  0
 37 59  1  0  0  0  0
 37 75  1  0  0  0  0
 37 83  2  0  0  0  0
 38 63  1  0  0  0  0
 38 78  1  0  0  0  0
 38 84  2  0  0  0  0
 39 72  1  0  0  0  0
 39 76  1  0  0  0  0
 39 85  2  0  0  0  0
 40 43  1  0  0  0  0
 41 50  1  0  0  0  0
 42 71  1  0  0  0  0
 43 45  1  0  0  0  0
 44 46  1  0  0  0  0
 44 47  1  0  0  0  0
 45 49  1  0  0  0  0
 46 51  1  0  0  0  0
 47 72  1  0  0  0  0
 48 51  1  0  0  0  0
 48 72  1  0  0  0  0
 49 77  1  0  0  0  0
 50 71  1  0  0  0  0
 51 70  1  0  0  0  0
 52 63  1  0  0  0  0
 53 65  1  0  0  0  0
 54 65  1  0  0  0  0
 55 65  1  0  0  0  0
 56 66  1  0  0  0  0
 57 66  1  0  0  0  0
 58 79  1  0  0  0  0
 59 60  1  0  0  0  0
 60 66  1  0  0  0  0
 61 66  1  0  0  0  0
 61 87  1  0  0  0  0
 62 65  1  0  0  0  0
 62 78  1  0  0  0  0
 63 79  1  0  0  0  0
 64 90  1  0  0  0  0
 64 91  1  0  0  0  0
 64 92  1  0  0  0  0
 67 70  1  0  0  0  0
M  CHG  1  79   1
M  ISO  4  39 100  61 101  76 100  87 101
M  END
> <Batch ID>
0174

> <Smiles>
CNC(C)C(=O)NC(C(=O)N1Cc2cc([101O:1][101CH2:1]C(C)(C)CCC(=O)Nc3nc([100NH:0][100C:0](=O)N4CCCC(n5nc(-c6ccc(Oc7ccc(F)cc7F)cc6)c(C(N)=O)c5N)C4)cc(C=N)c3C(F)(F)F)ccc2CC1C(=O)NC1CCCc2ccccc21)C(C)(C)C

> <Shape>
0.253

> <Color>
0.107

> <Negative vol penalty>
0.000

$$$$

  -OEChem-04052304333D

 91 99  0     1  0  0  0  0  0999 V2000
  -19.0749  -23.7119   16.0701 C   0  0  0  0  0  0  0  0  0  0  0  0
  -19.9426  -23.7535   17.1567 C   0  0  0  0  0  0  0  0  0  0  0  0
  -23.1140   -9.8103   20.6728 C   0  0  0  0  0  0  0  0  0  0  0  0
  -23.7367  -10.4253   22.9247 C   0  0  0  0  0  0  0  0  0  0  0  0
  -18.3886  -24.8622   15.6830 C   0  0  0  0  0  0  0  0  0  0  0  0
  -20.1254  -24.9458   17.8563 C   0  0  0  0  0  0  0  0  0  0  0  0
  -20.0426  -24.2851   22.8764 C   0  0  0  0  0  0  0  0  0  0  0  0
  -22.3686   -8.7416   21.1708 C   0  0  0  0  0  0  0  0  0  0  0  0
  -22.9912   -9.3566   23.4227 C   0  0  0  0  0  0  0  0  0  0  0  0
  -21.1937  -23.7688   23.4697 C   0  0  0  0  0  0  0  0  0  0  0  0
  -19.3480   -8.2705   22.6154 C   0  0  0  0  0  0  0  0  0  0  0  0
  -18.0727   -8.0682   22.0879 C   0  0  0  0  0  0  0  0  0  0  0  0
  -21.8363  -25.9938   24.1449 C   0  0  0  0  0  0  0  0  0  0  0  0
  -29.6370  -18.1358   22.1709 C   0  0  0  0  0  0  0  0  0  0  0  0
  -31.8609  -17.2203   21.9408 C   0  0  0  0  0  0  0  0  0  0  0  0
  -18.7297   -5.8654   21.3441 C   0  0  0  0  0  0  0  0  0  0  0  0
  -23.7982  -10.6521   21.5498 C   0  0  0  0  0  0  0  0  0  0  0  0
  -24.1204  -13.0695   20.8014 C   0  0  0  0  0  0  0  0  0  0  0  0
  -18.5558  -26.0668   16.3842 C   0  0  0  0  0  0  0  0  0  0  0  0
  -19.7846  -25.6632   22.9034 C   0  0  0  0  0  0  0  0  0  0  0  0
  -19.4418  -26.1136   17.4774 C   0  0  0  0  0  0  0  0  0  0  0  0
  -20.6798  -26.5247   23.5533 C   0  0  0  0  0  0  0  0  0  0  0  0
  -31.5342  -19.3306   23.0710 C   0  0  0  0  0  0  0  0  0  0  0  0
  -30.4872  -17.1273   21.7174 C   0  0  0  0  0  0  0  0  0  0  0  0
  -30.1605  -19.2375   22.8476 C   0  0  0  0  0  0  0  0  0  0  0  0
  -22.3072   -8.5148   22.5457 C   0  0  0  0  0  0  0  0  0  0  0  0
  -22.0923  -24.6236   24.1016 C   0  0  0  0  0  0  0  0  0  0  0  0
  -20.3142   -7.2703   22.5071 C   0  0  0  0  0  0  0  0  0  0  0  0
  -17.7635   -6.8657   21.4523 C   0  0  0  0  0  0  0  0  0  0  0  0
  -32.3845  -18.3220   22.6176 C   0  0  0  0  0  0  0  0  0  0  0  0
  -20.0051   -6.0678   21.8715 C   0  0  0  0  0  0  0  0  0  0  0  0
  -24.5688  -11.7558   21.0360 C   0  0  0  0  0  0  0  0  0  0  0  0
  -25.2244  -13.7278   20.3173 C   0  0  0  0  0  0  0  0  0  0  0  0
  -25.9922  -21.7264   23.7069 C   0  0  0  0  0  0  0  0  0  0  0  0
  -22.8221  -13.6433   21.0032 C   0  0  0  0  0  0  0  0  0  0  0  0
  -27.3230  -21.5479   23.7743 C   0  0  0  0  0  0  0  0  0  0  0  0
  -25.2776  -22.9102   24.2750 C   0  0  0  0  0  0  0  0  0  0  0  0
  -27.9014  -20.3032   23.1562 C   0  0  0  0  0  0  0  0  0  0  0  0
  -19.4545  -27.9271   20.6967 C   0  0  0  0  0  0  0  0  0  0  0  0
  -18.6589  -29.7580   23.2535 C   0  0  0  0  0  0  0  0  0  0  0  0
  -18.8684  -30.2820   26.6193 C   0  0  0  0  0  0  0  0  0  0  0  0
  -30.6595  -14.9207   20.5143 C   0  0  0  0  0  0  0  0  0  0  0  0
  -17.8284  -27.2959   15.8993 C   0  0  0  0  0  0  0  0  0  0  0  0
  -18.5249  -26.2012   22.2819 C   0  0  0  0  0  0  0  0  0  0  0  0
  -20.4389  -28.0096   23.6277 C   0  0  0  0  0  0  0  0  0  0  0  0
  -17.7926  -28.4265   16.9244 C   0  0  0  0  0  0  0  0  0  0  0  0
  -29.7123  -11.9522   18.7916 C   0  0  0  0  0  0  0  0  0  0  0  0
  -19.1746  -28.6377   17.5347 C   0  0  0  0  0  0  0  0  0  0  0  0
  -28.2528  -11.7445   19.2026 C   0  0  0  0  0  0  0  0  0  0  0  0
  -30.5522  -12.5050   19.9416 C   0  0  0  0  0  0  0  0  0  0  0  0
  -28.5595  -13.5116   20.9832 C   0  0  0  0  0  0  0  0  0  0  0  0
  -19.6478  -27.3820   18.2768 C   0  0  1  0  0  0  0  0  0  0  0  0
  -18.6208  -27.6806   21.9222 C   0  0  1  0  0  0  0  0  0  0  0  0
  -27.6599  -13.0172   19.8386 C   0  0  2  0  0  0  0  0  0  0  0  0
  -18.1472  -31.8826   28.4124 C   0  0  0  0  0  0  0  0  0  0  0  0
  -20.7955  -31.7370   22.3431 C   0  0  0  0  0  0  0  0  0  0  0  0
  -20.6939  -32.7847   24.6147 C   0  0  0  0  0  0  0  0  0  0  0  0
  -18.6749  -32.7891   23.1497 C   0  0  0  0  0  0  0  0  0  0  0  0
  -17.3342  -28.1848   28.0359 C   0  0  0  0  0  0  0  0  0  0  0  0
  -23.7738  -22.9418   24.1043 C   0  0  0  0  0  0  0  0  0  1  0  0
  -19.4210  -30.6261   24.2254 C   0  0  1  0  0  0  0  0  0  0  0  0
  -17.8084  -30.6075   27.6559 C   0  0  2  0  0  0  0  0  0  0  0  0
  -32.1193  -20.4999   23.7947 C   0  0  0  0  0  0  0  0  0  0  0  0
  -19.9021  -31.9565   23.5803 C   0  0  0  0  0  0  0  0  0  0  0  0
  -25.8571  -11.5877   20.7262 N   0  0  0  0  0  0  0  0  0  0  0  0
  -26.2277  -12.8043   20.2920 N   0  0  0  0  0  0  0  0  0  0  0  0
  -19.1962  -28.4881   22.9997 N   0  0  0  0  0  0  0  0  0  0  0  0
  -29.9317  -13.7122   20.4916 N   0  0  0  0  0  0  0  0  0  0  0  0
  -25.4250  -15.0007   19.9150 N   0  0  0  0  0  0  0  0  0  0  0  0
  -21.8014  -12.8261   21.5078 N   0  0  0  0  0  0  0  0  0  0  0  0
  -29.2816  -20.2510   23.2999 N   0  0  0  0  0  0  0  0  0  0  0  0
  -29.9553  -16.0083   21.0299 N   0  0  0  0  0  0  0  0  0  0  0  0
  -18.9960  -27.2804   19.5649 N   0  0  0  0  0  0  0  0  0  0  0  0
  -18.5511  -30.8037   25.3830 N   0  0  0  0  0  0  0  0  0  0  0  0
  -17.6876  -29.4951   28.6402 N   0  3  0  0  0  0  0  0  0  0  0  0
  -22.5702  -14.8410   20.7283 O   0  0  0  0  0  0  0  0  0  0  0  0
  -25.8645  -23.8008   24.8843 O   0  0  0  0  0  0  0  0  0  0  0  0
  -27.1832  -19.4745   22.6072 O   0  0  0  0  0  0  0  0  0  0  0  0
  -20.4400  -28.6516   20.7721 O   0  0  0  0  0  0  0  0  0  0  0  0
  -17.6210  -30.1880   22.7439 O   0  0  0  0  0  0  0  0  0  0  0  0
  -19.8790  -29.6332   26.8809 O   0  0  0  0  0  0  0  0  0  0  0  0
  -31.8125  -14.9921   20.0813 O   0  0  0  0  0  0  0  0  0  0  0  0
  -28.2045  -22.4265   24.3675 O   0  0  0  0  0  0  0  0  0  0  0  0
  -21.5797   -7.4723   23.0320 O   0  0  0  0  0  0  0  0  0  0  0  0
  -23.2170  -24.1224   24.6810 O   0  0  0  0  0  0  0  0  0  1  0  0
  -16.5383   -6.6710   20.9472 F   0  0  0  0  0  0  0  0  0  0  0  0
  -33.7058  -18.4010   22.8285 F   0  0  0  0  0  0  0  0  0  0  0  0
  -20.9288   -5.1027   21.7655 F   0  0  0  0  0  0  0  0  0  0  0  0
  -31.1888  -21.4173   24.1888 F   0  0  0  0  0  0  0  0  0  0  0  0
  -32.7881  -20.1555   24.9333 F   0  0  0  0  0  0  0  0  0  0  0  0
  -33.0170  -21.1890   23.0337 F   0  0  0  0  0  0  0  0  0  0  0  0
  1  2  1  0  0  0  0
  1  5  2  0  0  0  0
  2  6  2  0  0  0  0
  3  8  2  0  0  0  0
  3 17  1  0  0  0  0
  4  9  1  0  0  0  0
  4 17  2  0  0  0  0
  5 19  1  0  0  0  0
  6 21  1  0  0  0  0
  7 10  2  0  0  0  0
  7 20  1  0  0  0  0
  8 26  1  0  0  0  0
  9 26  2  0  0  0  0
 10 27  1  0  0  0  0
 11 12  2  0  0  0  0
 11 28  1  0  0  0  0
 12 29  1  0  0  0  0
 13 22  1  0  0  0  0
 13 27  2  0  0  0  0
 14 24  2  0  0  0  0
 14 25  1  0  0  0  0
 15 24  1  0  0  0  0
 15 30  2  0  0  0  0
 16 29  2  0  0  0  0
 16 31  1  0  0  0  0
 17 32  1  0  0  0  0
 18 32  1  0  0  0  0
 18 33  2  0  0  0  0
 18 35  1  0  0  0  0
 19 21  2  0  0  0  0
 19 43  1  0  0  0  0
 20 22  2  0  0  0  0
 20 44  1  0  0  0  0
 21 52  1  0  0  0  0
 22 45  1  0  0  0  0
 23 25  2  0  0  0  0
 23 30  1  0  0  0  0
 23 63  1  0  0  0  0
 24 72  1  0  0  0  0
 25 71  1  0  0  0  0
 26 84  1  0  0  0  0
 27 85  1  0  0  0  0
 28 31  2  0  0  0  0
 28 84  1  0  0  0  0
 29 86  1  0  0  0  0
 30 87  1  0  0  0  0
 31 88  1  0  0  0  0
 32 65  2  0  0  0  0
 33 66  1  0  0  0  0
 33 69  1  0  0  0  0
 34 36  2  0  0  0  0
 34 37  1  0  0  0  0
 35 70  1  0  0  0  0
 35 76  2  0  0  0  0
 36 38  1  0  0  0  0
 36 83  1  0  0  0  0
 37 60  1  0  0  0  0
 37 77  2  0  0  0  0
 38 71  1  0  0  0  0
 38 78  2  0  0  0  0
 39 53  1  0  0  0  0
 39 73  1  0  0  0  0
 39 79  2  0  0  0  0
 40 61  1  0  0  0  0
 40 67  1  0  0  0  0
 40 80  2  0  0  0  0
 41 62  1  0  0  0  0
 41 74  1  0  0  0  0
 41 81  2  0  0  0  0
 42 68  1  0  0  0  0
 42 72  1  0  0  0  0
 42 82  2  0  0  0  0
 43 46  1  0  0  0  0
 44 53  1  0  0  0  0
 45 67  1  0  0  0  0
 46 48  1  0  0  0  0
 47 49  1  0  0  0  0
 47 50  1  0  0  0  0
 48 52  1  0  0  0  0
 49 54  1  0  0  0  0
 50 68  1  0  0  0  0
 51 54  1  0  0  0  0
 51 68  1  0  0  0  0
 52 73  1  0  0  0  0
 53 67  1  0  0  0  0
 54 66  1  0  0  0  0
 55 62  1  0  0  0  0
 56 64  1  0  0  0  0
 57 64  1  0  0  0  0
 58 64  1  0  0  0  0
 59 75  1  0  0  0  0
 60 85  1  0  0  0  0
 61 64  1  0  0  0  0
 61 74  1  0  0  0  0
 62 75  1  0  0  0  0
 63 89  1  0  0  0  0
 63 90  1  0  0  0  0
 63 91  1  0  0  0  0
 65 66  1  0  0  0  0
M  CHG  1  75   1
M  ISO  4  42 100  60 101  72 100  85 101
M  END
> <Batch ID>
0174

> <Smiles>
CNC(C)C(=O)NC(C(=O)N1Cc2cc([101O:1][101CH2:1]C(=O)CC(=O)C(=O)Nc3cc([100NH:0][100C:0](=O)N4CCCC(n5nc(-c6ccc(Oc7ccc(F)cc7F)cc6)c(C(N)=O)c5N)C4)cc(F)c3C(F)(F)F)ccc2CC1C(=O)NC1CCCc2ccccc21)C(C)(C)C

> <Shape>
0.215

> <Color>
0.161

> <Negative vol penalty>
0.000

$$$$

  -OEChem-04052304333D

 90 98  0     1  0  0  0  0  0999 V2000
  -27.1426  -34.7293   24.4993 C   0  0  0  0  0  0  0  0  0  0  0  0
  -27.4279  -33.5533   23.8131 C   0  0  0  0  0  0  0  0  0  0  0  0
  -22.4694  -11.6728   20.2217 C   0  0  0  0  0  0  0  0  0  0  0  0
  -24.0799  -12.2888   21.9140 C   0  0  0  0  0  0  0  0  0  0  0  0
  -25.9780  -34.8264   25.2596 C   0  0  0  0  0  0  0  0  0  0  0  0
  -26.5492  -32.4731   23.8878 C   0  0  0  0  0  0  0  0  0  0  0  0
  -25.6955  -30.3473   19.3714 C   0  0  0  0  0  0  0  0  0  0  0  0
  -23.0839  -10.4275   20.0902 C   0  0  0  0  0  0  0  0  0  0  0  0
  -24.6945  -11.0436   21.7824 C   0  0  0  0  0  0  0  0  0  0  0  0
  -26.6826  -29.5003   18.8696 C   0  0  0  0  0  0  0  0  0  0  0  0
  -24.0094   -6.9513   19.5666 C   0  0  0  0  0  0  0  0  0  0  0  0
  -23.1879   -5.8254   19.5100 C   0  0  0  0  0  0  0  0  0  0  0  0
  -27.0672  -21.1635   20.4583 C   0  0  0  0  0  0  0  0  0  0  0  0
  -25.4041  -27.5887   19.5979 C   0  0  0  0  0  0  0  0  0  0  0  0
  -22.3087   -6.3570   21.6967 C   0  0  0  0  0  0  0  0  0  0  0  0
  -27.0041  -19.8832   22.4616 C   0  0  0  0  0  0  0  0  0  0  0  0
  -22.9674  -12.6035   21.1336 C   0  0  0  0  0  0  0  0  0  0  0  0
  -28.2923  -21.6813   20.8638 C   0  0  0  0  0  0  0  0  0  0  0  0
  -21.2843  -14.2328   22.1435 C   0  0  0  0  0  0  0  0  0  0  0  0
  -25.0797  -33.7503   25.3359 C   0  0  0  0  0  0  0  0  0  0  0  0
  -24.5585  -29.8208   20.0011 C   0  0  0  0  0  0  0  0  0  0  0  0
  -25.3721  -32.5554   24.6510 C   0  0  0  0  0  0  0  0  0  0  0  0
  -24.4028  -28.4311   20.1046 C   0  0  0  0  0  0  0  0  0  0  0  0
  -26.4043  -20.2469   21.2668 C   0  0  0  0  0  0  0  0  0  0  0  0
  -24.1964  -10.1129   20.8705 C   0  0  0  0  0  0  0  0  0  0  0  0
  -26.5384  -28.1208   18.9854 C   0  0  0  0  0  0  0  0  0  0  0  0
  -23.9806   -7.7800   20.6882 C   0  0  0  0  0  0  0  0  0  0  0  0
  -22.3375   -5.5283   20.5750 C   0  0  0  0  0  0  0  0  0  0  0  0
  -23.1302   -7.4829   21.7532 C   0  0  0  0  0  0  0  0  0  0  0  0
  -22.3334  -13.8902   21.2696 C   0  0  0  0  0  0  0  0  0  0  0  0
  -28.8075  -21.2535   22.0768 C   0  0  0  0  0  0  0  0  0  0  0  0
  -21.0452  -15.5611   21.8888 C   0  0  0  0  0  0  0  0  0  0  0  0
  -29.0200  -22.6626   20.0184 C   0  0  0  0  0  0  0  0  0  0  0  0
  -20.5883  -13.4229   23.1002 C   0  0  0  0  0  0  0  0  0  0  0  0
  -23.3171  -30.0185   22.9206 C   0  0  0  0  0  0  0  0  0  0  0  0
  -29.6376  -25.8006   19.8615 C   0  0  0  0  0  0  0  0  0  0  0  0
  -20.8699  -28.3736   21.5688 C   0  0  0  0  0  0  0  0  0  0  0  0
  -19.8058  -26.2746   19.0972 C   0  0  0  0  0  0  0  0  0  0  0  0
  -24.4361  -19.9762   19.7177 C   0  0  0  0  0  0  0  0  0  0  0  0
  -23.8572  -33.8856   26.2087 C   0  0  0  0  0  0  0  0  0  0  0  0
  -23.4900  -30.7472   20.5133 C   0  0  0  0  0  0  0  0  0  0  0  0
  -23.1913  -27.8150   20.7537 C   0  0  0  0  0  0  0  0  0  0  0  0
  -22.7922  -32.8271   25.9336 C   0  0  0  0  0  0  0  0  0  0  0  0
  -21.3438  -18.8156   18.3883 C   0  0  0  0  0  0  0  0  0  0  0  0
  -23.4263  -31.4427   25.8432 C   0  0  0  0  0  0  0  0  0  0  0  0
  -21.1482  -17.4547   19.0604 C   0  0  0  0  0  0  0  0  0  0  0  0
  -22.8125  -19.0816   18.0629 C   0  0  0  0  0  0  0  0  0  0  0  0
  -23.5406  -17.5697   19.8666 C   0  0  0  0  0  0  0  0  0  0  0  0
  -24.4314  -31.3706   24.6873 C   0  0  1  0  0  0  0  0  0  0  0  0
  -22.6184  -30.1147   21.5939 C   0  0  1  0  0  0  0  0  0  0  0  0
  -22.0853  -17.2848   20.2722 C   0  0  2  0  0  0  0  0  0  0  0  0
  -17.7596  -25.0763   18.2757 C   0  0  0  0  0  0  0  0  0  0  0  0
  -21.1679  -26.3301   23.8149 C   0  0  0  0  0  0  0  0  0  0  0  0
  -19.8041  -24.7346   22.4501 C   0  0  0  0  0  0  0  0  0  0  0  0
  -18.8040  -26.8870   23.2181 C   0  0  0  0  0  0  0  0  0  0  0  0
  -19.8700  -27.7002   16.5044 C   0  0  0  0  0  0  0  0  0  0  0  0
  -29.8091  -26.6157   18.5863 C   0  0  0  0  0  0  0  0  0  0  0  0
  -28.8401  -27.7842   18.4904 C   0  0  0  0  0  0  0  0  0  1  0  0
  -30.5653  -24.6037   20.0173 C   0  0  1  0  0  0  0  0  0  0  0  0
  -20.5392  -26.9128   21.3795 C   0  0  1  0  0  0  0  0  0  0  0  0
  -18.6046  -26.3364   18.1710 C   0  0  2  0  0  0  0  0  0  0  0  0
  -20.1027  -26.2275   22.7051 C   0  0  0  0  0  0  0  0  0  0  0  0
  -31.8176  -24.9831   20.7754 C   0  0  0  0  0  0  0  0  0  0  0  0
  -28.1929  -20.3646   22.8890 N   0  0  0  0  0  0  0  0  0  0  0  0
  -22.7330  -14.9179   20.5158 N   0  0  0  0  0  0  0  0  0  0  0  0
  -21.9308  -15.9193   20.9153 N   0  0  0  0  0  0  0  0  0  0  0  0
  -22.1773  -28.7628   21.2446 N   0  0  0  0  0  0  0  0  0  0  0  0
  -23.6394  -18.9060   19.2589 N   0  0  0  0  0  0  0  0  0  0  0  0
  -20.1658  -16.4460   22.4046 N   0  0  0  0  0  0  0  0  0  0  0  0
  -20.9607  -12.0784   23.2342 N   0  0  0  0  0  0  0  0  0  0  0  0
  -25.1538  -19.7030   20.8818 N   0  0  0  0  0  0  0  0  0  0  0  0
  -29.8186  -23.5772   20.6940 N   0  0  0  0  0  0  0  0  0  0  0  0
  -23.7393  -31.2343   23.4236 N   0  0  0  0  0  0  0  0  0  0  0  0
  -19.5388  -26.8548   20.3192 N   0  0  0  0  0  0  0  0  0  0  0  0
  -19.0485  -26.4884   16.7565 N   0  3  0  0  0  0  0  0  0  0  0  0
  -28.8694  -22.6329   18.7998 O   0  0  0  0  0  0  0  0  0  0  0  0
  -19.6525  -13.8737   23.8034 O   0  0  0  0  0  0  0  0  0  0  0  0
  -23.4612  -28.9225   23.4495 O   0  0  0  0  0  0  0  0  0  0  0  0
  -28.8202  -26.1037   20.7309 O   0  0  0  0  0  0  0  0  0  0  0  0
  -19.9982  -29.1423   21.9820 O   0  0  0  0  0  0  0  0  0  0  0  0
  -20.8729  -25.7596   18.7706 O   0  0  0  0  0  0  0  0  0  0  0  0
  -24.4577  -21.0646   19.1373 O   0  0  0  0  0  0  0  0  0  0  0  0
  -24.7962   -8.8978   20.7426 O   0  0  0  0  0  0  0  0  0  0  0  0
  -27.5008  -27.2918   18.4970 O   0  0  0  0  0  0  0  0  0  1  0  0
  -21.5476   -4.4480   20.5199 F   0  0  0  0  0  0  0  0  0  0  0  0
  -23.0973   -8.2760   22.8330 F   0  0  0  0  0  0  0  0  0  0  0  0
  -29.9897  -21.7391   22.4899 F   0  0  0  0  0  0  0  0  0  0  0  0
  -32.5327  -25.9269   20.1265 F   0  0  0  0  0  0  0  0  0  0  0  0
  -31.5108  -25.4685   21.9995 F   0  0  0  0  0  0  0  0  0  0  0  0
  -32.6193  -23.9108   20.9584 F   0  0  0  0  0  0  0  0  0  0  0  0
  1  2  1  0  0  0  0
  1  5  2  0  0  0  0
  2  6  2  0  0  0  0
  3  8  2  0  0  0  0
  3 17  1  0  0  0  0
  4  9  1  0  0  0  0
  4 17  2  0  0  0  0
  5 20  1  0  0  0  0
  6 22  1  0  0  0  0
  7 10  2  0  0  0  0
  7 21  1  0  0  0  0
  8 25  1  0  0  0  0
  9 25  2  0  0  0  0
 10 26  1  0  0  0  0
 11 12  2  0  0  0  0
 11 27  1  0  0  0  0
 12 28  1  0  0  0  0
 13 18  1  0  0  0  0
 13 24  2  0  0  0  0
 14 23  1  0  0  0  0
 14 26  2  0  0  0  0
 15 28  2  0  0  0  0
 15 29  1  0  0  0  0
 16 24  1  0  0  0  0
 16 64  2  0  0  0  0
 17 30  1  0  0  0  0
 18 31  2  0  0  0  0
 18 33  1  0  0  0  0
 19 30  1  0  0  0  0
 19 32  2  0  0  0  0
 19 34  1  0  0  0  0
 20 22  2  0  0  0  0
 20 40  1  0  0  0  0
 21 23  2  0  0  0  0
 21 41  1  0  0  0  0
 22 49  1  0  0  0  0
 23 42  1  0  0  0  0
 24 71  1  0  0  0  0
 25 83  1  0  0  0  0
 26 84  1  0  0  0  0
 27 29  2  0  0  0  0
 27 83  1  0  0  0  0
 28 85  1  0  0  0  0
 29 86  1  0  0  0  0
 30 65  2  0  0  0  0
 31 64  1  0  0  0  0
 31 87  1  0  0  0  0
 32 66  1  0  0  0  0
 32 69  1  0  0  0  0
 33 72  1  0  0  0  0
 33 76  2  0  0  0  0
 34 70  1  0  0  0  0
 34 77  2  0  0  0  0
 35 50  1  0  0  0  0
 35 73  1  0  0  0  0
 35 78  2  0  0  0  0
 36 57  1  0  0  0  0
 36 59  1  0  0  0  0
 36 79  2  0  0  0  0
 37 60  1  0  0  0  0
 37 67  1  0  0  0  0
 37 80  2  0  0  0  0
 38 61  1  0  0  0  0
 38 74  1  0  0  0  0
 38 81  2  0  0  0  0
 39 68  1  0  0  0  0
 39 71  1  0  0  0  0
 39 82  2  0  0  0  0
 40 43  1  0  0  0  0
 41 50  1  0  0  0  0
 42 67  1  0  0  0  0
 43 45  1  0  0  0  0
 44 46  1  0  0  0  0
 44 47  1  0  0  0  0
 45 49  1  0  0  0  0
 46 51  1  0  0  0  0
 47 68  1  0  0  0  0
 48 51  1  0  0  0  0
 48 68  1  0  0  0  0
 49 73  1  0  0  0  0
 50 67  1  0  0  0  0
 51 66  1  0  0  0  0
 52 61  1  0  0  0  0
 53 62  1  0  0  0  0
 54 62  1  0  0  0  0
 55 62  1  0  0  0  0
 56 75  1  0  0  0  0
 57 58  1  0  0  0  0
 58 84  1  0  0  0  0
 59 63  1  0  0  0  0
 59 72  1  0  0  0  0
 60 62  1  0  0  0  0
 60 74  1  0  0  0  0
 61 75  1  0  0  0  0
 63 88  1  0  0  0  0
 63 89  1  0  0  0  0
 63 90  1  0  0  0  0
 65 66  1  0  0  0  0
M  CHG  1  75   1
M  ISO  4  39 100  58 101  71 100  84 101
M  END
> <Batch ID>
0174

> <Smiles>
CNC(C)C(=O)NC(C(=O)N1Cc2cc([101O:1][101CH2:1]CC(=O)C(NC(=O)c3cc([100NH:0][100C:0](=O)N4CCCC(n5nc(-c6ccc(Oc7ccc(F)cc7F)cc6)c(C(N)=O)c5N)C4)cnc3F)C(F)(F)F)ccc2CC1C(=O)NC1CCCc2ccccc21)C(C)(C)C

> <Shape>
0.269

> <Color>
0.063

> <Negative vol penalty>
0.000

$$$$

  -OEChem-04052304333D

 86 94  0     1  0  0  0  0  0999 V2000
  -25.9258  -16.4300   25.7267 C   0  0  0  0  0  0  0  0  0  0  0  0
  -26.3609  -17.7502   25.7516 C   0  0  0  0  0  0  0  0  0  0  0  0
  -26.4146  -12.7940   21.5779 C   0  0  0  0  0  0  0  0  0  0  0  0
  -25.7745  -13.7856   19.4698 C   0  0  0  0  0  0  0  0  0  0  0  0
  -25.1242  -15.9840   24.6780 C   0  0  0  0  0  0  0  0  0  0  0  0
  -25.9849  -18.6279   24.7342 C   0  0  0  0  0  0  0  0  0  0  0  0
  -27.5745  -24.4206   23.7116 C   0  0  0  0  0  0  0  0  0  0  0  0
  -25.1774  -12.1542   21.6527 C   0  0  0  0  0  0  0  0  0  0  0  0
  -24.5373  -13.1457   19.5446 C   0  0  0  0  0  0  0  0  0  0  0  0
  -28.5549  -25.1079   22.9974 C   0  0  0  0  0  0  0  0  0  0  0  0
  -23.6974   -9.4283   20.3065 C   0  0  0  0  0  0  0  0  0  0  0  0
  -23.6844   -8.0837   20.6772 C   0  0  0  0  0  0  0  0  0  0  0  0
  -27.1183  -22.9101   17.2231 C   0  0  0  0  0  0  0  0  0  0  0  0
  -27.3034  -21.8621   18.1179 C   0  0  0  0  0  0  0  0  0  0  0  0
  -27.0100  -25.3980   21.1675 C   0  0  0  0  0  0  0  0  0  0  0  0
  -22.3129   -8.6246   22.5912 C   0  0  0  0  0  0  0  0  0  0  0  0
  -26.7131  -13.6098   20.4865 C   0  0  0  0  0  0  0  0  0  0  0  0
  -29.1694  -13.7775   19.8185 C   0  0  0  0  0  0  0  0  0  0  0  0
  -24.7489  -16.8541   23.6411 C   0  0  0  0  0  0  0  0  0  0  0  0
  -26.3058  -24.2070   23.1537 C   0  0  0  0  0  0  0  0  0  0  0  0
  -25.1566  -18.2031   23.6797 C   0  0  0  0  0  0  0  0  0  0  0  0
  -26.0144  -24.7099   21.8777 C   0  0  0  0  0  0  0  0  0  0  0  0
  -24.2388  -12.3300   20.6360 C   0  0  0  0  0  0  0  0  0  0  0  0
  -28.2737  -25.5943   21.7240 C   0  0  0  0  0  0  0  0  0  0  0  0
  -23.0183  -10.3712   21.0783 C   0  0  0  0  0  0  0  0  0  0  0  0
  -22.9921   -7.6818   21.8195 C   0  0  0  0  0  0  0  0  0  0  0  0
  -28.0285  -23.9608   17.1938 C   0  0  0  0  0  0  0  0  0  0  0  0
  -22.3260   -9.9693   22.2206 C   0  0  0  0  0  0  0  0  0  0  0  0
  -27.9907  -14.2714   20.4090 C   0  0  0  0  0  0  0  0  0  0  0  0
  -29.0986  -23.9165   18.0729 C   0  0  0  0  0  0  0  0  0  0  0  0
  -28.4060  -21.9117   18.9555 C   0  0  0  0  0  0  0  0  0  0  0  0
  -30.0927  -14.7767   20.0072 C   0  0  0  0  0  0  0  0  0  0  0  0
  -29.4083  -12.5273   19.1585 C   0  0  0  0  0  0  0  0  0  0  0  0
  -30.0996  -25.0050   18.0884 C   0  0  0  0  0  0  0  0  0  0  0  0
  -31.2593  -24.9596   19.0392 C   0  0  0  0  0  0  0  0  0  0  0  0
  -24.6094  -21.6399   22.3562 C   0  0  0  0  0  0  0  0  0  0  0  0
  -22.2930  -23.8337   21.7694 C   0  0  0  0  0  0  0  0  0  0  0  0
  -21.4849  -27.0614   21.0110 C   0  0  0  0  0  0  0  0  0  0  0  0
  -29.6152  -20.6812   20.7912 C   0  0  0  0  0  0  0  0  0  0  0  0
  -23.8736  -16.3207   22.5345 C   0  0  0  0  0  0  0  0  0  0  0  0
  -25.2506  -23.4869   23.9478 C   0  0  0  0  0  0  0  0  0  0  0  0
  -24.6615  -24.5248   21.2422 C   0  0  0  0  0  0  0  0  0  0  0  0
  -23.8960  -17.1950   21.2850 C   0  0  0  0  0  0  0  0  0  0  0  0
  -31.1753  -18.3598   22.9945 C   0  0  0  0  0  0  0  0  0  0  0  0
  -23.6599  -18.6494   21.6639 C   0  0  0  0  0  0  0  0  0  0  0  0
  -30.6477  -17.0025   22.5239 C   0  0  0  0  0  0  0  0  0  0  0  0
  -30.1093  -19.4492   22.8920 C   0  0  0  0  0  0  0  0  0  0  0  0
  -28.9468  -18.2171   21.1032 C   0  0  0  0  0  0  0  0  0  0  0  0
  -24.7854  -19.1679   22.5680 C   0  0  1  0  0  0  0  0  0  0  0  0
  -24.1568  -22.8792   23.0751 C   0  0  1  0  0  0  0  0  0  0  0  0
  -30.0044  -17.1015   21.1268 C   0  0  2  0  0  0  0  0  0  0  0  0
  -33.7541  -26.6642   19.0751 C   0  0  0  0  0  0  0  0  0  0  0  0
  -19.5112  -28.5436   20.5578 C   0  0  0  0  0  0  0  0  0  0  0  0
  -22.0269  -22.6226   18.9814 C   0  0  0  0  0  0  0  0  0  0  0  0
  -20.7807  -24.6788   18.2832 C   0  0  0  0  0  0  0  0  0  0  0  0
  -19.8560  -23.2103   20.0752 C   0  0  0  0  0  0  0  0  0  0  0  0
  -22.1115  -28.7988   23.3235 C   0  0  0  0  0  0  0  0  0  0  0  0
  -32.8917  -26.4031   20.3038 C   0  0  0  0  0  0  0  0  0  0  0  0
  -30.5878  -25.9068   21.2733 C   0  0  0  0  0  0  0  0  0  1  0  0
  -31.4094  -26.1322   20.0007 C   0  0  2  0  0  0  0  0  0  0  0  0
  -21.8734  -24.6510   20.5715 C   0  0  1  0  0  0  0  0  0  0  0  0
  -20.4681  -28.0136   21.6143 C   0  0  2  0  0  0  0  0  0  0  0  0
  -21.1604  -23.7926   19.4887 C   0  0  0  0  0  0  0  0  0  0  0  0
  -28.1481  -15.4896   20.9336 N   0  0  0  0  0  0  0  0  0  0  0  0
  -29.3116  -22.9155   18.9561 N   0  0  0  0  0  0  0  0  0  0  0  0
  -29.4366  -15.7696   20.6735 N   0  0  0  0  0  0  0  0  0  0  0  0
  -23.6653  -23.8087   22.0559 N   0  0  0  0  0  0  0  0  0  0  0  0
  -29.5477  -19.4871   21.5399 N   0  0  0  0  0  0  0  0  0  0  0  0
  -31.3937  -14.8941   19.6666 N   0  0  0  0  0  0  0  0  0  0  0  0
  -28.3496  -11.6151   19.0518 N   0  0  0  0  0  0  0  0  0  0  0  0
  -28.5859  -20.8391   19.8637 N   0  0  0  0  0  0  0  0  0  0  0  0
  -24.4218  -20.4735   23.0729 N   0  0  0  0  0  0  0  0  0  0  0  0
  -21.0661  -25.7501   21.0898 N   0  0  0  0  0  0  0  0  0  0  0  0
  -21.1569  -29.1731   22.2485 N   0  3  0  0  0  0  0  0  0  0  0  0
  -30.5318  -12.2212   18.6921 O   0  0  0  0  0  0  0  0  0  0  0  0
  -30.0536  -25.9626   17.3302 O   0  0  0  0  0  0  0  0  0  0  0  0
  -32.0040  -23.9936   18.9582 O   0  0  0  0  0  0  0  0  0  0  0  0
  -25.0916  -21.7347   21.2336 O   0  0  0  0  0  0  0  0  0  0  0  0
  -21.4341  -23.2451   22.4308 O   0  0  0  0  0  0  0  0  0  0  0  0
  -22.5430  -27.4431   20.5157 O   0  0  0  0  0  0  0  0  0  0  0  0
  -30.5344  -21.4902   20.9413 O   0  0  0  0  0  0  0  0  0  0  0  0
  -23.0315  -11.7056   20.7085 O   0  0  0  0  0  0  0  0  0  0  0  0
  -29.2291  -26.2649   21.0245 O   0  0  0  0  0  0  0  0  0  1  0  0
  -22.9783   -6.3903   22.1745 F   0  0  0  0  0  0  0  0  0  0  0  0
  -27.8656  -24.9781   16.3388 F   0  0  0  0  0  0  0  0  0  0  0  0
  -21.6707  -10.8703   22.9653 F   0  0  0  0  0  0  0  0  0  0  0  0
  1  2  1  0  0  0  0
  1  5  2  0  0  0  0
  2  6  2  0  0  0  0
  3  8  2  0  0  0  0
  3 17  1  0  0  0  0
  4  9  1  0  0  0  0
  4 17  2  0  0  0  0
  5 19  1  0  0  0  0
  6 21  1  0  0  0  0
  7 10  2  0  0  0  0
  7 20  1  0  0  0  0
  8 23  1  0  0  0  0
  9 23  2  0  0  0  0
 10 24  1  0  0  0  0
 11 12  2  0  0  0  0
 11 25  1  0  0  0  0
 12 26  1  0  0  0  0
 13 14  2  0  0  0  0
 13 27  1  0  0  0  0
 14 31  1  0  0  0  0
 15 22  1  0  0  0  0
 15 24  2  0  0  0  0
 16 26  2  0  0  0  0
 16 28  1  0  0  0  0
 17 29  1  0  0  0  0
 18 29  1  0  0  0  0
 18 32  2  0  0  0  0
 18 33  1  0  0  0  0
 19 21  2  0  0  0  0
 19 40  1  0  0  0  0
 20 22  2  0  0  0  0
 20 41  1  0  0  0  0
 21 49  1  0  0  0  0
 22 42  1  0  0  0  0
 23 82  1  0  0  0  0
 24 83  1  0  0  0  0
 25 28  2  0  0  0  0
 25 82  1  0  0  0  0
 26 84  1  0  0  0  0
 27 30  2  0  0  0  0
 27 85  1  0  0  0  0
 28 86  1  0  0  0  0
 29 64  2  0  0  0  0
 30 34  1  0  0  0  0
 30 65  1  0  0  0  0
 31 65  2  0  0  0  0
 31 71  1  0  0  0  0
 32 66  1  0  0  0  0
 32 69  1  0  0  0  0
 33 70  1  0  0  0  0
 33 75  2  0  0  0  0
 34 35  1  0  0  0  0
 34 76  2  0  0  0  0
 35 60  1  0  0  0  0
 35 77  2  0  0  0  0
 36 50  1  0  0  0  0
 36 72  1  0  0  0  0
 36 78  2  0  0  0  0
 37 61  1  0  0  0  0
 37 67  1  0  0  0  0
 37 79  2  0  0  0  0
 38 62  1  0  0  0  0
 38 73  1  0  0  0  0
 38 80  2  0  0  0  0
 39 68  1  0  0  0  0
 39 71  1  0  0  0  0
 39 81  2  0  0  0  0
 40 43  1  0  0  0  0
 41 50  1  0  0  0  0
 42 67  1  0  0  0  0
 43 45  1  0  0  0  0
 44 46  1  0  0  0  0
 44 47  1  0  0  0  0
 45 49  1  0  0  0  0
 46 51  1  0  0  0  0
 47 68  1  0  0  0  0
 48 51  1  0  0  0  0
 48 68  1  0  0  0  0
 49 72  1  0  0  0  0
 50 67  1  0  0  0  0
 51 66  1  0  0  0  0
 52 58  1  0  0  0  0
 53 62  1  0  0  0  0
 54 63  1  0  0  0  0
 55 63  1  0  0  0  0
 56 63  1  0  0  0  0
 57 74  1  0  0  0  0
 58 60  1  0  0  0  0
 59 60  1  0  0  0  0
 59 83  1  0  0  0  0
 61 63  1  0  0  0  0
 61 73  1  0  0  0  0
 62 74  1  0  0  0  0
 64 66  1  0  0  0  0
M  CHG  1  74   1
M  ISO  4  39 100  59 101  71 100  83 101
M  END
> <Batch ID>
0174

> <Smiles>
CCC(C(=O)C(=O)c1nc([100NH:0][100C:0](=O)N2CCCC(n3nc(-c4ccc(Oc5ccc(F)cc5F)cc4)c(C(N)=O)c3N)C2)ccc1F)[101CH2:1][101O:1]c1ccc2c(c1)CN(C(=O)C(NC(=O)C(C)NC)C(C)(C)C)C(C(=O)NC1CCCc3ccccc31)C2

> <Shape>
0.227

> <Color>
0.083

> <Negative vol penalty>
0.000

$$$$

  -OEChem-04052304333D

 86 94  0     1  0  0  0  0  0999 V2000
  -30.3100  -31.3440   29.3774 C   0  0  0  0  0  0  0  0  0  0  0  0
  -30.5188  -30.6449   28.1928 C   0  0  0  0  0  0  0  0  0  0  0  0
  -24.4376   -8.5385   20.4498 C   0  0  0  0  0  0  0  0  0  0  0  0
  -22.9626  -10.4130   20.8338 C   0  0  0  0  0  0  0  0  0  0  0  0
  -29.0130  -31.5421   29.8492 C   0  0  0  0  0  0  0  0  0  0  0  0
  -29.4308  -30.1426   27.4799 C   0  0  0  0  0  0  0  0  0  0  0  0
  -28.9107  -29.6860   21.3949 C   0  0  0  0  0  0  0  0  0  0  0  0
  -23.4370   -7.6642   20.8741 C   0  0  0  0  0  0  0  0  0  0  0  0
  -21.9620   -9.5388   21.2581 C   0  0  0  0  0  0  0  0  0  0  0  0
  -29.0985  -28.6212   20.5147 C   0  0  0  0  0  0  0  0  0  0  0  0
  -22.1301   -6.6104   23.8076 C   0  0  0  0  0  0  0  0  0  0  0  0
  -22.4921   -5.5900   24.6870 C   0  0  0  0  0  0  0  0  0  0  0  0
  -26.7301  -28.1663   20.5690 C   0  0  0  0  0  0  0  0  0  0  0  0
  -21.7555   -3.9435   23.0797 C   0  0  0  0  0  0  0  0  0  0  0  0
  -29.1537  -19.0554   20.7087 C   0  0  0  0  0  0  0  0  0  0  0  0
  -24.2005   -9.9129   20.4297 C   0  0  0  0  0  0  0  0  0  0  0  0
  -25.4674  -11.2695   18.6798 C   0  0  0  0  0  0  0  0  0  0  0  0
  -27.9080  -31.0503   29.1366 C   0  0  0  0  0  0  0  0  0  0  0  0
  -27.6305  -29.9927   21.8781 C   0  0  0  0  0  0  0  0  0  0  0  0
  -28.1179  -30.3332   27.9433 C   0  0  0  0  0  0  0  0  0  0  0  0
  -26.5283  -29.2371   21.4532 C   0  0  0  0  0  0  0  0  0  0  0  0
  -28.0502  -18.4783   18.6824 C   0  0  0  0  0  0  0  0  0  0  0  0
  -28.6477  -18.0744   19.8712 C   0  0  0  0  0  0  0  0  0  0  0  0
  -22.1992   -8.1643   21.2782 C   0  0  0  0  0  0  0  0  0  0  0  0
  -28.0086  -27.8594   20.1039 C   0  0  0  0  0  0  0  0  0  0  0  0
  -21.5807   -6.2973   22.5643 C   0  0  0  0  0  0  0  0  0  0  0  0
  -22.3049   -4.2566   24.3231 C   0  0  0  0  0  0  0  0  0  0  0  0
  -21.3935   -4.9639   22.2003 C   0  0  0  0  0  0  0  0  0  0  0  0
  -27.9779  -19.8317   18.3719 C   0  0  0  0  0  0  0  0  0  0  0  0
  -25.2339  -10.8166   19.9921 C   0  0  0  0  0  0  0  0  0  0  0  0
  -28.5137  -20.7340   19.2766 C   0  0  0  0  0  0  0  0  0  0  0  0
  -26.5538  -12.1023   18.7922 C   0  0  0  0  0  0  0  0  0  0  0  0
  -28.4414  -25.5845   19.7745 C   0  0  0  0  0  0  0  0  0  1  0  0
  -24.7651  -10.9646   17.4676 C   0  0  0  0  0  0  0  0  0  0  0  0
  -28.6347  -24.4929   19.0245 C   0  0  0  0  0  0  0  0  0  0  0  0
  -28.9039  -23.1828   19.7025 C   0  0  0  0  0  0  0  0  0  0  0  0
  -26.2748  -30.0617   24.7523 C   0  0  0  0  0  0  0  0  0  0  0  0
  -23.7664  -31.2999   23.1100 C   0  0  0  0  0  0  0  0  0  0  0  0
  -22.1276  -31.6228   20.1339 C   0  0  0  0  0  0  0  0  0  0  0  0
  -29.3180  -16.1789   21.3890 C   0  0  0  0  0  0  0  0  0  0  0  0
  -26.5275  -31.2483   29.7107 C   0  0  0  0  0  0  0  0  0  0  0  0
  -27.4408  -31.1611   22.8061 C   0  0  0  0  0  0  0  0  0  0  0  0
  -25.1306  -29.5379   21.9269 C   0  0  0  0  0  0  0  0  0  0  0  0
  -25.4078  -31.0081   28.7013 C   0  0  0  0  0  0  0  0  0  0  0  0
  -29.7229  -12.8785   22.6621 C   0  0  0  0  0  0  0  0  0  0  0  0
  -25.6550  -29.7172   27.9271 C   0  0  0  0  0  0  0  0  0  0  0  0
  -28.6103  -12.0851   21.9730 C   0  0  0  0  0  0  0  0  0  0  0  0
  -29.2754  -14.2968   23.0111 C   0  0  0  0  0  0  0  0  0  0  0  0
  -27.6031  -14.2711   21.2022 C   0  0  0  0  0  0  0  0  0  0  0  0
  -26.9619  -29.7944   27.1287 C   0  0  1  0  0  0  0  0  0  0  0  0
  -26.1654  -31.0630   23.6374 C   0  0  1  0  0  0  0  0  0  0  0  0
  -28.0278  -12.8572   20.7729 C   0  0  2  0  0  0  0  0  0  0  0  0
  -28.5633  -16.7765   16.9140 C   0  0  0  0  0  0  0  0  0  0  0  0
  -20.0853  -32.6633   19.1125 C   0  0  0  0  0  0  0  0  0  0  0  0
  -22.0345  -29.1196   24.3578 C   0  0  0  0  0  0  0  0  0  0  0  0
  -20.2978  -29.6017   22.6200 C   0  0  0  0  0  0  0  0  0  0  0  0
  -20.9561  -31.3734   24.2481 C   0  0  0  0  0  0  0  0  0  0  0  0
  -23.7497  -33.2809   18.2959 C   0  0  0  0  0  0  0  0  0  0  0  0
  -27.4814  -17.4803   17.7275 C   0  0  0  0  0  0  0  0  0  0  0  0
  -22.5613  -30.7249   22.4056 C   0  0  1  0  0  0  0  0  0  0  0  0
  -21.5640  -32.8388   19.4211 C   0  0  2  0  0  0  0  0  0  0  0  0
  -21.4889  -30.1978   23.4003 C   0  0  0  0  0  0  0  0  0  0  0  0
  -29.1019  -20.3795   20.4411 N   0  0  0  0  0  0  0  0  0  0  0  0
  -26.1022  -11.3199   20.8734 N   0  0  0  0  0  0  0  0  0  0  0  0
  -26.8919  -12.0976   20.1135 N   0  0  0  0  0  0  0  0  0  0  0  0
  -24.9975  -30.6864   22.8384 N   0  0  0  0  0  0  0  0  0  0  0  0
  -28.7390  -14.9684   21.8253 N   0  0  0  0  0  0  0  0  0  0  0  0
  -27.2432  -12.8309   17.8887 N   0  0  0  0  0  0  0  0  0  0  0  0
  -23.6716  -10.0902   17.5308 N   0  0  0  0  0  0  0  0  0  0  0  0
  -28.7458  -16.7079   20.2326 N   0  0  0  0  0  0  0  0  0  0  0  0
  -28.4368  -22.1106   18.9548 N   0  0  0  0  0  0  0  0  0  0  0  0
  -26.7759  -30.5833   25.9298 N   0  0  0  0  0  0  0  0  0  0  0  0
  -22.0798  -31.7664   21.5045 N   0  0  0  0  0  0  0  0  0  0  0  0
  -22.2877  -33.0692   18.1389 N   0  3  0  0  0  0  0  0  0  0  0  0
  -25.1075  -11.4402   16.3585 O   0  0  0  0  0  0  0  0  0  0  0  0
  -29.4738  -23.1404   20.7875 O   0  0  0  0  0  0  0  0  0  0  0  0
  -25.9287  -28.9021   24.5591 O   0  0  0  0  0  0  0  0  0  0  0  0
  -23.6217  -32.2624   23.8678 O   0  0  0  0  0  0  0  0  0  0  0  0
  -22.5631  -30.6419   19.5349 O   0  0  0  0  0  0  0  0  0  0  0  0
  -30.2703  -16.6932   21.9811 O   0  0  0  0  0  0  0  0  0  0  0  0
  -28.5948  -24.5233   17.6453 O   0  0  0  0  0  0  0  0  0  0  0  0
  -21.2225   -7.3115   21.6920 O   0  0  0  0  0  0  0  0  0  0  0  0
  -28.1893  -26.8191   19.2454 O   0  0  0  0  0  0  0  0  0  1  0  0
  -22.6540   -3.2768   25.1670 F   0  0  0  0  0  0  0  0  0  0  0  0
  -20.8672   -4.6569   21.0067 F   0  0  0  0  0  0  0  0  0  0  0  0
  -27.4067  -20.2454   17.2323 F   0  0  0  0  0  0  0  0  0  0  0  0
  1  2  1  0  0  0  0
  1  5  2  0  0  0  0
  2  6  2  0  0  0  0
  3  8  2  0  0  0  0
  3 16  1  0  0  0  0
  4  9  1  0  0  0  0
  4 16  2  0  0  0  0
  5 18  1  0  0  0  0
  6 20  1  0  0  0  0
  7 10  2  0  0  0  0
  7 19  1  0  0  0  0
  8 24  1  0  0  0  0
  9 24  2  0  0  0  0
 10 25  1  0  0  0  0
 11 12  2  0  0  0  0
 11 26  1  0  0  0  0
 12 27  1  0  0  0  0
 13 21  1  0  0  0  0
 13 25  2  0  0  0  0
 14 27  2  0  0  0  0
 14 28  1  0  0  0  0
 15 23  2  0  0  0  0
 15 63  1  0  0  0  0
 16 30  1  0  0  0  0
 17 30  1  0  0  0  0
 17 32  2  0  0  0  0
 17 34  1  0  0  0  0
 18 20  2  0  0  0  0
 18 41  1  0  0  0  0
 19 21  2  0  0  0  0
 19 42  1  0  0  0  0
 20 50  1  0  0  0  0
 21 43  1  0  0  0  0
 22 23  1  0  0  0  0
 22 29  2  0  0  0  0
 22 59  1  0  0  0  0
 23 70  1  0  0  0  0
 24 82  1  0  0  0  0
 25 83  1  0  0  0  0
 26 28  2  0  0  0  0
 26 82  1  0  0  0  0
 27 84  1  0  0  0  0
 28 85  1  0  0  0  0
 29 31  1  0  0  0  0
 29 86  1  0  0  0  0
 30 64  2  0  0  0  0
 31 63  2  0  0  0  0
 31 71  1  0  0  0  0
 32 65  1  0  0  0  0
 32 68  1  0  0  0  0
 33 35  2  0  0  0  0
 33 83  1  0  0  0  0
 34 69  1  0  0  0  0
 34 75  2  0  0  0  0
 35 36  1  0  0  0  0
 35 81  1  0  0  0  0
 36 71  1  0  0  0  0
 36 76  2  0  0  0  0
 37 51  1  0  0  0  0
 37 72  1  0  0  0  0
 37 77  2  0  0  0  0
 38 60  1  0  0  0  0
 38 66  1  0  0  0  0
 38 78  2  0  0  0  0
 39 61  1  0  0  0  0
 39 73  1  0  0  0  0
 39 79  2  0  0  0  0
 40 67  1  0  0  0  0
 40 70  1  0  0  0  0
 40 80  2  0  0  0  0
 41 44  1  0  0  0  0
 42 51  1  0  0  0  0
 43 66  1  0  0  0  0
 44 46  1  0  0  0  0
 45 47  1  0  0  0  0
 45 48  1  0  0  0  0
 46 50  1  0  0  0  0
 47 52  1  0  0  0  0
 48 67  1  0  0  0  0
 49 52  1  0  0  0  0
 49 67  1  0  0  0  0
 50 72  1  0  0  0  0
 51 66  1  0  0  0  0
 52 65  1  0  0  0  0
 53 59  1  0  0  0  0
 54 61  1  0  0  0  0
 55 62  1  0  0  0  0
 56 62  1  0  0  0  0
 57 62  1  0  0  0  0
 58 74  1  0  0  0  0
 60 62  1  0  0  0  0
 60 73  1  0  0  0  0
 61 74  1  0  0  0  0
 64 65  1  0  0  0  0
M  CHG  1  74   1
M  ISO  4  33 101  40 100  70 100  83 101
M  END
> <Batch ID>
0174

> <Smiles>
CCc1c([100NH:0][100C:0](=O)N2CCCC(n3nc(-c4ccc(Oc5ccc(F)cc5F)cc4)c(C(N)=O)c3N)C2)cnc(NC(=O)C(=O)[101CH2:1][101O:1]c2ccc3c(c2)CN(C(=O)C(NC(=O)C(C)NC)C(C)(C)C)C(C(=O)NC2CCCc4ccccc42)C3)c1F

> <Shape>
0.307

> <Color>
0.103

> <Negative vol penalty>
0.000

$$$$

  -OEChem-04052304333D

 90 98  0     1  0  0  0  0  0999 V2000
  -19.0037  -30.0255   26.6906 C   0  0  0  0  0  0  0  0  0  0  0  0
  -19.3872  -28.6887   26.6558 C   0  0  0  0  0  0  0  0  0  0  0  0
  -28.5270  -22.9237   22.3654 C   0  0  0  0  0  0  0  0  0  0  0  0
  -29.0299  -23.9018   20.2143 C   0  0  0  0  0  0  0  0  0  0  0  0
  -18.3643  -30.5950   25.5902 C   0  0  0  0  0  0  0  0  0  0  0  0
  -19.1303  -27.9201   25.5210 C   0  0  0  0  0  0  0  0  0  0  0  0
  -22.6211  -23.4312   23.2473 C   0  0  0  0  0  0  0  0  0  0  0  0
  -28.6287  -24.1809   22.9609 C   0  0  0  0  0  0  0  0  0  0  0  0
  -29.1315  -25.1590   20.8097 C   0  0  0  0  0  0  0  0  0  0  0  0
  -22.5540  -22.0431   23.3585 C   0  0  0  0  0  0  0  0  0  0  0  0
  -29.1682  -28.6825   21.7054 C   0  0  0  0  0  0  0  0  0  0  0  0
  -28.5468  -29.7555   21.0667 C   0  0  0  0  0  0  0  0  0  0  0  0
  -26.8677  -12.0886   20.7035 C   0  0  0  0  0  0  0  0  0  0  0  0
  -26.5882  -14.4206   20.1377 C   0  0  0  0  0  0  0  0  0  0  0  0
  -21.3699  -21.9383   21.2594 C   0  0  0  0  0  0  0  0  0  0  0  0
  -24.6820  -13.1098   20.8346 C   0  0  0  0  0  0  0  0  0  0  0  0
  -26.4121  -28.6434   21.2753 C   0  0  0  0  0  0  0  0  0  0  0  0
  -28.7277  -22.7841   20.9921 C   0  0  0  0  0  0  0  0  0  0  0  0
  -27.4098  -13.3028   20.2826 C   0  0  0  0  0  0  0  0  0  0  0  0
  -27.4672  -20.8914   19.8359 C   0  0  0  0  0  0  0  0  0  0  0  0
  -18.1081  -29.8356   24.4377 C   0  0  0  0  0  0  0  0  0  0  0  0
  -22.0526  -24.0853   22.1449 C   0  0  0  0  0  0  0  0  0  0  0  0
  -18.4856  -28.4796   24.4047 C   0  0  0  0  0  0  0  0  0  0  0  0
  -21.4334  -23.3346   21.1354 C   0  0  0  0  0  0  0  0  0  0  0  0
  -25.5037  -11.9920   20.9794 C   0  0  0  0  0  0  0  0  0  0  0  0
  -25.2242  -14.3242   20.4137 C   0  0  0  0  0  0  0  0  0  0  0  0
  -28.9309  -25.2986   22.1830 C   0  0  0  0  0  0  0  0  0  0  0  0
  -21.9258  -21.2966   22.3658 C   0  0  0  0  0  0  0  0  0  0  0  0
  -28.4116  -27.5898   22.1290 C   0  0  0  0  0  0  0  0  0  0  0  0
  -27.1688  -29.7360   20.8516 C   0  0  0  0  0  0  0  0  0  0  0  0
  -27.0336  -27.5703   21.9140 C   0  0  0  0  0  0  0  0  0  0  0  0
  -28.6234  -21.4855   20.3765 C   0  0  0  0  0  0  0  0  0  0  0  0
  -27.8919  -19.6681   19.3780 C   0  0  0  0  0  0  0  0  0  0  0  0
  -28.8624  -13.4056   19.9889 C   0  0  0  0  0  0  0  0  0  0  0  0
  -26.1291  -21.3999   19.7548 C   0  0  0  0  0  0  0  0  0  0  0  0
  -19.7344  -26.2252   21.7569 C   0  0  0  0  0  0  0  0  0  0  0  0
  -22.4561  -17.8267   21.4546 C   0  0  0  0  0  0  0  0  0  0  0  0
  -20.7391  -26.1777   18.6729 C   0  0  0  0  0  0  0  0  0  0  0  0
  -23.6278  -10.4903   21.7212 C   0  0  0  0  0  0  0  0  0  0  0  0
  -23.0249  -15.5399   20.5050 C   0  0  0  0  0  0  0  0  0  0  0  0
  -22.3166  -24.4831   16.1656 C   0  0  0  0  0  0  0  0  0  0  0  0
  -30.7760  -14.9746   19.9706 C   0  0  0  0  0  0  0  0  0  0  0  0
  -17.3719  -30.4822   23.2911 C   0  0  0  0  0  0  0  0  0  0  0  0
  -22.1569  -25.5811   22.0267 C   0  0  0  0  0  0  0  0  0  0  0  0
  -20.8252  -23.9871   19.9218 C   0  0  0  0  0  0  0  0  0  0  0  0
  -17.4724  -29.6999   21.9842 C   0  0  0  0  0  0  0  0  0  0  0  0
  -32.5656  -17.7976   18.8196 C   0  0  0  0  0  0  0  0  0  0  0  0
  -17.2064  -28.2177   22.2274 C   0  0  0  0  0  0  0  0  0  0  0  0
  -31.6029  -18.9618   19.0691 C   0  0  0  0  0  0  0  0  0  0  0  0
  -32.4988  -16.7568   19.9364 C   0  0  0  0  0  0  0  0  0  0  0  0
  -30.1955  -17.4214   20.4940 C   0  0  0  0  0  0  0  0  0  0  0  0
  -18.2467  -27.6200   23.1824 C   0  0  1  0  0  0  0  0  0  0  0  0
  -21.0924  -26.1841   21.1152 C   0  0  1  0  0  0  0  0  0  0  0  0
  -30.1742  -18.4615   19.3622 C   0  0  1  0  0  0  0  0  0  0  0  0
  -23.4497   -9.0510   22.1349 C   0  0  0  0  0  0  0  0  0  0  0  0
  -22.9497  -24.6857   13.7458 C   0  0  0  0  0  0  0  0  0  0  0  0
  -17.8509  -25.6064   17.8719 C   0  0  0  0  0  0  0  0  0  0  0  0
  -18.6894  -24.8888   15.6246 C   0  0  0  0  0  0  0  0  0  0  0  0
  -19.0406  -27.2356   16.3939 C   0  0  0  0  0  0  0  0  0  0  0  0
  -25.2036  -24.2799   16.7841 C   0  0  0  0  0  0  0  0  0  0  0  0
  -22.4800  -16.9292   20.2348 C   0  0  0  0  0  0  0  0  0  0  0  0
  -21.8358  -19.1951   21.2562 C   0  0  0  0  0  0  0  0  0  1  0  0
  -20.3866  -25.3719   17.4460 C   0  0  1  0  0  0  0  0  0  0  0  0
  -23.3926  -24.9095   15.1833 C   0  0  2  0  0  0  0  0  0  0  0  0
  -19.0015  -25.7632   16.8578 C   0  0  0  0  0  0  0  0  0  0  0  0
  -29.7015  -20.7039   20.2726 N   0  0  0  0  0  0  0  0  0  0  0  0
  -29.2246  -19.6061   19.6615 N   0  0  0  0  0  0  0  0  0  0  0  0
  -20.9472  -25.4528   19.8549 N   0  0  0  0  0  0  0  0  0  0  0  0
  -31.1148  -16.3278   20.1451 N   0  0  0  0  0  0  0  0  0  0  0  0
  -27.2516  -18.6501   18.7647 N   0  0  0  0  0  0  0  0  0  0  0  0
  -25.8663  -22.6749   20.2740 N   0  0  0  0  0  0  0  0  0  0  0  0
  -24.9613  -10.7774   21.4005 N   0  0  0  0  0  0  0  0  0  0  0  0
  -24.3906  -15.4588   20.2670 N   0  0  0  0  0  0  0  0  0  0  0  0
  -29.4214  -14.6735   20.1513 N   0  0  0  0  0  0  0  0  0  0  0  0
  -19.4907  -27.3741   22.4850 N   0  0  0  0  0  0  0  0  0  0  0  0
  -21.4987  -25.5363   16.5162 N   0  0  0  0  0  0  0  0  0  0  0  0
  -24.6434  -24.1334   15.4160 N   0  3  0  0  0  0  0  0  0  0  0  0
  -29.4808  -12.3943   19.6685 O   0  0  0  0  0  0  0  0  0  0  0  0
  -25.1908  -20.7363   19.2521 O   0  0  0  0  0  0  0  0  0  0  0  0
  -18.9641  -25.2849   21.6016 O   0  0  0  0  0  0  0  0  0  0  0  0
  -22.9176  -17.4723   22.5385 O   0  0  0  0  0  0  0  0  0  0  0  0
  -20.8336  -27.4044   18.5842 O   0  0  0  0  0  0  0  0  0  0  0  0
  -22.6714  -11.2580   21.6903 O   0  0  0  0  0  0  0  0  0  0  0  0
  -22.2808  -14.6525   20.9140 O   0  0  0  0  0  0  0  0  0  0  0  0
  -22.2099  -23.3301   16.5776 O   0  0  0  0  0  0  0  0  0  0  0  0
  -31.6007  -14.1151   19.6445 O   0  0  0  0  0  0  0  0  0  0  0  0
  -29.0300  -26.5256   22.7637 O   0  0  0  0  0  0  0  0  0  0  0  0
  -21.8583  -19.9416   22.4721 O   0  0  0  0  0  0  0  0  0  1  0  0
  -26.5719  -30.7672   20.2396 F   0  0  0  0  0  0  0  0  0  0  0  0
  -26.3013  -26.5239   22.3198 F   0  0  0  0  0  0  0  0  0  0  0  0
  1  2  1  0  0  0  0
  1  5  2  0  0  0  0
  2  6  2  0  0  0  0
  3  8  2  0  0  0  0
  3 18  1  0  0  0  0
  4  9  1  0  0  0  0
  4 18  2  0  0  0  0
  5 21  1  0  0  0  0
  6 23  1  0  0  0  0
  7 10  2  0  0  0  0
  7 22  1  0  0  0  0
  8 27  1  0  0  0  0
  9 27  2  0  0  0  0
 10 28  1  0  0  0  0
 11 12  2  0  0  0  0
 11 29  1  0  0  0  0
 12 30  1  0  0  0  0
 13 19  2  0  0  0  0
 13 25  1  0  0  0  0
 14 19  1  0  0  0  0
 14 26  2  0  0  0  0
 15 24  1  0  0  0  0
 15 28  2  0  0  0  0
 16 25  2  0  0  0  0
 16 26  1  0  0  0  0
 17 30  2  0  0  0  0
 17 31  1  0  0  0  0
 18 32  1  0  0  0  0
 19 34  1  0  0  0  0
 20 32  1  0  0  0  0
 20 33  2  0  0  0  0
 20 35  1  0  0  0  0
 21 23  2  0  0  0  0
 21 43  1  0  0  0  0
 22 24  2  0  0  0  0
 22 44  1  0  0  0  0
 23 52  1  0  0  0  0
 24 45  1  0  0  0  0
 25 72  1  0  0  0  0
 26 73  1  0  0  0  0
 27 87  1  0  0  0  0
 28 88  1  0  0  0  0
 29 31  2  0  0  0  0
 29 87  1  0  0  0  0
 30 89  1  0  0  0  0
 31 90  1  0  0  0  0
 32 66  2  0  0  0  0
 33 67  1  0  0  0  0
 33 70  1  0  0  0  0
 34 74  1  0  0  0  0
 34 78  2  0  0  0  0
 35 71  1  0  0  0  0
 35 79  2  0  0  0  0
 36 53  1  0  0  0  0
 36 75  1  0  0  0  0
 36 80  2  0  0  0  0
 37 61  1  0  0  0  0
 37 62  1  0  0  0  0
 37 81  2  0  0  0  0
 38 63  1  0  0  0  0
 38 68  1  0  0  0  0
 38 82  2  0  0  0  0
 39 55  1  0  0  0  0
 39 72  1  0  0  0  0
 39 83  2  0  0  0  0
 40 61  1  0  0  0  0
 40 73  1  0  0  0  0
 40 84  2  0  0  0  0
 41 64  1  0  0  0  0
 41 76  1  0  0  0  0
 41 85  2  0  0  0  0
 42 69  1  0  0  0  0
 42 74  1  0  0  0  0
 42 86  2  0  0  0  0
 43 46  1  0  0  0  0
 44 53  1  0  0  0  0
 45 68  1  0  0  0  0
 46 48  1  0  0  0  0
 47 49  1  0  0  0  0
 47 50  1  0  0  0  0
 48 52  1  0  0  0  0
 49 54  1  0  0  0  0
 50 69  1  0  0  0  0
 51 54  1  0  0  0  0
 51 69  1  0  0  0  0
 52 75  1  0  0  0  0
 53 68  1  0  0  0  0
 54 67  1  0  0  0  0
 56 64  1  0  0  0  0
 57 65  1  0  0  0  0
 58 65  1  0  0  0  0
 59 65  1  0  0  0  0
 60 77  1  0  0  0  0
 62 88  1  0  0  0  0
 63 65  1  0  0  0  0
 63 76  1  0  0  0  0
 64 77  1  0  0  0  0
 66 67  1  0  0  0  0
M  CHG  1  77   1
M  ISO  4  42 100  62 101  74 100  88 101
M  END
> <Batch ID>
0174

> <Smiles>
CNC(C)C(=O)NC(C(=O)N1Cc2cc([101O:1][101CH2:1]C(=O)CC(=O)Nc3cc(NC(C)=O)cc(C(=O)[100NH:0][100C:0](=O)N4CCCC(n5nc(-c6ccc(Oc7ccc(F)cc7F)cc6)c(C(N)=O)c5N)C4)c3)ccc2CC1C(=O)NC1CCCc2ccccc21)C(C)(C)C

> <Shape>
0.235

> <Color>
0.067

> <Negative vol penalty>
0.000

$$$$

  -OEChem-04052304333D

 90 98  0     1  0  0  0  0  0999 V2000
  -27.5401  -34.9106   19.7300 C   0  0  0  0  0  0  0  0  0  0  0  0
  -27.8505  -33.6946   20.3302 C   0  0  0  0  0  0  0  0  0  0  0  0
  -23.1152   -9.8731   21.5158 C   0  0  0  0  0  0  0  0  0  0  0  0
  -23.7995  -10.8709   23.6071 C   0  0  0  0  0  0  0  0  0  0  0  0
  -32.3923  -18.5946   21.6748 C   0  0  0  0  0  0  0  0  0  0  0  0
  -26.3547  -35.5667   20.0592 C   0  0  0  0  0  0  0  0  0  0  0  0
  -26.9761  -33.1344   21.2608 C   0  0  0  0  0  0  0  0  0  0  0  0
  -26.2575  -28.1777   20.5127 C   0  0  0  0  0  0  0  0  0  0  0  0
  -31.8528  -17.3931   21.2155 C   0  0  0  0  0  0  0  0  0  0  0  0
  -22.3907   -8.9070   22.2138 C   0  0  0  0  0  0  0  0  0  0  0  0
  -23.0750   -9.9047   24.3051 C   0  0  0  0  0  0  0  0  0  0  0  0
  -27.2626  -27.3156   20.9489 C   0  0  0  0  0  0  0  0  0  0  0  0
  -23.0306   -6.0411   23.8877 C   0  0  0  0  0  0  0  0  0  0  0  0
  -23.1520   -4.7152   23.4720 C   0  0  0  0  0  0  0  0  0  0  0  0
  -25.9755  -26.8268   22.9297 C   0  0  0  0  0  0  0  0  0  0  0  0
  -20.7770   -4.6343   23.0363 C   0  0  0  0  0  0  0  0  0  0  0  0
  -23.8196  -10.8551   22.2124 C   0  0  0  0  0  0  0  0  0  0  0  0
  -31.5523  -19.6677   21.9722 C   0  0  0  0  0  0  0  0  0  0  0  0
  -24.1061  -13.1056   21.0460 C   0  0  0  0  0  0  0  0  0  0  0  0
  -25.4607  -35.0095   20.9871 C   0  0  0  0  0  0  0  0  0  0  0  0
  -25.1067  -28.3795   21.2883 C   0  0  0  0  0  0  0  0  0  0  0  0
  -25.7783  -33.7842   21.6037 C   0  0  0  0  0  0  0  0  0  0  0  0
  -24.9560  -27.6900   22.4999 C   0  0  0  0  0  0  0  0  0  0  0  0
  -30.4734  -17.2648   21.0535 C   0  0  0  0  0  0  0  0  0  0  0  0
  -22.3706   -8.9228   23.6085 C   0  0  0  0  0  0  0  0  0  0  0  0
  -27.1230  -26.6422   22.1590 C   0  0  0  0  0  0  0  0  0  0  0  0
  -21.7823   -6.6636   23.8777 C   0  0  0  0  0  0  0  0  0  0  0  0
  -22.0253   -4.0118   23.0463 C   0  0  0  0  0  0  0  0  0  0  0  0
  -20.6556   -5.9602   23.4520 C   0  0  0  0  0  0  0  0  0  0  0  0
  -30.1728  -19.5394   21.8102 C   0  0  0  0  0  0  0  0  0  0  0  0
  -29.6333  -18.3379   21.3508 C   0  0  0  0  0  0  0  0  0  0  0  0
  -24.5687  -11.8531   21.4920 C   0  0  0  0  0  0  0  0  0  0  0  0
  -25.1917  -13.6703   20.4222 C   0  0  0  0  0  0  0  0  0  0  0  0
  -32.1264  -20.9384   22.4585 C   0  0  0  0  0  0  0  0  0  0  0  0
  -22.8109  -13.7051   21.1833 C   0  0  0  0  0  0  0  0  0  0  0  0
  -23.7853  -30.8844   22.7316 C   0  0  0  0  0  0  0  0  0  0  0  0
  -33.8256  -23.4536   21.5633 C   0  0  0  0  0  0  0  0  0  0  0  0
  -30.2339  -24.6714   22.3468 C   0  0  0  0  0  0  0  0  0  0  0  0
  -21.3850  -28.7844   23.3235 C   0  0  0  0  0  0  0  0  0  0  0  0
  -20.4002  -25.5369   23.6860 C   0  0  0  0  0  0  0  0  0  0  0  0
  -30.6234  -14.8826   20.2477 C   0  0  0  0  0  0  0  0  0  0  0  0
  -24.2142  -35.7788   21.3463 C   0  0  0  0  0  0  0  0  0  0  0  0
  -24.0196  -29.2922   20.7909 C   0  0  0  0  0  0  0  0  0  0  0  0
  -23.7308  -27.8564   23.3599 C   0  0  0  0  0  0  0  0  0  0  0  0
  -23.1630  -34.9350   22.0627 C   0  0  0  0  0  0  0  0  0  0  0  0
  -29.6435  -11.6591   19.0961 C   0  0  0  0  0  0  0  0  0  0  0  0
  -23.8070  -34.1076   23.1706 C   0  0  0  0  0  0  0  0  0  0  0  0
  -28.1978  -11.5253   19.5801 C   0  0  0  0  0  0  0  0  0  0  0  0
  -30.5133  -12.4041   20.1071 C   0  0  0  0  0  0  0  0  0  0  0  0
  -28.5459  -13.5753   21.0164 C   0  0  0  0  0  0  0  0  0  0  0  0
  -24.8435  -33.1324   22.5994 C   0  0  1  0  0  0  0  0  0  0  0  0
  -23.1225  -29.8169   21.9077 C   0  0  1  0  0  0  0  0  0  0  0  0
  -27.6163  -12.8888   20.0024 C   0  0  2  0  0  0  0  0  0  0  0  0
  -34.8409  -24.2121   22.3798 C   0  0  0  0  0  0  0  0  0  0  0  0
  -18.3839  -24.1362   24.2052 C   0  0  0  0  0  0  0  0  0  0  0  0
  -21.6331  -29.5247   26.2732 C   0  0  0  0  0  0  0  0  0  0  0  0
  -20.3159  -27.4692   26.8281 C   0  0  0  0  0  0  0  0  0  0  0  0
  -19.2833  -29.2769   25.4539 C   0  0  0  0  0  0  0  0  0  0  0  0
  -20.5270  -24.1747   21.0617 C   0  0  0  0  0  0  0  0  0  0  0  0
  -31.4936  -24.4236   21.5280 C   0  0  0  0  0  0  0  0  0  0  0  0
  -29.2470  -25.6548   21.7471 C   0  0  0  0  0  0  0  0  0  1  0  0
  -32.4170  -23.3682   22.1286 C   0  0  1  0  0  0  0  0  0  0  0  0
  -21.0677  -27.8075   24.4299 C   0  0  1  0  0  0  0  0  0  0  0  0
  -19.2244  -24.7704   23.1079 C   0  0  2  0  0  0  0  0  0  0  0  0
  -20.5991  -28.5177   25.7312 C   0  0  0  0  0  0  0  0  0  0  0  0
  -25.8484  -11.6344   21.1781 N   0  0  0  0  0  0  0  0  0  0  0  0
  -26.1992  -12.7571   20.5281 N   0  0  0  0  0  0  0  0  0  0  0  0
  -22.6985  -28.7646   22.8336 N   0  0  0  0  0  0  0  0  0  0  0  0
  -29.9021  -13.6881   20.4570 N   0  0  0  0  0  0  0  0  0  0  0  0
  -25.3732  -14.8540   19.7990 N   0  0  0  0  0  0  0  0  0  0  0  0
  -21.8101  -12.9875   21.8523 N   0  0  0  0  0  0  0  0  0  0  0  0
  -29.9282  -16.0429   20.5870 N   0  0  0  0  0  0  0  0  0  0  0  0
  -31.9157  -22.0486   21.7403 N   0  0  0  0  0  0  0  0  0  0  0  0
  -24.1868  -31.9885   22.0040 N   0  0  0  0  0  0  0  0  0  0  0  0
  -20.0969  -26.8681   23.8791 N   0  0  0  0  0  0  0  0  0  0  0  0
  -32.8302  -20.9174   23.5905 N   0  3  0  0  0  0  0  0  0  0  0  0
  -19.7057  -23.6903   22.2009 N   0  3  0  0  0  0  0  0  0  0  0  0
  -22.5442  -14.8365   20.7119 O   0  0  0  0  0  0  0  0  0  0  0  0
  -23.9211  -30.7193   23.9382 O   0  0  0  0  0  0  0  0  0  0  0  0
  -34.1425  -22.9458   20.4871 O   0  0  0  0  0  0  0  0  0  0  0  0
  -30.0151  -24.1120   23.4198 O   0  0  0  0  0  0  0  0  0  0  0  0
  -20.4981  -29.5323   22.9044 O   0  0  0  0  0  0  0  0  0  0  0  0
  -21.4787  -25.0070   23.9442 O   0  0  0  0  0  0  0  0  0  0  0  0
  -31.7628  -14.8783   19.7749 O   0  0  0  0  0  0  0  0  0  0  0  0
  -21.6635   -7.9803   24.2899 O   0  0  0  0  0  0  0  0  0  0  0  0
  -28.1029  -25.8007   22.5874 O   0  0  0  0  0  0  0  0  0  1  0  0
  -22.1423   -2.7390   22.6457 F   0  0  0  0  0  0  0  0  0  0  0  0
  -19.4539   -6.5533   23.4390 F   0  0  0  0  0  0  0  0  0  0  0  0
  -29.3577  -20.5651   22.0930 F   0  0  0  0  0  0  0  0  0  0  0  0
  -28.3060  -18.2259   21.1989 F   0  0  0  0  0  0  0  0  0  0  0  0
  1  2  1  0  0  0  0
  1  6  2  0  0  0  0
  2  7  2  0  0  0  0
  3 10  2  0  0  0  0
  3 17  1  0  0  0  0
  4 11  1  0  0  0  0
  4 17  2  0  0  0  0
  5  9  2  0  0  0  0
  5 18  1  0  0  0  0
  6 20  1  0  0  0  0
  7 22  1  0  0  0  0
  8 12  2  0  0  0  0
  8 21  1  0  0  0  0
  9 24  1  0  0  0  0
 10 25  1  0  0  0  0
 11 25  2  0  0  0  0
 12 26  1  0  0  0  0
 13 14  2  0  0  0  0
 13 27  1  0  0  0  0
 14 28  1  0  0  0  0
 15 23  1  0  0  0  0
 15 26  2  0  0  0  0
 16 28  2  0  0  0  0
 16 29  1  0  0  0  0
 17 32  1  0  0  0  0
 18 30  2  0  0  0  0
 18 34  1  0  0  0  0
 19 32  1  0  0  0  0
 19 33  2  0  0  0  0
 19 35  1  0  0  0  0
 20 22  2  0  0  0  0
 20 42  1  0  0  0  0
 21 23  2  0  0  0  0
 21 43  1  0  0  0  0
 22 51  1  0  0  0  0
 23 44  1  0  0  0  0
 24 31  2  0  0  0  0
 24 72  1  0  0  0  0
 25 85  1  0  0  0  0
 26 86  1  0  0  0  0
 27 29  2  0  0  0  0
 27 85  1  0  0  0  0
 28 87  1  0  0  0  0
 29 88  1  0  0  0  0
 30 31  1  0  0  0  0
 30 89  1  0  0  0  0
 31 90  1  0  0  0  0
 32 66  2  0  0  0  0
 33 67  1  0  0  0  0
 33 70  1  0  0  0  0
 34 73  1  0  0  0  0
 34 76  2  0  0  0  0
 35 71  1  0  0  0  0
 35 78  2  0  0  0  0
 36 52  1  0  0  0  0
 36 74  1  0  0  0  0
 36 79  2  0  0  0  0
 37 54  1  0  0  0  0
 37 62  1  0  0  0  0
 37 80  2  0  0  0  0
 38 60  1  0  0  0  0
 38 61  1  0  0  0  0
 38 81  2  0  0  0  0
 39 63  1  0  0  0  0
 39 68  1  0  0  0  0
 39 82  2  0  0  0  0
 40 64  1  0  0  0  0
 40 75  1  0  0  0  0
 40 83  2  0  0  0  0
 41 69  1  0  0  0  0
 41 72  1  0  0  0  0
 41 84  2  0  0  0  0
 42 45  1  0  0  0  0
 43 52  1  0  0  0  0
 44 68  1  0  0  0  0
 45 47  1  0  0  0  0
 46 48  1  0  0  0  0
 46 49  1  0  0  0  0
 47 51  1  0  0  0  0
 48 53  1  0  0  0  0
 49 69  1  0  0  0  0
 50 53  1  0  0  0  0
 50 69  1  0  0  0  0
 51 74  1  0  0  0  0
 52 68  1  0  0  0  0
 53 67  1  0  0  0  0
 55 64  1  0  0  0  0
 56 65  1  0  0  0  0
 57 65  1  0  0  0  0
 58 65  1  0  0  0  0
 59 77  1  0  0  0  0
 60 62  1  0  0  0  0
 61 86  1  0  0  0  0
 62 73  1  0  0  0  0
 63 65  1  0  0  0  0
 63 75  1  0  0  0  0
 64 77  1  0  0  0  0
 66 67  1  0  0  0  0
M  CHG  2  76   1  77   1
M  ISO  4  41 100  61 101  72 100  86 101
M  END
> <Batch ID>
0174

> <Smiles>
CNC(C)C(=O)NC(C(=O)N1Cc2cc([101O:1][101CH2:1]C(=O)CC(NC(=N)c3ccc([100NH:0][100C:0](=O)N4CCCC(n5nc(-c6ccc(Oc7ccc(F)cc7F)cc6)c(C(N)=O)c5N)C4)c(F)c3F)C(C)=O)ccc2CC1C(=O)NC1CCCc2ccccc21)C(C)(C)C

> <Shape>
0.270

> <Color>
0.144

> <Negative vol penalty>
0.000

$$$$

  -OEChem-04052304333D

 87 95  0     1  0  0  0  0  0999 V2000
  -24.2857  -34.7495   14.3780 C   0  0  0  0  0  0  0  0  0  0  0  0
  -24.4534  -33.3948   14.6466 C   0  0  0  0  0  0  0  0  0  0  0  0
  -23.1874   -9.7966   21.1533 C   0  0  0  0  0  0  0  0  0  0  0  0
  -23.9275  -10.5483   23.3268 C   0  0  0  0  0  0  0  0  0  0  0  0
  -25.0138  -35.6968   15.0965 C   0  0  0  0  0  0  0  0  0  0  0  0
  -25.3503  -32.9867   15.6333 C   0  0  0  0  0  0  0  0  0  0  0  0
  -24.7614  -28.1812   19.3837 C   0  0  0  0  0  0  0  0  0  0  0  0
  -22.5033   -8.7388   21.7520 C   0  0  0  0  0  0  0  0  0  0  0  0
  -23.2433   -9.4905   23.9256 C   0  0  0  0  0  0  0  0  0  0  0  0
  -25.2862  -26.8901   19.3436 C   0  0  0  0  0  0  0  0  0  0  0  0
  -23.2472   -5.7054   23.0442 C   0  0  0  0  0  0  0  0  0  0  0  0
  -23.3756   -4.4421   22.4671 C   0  0  0  0  0  0  0  0  0  0  0  0
  -27.0780  -27.5796   20.8041 C   0  0  0  0  0  0  0  0  0  0  0  0
  -20.9886   -4.3662   22.1019 C   0  0  0  0  0  0  0  0  0  0  0  0
  -23.8996  -10.7014   21.9407 C   0  0  0  0  0  0  0  0  0  0  0  0
  -24.1089  -13.0816   21.0471 C   0  0  0  0  0  0  0  0  0  0  0  0
  -25.9129  -35.3006   16.0991 C   0  0  0  0  0  0  0  0  0  0  0  0
  -25.3981  -29.1855   20.1269 C   0  0  0  0  0  0  0  0  0  0  0  0
  -26.0921  -33.9296   16.3650 C   0  0  0  0  0  0  0  0  0  0  0  0
  -26.5578  -28.8819   20.8541 C   0  0  0  0  0  0  0  0  0  0  0  0
  -22.5312   -8.5857   23.1382 C   0  0  0  0  0  0  0  0  0  0  0  0
  -26.4462  -26.5899   20.0515 C   0  0  0  0  0  0  0  0  0  0  0  0
  -21.9894   -6.2991   23.1503 C   0  0  0  0  0  0  0  0  0  0  0  0
  -22.2464   -3.7725   21.9959 C   0  0  0  0  0  0  0  0  0  0  0  0
  -20.8601   -5.6295   22.6791 C   0  0  0  0  0  0  0  0  0  0  0  0
  -24.6069  -11.7940   21.3227 C   0  0  0  0  0  0  0  0  0  0  0  0
  -30.3007  -19.9022   21.1541 C   0  0  0  0  0  0  0  0  0  0  0  0
  -31.4263  -19.3816   20.5507 C   0  0  0  0  0  0  0  0  0  0  0  0
  -25.1630  -13.7394   20.4617 C   0  0  0  0  0  0  0  0  0  0  0  0
  -30.2859  -17.5225   20.7811 C   0  0  0  0  0  0  0  0  0  0  0  0
  -22.8097  -13.6337   21.2981 C   0  0  0  0  0  0  0  0  0  0  0  0
  -29.9617  -21.2982   21.5329 C   0  0  0  0  0  0  0  0  0  0  0  0
  -26.7563  -31.9731   19.4283 C   0  0  0  0  0  0  0  0  0  0  0  0
  -27.3544  -22.7093   23.7687 C   0  0  0  0  0  0  0  0  0  0  0  0
  -27.5423  -23.3855   21.3337 C   0  0  0  0  0  0  0  0  0  0  0  0
  -26.9795  -32.2301   22.6542 C   0  0  0  0  0  0  0  0  0  0  0  0
  -27.1070  -30.6634   25.6835 C   0  0  0  0  0  0  0  0  0  0  0  0
  -30.5651  -15.0737   20.2597 C   0  0  0  0  0  0  0  0  0  0  0  0
  -26.7126  -36.3590   16.8167 C   0  0  0  0  0  0  0  0  0  0  0  0
  -24.8044  -30.5665   20.1815 C   0  0  0  0  0  0  0  0  0  0  0  0
  -27.2681  -29.9192   21.6835 C   0  0  0  0  0  0  0  0  0  0  0  0
  -27.3657  -35.8610   18.1035 C   0  0  0  0  0  0  0  0  0  0  0  0
  -29.5982  -11.9937   18.7577 C   0  0  0  0  0  0  0  0  0  0  0  0
  -28.0505  -34.5182   17.8696 C   0  0  0  0  0  0  0  0  0  0  0  0
  -28.1725  -11.7731   19.2685 C   0  0  0  0  0  0  0  0  0  0  0  0
  -30.4903  -12.6285   19.8230 C   0  0  0  0  0  0  0  0  0  0  0  0
  -28.5369  -13.6413   20.9310 C   0  0  0  0  0  0  0  0  0  0  0  0
  -27.0371  -33.4487   17.4447 C   0  0  1  0  0  0  0  0  0  0  0  0
  -25.8217  -31.6397   20.5565 C   0  0  1  0  0  0  0  0  0  0  0  0
  -27.5840  -13.0635   19.8718 C   0  0  2  0  0  0  0  0  0  0  0  0
  -27.3675  -23.8518   24.7524 C   0  0  0  0  0  0  0  0  0  0  0  0
  -27.3289  -31.1363   28.1380 C   0  0  0  0  0  0  0  0  0  0  0  0
  -29.9614  -32.7583   22.2805 C   0  0  0  0  0  0  0  0  0  0  0  0
  -30.2808  -32.2779   24.7168 C   0  0  0  0  0  0  0  0  0  0  0  0
  -28.8549  -34.1959   24.0020 C   0  0  0  0  0  0  0  0  0  0  0  0
  -24.4718  -29.4523   26.2731 C   0  0  0  0  0  0  0  0  0  0  0  0
  -27.6756  -24.8862   21.1659 C   0  0  0  0  0  0  0  0  0  1  0  0
  -28.2425  -22.7791   22.5366 C   0  0  2  0  0  0  0  0  0  0  0  0
  -28.0047  -31.8355   23.6897 C   0  0  1  0  0  0  0  0  0  0  0  0
  -26.3643  -30.9201   26.9823 C   0  0  2  0  0  0  0  0  0  0  0  0
  -29.2634  -32.7476   23.6552 C   0  0  0  0  0  0  0  0  0  0  0  0
  -25.8784  -11.6408   20.9433 N   0  0  0  0  0  0  0  0  0  0  0  0
  -31.4198  -18.0171   20.3364 N   0  0  0  0  0  0  0  0  0  0  0  0
  -26.1882  -12.8407   20.4233 N   0  0  0  0  0  0  0  0  0  0  0  0
  -26.6522  -31.2564   21.7000 N   0  0  0  0  0  0  0  0  0  0  0  0
  -29.8709  -13.8483   20.3458 N   0  0  0  0  0  0  0  0  0  0  0  0
  -32.4938  -20.1259   20.1742 N   0  0  0  0  0  0  0  0  0  0  0  0
  -25.3036  -14.9930   19.9810 N   0  0  0  0  0  0  0  0  0  0  0  0
  -21.8444  -12.8204   21.9072 N   0  0  0  0  0  0  0  0  0  0  0  0
  -29.8634  -16.1702   20.7597 N   0  0  0  0  0  0  0  0  0  0  0  0
  -28.7228  -21.4861   22.1359 N   0  0  0  0  0  0  0  0  0  0  0  0
  -26.2949  -32.9716   18.5918 N   0  0  0  0  0  0  0  0  0  0  0  0
  -27.3079  -31.8270   24.9715 N   0  0  0  0  0  0  0  0  0  0  0  0
  -25.4855  -29.7630   27.3138 N   0  3  0  0  0  0  0  0  0  0  0  0
  -22.5086  -14.8082   20.9763 O   0  0  0  0  0  0  0  0  0  0  0  0
  -30.7598  -22.1980   21.2842 O   0  0  0  0  0  0  0  0  0  0  0  0
  -27.8182  -31.3703   19.3253 O   0  0  0  0  0  0  0  0  0  0  0  0
  -26.5991  -21.7493   23.9418 O   0  0  0  0  0  0  0  0  0  0  0  0
  -26.8755  -22.7018   20.5565 O   0  0  0  0  0  0  0  0  0  0  0  0
  -26.4821  -33.3581   22.6950 O   0  0  0  0  0  0  0  0  0  0  0  0
  -27.4757  -29.5433   25.3371 O   0  0  0  0  0  0  0  0  0  0  0  0
  -31.6874  -15.1495   19.7532 O   0  0  0  0  0  0  0  0  0  0  0  0
  -21.8636   -7.5537   23.7228 O   0  0  0  0  0  0  0  0  0  0  0  0
  -26.9610  -25.3307   20.0135 O   0  0  0  0  0  0  0  0  0  1  0  0
  -22.3701   -2.5600   21.4403 F   0  0  0  0  0  0  0  0  0  0  0  0
  -19.6493   -6.1953   22.7772 F   0  0  0  0  0  0  0  0  0  0  0  0
  -29.1814  -18.6415   21.4687 S   0  0  0  0  0  0  0  0  0  0  0  0
  1  2  1  0  0  0  0
  1  5  2  0  0  0  0
  2  6  2  0  0  0  0
  3  8  2  0  0  0  0
  3 15  1  0  0  0  0
  4  9  1  0  0  0  0
  4 15  2  0  0  0  0
  5 17  1  0  0  0  0
  6 19  1  0  0  0  0
  7 10  2  0  0  0  0
  7 18  1  0  0  0  0
  8 21  1  0  0  0  0
  9 21  2  0  0  0  0
 10 22  1  0  0  0  0
 11 12  2  0  0  0  0
 11 23  1  0  0  0  0
 12 24  1  0  0  0  0
 13 20  1  0  0  0  0
 13 22  2  0  0  0  0
 14 24  2  0  0  0  0
 14 25  1  0  0  0  0
 15 26  1  0  0  0  0
 16 26  1  0  0  0  0
 16 29  2  0  0  0  0
 16 31  1  0  0  0  0
 17 19  2  0  0  0  0
 17 39  1  0  0  0  0
 18 20  2  0  0  0  0
 18 40  1  0  0  0  0
 19 48  1  0  0  0  0
 20 41  1  0  0  0  0
 21 83  1  0  0  0  0
 22 84  1  0  0  0  0
 23 25  2  0  0  0  0
 23 83  1  0  0  0  0
 24 85  1  0  0  0  0
 25 86  1  0  0  0  0
 26 62  2  0  0  0  0
 27 28  2  0  0  0  0
 27 32  1  0  0  0  0
 27 87  1  0  0  0  0
 28 63  1  0  0  0  0
 28 67  1  0  0  0  0
 29 64  1  0  0  0  0
 29 68  1  0  0  0  0
 30 63  2  0  0  0  0
 30 70  1  0  0  0  0
 30 87  1  0  0  0  0
 31 69  1  0  0  0  0
 31 75  2  0  0  0  0
 32 71  1  0  0  0  0
 32 76  2  0  0  0  0
 33 49  1  0  0  0  0
 33 72  1  0  0  0  0
 33 77  2  0  0  0  0
 34 51  1  0  0  0  0
 34 58  1  0  0  0  0
 34 78  2  0  0  0  0
 35 57  1  0  0  0  0
 35 58  1  0  0  0  0
 35 79  2  0  0  0  0
 36 59  1  0  0  0  0
 36 65  1  0  0  0  0
 36 80  2  0  0  0  0
 37 60  1  0  0  0  0
 37 73  1  0  0  0  0
 37 81  2  0  0  0  0
 38 66  1  0  0  0  0
 38 70  1  0  0  0  0
 38 82  2  0  0  0  0
 39 42  1  0  0  0  0
 40 49  1  0  0  0  0
 41 65  1  0  0  0  0
 42 44  1  0  0  0  0
 43 45  1  0  0  0  0
 43 46  1  0  0  0  0
 44 48  1  0  0  0  0
 45 50  1  0  0  0  0
 46 66  1  0  0  0  0
 47 50  1  0  0  0  0
 47 66  1  0  0  0  0
 48 72  1  0  0  0  0
 49 65  1  0  0  0  0
 50 64  1  0  0  0  0
 52 60  1  0  0  0  0
 53 61  1  0  0  0  0
 54 61  1  0  0  0  0
 55 61  1  0  0  0  0
 56 74  1  0  0  0  0
 57 84  1  0  0  0  0
 58 71  1  0  0  0  0
 59 61  1  0  0  0  0
 59 73  1  0  0  0  0
 60 74  1  0  0  0  0
 62 64  1  0  0  0  0
M  CHG  1  74   1
M  ISO  4  38 100  57 101  70 100  84 101
M  END
> <Batch ID>
0174

> <Smiles>
CNC(C)C(=O)NC(C(=O)N1Cc2cc([101O:1][101CH2:1]C(=O)C(NC(=O)c3sc([100NH:0][100C:0](=O)N4CCCC(n5nc(-c6ccc(Oc7ccc(F)cc7F)cc6)c(C(N)=O)c5N)C4)nc3N)C(C)=O)ccc2CC1C(=O)NC1CCCc2ccccc21)C(C)(C)C

> <Shape>
0.294

> <Color>
0.162

> <Negative vol penalty>
0.000

$$$$

  -OEChem-04052304333D

 87 95  0     1  0  0  0  0  0999 V2000
  -28.1646  -23.6920   17.8772 C   0  0  0  0  0  0  0  0  0  0  0  0
  -26.9804  -23.9786   18.5489 C   0  0  0  0  0  0  0  0  0  0  0  0
  -26.5650  -12.6280   20.6088 C   0  0  0  0  0  0  0  0  0  0  0  0
  -24.5287  -13.8326   20.1193 C   0  0  0  0  0  0  0  0  0  0  0  0
  -29.3592  -24.2798   18.2910 C   0  0  0  0  0  0  0  0  0  0  0  0
  -26.9905  -24.8523   19.6356 C   0  0  0  0  0  0  0  0  0  0  0  0
  -23.1867  -28.1917   19.4787 C   0  0  0  0  0  0  0  0  0  0  0  0
  -25.8193  -11.4856   20.8993 C   0  0  0  0  0  0  0  0  0  0  0  0
  -23.7830  -12.6902   20.4098 C   0  0  0  0  0  0  0  0  0  0  0  0
  -21.9256  -27.7389   19.8637 C   0  0  0  0  0  0  0  0  0  0  0  0
  -23.9725  -10.3047   23.4720 C   0  0  0  0  0  0  0  0  0  0  0  0
  -24.3079   -9.5874   24.6204 C   0  0  0  0  0  0  0  0  0  0  0  0
  -22.2319  -28.7485   22.0330 C   0  0  0  0  0  0  0  0  0  0  0  0
  -24.9045  -22.4768   23.9824 C   0  0  0  0  0  0  0  0  0  0  0  0
  -23.6350  -21.6729   22.0906 C   0  0  0  0  0  0  0  0  0  0  0  0
  -24.7645   -7.6374   23.2690 C   0  0  0  0  0  0  0  0  0  0  0  0
  -25.9197  -13.8016   20.2188 C   0  0  0  0  0  0  0  0  0  0  0  0
  -22.6381  -23.2389   23.6368 C   0  0  0  0  0  0  0  0  0  0  0  0
  -27.2135  -15.3606   18.6686 C   0  0  0  0  0  0  0  0  0  0  0  0
  -29.3823  -25.1687   19.3773 C   0  0  0  0  0  0  0  0  0  0  0  0
  -23.9857  -28.9182   20.3731 C   0  0  0  0  0  0  0  0  0  0  0  0
  -28.1868  -25.4515   20.0652 C   0  0  0  0  0  0  0  0  0  0  0  0
  -23.5018  -29.2116   21.6560 C   0  0  0  0  0  0  0  0  0  0  0  0
  -24.8137  -21.6868   22.8365 C   0  0  0  0  0  0  0  0  0  0  0  0
  -24.4284  -11.5166   20.7998 C   0  0  0  0  0  0  0  0  0  0  0  0
  -21.4492  -28.0147   21.1420 C   0  0  0  0  0  0  0  0  0  0  0  0
  -24.0330   -9.6883   22.2222 C   0  0  0  0  0  0  0  0  0  0  0  0
  -24.7039   -8.2538   24.5189 C   0  0  0  0  0  0  0  0  0  0  0  0
  -23.8167  -23.2528   24.3827 C   0  0  0  0  0  0  0  0  0  0  0  0
  -22.5472  -22.4489   22.4908 C   0  0  0  0  0  0  0  0  0  0  0  0
  -24.4291   -8.3547   22.1207 C   0  0  0  0  0  0  0  0  0  0  0  0
  -26.6893  -14.9822   19.9192 C   0  0  0  0  0  0  0  0  0  0  0  0
  -27.8573  -16.5493   18.9115 C   0  0  0  0  0  0  0  0  0  0  0  0
  -21.4803  -24.0654   24.0632 C   0  0  0  0  0  0  0  0  0  0  0  0
  -27.1262  -14.6969   17.4007 C   0  0  0  0  0  0  0  0  0  0  0  0
  -26.8277  -28.4617   21.7218 C   0  0  0  0  0  0  0  0  0  0  0  0
  -26.3546  -31.4757   22.8237 C   0  0  0  0  0  0  0  0  0  0  0  0
  -19.5307  -25.3304   23.2227 C   0  0  0  0  0  0  0  0  0  0  0  0
  -24.1502  -33.9536   23.6288 C   0  0  0  0  0  0  0  0  0  0  0  0
  -27.1601  -20.7966   23.0563 C   0  0  0  0  0  0  0  0  0  0  0  0
  -30.7057  -25.7428   19.8175 C   0  0  0  0  0  0  0  0  0  0  0  0
  -25.3328  -29.4226   19.9334 C   0  0  0  0  0  0  0  0  0  0  0  0
  -24.3121  -30.0052   22.6470 C   0  0  0  0  0  0  0  0  0  0  0  0
  -30.5687  -26.9485   20.7437 C   0  0  0  0  0  0  0  0  0  0  0  0
  -30.1230  -18.9384   22.3890 C   0  0  0  0  0  0  0  0  0  0  0  0
  -29.5400  -26.6693   21.8349 C   0  0  0  0  0  0  0  0  0  0  0  0
  -29.6273  -17.7506   21.5610 C   0  0  0  0  0  0  0  0  0  0  0  0
  -29.1220  -19.3301   23.4746 C   0  0  0  0  0  0  0  0  0  0  0  0
  -27.2579  -18.3835   22.1714 C   0  0  0  0  0  0  0  0  0  0  0  0
  -28.1530  -26.4135   21.2330 C   0  0  1  0  0  0  0  0  0  0  0  0
  -26.2725  -29.7118   21.1000 C   0  0  1  0  0  0  0  0  0  0  0  0
  -28.2033  -17.9936   21.0235 C   0  0  2  0  0  0  0  0  0  0  0  0
  -17.5836  -26.4977   22.1829 C   0  0  0  0  0  0  0  0  0  0  0  0
  -24.0595  -36.2899   24.5403 C   0  0  0  0  0  0  0  0  0  0  0  0
  -26.8856  -30.3993   25.6290 C   0  0  0  0  0  0  0  0  0  0  0  0
  -25.8676  -32.4932   26.5496 C   0  0  0  0  0  0  0  0  0  0  0  0
  -27.9282  -32.6214   25.1496 C   0  0  0  0  0  0  0  0  0  0  0  0
  -22.8978  -34.9934   21.1571 C   0  0  0  0  0  0  0  0  0  0  0  0
  -19.7504  -26.3647   20.9238 C   0  0  0  0  0  0  0  0  0  1  0  0
  -25.7164  -32.0769   24.0527 C   0  0  1  0  0  0  0  0  0  0  0  0
  -18.8203  -25.6451   21.9030 C   0  0  1  0  0  0  0  0  0  0  0  0
  -24.1278  -35.4323   23.2862 C   0  0  2  0  0  0  0  0  0  0  0  0
  -26.5847  -31.8810   25.3274 C   0  0  0  0  0  0  0  0  0  0  0  0
  -26.9755  -15.8594   20.8849 N   0  0  0  0  0  0  0  0  0  0  0  0
  -27.6866  -16.8007   20.2411 N   0  0  0  0  0  0  0  0  0  0  0  0
  -25.6255  -30.4710   22.1720 N   0  0  0  0  0  0  0  0  0  0  0  0
  -27.7966  -19.5483   22.8910 N   0  0  0  0  0  0  0  0  0  0  0  0
  -28.5472  -17.3934   18.1154 N   0  0  0  0  0  0  0  0  0  0  0  0
  -26.4272  -13.4843   17.3280 N   0  0  0  0  0  0  0  0  0  0  0  0
  -25.9183  -20.8980   22.4299 N   0  0  0  0  0  0  0  0  0  0  0  0
  -20.6519  -24.5173   23.0374 N   0  0  0  0  0  0  0  0  0  0  0  0
  -27.5330  -27.6617   20.8432 N   0  0  0  0  0  0  0  0  0  0  0  0
  -25.4384  -33.4716   23.7275 N   0  0  0  0  0  0  0  0  0  0  0  0
  -22.9461  -35.7490   22.4353 N   0  3  0  0  0  0  0  0  0  0  0  0
  -21.3346  -24.3205   25.2555 O   0  0  0  0  0  0  0  0  0  0  0  0
  -27.6664  -15.1570   16.3663 O   0  0  0  0  0  0  0  0  0  0  0  0
  -26.6319  -28.2401   22.9110 O   0  0  0  0  0  0  0  0  0  0  0  0
  -27.4562  -31.8876   22.4515 O   0  0  0  0  0  0  0  0  0  0  0  0
  -19.1353  -25.7478   24.3089 O   0  0  0  0  0  0  0  0  0  0  0  0
  -23.1274  -33.2930   23.7959 O   0  0  0  0  0  0  0  0  0  0  0  0
  -27.6904  -21.7176   23.6827 O   0  0  0  0  0  0  0  0  0  0  0  0
  -23.7005  -10.4019   21.0830 O   0  0  0  0  0  0  0  0  0  0  0  0
  -20.2188  -27.5733   21.5205 O   0  0  0  0  0  0  0  0  0  1  0  0
  -25.0275   -7.5657   25.6215 F   0  0  0  0  0  0  0  0  0  0  0  0
  -23.9154  -24.0079   25.4861 F   0  0  0  0  0  0  0  0  0  0  0  0
  -21.4197  -22.4285   21.7653 F   0  0  0  0  0  0  0  0  0  0  0  0
  -24.4903   -7.7575   20.9226 F   0  0  0  0  0  0  0  0  0  0  0  0
  1  2  1  0  0  0  0
  1  5  2  0  0  0  0
  2  6  2  0  0  0  0
  3  8  2  0  0  0  0
  3 17  1  0  0  0  0
  4  9  1  0  0  0  0
  4 17  2  0  0  0  0
  5 20  1  0  0  0  0
  6 22  1  0  0  0  0
  7 10  2  0  0  0  0
  7 21  1  0  0  0  0
  8 25  1  0  0  0  0
  9 25  2  0  0  0  0
 10 26  1  0  0  0  0
 11 12  2  0  0  0  0
 11 27  1  0  0  0  0
 12 28  1  0  0  0  0
 13 23  1  0  0  0  0
 13 26  2  0  0  0  0
 14 24  1  0  0  0  0
 14 29  2  0  0  0  0
 15 24  2  0  0  0  0
 15 30  1  0  0  0  0
 16 28  2  0  0  0  0
 16 31  1  0  0  0  0
 17 32  1  0  0  0  0
 18 29  1  0  0  0  0
 18 30  2  0  0  0  0
 18 34  1  0  0  0  0
 19 32  1  0  0  0  0
 19 33  2  0  0  0  0
 19 35  1  0  0  0  0
 20 22  2  0  0  0  0
 20 41  1  0  0  0  0
 21 23  2  0  0  0  0
 21 42  1  0  0  0  0
 22 50  1  0  0  0  0
 23 43  1  0  0  0  0
 24 70  1  0  0  0  0
 25 82  1  0  0  0  0
 26 83  1  0  0  0  0
 27 31  2  0  0  0  0
 27 82  1  0  0  0  0
 28 84  1  0  0  0  0
 29 85  1  0  0  0  0
 30 86  1  0  0  0  0
 31 87  1  0  0  0  0
 32 64  2  0  0  0  0
 33 65  1  0  0  0  0
 33 68  1  0  0  0  0
 34 71  1  0  0  0  0
 34 75  2  0  0  0  0
 35 69  1  0  0  0  0
 35 76  2  0  0  0  0
 36 51  1  0  0  0  0
 36 72  1  0  0  0  0
 36 77  2  0  0  0  0
 37 60  1  0  0  0  0
 37 66  1  0  0  0  0
 37 78  2  0  0  0  0
 38 61  1  0  0  0  0
 38 71  1  0  0  0  0
 38 79  2  0  0  0  0
 39 62  1  0  0  0  0
 39 73  1  0  0  0  0
 39 80  2  0  0  0  0
 40 67  1  0  0  0  0
 40 70  1  0  0  0  0
 40 81  2  0  0  0  0
 41 44  1  0  0  0  0
 42 51  1  0  0  0  0
 43 66  1  0  0  0  0
 44 46  1  0  0  0  0
 45 47  1  0  0  0  0
 45 48  1  0  0  0  0
 46 50  1  0  0  0  0
 47 52  1  0  0  0  0
 48 67  1  0  0  0  0
 49 52  1  0  0  0  0
 49 67  1  0  0  0  0
 50 72  1  0  0  0  0
 51 66  1  0  0  0  0
 52 65  1  0  0  0  0
 53 61  1  0  0  0  0
 54 62  1  0  0  0  0
 55 63  1  0  0  0  0
 56 63  1  0  0  0  0
 57 63  1  0  0  0  0
 58 74  1  0  0  0  0
 59 61  1  0  0  0  0
 59 83  1  0  0  0  0
 60 63  1  0  0  0  0
 60 73  1  0  0  0  0
 62 74  1  0  0  0  0
 64 65  1  0  0  0  0
M  CHG  1  74   1
M  ISO  4  40 100  59 101  70 100  83 101
M  END
> <Batch ID>
0174

> <Smiles>
CNC(C)C(=O)NC(C(=O)N1Cc2cc([101O:1][101CH2:1]C(C)C(=O)NC(=O)c3c(F)cc([100NH:0][100C:0](=O)N4CCCC(n5nc(-c6ccc(Oc7ccc(F)cc7F)cc6)c(C(N)=O)c5N)C4)cc3F)ccc2CC1C(=O)NC1CCCc2ccccc21)C(C)(C)C

> <Shape>
0.289

> <Color>
0.061

> <Negative vol penalty>
0.000

$$$$

  -OEChem-04052304333D

 85 93  0     1  0  0  0  0  0999 V2000
  -17.4378  -26.5712   18.5004 C   0  0  0  0  0  0  0  0  0  0  0  0
  -17.3611  -25.2276   18.1478 C   0  0  0  0  0  0  0  0  0  0  0  0
  -26.3738  -28.3428   19.0528 C   0  0  0  0  0  0  0  0  0  0  0  0
  -25.9338  -27.0926   21.0728 C   0  0  0  0  0  0  0  0  0  0  0  0
  -18.4907  -27.0232   19.2948 C   0  0  0  0  0  0  0  0  0  0  0  0
  -18.3380  -24.3354   18.5885 C   0  0  0  0  0  0  0  0  0  0  0  0
  -19.1716  -17.5028   20.5726 C   0  0  0  0  0  0  0  0  0  0  0  0
  -29.4518  -18.9305   21.8742 C   0  0  0  0  0  0  0  0  0  0  0  0
  -25.3378  -29.2210   19.3706 C   0  0  0  0  0  0  0  0  0  0  0  0
  -24.8978  -27.9709   21.3906 C   0  0  0  0  0  0  0  0  0  0  0  0
  -19.9632  -16.3894   20.2944 C   0  0  0  0  0  0  0  0  0  0  0  0
  -24.5747  -31.0679   22.7040 C   0  0  0  0  0  0  0  0  0  0  0  0
  -29.4235  -17.8681   22.7775 C   0  0  0  0  0  0  0  0  0  0  0  0
  -24.4990  -31.5299   24.0179 C   0  0  0  0  0  0  0  0  0  0  0  0
  -21.6929  -17.2685   21.7278 C   0  0  0  0  0  0  0  0  0  0  0  0
  -28.5688  -17.4876   20.1493 C   0  0  0  0  0  0  0  0  0  0  0  0
  -22.2978  -30.5574   24.2329 C   0  0  0  0  0  0  0  0  0  0  0  0
  -26.6718  -27.2786   19.9038 C   0  0  0  0  0  0  0  0  0  0  0  0
  -29.0960  -26.4851   19.9419 C   0  0  0  0  0  0  0  0  0  0  0  0
  -19.4757  -26.1343   19.7535 C   0  0  0  0  0  0  0  0  0  0  0  0
  -19.6399  -18.5144   21.4233 C   0  0  0  0  0  0  0  0  0  0  0  0
  -19.4057  -24.7762   19.3887 C   0  0  0  0  0  0  0  0  0  0  0  0
  -20.9042  -18.3925   22.0172 C   0  0  0  0  0  0  0  0  0  0  0  0
  -28.5406  -16.4251   21.0526 C   0  0  0  0  0  0  0  0  0  0  0  0
  -29.0244  -18.7403   20.5601 C   0  0  0  0  0  0  0  0  0  0  0  0
  -24.5998  -29.0351   20.5395 C   0  0  0  0  0  0  0  0  0  0  0  0
  -21.2252  -16.2735   20.8698 C   0  0  0  0  0  0  0  0  0  0  0  0
  -23.5120  -30.3507   22.1545 C   0  0  0  0  0  0  0  0  0  0  0  0
  -23.3606  -31.2747   24.7824 C   0  0  0  0  0  0  0  0  0  0  0  0
  -28.9680  -16.6153   22.3667 C   0  0  0  0  0  0  0  0  0  0  0  0
  -22.3735  -30.0955   22.9190 C   0  0  0  0  0  0  0  0  0  0  0  0
  -27.7415  -26.3707   19.5758 C   0  0  0  0  0  0  0  0  0  0  0  0
  -29.6956  -25.3798   19.3894 C   0  0  0  0  0  0  0  0  0  0  0  0
  -26.6502  -14.8209   21.1002 C   0  0  0  0  0  0  0  0  0  0  0  0
  -29.7534  -27.4998   20.7126 C   0  0  0  0  0  0  0  0  0  0  0  0
  -20.2696  -21.6122   21.0904 C   0  0  0  0  0  0  0  0  0  0  0  0
  -24.3774  -14.9289   20.9023 C   0  0  0  0  0  0  0  0  0  0  0  0
  -20.7484  -21.4610   24.2951 C   0  0  0  0  0  0  0  0  0  0  0  0
  -21.5196  -19.5604   27.0227 C   0  0  0  0  0  0  0  0  0  0  0  0
  -28.6640  -19.8015   18.3039 C   0  0  0  0  0  0  0  0  0  0  0  0
  -20.6206  -26.6782   20.5707 C   0  0  0  0  0  0  0  0  0  0  0  0
  -18.7629  -19.6962   21.7345 C   0  0  0  0  0  0  0  0  0  0  0  0
  -21.4451  -19.4411   22.9534 C   0  0  0  0  0  0  0  0  0  0  0  0
  -21.4100  -25.5990   21.3071 C   0  0  0  0  0  0  0  0  0  0  0  0
  -28.5467  -22.2564   15.7278 C   0  0  0  0  0  0  0  0  0  0  0  0
  -21.7208  -24.4338   20.3730 C   0  0  0  0  0  0  0  0  0  0  0  0
  -28.4596  -23.5797   16.4916 C   0  0  0  0  0  0  0  0  0  0  0  0
  -27.7577  -21.1477   16.4221 C   0  0  0  0  0  0  0  0  0  0  0  0
  -28.0000  -22.2684   18.6026 C   0  0  0  0  0  0  0  0  0  0  0  0
  -20.4326  -23.7731   19.8677 C   0  0  1  0  0  0  0  0  0  0  0  0
  -19.5486  -20.9148   22.2090 C   0  0  1  0  0  0  0  0  0  0  0  0
  -28.8324  -23.3990   17.9762 C   0  0  2  0  0  0  0  0  0  0  0  0
  -23.2931  -14.7091   18.6501 C   0  0  0  0  0  0  0  0  0  0  0  0
  -21.8728  -19.7243   29.5018 C   0  0  0  0  0  0  0  0  0  0  0  0
  -23.4866  -22.7203   23.8193 C   0  0  0  0  0  0  0  0  0  0  0  0
  -24.1442  -21.9925   26.1228 C   0  0  0  0  0  0  0  0  0  0  0  0
  -22.2647  -23.6034   25.8147 C   0  0  0  0  0  0  0  0  0  0  0  0
  -19.2905  -17.6952   27.5806 C   0  0  0  0  0  0  0  0  0  0  0  0
  -28.0478  -15.0751   20.6078 C   0  0  0  0  0  0  0  0  0  0  0  0
  -23.2665  -15.4303   19.9876 C   0  0  1  0  0  0  0  0  0  1  0  0
  -21.9329  -21.1769   25.1869 C   0  0  1  0  0  0  0  0  0  0  0  0
  -20.8707  -19.4517   28.3908 C   0  0  2  0  0  0  0  0  0  0  0  0
  -22.9480  -22.3543   25.2168 C   0  0  0  0  0  0  0  0  0  0  0  0
  -27.4948  -25.2789   18.8469 N   0  0  0  0  0  0  0  0  0  0  0  0
  -25.6333  -15.2034   20.4022 N   0  0  0  0  0  0  0  0  0  0  0  0
  -28.7025  -24.6973   18.7506 N   0  0  0  0  0  0  0  0  0  0  0  0
  -20.5525  -20.5808   23.2214 N   0  0  0  0  0  0  0  0  0  0  0  0
  -28.1672  -21.0316   17.8234 N   0  0  0  0  0  0  0  0  0  0  0  0
  -30.9701  -24.9349   19.3926 N   0  0  0  0  0  0  0  0  0  0  0  0
  -28.9881  -28.5659   21.2048 N   0  0  0  0  0  0  0  0  0  0  0  0
  -29.0524  -19.8202   19.6431 N   0  0  0  0  0  0  0  0  0  0  0  0
  -19.8678  -22.9192   20.8905 N   0  0  0  0  0  0  0  0  0  0  0  0
  -21.3857  -20.8264   26.4931 N   0  0  0  0  0  0  0  0  0  0  0  0
  -20.3078  -18.0863   28.5902 N   0  3  0  0  0  0  0  0  0  0  0  0
  -30.9860  -27.4708   20.9436 O   0  0  0  0  0  0  0  0  0  0  0  0
  -21.1281  -21.0098   20.4565 O   0  0  0  0  0  0  0  0  0  0  0  0
  -24.1266  -14.3799   21.9737 O   0  0  0  0  0  0  0  0  0  0  0  0
  -20.0195  -22.4239   24.5463 O   0  0  0  0  0  0  0  0  0  0  0  0
  -22.0915  -18.6176   26.4800 O   0  0  0  0  0  0  0  0  0  0  0  0
  -28.7647  -18.8124   17.5735 O   0  0  0  0  0  0  0  0  0  0  0  0
  -23.5890  -29.8920   20.8501 O   0  0  0  0  0  0  0  0  0  0  0  0
  -22.0002  -15.1881   20.5994 O   0  0  0  0  0  0  0  0  0  1  0  0
  -23.2886  -31.7170   26.0446 F   0  0  0  0  0  0  0  0  0  0  0  0
  -28.9458  -15.6002   23.2416 F   0  0  0  0  0  0  0  0  0  0  0  0
  -21.3498  -29.4060   22.3969 F   0  0  0  0  0  0  0  0  0  0  0  0
  1  2  1  0  0  0  0
  1  5  2  0  0  0  0
  2  6  2  0  0  0  0
  3  9  2  0  0  0  0
  3 18  1  0  0  0  0
  4 10  1  0  0  0  0
  4 18  2  0  0  0  0
  5 20  1  0  0  0  0
  6 22  1  0  0  0  0
  7 11  2  0  0  0  0
  7 21  1  0  0  0  0
  8 13  2  0  0  0  0
  8 25  1  0  0  0  0
  9 26  1  0  0  0  0
 10 26  2  0  0  0  0
 11 27  1  0  0  0  0
 12 14  2  0  0  0  0
 12 28  1  0  0  0  0
 13 30  1  0  0  0  0
 14 29  1  0  0  0  0
 15 23  1  0  0  0  0
 15 27  2  0  0  0  0
 16 24  1  0  0  0  0
 16 25  2  0  0  0  0
 17 29  2  0  0  0  0
 17 31  1  0  0  0  0
 18 32  1  0  0  0  0
 19 32  1  0  0  0  0
 19 33  2  0  0  0  0
 19 35  1  0  0  0  0
 20 22  2  0  0  0  0
 20 41  1  0  0  0  0
 21 23  2  0  0  0  0
 21 42  1  0  0  0  0
 22 50  1  0  0  0  0
 23 43  1  0  0  0  0
 24 30  2  0  0  0  0
 24 59  1  0  0  0  0
 25 71  1  0  0  0  0
 26 81  1  0  0  0  0
 27 82  1  0  0  0  0
 28 31  2  0  0  0  0
 28 81  1  0  0  0  0
 29 83  1  0  0  0  0
 30 84  1  0  0  0  0
 31 85  1  0  0  0  0
 32 64  2  0  0  0  0
 33 66  1  0  0  0  0
 33 69  1  0  0  0  0
 34 59  1  0  0  0  0
 34 65  2  0  0  0  0
 35 70  1  0  0  0  0
 35 75  2  0  0  0  0
 36 51  1  0  0  0  0
 36 72  1  0  0  0  0
 36 76  2  0  0  0  0
 37 60  1  0  0  0  0
 37 65  1  0  0  0  0
 37 77  2  0  0  0  0
 38 61  1  0  0  0  0
 38 67  1  0  0  0  0
 38 78  2  0  0  0  0
 39 62  1  0  0  0  0
 39 73  1  0  0  0  0
 39 79  2  0  0  0  0
 40 68  1  0  0  0  0
 40 71  1  0  0  0  0
 40 80  2  0  0  0  0
 41 44  1  0  0  0  0
 42 51  1  0  0  0  0
 43 67  1  0  0  0  0
 44 46  1  0  0  0  0
 45 47  1  0  0  0  0
 45 48  1  0  0  0  0
 46 50  1  0  0  0  0
 47 52  1  0  0  0  0
 48 68  1  0  0  0  0
 49 52  1  0  0  0  0
 49 68  1  0  0  0  0
 50 72  1  0  0  0  0
 51 67  1  0  0  0  0
 52 66  1  0  0  0  0
 53 60  1  0  0  0  0
 54 62  1  0  0  0  0
 55 63  1  0  0  0  0
 56 63  1  0  0  0  0
 57 63  1  0  0  0  0
 58 74  1  0  0  0  0
 60 82  1  0  0  0  0
 61 63  1  0  0  0  0
 61 73  1  0  0  0  0
 62 74  1  0  0  0  0
 64 66  1  0  0  0  0
M  CHG  1  74   1
M  ISO  4  40 100  60 101  71 100  82 101
M  END
> <Batch ID>
0174

> <Smiles>
CNC(C)C(=O)NC(C(=O)N1Cc2cc([101O:1][101CH:1](C)C(=O)NC=Cc3cc([100NH:0][100C:0](=O)N4CCCC(n5nc(-c6ccc(Oc7ccc(F)cc7F)cc6)c(C(N)=O)c5N)C4)ccc3F)ccc2CC1C(=O)NC1CCCc2ccccc21)C(C)(C)C

> <Shape>
0.186

> <Color>
0.079

> <Negative vol penalty>
0.000

$$$$

  -OEChem-04052304333D

 86 94  0     1  0  0  0  0  0999 V2000
  -35.1104  -31.0413   27.6089 C   0  0  0  0  0  0  0  0  0  0  0  0
  -33.8664  -30.8077   28.1864 C   0  0  0  0  0  0  0  0  0  0  0  0
  -23.0798   -9.8569   19.9536 C   0  0  0  0  0  0  0  0  0  0  0  0
  -23.8306   -9.8880   22.2498 C   0  0  0  0  0  0  0  0  0  0  0  0
  -35.2119  -31.2447   26.2333 C   0  0  0  0  0  0  0  0  0  0  0  0
  -32.7231  -30.7784   27.3887 C   0  0  0  0  0  0  0  0  0  0  0  0
  -27.3473  -25.1717   26.5567 C   0  0  0  0  0  0  0  0  0  0  0  0
  -22.3354   -8.7061   20.2126 C   0  0  0  0  0  0  0  0  0  0  0  0
  -23.0861   -8.7372   22.5088 C   0  0  0  0  0  0  0  0  0  0  0  0
  -26.4190  -24.1910   26.2065 C   0  0  0  0  0  0  0  0  0  0  0  0
  -19.8559   -7.9443   23.1067 C   0  0  0  0  0  0  0  0  0  0  0  0
  -19.0943   -7.9162   24.2749 C   0  0  0  0  0  0  0  0  0  0  0  0
  -26.1431  -25.2135   24.0324 C   0  0  0  0  0  0  0  0  0  0  0  0
  -20.3335   -5.9870   25.0364 C   0  0  0  0  0  0  0  0  0  0  0  0
  -31.1233  -17.7410   20.5934 C   0  0  0  0  0  0  0  0  0  0  0  0
  -23.8275  -10.4479   20.9723 C   0  0  0  0  0  0  0  0  0  0  0  0
  -24.1688  -12.9718   20.8274 C   0  0  0  0  0  0  0  0  0  0  0  0
  -34.0704  -31.2083   25.4170 C   0  0  0  0  0  0  0  0  0  0  0  0
  -27.6889  -26.1693   25.6394 C   0  0  0  0  0  0  0  0  0  0  0  0
  -32.8093  -30.9828   26.0011 C   0  0  0  0  0  0  0  0  0  0  0  0
  -27.0816  -26.1912   24.3731 C   0  0  0  0  0  0  0  0  0  0  0  0
  -30.2460  -17.1077   21.4460 C   0  0  0  0  0  0  0  0  0  0  0  0
  -29.5590  -18.0291   22.2881 C   0  0  0  0  0  0  0  0  0  0  0  0
  -22.3385   -8.1463   21.4901 C   0  0  0  0  0  0  0  0  0  0  0  0
  -25.8182  -24.2121   24.9475 C   0  0  0  0  0  0  0  0  0  0  0  0
  -20.8563   -6.9937   22.9032 C   0  0  0  0  0  0  0  0  0  0  0  0
  -19.3331   -6.9375   25.2398 C   0  0  0  0  0  0  0  0  0  0  0  0
  -21.0951   -6.0151   23.8681 C   0  0  0  0  0  0  0  0  0  0  0  0
  -24.5971  -11.6363   20.7053 C   0  0  0  0  0  0  0  0  0  0  0  0
  -29.9376  -19.3316   22.0472 C   0  0  0  0  0  0  0  0  0  0  0  0
  -25.2621  -13.7179   20.4608 C   0  0  0  0  0  0  0  0  0  0  0  0
  -22.8965  -13.4914   21.2359 C   0  0  0  0  0  0  0  0  0  0  0  0
  -29.7528  -29.2164   24.9101 C   0  0  0  0  0  0  0  0  0  0  0  0
  -29.7497  -27.5110   22.3602 C   0  0  0  0  0  0  0  0  0  0  0  0
  -27.4904  -22.0976   22.3922 C   0  0  0  0  0  0  0  0  0  0  0  0
  -29.8448  -25.1473   19.9023 C   0  0  0  0  0  0  0  0  0  0  0  0
  -30.7271  -14.7677   20.6463 C   0  0  0  0  0  0  0  0  0  0  0  0
  -34.2240  -31.4808   23.9416 C   0  0  0  0  0  0  0  0  0  0  0  0
  -28.6378  -27.2812   25.9958 C   0  0  0  0  0  0  0  0  0  0  0  0
  -27.4539  -27.3035   23.4312 C   0  0  0  0  0  0  0  0  0  0  0  0
  -33.0108  -31.0618   23.1153 C   0  0  0  0  0  0  0  0  0  0  0  0
  -29.6232  -12.3288   18.2989 C   0  0  0  0  0  0  0  0  0  0  0  0
  -31.7229  -31.5432   23.7759 C   0  0  0  0  0  0  0  0  0  0  0  0
  -28.1819  -12.0411   18.7258 C   0  0  0  0  0  0  0  0  0  0  0  0
  -30.5334  -12.5706   19.5017 C   0  0  0  0  0  0  0  0  0  0  0  0
  -28.6206  -13.3086   20.8677 C   0  0  0  0  0  0  0  0  0  0  0  0
  -31.5490  -30.9190   25.1657 C   0  0  1  0  0  0  0  0  0  0  0  0
  -29.5027  -27.7404   24.8082 C   0  0  1  0  0  0  0  0  0  0  0  0
  -27.6526  -13.1226   19.6879 C   0  0  2  0  0  0  0  0  0  0  0  0
  -29.7388  -20.6183   24.2144 C   0  0  0  0  0  0  0  0  0  0  0  0
  -30.5334  -24.0487   17.7538 C   0  0  0  0  0  0  0  0  0  0  0  0
  -24.5815  -21.1229   25.6655 C   0  0  0  0  0  0  0  0  0  0  0  0
  -27.6180  -29.3375   21.1669 C   0  0  0  0  0  0  0  0  0  0  0  0
  -27.9489  -28.1737   18.9750 C   0  0  0  0  0  0  0  0  0  0  0  0
  -29.8359  -29.4307   20.0151 C   0  0  0  0  0  0  0  0  0  0  0  0
  -32.1571  -23.8199   21.1871 C   0  0  0  0  0  0  0  0  0  0  0  0
  -25.9928  -22.0315   22.1414 C   0  0  0  0  0  0  0  0  0  0  0  0
  -25.2216  -21.2770   23.2271 C   0  0  0  0  0  0  0  0  0  0  0  0
  -29.4573  -20.6029   22.7134 C   0  0  2  0  0  0  0  0  0  0  0  0
  -29.1051  -27.2316   21.0260 C   0  0  1  0  0  0  0  0  0  0  0  0
  -30.9997  -24.5694   19.1044 C   0  0  2  0  0  0  0  0  0  0  0  0
  -25.3752  -21.8980   24.6218 C   0  0  1  0  0  0  0  0  0  1  0  0
  -28.6200  -28.5286   20.3191 C   0  0  0  0  0  0  0  0  0  0  0  0
  -25.8637  -11.5367   20.2930 N   0  0  0  0  0  0  0  0  0  0  0  0
  -26.2406  -12.8190   20.1529 N   0  0  0  0  0  0  0  0  0  0  0  0
  -28.9060  -27.5359   23.4774 N   0  0  0  0  0  0  0  0  0  0  0  0
  -29.9705  -13.6103   20.3661 N   0  0  0  0  0  0  0  0  0  0  0  0
  -28.6399  -17.6741   23.2184 N   0  0  0  0  0  0  0  0  0  0  0  0
  -25.4723  -15.0486   20.3748 N   0  0  0  0  0  0  0  0  0  0  0  0
  -21.8836  -12.5853   21.5786 N   0  0  0  0  0  0  0  0  0  0  0  0
  -30.0761  -15.7010   21.4524 N   0  0  0  0  0  0  0  0  0  0  0  0
  -31.0855  -29.5527   25.0517 N   0  0  0  0  0  0  0  0  0  0  0  0
  -28.0536  -20.8314   22.4569 N   0  0  0  0  0  0  0  0  0  0  0  0
  -30.0755  -26.4594   20.2576 N   0  0  0  0  0  0  0  0  0  0  0  0
  -31.6321  -23.4440   19.8491 N   0  3  0  0  0  0  0  0  0  0  0  0
  -22.6595  -14.7224   21.2796 O   0  0  0  0  0  0  0  0  0  0  0  0
  -28.8070  -29.9941   24.8622 O   0  0  0  0  0  0  0  0  0  0  0  0
  -30.9670  -27.7078   22.4125 O   0  0  0  0  0  0  0  0  0  0  0  0
  -28.1012  -23.1524   22.5414 O   0  0  0  0  0  0  0  0  0  0  0  0
  -28.8371  -24.5005   20.1793 O   0  0  0  0  0  0  0  0  0  0  0  0
  -31.8580  -14.9321   20.1814 O   0  0  0  0  0  0  0  0  0  0  0  0
  -21.6120   -7.0234   21.7432 O   0  0  0  0  0  0  0  0  0  0  0  0
  -24.9162  -23.2491   24.6104 O   0  0  0  0  0  0  0  0  0  1  0  0
  -18.6027   -6.9116   26.3623 F   0  0  0  0  0  0  0  0  0  0  0  0
  -22.0556   -5.1000   23.6787 F   0  0  0  0  0  0  0  0  0  0  0  0
  -31.1165  -19.4396   20.8099 S   0  0  0  0  0  0  0  0  0  0  0  0
  1  2  1  0  0  0  0
  1  5  2  0  0  0  0
  2  6  2  0  0  0  0
  3  8  2  0  0  0  0
  3 16  1  0  0  0  0
  4  9  1  0  0  0  0
  4 16  2  0  0  0  0
  5 18  1  0  0  0  0
  6 20  1  0  0  0  0
  7 10  2  0  0  0  0
  7 19  1  0  0  0  0
  8 24  1  0  0  0  0
  9 24  2  0  0  0  0
 10 25  1  0  0  0  0
 11 12  2  0  0  0  0
 11 26  1  0  0  0  0
 12 27  1  0  0  0  0
 13 21  1  0  0  0  0
 13 25  2  0  0  0  0
 14 27  2  0  0  0  0
 14 28  1  0  0  0  0
 15 22  2  0  0  0  0
 15 86  1  0  0  0  0
 16 29  1  0  0  0  0
 17 29  1  0  0  0  0
 17 31  2  0  0  0  0
 17 32  1  0  0  0  0
 18 20  2  0  0  0  0
 18 38  1  0  0  0  0
 19 21  2  0  0  0  0
 19 39  1  0  0  0  0
 20 47  1  0  0  0  0
 21 40  1  0  0  0  0
 22 23  1  0  0  0  0
 22 71  1  0  0  0  0
 23 30  2  0  0  0  0
 23 68  1  0  0  0  0
 24 82  1  0  0  0  0
 25 83  1  0  0  0  0
 26 28  2  0  0  0  0
 26 82  1  0  0  0  0
 27 84  1  0  0  0  0
 28 85  1  0  0  0  0
 29 64  2  0  0  0  0
 30 59  1  0  0  0  0
 30 86  1  0  0  0  0
 31 65  1  0  0  0  0
 31 69  1  0  0  0  0
 32 70  1  0  0  0  0
 32 76  2  0  0  0  0
 33 48  1  0  0  0  0
 33 72  1  0  0  0  0
 33 77  2  0  0  0  0
 34 60  1  0  0  0  0
 34 66  1  0  0  0  0
 34 78  2  0  0  0  0
 35 57  1  0  0  0  0
 35 73  1  0  0  0  0
 35 79  2  0  0  0  0
 36 61  1  0  0  0  0
 36 74  1  0  0  0  0
 36 80  2  0  0  0  0
 37 67  1  0  0  0  0
 37 71  1  0  0  0  0
 37 81  2  0  0  0  0
 38 41  1  0  0  0  0
 39 48  1  0  0  0  0
 40 66  1  0  0  0  0
 41 43  1  0  0  0  0
 42 44  1  0  0  0  0
 42 45  1  0  0  0  0
 43 47  1  0  0  0  0
 44 49  1  0  0  0  0
 45 67  1  0  0  0  0
 46 49  1  0  0  0  0
 46 67  1  0  0  0  0
 47 72  1  0  0  0  0
 48 66  1  0  0  0  0
 49 65  1  0  0  0  0
 50 59  1  0  0  0  0
 51 61  1  0  0  0  0
 52 62  1  0  0  0  0
 53 63  1  0  0  0  0
 54 63  1  0  0  0  0
 55 63  1  0  0  0  0
 56 75  1  0  0  0  0
 57 58  1  0  0  0  0
 58 62  1  0  0  0  0
 59 73  1  0  0  0  0
 60 63  1  0  0  0  0
 60 74  1  0  0  0  0
 61 75  1  0  0  0  0
 62 83  1  0  0  0  0
 64 65  1  0  0  0  0
M  CHG  1  75   1
M  ISO  4  37 100  62 101  71 100  83 101
M  END
> <Batch ID>
0174

> <Smiles>
CNC(C)C(=O)NC(C(=O)N1Cc2cc([101O:1][101CH:1](C)CCC(=O)NC(C)c3scc([100NH:0][100C:0](=O)N4CCCC(n5nc(-c6ccc(Oc7ccc(F)cc7F)cc6)c(C(N)=O)c5N)C4)c3N)ccc2CC1C(=O)NC1CCCc2ccccc21)C(C)(C)C

> <Shape>
0.246

> <Color>
0.184

> <Negative vol penalty>
0.000

$$$$

  -OEChem-04052304333D

 85 93  0     1  0  0  0  0  0999 V2000
  -38.9531  -18.9520   17.1455 C   0  0  0  0  0  0  0  0  0  0  0  0
  -37.6628  -18.9547   17.6657 C   0  0  0  0  0  0  0  0  0  0  0  0
  -23.0768   -9.8626   19.9437 C   0  0  0  0  0  0  0  0  0  0  0  0
  -23.8352   -9.8765   22.2375 C   0  0  0  0  0  0  0  0  0  0  0  0
  -39.8461  -19.9644   17.4940 C   0  0  0  0  0  0  0  0  0  0  0  0
  -37.2652  -19.9693   18.5357 C   0  0  0  0  0  0  0  0  0  0  0  0
  -31.6943  -22.4765   18.9662 C   0  0  0  0  0  0  0  0  0  0  0  0
  -22.3341   -8.7093   20.1962 C   0  0  0  0  0  0  0  0  0  0  0  0
  -23.0925   -8.7231   22.4900 C   0  0  0  0  0  0  0  0  0  0  0  0
  -30.6308  -22.2546   19.8400 C   0  0  0  0  0  0  0  0  0  0  0  0
  -19.8649   -7.9230   23.0926 C   0  0  0  0  0  0  0  0  0  0  0  0
  -19.1073   -7.8852   24.2631 C   0  0  0  0  0  0  0  0  0  0  0  0
  -31.3696  -24.1052   21.1996 C   0  0  0  0  0  0  0  0  0  0  0  0
  -20.3505   -5.9512   25.0054 C   0  0  0  0  0  0  0  0  0  0  0  0
  -23.8274  -10.4462   20.9643 C   0  0  0  0  0  0  0  0  0  0  0  0
  -24.1662  -12.9715   20.8379 C   0  0  0  0  0  0  0  0  0  0  0  0
  -39.4562  -20.9972   18.3611 C   0  0  0  0  0  0  0  0  0  0  0  0
  -32.6113  -23.5093   19.2088 C   0  0  0  0  0  0  0  0  0  0  0  0
  -38.1542  -20.9957   18.8973 C   0  0  0  0  0  0  0  0  0  0  0  0
  -32.4424  -24.3398   20.3259 C   0  0  0  0  0  0  0  0  0  0  0  0
  -22.3420   -8.1395   21.4693 C   0  0  0  0  0  0  0  0  0  0  0  0
  -30.4700  -23.0672   20.9584 C   0  0  0  0  0  0  0  0  0  0  0  0
  -20.8653   -6.9748   22.8784 C   0  0  0  0  0  0  0  0  0  0  0  0
  -19.3501   -6.8994   25.2195 C   0  0  0  0  0  0  0  0  0  0  0  0
  -21.1081   -5.9890   23.8348 C   0  0  0  0  0  0  0  0  0  0  0  0
  -24.5952  -11.6374   20.7040 C   0  0  0  0  0  0  0  0  0  0  0  0
  -30.6980  -19.1064   22.9754 C   0  0  0  0  0  0  0  0  0  0  0  0
  -31.8007  -18.7375   22.2338 C   0  0  0  0  0  0  0  0  0  0  0  0
  -25.2577  -13.7213   20.4734 C   0  0  0  0  0  0  0  0  0  0  0  0
  -30.5647  -16.9579   21.8944 C   0  0  0  0  0  0  0  0  0  0  0  0
  -22.8949  -13.4869   21.2547 C   0  0  0  0  0  0  0  0  0  0  0  0
  -30.4264  -20.3413   23.7679 C   0  0  0  0  0  0  0  0  0  0  0  0
  -35.7358  -23.6475   19.7760 C   0  0  0  0  0  0  0  0  0  0  0  0
  -35.2342  -26.8465   19.5840 C   0  0  0  0  0  0  0  0  0  0  0  0
  -33.0521  -29.4577   19.8434 C   0  0  0  0  0  0  0  0  0  0  0  0
  -30.7226  -14.7738   20.6489 C   0  0  0  0  0  0  0  0  0  0  0  0
  -40.4714  -22.0439   18.7462 C   0  0  0  0  0  0  0  0  0  0  0  0
  -33.7377  -23.7524   18.2422 C   0  0  0  0  0  0  0  0  0  0  0  0
  -33.3876  -25.4748   20.6203 C   0  0  0  0  0  0  0  0  0  0  0  0
  -39.8535  -23.2882   19.3789 C   0  0  0  0  0  0  0  0  0  0  0  0
  -29.6125  -12.3527   18.2861 C   0  0  0  0  0  0  0  0  0  0  0  0
  -38.8303  -22.8954   20.4399 C   0  0  0  0  0  0  0  0  0  0  0  0
  -28.1730  -12.0605   18.7156 C   0  0  0  0  0  0  0  0  0  0  0  0
  -30.5266  -12.5856   19.4878 C   0  0  0  0  0  0  0  0  0  0  0  0
  -28.6179  -13.3113   20.8660 C   0  0  0  0  0  0  0  0  0  0  0  0
  -37.6778  -22.0927   19.8245 C   0  0  1  0  0  0  0  0  0  0  0  0
  -34.9071  -24.5086   18.8654 C   0  0  1  0  0  0  0  0  0  0  0  0
  -27.6461  -13.1339   19.6880 C   0  0  2  0  0  0  0  0  0  0  0  0
  -32.9430  -31.9586   19.6674 C   0  0  0  0  0  0  0  0  0  0  0  0
  -36.5792  -27.0947   22.3116 C   0  0  0  0  0  0  0  0  0  0  0  0
  -35.6082  -29.3944   22.5035 C   0  0  0  0  0  0  0  0  0  0  0  0
  -37.2155  -28.8702   20.6692 C   0  0  0  0  0  0  0  0  0  0  0  0
  -28.9875  -22.7455   25.5734 C   0  0  0  0  0  0  0  0  0  0  0  0
  -27.2674  -22.6211   23.7765 C   0  0  0  0  0  0  0  0  0  0  0  0
  -34.0869  -19.1324   21.3155 C   0  0  0  0  0  0  0  0  0  0  0  0
  -31.1035  -29.3322   17.6194 C   0  0  0  0  0  0  0  0  0  0  0  0
  -28.9806  -20.8129   23.9032 C   0  0  0  0  0  0  0  0  0  0  0  0
  -29.6386  -23.1964   23.1828 C   0  0  0  0  0  0  0  0  0  1  0  0
  -34.8698  -27.9324   20.5674 C   0  0  1  0  0  0  0  0  0  0  0  0
  -32.7816  -30.6389   18.9291 C   0  0  2  0  0  0  0  0  0  0  0  0
  -36.0513  -28.3004   21.5087 C   0  0  0  0  0  0  0  0  0  0  0  0
  -28.7512  -22.3355   24.1084 C   0  0  0  0  0  0  0  0  0  0  0  0
  -25.8604  -11.5420   20.2868 N   0  0  0  0  0  0  0  0  0  0  0  0
  -31.7263  -17.5056   21.6136 N   0  0  0  0  0  0  0  0  0  0  0  0
  -26.2359  -12.8256   20.1553 N   0  0  0  0  0  0  0  0  0  0  0  0
  -34.4769  -25.6684   19.6490 N   0  0  0  0  0  0  0  0  0  0  0  0
  -29.9659  -13.6180   20.3622 N   0  0  0  0  0  0  0  0  0  0  0  0
  -25.4666  -15.0528   20.3971 N   0  0  0  0  0  0  0  0  0  0  0  0
  -21.8838  -12.5774   21.5937 N   0  0  0  0  0  0  0  0  0  0  0  0
  -32.9082  -19.5051   22.0945 N   0  0  0  0  0  0  0  0  0  0  0  0
  -30.0736  -15.7002   21.4646 N   0  0  0  0  0  0  0  0  0  0  0  0
  -36.7589  -22.9740   19.1364 N   0  0  0  0  0  0  0  0  0  0  0  0
  -34.3673  -29.0493   19.7745 N   0  0  0  0  0  0  0  0  0  0  0  0
  -31.3942  -30.5690   18.3893 N   0  3  0  0  0  0  0  0  0  0  0  0
  -22.6571  -14.7173   21.3087 O   0  0  0  0  0  0  0  0  0  0  0  0
  -31.3726  -20.9210   24.2926 O   0  0  0  0  0  0  0  0  0  0  0  0
  -35.4679  -23.5989   20.9708 O   0  0  0  0  0  0  0  0  0  0  0  0
  -36.1521  -27.0394   18.7829 O   0  0  0  0  0  0  0  0  0  0  0  0
  -32.1845  -28.9506   20.5509 O   0  0  0  0  0  0  0  0  0  0  0  0
  -31.8518  -14.9427   20.1816 O   0  0  0  0  0  0  0  0  0  0  0  0
  -21.6172   -7.0142   21.7162 O   0  0  0  0  0  0  0  0  0  0  0  0
  -29.4332  -22.8524   21.8133 O   0  0  0  0  0  0  0  0  0  1  0  0
  -18.6235   -6.8642   26.3442 F   0  0  0  0  0  0  0  0  0  0  0  0
  -22.0687   -5.0761   23.6352 F   0  0  0  0  0  0  0  0  0  0  0  0
  -29.5129  -17.8692   22.8985 S   0  0  0  0  0  0  0  0  0  0  0  0
  1  2  1  0  0  0  0
  1  5  2  0  0  0  0
  2  6  2  0  0  0  0
  3  8  2  0  0  0  0
  3 15  1  0  0  0  0
  4  9  1  0  0  0  0
  4 15  2  0  0  0  0
  5 17  1  0  0  0  0
  6 19  1  0  0  0  0
  7 10  2  0  0  0  0
  7 18  1  0  0  0  0
  8 21  1  0  0  0  0
  9 21  2  0  0  0  0
 10 22  1  0  0  0  0
 11 12  2  0  0  0  0
 11 23  1  0  0  0  0
 12 24  1  0  0  0  0
 13 20  1  0  0  0  0
 13 22  2  0  0  0  0
 14 24  2  0  0  0  0
 14 25  1  0  0  0  0
 15 26  1  0  0  0  0
 16 26  1  0  0  0  0
 16 29  2  0  0  0  0
 16 31  1  0  0  0  0
 17 19  2  0  0  0  0
 17 37  1  0  0  0  0
 18 20  2  0  0  0  0
 18 38  1  0  0  0  0
 19 46  1  0  0  0  0
 20 39  1  0  0  0  0
 21 81  1  0  0  0  0
 22 82  1  0  0  0  0
 23 25  2  0  0  0  0
 23 81  1  0  0  0  0
 24 83  1  0  0  0  0
 25 84  1  0  0  0  0
 26 63  2  0  0  0  0
 27 28  2  0  0  0  0
 27 32  1  0  0  0  0
 27 85  1  0  0  0  0
 28 64  1  0  0  0  0
 28 70  1  0  0  0  0
 29 65  1  0  0  0  0
 29 68  1  0  0  0  0
 30 64  2  0  0  0  0
 30 71  1  0  0  0  0
 30 85  1  0  0  0  0
 31 69  1  0  0  0  0
 31 75  2  0  0  0  0
 32 57  1  0  0  0  0
 32 76  2  0  0  0  0
 33 47  1  0  0  0  0
 33 72  1  0  0  0  0
 33 77  2  0  0  0  0
 34 59  1  0  0  0  0
 34 66  1  0  0  0  0
 34 78  2  0  0  0  0
 35 60  1  0  0  0  0
 35 73  1  0  0  0  0
 35 79  2  0  0  0  0
 36 67  1  0  0  0  0
 36 71  1  0  0  0  0
 36 80  2  0  0  0  0
 37 40  1  0  0  0  0
 38 47  1  0  0  0  0
 39 66  1  0  0  0  0
 40 42  1  0  0  0  0
 41 43  1  0  0  0  0
 41 44  1  0  0  0  0
 42 46  1  0  0  0  0
 43 48  1  0  0  0  0
 44 67  1  0  0  0  0
 45 48  1  0  0  0  0
 45 67  1  0  0  0  0
 46 72  1  0  0  0  0
 47 66  1  0  0  0  0
 48 65  1  0  0  0  0
 49 60  1  0  0  0  0
 50 61  1  0  0  0  0
 51 61  1  0  0  0  0
 52 61  1  0  0  0  0
 53 62  1  0  0  0  0
 54 62  1  0  0  0  0
 55 70  1  0  0  0  0
 56 74  1  0  0  0  0
 57 62  1  0  0  0  0
 58 62  1  0  0  0  0
 58 82  1  0  0  0  0
 59 61  1  0  0  0  0
 59 73  1  0  0  0  0
 60 74  1  0  0  0  0
 63 65  1  0  0  0  0
M  CHG  1  74   1
M  ISO  4  36 100  58 101  71 100  82 101
M  END
> <Batch ID>
0174

> <Smiles>
CNc1nc([100NH:0][100C:0](=O)N2CCCC(n3nc(-c4ccc(Oc5ccc(F)cc5F)cc4)c(C(N)=O)c3N)C2)sc1C(=O)CC(C)(C)[101CH2:1][101O:1]c1ccc2c(c1)CN(C(=O)C(NC(=O)C(C)NC)C(C)(C)C)C(C(=O)NC1CCCc3ccccc31)C2

> <Shape>
0.188

> <Color>
0.184

> <Negative vol penalty>
0.000

$$$$
