
  -OEChem-04052304353D

 90 98  0     1  0  0  0  0  0999 V2000
  -27.4768  -37.1592   19.1638 C   0  0  0  0  0  0  0  0  0  0  0  0
  -27.9838  -35.8642   19.1278 C   0  0  0  0  0  0  0  0  0  0  0  0
  -24.4510   -9.4057   21.9426 C   0  0  0  0  0  0  0  0  0  0  0  0
  -23.2996  -10.6084   20.1919 C   0  0  0  0  0  0  0  0  0  0  0  0
  -26.5080  -37.5014   20.1061 C   0  0  0  0  0  0  0  0  0  0  0  0
  -27.5228  -34.9108   20.0351 C   0  0  0  0  0  0  0  0  0  0  0  0
  -26.7758  -28.9182   19.0169 C   0  0  0  0  0  0  0  0  0  0  0  0
  -29.2503  -17.9792   22.7398 C   0  0  0  0  0  0  0  0  0  0  0  0
  -29.0771  -19.0689   21.8865 C   0  0  0  0  0  0  0  0  0  0  0  0
  -23.3303   -8.5950   22.1227 C   0  0  0  0  0  0  0  0  0  0  0  0
  -22.1790   -9.7977   20.3719 C   0  0  0  0  0  0  0  0  0  0  0  0
  -27.5693  -27.8106   19.3120 C   0  0  0  0  0  0  0  0  0  0  0  0
  -21.9157   -5.9269   20.6017 C   0  0  0  0  0  0  0  0  0  0  0  0
  -22.1226   -4.5530   20.7249 C   0  0  0  0  0  0  0  0  0  0  0  0
  -26.2950  -27.4420   21.3268 C   0  0  0  0  0  0  0  0  0  0  0  0
  -21.1101   -4.5972   22.9180 C   0  0  0  0  0  0  0  0  0  0  0  0
  -24.4356  -10.4125   20.9773 C   0  0  0  0  0  0  0  0  0  0  0  0
  -26.6764  -11.0230   19.9219 C   0  0  0  0  0  0  0  0  0  0  0  0
  -26.0279  -36.5493   21.0191 C   0  0  0  0  0  0  0  0  0  0  0  0
  -25.7411  -29.3032   19.8815 C   0  0  0  0  0  0  0  0  0  0  0  0
  -26.5476  -35.2410   20.9914 C   0  0  0  0  0  0  0  0  0  0  0  0
  -25.4881  -28.5534   21.0390 C   0  0  0  0  0  0  0  0  0  0  0  0
  -28.2099  -19.2186   24.5338 C   0  0  0  0  0  0  0  0  0  0  0  0
  -28.8166  -18.0540   24.0634 C   0  0  0  0  0  0  0  0  0  0  0  0
  -28.4704  -20.2335   22.3569 C   0  0  0  0  0  0  0  0  0  0  0  0
  -22.1943   -8.7909   21.3373 C   0  0  0  0  0  0  0  0  0  0  0  0
  -27.3309  -27.0740   20.4686 C   0  0  0  0  0  0  0  0  0  0  0  0
  -21.3061   -6.6360   21.6367 C   0  0  0  0  0  0  0  0  0  0  0  0
  -21.7198   -3.8882   21.8830 C   0  0  0  0  0  0  0  0  0  0  0  0
  -20.9032   -5.9711   22.7948 C   0  0  0  0  0  0  0  0  0  0  0  0
  -28.0368  -20.3084   23.6806 C   0  0  0  0  0  0  0  0  0  0  0  0
  -25.5927  -11.2507   20.7912 C   0  0  0  0  0  0  0  0  0  0  0  0
  -27.5050  -12.1011   20.1165 C   0  0  0  0  0  0  0  0  0  0  0  0
  -28.8782  -23.8538   20.0821 C   0  0  0  0  0  0  0  0  0  0  0  0
  -26.9128   -9.9345   19.0192 C   0  0  0  0  0  0  0  0  0  0  0  0
  -28.3296  -22.7517   19.5403 C   0  0  0  0  0  0  0  0  0  0  0  0
  -28.6691  -21.4259   20.1546 C   0  0  0  0  0  0  0  0  0  0  0  0
  -25.1115  -31.8937   21.6126 C   0  0  0  0  0  0  0  0  0  0  0  0
  -31.4213  -16.7969   25.4997 C   0  0  0  0  0  0  0  0  0  0  0  0
  -22.3149  -30.3537   22.1870 C   0  0  0  0  0  0  0  0  0  0  0  0
  -20.6131  -27.3997   22.3434 C   0  0  0  0  0  0  0  0  0  0  0  0
  -28.4262  -15.6630   24.6310 C   0  0  0  0  0  0  0  0  0  0  0  0
  -25.0144  -36.9786   22.0502 C   0  0  0  0  0  0  0  0  0  0  0  0
  -24.8770  -30.4847   19.5352 C   0  0  0  0  0  0  0  0  0  0  0  0
  -24.3766  -28.9130   21.9897 C   0  0  0  0  0  0  0  0  0  0  0  0
  -24.3071  -35.8104   22.7323 C   0  0  0  0  0  0  0  0  0  0  0  0
  -27.4356  -16.7073   21.3797 C   0  0  0  0  0  0  0  0  0  0  0  0
  -25.3172  -34.7493   23.1571 C   0  0  0  0  0  0  0  0  0  0  0  0
  -26.9423  -15.3928   20.7760 C   0  0  0  0  0  0  0  0  0  0  0  0
  -27.0412  -16.8454   22.8505 C   0  0  0  0  0  0  0  0  0  0  0  0
  -26.9587  -14.3835   23.0894 C   0  0  0  0  0  0  0  0  0  0  0  0
  -26.0548  -34.1723   21.9428 C   0  0  1  0  0  0  0  0  0  0  0  0
  -24.1798  -31.0912   20.7491 C   0  0  1  0  0  0  0  0  0  0  0  0
  -27.3904  -14.1916   21.6272 C   0  0  1  0  0  0  0  0  0  0  0  0
  -27.7384  -19.3229   25.9482 C   0  0  0  0  0  0  0  0  0  0  0  0
  -27.3662  -22.6951   18.3959 C   0  0  0  0  0  0  0  0  0  0  0  0
  -32.5659  -17.4857   26.1974 C   0  0  0  0  0  0  0  0  0  0  0  0
  -18.3502  -26.4559   22.8778 C   0  0  0  0  0  0  0  0  0  0  0  0
  -22.8638  -30.7299   25.1647 C   0  0  0  0  0  0  0  0  0  0  0  0
  -21.1277  -28.9880   25.6337 C   0  0  0  0  0  0  0  0  0  0  0  0
  -20.4866  -31.1082   24.4863 C   0  0  0  0  0  0  0  0  0  0  0  0
  -20.2971  -26.3039   19.6125 C   0  0  0  0  0  0  0  0  0  0  0  0
  -28.6516  -25.2703   19.6571 C   0  0  0  0  0  0  0  0  0  1  0  0
  -30.0066  -17.0071   25.9989 C   0  0  0  0  0  0  0  0  0  0  0  0
  -21.8279  -29.3740   23.2271 C   0  0  1  0  0  0  0  0  0  0  0  0
  -19.2651  -26.9829   21.7834 C   0  0  2  0  0  0  0  0  0  0  0  0
  -21.5988  -30.0441   24.6112 C   0  0  0  0  0  0  0  0  0  0  0  0
  -25.7187  -12.3842   21.4864 N   0  0  0  0  0  0  0  0  0  0  0  0
  -26.8913  -12.8784   21.0542 N   0  0  0  0  0  0  0  0  0  0  0  0
  -23.5634  -30.0803   21.6106 N   0  0  0  0  0  0  0  0  0  0  0  0
  -27.4530  -15.6589   23.6140 N   0  0  0  0  0  0  0  0  0  0  0  0
  -28.6913  -12.4503   19.5752 N   0  0  0  0  0  0  0  0  0  0  0  0
  -25.9593   -8.9101   18.9435 N   0  0  0  0  0  0  0  0  0  0  0  0
  -28.2966  -21.3381   21.4882 N   0  0  0  0  0  0  0  0  0  0  0  0
  -25.2148  -33.2219   21.2459 N   0  0  0  0  0  0  0  0  0  0  0  0
  -20.6397  -28.7400   22.6662 N   0  0  0  0  0  0  0  0  0  0  0  0
  -29.0058  -16.9147   24.9304 N   0  0  0  0  0  0  0  0  0  0  0  0
  -19.4378  -25.9136   20.7598 N   0  3  0  0  0  0  0  0  0  0  0  0
  -27.9472   -9.8639   18.3130 O   0  0  0  0  0  0  0  0  0  0  0  0
  -29.2636  -20.5918   19.4793 O   0  0  0  0  0  0  0  0  0  0  0  0
  -25.6924  -31.3485   22.5437 O   0  0  0  0  0  0  0  0  0  0  0  0
  -31.6296  -16.0662   24.5280 O   0  0  0  0  0  0  0  0  0  0  0  0
  -21.6101  -31.3220   21.8914 O   0  0  0  0  0  0  0  0  0  0  0  0
  -21.5477  -26.6140   22.4843 O   0  0  0  0  0  0  0  0  0  0  0  0
  -28.7348  -14.6331   25.2425 O   0  0  0  0  0  0  0  0  0  0  0  0
  -21.1007   -7.9999   21.5126 O   0  0  0  0  0  0  0  0  0  0  0  0
  -28.1044  -25.9928   20.7593 O   0  0  0  0  0  0  0  0  0  1  0  0
  -21.9171   -2.5685   22.0005 F   0  0  0  0  0  0  0  0  0  0  0  0
  -20.3159   -6.6468   23.7921 F   0  0  0  0  0  0  0  0  0  0  0  0
  -27.4537  -21.4286   24.1337 F   0  0  0  0  0  0  0  0  0  0  0  0
  1  2  1  0  0  0  0
  1  5  2  0  0  0  0
  2  6  2  0  0  0  0
  3 10  2  0  0  0  0
  3 17  1  0  0  0  0
  4 11  1  0  0  0  0
  4 17  2  0  0  0  0
  5 19  1  0  0  0  0
  6 21  1  0  0  0  0
  7 12  2  0  0  0  0
  7 20  1  0  0  0  0
  8  9  2  0  0  0  0
  8 24  1  0  0  0  0
  9 25  1  0  0  0  0
 10 26  1  0  0  0  0
 11 26  2  0  0  0  0
 12 27  1  0  0  0  0
 13 14  2  0  0  0  0
 13 28  1  0  0  0  0
 14 29  1  0  0  0  0
 15 22  1  0  0  0  0
 15 27  2  0  0  0  0
 16 29  2  0  0  0  0
 16 30  1  0  0  0  0
 17 32  1  0  0  0  0
 18 32  1  0  0  0  0
 18 33  2  0  0  0  0
 18 35  1  0  0  0  0
 19 21  2  0  0  0  0
 19 43  1  0  0  0  0
 20 22  2  0  0  0  0
 20 44  1  0  0  0  0
 21 52  1  0  0  0  0
 22 45  1  0  0  0  0
 23 24  2  0  0  0  0
 23 31  1  0  0  0  0
 23 55  1  0  0  0  0
 24 77  1  0  0  0  0
 25 31  2  0  0  0  0
 25 74  1  0  0  0  0
 26 86  1  0  0  0  0
 27 87  1  0  0  0  0
 28 30  2  0  0  0  0
 28 86  1  0  0  0  0
 29 88  1  0  0  0  0
 30 89  1  0  0  0  0
 31 90  1  0  0  0  0
 32 68  2  0  0  0  0
 33 69  1  0  0  0  0
 33 72  1  0  0  0  0
 34 36  2  0  0  0  0
 34 63  1  0  0  0  0
 35 73  1  0  0  0  0
 35 79  2  0  0  0  0
 36 37  1  0  0  0  0
 36 56  1  0  0  0  0
 37 74  1  0  0  0  0
 37 80  2  0  0  0  0
 38 53  1  0  0  0  0
 38 75  1  0  0  0  0
 38 81  2  0  0  0  0
 39 57  1  0  0  0  0
 39 64  1  0  0  0  0
 39 82  2  0  0  0  0
 40 65  1  0  0  0  0
 40 70  1  0  0  0  0
 40 83  2  0  0  0  0
 41 66  1  0  0  0  0
 41 76  1  0  0  0  0
 41 84  2  0  0  0  0
 42 71  1  0  0  0  0
 42 77  1  0  0  0  0
 42 85  2  0  0  0  0
 43 46  1  0  0  0  0
 44 53  1  0  0  0  0
 45 70  1  0  0  0  0
 46 48  1  0  0  0  0
 47 49  1  0  0  0  0
 47 50  1  0  0  0  0
 48 52  1  0  0  0  0
 49 54  1  0  0  0  0
 50 71  1  0  0  0  0
 51 54  1  0  0  0  0
 51 71  1  0  0  0  0
 52 75  1  0  0  0  0
 53 70  1  0  0  0  0
 54 69  1  0  0  0  0
 58 66  1  0  0  0  0
 59 67  1  0  0  0  0
 60 67  1  0  0  0  0
 61 67  1  0  0  0  0
 62 78  1  0  0  0  0
 63 87  1  0  0  0  0
 64 77  1  0  0  0  0
 65 67  1  0  0  0  0
 65 76  1  0  0  0  0
 66 78  1  0  0  0  0
 68 69  1  0  0  0  0
M  CHG  1  78   1
M  ISO  4  42 100  63 101  77 100  87 101
M  END
> <Batch ID>
0175

> <Smiles>
CNC(C)C(=O)NC(C(=O)N1Cc2cc([101O:1][101CH2:1]C=C(C)C(=O)Nc3ccc([100N:0](CC(C)=O)[100C:0](=O)N4CCCC(n5nc(-c6ccc(Oc7ccc(F)cc7F)cc6)c(C(N)=O)c5N)C4)c(C)c3F)ccc2CC1C(=O)NC1CCCc2ccccc21)C(C)(C)C

> <Shape>
0.293

> <Color>
0.087

> <Negative vol penalty>
0.000

$$$$

  -OEChem-04052304353D

 84 92  0     1  0  0  0  0  0999 V2000
  -22.1816  -16.6006   18.6394 C   0  0  0  0  0  0  0  0  0  0  0  0
  -21.6997  -17.9055   18.6134 C   0  0  0  0  0  0  0  0  0  0  0  0
  -29.1269  -17.4881   18.7031 C   0  0  0  0  0  0  0  0  0  0  0  0
  -29.8087  -18.2141   20.9043 C   0  0  0  0  0  0  0  0  0  0  0  0
  -22.4647  -15.9875   19.8592 C   0  0  0  0  0  0  0  0  0  0  0  0
  -21.4996  -18.5975   19.8073 C   0  0  0  0  0  0  0  0  0  0  0  0
  -22.2914  -24.5946   20.7635 C   0  0  0  0  0  0  0  0  0  0  0  0
  -29.7197  -16.2459   18.9291 C   0  0  0  0  0  0  0  0  0  0  0  0
  -30.4015  -16.9718   21.1303 C   0  0  0  0  0  0  0  0  0  0  0  0
  -21.3989  -25.6652   20.7957 C   0  0  0  0  0  0  0  0  0  0  0  0
  -30.7401  -12.7594   19.0646 C   0  0  0  0  0  0  0  0  0  0  0  0
  -30.0189  -11.6214   18.7036 C   0  0  0  0  0  0  0  0  0  0  0  0
  -21.2768  -25.4832   23.1980 C   0  0  0  0  0  0  0  0  0  0  0  0
  -28.2546  -12.2561   20.2273 C   0  0  0  0  0  0  0  0  0  0  0  0
  -26.7757  -28.5981   19.3746 C   0  0  0  0  0  0  0  0  0  0  0  0
  -29.1714  -18.4722   19.6907 C   0  0  0  0  0  0  0  0  0  0  0  0
  -27.2334  -20.1302   19.7451 C   0  0  0  0  0  0  0  0  0  0  0  0
  -22.2772  -16.6758   21.0682 C   0  0  0  0  0  0  0  0  0  0  0  0
  -22.6755  -23.9522   21.9493 C   0  0  0  0  0  0  0  0  0  0  0  0
  -21.7792  -17.9926   21.0445 C   0  0  0  0  0  0  0  0  0  0  0  0
  -22.1763  -24.4064   23.1784 C   0  0  0  0  0  0  0  0  0  0  0  0
  -30.3570  -15.9878   20.1427 C   0  0  0  0  0  0  0  0  0  0  0  0
  -20.8892  -26.1078   22.0128 C   0  0  0  0  0  0  0  0  0  0  0  0
  -30.2186  -13.6458   20.0070 C   0  0  0  0  0  0  0  0  0  0  0  0
  -28.7762  -11.3697   19.2850 C   0  0  0  0  0  0  0  0  0  0  0  0
  -28.9759  -13.3942   20.5883 C   0  0  0  0  0  0  0  0  0  0  0  0
  -28.5597  -19.7558   19.4576 C   0  0  0  0  0  0  0  0  0  0  0  0
  -27.1508  -21.4399   19.3397 C   0  0  0  0  0  0  0  0  0  0  0  0
  -27.1363  -27.4970   20.1226 C   0  0  0  0  0  0  0  0  0  0  0  0
  -25.1432  -28.6449   20.8385 C   0  0  0  0  0  0  0  0  0  0  0  0
  -26.1711  -19.3627   20.3268 C   0  0  0  0  0  0  0  0  0  0  0  0
  -22.0217  -30.1131   22.3475 C   0  0  0  0  0  0  0  0  0  0  0  0
  -23.1275  -30.0360   21.3337 C   0  0  0  0  0  0  0  0  0  0  0  0
  -22.3823  -21.0035   23.0995 C   0  0  0  0  0  0  0  0  0  0  0  0
  -24.2489  -22.1666   25.4839 C   0  0  0  0  0  0  0  0  0  0  0  0
  -25.3599  -24.8783   27.2330 C   0  0  0  0  0  0  0  0  0  0  0  0
  -29.2376  -26.5948   19.0657 C   0  0  0  0  0  0  0  0  0  0  0  0
  -22.5523  -15.9550   22.3641 C   0  0  0  0  0  0  0  0  0  0  0  0
  -23.6599  -22.8160   21.9000 C   0  0  0  0  0  0  0  0  0  0  0  0
  -22.5729  -23.7640   24.4816 C   0  0  0  0  0  0  0  0  0  0  0  0
  -22.6679  -16.8875   23.5672 C   0  0  0  0  0  0  0  0  0  0  0  0
  -30.3643  -24.2575   16.6275 C   0  0  0  0  0  0  0  0  0  0  0  0
  -21.5272  -17.9002   23.5691 C   0  0  0  0  0  0  0  0  0  0  0  0
  -29.8862  -22.9087   17.1701 C   0  0  0  0  0  0  0  0  0  0  0  0
  -30.8116  -25.1935   17.7489 C   0  0  0  0  0  0  0  0  0  0  0  0
  -29.3504  -24.0426   19.3643 C   0  0  0  0  0  0  0  0  0  0  0  0
  -21.5726  -18.7847   22.3172 C   0  0  1  0  0  0  0  0  0  0  0  0
  -23.5835  -21.9059   23.1220 C   0  0  1  0  0  0  0  0  0  0  0  0
  -28.8286  -23.0894   18.2767 C   0  0  2  0  0  0  0  0  0  0  0  0
  -26.8509  -25.5101   29.1500 C   0  0  0  0  0  0  0  0  0  0  0  0
  -22.1335  -21.1825   27.4504 C   0  0  0  0  0  0  0  0  0  0  0  0
  -23.1762  -22.6438   29.1956 C   0  0  0  0  0  0  0  0  0  0  0  0
  -24.4947  -20.7886   28.1745 C   0  0  0  0  0  0  0  0  0  0  0  0
  -27.0961  -26.5248   25.4913 C   0  0  0  0  0  0  0  0  0  0  0  0
  -20.6095  -30.0100   21.8180 C   0  0  0  0  0  0  0  0  0  0  0  0
  -19.6426  -29.3917   22.8230 C   0  0  0  0  0  0  0  0  0  0  0  0
  -20.0301  -27.9708   23.2157 C   0  0  0  0  0  0  0  0  0  1  0  0
  -23.9930  -22.8530   26.8039 C   0  0  1  0  0  0  0  0  0  0  0  0
  -26.7562  -25.3077   27.6457 C   0  0  2  0  0  0  0  0  0  0  0  0
  -23.4402  -21.8780   27.8815 C   0  0  0  0  0  0  0  0  0  0  0  0
  -25.6328  -29.2574   19.7834 N   0  0  0  0  0  0  0  0  0  0  0  0
  -29.2685  -20.7474   18.9115 N   0  0  0  0  0  0  0  0  0  0  0  0
  -28.3844  -21.7578   18.8526 N   0  0  0  0  0  0  0  0  0  0  0  0
  -23.5332  -22.6526   24.3806 N   0  0  0  0  0  0  0  0  0  0  0  0
  -29.7579  -25.3198   18.7581 N   0  0  0  0  0  0  0  0  0  0  0  0
  -26.1439  -22.3390   19.3558 N   0  0  0  0  0  0  0  0  0  0  0  0
  -26.4270  -18.0323   20.6855 N   0  0  0  0  0  0  0  0  0  0  0  0
  -28.2175  -26.5872   20.0164 N   0  0  0  0  0  0  0  0  0  0  0  0
  -23.9849  -28.9841   21.5757 N   0  0  0  0  0  0  0  0  0  0  0  0
  -22.5942  -19.8008   22.4530 N   0  0  0  0  0  0  0  0  0  0  0  0
  -25.2442  -23.5056   27.1740 N   0  0  0  0  0  0  0  0  0  0  0  0
  -27.1243  -26.5867   26.9753 N   0  3  0  0  0  0  0  0  0  0  0  0
  -25.0242  -19.8376   20.5075 O   0  0  0  0  0  0  0  0  0  0  0  0
  -22.3440  -30.2372   23.5196 O   0  0  0  0  0  0  0  0  0  0  0  0
  -23.1392  -30.9003   20.4728 O   0  0  0  0  0  0  0  0  0  0  0  0
  -21.3408  -21.3707   23.6308 O   0  0  0  0  0  0  0  0  0  0  0  0
  -25.0595  -21.2382   25.4323 O   0  0  0  0  0  0  0  0  0  0  0  0
  -24.4607  -25.6803   26.9909 O   0  0  0  0  0  0  0  0  0  0  0  0
  -29.6468  -27.6150   18.5056 O   0  0  0  0  0  0  0  0  0  0  0  0
  -30.9354  -14.7757   20.3637 O   0  0  0  0  0  0  0  0  0  0  0  0
  -20.0174  -27.1521   22.0470 O   0  0  0  0  0  0  0  0  0  1  0  0
  -28.0831  -10.2776   18.9371 F   0  0  0  0  0  0  0  0  0  0  0  0
  -28.4692  -14.2427   21.4934 F   0  0  0  0  0  0  0  0  0  0  0  0
  -26.0069  -27.2695   21.3930 S   0  0  0  0  0  0  0  0  0  0  0  0
  1  2  1  0  0  0  0
  1  5  2  0  0  0  0
  2  6  2  0  0  0  0
  3  8  2  0  0  0  0
  3 16  1  0  0  0  0
  4  9  1  0  0  0  0
  4 16  2  0  0  0  0
  5 18  1  0  0  0  0
  6 20  1  0  0  0  0
  7 10  2  0  0  0  0
  7 19  1  0  0  0  0
  8 22  1  0  0  0  0
  9 22  2  0  0  0  0
 10 23  1  0  0  0  0
 11 12  2  0  0  0  0
 11 24  1  0  0  0  0
 12 25  1  0  0  0  0
 13 21  1  0  0  0  0
 13 23  2  0  0  0  0
 14 25  2  0  0  0  0
 14 26  1  0  0  0  0
 15 29  2  0  0  0  0
 15 61  1  0  0  0  0
 16 27  1  0  0  0  0
 17 27  1  0  0  0  0
 17 28  2  0  0  0  0
 17 31  1  0  0  0  0
 18 20  2  0  0  0  0
 18 38  1  0  0  0  0
 19 21  2  0  0  0  0
 19 39  1  0  0  0  0
 20 47  1  0  0  0  0
 21 40  1  0  0  0  0
 22 80  1  0  0  0  0
 23 81  1  0  0  0  0
 24 26  2  0  0  0  0
 24 80  1  0  0  0  0
 25 82  1  0  0  0  0
 26 83  1  0  0  0  0
 27 62  2  0  0  0  0
 28 63  1  0  0  0  0
 28 66  1  0  0  0  0
 29 68  1  0  0  0  0
 29 84  1  0  0  0  0
 30 61  2  0  0  0  0
 30 69  1  0  0  0  0
 30 84  1  0  0  0  0
 31 67  1  0  0  0  0
 31 73  2  0  0  0  0
 32 33  1  0  0  0  0
 32 55  1  0  0  0  0
 32 74  2  0  0  0  0
 33 69  1  0  0  0  0
 33 75  2  0  0  0  0
 34 48  1  0  0  0  0
 34 70  1  0  0  0  0
 34 76  2  0  0  0  0
 35 58  1  0  0  0  0
 35 64  1  0  0  0  0
 35 77  2  0  0  0  0
 36 59  1  0  0  0  0
 36 71  1  0  0  0  0
 36 78  2  0  0  0  0
 37 65  1  0  0  0  0
 37 68  1  0  0  0  0
 37 79  2  0  0  0  0
 38 41  1  0  0  0  0
 39 48  1  0  0  0  0
 40 64  1  0  0  0  0
 41 43  1  0  0  0  0
 42 44  1  0  0  0  0
 42 45  1  0  0  0  0
 43 47  1  0  0  0  0
 44 49  1  0  0  0  0
 45 65  1  0  0  0  0
 46 49  1  0  0  0  0
 46 65  1  0  0  0  0
 47 70  1  0  0  0  0
 48 64  1  0  0  0  0
 49 63  1  0  0  0  0
 50 59  1  0  0  0  0
 51 60  1  0  0  0  0
 52 60  1  0  0  0  0
 53 60  1  0  0  0  0
 54 72  1  0  0  0  0
 55 56  1  0  0  0  0
 56 57  1  0  0  0  0
 57 81  1  0  0  0  0
 58 60  1  0  0  0  0
 58 71  1  0  0  0  0
 59 72  1  0  0  0  0
 62 63  1  0  0  0  0
M  CHG  1  72   1
M  ISO  4  37 100  57 101  68 100  81 101
M  END
> <Batch ID>
0175

> <Smiles>
CNC(C)C(=O)NC(C(=O)N1Cc2cc([101O:1][101CH2:1]CCC(=O)C(=O)Nc3ncc([100NH:0][100C:0](=O)N4CCCC(n5nc(-c6ccc(Oc7ccc(F)cc7F)cc6)c(C(N)=O)c5N)C4)s3)ccc2CC1C(=O)NC1CCCc2ccccc21)C(C)(C)C

> <Shape>
0.228

> <Color>
0.046

> <Negative vol penalty>
0.000

$$$$

  -OEChem-04052304353D

 89 97  0     1  0  0  0  0  0999 V2000
  -27.2003  -19.7080   25.0906 C   0  0  0  0  0  0  0  0  0  0  0  0
  -27.5192  -20.6685   24.1361 C   0  0  0  0  0  0  0  0  0  0  0  0
  -24.5262  -12.2811   21.6754 C   0  0  0  0  0  0  0  0  0  0  0  0
  -25.3605  -12.0761   19.4173 C   0  0  0  0  0  0  0  0  0  0  0  0
  -25.8682  -19.4882   25.4387 C   0  0  0  0  0  0  0  0  0  0  0  0
  -26.5060  -21.4092   23.5285 C   0  0  0  0  0  0  0  0  0  0  0  0
  -27.6061  -26.3446   23.2520 C   0  0  0  0  0  0  0  0  0  0  0  0
  -23.8079  -11.0959   21.5176 C   0  0  0  0  0  0  0  0  0  0  0  0
  -24.6422  -10.8908   19.2595 C   0  0  0  0  0  0  0  0  0  0  0  0
  -28.4895  -26.7449   22.2505 C   0  0  0  0  0  0  0  0  0  0  0  0
  -24.4390   -7.7745   21.5730 C   0  0  0  0  0  0  0  0  0  0  0  0
  -24.4905   -6.8425   22.6094 C   0  0  0  0  0  0  0  0  0  0  0  0
  -26.6240  -27.4632   20.9004 C   0  0  0  0  0  0  0  0  0  0  0  0
  -32.1476  -20.7976   18.0208 C   0  0  0  0  0  0  0  0  0  0  0  0
  -22.0938   -6.9999   22.8702 C   0  0  0  0  0  0  0  0  0  0  0  0
  -25.3024  -12.7712   20.6252 C   0  0  0  0  0  0  0  0  0  0  0  0
  -27.3624  -14.1348   21.2615 C   0  0  0  0  0  0  0  0  0  0  0  0
  -24.8389  -20.2333   24.8420 C   0  0  0  0  0  0  0  0  0  0  0  0
  -26.2220  -26.4908   23.0804 C   0  0  0  0  0  0  0  0  0  0  0  0
  -25.1588  -21.1983   23.8680 C   0  0  0  0  0  0  0  0  0  0  0  0
  -25.7252  -27.0663   21.9023 C   0  0  0  0  0  0  0  0  0  0  0  0
  -32.0487  -22.1717   17.8333 C   0  0  0  0  0  0  0  0  0  0  0  0
  -23.8659  -10.4007   20.3097 C   0  0  0  0  0  0  0  0  0  0  0  0
  -27.9984  -27.3017   21.0733 C   0  0  0  0  0  0  0  0  0  0  0  0
  -23.2149   -8.3194   21.1852 C   0  0  0  0  0  0  0  0  0  0  0  0
  -23.3179   -6.4551   23.2580 C   0  0  0  0  0  0  0  0  0  0  0  0
  -31.0006  -20.0507   18.2660 C   0  0  0  0  0  0  0  0  0  0  0  0
  -22.0423   -7.9320   21.8338 C   0  0  0  0  0  0  0  0  0  0  0  0
  -26.0442  -13.9958   20.7873 C   0  0  0  0  0  0  0  0  0  0  0  0
  -30.7897  -22.7465   17.9000 C   0  0  0  0  0  0  0  0  0  0  0  0
  -29.7886  -20.7204   18.3136 C   0  0  0  0  0  0  0  0  0  0  0  0
  -27.5994  -15.4872   21.2254 C   0  0  0  0  0  0  0  0  0  0  0  0
  -28.2897  -13.1312   21.6957 C   0  0  0  0  0  0  0  0  0  0  0  0
  -23.7535  -24.4921   22.9577 C   0  0  0  0  0  0  0  0  0  0  0  0
  -30.5718  -26.9705   18.5477 C   0  0  0  0  0  0  0  0  0  0  0  0
  -22.0320  -27.2405   22.8813 C   0  0  0  0  0  0  0  0  0  0  0  0
  -21.9258  -30.5733   22.1549 C   0  0  0  0  0  0  0  0  0  0  0  0
  -27.3108  -20.4159   18.6511 C   0  0  0  0  0  0  0  0  0  0  0  0
  -23.4103  -19.9272   25.2163 C   0  0  0  0  0  0  0  0  0  0  0  0
  -25.2837  -26.0787   24.1814 C   0  0  0  0  0  0  0  0  0  0  0  0
  -24.2491  -27.2637   21.6773 C   0  0  0  0  0  0  0  0  0  0  0  0
  -22.4246  -21.0154   24.7984 C   0  0  0  0  0  0  0  0  0  0  0  0
  -24.4367  -19.3669   20.4723 C   0  0  0  0  0  0  0  0  0  0  0  0
  -22.6840  -21.4462   23.3583 C   0  0  0  0  0  0  0  0  0  0  0  0
  -24.7072  -17.8874   20.7556 C   0  0  0  0  0  0  0  0  0  0  0  0
  -24.9490  -19.7833   19.0946 C   0  0  0  0  0  0  0  0  0  0  0  0
  -26.6274  -17.9801   19.1151 C   0  0  0  0  0  0  0  0  0  0  0  0
  -24.0898  -22.0392   23.2045 C   0  0  1  0  0  0  0  0  0  0  0  0
  -23.8675  -25.8011   23.6867 C   0  0  1  0  0  0  0  0  0  0  0  0
  -26.1873  -17.5294   20.5176 C   0  0  2  0  0  0  0  0  0  0  0  0
  -20.3700  -32.5422   22.1611 C   0  0  0  0  0  0  0  0  0  0  0  0
  -20.6772  -26.1747   20.3637 C   0  0  0  0  0  0  0  0  0  0  0  0
  -19.8743  -28.4994   19.8957 C   0  0  0  0  0  0  0  0  0  0  0  0
  -19.1408  -27.3222   21.9690 C   0  0  0  0  0  0  0  0  0  0  0  0
  -23.6177  -32.0515   24.0814 C   0  0  0  0  0  0  0  0  0  0  0  0
  -30.0869  -26.9748   19.9836 C   0  0  0  0  0  0  0  0  0  1  0  0
  -29.4372  -24.8384   17.7581 C   0  0  0  0  0  0  0  0  0  0  0  0
  -29.6690  -26.3219   17.5144 C   0  0  2  0  0  0  0  0  0  0  0  0
  -21.5222  -28.1526   21.7918 C   0  0  1  0  0  0  0  0  0  0  0  0
  -21.4111  -31.7611   22.9477 C   0  0  2  0  0  0  0  0  0  0  0  0
  -33.2805  -22.9686   17.5690 C   0  0  0  0  0  0  0  0  0  0  0  0
  -20.3314  -27.5319   21.0082 C   0  0  0  0  0  0  0  0  0  0  0  0
  -25.4831  -15.1665   20.4732 N   0  0  0  0  0  0  0  0  0  0  0  0
  -29.6531  -22.0538   18.1362 N   0  0  0  0  0  0  0  0  0  0  0  0
  -26.4534  -16.0540   20.7506 N   0  0  0  0  0  0  0  0  0  0  0  0
  -23.3716  -26.8390   22.7806 N   0  0  0  0  0  0  0  0  0  0  0  0
  -26.3586  -19.4164   18.9426 N   0  0  0  0  0  0  0  0  0  0  0  0
  -28.6743  -16.2349   21.5539 N   0  0  0  0  0  0  0  0  0  0  0  0
  -27.8839  -11.7899   21.6684 N   0  0  0  0  0  0  0  0  0  0  0  0
  -28.6233  -19.9535   18.5619 N   0  0  0  0  0  0  0  0  0  0  0  0
  -30.6870  -24.1154   17.7139 N   0  0  0  0  0  0  0  0  0  0  0  0
  -24.1247  -23.3946   23.7107 N   0  0  0  0  0  0  0  0  0  0  0  0
  -21.2153  -29.4254   22.4354 N   0  0  0  0  0  0  0  0  0  0  0  0
  -22.5323  -32.6824   23.2872 N   0  3  0  0  0  0  0  0  0  0  0  0
  -29.4381  -13.4167   22.1116 O   0  0  0  0  0  0  0  0  0  0  0  0
  -23.3566  -24.4788   21.7984 O   0  0  0  0  0  0  0  0  0  0  0  0
  -31.6390  -27.4888   18.2187 O   0  0  0  0  0  0  0  0  0  0  0  0
  -21.2718  -26.9025   23.7920 O   0  0  0  0  0  0  0  0  0  0  0  0
  -22.8620  -30.6563   21.3629 O   0  0  0  0  0  0  0  0  0  0  0  0
  -26.9893  -21.5997   18.5193 O   0  0  0  0  0  0  0  0  0  0  0  0
  -23.1653   -9.2440   20.1555 O   0  0  0  0  0  0  0  0  0  0  0  0
  -28.8585  -27.6926   20.0938 O   0  0  0  0  0  0  0  0  0  1  0  0
  -23.3674   -5.5589   24.2523 F   0  0  0  0  0  0  0  0  0  0  0  0
  -31.0813  -18.7263   18.4472 F   0  0  0  0  0  0  0  0  0  0  0  0
  -20.8632   -8.4511   21.4648 F   0  0  0  0  0  0  0  0  0  0  0  0
  -30.1924  -26.4729   16.2630 F   0  0  0  0  0  0  0  0  0  0  0  0
  -34.4225  -22.2191   17.5400 F   0  0  0  0  0  0  0  0  0  0  0  0
  -33.2589  -23.6296   16.3735 F   0  0  0  0  0  0  0  0  0  0  0  0
  -33.4980  -23.9295   18.5140 F   0  0  0  0  0  0  0  0  0  0  0  0
  1  2  1  0  0  0  0
  1  5  2  0  0  0  0
  2  6  2  0  0  0  0
  3  8  2  0  0  0  0
  3 16  1  0  0  0  0
  4  9  1  0  0  0  0
  4 16  2  0  0  0  0
  5 18  1  0  0  0  0
  6 20  1  0  0  0  0
  7 10  2  0  0  0  0
  7 19  1  0  0  0  0
  8 23  1  0  0  0  0
  9 23  2  0  0  0  0
 10 24  1  0  0  0  0
 11 12  2  0  0  0  0
 11 25  1  0  0  0  0
 12 26  1  0  0  0  0
 13 21  1  0  0  0  0
 13 24  2  0  0  0  0
 14 22  1  0  0  0  0
 14 27  2  0  0  0  0
 15 26  2  0  0  0  0
 15 28  1  0  0  0  0
 16 29  1  0  0  0  0
 17 29  1  0  0  0  0
 17 32  2  0  0  0  0
 17 33  1  0  0  0  0
 18 20  2  0  0  0  0
 18 39  1  0  0  0  0
 19 21  2  0  0  0  0
 19 40  1  0  0  0  0
 20 48  1  0  0  0  0
 21 41  1  0  0  0  0
 22 30  2  0  0  0  0
 22 61  1  0  0  0  0
 23 81  1  0  0  0  0
 24 82  1  0  0  0  0
 25 28  2  0  0  0  0
 25 81  1  0  0  0  0
 26 83  1  0  0  0  0
 27 31  1  0  0  0  0
 27 84  1  0  0  0  0
 28 85  1  0  0  0  0
 29 63  2  0  0  0  0
 30 64  1  0  0  0  0
 30 71  1  0  0  0  0
 31 64  2  0  0  0  0
 31 70  1  0  0  0  0
 32 65  1  0  0  0  0
 32 68  1  0  0  0  0
 33 69  1  0  0  0  0
 33 75  2  0  0  0  0
 34 49  1  0  0  0  0
 34 72  1  0  0  0  0
 34 76  2  0  0  0  0
 35 56  1  0  0  0  0
 35 58  1  0  0  0  0
 35 77  2  0  0  0  0
 36 59  1  0  0  0  0
 36 66  1  0  0  0  0
 36 78  2  0  0  0  0
 37 60  1  0  0  0  0
 37 73  1  0  0  0  0
 37 79  2  0  0  0  0
 38 67  1  0  0  0  0
 38 70  1  0  0  0  0
 38 80  2  0  0  0  0
 39 42  1  0  0  0  0
 40 49  1  0  0  0  0
 41 66  1  0  0  0  0
 42 44  1  0  0  0  0
 43 45  1  0  0  0  0
 43 46  1  0  0  0  0
 44 48  1  0  0  0  0
 45 50  1  0  0  0  0
 46 67  1  0  0  0  0
 47 50  1  0  0  0  0
 47 67  1  0  0  0  0
 48 72  1  0  0  0  0
 49 66  1  0  0  0  0
 50 65  1  0  0  0  0
 51 60  1  0  0  0  0
 52 62  1  0  0  0  0
 53 62  1  0  0  0  0
 54 62  1  0  0  0  0
 55 74  1  0  0  0  0
 56 82  1  0  0  0  0
 57 58  1  0  0  0  0
 57 71  1  0  0  0  0
 58 86  1  0  0  0  0
 59 62  1  0  0  0  0
 59 73  1  0  0  0  0
 60 74  1  0  0  0  0
 61 87  1  0  0  0  0
 61 88  1  0  0  0  0
 61 89  1  0  0  0  0
 63 65  1  0  0  0  0
M  CHG  1  74   1
M  ISO  4  38 100  56 101  70 100  82 101
M  END
> <Batch ID>
0175

> <Smiles>
CNC(C)C(=O)NC(C(=O)N1Cc2cc([101O:1][101CH2:1]C(=O)C(F)CNc3nc([100NH:0][100C:0](=O)N4CCCC(n5nc(-c6ccc(Oc7ccc(F)cc7F)cc6)c(C(N)=O)c5N)C4)c(F)cc3C(F)(F)F)ccc2CC1C(=O)NC1CCCc2ccccc21)C(C)(C)C

> <Shape>
0.223

> <Color>
0.049

> <Negative vol penalty>
0.000

$$$$

  -OEChem-04052304353D

 85 93  0     1  0  0  0  0  0999 V2000
  -27.9300  -33.6029   25.8291 C   0  0  0  0  0  0  0  0  0  0  0  0
  -28.0718  -32.3543   25.2323 C   0  0  0  0  0  0  0  0  0  0  0  0
  -24.4303   -9.1096   21.6377 C   0  0  0  0  0  0  0  0  0  0  0  0
  -23.0278  -10.7153   20.5011 C   0  0  0  0  0  0  0  0  0  0  0  0
  -26.6604  -34.0790   26.1537 C   0  0  0  0  0  0  0  0  0  0  0  0
  -26.9441  -31.5805   24.9606 C   0  0  0  0  0  0  0  0  0  0  0  0
  -27.0725  -29.5154   20.3385 C   0  0  0  0  0  0  0  0  0  0  0  0
  -23.3712   -8.7845   22.4852 C   0  0  0  0  0  0  0  0  0  0  0  0
  -21.9687  -10.3902   21.3486 C   0  0  0  0  0  0  0  0  0  0  0  0
  -27.8773  -28.3900   20.1661 C   0  0  0  0  0  0  0  0  0  0  0  0
  -20.9299   -7.2729   24.7146 C   0  0  0  0  0  0  0  0  0  0  0  0
  -20.6885   -5.9216   24.9618 C   0  0  0  0  0  0  0  0  0  0  0  0
  -25.9292  -26.9778   20.3393 C   0  0  0  0  0  0  0  0  0  0  0  0
  -20.3195   -5.5558   22.6023 C   0  0  0  0  0  0  0  0  0  0  0  0
  -28.2147  -18.6507   17.7307 C   0  0  0  0  0  0  0  0  0  0  0  0
  -24.2586  -10.0751   20.6457 C   0  0  0  0  0  0  0  0  0  0  0  0
  -25.6681   -9.8138   18.5355 C   0  0  0  0  0  0  0  0  0  0  0  0
  -25.5158  -33.3148   25.8770 C   0  0  0  0  0  0  0  0  0  0  0  0
  -25.6891  -29.3795   20.5238 C   0  0  0  0  0  0  0  0  0  0  0  0
  -25.6580  -32.0462   25.2829 C   0  0  0  0  0  0  0  0  0  0  0  0
  -25.1088  -28.1031   20.5113 C   0  0  0  0  0  0  0  0  0  0  0  0
  -22.1405   -9.4247   22.3407 C   0  0  0  0  0  0  0  0  0  0  0  0
  -27.3061  -27.1208   20.1693 C   0  0  0  0  0  0  0  0  0  0  0  0
  -20.8660   -7.7658   23.4112 C   0  0  0  0  0  0  0  0  0  0  0  0
  -20.3833   -5.0630   23.9057 C   0  0  0  0  0  0  0  0  0  0  0  0
  -20.5609   -6.9072   22.3551 C   0  0  0  0  0  0  0  0  0  0  0  0
  -25.3524  -10.4118   19.7703 C   0  0  0  0  0  0  0  0  0  0  0  0
  -27.3774  -19.5312   17.0198 C   0  0  0  0  0  0  0  0  0  0  0  0
  -27.4451  -17.5306   17.9298 C   0  0  0  0  0  0  0  0  0  0  0  0
  -26.7856  -10.4859   18.1043 C   0  0  0  0  0  0  0  0  0  0  0  0
  -27.8356  -25.2067   18.9338 C   0  0  0  0  0  0  0  0  0  1  0  0
  -25.0100   -8.7464   17.8405 C   0  0  0  0  0  0  0  0  0  0  0  0
  -28.0462  -23.8829   18.8659 C   0  0  0  0  0  0  0  0  0  0  0  0
  -27.6967  -23.1811   17.5894 C   0  0  0  0  0  0  0  0  0  0  0  0
  -23.6562  -30.1080   22.8563 C   0  0  0  0  0  0  0  0  0  0  0  0
  -21.4369  -29.1586   20.6893 C   0  0  0  0  0  0  0  0  0  0  0  0
  -20.6991  -27.3068   17.9192 C   0  0  0  0  0  0  0  0  0  0  0  0
  -28.9396  -15.9506   19.2012 C   0  0  0  0  0  0  0  0  0  0  0  0
  -24.1678  -33.8511   26.2892 C   0  0  0  0  0  0  0  0  0  0  0  0
  -24.8313  -30.6048   20.6818 C   0  0  0  0  0  0  0  0  0  0  0  0
  -23.6260  -27.9044   20.6860 C   0  0  0  0  0  0  0  0  0  0  0  0
  -22.9968  -33.1301   25.6265 C   0  0  0  0  0  0  0  0  0  0  0  0
  -30.6040  -12.8535   19.7622 C   0  0  0  0  0  0  0  0  0  0  0  0
  -23.1903  -31.6187   25.6993 C   0  0  0  0  0  0  0  0  0  0  0  0
  -29.4758  -11.8208   19.7095 C   0  0  0  0  0  0  0  0  0  0  0  0
  -30.1508  -14.1555   20.4202 C   0  0  0  0  0  0  0  0  0  0  0  0
  -27.8085  -13.7181   19.7947 C   0  0  0  0  0  0  0  0  0  0  0  0
  -24.4569  -31.1880   24.9499 C   0  0  1  0  0  0  0  0  0  0  0  0
  -23.5034  -30.3191   21.3765 C   0  0  1  0  0  0  0  0  0  0  0  0
  -28.1987  -12.4130   19.0819 C   0  0  2  0  0  0  0  0  0  0  0  0
  -28.8806  -20.9398   15.5542 C   0  0  0  0  0  0  0  0  0  0  0  0
  -18.7917  -26.7014   16.4051 C   0  0  0  0  0  0  0  0  0  0  0  0
  -20.3533  -27.2597   22.8176 C   0  0  0  0  0  0  0  0  0  0  0  0
  -19.1231  -26.0442   21.0072 C   0  0  0  0  0  0  0  0  0  0  0  0
  -18.5990  -28.4369   21.4792 C   0  0  0  0  0  0  0  0  0  0  0  0
  -25.0889  -16.9269   17.2919 C   0  0  0  0  0  0  0  0  0  0  0  0
  -22.0427  -28.4893   15.5623 C   0  0  0  0  0  0  0  0  0  0  0  0
  -27.7079  -20.9255   16.5326 C   0  0  2  0  0  0  0  0  0  0  0  0
  -20.7772  -27.8467   20.3393 C   0  0  1  0  0  0  0  0  0  0  0  0
  -19.9519  -27.6550   16.6445 C   0  0  2  0  0  0  0  0  0  0  0  0
  -19.7414  -27.4002   21.4095 C   0  0  0  0  0  0  0  0  0  0  0  0
  -26.2009  -11.3885   20.1021 N   0  0  0  0  0  0  0  0  0  0  0  0
  -26.1685  -19.0149   16.7832 N   0  0  0  0  0  0  0  0  0  0  0  0
  -27.0608  -11.4094   19.0695 N   0  0  0  0  0  0  0  0  0  0  0  0
  -26.2406  -17.7978   17.3485 N   0  0  0  0  0  0  0  0  0  0  0  0
  -22.8303  -29.1331   20.8432 N   0  0  0  0  0  0  0  0  0  0  0  0
  -28.9388  -14.6597   19.7709 N   0  0  0  0  0  0  0  0  0  0  0  0
  -27.5499  -10.3711   16.9975 N   0  0  0  0  0  0  0  0  0  0  0  0
  -23.8751   -8.1679   18.4251 N   0  0  0  0  0  0  0  0  0  0  0  0
  -27.7419  -16.3088   18.5833 N   0  0  0  0  0  0  0  0  0  0  0  0
  -27.9571  -21.8224   17.6387 N   0  0  0  0  0  0  0  0  0  0  0  0
  -24.2210  -31.1790   23.5220 N   0  0  0  0  0  0  0  0  0  0  0  0
  -20.2198  -28.0141   19.0015 N   0  0  0  0  0  0  0  0  0  0  0  0
  -20.8682  -27.5843   15.4713 N   0  3  0  0  0  0  0  0  0  0  0  0
  -25.4259   -8.3072   16.7415 O   0  0  0  0  0  0  0  0  0  0  0  0
  -27.2323  -23.7765   16.6211 O   0  0  0  0  0  0  0  0  0  0  0  0
  -23.2875  -29.0521   23.3572 O   0  0  0  0  0  0  0  0  0  0  0  0
  -20.7424  -30.1704   20.8142 O   0  0  0  0  0  0  0  0  0  0  0  0
  -21.6137  -26.4865   17.9523 O   0  0  0  0  0  0  0  0  0  0  0  0
  -29.9387  -16.6736   19.2337 O   0  0  0  0  0  0  0  0  0  0  0  0
  -28.5646  -23.1256   19.8932 O   0  0  0  0  0  0  0  0  0  0  0  0
  -21.1067   -9.1075   23.1673 O   0  0  0  0  0  0  0  0  0  0  0  0
  -28.0894  -26.0207   20.0019 O   0  0  0  0  0  0  0  0  0  1  0  0
  -20.1531   -3.7650   24.1431 F   0  0  0  0  0  0  0  0  0  0  0  0
  -20.4993   -7.3747   21.1007 F   0  0  0  0  0  0  0  0  0  0  0  0
  1  2  1  0  0  0  0
  1  5  2  0  0  0  0
  2  6  2  0  0  0  0
  3  8  2  0  0  0  0
  3 16  1  0  0  0  0
  4  9  1  0  0  0  0
  4 16  2  0  0  0  0
  5 18  1  0  0  0  0
  6 20  1  0  0  0  0
  7 10  2  0  0  0  0
  7 19  1  0  0  0  0
  8 22  1  0  0  0  0
  9 22  2  0  0  0  0
 10 23  1  0  0  0  0
 11 12  2  0  0  0  0
 11 24  1  0  0  0  0
 12 25  1  0  0  0  0
 13 21  1  0  0  0  0
 13 23  2  0  0  0  0
 14 25  2  0  0  0  0
 14 26  1  0  0  0  0
 15 28  1  0  0  0  0
 15 29  2  0  0  0  0
 16 27  1  0  0  0  0
 17 27  1  0  0  0  0
 17 30  2  0  0  0  0
 17 32  1  0  0  0  0
 18 20  2  0  0  0  0
 18 39  1  0  0  0  0
 19 21  2  0  0  0  0
 19 40  1  0  0  0  0
 20 48  1  0  0  0  0
 21 41  1  0  0  0  0
 22 82  1  0  0  0  0
 23 83  1  0  0  0  0
 24 26  2  0  0  0  0
 24 82  1  0  0  0  0
 25 84  1  0  0  0  0
 26 85  1  0  0  0  0
 27 62  2  0  0  0  0
 28 58  1  0  0  0  0
 28 63  2  0  0  0  0
 29 65  1  0  0  0  0
 29 70  1  0  0  0  0
 30 64  1  0  0  0  0
 30 68  1  0  0  0  0
 31 33  2  0  0  0  0
 31 83  1  0  0  0  0
 32 69  1  0  0  0  0
 32 75  2  0  0  0  0
 33 34  1  0  0  0  0
 33 81  1  0  0  0  0
 34 71  1  0  0  0  0
 34 76  2  0  0  0  0
 35 49  1  0  0  0  0
 35 72  1  0  0  0  0
 35 77  2  0  0  0  0
 36 59  1  0  0  0  0
 36 66  1  0  0  0  0
 36 78  2  0  0  0  0
 37 60  1  0  0  0  0
 37 73  1  0  0  0  0
 37 79  2  0  0  0  0
 38 67  1  0  0  0  0
 38 70  1  0  0  0  0
 38 80  2  0  0  0  0
 39 42  1  0  0  0  0
 40 49  1  0  0  0  0
 41 66  1  0  0  0  0
 42 44  1  0  0  0  0
 43 45  1  0  0  0  0
 43 46  1  0  0  0  0
 44 48  1  0  0  0  0
 45 50  1  0  0  0  0
 46 67  1  0  0  0  0
 47 50  1  0  0  0  0
 47 67  1  0  0  0  0
 48 72  1  0  0  0  0
 49 66  1  0  0  0  0
 50 64  1  0  0  0  0
 51 58  1  0  0  0  0
 52 60  1  0  0  0  0
 53 61  1  0  0  0  0
 54 61  1  0  0  0  0
 55 61  1  0  0  0  0
 56 65  1  0  0  0  0
 57 74  1  0  0  0  0
 58 71  1  0  0  0  0
 59 61  1  0  0  0  0
 59 73  1  0  0  0  0
 60 74  1  0  0  0  0
 62 64  1  0  0  0  0
 63 65  1  0  0  0  0
M  CHG  1  74   1
M  ISO  4  31 101  38 100  70 100  83 101
M  END
> <Batch ID>
0175

> <Smiles>
CNC(C)C(=O)NC(C(=O)N1Cc2cc([101O:1][101CH2:1]C(=O)C(=O)NC(C)c3cc([100NH:0][100C:0](=O)N4CCCC(n5nc(-c6ccc(Oc7ccc(F)cc7F)cc6)c(C(N)=O)c5N)C4)n(C)n3)ccc2CC1C(=O)NC1CCCc2ccccc21)C(C)(C)C

> <Shape>
0.280

> <Color>
0.094

> <Negative vol penalty>
0.000

$$$$

  -OEChem-04052304352D

  0  0  0     0  0  0  0  0  0999 V2000
M  END
$$$$

  -OEChem-04052304353D

 87 95  0     1  0  0  0  0  0999 V2000
  -28.3171  -36.6194   21.4971 C   0  0  0  0  0  0  0  0  0  0  0  0
  -28.1461  -35.2823   21.8413 C   0  0  0  0  0  0  0  0  0  0  0  0
  -23.1064   -9.9242   21.4907 C   0  0  0  0  0  0  0  0  0  0  0  0
  -23.9144  -10.8188   23.5845 C   0  0  0  0  0  0  0  0  0  0  0  0
  -27.2607  -37.5170   21.6464 C   0  0  0  0  0  0  0  0  0  0  0  0
  -26.9190  -34.8423   22.3361 C   0  0  0  0  0  0  0  0  0  0  0  0
  -25.4246  -30.4858   20.2307 C   0  0  0  0  0  0  0  0  0  0  0  0
  -22.4029   -8.9388   22.1833 C   0  0  0  0  0  0  0  0  0  0  0  0
  -23.2110   -9.8334   24.2770 C   0  0  0  0  0  0  0  0  0  0  0  0
  -26.0233  -29.3157   20.6955 C   0  0  0  0  0  0  0  0  0  0  0  0
  -23.0806   -5.9930   23.6957 C   0  0  0  0  0  0  0  0  0  0  0  0
  -23.1583   -4.6851   23.2173 C   0  0  0  0  0  0  0  0  0  0  0  0
  -24.0925  -28.8829   22.0753 C   0  0  0  0  0  0  0  0  0  0  0  0
  -30.3527  -19.9067   18.8874 C   0  0  0  0  0  0  0  0  0  0  0  0
  -30.9559  -17.5673   18.8701 C   0  0  0  0  0  0  0  0  0  0  0  0
  -20.7629   -4.6576   22.9034 C   0  0  0  0  0  0  0  0  0  0  0  0
  -23.8622  -10.8643   22.1913 C   0  0  0  0  0  0  0  0  0  0  0  0
  -24.1254  -13.1597   21.1099 C   0  0  0  0  0  0  0  0  0  0  0  0
  -26.0170  -37.0858   22.1342 C   0  0  0  0  0  0  0  0  0  0  0  0
  -24.1578  -30.8696   20.6938 C   0  0  0  0  0  0  0  0  0  0  0  0
  -25.8454  -35.7353   22.4934 C   0  0  0  0  0  0  0  0  0  0  0  0
  -23.4788  -30.0570   21.6129 C   0  0  0  0  0  0  0  0  0  0  0  0
  -29.4894  -19.6762   19.9584 C   0  0  0  0  0  0  0  0  0  0  0  0
  -30.0926  -17.3368   19.9413 C   0  0  0  0  0  0  0  0  0  0  0  0
  -22.4552   -8.8933   23.5764 C   0  0  0  0  0  0  0  0  0  0  0  0
  -25.3586  -28.5155   21.6201 C   0  0  0  0  0  0  0  0  0  0  0  0
  -21.8441   -6.6332   23.7781 C   0  0  0  0  0  0  0  0  0  0  0  0
  -21.9995   -4.0174   22.8211 C   0  0  0  0  0  0  0  0  0  0  0  0
  -31.0859  -18.8522   18.3431 C   0  0  0  0  0  0  0  0  0  0  0  0
  -20.6853   -5.9656   23.3819 C   0  0  0  0  0  0  0  0  0  0  0  0
  -29.3594  -18.3913   20.4854 C   0  0  0  0  0  0  0  0  0  0  0  0
  -24.5895  -11.8821   21.4765 C   0  0  0  0  0  0  0  0  0  0  0  0
  -25.1866  -13.7357   20.4552 C   0  0  0  0  0  0  0  0  0  0  0  0
  -22.8493  -13.7711   21.3407 C   0  0  0  0  0  0  0  0  0  0  0  0
  -23.0172  -33.3655   22.2978 C   0  0  0  0  0  0  0  0  0  0  0  0
  -26.8403  -25.2078   21.4643 C   0  0  0  0  0  0  0  0  0  0  0  0
  -20.1596  -31.9559   21.6899 C   0  0  0  0  0  0  0  0  0  0  0  0
  -28.7563  -22.0809   20.1066 C   0  0  0  0  0  0  0  0  0  0  0  0
  -18.4320  -29.1029   20.9668 C   0  0  0  0  0  0  0  0  0  0  0  0
  -30.6215  -14.8761   20.0491 C   0  0  0  0  0  0  0  0  0  0  0  0
  -24.9191  -38.1025   22.3228 C   0  0  0  0  0  0  0  0  0  0  0  0
  -23.5141  -32.1209   20.1624 C   0  0  0  0  0  0  0  0  0  0  0  0
  -22.1085  -30.4140   22.1260 C   0  0  0  0  0  0  0  0  0  0  0  0
  -23.5367  -37.4802   22.5011 C   0  0  0  0  0  0  0  0  0  0  0  0
  -29.5297  -11.7210   18.8119 C   0  0  0  0  0  0  0  0  0  0  0  0
  -23.5936  -36.3315   23.5031 C   0  0  0  0  0  0  0  0  0  0  0  0
  -28.1090  -11.5867   19.3647 C   0  0  0  0  0  0  0  0  0  0  0  0
  -30.4630  -12.4080   19.8073 C   0  0  0  0  0  0  0  0  0  0  0  0
  -28.5650  -13.5662   20.8682 C   0  0  0  0  0  0  0  0  0  0  0  0
  -24.5217  -35.2148   23.0101 C   0  0  1  0  0  0  0  0  0  0  0  0
  -22.4409  -32.6812   21.0906 C   0  0  1  0  0  0  0  0  0  0  0  0
  -27.5729  -12.9385   19.8756 C   0  0  2  0  0  0  0  0  0  0  0  0
  -16.1032  -28.2584   20.5656 C   0  0  0  0  0  0  0  0  0  0  0  0
  -19.5972  -32.0907   24.6858 C   0  0  0  0  0  0  0  0  0  0  0  0
  -17.7592  -30.4252   24.3450 C   0  0  0  0  0  0  0  0  0  0  0  0
  -17.6425  -32.6541   23.2310 C   0  0  0  0  0  0  0  0  0  0  0  0
  -19.1003  -28.2205   18.2220 C   0  0  0  0  0  0  0  0  0  0  0  0
  -27.7665  -24.3811   20.5844 C   0  0  0  0  0  0  0  0  0  0  0  0
  -26.8306  -26.6985   21.1872 C   0  0  0  0  0  0  0  0  0  1  0  0
  -27.8077  -22.9055   20.9695 C   0  0  0  0  0  0  0  0  0  0  0  0
  -19.2988  -30.9362   22.3958 C   0  0  1  0  0  0  0  0  0  0  0  0
  -17.3690  -28.8059   19.9246 C   0  0  2  0  0  0  0  0  0  0  0  0
  -18.6011  -31.5205   23.6564 C   0  0  0  0  0  0  0  0  0  0  0  0
  -25.8475  -11.6591   21.0868 N   0  0  0  0  0  0  0  0  0  0  0  0
  -26.1829  -12.8043   20.4686 N   0  0  0  0  0  0  0  0  0  0  0  0
  -21.5237  -31.6505   21.5813 N   0  0  0  0  0  0  0  0  0  0  0  0
  -29.8922  -13.6841   20.2440 N   0  0  0  0  0  0  0  0  0  0  0  0
  -25.3554  -14.9429   19.8751 N   0  0  0  0  0  0  0  0  0  0  0  0
  -21.8725  -13.0392   22.0296 N   0  0  0  0  0  0  0  0  0  0  0  0
  -28.7470  -20.7481   20.5086 N   0  0  0  0  0  0  0  0  0  0  0  0
  -29.9642  -16.0302   20.4742 N   0  0  0  0  0  0  0  0  0  0  0  0
  -23.8609  -34.4181   21.9986 N   0  0  0  0  0  0  0  0  0  0  0  0
  -18.3785  -30.4136   21.3917 N   0  0  0  0  0  0  0  0  0  0  0  0
  -17.8711  -27.8023   18.9440 N   0  3  0  0  0  0  0  0  0  0  0  0
  -22.5775  -14.9260   20.9333 O   0  0  0  0  0  0  0  0  0  0  0  0
  -22.7173  -32.9689   23.4178 O   0  0  0  0  0  0  0  0  0  0  0  0
  -26.1388  -24.7084   22.3426 O   0  0  0  0  0  0  0  0  0  0  0  0
  -19.6395  -32.9820   21.2448 O   0  0  0  0  0  0  0  0  0  0  0  0
  -29.4086  -22.5785   19.1951 O   0  0  0  0  0  0  0  0  0  0  0  0
  -19.2276  -28.2559   21.3669 O   0  0  0  0  0  0  0  0  0  0  0  0
  -31.7347  -14.8762   19.5175 O   0  0  0  0  0  0  0  0  0  0  0  0
  -21.7687   -7.9320   24.2525 O   0  0  0  0  0  0  0  0  0  0  0  0
  -25.9410  -27.3732   22.0759 O   0  0  0  0  0  0  0  0  0  1  0  0
  -22.0744   -2.7619   22.3602 F   0  0  0  0  0  0  0  0  0  0  0  0
  -31.9152  -19.0735   17.3147 F   0  0  0  0  0  0  0  0  0  0  0  0
  -19.4946   -6.5758   23.4576 F   0  0  0  0  0  0  0  0  0  0  0  0
  -28.5299  -18.1695   21.5169 F   0  0  0  0  0  0  0  0  0  0  0  0
  1  2  1  0  0  0  0
  1  5  2  0  0  0  0
  2  6  2  0  0  0  0
  3  8  2  0  0  0  0
  3 17  1  0  0  0  0
  4  9  1  0  0  0  0
  4 17  2  0  0  0  0
  5 19  1  0  0  0  0
  6 21  1  0  0  0  0
  7 10  2  0  0  0  0
  7 20  1  0  0  0  0
  8 25  1  0  0  0  0
  9 25  2  0  0  0  0
 10 26  1  0  0  0  0
 11 12  2  0  0  0  0
 11 27  1  0  0  0  0
 12 28  1  0  0  0  0
 13 22  1  0  0  0  0
 13 26  2  0  0  0  0
 14 23  1  0  0  0  0
 14 29  2  0  0  0  0
 15 24  2  0  0  0  0
 15 29  1  0  0  0  0
 16 28  2  0  0  0  0
 16 30  1  0  0  0  0
 17 32  1  0  0  0  0
 18 32  1  0  0  0  0
 18 33  2  0  0  0  0
 18 34  1  0  0  0  0
 19 21  2  0  0  0  0
 19 41  1  0  0  0  0
 20 22  2  0  0  0  0
 20 42  1  0  0  0  0
 21 50  1  0  0  0  0
 22 43  1  0  0  0  0
 23 31  2  0  0  0  0
 23 70  1  0  0  0  0
 24 31  1  0  0  0  0
 24 71  1  0  0  0  0
 25 82  1  0  0  0  0
 26 83  1  0  0  0  0
 27 30  2  0  0  0  0
 27 82  1  0  0  0  0
 28 84  1  0  0  0  0
 29 85  1  0  0  0  0
 30 86  1  0  0  0  0
 31 87  1  0  0  0  0
 32 64  2  0  0  0  0
 33 65  1  0  0  0  0
 33 68  1  0  0  0  0
 34 69  1  0  0  0  0
 34 75  2  0  0  0  0
 35 51  1  0  0  0  0
 35 72  1  0  0  0  0
 35 76  2  0  0  0  0
 36 58  1  0  0  0  0
 36 59  1  0  0  0  0
 36 77  2  0  0  0  0
 37 61  1  0  0  0  0
 37 66  1  0  0  0  0
 37 78  2  0  0  0  0
 38 60  1  0  0  0  0
 38 70  1  0  0  0  0
 38 79  2  0  0  0  0
 39 62  1  0  0  0  0
 39 73  1  0  0  0  0
 39 80  2  0  0  0  0
 40 67  1  0  0  0  0
 40 71  1  0  0  0  0
 40 81  2  0  0  0  0
 41 44  1  0  0  0  0
 42 51  1  0  0  0  0
 43 66  1  0  0  0  0
 44 46  1  0  0  0  0
 45 47  1  0  0  0  0
 45 48  1  0  0  0  0
 46 50  1  0  0  0  0
 47 52  1  0  0  0  0
 48 67  1  0  0  0  0
 49 52  1  0  0  0  0
 49 67  1  0  0  0  0
 50 72  1  0  0  0  0
 51 66  1  0  0  0  0
 52 65  1  0  0  0  0
 53 62  1  0  0  0  0
 54 63  1  0  0  0  0
 55 63  1  0  0  0  0
 56 63  1  0  0  0  0
 57 74  1  0  0  0  0
 58 60  1  0  0  0  0
 59 83  1  0  0  0  0
 61 63  1  0  0  0  0
 61 73  1  0  0  0  0
 62 74  1  0  0  0  0
 64 65  1  0  0  0  0
M  CHG  1  74   1
M  ISO  4  40 100  59 101  71 100  83 101
M  END
> <Batch ID>
0175

> <Smiles>
CNC(C)C(=O)NC(C(=O)N1Cc2cc([101O:1][101CH2:1]C(=O)CCC(=O)Nc3cc(F)cc([100NH:0][100C:0](=O)N4CCCC(n5nc(-c6ccc(Oc7ccc(F)cc7F)cc6)c(C(N)=O)c5N)C4)c3F)ccc2CC1C(=O)NC1CCCc2ccccc21)C(C)(C)C

> <Shape>
0.316

> <Color>
0.187

> <Negative vol penalty>
0.000

$$$$

  -OEChem-04052304353D

 91 99  0     1  0  0  0  0  0999 V2000
  -17.9248  -29.7435   25.5527 C   0  0  0  0  0  0  0  0  0  0  0  0
  -19.2842  -29.6829   25.8424 C   0  0  0  0  0  0  0  0  0  0  0  0
  -23.6206   -9.2136   19.8137 C   0  0  0  0  0  0  0  0  0  0  0  0
  -23.2748  -10.4600   21.8543 C   0  0  0  0  0  0  0  0  0  0  0  0
  -31.1237  -24.5062   21.4664 C   0  0  0  0  0  0  0  0  0  0  0  0
  -17.4368  -29.1683   24.3801 C   0  0  0  0  0  0  0  0  0  0  0  0
  -20.1562  -29.0461   24.9601 C   0  0  0  0  0  0  0  0  0  0  0  0
  -25.9459  -30.6181   23.7297 C   0  0  0  0  0  0  0  0  0  0  0  0
  -30.5791  -23.2556   21.1747 C   0  0  0  0  0  0  0  0  0  0  0  0
  -22.8648   -8.1605   20.3288 C   0  0  0  0  0  0  0  0  0  0  0  0
  -22.5189   -9.4069   22.3694 C   0  0  0  0  0  0  0  0  0  0  0  0
  -27.1681  -30.1380   24.1984 C   0  0  0  0  0  0  0  0  0  0  0  0
  -19.3772   -8.2053   22.0432 C   0  0  0  0  0  0  0  0  0  0  0  0
  -18.1775   -8.5217   22.6805 C   0  0  0  0  0  0  0  0  0  0  0  0
  -30.2574  -22.8454   23.5338 C   0  0  0  0  0  0  0  0  0  0  0  0
  -27.3386  -28.7034   22.2666 C   0  0  0  0  0  0  0  0  0  0  0  0
  -18.9941   -7.5130   24.7184 C   0  0  0  0  0  0  0  0  0  0  0  0
  -23.8257  -10.3633   20.5765 C   0  0  0  0  0  0  0  0  0  0  0  0
  -31.2352  -24.9264   22.7918 C   0  0  0  0  0  0  0  0  0  0  0  0
  -30.8020  -24.0960   23.8255 C   0  0  0  0  0  0  0  0  0  0  0  0
  -24.1386  -12.5476   19.2965 C   0  0  0  0  0  0  0  0  0  0  0  0
  -18.3047  -28.5325   23.4783 C   0  0  0  0  0  0  0  0  0  0  0  0
  -25.4048  -30.1356   22.5293 C   0  0  0  0  0  0  0  0  0  0  0  0
  -19.6792  -28.4607   23.7751 C   0  0  0  0  0  0  0  0  0  0  0  0
  -26.1107  -29.1809   21.7835 C   0  0  0  0  0  0  0  0  0  0  0  0
  -30.1460  -22.4252   22.2083 C   0  0  0  0  0  0  0  0  0  0  0  0
  -22.3139   -8.2572   21.6066 C   0  0  0  0  0  0  0  0  0  0  0  0
  -27.8632  -29.1784   23.4683 C   0  0  0  0  0  0  0  0  0  0  0  0
  -20.3853   -7.5426   22.7434 C   0  0  0  0  0  0  0  0  0  0  0  0
  -17.9860   -8.1756   24.0181 C   0  0  0  0  0  0  0  0  0  0  0  0
  -20.1938   -7.1965   24.0810 C   0  0  0  0  0  0  0  0  0  0  0  0
  -24.6068  -11.4513   20.0452 C   0  0  0  0  0  0  0  0  0  0  0  0
  -25.2640  -13.2902   19.0346 C   0  0  0  0  0  0  0  0  0  0  0  0
  -31.8189  -26.2635   23.0696 C   0  0  0  0  0  0  0  0  0  0  0  0
  -30.9052  -24.5066   25.2198 C   0  0  0  0  0  0  0  0  0  0  0  0
  -22.8057  -12.8663   18.8754 C   0  0  0  0  0  0  0  0  0  0  0  0
  -31.0022  -27.3054   23.7913 C   0  0  0  0  0  0  0  0  0  0  0  0
  -28.7990  -19.2346   20.7347 C   0  0  0  0  0  0  0  0  0  0  0  0
  -29.4171  -20.6016   20.6636 C   0  0  0  0  0  0  0  0  0  0  0  0
  -22.7564  -28.5689   21.7325 C   0  0  0  0  0  0  0  0  0  0  0  0
  -30.0418  -15.5937   20.8112 C   0  0  0  0  0  0  0  0  0  0  0  0
  -23.8313  -29.0748   18.7140 C   0  0  0  0  0  0  0  0  0  0  0  0
  -26.4752  -29.6858   16.6444 C   0  0  0  0  0  0  0  0  0  0  0  0
  -17.7241  -27.8840   22.2467 C   0  0  0  0  0  0  0  0  0  0  0  0
  -24.0983  -30.6832   22.0239 C   0  0  0  0  0  0  0  0  0  0  0  0
  -25.5827  -28.6454   20.4785 C   0  0  0  0  0  0  0  0  0  0  0  0
  -18.7675  -27.5552   21.1820 C   0  0  0  0  0  0  0  0  0  0  0  0
  -30.1562  -12.2023   19.6599 C   0  0  0  0  0  0  0  0  0  0  0  0
  -19.9792  -26.8770   21.8135 C   0  0  0  0  0  0  0  0  0  0  0  0
  -28.6865  -11.7853   19.6251 C   0  0  0  0  0  0  0  0  0  0  0  0
  -30.4395  -13.1532   20.8186 C   0  0  0  0  0  0  0  0  0  0  0  0
  -28.0981  -13.9526   20.8004 C   0  0  0  0  0  0  0  0  0  0  0  0
  -20.6603  -27.8003   22.8309 C   0  0  1  0  0  0  0  0  0  0  0  0
  -23.3944  -29.7448   21.0485 C   0  0  1  0  0  0  0  0  0  0  0  0
  -27.7625  -13.0160   19.6263 C   0  0  2  0  0  0  0  0  0  0  0  0
  -29.6333  -24.5951   26.0096 C   0  0  0  0  0  0  0  0  0  0  0  0
  -27.0470  -30.0115   14.2228 C   0  0  0  0  0  0  0  0  0  0  0  0
  -23.5642  -26.0711   18.2494 C   0  0  0  0  0  0  0  0  0  0  0  0
  -25.0078  -26.3271   16.2199 C   0  0  0  0  0  0  0  0  0  0  0  0
  -22.8061  -27.4939   16.3375 C   0  0  0  0  0  0  0  0  0  0  0  0
  -27.4913  -32.4222   17.1327 C   0  0  0  0  0  0  0  0  0  0  0  0
  -29.7564  -18.0646   20.8031 C   0  0  0  0  0  0  0  0  0  0  0  0
  -29.7143  -27.7252   23.1252 C   0  0  0  0  0  0  0  0  0  1  0  0
  -29.0398  -16.7203   20.7839 C   0  0  0  0  0  0  0  0  0  0  0  0
  -24.7260  -28.3237   17.7578 C   0  0  1  0  0  0  0  0  0  0  0  0
  -26.6675  -30.6953   15.5271 C   0  0  2  0  0  0  0  0  0  0  0  0
  -24.0353  -27.0624   17.1667 C   0  0  0  0  0  0  0  0  0  0  0  0
  -25.9267  -11.4899   20.2459 N   0  0  0  0  0  0  0  0  0  0  0  0
  -26.2976  -12.6195   19.6194 N   0  0  0  0  0  0  0  0  0  0  0  0
  -24.2982  -29.2073   20.0294 N   0  0  0  0  0  0  0  0  0  0  0  0
  -29.5265  -14.2975   20.7974 N   0  0  0  0  0  0  0  0  0  0  0  0
  -25.4604  -14.4450   18.3635 N   0  0  0  0  0  0  0  0  0  0  0  0
  -21.7666  -11.9953   19.2304 N   0  0  0  0  0  0  0  0  0  0  0  0
  -29.6012  -21.1743   21.9164 N   0  0  0  0  0  0  0  0  0  0  0  0
  -21.4599  -28.7976   22.1523 N   0  0  0  0  0  0  0  0  0  0  0  0
  -25.1582  -29.2928   16.7566 N   0  0  0  0  0  0  0  0  0  0  0  0
  -27.7450  -31.6617   15.8820 N   0  3  0  0  0  0  0  0  0  0  0  0
  -31.9569  -24.7899   25.7939 O   0  0  0  0  0  0  0  0  0  0  0  0
  -22.5462  -13.8845   18.1902 O   0  0  0  0  0  0  0  0  0  0  0  0
  -31.4366  -27.7559   24.8418 O   0  0  0  0  0  0  0  0  0  0  0  0
  -27.5788  -19.1722   20.7297 O   0  0  0  0  0  0  0  0  0  0  0  0
  -29.6493  -21.0386   19.5486 O   0  0  0  0  0  0  0  0  0  0  0  0
  -23.3928  -27.5304   21.8680 O   0  0  0  0  0  0  0  0  0  0  0  0
  -31.2462  -15.8598   20.8408 O   0  0  0  0  0  0  0  0  0  0  0  0
  -22.7609  -29.5335   18.3070 O   0  0  0  0  0  0  0  0  0  0  0  0
  -27.4012  -29.2830   17.3449 O   0  0  0  0  0  0  0  0  0  0  0  0
  -21.5761   -7.2298   22.1095 O   0  0  0  0  0  0  0  0  0  0  0  0
  -29.0560  -28.7077   23.9239 O   0  0  0  0  0  0  0  0  0  1  0  0
  -16.8344   -8.4809   24.6305 F   0  0  0  0  0  0  0  0  0  0  0  0
  -21.1591   -6.5608   24.7592 F   0  0  0  0  0  0  0  0  0  0  0  0
  -33.3457  -26.8152   22.6584 S   0  0  0  0  0  0  0  0  0  0  0  0
  1  2  1  0  0  0  0
  1  6  2  0  0  0  0
  2  7  2  0  0  0  0
  3 10  2  0  0  0  0
  3 18  1  0  0  0  0
  4 11  1  0  0  0  0
  4 18  2  0  0  0  0
  5  9  2  0  0  0  0
  5 19  1  0  0  0  0
  6 22  1  0  0  0  0
  7 24  1  0  0  0  0
  8 12  2  0  0  0  0
  8 23  1  0  0  0  0
  9 26  1  0  0  0  0
 10 27  1  0  0  0  0
 11 27  2  0  0  0  0
 12 28  1  0  0  0  0
 13 14  2  0  0  0  0
 13 29  1  0  0  0  0
 14 30  1  0  0  0  0
 15 20  1  0  0  0  0
 15 26  2  0  0  0  0
 16 25  1  0  0  0  0
 16 28  2  0  0  0  0
 17 30  2  0  0  0  0
 17 31  1  0  0  0  0
 18 32  1  0  0  0  0
 19 20  2  0  0  0  0
 19 34  1  0  0  0  0
 20 35  1  0  0  0  0
 21 32  1  0  0  0  0
 21 33  2  0  0  0  0
 21 36  1  0  0  0  0
 22 24  2  0  0  0  0
 22 44  1  0  0  0  0
 23 25  2  0  0  0  0
 23 45  1  0  0  0  0
 24 53  1  0  0  0  0
 25 46  1  0  0  0  0
 26 74  1  0  0  0  0
 27 87  1  0  0  0  0
 28 88  1  0  0  0  0
 29 31  2  0  0  0  0
 29 87  1  0  0  0  0
 30 89  1  0  0  0  0
 31 90  1  0  0  0  0
 32 68  2  0  0  0  0
 33 69  1  0  0  0  0
 33 72  1  0  0  0  0
 34 37  1  0  0  0  0
 34 91  2  0  0  0  0
 35 56  1  0  0  0  0
 35 78  2  0  0  0  0
 36 73  1  0  0  0  0
 36 79  2  0  0  0  0
 37 63  1  0  0  0  0
 37 80  2  0  0  0  0
 38 39  1  0  0  0  0
 38 62  1  0  0  0  0
 38 81  2  0  0  0  0
 39 74  1  0  0  0  0
 39 82  2  0  0  0  0
 40 54  1  0  0  0  0
 40 75  1  0  0  0  0
 40 83  2  0  0  0  0
 41 64  1  0  0  0  0
 41 71  1  0  0  0  0
 41 84  2  0  0  0  0
 42 65  1  0  0  0  0
 42 70  1  0  0  0  0
 42 85  2  0  0  0  0
 43 66  1  0  0  0  0
 43 76  1  0  0  0  0
 43 86  2  0  0  0  0
 44 47  1  0  0  0  0
 45 54  1  0  0  0  0
 46 70  1  0  0  0  0
 47 49  1  0  0  0  0
 48 50  1  0  0  0  0
 48 51  1  0  0  0  0
 49 53  1  0  0  0  0
 50 55  1  0  0  0  0
 51 71  1  0  0  0  0
 52 55  1  0  0  0  0
 52 71  1  0  0  0  0
 53 75  1  0  0  0  0
 54 70  1  0  0  0  0
 55 69  1  0  0  0  0
 57 66  1  0  0  0  0
 58 67  1  0  0  0  0
 59 67  1  0  0  0  0
 60 67  1  0  0  0  0
 61 77  1  0  0  0  0
 62 64  1  0  0  0  0
 63 88  1  0  0  0  0
 65 67  1  0  0  0  0
 65 76  1  0  0  0  0
 66 77  1  0  0  0  0
 68 69  1  0  0  0  0
M  CHG  1  77   1
M  ISO  4  41 100  63 101  64 100  88 101
M  END
> <Batch ID>
0175

> <Smiles>
CNC(C)C(=O)NC(C(=O)N1Cc2cc([101O:1][101CH2:1]C(=O)C(=S)c3ccc(NC(=O)C(=O)C[100CH2:0][100C:0](=O)N4CCCC(n5nc(-c6ccc(Oc7ccc(F)cc7F)cc6)c(C(N)=O)c5N)C4)cc3C(C)=O)ccc2CC1C(=O)NC1CCCc2ccccc21)C(C)(C)C

> <Shape>
0.274

> <Color>
0.123

> <Negative vol penalty>
0.000

$$$$

  -OEChem-04052304353D

 84 92  0     1  0  0  0  0  0999 V2000
  -22.5448  -23.7200   19.7425 C   0  0  0  0  0  0  0  0  0  0  0  0
  -23.7303  -23.0407   20.0049 C   0  0  0  0  0  0  0  0  0  0  0  0
  -22.4435  -28.6959   20.7099 C   0  0  0  0  0  0  0  0  0  0  0  0
  -23.0088  -26.6182   21.8057 C   0  0  0  0  0  0  0  0  0  0  0  0
  -21.3258  -23.1704   20.1374 C   0  0  0  0  0  0  0  0  0  0  0  0
  -23.6974  -21.8119   20.6632 C   0  0  0  0  0  0  0  0  0  0  0  0
  -26.7207  -18.3701   18.5050 C   0  0  0  0  0  0  0  0  0  0  0  0
  -21.1182  -28.5518   21.1203 C   0  0  0  0  0  0  0  0  0  0  0  0
  -21.6834  -26.4741   22.2162 C   0  0  0  0  0  0  0  0  0  0  0  0
  -28.0862  -18.4669   18.7693 C   0  0  0  0  0  0  0  0  0  0  0  0
  -17.6616  -28.9133   22.1861 C   0  0  0  0  0  0  0  0  0  0  0  0
  -17.0207  -30.0341   22.7140 C   0  0  0  0  0  0  0  0  0  0  0  0
  -27.8855  -16.7158   20.4163 C   0  0  0  0  0  0  0  0  0  0  0  0
  -31.8402  -22.8376   17.6448 C   0  0  0  0  0  0  0  0  0  0  0  0
  -18.6758  -30.1534   24.4700 C   0  0  0  0  0  0  0  0  0  0  0  0
  -23.3888  -27.7290   21.0526 C   0  0  0  0  0  0  0  0  0  0  0  0
  -25.7973  -28.5253   21.3219 C   0  0  0  0  0  0  0  0  0  0  0  0
  -21.2773  -21.9297   20.7923 C   0  0  0  0  0  0  0  0  0  0  0  0
  -25.9240  -17.4513   19.2033 C   0  0  0  0  0  0  0  0  0  0  0  0
  -22.4766  -21.2459   21.0684 C   0  0  0  0  0  0  0  0  0  0  0  0
  -26.5107  -16.6075   20.1572 C   0  0  0  0  0  0  0  0  0  0  0  0
  -32.7140  -22.1421   18.5144 C   0  0  0  0  0  0  0  0  0  0  0  0
  -20.7382  -27.4410   21.8735 C   0  0  0  0  0  0  0  0  0  0  0  0
  -28.6683  -17.6418   19.7271 C   0  0  0  0  0  0  0  0  0  0  0  0
  -18.8096  -28.4125   22.8001 C   0  0  0  0  0  0  0  0  0  0  0  0
  -17.5278  -30.6541   23.8560 C   0  0  0  0  0  0  0  0  0  0  0  0
  -19.3167  -29.0325   23.9421 C   0  0  0  0  0  0  0  0  0  0  0  0
  -24.7578  -27.8770   20.6284 C   0  0  0  0  0  0  0  0  0  0  0  0
  -32.2113  -22.3188   19.7825 C   0  0  0  0  0  0  0  0  0  0  0  0
  -26.8922  -28.3906   20.5037 C   0  0  0  0  0  0  0  0  0  0  0  0
  -30.8657  -23.3894   18.4435 C   0  0  0  0  0  0  0  0  0  0  0  0
  -25.7752  -29.1897   22.5923 C   0  0  0  0  0  0  0  0  0  0  0  0
  -23.4347  -17.6786   21.1669 C   0  0  0  0  0  0  0  0  0  0  0  0
  -23.4562  -14.4428   20.9402 C   0  0  0  0  0  0  0  0  0  0  0  0
  -31.4411  -19.7223   21.6174 C   0  0  0  0  0  0  0  0  0  0  0  0
  -25.2239  -11.5952   20.2972 C   0  0  0  0  0  0  0  0  0  0  0  0
  -29.3278  -24.6178   16.8713 C   0  0  0  0  0  0  0  0  0  0  0  0
  -19.9394  -21.3981   21.2420 C   0  0  0  0  0  0  0  0  0  0  0  0
  -24.4576  -17.3406   18.8875 C   0  0  0  0  0  0  0  0  0  0  0  0
  -25.7030  -15.5905   20.9199 C   0  0  0  0  0  0  0  0  0  0  0  0
  -19.9629  -19.9147   21.6012 C   0  0  0  0  0  0  0  0  0  0  0  0
  -27.5509  -27.4671   15.6874 C   0  0  0  0  0  0  0  0  0  0  0  0
  -21.1644  -19.5987   22.4864 C   0  0  0  0  0  0  0  0  0  0  0  0
  -26.7506  -27.9280   16.9077 C   0  0  0  0  0  0  0  0  0  0  0  0
  -27.6448  -25.9441   15.6129 C   0  0  0  0  0  0  0  0  0  0  0  0
  -27.3442  -25.7536   18.0507 C   0  0  0  0  0  0  0  0  0  0  0  0
  -22.4802  -19.8990   21.7583 C   0  0  1  0  0  0  0  0  0  0  0  0
  -23.6463  -16.7263   20.0241 C   0  0  1  0  0  0  0  0  0  0  0  0
  -27.2774  -27.2819   18.2040 C   0  0  2  0  0  0  0  0  0  0  0  0
  -34.0449  -22.3570   21.5228 C   0  0  0  0  0  0  0  0  0  0  0  0
  -24.9803   -9.0986   20.2290 C   0  0  0  0  0  0  0  0  0  0  0  0
  -23.5299  -14.3547   23.9893 C   0  0  0  0  0  0  0  0  0  0  0  0
  -24.2355  -11.9576   23.8335 C   0  0  0  0  0  0  0  0  0  0  0  0
  -22.0192  -12.6646   22.9330 C   0  0  0  0  0  0  0  0  0  0  0  0
  -25.9034  -11.4915   17.4186 C   0  0  0  0  0  0  0  0  0  0  0  0
  -31.6756  -18.2201   21.6457 C   0  0  0  0  0  0  0  0  0  0  0  0
  -30.4274  -17.4178   21.3118 C   0  0  0  0  0  0  0  0  0  1  0  0
  -32.6529  -21.8495   21.1519 C   0  0  2  0  0  0  0  0  0  0  0  0
  -24.1255  -13.3224   21.6990 C   0  0  1  0  0  0  0  0  0  0  0  0
  -24.9112  -10.3900   19.4288 C   0  0  2  0  0  0  0  0  0  0  0  0
  -23.4927  -13.0952   23.1009 C   0  0  0  0  0  0  0  0  0  0  0  0
  -25.1566  -27.3684   19.4595 N   0  0  0  0  0  0  0  0  0  0  0  0
  -26.4588  -27.6972   19.4121 N   0  0  0  0  0  0  0  0  0  0  0  0
  -24.2720  -15.5247   20.5799 N   0  0  0  0  0  0  0  0  0  0  0  0
  -28.1553  -25.4026   16.8743 N   0  0  0  0  0  0  0  0  0  0  0  0
  -33.8169  -21.4476   18.1696 N   0  0  0  0  0  0  0  0  0  0  0  0
  -28.1738  -28.7990   20.6185 N   0  0  0  0  0  0  0  0  0  0  0  0
  -24.5671  -29.2358   23.3012 N   0  0  0  0  0  0  0  0  0  0  0  0
  -29.7355  -24.1855   18.1328 N   0  0  0  0  0  0  0  0  0  0  0  0
  -22.7864  -18.8466   20.8132 N   0  0  0  0  0  0  0  0  0  0  0  0
  -32.5917  -20.4095   21.2579 N   0  0  0  0  0  0  0  0  0  0  0  0
  -24.0798  -12.1542   20.8263 N   0  0  0  0  0  0  0  0  0  0  0  0
  -25.8823  -10.2974   18.3022 N   0  3  0  0  0  0  0  0  0  0  0  0
  -26.7926  -29.7409   23.0766 O   0  0  0  0  0  0  0  0  0  0  0  0
  -23.8291  -17.3756   22.2869 O   0  0  0  0  0  0  0  0  0  0  0  0
  -22.2555  -14.3579   20.6707 O   0  0  0  0  0  0  0  0  0  0  0  0
  -30.3601  -20.2405   21.8832 O   0  0  0  0  0  0  0  0  0  0  0  0
  -26.3689  -11.9982   20.4901 O   0  0  0  0  0  0  0  0  0  0  0  0
  -29.9413  -24.3717   15.8296 O   0  0  0  0  0  0  0  0  0  0  0  0
  -31.0847  -23.0778   19.7480 O   0  0  0  0  0  0  0  0  0  0  0  0
  -19.4451  -27.3002   22.2743 O   0  0  0  0  0  0  0  0  0  0  0  0
  -30.0007  -17.7348   19.9874 O   0  0  0  0  0  0  0  0  0  1  0  0
  -16.9132  -31.7313   24.3620 F   0  0  0  0  0  0  0  0  0  0  0  0
  -20.4199  -28.5567   24.5357 F   0  0  0  0  0  0  0  0  0  0  0  0
  1  2  1  0  0  0  0
  1  5  2  0  0  0  0
  2  6  2  0  0  0  0
  3  8  2  0  0  0  0
  3 16  1  0  0  0  0
  4  9  1  0  0  0  0
  4 16  2  0  0  0  0
  5 18  1  0  0  0  0
  6 20  1  0  0  0  0
  7 10  2  0  0  0  0
  7 19  1  0  0  0  0
  8 23  1  0  0  0  0
  9 23  2  0  0  0  0
 10 24  1  0  0  0  0
 11 12  2  0  0  0  0
 11 25  1  0  0  0  0
 12 26  1  0  0  0  0
 13 21  1  0  0  0  0
 13 24  2  0  0  0  0
 14 22  1  0  0  0  0
 14 31  2  0  0  0  0
 15 26  2  0  0  0  0
 15 27  1  0  0  0  0
 16 28  1  0  0  0  0
 17 28  1  0  0  0  0
 17 30  2  0  0  0  0
 17 32  1  0  0  0  0
 18 20  2  0  0  0  0
 18 38  1  0  0  0  0
 19 21  2  0  0  0  0
 19 39  1  0  0  0  0
 20 47  1  0  0  0  0
 21 40  1  0  0  0  0
 22 29  2  0  0  0  0
 22 66  1  0  0  0  0
 23 81  1  0  0  0  0
 24 82  1  0  0  0  0
 25 27  2  0  0  0  0
 25 81  1  0  0  0  0
 26 83  1  0  0  0  0
 27 84  1  0  0  0  0
 28 62  2  0  0  0  0
 29 58  1  0  0  0  0
 29 80  1  0  0  0  0
 30 63  1  0  0  0  0
 30 67  1  0  0  0  0
 31 69  1  0  0  0  0
 31 80  1  0  0  0  0
 32 68  1  0  0  0  0
 32 74  2  0  0  0  0
 33 48  1  0  0  0  0
 33 70  1  0  0  0  0
 33 75  2  0  0  0  0
 34 59  1  0  0  0  0
 34 64  1  0  0  0  0
 34 76  2  0  0  0  0
 35 56  1  0  0  0  0
 35 71  1  0  0  0  0
 35 77  2  0  0  0  0
 36 60  1  0  0  0  0
 36 72  1  0  0  0  0
 36 78  2  0  0  0  0
 37 65  1  0  0  0  0
 37 69  1  0  0  0  0
 37 79  2  0  0  0  0
 38 41  1  0  0  0  0
 39 48  1  0  0  0  0
 40 64  1  0  0  0  0
 41 43  1  0  0  0  0
 42 44  1  0  0  0  0
 42 45  1  0  0  0  0
 43 47  1  0  0  0  0
 44 49  1  0  0  0  0
 45 65  1  0  0  0  0
 46 49  1  0  0  0  0
 46 65  1  0  0  0  0
 47 70  1  0  0  0  0
 48 64  1  0  0  0  0
 49 63  1  0  0  0  0
 50 58  1  0  0  0  0
 51 60  1  0  0  0  0
 52 61  1  0  0  0  0
 53 61  1  0  0  0  0
 54 61  1  0  0  0  0
 55 73  1  0  0  0  0
 56 57  1  0  0  0  0
 57 82  1  0  0  0  0
 58 71  1  0  0  0  0
 59 61  1  0  0  0  0
 59 72  1  0  0  0  0
 60 73  1  0  0  0  0
 62 63  1  0  0  0  0
M  CHG  1  73   1
M  ISO  4  37 100  57 101  69 100  82 101
M  END
> <Batch ID>
0175

> <Smiles>
CNC(C)C(=O)NC(C(=O)N1Cc2cc([101O:1][101CH2:1]CC(=O)NC(C)c3oc([100NH:0][100C:0](=O)N4CCCC(n5nc(-c6ccc(Oc7ccc(F)cc7F)cc6)c(C(N)=O)c5N)C4)cc3N)ccc2CC1C(=O)NC1CCCc2ccccc21)C(C)(C)C

> <Shape>
0.221

> <Color>
0.079

> <Negative vol penalty>
0.000

$$$$

  -OEChem-04052304353D

 89 97  0     1  0  0  0  0  0999 V2000
  -16.2039  -29.8917   23.8405 C   0  0  0  0  0  0  0  0  0  0  0  0
  -16.9338  -28.7341   23.5906 C   0  0  0  0  0  0  0  0  0  0  0  0
  -23.1800   -9.7120   20.1786 C   0  0  0  0  0  0  0  0  0  0  0  0
  -23.7491  -10.1137   22.4920 C   0  0  0  0  0  0  0  0  0  0  0  0
  -31.5000  -18.9847   23.6545 C   0  0  0  0  0  0  0  0  0  0  0  0
  -16.8589  -31.1178   23.9479 C   0  0  0  0  0  0  0  0  0  0  0  0
  -18.3191  -28.8020   23.4468 C   0  0  0  0  0  0  0  0  0  0  0  0
  -22.4127  -24.5968   25.1975 C   0  0  0  0  0  0  0  0  0  0  0  0
  -22.4287   -8.5993   20.5566 C   0  0  0  0  0  0  0  0  0  0  0  0
  -22.9977   -9.0009   22.8700 C   0  0  0  0  0  0  0  0  0  0  0  0
  -23.0812  -23.5913   24.5005 C   0  0  0  0  0  0  0  0  0  0  0  0
  -19.7384   -8.2406   23.3383 C   0  0  0  0  0  0  0  0  0  0  0  0
  -32.1390  -17.7449   23.6384 C   0  0  0  0  0  0  0  0  0  0  0  0
  -18.8883   -8.3770   24.4357 C   0  0  0  0  0  0  0  0  0  0  0  0
  -24.9772  -25.0558   24.2184 C   0  0  0  0  0  0  0  0  0  0  0  0
  -20.0827   -6.6158   25.5798 C   0  0  0  0  0  0  0  0  0  0  0  0
  -23.8403  -10.4692   21.1463 C   0  0  0  0  0  0  0  0  0  0  0  0
  -30.3576  -19.1907   22.8810 C   0  0  0  0  0  0  0  0  0  0  0  0
  -24.1679  -12.9472   20.6364 C   0  0  0  0  0  0  0  0  0  0  0  0
  -18.2540  -31.1994   23.8149 C   0  0  0  0  0  0  0  0  0  0  0  0
  -23.0182  -25.8452   25.4011 C   0  0  0  0  0  0  0  0  0  0  0  0
  -18.9933  -30.0305   23.5512 C   0  0  0  0  0  0  0  0  0  0  0  0
  -24.3153  -26.0746   24.9205 C   0  0  0  0  0  0  0  0  0  0  0  0
  -30.4932  -16.9171   22.0753 C   0  0  0  0  0  0  0  0  0  0  0  0
  -22.3375   -8.2438   21.9023 C   0  0  0  0  0  0  0  0  0  0  0  0
  -24.3625  -23.8217   24.0083 C   0  0  0  0  0  0  0  0  0  0  0  0
  -20.7606   -7.2918   23.3615 C   0  0  0  0  0  0  0  0  0  0  0  0
  -19.0605   -7.5646   25.5565 C   0  0  0  0  0  0  0  0  0  0  0  0
  -31.6356  -16.7111   22.8488 C   0  0  0  0  0  0  0  0  0  0  0  0
  -20.9327   -6.4794   24.4823 C   0  0  0  0  0  0  0  0  0  0  0  0
  -29.8543  -18.1569   22.0914 C   0  0  0  0  0  0  0  0  0  0  0  0
  -24.6171  -11.6184   20.7564 C   0  0  0  0  0  0  0  0  0  0  0  0
  -25.2793  -13.6510   20.2417 C   0  0  0  0  0  0  0  0  0  0  0  0
  -29.6805  -20.5129   22.9010 C   0  0  0  0  0  0  0  0  0  0  0  0
  -22.8627  -13.4961   20.8617 C   0  0  0  0  0  0  0  0  0  0  0  0
  -22.3436  -28.8315   24.5465 C   0  0  0  0  0  0  0  0  0  0  0  0
  -26.9306  -21.9513   22.1384 C   0  0  0  0  0  0  0  0  0  0  0  0
  -24.8731  -29.5348   26.4515 C   0  0  0  0  0  0  0  0  0  0  0  0
  -27.7772  -28.4959   27.9122 C   0  0  0  0  0  0  0  0  0  0  0  0
  -30.7030  -14.8341   20.6740 C   0  0  0  0  0  0  0  0  0  0  0  0
  -18.9126  -32.5541   23.8920 C   0  0  0  0  0  0  0  0  0  0  0  0
  -22.2943  -26.9103   26.1782 C   0  0  0  0  0  0  0  0  0  0  0  0
  -25.0174  -27.3905   25.1300 C   0  0  0  0  0  0  0  0  0  0  0  0
  -20.4234  -32.4859   24.0993 C   0  0  0  0  0  0  0  0  0  0  0  0
  -29.8086  -12.0388   18.6582 C   0  0  0  0  0  0  0  0  0  0  0  0
  -21.0472  -31.4680   23.1499 C   0  0  0  0  0  0  0  0  0  0  0  0
  -28.3413  -11.7895   19.0145 C   0  0  0  0  0  0  0  0  0  0  0  0
  -30.6199  -12.4829   19.8741 C   0  0  0  0  0  0  0  0  0  0  0  0
  -28.5996  -13.3817   20.9601 C   0  0  0  0  0  0  0  0  0  0  0  0
  -20.5000  -30.0599   23.4137 C   0  0  1  0  0  0  0  0  0  0  0  0
  -22.8039  -28.3172   25.8812 C   0  0  1  0  0  0  0  0  0  0  0  0
  -27.7283  -12.9950   19.7539 C   0  0  2  0  0  0  0  0  0  0  0  0
  -29.6425  -29.3062   29.3825 C   0  0  0  0  0  0  0  0  0  0  0  0
  -29.6628  -22.7652   19.5138 C   0  0  0  0  0  0  0  0  0  0  0  0
  -26.0621  -31.0659   24.0952 C   0  0  0  0  0  0  0  0  0  0  0  0
  -28.2699  -31.0293   25.2753 C   0  0  0  0  0  0  0  0  0  0  0  0
  -26.3230  -32.1950   26.3114 C   0  0  0  0  0  0  0  0  0  0  0  0
  -27.1628  -26.4865   29.9964 C   0  0  0  0  0  0  0  0  0  0  0  0
  -26.3272  -23.1467   22.8506 C   0  0  0  0  0  0  0  0  0  1  0  0
  -28.3395  -22.1378   21.5905 C   0  0  2  0  0  0  0  0  0  0  0  0
  -26.3626  -29.6679   26.2450 C   0  0  1  0  0  0  0  0  0  0  0  0
  -28.2877  -28.6168   29.3367 C   0  0  2  0  0  0  0  0  0  0  0  0
  -28.2879  -22.6202   20.1438 C   0  0  2  0  0  0  0  0  0  0  0  0
  -26.7407  -30.9653   25.4759 C   0  0  0  0  0  0  0  0  0  0  0  0
  -25.9128  -11.4836   20.4616 N   0  0  0  0  0  0  0  0  0  0  0  0
  -26.2873  -12.7366   20.1524 N   0  0  0  0  0  0  0  0  0  0  0  0
  -24.2657  -28.4025   25.8905 N   0  0  0  0  0  0  0  0  0  0  0  0
  -29.9815  -13.6313   20.5210 N   0  0  0  0  0  0  0  0  0  0  0  0
  -25.4828  -14.9567   19.9657 N   0  0  0  0  0  0  0  0  0  0  0  0
  -21.8348  -12.6323   21.2637 N   0  0  0  0  0  0  0  0  0  0  0  0
  -29.9822  -15.8665   21.2735 N   0  0  0  0  0  0  0  0  0  0  0  0
  -29.0210  -20.8781   21.7344 N   0  0  0  0  0  0  0  0  0  0  0  0
  -21.1268  -29.4854   24.5848 N   0  0  0  0  0  0  0  0  0  0  0  0
  -26.9694  -29.5588   27.5672 N   0  0  0  0  0  0  0  0  0  0  0  0
  -28.4260  -27.2673   29.9537 N   0  3  0  0  0  0  0  0  0  0  0  0
  -29.7517  -21.2083   23.9109 O   0  0  0  0  0  0  0  0  0  0  0  0
  -22.6113  -14.7137   20.6951 O   0  0  0  0  0  0  0  0  0  0  0  0
  -23.0413  -28.6499   23.5557 O   0  0  0  0  0  0  0  0  0  0  0  0
  -26.3006  -20.9050   21.9823 O   0  0  0  0  0  0  0  0  0  0  0  0
  -24.2719  -30.3999   27.0933 O   0  0  0  0  0  0  0  0  0  0  0  0
  -28.0691  -27.5548   27.1777 O   0  0  0  0  0  0  0  0  0  0  0  0
  -31.8650  -14.9490   20.2760 O   0  0  0  0  0  0  0  0  0  0  0  0
  -21.6042   -7.1582   22.2715 O   0  0  0  0  0  0  0  0  0  0  0  0
  -25.0169  -22.8422   23.3270 O   0  0  0  0  0  0  0  0  0  1  0  0
  -18.2450   -7.6967   26.6109 F   0  0  0  0  0  0  0  0  0  0  0  0
  -32.2582  -15.5239   22.8413 F   0  0  0  0  0  0  0  0  0  0  0  0
  -21.9137   -5.5669   24.5109 F   0  0  0  0  0  0  0  0  0  0  0  0
  -28.7553  -18.3553   21.3474 F   0  0  0  0  0  0  0  0  0  0  0  0
  -27.5765  -21.7250   19.4010 F   0  0  0  0  0  0  0  0  0  0  0  0
  1  2  1  0  0  0  0
  1  6  2  0  0  0  0
  2  7  2  0  0  0  0
  3  9  2  0  0  0  0
  3 17  1  0  0  0  0
  4 10  1  0  0  0  0
  4 17  2  0  0  0  0
  5 13  2  0  0  0  0
  5 18  1  0  0  0  0
  6 20  1  0  0  0  0
  7 22  1  0  0  0  0
  8 11  2  0  0  0  0
  8 21  1  0  0  0  0
  9 25  1  0  0  0  0
 10 25  2  0  0  0  0
 11 26  1  0  0  0  0
 12 14  2  0  0  0  0
 12 27  1  0  0  0  0
 13 29  1  0  0  0  0
 14 28  1  0  0  0  0
 15 23  1  0  0  0  0
 15 26  2  0  0  0  0
 16 28  2  0  0  0  0
 16 30  1  0  0  0  0
 17 32  1  0  0  0  0
 18 31  2  0  0  0  0
 18 34  1  0  0  0  0
 19 32  1  0  0  0  0
 19 33  2  0  0  0  0
 19 35  1  0  0  0  0
 20 22  2  0  0  0  0
 20 41  1  0  0  0  0
 21 23  2  0  0  0  0
 21 42  1  0  0  0  0
 22 50  1  0  0  0  0
 23 43  1  0  0  0  0
 24 29  2  0  0  0  0
 24 31  1  0  0  0  0
 24 71  1  0  0  0  0
 25 83  1  0  0  0  0
 26 84  1  0  0  0  0
 27 30  2  0  0  0  0
 27 83  1  0  0  0  0
 28 85  1  0  0  0  0
 29 86  1  0  0  0  0
 30 87  1  0  0  0  0
 31 88  1  0  0  0  0
 32 65  2  0  0  0  0
 33 66  1  0  0  0  0
 33 69  1  0  0  0  0
 34 72  1  0  0  0  0
 34 76  2  0  0  0  0
 35 70  1  0  0  0  0
 35 77  2  0  0  0  0
 36 51  1  0  0  0  0
 36 73  1  0  0  0  0
 36 78  2  0  0  0  0
 37 59  1  0  0  0  0
 37 60  1  0  0  0  0
 37 79  2  0  0  0  0
 38 61  1  0  0  0  0
 38 67  1  0  0  0  0
 38 80  2  0  0  0  0
 39 62  1  0  0  0  0
 39 74  1  0  0  0  0
 39 81  2  0  0  0  0
 40 68  1  0  0  0  0
 40 71  1  0  0  0  0
 40 82  2  0  0  0  0
 41 44  1  0  0  0  0
 42 51  1  0  0  0  0
 43 67  1  0  0  0  0
 44 46  1  0  0  0  0
 45 47  1  0  0  0  0
 45 48  1  0  0  0  0
 46 50  1  0  0  0  0
 47 52  1  0  0  0  0
 48 68  1  0  0  0  0
 49 52  1  0  0  0  0
 49 68  1  0  0  0  0
 50 73  1  0  0  0  0
 51 67  1  0  0  0  0
 52 66  1  0  0  0  0
 53 62  1  0  0  0  0
 54 63  1  0  0  0  0
 55 64  1  0  0  0  0
 56 64  1  0  0  0  0
 57 64  1  0  0  0  0
 58 75  1  0  0  0  0
 59 84  1  0  0  0  0
 60 63  1  0  0  0  0
 60 72  1  0  0  0  0
 61 64  1  0  0  0  0
 61 74  1  0  0  0  0
 62 75  1  0  0  0  0
 63 89  1  0  0  0  0
 65 66  1  0  0  0  0
M  CHG  1  75   1
M  ISO  4  40 100  59 101  71 100  84 101
M  END
> <Batch ID>
0175

> <Smiles>
CNC(C)C(=O)NC(C(=O)N1Cc2cc([101O:1][101CH2:1]C(=O)C(NC(=O)c3ccc(F)c([100NH:0][100C:0](=O)N4CCCC(n5nc(-c6ccc(Oc7ccc(F)cc7F)cc6)c(C(N)=O)c5N)C4)c3F)C(C)F)ccc2CC1C(=O)NC1CCCc2ccccc21)C(C)(C)C

> <Shape>
0.297

> <Color>
0.224

> <Negative vol penalty>
0.000

$$$$

  -OEChem-04052304353D

 87 95  0     1  0  0  0  0  0999 V2000
  -27.5896  -32.6178   27.4720 C   0  0  0  0  0  0  0  0  0  0  0  0
  -27.8105  -31.5849   26.5666 C   0  0  0  0  0  0  0  0  0  0  0  0
  -23.5046   -8.9892   21.3543 C   0  0  0  0  0  0  0  0  0  0  0  0
  -24.2292   -9.8481   23.4931 C   0  0  0  0  0  0  0  0  0  0  0  0
  -26.2872  -33.0209   27.7637 C   0  0  0  0  0  0  0  0  0  0  0  0
  -26.7290  -30.9537   25.9532 C   0  0  0  0  0  0  0  0  0  0  0  0
  -27.4380  -30.2752   20.9851 C   0  0  0  0  0  0  0  0  0  0  0  0
  -23.5728   -7.6885   21.8535 C   0  0  0  0  0  0  0  0  0  0  0  0
  -24.2973   -8.5474   23.9923 C   0  0  0  0  0  0  0  0  0  0  0  0
  -28.2637  -29.2207   20.5980 C   0  0  0  0  0  0  0  0  0  0  0  0
  -21.6928   -5.6686   23.8076 C   0  0  0  0  0  0  0  0  0  0  0  0
  -20.6296   -4.8103   23.5277 C   0  0  0  0  0  0  0  0  0  0  0  0
  -26.3165  -27.8765   20.1281 C   0  0  0  0  0  0  0  0  0  0  0  0
  -28.9339  -18.2598   22.0364 C   0  0  0  0  0  0  0  0  0  0  0  0
  -22.1425   -3.3060   22.3939 C   0  0  0  0  0  0  0  0  0  0  0  0
  -28.6991  -18.0125   24.8052 C   0  0  0  0  0  0  0  0  0  0  0  0
  -23.8328  -10.0690   22.1741 C   0  0  0  0  0  0  0  0  0  0  0  0
  -22.6528  -12.2778   21.6879 C   0  0  0  0  0  0  0  0  0  0  0  0
  -25.1895  -32.4008   27.1463 C   0  0  0  0  0  0  0  0  0  0  0  0
  -26.0431  -30.1344   20.9570 C   0  0  0  0  0  0  0  0  0  0  0  0
  -25.4106  -31.3480   26.2379 C   0  0  0  0  0  0  0  0  0  0  0  0
  -25.4753  -28.9316   20.5130 C   0  0  0  0  0  0  0  0  0  0  0  0
  -29.1245  -19.3732   22.8546 C   0  0  0  0  0  0  0  0  0  0  0  0
  -28.6257  -17.0227   22.6025 C   0  0  0  0  0  0  0  0  0  0  0  0
  -23.9691   -7.4676   23.1724 C   0  0  0  0  0  0  0  0  0  0  0  0
  -27.7030  -28.0201   20.1721 C   0  0  0  0  0  0  0  0  0  0  0  0
  -22.9809   -5.3457   23.3806 C   0  0  0  0  0  0  0  0  0  0  0  0
  -20.8544   -3.6290   22.8209 C   0  0  0  0  0  0  0  0  0  0  0  0
  -29.0072  -19.2496   24.2390 C   0  0  0  0  0  0  0  0  0  0  0  0
  -28.5084  -16.8991   23.9869 C   0  0  0  0  0  0  0  0  0  0  0  0
  -23.2057   -4.1644   22.6738 C   0  0  0  0  0  0  0  0  0  0  0  0
  -23.7631  -11.4128   21.6589 C   0  0  0  0  0  0  0  0  0  0  0  0
  -23.0959  -13.4258   21.0777 C   0  0  0  0  0  0  0  0  0  0  0  0
  -21.3385  -12.0629   22.2189 C   0  0  0  0  0  0  0  0  0  0  0  0
  -29.9196  -22.3509   20.6916 C   0  0  0  0  0  0  0  0  0  0  0  0
  -29.5867  -20.9068   20.9368 C   0  0  0  0  0  0  0  0  0  0  0  0
  -23.7339  -30.2354   23.1390 C   0  0  0  0  0  0  0  0  0  0  0  0
  -21.8041  -30.0042   20.5419 C   0  0  0  0  0  0  0  0  0  0  0  0
  -21.4237  -29.0333   17.2923 C   0  0  0  0  0  0  0  0  0  0  0  0
  -28.5140  -15.8464   20.3776 C   0  0  0  0  0  0  0  0  0  0  0  0
  -23.7982  -32.8393   27.5291 C   0  0  0  0  0  0  0  0  0  0  0  0
  -25.1659  -31.2905   21.3524 C   0  0  0  0  0  0  0  0  0  0  0  0
  -23.9834  -28.7365   20.4450 C   0  0  0  0  0  0  0  0  0  0  0  0
  -22.7218  -32.3705   26.5535 C   0  0  0  0  0  0  0  0  0  0  0  0
  -26.2319  -14.9512   17.7954 C   0  0  0  0  0  0  0  0  0  0  0  0
  -22.9126  -30.8950   26.2167 C   0  0  0  0  0  0  0  0  0  0  0  0
  -25.2352  -14.0258   18.4972 C   0  0  0  0  0  0  0  0  0  0  0  0
  -27.6538  -14.7541   18.3180 C   0  0  0  0  0  0  0  0  0  0  0  0
  -26.8023  -13.9292   20.4776 C   0  0  0  0  0  0  0  0  0  0  0  0
  -24.2643  -30.6554   25.5334 C   0  0  1  0  0  0  0  0  0  0  0  0
  -23.7640  -30.8604   21.7729 C   0  0  1  0  0  0  0  0  0  0  0  0
  -25.3461  -14.1371   20.0305 C   0  0  2  0  0  0  0  0  0  0  0  0
  -19.7211  -28.9380   15.4513 C   0  0  0  0  0  0  0  0  0  0  0  0
  -20.4757  -27.6150   21.8973 C   0  0  0  0  0  0  0  0  0  0  0  0
  -19.4849  -26.9980   19.6824 C   0  0  0  0  0  0  0  0  0  0  0  0
  -18.8942  -29.1747   20.7481 C   0  0  0  0  0  0  0  0  0  0  0  0
  -23.0420  -30.7923   15.5471 C   0  0  0  0  0  0  0  0  0  0  0  0
  -28.7524  -23.2885   20.4813 C   0  0  0  0  0  0  0  0  0  0  0  0
  -29.1865  -24.7293   20.2305 C   0  0  0  0  0  0  0  0  0  0  0  0
  -28.0079  -25.6678   19.9996 C   0  0  0  0  0  0  0  0  0  1  0  0
  -21.1995  -28.8650   19.7573 C   0  0  1  0  0  0  0  0  0  0  0  0
  -20.8379  -29.7497   16.0890 C   0  0  2  0  0  0  0  0  0  0  0  0
  -20.0417  -28.1659   20.5243 C   0  0  0  0  0  0  0  0  0  0  0  0
  -24.8311  -11.9640   21.0762 N   0  0  0  0  0  0  0  0  0  0  0  0
  -24.3940  -13.1877   20.7334 N   0  0  0  0  0  0  0  0  0  0  0  0
  -23.1679  -29.8942   20.8481 N   0  0  0  0  0  0  0  0  0  0  0  0
  -27.6823  -14.8777   19.7771 N   0  0  0  0  0  0  0  0  0  0  0  0
  -22.4979  -14.6055   20.8074 N   0  0  0  0  0  0  0  0  0  0  0  0
  -21.0516  -10.8259   22.8120 N   0  0  0  0  0  0  0  0  0  0  0  0
  -29.4373  -20.6263   22.2780 N   0  0  0  0  0  0  0  0  0  0  0  0
  -28.4330  -15.8932   21.7689 N   0  0  0  0  0  0  0  0  0  0  0  0
  -24.2066  -31.0573   24.1442 N   0  0  0  0  0  0  0  0  0  0  0  0
  -20.8108  -29.4202   18.4653 N   0  0  0  0  0  0  0  0  0  0  0  0
  -21.8924  -29.9856   15.0627 N   0  3  0  0  0  0  0  0  0  0  0  0
  -20.4400  -12.9359   22.1543 O   0  0  0  0  0  0  0  0  0  0  0  0
  -31.1013  -22.6618   20.6954 O   0  0  0  0  0  0  0  0  0  0  0  0
  -29.5205  -20.1879   19.9534 O   0  0  0  0  0  0  0  0  0  0  0  0
  -23.3116  -29.0927   23.2714 O   0  0  0  0  0  0  0  0  0  0  0  0
  -21.0943  -30.9599   20.8648 O   0  0  0  0  0  0  0  0  0  0  0  0
  -22.3315  -28.2098   17.2005 O   0  0  0  0  0  0  0  0  0  0  0  0
  -29.2240  -16.5988   19.7054 O   0  0  0  0  0  0  0  0  0  0  0  0
  -24.0356   -6.1986   23.6599 O   0  0  0  0  0  0  0  0  0  0  0  0
  -28.5067  -26.9890   19.7943 O   0  0  0  0  0  0  0  0  0  1  0  0
  -19.8336   -2.8040   22.5535 F   0  0  0  0  0  0  0  0  0  0  0  0
  -29.1883  -20.3126   25.0355 F   0  0  0  0  0  0  0  0  0  0  0  0
  -28.2126  -15.7153   24.5423 F   0  0  0  0  0  0  0  0  0  0  0  0
  -24.4412   -3.8483   22.2620 F   0  0  0  0  0  0  0  0  0  0  0  0
  1  2  1  0  0  0  0
  1  5  2  0  0  0  0
  2  6  2  0  0  0  0
  3  8  2  0  0  0  0
  3 17  1  0  0  0  0
  4  9  1  0  0  0  0
  4 17  2  0  0  0  0
  5 19  1  0  0  0  0
  6 21  1  0  0  0  0
  7 10  2  0  0  0  0
  7 20  1  0  0  0  0
  8 25  1  0  0  0  0
  9 25  2  0  0  0  0
 10 26  1  0  0  0  0
 11 12  2  0  0  0  0
 11 27  1  0  0  0  0
 12 28  1  0  0  0  0
 13 22  1  0  0  0  0
 13 26  2  0  0  0  0
 14 23  1  0  0  0  0
 14 24  2  0  0  0  0
 15 28  2  0  0  0  0
 15 31  1  0  0  0  0
 16 29  1  0  0  0  0
 16 30  2  0  0  0  0
 17 32  1  0  0  0  0
 18 32  1  0  0  0  0
 18 33  2  0  0  0  0
 18 34  1  0  0  0  0
 19 21  2  0  0  0  0
 19 41  1  0  0  0  0
 20 22  2  0  0  0  0
 20 42  1  0  0  0  0
 21 50  1  0  0  0  0
 22 43  1  0  0  0  0
 23 29  2  0  0  0  0
 23 70  1  0  0  0  0
 24 30  1  0  0  0  0
 24 71  1  0  0  0  0
 25 82  1  0  0  0  0
 26 83  1  0  0  0  0
 27 31  2  0  0  0  0
 27 82  1  0  0  0  0
 28 84  1  0  0  0  0
 29 85  1  0  0  0  0
 30 86  1  0  0  0  0
 31 87  1  0  0  0  0
 32 64  2  0  0  0  0
 33 65  1  0  0  0  0
 33 68  1  0  0  0  0
 34 69  1  0  0  0  0
 34 75  2  0  0  0  0
 35 36  1  0  0  0  0
 35 58  1  0  0  0  0
 35 76  2  0  0  0  0
 36 70  1  0  0  0  0
 36 77  2  0  0  0  0
 37 51  1  0  0  0  0
 37 72  1  0  0  0  0
 37 78  2  0  0  0  0
 38 61  1  0  0  0  0
 38 66  1  0  0  0  0
 38 79  2  0  0  0  0
 39 62  1  0  0  0  0
 39 73  1  0  0  0  0
 39 80  2  0  0  0  0
 40 67  1  0  0  0  0
 40 71  1  0  0  0  0
 40 81  2  0  0  0  0
 41 44  1  0  0  0  0
 42 51  1  0  0  0  0
 43 66  1  0  0  0  0
 44 46  1  0  0  0  0
 45 47  1  0  0  0  0
 45 48  1  0  0  0  0
 46 50  1  0  0  0  0
 47 52  1  0  0  0  0
 48 67  1  0  0  0  0
 49 52  1  0  0  0  0
 49 67  1  0  0  0  0
 50 72  1  0  0  0  0
 51 66  1  0  0  0  0
 52 65  1  0  0  0  0
 53 62  1  0  0  0  0
 54 63  1  0  0  0  0
 55 63  1  0  0  0  0
 56 63  1  0  0  0  0
 57 74  1  0  0  0  0
 58 59  1  0  0  0  0
 59 60  1  0  0  0  0
 60 83  1  0  0  0  0
 61 63  1  0  0  0  0
 61 73  1  0  0  0  0
 62 74  1  0  0  0  0
 64 65  1  0  0  0  0
M  CHG  1  74   1
M  ISO  4  40 100  60 101  71 100  83 101
M  END
> <Batch ID>
0175

> <Smiles>
CNC(C)C(=O)NC(C(=O)N1Cc2cc([101O:1][101CH2:1]CCC(=O)C(=O)Nc3cc([100NH:0][100C:0](=O)N4CCCC(n5nc(-c6ccc(Oc7ccc(F)cc7F)cc6)c(C(N)=O)c5N)C4)c(F)cc3F)ccc2CC1C(=O)NC1CCCc2ccccc21)C(C)(C)C

> <Shape>
0.294

> <Color>
0.112

> <Negative vol penalty>
0.000

$$$$

  -OEChem-04052304353D

 87 95  0     1  0  0  0  0  0999 V2000
  -31.6604  -30.1393   15.9202 C   0  0  0  0  0  0  0  0  0  0  0  0
  -31.1876  -30.2524   17.2237 C   0  0  0  0  0  0  0  0  0  0  0  0
  -23.1364   -9.9164   19.9246 C   0  0  0  0  0  0  0  0  0  0  0  0
  -23.7367   -9.9702   22.2642 C   0  0  0  0  0  0  0  0  0  0  0  0
  -31.2609  -29.0654   15.1258 C   0  0  0  0  0  0  0  0  0  0  0  0
  -30.3141  -29.2923   17.7332 C   0  0  0  0  0  0  0  0  0  0  0  0
  -30.9517  -24.8362   24.1178 C   0  0  0  0  0  0  0  0  0  0  0  0
  -30.8479  -17.7204   24.3495 C   0  0  0  0  0  0  0  0  0  0  0  0
  -22.3928   -8.7565   20.1421 C   0  0  0  0  0  0  0  0  0  0  0  0
  -22.9930   -8.8103   22.4817 C   0  0  0  0  0  0  0  0  0  0  0  0
  -31.0244  -23.8826   25.1335 C   0  0  0  0  0  0  0  0  0  0  0  0
  -23.3666   -5.4847   22.0006 C   0  0  0  0  0  0  0  0  0  0  0  0
  -23.9451   -4.4798   22.7759 C   0  0  0  0  0  0  0  0  0  0  0  0
  -30.2163  -16.7683   23.5571 C   0  0  0  0  0  0  0  0  0  0  0  0
  -29.5966  -22.4028   23.8608 C   0  0  0  0  0  0  0  0  0  0  0  0
  -22.1282   -4.6550   24.3588 C   0  0  0  0  0  0  0  0  0  0  0  0
  -23.8084  -10.5233   20.9857 C   0  0  0  0  0  0  0  0  0  0  0  0
  -24.1234  -13.0510   20.8476 C   0  0  0  0  0  0  0  0  0  0  0  0
  -30.3897  -28.0864   15.6290 C   0  0  0  0  0  0  0  0  0  0  0  0
  -30.2128  -24.5701   22.9617 C   0  0  0  0  0  0  0  0  0  0  0  0
  -29.9015  -28.2050   16.9443 C   0  0  0  0  0  0  0  0  0  0  0  0
  -29.5303  -23.3491   22.8347 C   0  0  0  0  0  0  0  0  0  0  0  0
  -32.2354  -17.7318   24.4401 C   0  0  0  0  0  0  0  0  0  0  0  0
  -22.3211   -8.2035   21.4206 C   0  0  0  0  0  0  0  0  0  0  0  0
  -30.3483  -22.6690   25.0054 C   0  0  0  0  0  0  0  0  0  0  0  0
  -22.1689   -6.0748   22.4044 C   0  0  0  0  0  0  0  0  0  0  0  0
  -23.3259   -4.0649   23.9549 C   0  0  0  0  0  0  0  0  0  0  0  0
  -21.5497   -5.6600   23.5835 C   0  0  0  0  0  0  0  0  0  0  0  0
  -24.5772  -11.7211   20.7616 C   0  0  0  0  0  0  0  0  0  0  0  0
  -31.0110  -15.8569   22.8808 C   0  0  0  0  0  0  0  0  0  0  0  0
  -32.9397  -16.7771   23.7243 C   0  0  0  0  0  0  0  0  0  0  0  0
  -25.2277  -13.8106   20.5477 C   0  0  0  0  0  0  0  0  0  0  0  0
  -22.8203  -13.5546   21.1700 C   0  0  0  0  0  0  0  0  0  0  0  0
  -29.0627  -25.7777   19.6009 C   0  0  0  0  0  0  0  0  0  0  0  0
  -31.5260  -19.7922   26.8626 C   0  0  0  0  0  0  0  0  0  0  0  0
  -29.7579  -22.8061   19.2900 C   0  0  0  0  0  0  0  0  0  0  0  0
  -31.0270  -19.6397   19.2691 C   0  0  0  0  0  0  0  0  0  0  0  0
  -30.9519  -13.8844   21.3149 C   0  0  0  0  0  0  0  0  0  0  0  0
  -29.9486  -26.9692   14.7169 C   0  0  0  0  0  0  0  0  0  0  0  0
  -30.0564  -25.5928   21.8692 C   0  0  0  0  0  0  0  0  0  0  0  0
  -28.7195  -23.1203   21.5885 C   0  0  0  0  0  0  0  0  0  0  0  0
  -29.3160  -25.7930   15.4563 C   0  0  0  0  0  0  0  0  0  0  0  0
  -29.4991  -12.9731   18.1946 C   0  0  0  0  0  0  0  0  0  0  0  0
  -28.3004  -26.2901   16.4802 C   0  0  0  0  0  0  0  0  0  0  0  0
  -28.0371  -12.6871   18.5451 C   0  0  0  0  0  0  0  0  0  0  0  0
  -30.4475  -12.5172   19.3020 C   0  0  0  0  0  0  0  0  0  0  0  0
  -28.6689  -12.7446   20.9914 C   0  0  0  0  0  0  0  0  0  0  0  0
  -28.9722  -27.1704   17.5410 C   0  0  1  0  0  0  0  0  0  0  0  0
  -29.9857  -24.9686   20.4640 C   0  0  1  0  0  0  0  0  0  0  0  0
  -27.6711  -13.2452   19.9344 C   0  0  2  0  0  0  0  0  0  0  0  0
  -31.4027  -17.6782   17.7498 C   0  0  0  0  0  0  0  0  0  0  0  0
  -32.3596  -17.4053   27.2093 C   0  0  0  0  0  0  0  0  0  0  0  0
  -33.9553  -19.3513   27.2815 C   0  0  0  0  0  0  0  0  0  0  0  0
  -26.7909  -22.1172   19.4518 C   0  0  0  0  0  0  0  0  0  0  0  0
  -27.3714  -19.7741   18.7875 C   0  0  0  0  0  0  0  0  0  0  0  0
  -27.8478  -21.6643   17.2309 C   0  0  0  0  0  0  0  0  0  0  0  0
  -33.9590  -19.7545   19.6551 C   0  0  0  0  0  0  0  0  0  0  0  0
  -29.2618  -21.3824   19.3077 C   0  0  1  0  0  0  0  0  0  0  0  0
  -32.0004  -18.9505   18.3299 C   0  0  2  0  0  0  0  0  0  0  0  0
  -32.6764  -18.7942   26.6542 C   0  0  0  0  0  0  0  0  0  0  0  0
  -31.7046  -21.2153   26.3581 C   0  0  0  0  0  0  0  0  0  1  0  0
  -27.8299  -21.2464   18.7174 C   0  0  0  0  0  0  0  0  0  0  0  0
  -25.8690  -11.6373   20.4326 N   0  0  0  0  0  0  0  0  0  0  0  0
  -32.3612  -15.8366   22.9442 N   0  0  0  0  0  0  0  0  0  0  0  0
  -26.2364  -12.9241   20.3092 N   0  0  0  0  0  0  0  0  0  0  0  0
  -29.4643  -23.5923   20.4108 N   0  0  0  0  0  0  0  0  0  0  0  0
  -30.0415  -13.0884   20.5880 N   0  0  0  0  0  0  0  0  0  0  0  0
  -25.4246  -15.1437   20.4673 N   0  0  0  0  0  0  0  0  0  0  0  0
  -21.8000  -12.6360   21.4521 N   0  0  0  0  0  0  0  0  0  0  0  0
  -32.8851  -18.6660   25.2202 N   0  0  0  0  0  0  0  0  0  0  0  0
  -30.3579  -14.8897   22.0771 N   0  0  0  0  0  0  0  0  0  0  0  0
  -29.6770  -26.3521   18.5044 N   0  0  0  0  0  0  0  0  0  0  0  0
  -30.2716  -20.5896   18.6147 N   0  0  0  0  0  0  0  0  0  0  0  0
  -33.2536  -18.5938   19.0532 N   0  3  0  0  0  0  0  0  0  0  0  0
  -22.5640  -14.7824   21.1907 O   0  0  0  0  0  0  0  0  0  0  0  0
  -27.8796  -25.8734   19.9054 O   0  0  0  0  0  0  0  0  0  0  0  0
  -30.4715  -19.4480   27.4038 O   0  0  0  0  0  0  0  0  0  0  0  0
  -30.3840  -23.2144   18.3078 O   0  0  0  0  0  0  0  0  0  0  0  0
  -30.9425  -19.3605   20.4630 O   0  0  0  0  0  0  0  0  0  0  0  0
  -32.1705  -13.7059   21.2436 O   0  0  0  0  0  0  0  0  0  0  0  0
  -21.5954   -7.0718   21.6332 O   0  0  0  0  0  0  0  0  0  0  0  0
  -30.4273  -21.7407   25.9987 O   0  0  0  0  0  0  0  0  0  1  0  0
  -23.8808   -3.0989   24.6985 F   0  0  0  0  0  0  0  0  0  0  0  0
  -20.3984   -6.2223   23.9759 F   0  0  0  0  0  0  0  0  0  0  0  0
  -34.2809  -16.7676   23.7960 F   0  0  0  0  0  0  0  0  0  0  0  0
  -32.5203  -21.2570   25.2743 F   0  0  0  0  0  0  0  0  0  0  0  0
  -32.2462  -21.9990   27.3261 F   0  0  0  0  0  0  0  0  0  0  0  0
  1  2  1  0  0  0  0
  1  5  2  0  0  0  0
  2  6  2  0  0  0  0
  3  9  2  0  0  0  0
  3 17  1  0  0  0  0
  4 10  1  0  0  0  0
  4 17  2  0  0  0  0
  5 19  1  0  0  0  0
  6 21  1  0  0  0  0
  7 11  2  0  0  0  0
  7 20  1  0  0  0  0
  8 14  2  0  0  0  0
  8 23  1  0  0  0  0
  9 24  1  0  0  0  0
 10 24  2  0  0  0  0
 11 25  1  0  0  0  0
 12 13  2  0  0  0  0
 12 26  1  0  0  0  0
 13 27  1  0  0  0  0
 14 30  1  0  0  0  0
 15 22  1  0  0  0  0
 15 25  2  0  0  0  0
 16 27  2  0  0  0  0
 16 28  1  0  0  0  0
 17 29  1  0  0  0  0
 18 29  1  0  0  0  0
 18 32  2  0  0  0  0
 18 33  1  0  0  0  0
 19 21  2  0  0  0  0
 19 39  1  0  0  0  0
 20 22  2  0  0  0  0
 20 40  1  0  0  0  0
 21 48  1  0  0  0  0
 22 41  1  0  0  0  0
 23 31  2  0  0  0  0
 23 70  1  0  0  0  0
 24 81  1  0  0  0  0
 25 82  1  0  0  0  0
 26 28  2  0  0  0  0
 26 81  1  0  0  0  0
 27 83  1  0  0  0  0
 28 84  1  0  0  0  0
 29 63  2  0  0  0  0
 30 64  2  0  0  0  0
 30 71  1  0  0  0  0
 31 64  1  0  0  0  0
 31 85  1  0  0  0  0
 32 65  1  0  0  0  0
 32 68  1  0  0  0  0
 33 69  1  0  0  0  0
 33 75  2  0  0  0  0
 34 49  1  0  0  0  0
 34 72  1  0  0  0  0
 34 76  2  0  0  0  0
 35 60  1  0  0  0  0
 35 61  1  0  0  0  0
 35 77  2  0  0  0  0
 36 58  1  0  0  0  0
 36 66  1  0  0  0  0
 36 78  2  0  0  0  0
 37 59  1  0  0  0  0
 37 73  1  0  0  0  0
 37 79  2  0  0  0  0
 38 67  1  0  0  0  0
 38 71  1  0  0  0  0
 38 80  2  0  0  0  0
 39 42  1  0  0  0  0
 40 49  1  0  0  0  0
 41 66  1  0  0  0  0
 42 44  1  0  0  0  0
 43 45  1  0  0  0  0
 43 46  1  0  0  0  0
 44 48  1  0  0  0  0
 45 50  1  0  0  0  0
 46 67  1  0  0  0  0
 47 50  1  0  0  0  0
 47 67  1  0  0  0  0
 48 72  1  0  0  0  0
 49 66  1  0  0  0  0
 50 65  1  0  0  0  0
 51 59  1  0  0  0  0
 52 60  1  0  0  0  0
 53 60  1  0  0  0  0
 54 62  1  0  0  0  0
 55 62  1  0  0  0  0
 56 62  1  0  0  0  0
 57 74  1  0  0  0  0
 58 62  1  0  0  0  0
 58 73  1  0  0  0  0
 59 74  1  0  0  0  0
 60 70  1  0  0  0  0
 61 82  1  0  0  0  0
 61 86  1  0  0  0  0
 61 87  1  0  0  0  0
 63 65  1  0  0  0  0
M  CHG  1  74   1
M  ISO  4  38 100  61 101  71 100  82 101
M  END
> <Batch ID>
0175

> <Smiles>
CNC(C)C(=O)NC(C(=O)N1Cc2cc([101O:1][101C:1](F)(F)C(=O)C(C)(C)Nc3ccc([100NH:0][100C:0](=O)N4CCCC(n5nc(-c6ccc(Oc7ccc(F)cc7F)cc6)c(C(N)=O)c5N)C4)nc3F)ccc2CC1C(=O)NC1CCCc2ccccc21)C(C)(C)C

> <Shape>
0.234

> <Color>
0.185

> <Negative vol penalty>
0.000

$$$$

  -OEChem-04052304353D

 86 94  0     1  0  0  0  0  0999 V2000
  -31.5666  -26.1916   13.9256 C   0  0  0  0  0  0  0  0  0  0  0  0
  -30.8458  -25.2611   14.6673 C   0  0  0  0  0  0  0  0  0  0  0  0
  -28.2768  -22.0331   23.6695 C   0  0  0  0  0  0  0  0  0  0  0  0
  -30.6573  -21.8738   23.2887 C   0  0  0  0  0  0  0  0  0  0  0  0
  -31.9335  -27.4071   14.5016 C   0  0  0  0  0  0  0  0  0  0  0  0
  -30.4925  -25.5452   15.9859 C   0  0  0  0  0  0  0  0  0  0  0  0
  -25.3658  -23.8439   18.8717 C   0  0  0  0  0  0  0  0  0  0  0  0
  -28.5114  -22.7797   24.8241 C   0  0  0  0  0  0  0  0  0  0  0  0
  -30.8919  -22.6204   24.4434 C   0  0  0  0  0  0  0  0  0  0  0  0
  -25.0865  -22.7968   19.7489 C   0  0  0  0  0  0  0  0  0  0  0  0
  -30.8048  -25.8700   25.3669 C   0  0  0  0  0  0  0  0  0  0  0  0
  -31.7479  -26.8950   25.2935 C   0  0  0  0  0  0  0  0  0  0  0  0
  -25.4309  -24.2803   21.6197 C   0  0  0  0  0  0  0  0  0  0  0  0
  -21.3831  -17.9421   19.3630 C   0  0  0  0  0  0  0  0  0  0  0  0
  -33.0520  -25.8186   27.0191 C   0  0  0  0  0  0  0  0  0  0  0  0
  -29.3497  -21.5801   22.9018 C   0  0  0  0  0  0  0  0  0  0  0  0
  -28.9317  -21.2978   20.4012 C   0  0  0  0  0  0  0  0  0  0  0  0
  -31.5761  -27.7103   15.8249 C   0  0  0  0  0  0  0  0  0  0  0  0
  -25.6909  -25.1164   19.3629 C   0  0  0  0  0  0  0  0  0  0  0  0
  -30.8561  -26.7654   16.5807 C   0  0  0  0  0  0  0  0  0  0  0  0
  -25.7113  -25.3425   20.7466 C   0  0  0  0  0  0  0  0  0  0  0  0
  -21.2043  -16.6684   18.8316 C   0  0  0  0  0  0  0  0  0  0  0  0
  -29.8190  -23.0733   25.2110 C   0  0  0  0  0  0  0  0  0  0  0  0
  -25.1219  -23.0142   21.1232 C   0  0  0  0  0  0  0  0  0  0  0  0
  -30.9852  -24.8193   26.2664 C   0  0  0  0  0  0  0  0  0  0  0  0
  -32.8716  -26.8693   26.1196 C   0  0  0  0  0  0  0  0  0  0  0  0
  -32.1088  -24.7936   27.0925 C   0  0  0  0  0  0  0  0  0  0  0  0
  -22.1350  -15.6688   19.0981 C   0  0  0  0  0  0  0  0  0  0  0  0
  -29.1080  -20.8084   21.7093 C   0  0  0  0  0  0  0  0  0  0  0  0
  -23.2298  -15.9704   19.8956 C   0  0  0  0  0  0  0  0  0  0  0  0
  -28.7352  -20.1732   19.6374 C   0  0  0  0  0  0  0  0  0  0  0  0
  -22.4968  -18.1861   20.1539 C   0  0  0  0  0  0  0  0  0  0  0  0
  -28.9446  -22.6481   19.9195 C   0  0  0  0  0  0  0  0  0  0  0  0
  -24.2760  -14.9723   20.2361 C   0  0  0  0  0  0  0  0  0  0  0  0
  -28.2370  -27.0100   19.1756 C   0  0  0  0  0  0  0  0  0  0  0  0
  -26.2926  -29.1222   20.6855 C   0  0  0  0  0  0  0  0  0  0  0  0
  -23.5751  -29.6416   22.6836 C   0  0  0  0  0  0  0  0  0  0  0  0
  -23.7269  -19.9173   21.5062 C   0  0  0  0  0  0  0  0  0  0  0  0
  -26.6681  -14.7271   20.8201 C   0  0  0  0  0  0  0  0  0  0  0  0
  -32.0361  -29.0177   16.4198 C   0  0  0  0  0  0  0  0  0  0  0  0
  -25.9634  -26.2420   18.4031 C   0  0  0  0  0  0  0  0  0  0  0  0
  -26.0349  -26.6952   21.3245 C   0  0  0  0  0  0  0  0  0  0  0  0
  -31.2990  -29.3963   17.7018 C   0  0  0  0  0  0  0  0  0  0  0  0
  -29.8431  -15.5122   19.4785 C   0  0  0  0  0  0  0  0  0  0  0  0
  -31.2178  -28.1996   18.6442 C   0  0  0  0  0  0  0  0  0  0  0  0
  -29.9957  -17.0088   19.7637 C   0  0  0  0  0  0  0  0  0  0  0  0
  -29.1387  -14.7853   20.6231 C   0  0  0  0  0  0  0  0  0  0  0  0
  -28.0108  -16.8590   21.3200 C   0  0  0  0  0  0  0  0  0  0  0  0
  -30.4328  -27.0471   18.0060 C   0  0  1  0  0  0  0  0  0  0  0  0
  -26.7860  -27.3684   19.0212 C   0  0  1  0  0  0  0  0  0  0  0  0
  -28.6514  -17.6477   20.1665 C   0  0  1  0  0  0  0  0  0  0  0  0
  -22.2547  -31.4748   23.7759 C   0  0  0  0  0  0  0  0  0  0  0  0
  -22.8276  -21.5492   23.2055 C   0  0  0  0  0  0  0  0  0  0  0  0
  -28.4807  -29.4424   22.7877 C   0  0  0  0  0  0  0  0  0  0  0  0
  -26.7823  -30.4982   24.2940 C   0  0  0  0  0  0  0  0  0  0  0  0
  -27.3574  -31.5741   22.1182 C   0  0  0  0  0  0  0  0  0  0  0  0
  -21.1172  -28.9096   21.2065 C   0  0  0  0  0  0  0  0  0  0  0  0
  -25.9850  -29.4508   22.1265 C   0  0  1  0  0  0  0  0  0  0  0  0
  -22.3927  -30.5843   22.5509 C   0  0  2  0  0  0  0  0  0  0  0  0
  -23.5624  -21.3874   21.8830 C   0  0  1  0  0  0  0  0  0  1  0  0
  -27.1471  -30.2153   22.8211 C   0  0  0  0  0  0  0  0  0  0  0  0
  -29.0301  -19.4767   21.7765 N   0  0  0  0  0  0  0  0  0  0  0  0
  -28.8027  -19.1197   20.5009 N   0  0  0  0  0  0  0  0  0  0  0  0
  -23.3775  -17.2053   20.3945 N   0  3  0  0  0  0  0  0  0  0  0  0
  -26.3002  -27.7621   20.3453 N   0  0  0  0  0  0  0  0  0  0  0  0
  -27.8705  -15.4461   20.9369 N   0  0  0  0  0  0  0  0  0  0  0  0
  -20.0810  -16.3934   18.0247 N   0  0  0  0  0  0  0  0  0  0  0  0
  -28.5128  -19.9927   18.3182 N   0  0  0  0  0  0  0  0  0  0  0  0
  -29.1602  -23.6835   20.8391 N   0  0  0  0  0  0  0  0  0  0  0  0
  -22.6836  -19.4796   20.6970 N   0  0  0  0  0  0  0  0  0  0  0  0
  -25.5549  -15.4884   20.4470 N   0  0  0  0  0  0  0  0  0  0  0  0
  -29.0107  -27.3077   18.0700 N   0  0  0  0  0  0  0  0  0  0  0  0
  -24.7162  -30.1710   22.1191 N   0  0  0  0  0  0  0  0  0  0  0  0
  -21.1293  -29.8108   22.3875 N   0  3  0  0  0  0  0  0  0  0  0  0
  -28.7537  -22.9294   18.7120 O   0  0  0  0  0  0  0  0  0  0  0  0
  -23.9611  -13.7908   20.3493 O   0  0  0  0  0  0  0  0  0  0  0  0
  -28.6261  -26.5025   20.2209 O   0  0  0  0  0  0  0  0  0  0  0  0
  -26.5107  -30.0390   19.8895 O   0  0  0  0  0  0  0  0  0  0  0  0
  -23.4953  -28.5467   23.2363 O   0  0  0  0  0  0  0  0  0  0  0  0
  -24.6939  -19.2661   21.8910 O   0  0  0  0  0  0  0  0  0  0  0  0
  -26.5988  -13.5065   20.9954 O   0  0  0  0  0  0  0  0  0  0  0  0
  -30.0483  -23.8020   26.3375 O   0  0  0  0  0  0  0  0  0  0  0  0
  -24.8503  -21.9938   21.9816 O   0  0  0  0  0  0  0  0  0  1  0  0
  -33.7780  -27.8529   26.0479 F   0  0  0  0  0  0  0  0  0  0  0  0
  -32.2881  -23.7862   27.9579 F   0  0  0  0  0  0  0  0  0  0  0  0
  -21.9784  -14.4365   18.5943 F   0  0  0  0  0  0  0  0  0  0  0  0
  1  2  1  0  0  0  0
  1  5  2  0  0  0  0
  2  6  2  0  0  0  0
  3  8  2  0  0  0  0
  3 16  1  0  0  0  0
  4  9  1  0  0  0  0
  4 16  2  0  0  0  0
  5 18  1  0  0  0  0
  6 20  1  0  0  0  0
  7 10  2  0  0  0  0
  7 19  1  0  0  0  0
  8 23  1  0  0  0  0
  9 23  2  0  0  0  0
 10 24  1  0  0  0  0
 11 12  2  0  0  0  0
 11 25  1  0  0  0  0
 12 26  1  0  0  0  0
 13 21  1  0  0  0  0
 13 24  2  0  0  0  0
 14 22  2  0  0  0  0
 14 32  1  0  0  0  0
 15 26  2  0  0  0  0
 15 27  1  0  0  0  0
 16 29  1  0  0  0  0
 17 29  1  0  0  0  0
 17 31  2  0  0  0  0
 17 33  1  0  0  0  0
 18 20  2  0  0  0  0
 18 40  1  0  0  0  0
 19 21  2  0  0  0  0
 19 41  1  0  0  0  0
 20 49  1  0  0  0  0
 21 42  1  0  0  0  0
 22 28  1  0  0  0  0
 22 67  1  0  0  0  0
 23 82  1  0  0  0  0
 24 83  1  0  0  0  0
 25 27  2  0  0  0  0
 25 82  1  0  0  0  0
 26 84  1  0  0  0  0
 27 85  1  0  0  0  0
 28 30  2  0  0  0  0
 28 86  1  0  0  0  0
 29 62  2  0  0  0  0
 30 34  1  0  0  0  0
 30 64  1  0  0  0  0
 31 63  1  0  0  0  0
 31 68  1  0  0  0  0
 32 64  2  0  0  0  0
 32 70  1  0  0  0  0
 33 69  1  0  0  0  0
 33 75  2  0  0  0  0
 34 71  1  0  0  0  0
 34 76  2  0  0  0  0
 35 50  1  0  0  0  0
 35 72  1  0  0  0  0
 35 77  2  0  0  0  0
 36 58  1  0  0  0  0
 36 65  1  0  0  0  0
 36 78  2  0  0  0  0
 37 59  1  0  0  0  0
 37 73  1  0  0  0  0
 37 79  2  0  0  0  0
 38 60  1  0  0  0  0
 38 70  1  0  0  0  0
 38 80  2  0  0  0  0
 39 66  1  0  0  0  0
 39 71  1  0  0  0  0
 39 81  2  0  0  0  0
 40 43  1  0  0  0  0
 41 50  1  0  0  0  0
 42 65  1  0  0  0  0
 43 45  1  0  0  0  0
 44 46  1  0  0  0  0
 44 47  1  0  0  0  0
 45 49  1  0  0  0  0
 46 51  1  0  0  0  0
 47 66  1  0  0  0  0
 48 51  1  0  0  0  0
 48 66  1  0  0  0  0
 49 72  1  0  0  0  0
 50 65  1  0  0  0  0
 51 63  1  0  0  0  0
 52 59  1  0  0  0  0
 53 60  1  0  0  0  0
 54 61  1  0  0  0  0
 55 61  1  0  0  0  0
 56 61  1  0  0  0  0
 57 74  1  0  0  0  0
 58 61  1  0  0  0  0
 58 73  1  0  0  0  0
 59 74  1  0  0  0  0
 60 83  1  0  0  0  0
 62 63  1  0  0  0  0
M  CHG  2  64   1  74   1
M  ISO  4  39 100  60 101  71 100  83 101
M  END
> <Batch ID>
0175

> <Smiles>
CNC(C)C(=O)NC(C(=O)N1Cc2cc([101O:1][101CH:1](C)C(=O)Nc3cc(N)c(F)c(C(=O)[100NH:0][100C:0](=O)N4CCCC(n5nc(-c6ccc(Oc7ccc(F)cc7F)cc6)c(C(N)=O)c5N)C4)n3)ccc2CC1C(=O)NC1CCCc2ccccc21)C(C)(C)C

> <Shape>
0.190

> <Color>
0.081

> <Negative vol penalty>
0.000

$$$$

  -OEChem-04052304353D

 84 92  0     1  0  0  0  0  0999 V2000
  -44.9115  -26.5562   22.6131 C   0  0  0  0  0  0  0  0  0  0  0  0
  -44.7150  -25.2757   22.1061 C   0  0  0  0  0  0  0  0  0  0  0  0
  -23.0002   -9.8918   19.9814 C   0  0  0  0  0  0  0  0  0  0  0  0
  -23.7253   -9.9449   22.2854 C   0  0  0  0  0  0  0  0  0  0  0  0
  -43.9286  -27.1502   23.4036 C   0  0  0  0  0  0  0  0  0  0  0  0
  -43.5358  -24.5879   22.3903 C   0  0  0  0  0  0  0  0  0  0  0  0
  -38.9996  -19.8543   19.5038 C   0  0  0  0  0  0  0  0  0  0  0  0
  -22.2344   -8.7570   20.2486 C   0  0  0  0  0  0  0  0  0  0  0  0
  -22.9595   -8.8101   22.5526 C   0  0  0  0  0  0  0  0  0  0  0  0
  -38.3853  -18.6366   19.7930 C   0  0  0  0  0  0  0  0  0  0  0  0
  -21.4800   -5.7170   23.7582 C   0  0  0  0  0  0  0  0  0  0  0  0
  -22.0667   -4.7021   24.5142 C   0  0  0  0  0  0  0  0  0  0  0  0
  -36.7233  -19.7933   21.1041 C   0  0  0  0  0  0  0  0  0  0  0  0
  -23.7932   -4.4549   22.8423 C   0  0  0  0  0  0  0  0  0  0  0  0
  -31.0265  -18.8972   22.7796 C   0  0  0  0  0  0  0  0  0  0  0  0
  -23.7457  -10.4857   20.9998 C   0  0  0  0  0  0  0  0  0  0  0  0
  -24.1294  -13.0014   20.8220 C   0  0  0  0  0  0  0  0  0  0  0  0
  -42.7326  -26.4731   23.6896 C   0  0  0  0  0  0  0  0  0  0  0  0
  -38.4858  -21.0516   20.0224 C   0  0  0  0  0  0  0  0  0  0  0  0
  -42.5365  -25.1729   23.1865 C   0  0  0  0  0  0  0  0  0  0  0  0
  -37.3314  -21.0251   20.8179 C   0  0  0  0  0  0  0  0  0  0  0  0
  -22.2140   -8.2162   21.5342 C   0  0  0  0  0  0  0  0  0  0  0  0
  -37.2487  -18.6057   20.5957 C   0  0  0  0  0  0  0  0  0  0  0  0
  -22.0498   -6.1008   22.5443 C   0  0  0  0  0  0  0  0  0  0  0  0
  -23.2233   -4.0711   24.0562 C   0  0  0  0  0  0  0  0  0  0  0  0
  -23.2064   -5.4697   22.0863 C   0  0  0  0  0  0  0  0  0  0  0  0
  -30.0383  -17.8893   22.6767 C   0  0  0  0  0  0  0  0  0  0  0  0
  -24.5374  -11.6576   20.7243 C   0  0  0  0  0  0  0  0  0  0  0  0
  -32.1118  -18.4422   22.0676 C   0  0  0  0  0  0  0  0  0  0  0  0
  -25.2387  -13.7245   20.4571 C   0  0  0  0  0  0  0  0  0  0  0  0
  -30.5901  -16.8902   21.9090 C   0  0  0  0  0  0  0  0  0  0  0  0
  -22.8611  -13.5473   21.2081 C   0  0  0  0  0  0  0  0  0  0  0  0
  -33.4381  -19.0471   21.8088 C   0  0  0  0  0  0  0  0  0  0  0  0
  -34.4615  -18.3221   20.9817 C   0  0  0  0  0  0  0  0  0  0  0  0
  -39.5873  -23.3065   21.9732 C   0  0  0  0  0  0  0  0  0  0  0  0
  -36.8178  -24.7978   21.1806 C   0  0  0  0  0  0  0  0  0  0  0  0
  -33.6042  -24.5371   20.0619 C   0  0  0  0  0  0  0  0  0  0  0  0
  -30.7176  -14.6891   20.6903 C   0  0  0  0  0  0  0  0  0  0  0  0
  -41.7193  -27.1374   24.5879 C   0  0  0  0  0  0  0  0  0  0  0  0
  -39.1445  -22.3595   19.6791 C   0  0  0  0  0  0  0  0  0  0  0  0
  -36.7284  -22.2845   21.3825 C   0  0  0  0  0  0  0  0  0  0  0  0
  -40.3384  -26.4890   24.5324 C   0  0  0  0  0  0  0  0  0  0  0  0
  -29.6008  -12.2340   18.3661 C   0  0  0  0  0  0  0  0  0  0  0  0
  -40.4571  -24.9713   24.6292 C   0  0  0  0  0  0  0  0  0  0  0  0
  -28.1504  -11.9757   18.7804 C   0  0  0  0  0  0  0  0  0  0  0  0
  -30.5012  -12.4787   19.5757 C   0  0  0  0  0  0  0  0  0  0  0  0
  -28.5854  -13.2673   20.9087 C   0  0  0  0  0  0  0  0  0  0  0  0
  -41.2601  -24.4045   23.4521 C   0  0  1  0  0  0  0  0  0  0  0  0
  -38.8347  -23.4660   20.6826 C   0  0  1  0  0  0  0  0  0  0  0  0
  -27.6278  -13.0796   19.7206 C   0  0  2  0  0  0  0  0  0  0  0  0
  -31.5768  -25.9256   19.5530 C   0  0  0  0  0  0  0  0  0  0  0  0
  -35.0057  -16.0248   21.8850 C   0  0  0  0  0  0  0  0  0  0  0  0
  -35.8723  -18.0811   23.0487 C   0  0  0  0  0  0  0  0  0  0  0  0
  -36.2487  -25.0570   24.1671 C   0  0  0  0  0  0  0  0  0  0  0  0
  -33.8628  -25.5586   23.5979 C   0  0  0  0  0  0  0  0  0  0  0  0
  -35.6765  -27.0825   22.8164 C   0  0  0  0  0  0  0  0  0  0  0  0
  -33.6190  -23.7247   17.2161 C   0  0  0  0  0  0  0  0  0  0  0  0
  -35.4142  -24.8118   21.7361 C   0  0  1  0  0  0  0  0  0  0  0  0
  -32.8449  -25.3011   18.9922 C   0  0  2  0  0  0  0  0  0  0  0  0
  -35.4866  -17.4603   21.7088 C   0  0  0  0  0  0  0  0  0  1  0  0
  -35.3128  -25.6034   23.0705 C   0  0  0  0  0  0  0  0  0  0  0  0
  -25.8068  -11.5317   20.3283 N   0  0  0  0  0  0  0  0  0  0  0  0
  -26.2059  -12.8056   20.1737 N   0  0  0  0  0  0  0  0  0  0  0  0
  -37.4125  -23.5378   21.0236 N   0  0  0  0  0  0  0  0  0  0  0  0
  -29.9455  -13.5399   20.4183 N   0  0  0  0  0  0  0  0  0  0  0  0
  -25.4713  -15.0502   20.3540 N   0  0  0  0  0  0  0  0  0  0  0  0
  -21.8299  -12.6628   21.5523 N   0  0  0  0  0  0  0  0  0  0  0  0
  -30.0728  -15.6444   21.4753 N   0  0  0  0  0  0  0  0  0  0  0  0
  -40.4416  -24.3541   22.2596 N   0  0  0  0  0  0  0  0  0  0  0  0
  -34.5588  -25.3239   20.6710 N   0  0  0  0  0  0  0  0  0  0  0  0
  -32.4659  -24.3899   17.8754 N   0  3  0  0  0  0  0  0  0  0  0  0
  -22.6436  -14.7825   21.2310 O   0  0  0  0  0  0  0  0  0  0  0  0
  -33.7524  -20.1537   22.2218 O   0  0  0  0  0  0  0  0  0  0  0  0
  -34.4274  -18.5102   19.7729 O   0  0  0  0  0  0  0  0  0  0  0  0
  -39.4052  -22.3075   22.6593 O   0  0  0  0  0  0  0  0  0  0  0  0
  -37.3638  -25.8650   20.8898 O   0  0  0  0  0  0  0  0  0  0  0  0
  -33.3711  -23.3612   20.3328 O   0  0  0  0  0  0  0  0  0  0  0  0
  -31.8562  -14.8284   20.2362 O   0  0  0  0  0  0  0  0  0  0  0  0
  -31.8539  -17.2195   21.5337 O   0  0  0  0  0  0  0  0  0  0  0  0
  -21.4666   -7.1090   21.7953 O   0  0  0  0  0  0  0  0  0  0  0  0
  -36.6476  -17.4184   20.8801 O   0  0  0  0  0  0  0  0  0  1  0  0
  -23.7874   -3.0976   24.7830 F   0  0  0  0  0  0  0  0  0  0  0  0
  -23.7591   -5.8349   20.9214 F   0  0  0  0  0  0  0  0  0  0  0  0
  -28.8220  -17.9064   23.2138 F   0  0  0  0  0  0  0  0  0  0  0  0
  1  2  1  0  0  0  0
  1  5  2  0  0  0  0
  2  6  2  0  0  0  0
  3  8  2  0  0  0  0
  3 16  1  0  0  0  0
  4  9  1  0  0  0  0
  4 16  2  0  0  0  0
  5 18  1  0  0  0  0
  6 20  1  0  0  0  0
  7 10  2  0  0  0  0
  7 19  1  0  0  0  0
  8 22  1  0  0  0  0
  9 22  2  0  0  0  0
 10 23  1  0  0  0  0
 11 12  2  0  0  0  0
 11 24  1  0  0  0  0
 12 25  1  0  0  0  0
 13 21  1  0  0  0  0
 13 23  2  0  0  0  0
 14 25  2  0  0  0  0
 14 26  1  0  0  0  0
 15 27  1  0  0  0  0
 15 29  2  0  0  0  0
 16 28  1  0  0  0  0
 17 28  1  0  0  0  0
 17 30  2  0  0  0  0
 17 32  1  0  0  0  0
 18 20  2  0  0  0  0
 18 39  1  0  0  0  0
 19 21  2  0  0  0  0
 19 40  1  0  0  0  0
 20 48  1  0  0  0  0
 21 41  1  0  0  0  0
 22 80  1  0  0  0  0
 23 81  1  0  0  0  0
 24 26  2  0  0  0  0
 24 80  1  0  0  0  0
 25 82  1  0  0  0  0
 26 83  1  0  0  0  0
 27 31  2  0  0  0  0
 27 84  1  0  0  0  0
 28 62  2  0  0  0  0
 29 33  1  0  0  0  0
 29 79  1  0  0  0  0
 30 63  1  0  0  0  0
 30 66  1  0  0  0  0
 31 68  1  0  0  0  0
 31 79  1  0  0  0  0
 32 67  1  0  0  0  0
 32 72  2  0  0  0  0
 33 34  1  0  0  0  0
 33 73  2  0  0  0  0
 34 60  1  0  0  0  0
 34 74  2  0  0  0  0
 35 49  1  0  0  0  0
 35 69  1  0  0  0  0
 35 75  2  0  0  0  0
 36 58  1  0  0  0  0
 36 64  1  0  0  0  0
 36 76  2  0  0  0  0
 37 59  1  0  0  0  0
 37 70  1  0  0  0  0
 37 77  2  0  0  0  0
 38 65  1  0  0  0  0
 38 68  1  0  0  0  0
 38 78  2  0  0  0  0
 39 42  1  0  0  0  0
 40 49  1  0  0  0  0
 41 64  1  0  0  0  0
 42 44  1  0  0  0  0
 43 45  1  0  0  0  0
 43 46  1  0  0  0  0
 44 48  1  0  0  0  0
 45 50  1  0  0  0  0
 46 65  1  0  0  0  0
 47 50  1  0  0  0  0
 47 65  1  0  0  0  0
 48 69  1  0  0  0  0
 49 64  1  0  0  0  0
 50 63  1  0  0  0  0
 51 59  1  0  0  0  0
 52 60  1  0  0  0  0
 53 60  1  0  0  0  0
 54 61  1  0  0  0  0
 55 61  1  0  0  0  0
 56 61  1  0  0  0  0
 57 71  1  0  0  0  0
 58 61  1  0  0  0  0
 58 70  1  0  0  0  0
 59 71  1  0  0  0  0
 60 81  1  0  0  0  0
 62 63  1  0  0  0  0
M  CHG  1  71   1
M  ISO  4  38 100  60 101  68 100  81 101
M  END
> <Batch ID>
0175

> <Smiles>
CNC(C)C(=O)NC(C(=O)N1Cc2cc([101O:1][101C:1](C)(C)C(=O)C(=O)c3cc(F)c([100NH:0][100C:0](=O)N4CCCC(n5nc(-c6ccc(Oc7ccc(F)cc7F)cc6)c(C(N)=O)c5N)C4)o3)ccc2CC1C(=O)NC1CCCc2ccccc21)C(C)(C)C

> <Shape>
0.181

> <Color>
0.190

> <Negative vol penalty>
0.000

$$$$

  -OEChem-04052304353D

 86 94  0     1  0  0  0  0  0999 V2000
  -26.8140  -24.6219   13.6804 C   0  0  0  0  0  0  0  0  0  0  0  0
  -27.4510  -24.2689   14.8658 C   0  0  0  0  0  0  0  0  0  0  0  0
  -23.0020   -9.8914   19.9803 C   0  0  0  0  0  0  0  0  0  0  0  0
  -23.7259   -9.9440   22.2847 C   0  0  0  0  0  0  0  0  0  0  0  0
  -27.1099  -25.8383   13.0668 C   0  0  0  0  0  0  0  0  0  0  0  0
  -28.3853  -25.1319   15.4376 C   0  0  0  0  0  0  0  0  0  0  0  0
  -27.7633  -25.6306   20.4385 C   0  0  0  0  0  0  0  0  0  0  0  0
  -22.2359   -8.7567   20.2469 C   0  0  0  0  0  0  0  0  0  0  0  0
  -22.9597   -8.8093   22.5513 C   0  0  0  0  0  0  0  0  0  0  0  0
  -28.2357  -24.5963   21.2452 C   0  0  0  0  0  0  0  0  0  0  0  0
  -23.2060   -5.4702   22.0813 C   0  0  0  0  0  0  0  0  0  0  0  0
  -23.7936   -4.4537   22.8343 C   0  0  0  0  0  0  0  0  0  0  0  0
  -30.2124  -25.8892   21.7351 C   0  0  0  0  0  0  0  0  0  0  0  0
  -29.8754  -17.4518   23.0975 C   0  0  0  0  0  0  0  0  0  0  0  0
  -32.0545  -16.5554   22.5635 C   0  0  0  0  0  0  0  0  0  0  0  0
  -22.0687   -4.6967   24.5085 C   0  0  0  0  0  0  0  0  0  0  0  0
  -23.7471  -10.4851   20.9993 C   0  0  0  0  0  0  0  0  0  0  0  0
  -24.1312  -13.0008   20.8221 C   0  0  0  0  0  0  0  0  0  0  0  0
  -28.0412  -26.7209   13.6364 C   0  0  0  0  0  0  0  0  0  0  0  0
  -28.5183  -26.7996   20.2651 C   0  0  0  0  0  0  0  0  0  0  0  0
  -28.6950  -26.3607   14.8302 C   0  0  0  0  0  0  0  0  0  0  0  0
  -29.7462  -26.9380   20.9278 C   0  0  0  0  0  0  0  0  0  0  0  0
  -30.4631  -18.3498   23.9884 C   0  0  0  0  0  0  0  0  0  0  0  0
  -30.6710  -16.5545   22.3851 C   0  0  0  0  0  0  0  0  0  0  0  0
  -22.2147   -8.2156   21.5323 C   0  0  0  0  0  0  0  0  0  0  0  0
  -29.4618  -24.7243   21.8913 C   0  0  0  0  0  0  0  0  0  0  0  0
  -22.0497   -6.1000   22.5419 C   0  0  0  0  0  0  0  0  0  0  0  0
  -23.2250   -4.0669   24.0478 C   0  0  0  0  0  0  0  0  0  0  0  0
  -32.6422  -17.4535   23.4543 C   0  0  0  0  0  0  0  0  0  0  0  0
  -21.4811   -5.7133   23.7555 C   0  0  0  0  0  0  0  0  0  0  0  0
  -31.8465  -18.3508   24.1667 C   0  0  0  0  0  0  0  0  0  0  0  0
  -24.5391  -11.6569   20.7244 C   0  0  0  0  0  0  0  0  0  0  0  0
  -25.2408  -13.7237   20.4579 C   0  0  0  0  0  0  0  0  0  0  0  0
  -22.8628  -13.5468   21.2076 C   0  0  0  0  0  0  0  0  0  0  0  0
  -29.8758  -28.2453   17.7810 C   0  0  0  0  0  0  0  0  0  0  0  0
  -30.4939  -30.5631   19.9645 C   0  0  0  0  0  0  0  0  0  0  0  0
  -30.9321  -31.4152   23.2400 C   0  0  0  0  0  0  0  0  0  0  0  0
  -29.8639  -21.5720   23.7447 C   0  0  0  0  0  0  0  0  0  0  0  0
  -30.7197  -14.6876   20.6943 C   0  0  0  0  0  0  0  0  0  0  0  0
  -28.3633  -28.0036   12.9115 C   0  0  0  0  0  0  0  0  0  0  0  0
  -27.9824  -27.9172   19.4130 C   0  0  0  0  0  0  0  0  0  0  0  0
  -30.5856  -28.1810   20.7907 C   0  0  0  0  0  0  0  0  0  0  0  0
  -29.0889  -29.0283   13.7798 C   0  0  0  0  0  0  0  0  0  0  0  0
  -29.6039  -12.2329   18.3691 C   0  0  0  0  0  0  0  0  0  0  0  0
  -30.2271  -28.3655   14.5492 C   0  0  0  0  0  0  0  0  0  0  0  0
  -28.1532  -11.9748   18.7826 C   0  0  0  0  0  0  0  0  0  0  0  0
  -30.5037  -12.4774   19.5793 C   0  0  0  0  0  0  0  0  0  0  0  0
  -28.5872  -13.2660   20.9113 C   0  0  0  0  0  0  0  0  0  0  0  0
  -29.6960  -27.2810   15.4944 C   0  0  1  0  0  0  0  0  0  0  0  0
  -29.0729  -28.8511   18.8973 C   0  0  1  0  0  0  0  0  0  0  0  0
  -27.6303  -13.0786   19.7227 C   0  0  2  0  0  0  0  0  0  0  0  0
  -31.4634  -33.3778   24.7108 C   0  0  0  0  0  0  0  0  0  0  0  0
  -33.4252  -30.3876   19.1358 C   0  0  0  0  0  0  0  0  0  0  0  0
  -34.0191  -31.6247   21.2299 C   0  0  0  0  0  0  0  0  0  0  0  0
  -32.5830  -32.7132   19.5050 C   0  0  0  0  0  0  0  0  0  0  0  0
  -28.3477  -31.1946   24.6651 C   0  0  0  0  0  0  0  0  0  0  0  0
  -29.6041  -19.3136   24.7549 C   0  0  0  0  0  0  0  0  0  0  0  0
  -31.6224  -30.8544   20.9241 C   0  0  1  0  0  0  0  0  0  0  0  0
  -30.3601  -32.5496   24.0709 C   0  0  2  0  0  0  0  0  0  0  0  0
  -29.1399  -22.5355   22.8292 C   0  0  0  0  0  0  0  0  0  1  0  0
  -32.8977  -31.3706   20.1999 C   0  0  0  0  0  0  0  0  0  0  0  0
  -25.8087  -11.5308   20.3290 N   0  0  0  0  0  0  0  0  0  0  0  0
  -26.2081  -12.8047   20.1749 N   0  0  0  0  0  0  0  0  0  0  0  0
  -30.0216  -29.2432   19.9415 N   0  0  0  0  0  0  0  0  0  0  0  0
  -29.9476  -13.5385   20.4217 N   0  0  0  0  0  0  0  0  0  0  0  0
  -25.4737  -15.0494   20.3553 N   0  0  0  0  0  0  0  0  0  0  0  0
  -21.8313  -12.6623   21.5511 N   0  0  0  0  0  0  0  0  0  0  0  0
  -30.0746  -15.6429   21.4790 N   0  0  0  0  0  0  0  0  0  0  0  0
  -29.1236  -27.8805   16.6807 N   0  0  0  0  0  0  0  0  0  0  0  0
  -29.1420  -20.4029   23.9262 N   0  0  0  0  0  0  0  0  0  0  0  0
  -31.0849  -31.7770   21.9182 N   0  0  0  0  0  0  0  0  0  0  0  0
  -29.4891  -32.0106   25.1534 N   0  3  0  0  0  0  0  0  0  0  0  0
  -22.6455  -14.7820   21.2306 O   0  0  0  0  0  0  0  0  0  0  0  0
  -31.0881  -28.1196   17.9079 O   0  0  0  0  0  0  0  0  0  0  0  0
  -30.0432  -31.4748   19.2664 O   0  0  0  0  0  0  0  0  0  0  0  0
  -31.2185  -30.3191   23.7166 O   0  0  0  0  0  0  0  0  0  0  0  0
  -30.9547  -21.8223   24.2499 O   0  0  0  0  0  0  0  0  0  0  0  0
  -31.8586  -14.8268   20.2409 O   0  0  0  0  0  0  0  0  0  0  0  0
  -21.4671   -7.1085   21.7928 O   0  0  0  0  0  0  0  0  0  0  0  0
  -29.9255  -23.7159   22.6788 O   0  0  0  0  0  0  0  0  0  1  0  0
  -23.7885   -3.0897   24.7701 F   0  0  0  0  0  0  0  0  0  0  0  0
  -33.9706  -17.4546   23.6254 F   0  0  0  0  0  0  0  0  0  0  0  0
  -20.3697   -6.3138   24.2026 F   0  0  0  0  0  0  0  0  0  0  0  0
  -32.4203  -19.2095   25.0210 F   0  0  0  0  0  0  0  0  0  0  0  0
  -27.9273  -22.8670   23.3453 F   0  0  0  0  0  0  0  0  0  0  0  0
  -28.9364  -21.9741   21.6086 F   0  0  0  0  0  0  0  0  0  0  0  0
  1  2  1  0  0  0  0
  1  5  2  0  0  0  0
  2  6  2  0  0  0  0
  3  8  2  0  0  0  0
  3 17  1  0  0  0  0
  4  9  1  0  0  0  0
  4 17  2  0  0  0  0
  5 19  1  0  0  0  0
  6 21  1  0  0  0  0
  7 10  2  0  0  0  0
  7 20  1  0  0  0  0
  8 25  1  0  0  0  0
  9 25  2  0  0  0  0
 10 26  1  0  0  0  0
 11 12  2  0  0  0  0
 11 27  1  0  0  0  0
 12 28  1  0  0  0  0
 13 22  1  0  0  0  0
 13 26  2  0  0  0  0
 14 23  1  0  0  0  0
 14 24  2  0  0  0  0
 15 24  1  0  0  0  0
 15 29  2  0  0  0  0
 16 28  2  0  0  0  0
 16 30  1  0  0  0  0
 17 32  1  0  0  0  0
 18 32  1  0  0  0  0
 18 33  2  0  0  0  0
 18 34  1  0  0  0  0
 19 21  2  0  0  0  0
 19 40  1  0  0  0  0
 20 22  2  0  0  0  0
 20 41  1  0  0  0  0
 21 49  1  0  0  0  0
 22 42  1  0  0  0  0
 23 31  2  0  0  0  0
 23 57  1  0  0  0  0
 24 68  1  0  0  0  0
 25 79  1  0  0  0  0
 26 80  1  0  0  0  0
 27 30  2  0  0  0  0
 27 79  1  0  0  0  0
 28 81  1  0  0  0  0
 29 31  1  0  0  0  0
 29 82  1  0  0  0  0
 30 83  1  0  0  0  0
 31 84  1  0  0  0  0
 32 62  2  0  0  0  0
 33 63  1  0  0  0  0
 33 66  1  0  0  0  0
 34 67  1  0  0  0  0
 34 73  2  0  0  0  0
 35 50  1  0  0  0  0
 35 69  1  0  0  0  0
 35 74  2  0  0  0  0
 36 58  1  0  0  0  0
 36 64  1  0  0  0  0
 36 75  2  0  0  0  0
 37 59  1  0  0  0  0
 37 71  1  0  0  0  0
 37 76  2  0  0  0  0
 38 60  1  0  0  0  0
 38 70  1  0  0  0  0
 38 77  2  0  0  0  0
 39 65  1  0  0  0  0
 39 68  1  0  0  0  0
 39 78  2  0  0  0  0
 40 43  1  0  0  0  0
 41 50  1  0  0  0  0
 42 64  1  0  0  0  0
 43 45  1  0  0  0  0
 44 46  1  0  0  0  0
 44 47  1  0  0  0  0
 45 49  1  0  0  0  0
 46 51  1  0  0  0  0
 47 65  1  0  0  0  0
 48 51  1  0  0  0  0
 48 65  1  0  0  0  0
 49 69  1  0  0  0  0
 50 64  1  0  0  0  0
 51 63  1  0  0  0  0
 52 59  1  0  0  0  0
 53 61  1  0  0  0  0
 54 61  1  0  0  0  0
 55 61  1  0  0  0  0
 56 72  1  0  0  0  0
 57 70  1  0  0  0  0
 58 61  1  0  0  0  0
 58 71  1  0  0  0  0
 59 72  1  0  0  0  0
 60 80  1  0  0  0  0
 60 85  1  0  0  0  0
 60 86  1  0  0  0  0
 62 63  1  0  0  0  0
M  CHG  1  72   1
M  ISO  4  39 100  60 101  68 100  80 101
M  END
> <Batch ID>
0175

> <Smiles>
CNC(C)C(=O)NC(C(=O)N1Cc2cc([101O:1][101C:1](F)(F)C(=O)NCc3cc([100NH:0][100C:0](=O)N4CCCC(n5nc(-c6ccc(Oc7ccc(F)cc7F)cc6)c(C(N)=O)c5N)C4)cc(F)c3F)ccc2CC1C(=O)NC1CCCc2ccccc21)C(C)(C)C

> <Shape>
0.227

> <Color>
0.198

> <Negative vol penalty>
0.000

$$$$

  -OEChem-04052304353D

 87 95  0     1  0  0  0  0  0999 V2000
  -31.5994  -25.9382    9.4463 C   0  0  0  0  0  0  0  0  0  0  0  0
  -32.1145  -24.9774   10.3106 C   0  0  0  0  0  0  0  0  0  0  0  0
  -23.0018   -9.8884   19.9820 C   0  0  0  0  0  0  0  0  0  0  0  0
  -23.7267   -9.9437   22.2861 C   0  0  0  0  0  0  0  0  0  0  0  0
  -31.5460  -27.2738    9.8427 C   0  0  0  0  0  0  0  0  0  0  0  0
  -32.5774  -25.3519   11.5715 C   0  0  0  0  0  0  0  0  0  0  0  0
  -32.2195  -22.0907   16.7428 C   0  0  0  0  0  0  0  0  0  0  0  0
  -22.2369   -8.7532   20.2499 C   0  0  0  0  0  0  0  0  0  0  0  0
  -22.9617   -8.8084   22.5539 C   0  0  0  0  0  0  0  0  0  0  0  0
  -33.1394  -21.2795   17.4057 C   0  0  0  0  0  0  0  0  0  0  0  0
  -23.2109   -5.4692   22.0867 C   0  0  0  0  0  0  0  0  0  0  0  0
  -23.7998   -4.4539   22.8403 C   0  0  0  0  0  0  0  0  0  0  0  0
  -33.7376  -23.1322   18.8301 C   0  0  0  0  0  0  0  0  0  0  0  0
  -22.0754   -4.6967   24.5150 C   0  0  0  0  0  0  0  0  0  0  0  0
  -23.7468  -10.4837   21.0001 C   0  0  0  0  0  0  0  0  0  0  0  0
  -24.1285  -12.9995   20.8207 C   0  0  0  0  0  0  0  0  0  0  0  0
  -31.9995  -27.6634   11.1128 C   0  0  0  0  0  0  0  0  0  0  0  0
  -32.0592  -23.4340   17.1120 C   0  0  0  0  0  0  0  0  0  0  0  0
  -32.5312  -26.6942   11.9848 C   0  0  0  0  0  0  0  0  0  0  0  0
  -32.8132  -23.9576   18.1719 C   0  0  0  0  0  0  0  0  0  0  0  0
  -22.2168   -8.2132   21.5358 C   0  0  0  0  0  0  0  0  0  0  0  0
  -33.9007  -21.8010   18.4476 C   0  0  0  0  0  0  0  0  0  0  0  0
  -22.0543   -6.0983   22.5473 C   0  0  0  0  0  0  0  0  0  0  0  0
  -23.2321   -4.0676   24.0544 C   0  0  0  0  0  0  0  0  0  0  0  0
  -21.4865   -5.7120   23.7614 C   0  0  0  0  0  0  0  0  0  0  0  0
  -24.5376  -11.6560   20.7239 C   0  0  0  0  0  0  0  0  0  0  0  0
  -29.8742  -17.8044   22.6598 C   0  0  0  0  0  0  0  0  0  0  0  0
  -30.5745  -16.9076   21.8804 C   0  0  0  0  0  0  0  0  0  0  0  0
  -25.2372  -13.7232   20.4554 C   0  0  0  0  0  0  0  0  0  0  0  0
  -32.0812  -18.4977   21.9881 C   0  0  0  0  0  0  0  0  0  0  0  0
  -22.8597  -13.5447   21.2063 C   0  0  0  0  0  0  0  0  0  0  0  0
  -28.5678  -17.7226   23.2252 C   0  0  0  0  0  0  0  0  0  0  0  0
  -32.4686  -26.2263   15.6495 C   0  0  0  0  0  0  0  0  0  0  0  0
  -31.1671  -27.4039   18.3775 C   0  0  0  0  0  0  0  0  0  0  0  0
  -30.5345  -26.9792   21.7041 C   0  0  0  0  0  0  0  0  0  0  0  0
  -34.4069  -18.9445   21.1377 C   0  0  0  0  0  0  0  0  0  0  0  0
  -30.7152  -14.6927   20.6884 C   0  0  0  0  0  0  0  0  0  0  0  0
  -31.9652  -29.1261   11.4787 C   0  0  0  0  0  0  0  0  0  0  0  0
  -31.0435  -24.2885   16.4045 C   0  0  0  0  0  0  0  0  0  0  0  0
  -32.6644  -25.3878   18.6202 C   0  0  0  0  0  0  0  0  0  0  0  0
  -32.1300  -29.3839   12.9743 C   0  0  0  0  0  0  0  0  0  0  0  0
  -29.6008  -12.2348   18.3660 C   0  0  0  0  0  0  0  0  0  0  0  0
  -33.2846  -28.5590   13.5341 C   0  0  0  0  0  0  0  0  0  0  0  0
  -28.1505  -11.9756   18.7804 C   0  0  0  0  0  0  0  0  0  0  0  0
  -30.5008  -12.4813   19.5755 C   0  0  0  0  0  0  0  0  0  0  0  0
  -28.5842  -13.2693   20.9077 C   0  0  0  0  0  0  0  0  0  0  0  0
  -33.0202  -27.0575   13.3701 C   0  0  1  0  0  0  0  0  0  0  0  0
  -31.3312  -25.7819   16.5250 C   0  0  1  0  0  0  0  0  0  0  0  0
  -27.6269  -13.0798   19.7196 C   0  0  2  0  0  0  0  0  0  0  0  0
  -28.2976  -18.4490   24.5264 C   0  0  0  0  0  0  0  0  0  0  0  0
  -36.4653  -19.0561   23.3567 C   0  0  0  0  0  0  0  0  0  0  0  0
  -29.4863  -28.1297   23.6725 C   0  0  0  0  0  0  0  0  0  0  0  0
  -33.5980  -29.2347   18.5987 C   0  0  0  0  0  0  0  0  0  0  0  0
  -32.9849  -29.6440   20.9914 C   0  0  0  0  0  0  0  0  0  0  0  0
  -31.4189  -30.3202   19.1711 C   0  0  0  0  0  0  0  0  0  0  0  0
  -28.5448  -24.8167   22.0559 C   0  0  0  0  0  0  0  0  0  0  0  0
  -35.9000  -20.2851   22.6569 C   0  0  0  0  0  0  0  0  0  0  0  0
  -35.0541  -21.3086   20.4683 C   0  0  0  0  0  0  0  0  0  1  0  0
  -31.7100  -27.8668   19.7079 C   0  0  1  0  0  0  0  0  0  0  0  0
  -29.2674  -27.1622   22.5198 C   0  0  2  0  0  0  0  0  0  0  0  0
  -35.4891  -20.0336   21.1953 C   0  0  2  0  0  0  0  0  0  0  0  0
  -32.4324  -29.2400   19.6078 C   0  0  0  0  0  0  0  0  0  0  0  0
  -25.8071  -11.5308   20.3281 N   0  0  0  0  0  0  0  0  0  0  0  0
  -31.8400  -17.3036   21.4939 N   0  0  0  0  0  0  0  0  0  0  0  0
  -26.2052  -12.8049   20.1727 N   0  0  0  0  0  0  0  0  0  0  0  0
  -31.6627  -26.1850   17.8931 N   0  0  0  0  0  0  0  0  0  0  0  0
  -29.9441  -13.5426   20.4172 N   0  0  0  0  0  0  0  0  0  0  0  0
  -25.4688  -15.0491   20.3515 N   0  0  0  0  0  0  0  0  0  0  0  0
  -21.8291  -12.6595   21.5510 N   0  0  0  0  0  0  0  0  0  0  0  0
  -30.0695  -15.6481   21.4725 N   0  0  0  0  0  0  0  0  0  0  0  0
  -33.2547  -19.2751   21.8390 N   0  0  0  0  0  0  0  0  0  0  0  0
  -32.0858  -26.5961   14.3743 N   0  0  0  0  0  0  0  0  0  0  0  0
  -30.5846  -27.8499   20.6361 N   0  0  0  0  0  0  0  0  0  0  0  0
  -28.8195  -25.8563   23.0810 N   0  3  0  0  0  0  0  0  0  0  0  0
  -22.6412  -14.7797   21.2283 O   0  0  0  0  0  0  0  0  0  0  0  0
  -27.5989  -17.0938   22.7491 O   0  0  0  0  0  0  0  0  0  0  0  0
  -33.6089  -26.2346   16.0982 O   0  0  0  0  0  0  0  0  0  0  0  0
  -30.3287  -28.0947   17.7930 O   0  0  0  0  0  0  0  0  0  0  0  0
  -31.3955  -26.1494   21.9881 O   0  0  0  0  0  0  0  0  0  0  0  0
  -34.6198  -17.9074   20.5129 O   0  0  0  0  0  0  0  0  0  0  0  0
  -31.8537  -14.8326   20.2343 O   0  0  0  0  0  0  0  0  0  0  0  0
  -21.4703   -7.1056   21.7976 O   0  0  0  0  0  0  0  0  0  0  0  0
  -34.7998  -21.0116   19.0959 O   0  0  0  0  0  0  0  0  0  1  0  0
  -23.7969   -3.0915   24.7772 F   0  0  0  0  0  0  0  0  0  0  0  0
  -20.3748   -6.3119   24.2085 F   0  0  0  0  0  0  0  0  0  0  0  0
  -36.6048  -19.5708   20.5446 F   0  0  0  0  0  0  0  0  0  0  0  0
  -30.8301  -19.2029   22.9275 S   0  0  0  0  0  0  0  0  0  0  0  0
  1  2  1  0  0  0  0
  1  5  2  0  0  0  0
  2  6  2  0  0  0  0
  3  8  2  0  0  0  0
  3 15  1  0  0  0  0
  4  9  1  0  0  0  0
  4 15  2  0  0  0  0
  5 17  1  0  0  0  0
  6 19  1  0  0  0  0
  7 10  2  0  0  0  0
  7 18  1  0  0  0  0
  8 21  1  0  0  0  0
  9 21  2  0  0  0  0
 10 22  1  0  0  0  0
 11 12  2  0  0  0  0
 11 23  1  0  0  0  0
 12 24  1  0  0  0  0
 13 20  1  0  0  0  0
 13 22  2  0  0  0  0
 14 24  2  0  0  0  0
 14 25  1  0  0  0  0
 15 26  1  0  0  0  0
 16 26  1  0  0  0  0
 16 29  2  0  0  0  0
 16 31  1  0  0  0  0
 17 19  2  0  0  0  0
 17 38  1  0  0  0  0
 18 20  2  0  0  0  0
 18 39  1  0  0  0  0
 19 47  1  0  0  0  0
 20 40  1  0  0  0  0
 21 82  1  0  0  0  0
 22 83  1  0  0  0  0
 23 25  2  0  0  0  0
 23 82  1  0  0  0  0
 24 84  1  0  0  0  0
 25 85  1  0  0  0  0
 26 63  2  0  0  0  0
 27 28  2  0  0  0  0
 27 32  1  0  0  0  0
 27 87  1  0  0  0  0
 28 64  1  0  0  0  0
 28 70  1  0  0  0  0
 29 65  1  0  0  0  0
 29 68  1  0  0  0  0
 30 64  2  0  0  0  0
 30 71  1  0  0  0  0
 30 87  1  0  0  0  0
 31 69  1  0  0  0  0
 31 75  2  0  0  0  0
 32 50  1  0  0  0  0
 32 76  2  0  0  0  0
 33 48  1  0  0  0  0
 33 72  1  0  0  0  0
 33 77  2  0  0  0  0
 34 59  1  0  0  0  0
 34 66  1  0  0  0  0
 34 78  2  0  0  0  0
 35 60  1  0  0  0  0
 35 73  1  0  0  0  0
 35 79  2  0  0  0  0
 36 61  1  0  0  0  0
 36 71  1  0  0  0  0
 36 80  2  0  0  0  0
 37 67  1  0  0  0  0
 37 70  1  0  0  0  0
 37 81  2  0  0  0  0
 38 41  1  0  0  0  0
 39 48  1  0  0  0  0
 40 66  1  0  0  0  0
 41 43  1  0  0  0  0
 42 44  1  0  0  0  0
 42 45  1  0  0  0  0
 43 47  1  0  0  0  0
 44 49  1  0  0  0  0
 45 67  1  0  0  0  0
 46 49  1  0  0  0  0
 46 67  1  0  0  0  0
 47 72  1  0  0  0  0
 48 66  1  0  0  0  0
 49 65  1  0  0  0  0
 51 57  1  0  0  0  0
 52 60  1  0  0  0  0
 53 62  1  0  0  0  0
 54 62  1  0  0  0  0
 55 62  1  0  0  0  0
 56 74  1  0  0  0  0
 57 61  1  0  0  0  0
 58 61  1  0  0  0  0
 58 83  1  0  0  0  0
 59 62  1  0  0  0  0
 59 73  1  0  0  0  0
 60 74  1  0  0  0  0
 61 86  1  0  0  0  0
 63 65  1  0  0  0  0
M  CHG  1  74   1
M  ISO  4  37 100  58 101  70 100  83 101
M  END
> <Batch ID>
0175

> <Smiles>
CCC(F)(C(=O)Nc1nc([100NH:0][100C:0](=O)N2CCCC(n3nc(-c4ccc(Oc5ccc(F)cc5F)cc4)c(C(N)=O)c3N)C2)c(C(C)=O)s1)[101CH2:1][101O:1]c1ccc2c(c1)CN(C(=O)C(NC(=O)C(C)NC)C(C)(C)C)C(C(=O)NC1CCCc3ccccc31)C2

> <Shape>
0.214

> <Color>
0.186

> <Negative vol penalty>
0.000

$$$$

  -OEChem-04052304353D

 88 96  0     1  0  0  0  0  0999 V2000
  -41.5819  -28.2515   23.0010 C   0  0  0  0  0  0  0  0  0  0  0  0
  -40.8401  -27.1034   22.7419 C   0  0  0  0  0  0  0  0  0  0  0  0
  -23.0766   -9.8675   19.9399 C   0  0  0  0  0  0  0  0  0  0  0  0
  -23.8366   -9.8724   22.2333 C   0  0  0  0  0  0  0  0  0  0  0  0
  -40.9688  -29.5026   22.9493 C   0  0  0  0  0  0  0  0  0  0  0  0
  -39.4844  -27.2058   22.4320 C   0  0  0  0  0  0  0  0  0  0  0  0
  -38.1605  -24.2800   18.5164 C   0  0  0  0  0  0  0  0  0  0  0  0
  -22.3325   -8.7143   20.1890 C   0  0  0  0  0  0  0  0  0  0  0  0
  -23.0925   -8.7192   22.4823 C   0  0  0  0  0  0  0  0  0  0  0  0
  -37.9931  -22.9188   18.7667 C   0  0  0  0  0  0  0  0  0  0  0  0
  -19.8642   -7.9216   23.0844 C   0  0  0  0  0  0  0  0  0  0  0  0
  -19.1073   -7.8808   24.2553 C   0  0  0  0  0  0  0  0  0  0  0  0
  -35.6036  -23.2361   18.8610 C   0  0  0  0  0  0  0  0  0  0  0  0
  -32.0654  -16.6053   22.5541 C   0  0  0  0  0  0  0  0  0  0  0  0
  -29.8809  -17.4519   23.1443 C   0  0  0  0  0  0  0  0  0  0  0  0
  -20.3484   -5.9425   24.9900 C   0  0  0  0  0  0  0  0  0  0  0  0
  -23.8287  -10.4465   20.9621 C   0  0  0  0  0  0  0  0  0  0  0  0
  -24.1711  -12.9717   20.8442 C   0  0  0  0  0  0  0  0  0  0  0  0
  -39.6072  -29.6211   22.6291 C   0  0  0  0  0  0  0  0  0  0  0  0
  -37.0495  -25.1329   18.4472 C   0  0  0  0  0  0  0  0  0  0  0  0
  -38.8522  -28.4596   22.3773 C   0  0  0  0  0  0  0  0  0  0  0  0
  -35.7594  -24.6074   18.6072 C   0  0  0  0  0  0  0  0  0  0  0  0
  -32.6524  -17.4879   23.4607 C   0  0  0  0  0  0  0  0  0  0  0  0
  -30.6796  -16.5874   22.3958 C   0  0  0  0  0  0  0  0  0  0  0  0
  -22.3404   -8.1402   21.4602 C   0  0  0  0  0  0  0  0  0  0  0  0
  -36.7147  -22.3971   18.9419 C   0  0  0  0  0  0  0  0  0  0  0  0
  -20.8631   -6.9727   22.8662 C   0  0  0  0  0  0  0  0  0  0  0  0
  -19.3494   -6.8913   25.2082 C   0  0  0  0  0  0  0  0  0  0  0  0
  -30.4679  -18.3345   24.0510 C   0  0  0  0  0  0  0  0  0  0  0  0
  -21.1052   -5.9832   23.8191 C   0  0  0  0  0  0  0  0  0  0  0  0
  -31.8537  -18.3525   24.2092 C   0  0  0  0  0  0  0  0  0  0  0  0
  -24.5980  -11.6375   20.7053 C   0  0  0  0  0  0  0  0  0  0  0  0
  -25.2634  -13.7213   20.4815 C   0  0  0  0  0  0  0  0  0  0  0  0
  -35.9396  -20.7012   20.3539 C   0  0  0  0  0  0  0  0  0  1  0  0
  -22.9008  -13.4874   21.2636 C   0  0  0  0  0  0  0  0  0  0  0  0
  -35.6889  -19.4495   20.7686 C   0  0  0  0  0  0  0  0  0  0  0  0
  -35.0049  -19.2713   22.0893 C   0  0  0  0  0  0  0  0  0  0  0  0
  -36.0544  -27.6588   20.1005 C   0  0  0  0  0  0  0  0  0  0  0  0
  -33.7653  -27.7710   17.8049 C   0  0  0  0  0  0  0  0  0  0  0  0
  -31.9562  -26.1120   15.4339 C   0  0  0  0  0  0  0  0  0  0  0  0
  -30.7298  -14.7655   20.6566 C   0  0  0  0  0  0  0  0  0  0  0  0
  -38.9774  -30.9915   22.6317 C   0  0  0  0  0  0  0  0  0  0  0  0
  -37.2452  -26.5943   18.1500 C   0  0  0  0  0  0  0  0  0  0  0  0
  -34.5327  -25.4771   18.5222 C   0  0  0  0  0  0  0  0  0  0  0  0
  -37.6234  -31.0409   21.9284 C   0  0  0  0  0  0  0  0  0  0  0  0
  -29.6147  -12.3539   18.2864 C   0  0  0  0  0  0  0  0  0  0  0  0
  -36.7458  -29.8769   22.3774 C   0  0  0  0  0  0  0  0  0  0  0  0
  -28.1750  -12.0623   18.7158 C   0  0  0  0  0  0  0  0  0  0  0  0
  -30.5300  -12.5815   19.4882 C   0  0  0  0  0  0  0  0  0  0  0  0
  -28.6233  -13.3052   20.8702 C   0  0  0  0  0  0  0  0  0  0  0  0
  -37.3851  -28.5315   22.0132 C   0  0  1  0  0  0  0  0  0  0  0  0
  -36.0766  -27.4597   18.6114 C   0  0  1  0  0  0  0  0  0  0  0  0
  -27.6503  -13.1332   19.6923 C   0  0  2  0  0  0  0  0  0  0  0  0
  -36.2076  -16.1377   24.2722 C   0  0  0  0  0  0  0  0  0  0  0  0
  -30.1329  -26.4611   13.7454 C   0  0  0  0  0  0  0  0  0  0  0  0
  -31.6947  -27.7781   20.0459 C   0  0  0  0  0  0  0  0  0  0  0  0
  -29.9572  -27.1727   18.3481 C   0  0  0  0  0  0  0  0  0  0  0  0
  -31.1892  -29.3331   18.1536 C   0  0  0  0  0  0  0  0  0  0  0  0
  -33.7335  -25.3652   13.1883 C   0  0  0  0  0  0  0  0  0  0  0  0
  -34.6937  -16.1425   24.0985 C   0  0  0  0  0  0  0  0  0  0  0  0
  -34.1581  -17.5062   23.6296 C   0  0  1  0  0  0  0  0  0  0  0  0
  -32.3909  -27.1699   17.6353 C   0  0  1  0  0  0  0  0  0  0  0  0
  -31.6338  -26.4543   13.9905 C   0  0  2  0  0  0  0  0  0  0  0  0
  -31.3310  -27.8471   18.5493 C   0  0  0  0  0  0  0  0  0  0  0  0
  -25.8629  -11.5417   20.2868 N   0  0  0  0  0  0  0  0  0  0  0  0
  -26.2400  -12.8253   20.1596 N   0  0  0  0  0  0  0  0  0  0  0  0
  -34.7764  -26.9005   18.2359 N   0  0  0  0  0  0  0  0  0  0  0  0
  -29.9713  -13.6117   20.3665 N   0  0  0  0  0  0  0  0  0  0  0  0
  -25.4741  -15.0527   20.4096 N   0  0  0  0  0  0  0  0  0  0  0  0
  -21.8887  -12.5782   21.6002 N   0  0  0  0  0  0  0  0  0  0  0  0
  -30.0827  -15.6900   21.4759 N   0  0  0  0  0  0  0  0  0  0  0  0
  -34.8005  -17.9401   22.4092 N   0  0  0  0  0  0  0  0  0  0  0  0
  -37.1977  -28.2471   20.6066 N   0  0  0  0  0  0  0  0  0  0  0  0
  -32.0860  -27.2439   16.2105 N   0  0  0  0  0  0  0  0  0  0  0  0
  -32.2556  -25.4600   13.0710 N   0  3  0  0  0  0  0  0  0  0  0  0
  -22.6648  -14.7181   21.3220 O   0  0  0  0  0  0  0  0  0  0  0  0
  -34.6726  -20.2247   22.7881 O   0  0  0  0  0  0  0  0  0  0  0  0
  -35.0720  -27.3062   20.7426 O   0  0  0  0  0  0  0  0  0  0  0  0
  -33.9371  -28.9671   17.5569 O   0  0  0  0  0  0  0  0  0  0  0  0
  -32.0769  -24.9559   15.8333 O   0  0  0  0  0  0  0  0  0  0  0  0
  -31.8589  -14.9344   20.1891 O   0  0  0  0  0  0  0  0  0  0  0  0
  -36.0183  -18.3159   20.0585 O   0  0  0  0  0  0  0  0  0  0  0  0
  -21.6142   -7.0150   21.7036 O   0  0  0  0  0  0  0  0  0  0  0  0
  -36.5485  -21.0689   19.1870 O   0  0  0  0  0  0  0  0  0  1  0  0
  -18.6236   -6.8532   26.3333 F   0  0  0  0  0  0  0  0  0  0  0  0
  -29.7010  -19.1646   24.7698 F   0  0  0  0  0  0  0  0  0  0  0  0
  -22.0643   -5.0697   23.6156 F   0  0  0  0  0  0  0  0  0  0  0  0
  -32.4086  -19.2046   25.0823 F   0  0  0  0  0  0  0  0  0  0  0  0
  1  2  1  0  0  0  0
  1  5  2  0  0  0  0
  2  6  2  0  0  0  0
  3  8  2  0  0  0  0
  3 17  1  0  0  0  0
  4  9  1  0  0  0  0
  4 17  2  0  0  0  0
  5 19  1  0  0  0  0
  6 21  1  0  0  0  0
  7 10  2  0  0  0  0
  7 20  1  0  0  0  0
  8 25  1  0  0  0  0
  9 25  2  0  0  0  0
 10 26  1  0  0  0  0
 11 12  2  0  0  0  0
 11 27  1  0  0  0  0
 12 28  1  0  0  0  0
 13 22  1  0  0  0  0
 13 26  2  0  0  0  0
 14 23  1  0  0  0  0
 14 24  2  0  0  0  0
 15 24  1  0  0  0  0
 15 29  2  0  0  0  0
 16 28  2  0  0  0  0
 16 30  1  0  0  0  0
 17 32  1  0  0  0  0
 18 32  1  0  0  0  0
 18 33  2  0  0  0  0
 18 35  1  0  0  0  0
 19 21  2  0  0  0  0
 19 42  1  0  0  0  0
 20 22  2  0  0  0  0
 20 43  1  0  0  0  0
 21 51  1  0  0  0  0
 22 44  1  0  0  0  0
 23 31  2  0  0  0  0
 23 61  1  0  0  0  0
 24 71  1  0  0  0  0
 25 83  1  0  0  0  0
 26 84  1  0  0  0  0
 27 30  2  0  0  0  0
 27 83  1  0  0  0  0
 28 85  1  0  0  0  0
 29 31  1  0  0  0  0
 29 86  1  0  0  0  0
 30 87  1  0  0  0  0
 31 88  1  0  0  0  0
 32 65  2  0  0  0  0
 33 66  1  0  0  0  0
 33 69  1  0  0  0  0
 34 36  2  0  0  0  0
 34 84  1  0  0  0  0
 35 70  1  0  0  0  0
 35 76  2  0  0  0  0
 36 37  1  0  0  0  0
 36 82  1  0  0  0  0
 37 72  1  0  0  0  0
 37 77  2  0  0  0  0
 38 52  1  0  0  0  0
 38 73  1  0  0  0  0
 38 78  2  0  0  0  0
 39 62  1  0  0  0  0
 39 67  1  0  0  0  0
 39 79  2  0  0  0  0
 40 63  1  0  0  0  0
 40 74  1  0  0  0  0
 40 80  2  0  0  0  0
 41 68  1  0  0  0  0
 41 71  1  0  0  0  0
 41 81  2  0  0  0  0
 42 45  1  0  0  0  0
 43 52  1  0  0  0  0
 44 67  1  0  0  0  0
 45 47  1  0  0  0  0
 46 48  1  0  0  0  0
 46 49  1  0  0  0  0
 47 51  1  0  0  0  0
 48 53  1  0  0  0  0
 49 68  1  0  0  0  0
 50 53  1  0  0  0  0
 50 68  1  0  0  0  0
 51 73  1  0  0  0  0
 52 67  1  0  0  0  0
 53 66  1  0  0  0  0
 54 60  1  0  0  0  0
 55 63  1  0  0  0  0
 56 64  1  0  0  0  0
 57 64  1  0  0  0  0
 58 64  1  0  0  0  0
 59 75  1  0  0  0  0
 60 61  1  0  0  0  0
 61 72  1  0  0  0  0
 62 64  1  0  0  0  0
 62 74  1  0  0  0  0
 63 75  1  0  0  0  0
 65 66  1  0  0  0  0
M  CHG  1  75   1
M  ISO  4  34 101  41 100  71 100  84 101
M  END
> <Batch ID>
0175

> <Smiles>
CCC(NC(=O)C(=O)[101CH2:1][101O:1]c1ccc2c(c1)CN(C(=O)C(NC(=O)C(C)NC)C(C)(C)C)C(C(=O)NC1CCCc3ccccc31)C2)c1cc([100NH:0][100C:0](=O)N2CCCC(n3nc(-c4ccc(Oc5ccc(F)cc5F)cc4)c(C(N)=O)c3N)C2)cc(F)c1F

> <Shape>
0.176

> <Color>
0.184

> <Negative vol penalty>
0.000

$$$$

  -OEChem-04052304353D

 88 96  0     1  0  0  0  0  0999 V2000
  -24.7170  -34.6970   23.8995 C   0  0  0  0  0  0  0  0  0  0  0  0
  -25.4486  -33.5476   23.6185 C   0  0  0  0  0  0  0  0  0  0  0  0
  -21.5352  -10.2019   23.2025 C   0  0  0  0  0  0  0  0  0  0  0  0
  -23.3479  -10.3319   21.6106 C   0  0  0  0  0  0  0  0  0  0  0  0
  -23.3699  -34.5975   24.2448 C   0  0  0  0  0  0  0  0  0  0  0  0
  -24.8336  -32.2978   23.6837 C   0  0  0  0  0  0  0  0  0  0  0  0
  -26.0041  -29.3485   19.7369 C   0  0  0  0  0  0  0  0  0  0  0  0
  -21.3028   -8.8780   22.8298 C   0  0  0  0  0  0  0  0  0  0  0  0
  -23.1156   -9.0080   21.2379 C   0  0  0  0  0  0  0  0  0  0  0  0
  -27.2522  -28.7273   19.7543 C   0  0  0  0  0  0  0  0  0  0  0  0
  -22.6585   -5.8423   23.4457 C   0  0  0  0  0  0  0  0  0  0  0  0
  -22.4561   -4.9087   24.4621 C   0  0  0  0  0  0  0  0  0  0  0  0
  -26.2167  -26.6813   20.5033 C   0  0  0  0  0  0  0  0  0  0  0  0
  -25.5166  -20.6862   20.5184 C   0  0  0  0  0  0  0  0  0  0  0  0
  -20.2647   -4.4154   23.5725 C   0  0  0  0  0  0  0  0  0  0  0  0
  -22.5577  -10.9289   22.5928 C   0  0  0  0  0  0  0  0  0  0  0  0
  -27.8276  -21.2713   20.9112 C   0  0  0  0  0  0  0  0  0  0  0  0
  -23.6574  -12.7560   23.9929 C   0  0  0  0  0  0  0  0  0  0  0  0
  -22.7357  -33.3466   24.3049 C   0  0  0  0  0  0  0  0  0  0  0  0
  -24.8525  -28.6427   20.1137 C   0  0  0  0  0  0  0  0  0  0  0  0
  -23.4771  -32.1813   24.0314 C   0  0  0  0  0  0  0  0  0  0  0  0
  -24.9549  -27.2951   20.4874 C   0  0  0  0  0  0  0  0  0  0  0  0
  -25.6235  -19.6451   21.4406 C   0  0  0  0  0  0  0  0  0  0  0  0
  -22.0931   -8.2810   21.8475 C   0  0  0  0  0  0  0  0  0  0  0  0
  -27.3590  -27.3944   20.1403 C   0  0  0  0  0  0  0  0  0  0  0  0
  -21.6640   -6.0625   22.4927 C   0  0  0  0  0  0  0  0  0  0  0  0
  -21.2592   -4.1952   24.5255 C   0  0  0  0  0  0  0  0  0  0  0  0
  -26.6187  -21.4993   20.2537 C   0  0  0  0  0  0  0  0  0  0  0  0
  -20.4671   -5.3490   22.5561 C   0  0  0  0  0  0  0  0  0  0  0  0
  -27.9344  -20.2302   21.8334 C   0  0  0  0  0  0  0  0  0  0  0  0
  -26.8323  -19.4171   22.0981 C   0  0  0  0  0  0  0  0  0  0  0  0
  -22.7979  -12.2967   22.9770 C   0  0  0  0  0  0  0  0  0  0  0  0
  -23.5301  -14.1231   23.9583 C   0  0  0  0  0  0  0  0  0  0  0  0
  -29.0013  -22.1374   20.6296 C   0  0  0  0  0  0  0  0  0  0  0  0
  -24.4959  -12.0132   24.8878 C   0  0  0  0  0  0  0  0  0  0  0  0
  -22.6849  -28.9531   22.4178 C   0  0  0  0  0  0  0  0  0  0  0  0
  -29.9217  -24.9809   19.2698 C   0  0  0  0  0  0  0  0  0  0  0  0
  -21.2241  -26.5278   20.8346 C   0  0  0  0  0  0  0  0  0  0  0  0
  -21.5048  -23.8649   18.7188 C   0  0  0  0  0  0  0  0  0  0  0  0
  -23.2301  -18.9174   21.1428 C   0  0  0  0  0  0  0  0  0  0  0  0
  -21.2896  -33.2855   24.7289 C   0  0  0  0  0  0  0  0  0  0  0  0
  -23.5101  -29.3195   20.0640 C   0  0  0  0  0  0  0  0  0  0  0  0
  -23.7463  -26.4874   20.8815 C   0  0  0  0  0  0  0  0  0  0  0  0
  -20.6172  -31.9526   24.4102 C   0  0  0  0  0  0  0  0  0  0  0  0
  -20.2139  -17.0617   21.5110 C   0  0  0  0  0  0  0  0  0  0  0  0
  -21.5101  -30.7900   24.8319 C   0  0  0  0  0  0  0  0  0  0  0  0
  -20.6880  -15.6943   22.0088 C   0  0  0  0  0  0  0  0  0  0  0  0
  -21.1844  -17.6635   20.4963 C   0  0  0  0  0  0  0  0  0  0  0  0
  -23.0561  -16.3684   21.4390 C   0  0  0  0  0  0  0  0  0  0  0  0
  -22.8392  -30.8095   24.0673 C   0  0  1  0  0  0  0  0  0  0  0  0
  -22.4715  -28.6533   20.9611 C   0  0  1  0  0  0  0  0  0  0  0  0
  -22.1438  -15.7514   22.5117 C   0  0  2  0  0  0  0  0  0  0  0  0
  -30.3991  -23.3423   17.4260 C   0  0  0  0  0  0  0  0  0  0  0  0
  -20.1433  -22.0534   17.6407 C   0  0  0  0  0  0  0  0  0  0  0  0
  -21.1515  -25.0107   23.4809 C   0  0  0  0  0  0  0  0  0  0  0  0
  -20.6811  -22.9186   22.1886 C   0  0  0  0  0  0  0  0  0  0  0  0
  -19.0677  -24.8196   22.1114 C   0  0  0  0  0  0  0  0  0  0  0  0
  -22.1521  -24.8367   15.9993 C   0  0  0  0  0  0  0  0  0  0  0  0
  -28.6037  -25.3813   19.9081 C   0  0  0  0  0  0  0  0  0  1  0  0
  -30.1580  -23.5120   18.9183 C   0  0  2  0  0  0  0  0  0  0  0  0
  -21.2789  -25.0207   20.9022 C   0  0  1  0  0  0  0  0  0  0  0  0
  -20.7010  -23.4608   17.4960 C   0  0  2  0  0  0  0  0  0  0  0  0
  -20.5680  -24.4579   22.1653 C   0  0  0  0  0  0  0  0  0  0  0  0
  -22.1708  -13.2913   22.3434 N   0  0  0  0  0  0  0  0  0  0  0  0
  -22.6366  -14.3892   22.9628 N   0  0  0  0  0  0  0  0  0  0  0  0
  -22.4569  -27.1956   20.8228 N   0  0  0  0  0  0  0  0  0  0  0  0
  -22.5427  -17.6893   21.0434 N   0  0  0  0  0  0  0  0  0  0  0  0
  -24.0963  -15.1115   24.6827 N   0  0  0  0  0  0  0  0  0  0  0  0
  -24.5071  -10.6153   24.7875 N   0  0  0  0  0  0  0  0  0  0  0  0
  -24.5012  -18.8226   21.7084 N   0  0  0  0  0  0  0  0  0  0  0  0
  -29.0708  -22.6744   19.3502 N   0  0  0  0  0  0  0  0  0  0  0  0
  -22.6575  -30.3001   22.7249 N   0  0  0  0  0  0  0  0  0  0  0  0
  -20.7293  -24.5352   19.6410 N   0  0  0  0  0  0  0  0  0  0  0  0
  -21.5564  -23.5043   16.2764 N   0  3  0  0  0  0  0  0  0  0  0  0
  -29.8403  -22.3155   21.5087 O   0  0  0  0  0  0  0  0  0  0  0  0
  -25.2015  -12.5717   25.7617 O   0  0  0  0  0  0  0  0  0  0  0  0
  -22.8598  -28.0305   23.2052 O   0  0  0  0  0  0  0  0  0  0  0  0
  -30.8121  -25.8149   19.0831 O   0  0  0  0  0  0  0  0  0  0  0  0
  -20.1279  -27.0915   20.7866 O   0  0  0  0  0  0  0  0  0  0  0  0
  -22.7000  -23.6080   18.8450 O   0  0  0  0  0  0  0  0  0  0  0  0
  -22.7175  -19.9793   20.7798 O   0  0  0  0  0  0  0  0  0  0  0  0
  -21.8668   -6.9891   21.4838 O   0  0  0  0  0  0  0  0  0  0  0  0
  -28.5760  -26.7858   20.1587 O   0  0  0  0  0  0  0  0  0  1  0  0
  -21.0656   -3.2976   25.5007 F   0  0  0  0  0  0  0  0  0  0  0  0
  -26.5041  -22.4978   19.3664 F   0  0  0  0  0  0  0  0  0  0  0  0
  -19.5084   -5.5554   21.6428 F   0  0  0  0  0  0  0  0  0  0  0  0
  -29.0911  -20.0020   22.4719 F   0  0  0  0  0  0  0  0  0  0  0  0
  -26.9469  -18.4199   22.9869 F   0  0  0  0  0  0  0  0  0  0  0  0
  1  2  1  0  0  0  0
  1  5  2  0  0  0  0
  2  6  2  0  0  0  0
  3  8  2  0  0  0  0
  3 16  1  0  0  0  0
  4  9  1  0  0  0  0
  4 16  2  0  0  0  0
  5 19  1  0  0  0  0
  6 21  1  0  0  0  0
  7 10  2  0  0  0  0
  7 20  1  0  0  0  0
  8 24  1  0  0  0  0
  9 24  2  0  0  0  0
 10 25  1  0  0  0  0
 11 12  2  0  0  0  0
 11 26  1  0  0  0  0
 12 27  1  0  0  0  0
 13 22  1  0  0  0  0
 13 25  2  0  0  0  0
 14 23  1  0  0  0  0
 14 28  2  0  0  0  0
 15 27  2  0  0  0  0
 15 29  1  0  0  0  0
 16 32  1  0  0  0  0
 17 28  1  0  0  0  0
 17 30  2  0  0  0  0
 17 34  1  0  0  0  0
 18 32  1  0  0  0  0
 18 33  2  0  0  0  0
 18 35  1  0  0  0  0
 19 21  2  0  0  0  0
 19 41  1  0  0  0  0
 20 22  2  0  0  0  0
 20 42  1  0  0  0  0
 21 50  1  0  0  0  0
 22 43  1  0  0  0  0
 23 31  2  0  0  0  0
 23 70  1  0  0  0  0
 24 82  1  0  0  0  0
 25 83  1  0  0  0  0
 26 29  2  0  0  0  0
 26 82  1  0  0  0  0
 27 84  1  0  0  0  0
 28 85  1  0  0  0  0
 29 86  1  0  0  0  0
 30 31  1  0  0  0  0
 30 87  1  0  0  0  0
 31 88  1  0  0  0  0
 32 64  2  0  0  0  0
 33 65  1  0  0  0  0
 33 68  1  0  0  0  0
 34 71  1  0  0  0  0
 34 75  2  0  0  0  0
 35 69  1  0  0  0  0
 35 76  2  0  0  0  0
 36 51  1  0  0  0  0
 36 72  1  0  0  0  0
 36 77  2  0  0  0  0
 37 59  1  0  0  0  0
 37 60  1  0  0  0  0
 37 78  2  0  0  0  0
 38 61  1  0  0  0  0
 38 66  1  0  0  0  0
 38 79  2  0  0  0  0
 39 62  1  0  0  0  0
 39 73  1  0  0  0  0
 39 80  2  0  0  0  0
 40 67  1  0  0  0  0
 40 70  1  0  0  0  0
 40 81  2  0  0  0  0
 41 44  1  0  0  0  0
 42 51  1  0  0  0  0
 43 66  1  0  0  0  0
 44 46  1  0  0  0  0
 45 47  1  0  0  0  0
 45 48  1  0  0  0  0
 46 50  1  0  0  0  0
 47 52  1  0  0  0  0
 48 67  1  0  0  0  0
 49 52  1  0  0  0  0
 49 67  1  0  0  0  0
 50 72  1  0  0  0  0
 51 66  1  0  0  0  0
 52 65  1  0  0  0  0
 53 60  1  0  0  0  0
 54 62  1  0  0  0  0
 55 63  1  0  0  0  0
 56 63  1  0  0  0  0
 57 63  1  0  0  0  0
 58 74  1  0  0  0  0
 59 83  1  0  0  0  0
 60 71  1  0  0  0  0
 61 63  1  0  0  0  0
 61 73  1  0  0  0  0
 62 74  1  0  0  0  0
 64 65  1  0  0  0  0
M  CHG  1  74   1
M  ISO  4  40 100  59 101  70 100  83 101
M  END
> <Batch ID>
0175

> <Smiles>
CNC(C)C(=O)NC(C(=O)N1Cc2cc([101O:1][101CH2:1]C(=O)C(C)NC(=O)c3c(F)cc([100NH:0][100C:0](=O)N4CCCC(n5nc(-c6ccc(Oc7ccc(F)cc7F)cc6)c(C(N)=O)c5N)C4)c(F)c3F)ccc2CC1C(=O)NC1CCCc2ccccc21)C(C)(C)C

> <Shape>
0.225

> <Color>
0.098

> <Negative vol penalty>
0.000

$$$$

  -OEChem-04052304353D

 84 92  0     1  0  0  0  0  0999 V2000
  -29.4421  -37.0342   22.1173 C   0  0  0  0  0  0  0  0  0  0  0  0
  -29.6640  -35.7703   21.5799 C   0  0  0  0  0  0  0  0  0  0  0  0
  -24.6746   -8.7721   21.7585 C   0  0  0  0  0  0  0  0  0  0  0  0
  -22.9854  -10.1491   20.7156 C   0  0  0  0  0  0  0  0  0  0  0  0
  -28.5570  -37.1916   23.1830 C   0  0  0  0  0  0  0  0  0  0  0  0
  -29.0018  -34.6629   22.1087 C   0  0  0  0  0  0  0  0  0  0  0  0
  -27.0157  -29.7493   19.0399 C   0  0  0  0  0  0  0  0  0  0  0  0
  -23.6823   -8.0814   22.4539 C   0  0  0  0  0  0  0  0  0  0  0  0
  -21.9930   -9.4583   21.4110 C   0  0  0  0  0  0  0  0  0  0  0  0
  -27.5537  -28.4759   18.8587 C   0  0  0  0  0  0  0  0  0  0  0  0
  -21.4389   -5.6330   21.8169 C   0  0  0  0  0  0  0  0  0  0  0  0
  -21.5257   -4.2415   21.8588 C   0  0  0  0  0  0  0  0  0  0  0  0
  -23.9612  -19.2101   18.2853 C   0  0  0  0  0  0  0  0  0  0  0  0
  -24.6624  -20.4049   18.4042 C   0  0  0  0  0  0  0  0  0  0  0  0
  -26.2078  -27.6541   20.6842 C   0  0  0  0  0  0  0  0  0  0  0  0
  -21.6541   -4.3221   24.2700 C   0  0  0  0  0  0  0  0  0  0  0  0
  -24.3262   -9.8060   20.8893 C   0  0  0  0  0  0  0  0  0  0  0  0
  -25.8770  -10.2061   18.9037 C   0  0  0  0  0  0  0  0  0  0  0  0
  -27.8763  -36.0871   23.7189 C   0  0  0  0  0  0  0  0  0  0  0  0
  -26.0762  -29.9874   20.0533 C   0  0  0  0  0  0  0  0  0  0  0  0
  -28.1078  -34.8056   23.1835 C   0  0  0  0  0  0  0  0  0  0  0  0
  -25.6575  -28.9308   20.8745 C   0  0  0  0  0  0  0  0  0  0  0  0
  -22.3415   -8.4244   22.2801 C   0  0  0  0  0  0  0  0  0  0  0  0
  -27.1520  -27.4287   19.6827 C   0  0  0  0  0  0  0  0  0  0  0  0
  -21.4598   -6.3691   23.0016 C   0  0  0  0  0  0  0  0  0  0  0  0
  -21.6333   -3.5860   23.0853 C   0  0  0  0  0  0  0  0  0  0  0  0
  -24.4951  -18.0413   18.8166 C   0  0  0  0  0  0  0  0  0  0  0  0
  -21.5674   -5.7136   24.2281 C   0  0  0  0  0  0  0  0  0  0  0  0
  -25.3510  -10.5203   20.1711 C   0  0  0  0  0  0  0  0  0  0  0  0
  -25.8835  -20.3779   19.0583 C   0  0  0  0  0  0  0  0  0  0  0  0
  -25.7238  -18.1201   19.4521 C   0  0  0  0  0  0  0  0  0  0  0  0
  -26.8153  -11.1815   18.6699 C   0  0  0  0  0  0  0  0  0  0  0  0
  -26.8195  -25.1612   19.2153 C   0  0  0  0  0  0  0  0  0  1  0  0
  -25.5470   -9.1288   18.0170 C   0  0  0  0  0  0  0  0  0  0  0  0
  -27.2252  -23.9001   19.0240 C   0  0  0  0  0  0  0  0  0  0  0  0
  -26.2053  -22.8482   18.7054 C   0  0  0  0  0  0  0  0  0  0  0  0
  -25.9894  -31.8265   22.6445 C   0  0  0  0  0  0  0  0  0  0  0  0
  -22.9241  -30.7781   22.8096 C   0  0  0  0  0  0  0  0  0  0  0  0
  -20.6345  -28.3807   21.9993 C   0  0  0  0  0  0  0  0  0  0  0  0
  -27.4736  -16.7748   20.6665 C   0  0  0  0  0  0  0  0  0  0  0  0
  -26.9651  -36.2999   24.9017 C   0  0  0  0  0  0  0  0  0  0  0  0
  -25.4854  -31.3608   20.2186 C   0  0  0  0  0  0  0  0  0  0  0  0
  -24.6366  -29.1296   21.9639 C   0  0  0  0  0  0  0  0  0  0  0  0
  -26.0191  -35.1300   25.1601 C   0  0  0  0  0  0  0  0  0  0  0  0
  -29.8208  -14.1149   20.9712 C   0  0  0  0  0  0  0  0  0  0  0  0
  -26.7771  -33.8075   25.1015 C   0  0  0  0  0  0  0  0  0  0  0  0
  -28.9902  -12.8632   20.6792 C   0  0  0  0  0  0  0  0  0  0  0  0
  -29.0202  -15.1584   21.7483 C   0  0  0  0  0  0  0  0  0  0  0  0
  -26.9011  -14.2744   20.8556 C   0  0  0  0  0  0  0  0  0  0  0  0
  -27.3895  -33.5836   23.7136 C   0  0  1  0  0  0  0  0  0  0  0  0
  -24.9188  -31.6036   21.6140 C   0  0  1  0  0  0  0  0  0  0  0  0
  -27.6447  -13.2212   20.0180 C   0  0  2  0  0  0  0  0  0  0  0  0
  -18.2173  -27.7809   22.3073 C   0  0  0  0  0  0  0  0  0  0  0  0
  -23.5070  -29.9113   25.6765 C   0  0  0  0  0  0  0  0  0  0  0  0
  -21.4366  -28.5057   25.5985 C   0  0  0  0  0  0  0  0  0  0  0  0
  -21.2713  -30.9818   25.3443 C   0  0  0  0  0  0  0  0  0  0  0  0
  -20.1244  -28.4565   19.0850 C   0  0  0  0  0  0  0  0  0  0  0  0
  -22.2294  -29.6030   23.4541 C   0  0  1  0  0  0  0  0  0  0  0  0
  -19.2352  -28.4793   21.4190 C   0  0  2  0  0  0  0  0  0  0  0  0
  -22.1318  -29.7468   24.9992 C   0  0  0  0  0  0  0  0  0  0  0  0
  -25.9088  -11.6101   20.7052 N   0  0  0  0  0  0  0  0  0  0  0  0
  -26.4343  -19.2623   19.5872 N   0  0  0  0  0  0  0  0  0  0  0  0
  -26.7952  -11.9890   19.7688 N   0  0  0  0  0  0  0  0  0  0  0  0
  -24.0930  -30.4920   22.0900 N   0  0  0  0  0  0  0  0  0  0  0  0
  -27.7608  -15.4507   21.0603 N   0  0  0  0  0  0  0  0  0  0  0  0
  -27.6473  -11.4186   17.6336 N   0  0  0  0  0  0  0  0  0  0  0  0
  -24.5597   -8.2162   18.4128 N   0  0  0  0  0  0  0  0  0  0  0  0
  -26.5897  -21.5995   19.1742 N   0  0  0  0  0  0  0  0  0  0  0  0
  -26.2627  -16.9258   19.9917 N   0  0  0  0  0  0  0  0  0  0  0  0
  -26.3754  -33.1466   22.7782 N   0  0  0  0  0  0  0  0  0  0  0  0
  -20.9404  -29.4728   22.7835 N   0  0  0  0  0  0  0  0  0  0  0  0
  -19.1892  -27.8516   20.0681 N   0  3  0  0  0  0  0  0  0  0  0  0
  -26.1224   -8.9705   16.9137 O   0  0  0  0  0  0  0  0  0  0  0  0
  -25.1771  -23.1306   18.0996 O   0  0  0  0  0  0  0  0  0  0  0  0
  -26.4315  -30.8718   23.2728 O   0  0  0  0  0  0  0  0  0  0  0  0
  -22.4434  -31.9073   22.9339 O   0  0  0  0  0  0  0  0  0  0  0  0
  -21.3802  -27.4282   21.7819 O   0  0  0  0  0  0  0  0  0  0  0  0
  -28.2577  -17.7017   20.8860 O   0  0  0  0  0  0  0  0  0  0  0  0
  -28.5511  -23.5264   19.1070 O   0  0  0  0  0  0  0  0  0  0  0  0
  -21.3728   -7.7505   22.9584 O   0  0  0  0  0  0  0  0  0  0  0  0
  -27.6760  -26.1850   19.5084 O   0  0  0  0  0  0  0  0  0  1  0  0
  -21.7150   -2.2496   23.1255 F   0  0  0  0  0  0  0  0  0  0  0  0
  -23.8309  -16.8833   18.7094 F   0  0  0  0  0  0  0  0  0  0  0  0
  -21.5868   -6.4153   25.3697 F   0  0  0  0  0  0  0  0  0  0  0  0
  1  2  1  0  0  0  0
  1  5  2  0  0  0  0
  2  6  2  0  0  0  0
  3  8  2  0  0  0  0
  3 17  1  0  0  0  0
  4  9  1  0  0  0  0
  4 17  2  0  0  0  0
  5 19  1  0  0  0  0
  6 21  1  0  0  0  0
  7 10  2  0  0  0  0
  7 20  1  0  0  0  0
  8 23  1  0  0  0  0
  9 23  2  0  0  0  0
 10 24  1  0  0  0  0
 11 12  2  0  0  0  0
 11 25  1  0  0  0  0
 12 26  1  0  0  0  0
 13 14  2  0  0  0  0
 13 27  1  0  0  0  0
 14 30  1  0  0  0  0
 15 22  1  0  0  0  0
 15 24  2  0  0  0  0
 16 26  2  0  0  0  0
 16 28  1  0  0  0  0
 17 29  1  0  0  0  0
 18 29  1  0  0  0  0
 18 32  2  0  0  0  0
 18 34  1  0  0  0  0
 19 21  2  0  0  0  0
 19 41  1  0  0  0  0
 20 22  2  0  0  0  0
 20 42  1  0  0  0  0
 21 50  1  0  0  0  0
 22 43  1  0  0  0  0
 23 80  1  0  0  0  0
 24 81  1  0  0  0  0
 25 28  2  0  0  0  0
 25 80  1  0  0  0  0
 26 82  1  0  0  0  0
 27 31  2  0  0  0  0
 27 83  1  0  0  0  0
 28 84  1  0  0  0  0
 29 61  2  0  0  0  0
 30 62  2  0  0  0  0
 30 68  1  0  0  0  0
 31 62  1  0  0  0  0
 31 69  1  0  0  0  0
 32 63  1  0  0  0  0
 32 66  1  0  0  0  0
 33 35  2  0  0  0  0
 33 81  1  0  0  0  0
 34 67  1  0  0  0  0
 34 73  2  0  0  0  0
 35 36  1  0  0  0  0
 35 79  1  0  0  0  0
 36 68  1  0  0  0  0
 36 74  2  0  0  0  0
 37 51  1  0  0  0  0
 37 70  1  0  0  0  0
 37 75  2  0  0  0  0
 38 58  1  0  0  0  0
 38 64  1  0  0  0  0
 38 76  2  0  0  0  0
 39 59  1  0  0  0  0
 39 71  1  0  0  0  0
 39 77  2  0  0  0  0
 40 65  1  0  0  0  0
 40 69  1  0  0  0  0
 40 78  2  0  0  0  0
 41 44  1  0  0  0  0
 42 51  1  0  0  0  0
 43 64  1  0  0  0  0
 44 46  1  0  0  0  0
 45 47  1  0  0  0  0
 45 48  1  0  0  0  0
 46 50  1  0  0  0  0
 47 52  1  0  0  0  0
 48 65  1  0  0  0  0
 49 52  1  0  0  0  0
 49 65  1  0  0  0  0
 50 70  1  0  0  0  0
 51 64  1  0  0  0  0
 52 63  1  0  0  0  0
 53 59  1  0  0  0  0
 54 60  1  0  0  0  0
 55 60  1  0  0  0  0
 56 60  1  0  0  0  0
 57 72  1  0  0  0  0
 58 60  1  0  0  0  0
 58 71  1  0  0  0  0
 59 72  1  0  0  0  0
 61 63  1  0  0  0  0
M  CHG  1  72   1
M  ISO  4  33 101  40 100  69 100  81 101
M  END
> <Batch ID>
0175

> <Smiles>
CNC(C)C(=O)NC(C(=O)N1Cc2cc([101O:1][101CH2:1]C(=O)C(=O)Nc3ccc(F)c([100NH:0][100C:0](=O)N4CCCC(n5nc(-c6ccc(Oc7ccc(F)cc7F)cc6)c(C(N)=O)c5N)C4)n3)ccc2CC1C(=O)NC1CCCc2ccccc21)C(C)(C)C

> <Shape>
0.293

> <Color>
0.097

> <Negative vol penalty>
0.000

$$$$

  -OEChem-04052304353D

 84 92  0     1  0  0  0  0  0999 V2000
  -16.8574  -28.7768   24.1333 C   0  0  0  0  0  0  0  0  0  0  0  0
  -17.2996  -28.0696   23.0198 C   0  0  0  0  0  0  0  0  0  0  0  0
  -23.0182  -11.8791   23.2641 C   0  0  0  0  0  0  0  0  0  0  0  0
  -22.0197  -13.3921   21.6669 C   0  0  0  0  0  0  0  0  0  0  0  0
  -17.5546  -29.9051   24.5631 C   0  0  0  0  0  0  0  0  0  0  0  0
  -18.4387  -28.4911   22.3348 C   0  0  0  0  0  0  0  0  0  0  0  0
  -22.6004  -24.9434   19.5781 C   0  0  0  0  0  0  0  0  0  0  0  0
  -21.8518  -11.9159   24.0281 C   0  0  0  0  0  0  0  0  0  0  0  0
  -20.8533  -13.4289   22.4309 C   0  0  0  0  0  0  0  0  0  0  0  0
  -22.7797  -24.5686   18.2472 C   0  0  0  0  0  0  0  0  0  0  0  0
  -17.4811  -13.6376   23.7736 C   0  0  0  0  0  0  0  0  0  0  0  0
  -16.2627  -13.5224   23.1044 C   0  0  0  0  0  0  0  0  0  0  0  0
  -24.3805  -26.3514   17.9672 C   0  0  0  0  0  0  0  0  0  0  0  0
  -16.9261  -11.3542   22.2700 C   0  0  0  0  0  0  0  0  0  0  0  0
  -23.1022  -12.6173   22.0835 C   0  0  0  0  0  0  0  0  0  0  0  0
  -24.6139  -11.6837   20.2529 C   0  0  0  0  0  0  0  0  0  0  0  0
  -18.7083  -30.3350   23.8887 C   0  0  0  0  0  0  0  0  0  0  0  0
  -23.3029  -26.0336   20.1114 C   0  0  0  0  0  0  0  0  0  0  0  0
  -19.1511  -29.6271   22.7551 C   0  0  0  0  0  0  0  0  0  0  0  0
  -24.2103  -26.7363   19.3058 C   0  0  0  0  0  0  0  0  0  0  0  0
  -20.7693  -12.6908   23.6115 C   0  0  0  0  0  0  0  0  0  0  0  0
  -23.6677  -25.2744   17.4408 C   0  0  0  0  0  0  0  0  0  0  0  0
  -18.4220  -12.6111   23.6910 C   0  0  0  0  0  0  0  0  0  0  0  0
  -15.9852  -12.3807   22.3526 C   0  0  0  0  0  0  0  0  0  0  0  0
  -18.1445  -11.4695   22.9392 C   0  0  0  0  0  0  0  0  0  0  0  0
  -24.3070  -12.5801   21.2942 C   0  0  0  0  0  0  0  0  0  0  0  0
  -28.3204  -20.3979   17.0227 C   0  0  0  0  0  0  0  0  0  0  0  0
  -25.8642  -12.0637   19.8300 C   0  0  0  0  0  0  0  0  0  0  0  0
  -27.0192  -20.2313   16.5971 C   0  0  0  0  0  0  0  0  0  0  0  0
  -27.7760  -18.6902   18.2867 C   0  0  0  0  0  0  0  0  0  0  0  0
  -23.8380  -10.6041   19.7160 C   0  0  0  0  0  0  0  0  0  0  0  0
  -22.4799  -28.8393   21.3580 C   0  0  0  0  0  0  0  0  0  0  0  0
  -24.5525  -23.1393   14.6559 C   0  0  0  0  0  0  0  0  0  0  0  0
  -25.6555  -29.0527   21.9843 C   0  0  0  0  0  0  0  0  0  0  0  0
  -28.8334  -28.0811   21.2074 C   0  0  0  0  0  0  0  0  0  0  0  0
  -28.8483  -17.2362   20.0423 C   0  0  0  0  0  0  0  0  0  0  0  0
  -19.4015  -31.5880   24.3623 C   0  0  0  0  0  0  0  0  0  0  0  0
  -23.1182  -26.4084   21.5563 C   0  0  0  0  0  0  0  0  0  0  0  0
  -25.0038  -27.9016   19.8359 C   0  0  0  0  0  0  0  0  0  0  0  0
  -20.8132  -31.7508   23.8049 C   0  0  0  0  0  0  0  0  0  0  0  0
  -29.8889  -14.1197   21.4140 C   0  0  0  0  0  0  0  0  0  0  0  0
  -20.8294  -31.4780   22.3042 C   0  0  0  0  0  0  0  0  0  0  0  0
  -28.6047  -13.2875   21.4385 C   0  0  0  0  0  0  0  0  0  0  0  0
  -29.6190  -15.5886   21.7353 C   0  0  0  0  0  0  0  0  0  0  0  0
  -27.2964  -15.3911   20.9382 C   0  0  0  0  0  0  0  0  0  0  0  0
  -20.3966  -30.0386   22.0004 C   0  0  1  0  0  0  0  0  0  0  0  0
  -23.5020  -27.8550   21.8520 C   0  0  1  0  0  0  0  0  0  0  0  0
  -27.5084  -13.9169   20.5567 C   0  0  2  0  0  0  0  0  0  0  0  0
  -29.2731  -21.4208   16.5416 C   0  0  0  0  0  0  0  0  0  0  0  0
  -31.2249  -28.4544   21.8697 C   0  0  0  0  0  0  0  0  0  0  0  0
  -25.6305  -31.7448   20.5483 C   0  0  0  0  0  0  0  0  0  0  0  0
  -28.1264  -31.6120   20.4034 C   0  0  0  0  0  0  0  0  0  0  0  0
  -27.0105  -31.6874   22.6331 C   0  0  0  0  0  0  0  0  0  0  0  0
  -29.1961  -25.2365   21.9392 C   0  0  0  0  0  0  0  0  0  0  0  0
  -23.6687  -23.5312   15.8230 C   0  0  0  0  0  0  0  0  0  1  0  0
  -24.9593  -20.7080   15.2723 C   0  0  0  0  0  0  0  0  0  0  0  0
  -24.5019  -21.6909   14.2052 C   0  0  2  0  0  0  0  0  0  0  0  0
  -26.8584  -29.5820   21.2415 C   0  0  1  0  0  0  0  0  0  0  0  0
  -29.9818  -27.6034   22.0776 C   0  0  2  0  0  0  0  0  0  0  0  0
  -26.8902  -31.1359   21.1957 C   0  0  0  0  0  0  0  0  0  0  0  0
  -25.2838  -13.4629   21.5191 N   0  0  0  0  0  0  0  0  0  0  0  0
  -28.7561  -19.5153   17.9918 N   0  0  0  0  0  0  0  0  0  0  0  0
  -26.2166  -13.1231   20.6134 N   0  0  0  0  0  0  0  0  0  0  0  0
  -24.7836  -28.2335   21.2532 N   0  0  0  0  0  0  0  0  0  0  0  0
  -28.5729  -16.1184   20.8580 N   0  0  0  0  0  0  0  0  0  0  0  0
  -26.6855  -11.5915   18.8683 N   0  0  0  0  0  0  0  0  0  0  0  0
  -22.5745  -10.3508   20.2670 N   0  0  0  0  0  0  0  0  0  0  0  0
  -26.3301  -20.9672   15.6470 N   0  0  0  0  0  0  0  0  0  0  0  0
  -27.7880  -17.6301   19.2268 N   0  0  0  0  0  0  0  0  0  0  0  0
  -21.4799  -29.1176   22.2702 N   0  0  0  0  0  0  0  0  0  0  0  0
  -28.0266  -28.9789   21.8740 N   0  0  0  0  0  0  0  0  0  0  0  0
  -30.3217  -26.1885   21.7559 N   0  3  0  0  0  0  0  0  0  0  0  0
  -24.2598   -9.8751   18.7864 O   0  0  0  0  0  0  0  0  0  0  0  0
  -22.5911  -29.3125   20.2331 O   0  0  0  0  0  0  0  0  0  0  0  0
  -25.2666  -23.9574   14.0757 O   0  0  0  0  0  0  0  0  0  0  0  0
  -25.4991  -29.3492   23.1714 O   0  0  0  0  0  0  0  0  0  0  0  0
  -28.6706  -27.6992   20.0506 O   0  0  0  0  0  0  0  0  0  0  0  0
  -29.9529  -17.7856   20.0457 O   0  0  0  0  0  0  0  0  0  0  0  0
  -19.6309  -12.7267   24.3566 O   0  0  0  0  0  0  0  0  0  0  0  0
  -23.8441  -24.9112   16.1412 O   0  0  0  0  0  0  0  0  0  1  0  0
  -14.8145  -12.2695   21.7113 F   0  0  0  0  0  0  0  0  0  0  0  0
  -19.0441  -10.4795   22.8571 F   0  0  0  0  0  0  0  0  0  0  0  0
  -25.2770  -21.5098   13.0966 F   0  0  0  0  0  0  0  0  0  0  0  0
  -26.3030  -18.9182   17.4362 S   0  0  0  0  0  0  0  0  0  0  0  0
  1  2  1  0  0  0  0
  1  5  2  0  0  0  0
  2  6  2  0  0  0  0
  3  8  2  0  0  0  0
  3 15  1  0  0  0  0
  4  9  1  0  0  0  0
  4 15  2  0  0  0  0
  5 17  1  0  0  0  0
  6 19  1  0  0  0  0
  7 10  2  0  0  0  0
  7 18  1  0  0  0  0
  8 21  1  0  0  0  0
  9 21  2  0  0  0  0
 10 22  1  0  0  0  0
 11 12  2  0  0  0  0
 11 23  1  0  0  0  0
 12 24  1  0  0  0  0
 13 20  1  0  0  0  0
 13 22  2  0  0  0  0
 14 24  2  0  0  0  0
 14 25  1  0  0  0  0
 15 26  1  0  0  0  0
 16 26  1  0  0  0  0
 16 28  2  0  0  0  0
 16 31  1  0  0  0  0
 17 19  2  0  0  0  0
 17 37  1  0  0  0  0
 18 20  2  0  0  0  0
 18 38  1  0  0  0  0
 19 46  1  0  0  0  0
 20 39  1  0  0  0  0
 21 79  1  0  0  0  0
 22 80  1  0  0  0  0
 23 25  2  0  0  0  0
 23 79  1  0  0  0  0
 24 81  1  0  0  0  0
 25 82  1  0  0  0  0
 26 61  2  0  0  0  0
 27 29  2  0  0  0  0
 27 49  1  0  0  0  0
 27 62  1  0  0  0  0
 28 63  1  0  0  0  0
 28 66  1  0  0  0  0
 29 68  1  0  0  0  0
 29 84  1  0  0  0  0
 30 62  2  0  0  0  0
 30 69  1  0  0  0  0
 30 84  1  0  0  0  0
 31 67  1  0  0  0  0
 31 73  2  0  0  0  0
 32 47  1  0  0  0  0
 32 70  1  0  0  0  0
 32 74  2  0  0  0  0
 33 55  1  0  0  0  0
 33 57  1  0  0  0  0
 33 75  2  0  0  0  0
 34 58  1  0  0  0  0
 34 64  1  0  0  0  0
 34 76  2  0  0  0  0
 35 59  1  0  0  0  0
 35 71  1  0  0  0  0
 35 77  2  0  0  0  0
 36 65  1  0  0  0  0
 36 69  1  0  0  0  0
 36 78  2  0  0  0  0
 37 40  1  0  0  0  0
 38 47  1  0  0  0  0
 39 64  1  0  0  0  0
 40 42  1  0  0  0  0
 41 43  1  0  0  0  0
 41 44  1  0  0  0  0
 42 46  1  0  0  0  0
 43 48  1  0  0  0  0
 44 65  1  0  0  0  0
 45 48  1  0  0  0  0
 45 65  1  0  0  0  0
 46 70  1  0  0  0  0
 47 64  1  0  0  0  0
 48 63  1  0  0  0  0
 50 59  1  0  0  0  0
 51 60  1  0  0  0  0
 52 60  1  0  0  0  0
 53 60  1  0  0  0  0
 54 72  1  0  0  0  0
 55 80  1  0  0  0  0
 56 57  1  0  0  0  0
 56 68  1  0  0  0  0
 57 83  1  0  0  0  0
 58 60  1  0  0  0  0
 58 71  1  0  0  0  0
 59 72  1  0  0  0  0
 61 63  1  0  0  0  0
M  CHG  1  72   1
M  ISO  4  36 100  55 101  69 100  80 101
M  END
> <Batch ID>
0175

> <Smiles>
CNC(C)C(=O)NC(C(=O)N1Cc2cc([101O:1][101CH2:1]C(=O)C(F)CNc3sc([100NH:0][100C:0](=O)N4CCCC(n5nc(-c6ccc(Oc7ccc(F)cc7F)cc6)c(C(N)=O)c5N)C4)nc3C)ccc2CC1C(=O)NC1CCCc2ccccc21)C(C)(C)C

> <Shape>
0.235

> <Color>
0.079

> <Negative vol penalty>
0.000

$$$$

  -OEChem-04052304353D

 89 97  0     1  0  0  0  0  0999 V2000
  -27.3572  -30.6669   28.3408 C   0  0  0  0  0  0  0  0  0  0  0  0
  -27.6599  -29.9535   27.1855 C   0  0  0  0  0  0  0  0  0  0  0  0
  -23.2400  -10.0055   22.2621 C   0  0  0  0  0  0  0  0  0  0  0  0
  -24.0745   -9.2948   20.1091 C   0  0  0  0  0  0  0  0  0  0  0  0
  -26.0270  -30.9119   28.6790 C   0  0  0  0  0  0  0  0  0  0  0  0
  -26.6325  -29.4837   26.3682 C   0  0  0  0  0  0  0  0  0  0  0  0
  -27.5254  -30.3151   21.4533 C   0  0  0  0  0  0  0  0  0  0  0  0
  -22.4023   -8.8911   22.3053 C   0  0  0  0  0  0  0  0  0  0  0  0
  -23.2368   -8.1803   20.1523 C   0  0  0  0  0  0  0  0  0  0  0  0
  -28.4174  -29.4553   20.8139 C   0  0  0  0  0  0  0  0  0  0  0  0
  -22.6778   -5.5930   22.9980 C   0  0  0  0  0  0  0  0  0  0  0  0
  -22.6182   -4.8727   24.1910 C   0  0  0  0  0  0  0  0  0  0  0  0
  -26.5596  -28.2256   19.8887 C   0  0  0  0  0  0  0  0  0  0  0  0
  -29.4682  -18.5133   18.2935 C   0  0  0  0  0  0  0  0  0  0  0  0
  -20.2487   -5.3194   24.3423 C   0  0  0  0  0  0  0  0  0  0  0  0
  -24.0761  -10.2074   21.1640 C   0  0  0  0  0  0  0  0  0  0  0  0
  -26.2611  -11.4498   21.5997 C   0  0  0  0  0  0  0  0  0  0  0  0
  -24.9829  -30.4532   27.8604 C   0  0  0  0  0  0  0  0  0  0  0  0
  -26.1414  -30.1297   21.3238 C   0  0  0  0  0  0  0  0  0  0  0  0
  -25.2870  -29.7216   26.6965 C   0  0  0  0  0  0  0  0  0  0  0  0
  -25.6522  -29.0860   20.5255 C   0  0  0  0  0  0  0  0  0  0  0  0
  -30.6979  -19.1412   18.4912 C   0  0  0  0  0  0  0  0  0  0  0  0
  -29.4124  -17.1321   18.1066 C   0  0  0  0  0  0  0  0  0  0  0  0
  -22.4007   -7.9785   21.2504 C   0  0  0  0  0  0  0  0  0  0  0  0
  -27.9346  -28.4086   20.0338 C   0  0  0  0  0  0  0  0  0  0  0  0
  -21.5229   -6.1766   22.4772 C   0  0  0  0  0  0  0  0  0  0  0  0
  -21.4037   -4.7359   24.8631 C   0  0  0  0  0  0  0  0  0  0  0  0
  -20.3083   -6.0398   23.1494 C   0  0  0  0  0  0  0  0  0  0  0  0
  -31.8718  -18.3880   18.5020 C   0  0  0  0  0  0  0  0  0  0  0  0
  -30.5864  -16.3789   18.1173 C   0  0  0  0  0  0  0  0  0  0  0  0
  -31.8161  -17.0068   18.3150 C   0  0  0  0  0  0  0  0  0  0  0  0
  -24.9413  -11.3587   21.1185 C   0  0  0  0  0  0  0  0  0  0  0  0
  -26.6403  -12.7399   21.3199 C   0  0  0  0  0  0  0  0  0  0  0  0
  -29.2313  -23.8243   18.9664 C   0  0  0  0  0  0  0  0  0  0  0  0
  -27.0718  -10.4569   22.2422 C   0  0  0  0  0  0  0  0  0  0  0  0
  -30.1586  -22.8518   18.9262 C   0  0  0  0  0  0  0  0  0  0  0  0
  -29.5443  -25.2696   19.1857 C   0  0  0  0  0  0  0  0  0  0  0  0
  -29.6920  -21.4391   18.6975 C   0  0  0  0  0  0  0  0  0  0  0  0
  -23.7657  -29.4918   23.3370 C   0  0  0  0  0  0  0  0  0  0  0  0
  -21.9298  -29.9472   20.7018 C   0  0  0  0  0  0  0  0  0  0  0  0
  -21.6994  -29.9516   17.2968 C   0  0  0  0  0  0  0  0  0  0  0  0
  -26.9050  -17.0984   17.8650 C   0  0  0  0  0  0  0  0  0  0  0  0
  -23.5593  -30.7016   28.2919 C   0  0  0  0  0  0  0  0  0  0  0  0
  -25.1924  -31.0820   21.9983 C   0  0  0  0  0  0  0  0  0  0  0  0
  -24.1755  -28.8563   20.3379 C   0  0  0  0  0  0  0  0  0  0  0  0
  -22.5392  -30.4928   27.1757 C   0  0  0  0  0  0  0  0  0  0  0  0
  -23.9149  -16.7092   19.7584 C   0  0  0  0  0  0  0  0  0  0  0  0
  -22.8184  -29.1893   26.4343 C   0  0  0  0  0  0  0  0  0  0  0  0
  -24.0239  -15.2900   20.3206 C   0  0  0  0  0  0  0  0  0  0  0  0
  -24.4845  -16.8042   18.3441 C   0  0  0  0  0  0  0  0  0  0  0  0
  -25.9624  -14.8760   18.7528 C   0  0  0  0  0  0  0  0  0  0  0  0
  -24.2009  -29.2169   25.7713 C   0  0  1  0  0  0  0  0  0  0  0  0
  -23.8034  -30.4890   22.2136 C   0  0  1  0  0  0  0  0  0  0  0  0
  -25.4606  -14.7449   20.2001 C   0  0  2  0  0  0  0  0  0  0  0  0
  -20.0603  -30.3258   15.4338 C   0  0  0  0  0  0  0  0  0  0  0  0
  -20.6906  -27.2126   21.2460 C   0  0  0  0  0  0  0  0  0  0  0  0
  -19.8010  -27.2274   18.9058 C   0  0  0  0  0  0  0  0  0  0  0  0
  -19.0634  -28.9714   20.5297 C   0  0  0  0  0  0  0  0  0  0  0  0
  -23.2732  -32.2101   16.2100 C   0  0  0  0  0  0  0  0  0  0  0  0
  -28.3695  -26.2241   19.2002 C   0  0  0  0  0  0  0  0  0  1  0  0
  -21.4106  -29.0620   19.5946 C   0  0  1  0  0  0  0  0  0  0  0  0
  -21.1126  -30.9625   16.3282 C   0  0  2  0  0  0  0  0  0  0  0  0
  -20.2693  -28.1212   20.0739 C   0  0  0  0  0  0  0  0  0  0  0  0
  -24.5109  -12.5000   20.5744 N   0  0  0  0  0  0  0  0  0  0  0  0
  -25.5663  -13.3206   20.7121 N   0  0  0  0  0  0  0  0  0  0  0  0
  -23.2878  -29.8104   21.0229 N   0  0  0  0  0  0  0  0  0  0  0  0
  -25.8491  -16.2737   18.3075 N   0  0  0  0  0  0  0  0  0  0  0  0
  -27.7843  -13.4229   21.5371 N   0  0  0  0  0  0  0  0  0  0  0  0
  -26.5268   -9.1829   22.4523 N   0  0  0  0  0  0  0  0  0  0  0  0
  -30.7528  -20.5432   18.6799 N   0  0  0  0  0  0  0  0  0  0  0  0
  -28.1623  -16.4964   17.9048 N   0  0  0  0  0  0  0  0  0  0  0  0
  -24.1636  -30.0038   24.5573 N   0  0  0  0  0  0  0  0  0  0  0  0
  -21.0318  -29.9531   18.5033 N   0  0  0  0  0  0  0  0  0  0  0  0
  -22.1833  -31.5320   15.4621 N   0  3  0  0  0  0  0  0  0  0  0  0
  -28.2391  -10.6975   22.6335 O   0  0  0  0  0  0  0  0  0  0  0  0
  -30.6886  -25.6706   19.3824 O   0  0  0  0  0  0  0  0  0  0  0  0
  -28.5022  -21.1793   18.5523 O   0  0  0  0  0  0  0  0  0  0  0  0
  -23.4012  -28.3434   23.1135 O   0  0  0  0  0  0  0  0  0  0  0  0
  -21.1606  -30.7362   21.2563 O   0  0  0  0  0  0  0  0  0  0  0  0
  -22.6521  -29.2299   17.0104 O   0  0  0  0  0  0  0  0  0  0  0  0
  -26.7122  -18.2625   17.5051 O   0  0  0  0  0  0  0  0  0  0  0  0
  -31.5145  -23.0524   19.0758 O   0  0  0  0  0  0  0  0  0  0  0  0
  -21.5835   -6.8908   21.2923 O   0  0  0  0  0  0  0  0  0  0  0  0
  -28.8031  -27.5676   19.4091 O   0  0  0  0  0  0  0  0  0  1  0  0
  -21.3463   -4.0428   26.0079 F   0  0  0  0  0  0  0  0  0  0  0  0
  -19.1952   -6.5971   22.6533 F   0  0  0  0  0  0  0  0  0  0  0  0
  -33.0594  -18.9808   18.6899 F   0  0  0  0  0  0  0  0  0  0  0  0
  -30.5451  -15.0511   17.9378 F   0  0  0  0  0  0  0  0  0  0  0  0
  -32.9432  -16.2835   18.3256 F   0  0  0  0  0  0  0  0  0  0  0  0
  1  2  1  0  0  0  0
  1  5  2  0  0  0  0
  2  6  2  0  0  0  0
  3  8  2  0  0  0  0
  3 16  1  0  0  0  0
  4  9  1  0  0  0  0
  4 16  2  0  0  0  0
  5 18  1  0  0  0  0
  6 20  1  0  0  0  0
  7 10  2  0  0  0  0
  7 19  1  0  0  0  0
  8 24  1  0  0  0  0
  9 24  2  0  0  0  0
 10 25  1  0  0  0  0
 11 12  2  0  0  0  0
 11 26  1  0  0  0  0
 12 27  1  0  0  0  0
 13 21  1  0  0  0  0
 13 25  2  0  0  0  0
 14 22  1  0  0  0  0
 14 23  2  0  0  0  0
 15 27  2  0  0  0  0
 15 28  1  0  0  0  0
 16 32  1  0  0  0  0
 17 32  1  0  0  0  0
 17 33  2  0  0  0  0
 17 35  1  0  0  0  0
 18 20  2  0  0  0  0
 18 43  1  0  0  0  0
 19 21  2  0  0  0  0
 19 44  1  0  0  0  0
 20 52  1  0  0  0  0
 21 45  1  0  0  0  0
 22 29  2  0  0  0  0
 22 70  1  0  0  0  0
 23 30  1  0  0  0  0
 23 71  1  0  0  0  0
 24 83  1  0  0  0  0
 25 84  1  0  0  0  0
 26 28  2  0  0  0  0
 26 83  1  0  0  0  0
 27 85  1  0  0  0  0
 28 86  1  0  0  0  0
 29 31  1  0  0  0  0
 29 87  1  0  0  0  0
 30 31  2  0  0  0  0
 30 88  1  0  0  0  0
 31 89  1  0  0  0  0
 32 64  2  0  0  0  0
 33 65  1  0  0  0  0
 33 68  1  0  0  0  0
 34 36  2  0  0  0  0
 34 37  1  0  0  0  0
 35 69  1  0  0  0  0
 35 75  2  0  0  0  0
 36 38  1  0  0  0  0
 36 82  1  0  0  0  0
 37 60  1  0  0  0  0
 37 76  2  0  0  0  0
 38 70  1  0  0  0  0
 38 77  2  0  0  0  0
 39 53  1  0  0  0  0
 39 72  1  0  0  0  0
 39 78  2  0  0  0  0
 40 61  1  0  0  0  0
 40 66  1  0  0  0  0
 40 79  2  0  0  0  0
 41 62  1  0  0  0  0
 41 73  1  0  0  0  0
 41 80  2  0  0  0  0
 42 67  1  0  0  0  0
 42 71  1  0  0  0  0
 42 81  2  0  0  0  0
 43 46  1  0  0  0  0
 44 53  1  0  0  0  0
 45 66  1  0  0  0  0
 46 48  1  0  0  0  0
 47 49  1  0  0  0  0
 47 50  1  0  0  0  0
 48 52  1  0  0  0  0
 49 54  1  0  0  0  0
 50 67  1  0  0  0  0
 51 54  1  0  0  0  0
 51 67  1  0  0  0  0
 52 72  1  0  0  0  0
 53 66  1  0  0  0  0
 54 65  1  0  0  0  0
 55 62  1  0  0  0  0
 56 63  1  0  0  0  0
 57 63  1  0  0  0  0
 58 63  1  0  0  0  0
 59 74  1  0  0  0  0
 60 84  1  0  0  0  0
 61 63  1  0  0  0  0
 61 73  1  0  0  0  0
 62 74  1  0  0  0  0
 64 65  1  0  0  0  0
M  CHG  1  74   1
M  ISO  4  42 100  60 101  71 100  84 101
M  END
> <Batch ID>
0175

> <Smiles>
CNC(C)C(=O)NC(C(=O)N1Cc2cc([101O:1][101CH2:1]C(=O)CC(=O)C(=O)Nc3cc([100NH:0][100C:0](=O)N4CCCC(n5nc(-c6ccc(Oc7ccc(F)cc7F)cc6)c(C(N)=O)c5N)C4)c(F)c(F)c3F)ccc2CC1C(=O)NC1CCCc2ccccc21)C(C)(C)C

> <Shape>
0.264

> <Color>
0.128

> <Negative vol penalty>
0.000

$$$$

  -OEChem-04052304353D

 88 96  0     1  0  0  0  0  0999 V2000
  -28.1633  -36.1424   21.8107 C   0  0  0  0  0  0  0  0  0  0  0  0
  -28.4464  -34.7816   21.8709 C   0  0  0  0  0  0  0  0  0  0  0  0
  -23.4497   -9.1714   20.4125 C   0  0  0  0  0  0  0  0  0  0  0  0
  -23.1396  -10.8052   22.1651 C   0  0  0  0  0  0  0  0  0  0  0  0
  -26.9048  -36.6087   22.1881 C   0  0  0  0  0  0  0  0  0  0  0  0
  -27.4714  -33.8865   22.3095 C   0  0  0  0  0  0  0  0  0  0  0  0
  -27.1694  -29.7589   19.3912 C   0  0  0  0  0  0  0  0  0  0  0  0
  -22.6826   -8.2546   21.1313 C   0  0  0  0  0  0  0  0  0  0  0  0
  -22.3725   -9.8884   22.8840 C   0  0  0  0  0  0  0  0  0  0  0  0
  -28.1424  -28.7773   19.5740 C   0  0  0  0  0  0  0  0  0  0  0  0
  -23.1054   -6.1740   23.7612 C   0  0  0  0  0  0  0  0  0  0  0  0
  -23.5831   -4.8673   23.8605 C   0  0  0  0  0  0  0  0  0  0  0  0
  -26.5918  -27.4968   20.9063 C   0  0  0  0  0  0  0  0  0  0  0  0
  -28.6349  -20.1545   19.1898 C   0  0  0  0  0  0  0  0  0  0  0  0
  -30.1155  -19.7414   21.0538 C   0  0  0  0  0  0  0  0  0  0  0  0
  -21.5856   -4.0543   22.7715 C   0  0  0  0  0  0  0  0  0  0  0  0
  -23.6782  -10.4467   20.9294 C   0  0  0  0  0  0  0  0  0  0  0  0
  -24.0129  -12.3264   19.2376 C   0  0  0  0  0  0  0  0  0  0  0  0
  -25.9106  -35.7178   22.6224 C   0  0  0  0  0  0  0  0  0  0  0  0
  -25.9016  -29.6217   19.9746 C   0  0  0  0  0  0  0  0  0  0  0  0
  -26.1987  -34.3415   22.6944 C   0  0  0  0  0  0  0  0  0  0  0  0
  -25.6036  -28.4768   20.7273 C   0  0  0  0  0  0  0  0  0  0  0  0
  -28.4968  -18.7803   18.9949 C   0  0  0  0  0  0  0  0  0  0  0  0
  -29.4443  -20.6351   20.2192 C   0  0  0  0  0  0  0  0  0  0  0  0
  -29.1680  -17.8865   19.8294 C   0  0  0  0  0  0  0  0  0  0  0  0
  -22.1440   -8.6131   22.3671 C   0  0  0  0  0  0  0  0  0  0  0  0
  -27.8547  -27.6474   20.3340 C   0  0  0  0  0  0  0  0  0  0  0  0
  -21.8678   -6.4209   23.1672 C   0  0  0  0  0  0  0  0  0  0  0  0
  -22.8232   -3.8074   23.3656 C   0  0  0  0  0  0  0  0  0  0  0  0
  -29.9774  -18.3671   20.8589 C   0  0  0  0  0  0  0  0  0  0  0  0
  -21.1079   -5.3611   22.6723 C   0  0  0  0  0  0  0  0  0  0  0  0
  -24.4710  -11.3939   20.1876 C   0  0  0  0  0  0  0  0  0  0  0  0
  -25.1469  -12.9835   18.8269 C   0  0  0  0  0  0  0  0  0  0  0  0
  -28.5298  -25.4229   20.0758 C   0  0  0  0  0  0  0  0  0  1  0  0
  -22.6813  -12.5763   18.7684 C   0  0  0  0  0  0  0  0  0  0  0  0
  -29.3884  -24.4038   20.2015 C   0  0  0  0  0  0  0  0  0  0  0  0
  -28.9938  -23.0523   19.6859 C   0  0  0  0  0  0  0  0  0  0  0  0
  -24.2266  -31.2712   22.1140 C   0  0  0  0  0  0  0  0  0  0  0  0
  -21.8899  -29.1604   21.3352 C   0  0  0  0  0  0  0  0  0  0  0  0
  -21.0519  -26.0938   20.0940 C   0  0  0  0  0  0  0  0  0  0  0  0
  -29.9857  -15.5060   19.9342 C   0  0  0  0  0  0  0  0  0  0  0  0
  -24.5804  -36.2740   23.0650 C   0  0  0  0  0  0  0  0  0  0  0  0
  -24.8543  -30.6768   19.7458 C   0  0  0  0  0  0  0  0  0  0  0  0
  -24.2513  -28.2722   21.3580 C   0  0  0  0  0  0  0  0  0  0  0  0
  -23.4811  -35.2194   23.1621 C   0  0  0  0  0  0  0  0  0  0  0  0
  -30.0330  -11.9565   19.6596 C   0  0  0  0  0  0  0  0  0  0  0  0
  -23.9910  -33.9828   23.8956 C   0  0  0  0  0  0  0  0  0  0  0  0
  -28.5525  -11.5704   19.6944 C   0  0  0  0  0  0  0  0  0  0  0  0
  -30.3341  -13.1335   20.5858 C   0  0  0  0  0  0  0  0  0  0  0  0
  -28.0096  -13.9313   20.4144 C   0  0  0  0  0  0  0  0  0  0  0  0
  -25.1593  -33.3366   23.1413 C   0  0  1  0  0  0  0  0  0  0  0  0
  -23.7643  -30.6782   20.8132 C   0  0  1  0  0  0  0  0  0  0  0  0
  -27.6456  -12.7921   19.4482 C   0  0  2  0  0  0  0  0  0  0  0  0
  -19.0644  -24.6383   19.6156 C   0  0  0  0  0  0  0  0  0  0  0  0
  -21.6295  -28.5419   24.3117 C   0  0  0  0  0  0  0  0  0  0  0  0
  -20.3640  -26.4702   23.6994 C   0  0  0  0  0  0  0  0  0  0  0  0
  -19.4554  -28.7114   23.0874 C   0  0  0  0  0  0  0  0  0  0  0  0
  -21.6673  -26.0051   17.2005 C   0  0  0  0  0  0  0  0  0  0  0  0
  -21.4609  -27.8050   21.8430 C   0  0  1  0  0  0  0  0  0  0  0  0
  -20.0278  -25.6730   19.0554 C   0  0  2  0  0  0  0  0  0  0  0  0
  -27.6241  -18.2939   17.8834 C   0  0  0  0  0  0  0  0  0  0  0  0
  -20.7537  -27.8866   23.2252 C   0  0  0  0  0  0  0  0  0  0  0  0
  -25.7930  -11.4503   20.3696 N   0  0  0  0  0  0  0  0  0  0  0  0
  -26.1753  -12.4261   19.5282 N   0  0  0  0  0  0  0  0  0  0  0  0
  -23.2628  -29.3349   21.1106 N   0  0  0  0  0  0  0  0  0  0  0  0
  -29.4395  -14.2552   20.2917 N   0  0  0  0  0  0  0  0  0  0  0  0
  -25.3548  -13.9778   17.9378 N   0  0  0  0  0  0  0  0  0  0  0  0
  -21.6324  -11.8107   19.2956 N   0  0  0  0  0  0  0  0  0  0  0  0
  -29.5849  -22.0301   20.4157 N   0  0  0  0  0  0  0  0  0  0  0  0
  -29.0382  -16.4876   19.6455 N   0  0  0  0  0  0  0  0  0  0  0  0
  -24.6719  -32.5753   22.0111 N   0  0  0  0  0  0  0  0  0  0  0  0
  -20.6448  -27.2135   20.7882 N   0  0  0  0  0  0  0  0  0  0  0  0
  -20.7074  -25.0868   17.8657 N   0  3  0  0  0  0  0  0  0  0  0  0
  -22.4312  -13.4415   17.8952 O   0  0  0  0  0  0  0  0  0  0  0  0
  -28.2349  -22.9399   18.7292 O   0  0  0  0  0  0  0  0  0  0  0  0
  -24.1811  -30.5962   23.1358 O   0  0  0  0  0  0  0  0  0  0  0  0
  -21.0374  -30.0299   21.1380 O   0  0  0  0  0  0  0  0  0  0  0  0
  -22.1057  -25.4875   20.2742 O   0  0  0  0  0  0  0  0  0  0  0  0
  -31.2041  -15.6852   19.8611 O   0  0  0  0  0  0  0  0  0  0  0  0
  -30.6293  -24.5470   20.7882 O   0  0  0  0  0  0  0  0  0  0  0  0
  -21.3953   -7.7189   23.0687 O   0  0  0  0  0  0  0  0  0  0  0  0
  -28.8028  -26.6881   20.5145 O   0  0  0  0  0  0  0  0  0  1  0  0
  -23.2828   -2.5528   23.4596 F   0  0  0  0  0  0  0  0  0  0  0  0
  -30.6276  -17.5179   21.6673 F   0  0  0  0  0  0  0  0  0  0  0  0
  -19.9186   -5.5922   22.0994 F   0  0  0  0  0  0  0  0  0  0  0  0
  -27.0453  -19.3001   17.1657 F   0  0  0  0  0  0  0  0  0  0  0  0
  -28.2872  -17.5334   16.9646 F   0  0  0  0  0  0  0  0  0  0  0  0
  -26.5941  -17.5193   18.3292 F   0  0  0  0  0  0  0  0  0  0  0  0
  1  2  1  0  0  0  0
  1  5  2  0  0  0  0
  2  6  2  0  0  0  0
  3  8  2  0  0  0  0
  3 17  1  0  0  0  0
  4  9  1  0  0  0  0
  4 17  2  0  0  0  0
  5 19  1  0  0  0  0
  6 21  1  0  0  0  0
  7 10  2  0  0  0  0
  7 20  1  0  0  0  0
  8 26  1  0  0  0  0
  9 26  2  0  0  0  0
 10 27  1  0  0  0  0
 11 12  2  0  0  0  0
 11 28  1  0  0  0  0
 12 29  1  0  0  0  0
 13 22  1  0  0  0  0
 13 27  2  0  0  0  0
 14 23  1  0  0  0  0
 14 24  2  0  0  0  0
 15 24  1  0  0  0  0
 15 30  2  0  0  0  0
 16 29  2  0  0  0  0
 16 31  1  0  0  0  0
 17 32  1  0  0  0  0
 18 32  1  0  0  0  0
 18 33  2  0  0  0  0
 18 35  1  0  0  0  0
 19 21  2  0  0  0  0
 19 42  1  0  0  0  0
 20 22  2  0  0  0  0
 20 43  1  0  0  0  0
 21 51  1  0  0  0  0
 22 44  1  0  0  0  0
 23 25  2  0  0  0  0
 23 61  1  0  0  0  0
 24 69  1  0  0  0  0
 25 30  1  0  0  0  0
 25 70  1  0  0  0  0
 26 81  1  0  0  0  0
 27 82  1  0  0  0  0
 28 31  2  0  0  0  0
 28 81  1  0  0  0  0
 29 83  1  0  0  0  0
 30 84  1  0  0  0  0
 31 85  1  0  0  0  0
 32 63  2  0  0  0  0
 33 64  1  0  0  0  0
 33 67  1  0  0  0  0
 34 36  2  0  0  0  0
 34 82  1  0  0  0  0
 35 68  1  0  0  0  0
 35 74  2  0  0  0  0
 36 37  1  0  0  0  0
 36 80  1  0  0  0  0
 37 69  1  0  0  0  0
 37 75  2  0  0  0  0
 38 52  1  0  0  0  0
 38 71  1  0  0  0  0
 38 76  2  0  0  0  0
 39 59  1  0  0  0  0
 39 65  1  0  0  0  0
 39 77  2  0  0  0  0
 40 60  1  0  0  0  0
 40 72  1  0  0  0  0
 40 78  2  0  0  0  0
 41 66  1  0  0  0  0
 41 70  1  0  0  0  0
 41 79  2  0  0  0  0
 42 45  1  0  0  0  0
 43 52  1  0  0  0  0
 44 65  1  0  0  0  0
 45 47  1  0  0  0  0
 46 48  1  0  0  0  0
 46 49  1  0  0  0  0
 47 51  1  0  0  0  0
 48 53  1  0  0  0  0
 49 66  1  0  0  0  0
 50 53  1  0  0  0  0
 50 66  1  0  0  0  0
 51 71  1  0  0  0  0
 52 65  1  0  0  0  0
 53 64  1  0  0  0  0
 54 60  1  0  0  0  0
 55 62  1  0  0  0  0
 56 62  1  0  0  0  0
 57 62  1  0  0  0  0
 58 73  1  0  0  0  0
 59 62  1  0  0  0  0
 59 72  1  0  0  0  0
 60 73  1  0  0  0  0
 61 86  1  0  0  0  0
 61 87  1  0  0  0  0
 61 88  1  0  0  0  0
 63 64  1  0  0  0  0
M  CHG  1  73   1
M  ISO  4  34 101  41 100  70 100  82 101
M  END
> <Batch ID>
0175

> <Smiles>
CNC(C)C(=O)NC(C(=O)N1Cc2cc([101O:1][101CH2:1]C(=O)C(=O)Nc3cc(F)c([100NH:0][100C:0](=O)N4CCCC(n5nc(-c6ccc(Oc7ccc(F)cc7F)cc6)c(C(N)=O)c5N)C4)c(C(F)(F)F)c3)ccc2CC1C(=O)NC1CCCc2ccccc21)C(C)(C)C

> <Shape>
0.363

> <Color>
0.113

> <Negative vol penalty>
0.000

$$$$

  -OEChem-04052304353D

 88 96  0     1  0  0  0  0  0999 V2000
  -19.3134  -24.6640   20.3748 C   0  0  0  0  0  0  0  0  0  0  0  0
  -20.2788  -24.3398   21.3225 C   0  0  0  0  0  0  0  0  0  0  0  0
  -23.0246   -9.9407   19.9220 C   0  0  0  0  0  0  0  0  0  0  0  0
  -23.8842   -9.7940   22.1752 C   0  0  0  0  0  0  0  0  0  0  0  0
  -18.6557  -25.8915   20.4431 C   0  0  0  0  0  0  0  0  0  0  0  0
  -20.5879  -25.2434   22.3386 C   0  0  0  0  0  0  0  0  0  0  0  0
  -20.9347  -23.0208   26.8757 C   0  0  0  0  0  0  0  0  0  0  0  0
  -22.2733   -8.7847   20.1333 C   0  0  0  0  0  0  0  0  0  0  0  0
  -23.1328   -8.6379   22.3865 C   0  0  0  0  0  0  0  0  0  0  0  0
  -22.1070  -22.3190   27.1530 C   0  0  0  0  0  0  0  0  0  0  0  0
  -21.1629   -5.8507   23.6390 C   0  0  0  0  0  0  0  0  0  0  0  0
  -20.4580   -5.7446   24.8380 C   0  0  0  0  0  0  0  0  0  0  0  0
  -22.9252  -24.1997   28.4230 C   0  0  0  0  0  0  0  0  0  0  0  0
  -30.0865  -17.2208   23.2745 C   0  0  0  0  0  0  0  0  0  0  0  0
  -32.2284  -16.3808   22.5374 C   0  0  0  0  0  0  0  0  0  0  0  0
  -19.2151   -7.7409   24.2838 C   0  0  0  0  0  0  0  0  0  0  0  0
  -23.8301  -10.4453   20.9429 C   0  0  0  0  0  0  0  0  0  0  0  0
  -24.2084  -12.9681   20.9639 C   0  0  0  0  0  0  0  0  0  0  0  0
  -18.9500  -26.8066   21.4662 C   0  0  0  0  0  0  0  0  0  0  0  0
  -20.7531  -24.3236   27.3616 C   0  0  0  0  0  0  0  0  0  0  0  0
  -19.9345  -26.4848   22.4199 C   0  0  0  0  0  0  0  0  0  0  0  0
  -21.7486  -24.9149   28.1526 C   0  0  0  0  0  0  0  0  0  0  0  0
  -32.1189  -18.0276   24.3018 C   0  0  0  0  0  0  0  0  0  0  0  0
  -30.8370  -16.3918   22.4407 C   0  0  0  0  0  0  0  0  0  0  0  0
  -30.7275  -18.0387   24.2050 C   0  0  0  0  0  0  0  0  0  0  0  0
  -22.3274   -8.1333   21.3656 C   0  0  0  0  0  0  0  0  0  0  0  0
  -23.1038  -22.9096   27.9243 C   0  0  0  0  0  0  0  0  0  0  0  0
  -20.8940   -6.9019   22.7625 C   0  0  0  0  0  0  0  0  0  0  0  0
  -19.4841   -6.6897   25.1603 C   0  0  0  0  0  0  0  0  0  0  0  0
  -32.8694  -17.1987   23.4680 C   0  0  0  0  0  0  0  0  0  0  0  0
  -19.9201   -7.8470   23.0848 C   0  0  0  0  0  0  0  0  0  0  0  0
  -24.6069  -11.6392   20.7251 C   0  0  0  0  0  0  0  0  0  0  0  0
  -25.2960  -13.7235   20.5991 C   0  0  0  0  0  0  0  0  0  0  0  0
  -26.7929  -20.2095   26.2336 C   0  0  0  0  0  0  0  0  0  0  0  0
  -22.9663  -13.4743   21.4702 C   0  0  0  0  0  0  0  0  0  0  0  0
  -28.1130  -19.9915   26.1022 C   0  0  0  0  0  0  0  0  0  0  0  0
  -26.1971  -21.1652   27.2166 C   0  0  0  0  0  0  0  0  0  0  0  0
  -28.5657  -18.9968   25.0672 C   0  0  0  0  0  0  0  0  0  0  0  0
  -20.3399  -27.1785   26.0265 C   0  0  0  0  0  0  0  0  0  0  0  0
  -19.8812  -28.1161   29.0978 C   0  0  0  0  0  0  0  0  0  0  0  0
  -20.4282  -27.5370   32.4162 C   0  0  0  0  0  0  0  0  0  0  0  0
  -30.7812  -14.6800   20.5934 C   0  0  0  0  0  0  0  0  0  0  0  0
  -18.2466  -28.1407   21.4713 C   0  0  0  0  0  0  0  0  0  0  0  0
  -19.4714  -25.0571   27.0760 C   0  0  0  0  0  0  0  0  0  0  0  0
  -21.5939  -26.3035   28.7151 C   0  0  0  0  0  0  0  0  0  0  0  0
  -18.3651  -28.8867   22.7979 C   0  0  0  0  0  0  0  0  0  0  0  0
  -29.5242  -12.4344   18.1328 C   0  0  0  0  0  0  0  0  0  0  0  0
  -19.8067  -28.8643   23.2960 C   0  0  0  0  0  0  0  0  0  0  0  0
  -28.1000  -12.1366   18.6075 C   0  0  0  0  0  0  0  0  0  0  0  0
  -30.4947  -12.5750   19.3042 C   0  0  0  0  0  0  0  0  0  0  0  0
  -28.6624  -13.2383   20.8114 C   0  0  0  0  0  0  0  0  0  0  0  0
  -20.2798  -27.4282   23.5517 C   0  0  1  0  0  0  0  0  0  0  0  0
  -19.6112  -26.5718   27.1921 C   0  0  1  0  0  0  0  0  0  0  0  0
  -27.6362  -13.1525   19.6698 C   0  0  2  0  0  0  0  0  0  0  0  0
  -32.8290  -18.8936   25.2914 C   0  0  0  0  0  0  0  0  0  0  0  0
  -19.9608  -28.4979   34.6868 C   0  0  0  0  0  0  0  0  0  0  0  0
  -22.0255  -30.2377   28.6386 C   0  0  0  0  0  0  0  0  0  0  0  0
  -22.1895  -30.5096   31.1221 C   0  0  0  0  0  0  0  0  0  0  0  0
  -20.0468  -31.0216   29.9519 C   0  0  0  0  0  0  0  0  0  0  0  0
  -18.9233  -25.1299   33.2530 C   0  0  0  0  0  0  0  0  0  0  0  0
  -24.6876  -21.2803   27.2224 C   0  0  0  0  0  0  0  0  0  1  0  0
  -20.7744  -28.6139   30.2083 C   0  0  1  0  0  0  0  0  0  0  0  0
  -19.4870  -27.5372   33.6073 C   0  0  2  0  0  0  0  0  0  0  0  0
  -21.2631  -30.0702   29.9682 C   0  0  0  0  0  0  0  0  0  0  0  0
  -25.8505  -11.5520   20.2455 N   0  0  0  0  0  0  0  0  0  0  0  0
  -26.2428  -12.8357   20.1800 N   0  0  0  0  0  0  0  0  0  0  0  0
  -20.3254  -26.9824   28.4027 N   0  0  0  0  0  0  0  0  0  0  0  0
  -29.9919  -13.5568   20.2676 N   0  0  0  0  0  0  0  0  0  0  0  0
  -25.5251  -15.0538   20.5991 N   0  0  0  0  0  0  0  0  0  0  0  0
  -21.9551  -12.5601   21.7956 N   0  0  0  0  0  0  0  0  0  0  0  0
  -29.9486  -18.8733   25.0423 N   0  0  0  0  0  0  0  0  0  0  0  0
  -30.1858  -15.5611   21.4954 N   0  0  0  0  0  0  0  0  0  0  0  0
  -19.7454  -26.9353   24.8030 N   0  0  0  0  0  0  0  0  0  0  0  0
  -20.0257  -28.4315   31.4471 N   0  0  0  0  0  0  0  0  0  0  0  0
  -19.3994  -26.1721   34.1986 N   0  3  0  0  0  0  0  0  0  0  0  0
  -22.7533  -14.7021   21.6139 O   0  0  0  0  0  0  0  0  0  0  0  0
  -26.8838  -21.8033   28.0104 O   0  0  0  0  0  0  0  0  0  0  0  0
  -27.7573  -18.4009   24.3633 O   0  0  0  0  0  0  0  0  0  0  0  0
  -21.3648  -27.8209   26.2228 O   0  0  0  0  0  0  0  0  0  0  0  0
  -18.8248  -28.7071   28.8605 O   0  0  0  0  0  0  0  0  0  0  0  0
  -21.4230  -26.8181   32.3536 O   0  0  0  0  0  0  0  0  0  0  0  0
  -31.8914  -14.8618   20.0870 O   0  0  0  0  0  0  0  0  0  0  0  0
  -29.0905  -20.6174   26.8464 O   0  0  0  0  0  0  0  0  0  0  0  0
  -21.5941   -7.0053   21.5722 O   0  0  0  0  0  0  0  0  0  0  0  0
  -24.2493  -22.2271   28.1959 O   0  0  0  0  0  0  0  0  0  1  0  0
  -18.8062   -6.5868   26.3110 F   0  0  0  0  0  0  0  0  0  0  0  0
  -34.2070  -17.1793   23.5540 F   0  0  0  0  0  0  0  0  0  0  0  0
  -19.6565   -8.8584   22.2462 F   0  0  0  0  0  0  0  0  0  0  0  0
  1  2  1  0  0  0  0
  1  5  2  0  0  0  0
  2  6  2  0  0  0  0
  3  8  2  0  0  0  0
  3 17  1  0  0  0  0
  4  9  1  0  0  0  0
  4 17  2  0  0  0  0
  5 19  1  0  0  0  0
  6 21  1  0  0  0  0
  7 10  2  0  0  0  0
  7 20  1  0  0  0  0
  8 26  1  0  0  0  0
  9 26  2  0  0  0  0
 10 27  1  0  0  0  0
 11 12  2  0  0  0  0
 11 28  1  0  0  0  0
 12 29  1  0  0  0  0
 13 22  1  0  0  0  0
 13 27  2  0  0  0  0
 14 24  2  0  0  0  0
 14 25  1  0  0  0  0
 15 24  1  0  0  0  0
 15 30  2  0  0  0  0
 16 29  2  0  0  0  0
 16 31  1  0  0  0  0
 17 32  1  0  0  0  0
 18 32  1  0  0  0  0
 18 33  2  0  0  0  0
 18 35  1  0  0  0  0
 19 21  2  0  0  0  0
 19 43  1  0  0  0  0
 20 22  2  0  0  0  0
 20 44  1  0  0  0  0
 21 52  1  0  0  0  0
 22 45  1  0  0  0  0
 23 25  2  0  0  0  0
 23 30  1  0  0  0  0
 23 55  1  0  0  0  0
 24 72  1  0  0  0  0
 25 71  1  0  0  0  0
 26 84  1  0  0  0  0
 27 85  1  0  0  0  0
 28 31  2  0  0  0  0
 28 84  1  0  0  0  0
 29 86  1  0  0  0  0
 30 87  1  0  0  0  0
 31 88  1  0  0  0  0
 32 65  2  0  0  0  0
 33 66  1  0  0  0  0
 33 69  1  0  0  0  0
 34 36  2  0  0  0  0
 34 37  1  0  0  0  0
 35 70  1  0  0  0  0
 35 76  2  0  0  0  0
 36 38  1  0  0  0  0
 36 83  1  0  0  0  0
 37 61  1  0  0  0  0
 37 77  2  0  0  0  0
 38 71  1  0  0  0  0
 38 78  2  0  0  0  0
 39 53  1  0  0  0  0
 39 73  1  0  0  0  0
 39 79  2  0  0  0  0
 40 62  1  0  0  0  0
 40 67  1  0  0  0  0
 40 80  2  0  0  0  0
 41 63  1  0  0  0  0
 41 74  1  0  0  0  0
 41 81  2  0  0  0  0
 42 68  1  0  0  0  0
 42 72  1  0  0  0  0
 42 82  2  0  0  0  0
 43 46  1  0  0  0  0
 44 53  1  0  0  0  0
 45 67  1  0  0  0  0
 46 48  1  0  0  0  0
 47 49  1  0  0  0  0
 47 50  1  0  0  0  0
 48 52  1  0  0  0  0
 49 54  1  0  0  0  0
 50 68  1  0  0  0  0
 51 54  1  0  0  0  0
 51 68  1  0  0  0  0
 52 73  1  0  0  0  0
 53 67  1  0  0  0  0
 54 66  1  0  0  0  0
 56 63  1  0  0  0  0
 57 64  1  0  0  0  0
 58 64  1  0  0  0  0
 59 64  1  0  0  0  0
 60 75  1  0  0  0  0
 61 85  1  0  0  0  0
 62 64  1  0  0  0  0
 62 74  1  0  0  0  0
 63 75  1  0  0  0  0
 65 66  1  0  0  0  0
M  CHG  1  75   1
M  ISO  4  42 100  61 101  72 100  85 101
M  END
> <Batch ID>
0175

> <Smiles>
CNC(C)C(=O)NC(C(=O)N1Cc2cc([101O:1][101CH2:1]C(=O)CC(=O)C(=O)Nc3cc([100NH:0][100C:0](=O)N4CCCC(n5nc(-c6ccc(Oc7ccc(F)cc7F)cc6)c(C(N)=O)c5N)C4)cc(F)c3C)ccc2CC1C(=O)NC1CCCc2ccccc21)C(C)(C)C

> <Shape>
0.211

> <Color>
0.204

> <Negative vol penalty>
0.000

$$$$

  -OEChem-04052304353D

 89 97  0     1  0  0  0  0  0999 V2000
  -27.5905  -30.9713   12.9386 C   0  0  0  0  0  0  0  0  0  0  0  0
  -27.3960  -29.7244   13.5241 C   0  0  0  0  0  0  0  0  0  0  0  0
  -23.1101   -9.8468   19.9432 C   0  0  0  0  0  0  0  0  0  0  0  0
  -23.8724   -9.8768   22.2356 C   0  0  0  0  0  0  0  0  0  0  0  0
  -27.5795  -32.1203   13.7283 C   0  0  0  0  0  0  0  0  0  0  0  0
  -27.1915  -29.6257   14.8999 C   0  0  0  0  0  0  0  0  0  0  0  0
  -23.6076  -25.6015   17.8098 C   0  0  0  0  0  0  0  0  0  0  0  0
  -22.3788   -8.6875   20.2016 C   0  0  0  0  0  0  0  0  0  0  0  0
  -23.1410   -8.7175   22.4940 C   0  0  0  0  0  0  0  0  0  0  0  0
  -23.8828  -24.3997   18.4607 C   0  0  0  0  0  0  0  0  0  0  0  0
  -19.9222   -7.8896   23.1055 C   0  0  0  0  0  0  0  0  0  0  0  0
  -19.1670   -7.8493   24.2776 C   0  0  0  0  0  0  0  0  0  0  0  0
  -23.9720  -25.5689   20.5688 C   0  0  0  0  0  0  0  0  0  0  0  0
  -30.7048  -19.2132   20.2461 C   0  0  0  0  0  0  0  0  0  0  0  0
  -20.4297   -5.9299   25.0252 C   0  0  0  0  0  0  0  0  0  0  0  0
  -23.8570  -10.4415   20.9603 C   0  0  0  0  0  0  0  0  0  0  0  0
  -24.1719  -12.9692   20.8234 C   0  0  0  0  0  0  0  0  0  0  0  0
  -27.3652  -32.0365   15.1131 C   0  0  0  0  0  0  0  0  0  0  0  0
  -23.5233  -26.7997   18.5333 C   0  0  0  0  0  0  0  0  0  0  0  0
  -27.1790  -30.7745   15.7091 C   0  0  0  0  0  0  0  0  0  0  0  0
  -23.6931  -26.7842   19.9250 C   0  0  0  0  0  0  0  0  0  0  0  0
  -30.5148  -19.9372   21.4231 C   0  0  0  0  0  0  0  0  0  0  0  0
  -30.2101  -17.1642   21.4267 C   0  0  0  0  0  0  0  0  0  0  0  0
  -22.3942   -8.1229   21.4770 C   0  0  0  0  0  0  0  0  0  0  0  0
  -24.0679  -24.3837   19.8401 C   0  0  0  0  0  0  0  0  0  0  0  0
  -20.9311   -6.9500   22.8933 C   0  0  0  0  0  0  0  0  0  0  0  0
  -19.4207   -6.8695   25.2374 C   0  0  0  0  0  0  0  0  0  0  0  0
  -30.5524  -17.8267   20.2479 C   0  0  0  0  0  0  0  0  0  0  0  0
  -21.1848   -5.9702   23.8531 C   0  0  0  0  0  0  0  0  0  0  0  0
  -30.1725  -19.2747   22.6019 C   0  0  0  0  0  0  0  0  0  0  0  0
  -30.0202  -17.8882   22.6037 C   0  0  0  0  0  0  0  0  0  0  0  0
  -24.6131  -11.6387   20.6938 C   0  0  0  0  0  0  0  0  0  0  0  0
  -25.2557  -13.7278   20.4539 C   0  0  0  0  0  0  0  0  0  0  0  0
  -22.8965  -13.4743   21.2404 C   0  0  0  0  0  0  0  0  0  0  0  0
  -27.4262  -23.1758   20.6136 C   0  0  0  0  0  0  0  0  0  0  0  0
  -28.6967  -22.4318   20.3225 C   0  0  0  0  0  0  0  0  0  0  0  0
  -25.1304  -29.5421   18.5264 C   0  0  0  0  0  0  0  0  0  0  0  0
  -22.8338  -30.4433   20.6325 C   0  0  0  0  0  0  0  0  0  0  0  0
  -20.4940  -29.5194   22.9387 C   0  0  0  0  0  0  0  0  0  0  0  0
  -30.7107  -14.8323   20.6154 C   0  0  0  0  0  0  0  0  0  0  0  0
  -27.4090  -33.3020   15.9324 C   0  0  0  0  0  0  0  0  0  0  0  0
  -23.1993  -28.0836   17.8197 C   0  0  0  0  0  0  0  0  0  0  0  0
  -23.5927  -28.0401   20.7503 C   0  0  0  0  0  0  0  0  0  0  0  0
  -26.8125  -33.1446   17.3287 C   0  0  0  0  0  0  0  0  0  0  0  0
  -29.6193  -12.3914   18.2642 C   0  0  0  0  0  0  0  0  0  0  0  0
  -27.3346  -31.8741   17.9922 C   0  0  0  0  0  0  0  0  0  0  0  0
  -28.1833  -12.0874   18.6974 C   0  0  0  0  0  0  0  0  0  0  0  0
  -30.5332  -12.6377   19.4632 C   0  0  0  0  0  0  0  0  0  0  0  0
  -28.6203  -13.3510   20.8420 C   0  0  0  0  0  0  0  0  0  0  0  0
  -26.9294  -30.6287   17.1945 C   0  0  1  0  0  0  0  0  0  0  0  0
  -23.6452  -29.3235   18.5887 C   0  0  1  0  0  0  0  0  0  0  0  0
  -27.6480  -13.1598   19.6665 C   0  0  2  0  0  0  0  0  0  0  0  0
  -18.8000  -30.4814   24.5205 C   0  0  0  0  0  0  0  0  0  0  0  0
  -24.3114  -22.7545   22.8305 C   0  0  0  0  0  0  0  0  0  0  0  0
  -25.0750  -31.2437   22.5421 C   0  0  0  0  0  0  0  0  0  0  0  0
  -23.3889  -31.2857   24.3924 C   0  0  0  0  0  0  0  0  0  0  0  0
  -23.1547  -32.8436   22.4583 C   0  0  0  0  0  0  0  0  0  0  0  0
  -18.2619  -28.1376   21.5721 C   0  0  0  0  0  0  0  0  0  0  0  0
  -30.6797  -21.4295   21.4176 C   0  0  0  0  0  0  0  0  0  0  0  0
  -26.3950  -22.4506   21.4517 C   0  0  0  0  0  0  0  0  0  0  0  0
  -22.6756  -30.3827   22.1326 C   0  0  1  0  0  0  0  0  0  0  0  0
  -19.0447  -29.9314   23.1240 C   0  0  2  0  0  0  0  0  0  0  0  0
  -25.1311  -23.2845   21.6614 C   0  0  1  0  0  0  0  0  0  1  0  0
  -23.5774  -31.4154   22.8658 C   0  0  0  0  0  0  0  0  0  0  0  0
  -25.8785  -11.5535   20.2747 N   0  0  0  0  0  0  0  0  0  0  0  0
  -26.2416  -12.8401   20.1376 N   0  0  0  0  0  0  0  0  0  0  0  0
  -23.2803  -29.2712   20.0059 N   0  0  0  0  0  0  0  0  0  0  0  0
  -29.9644  -13.6683   20.3345 N   0  0  0  0  0  0  0  0  0  0  0  0
  -25.4519  -15.0609   20.3720 N   0  0  0  0  0  0  0  0  0  0  0  0
  -21.8947  -12.5567   21.5848 N   0  0  0  0  0  0  0  0  0  0  0  0
  -30.0545  -15.7558   21.4285 N   0  0  0  0  0  0  0  0  0  0  0  0
  -29.4083  -22.1140   21.4562 N   0  0  0  0  0  0  0  0  0  0  0  0
  -25.5432  -30.2970   17.4451 N   0  0  0  0  0  0  0  0  0  0  0  0
  -21.2498  -30.5388   22.3993 N   0  0  0  0  0  0  0  0  0  0  0  0
  -18.1433  -28.7633   22.9143 N   0  3  0  0  0  0  0  0  0  0  0  0
  -22.6473  -14.7027   21.2900 O   0  0  0  0  0  0  0  0  0  0  0  0
  -27.3196  -24.3015   20.1506 O   0  0  0  0  0  0  0  0  0  0  0  0
  -28.9747  -22.2165   19.1533 O   0  0  0  0  0  0  0  0  0  0  0  0
  -25.8487  -29.0627   19.3959 O   0  0  0  0  0  0  0  0  0  0  0  0
  -22.5640  -31.4898   20.0378 O   0  0  0  0  0  0  0  0  0  0  0  0
  -20.9144  -28.4060   23.2455 O   0  0  0  0  0  0  0  0  0  0  0  0
  -31.8374  -15.0099   20.1453 O   0  0  0  0  0  0  0  0  0  0  0  0
  -21.6805   -6.9918   21.7295 O   0  0  0  0  0  0  0  0  0  0  0  0
  -24.3372  -23.2121   20.4778 O   0  0  0  0  0  0  0  0  0  1  0  0
  -18.6965   -6.8319   26.3635 F   0  0  0  0  0  0  0  0  0  0  0  0
  -30.7385  -17.1407   19.1109 F   0  0  0  0  0  0  0  0  0  0  0  0
  -22.1535   -5.0656   23.6553 F   0  0  0  0  0  0  0  0  0  0  0  0
  -29.9886  -19.9618   23.7378 F   0  0  0  0  0  0  0  0  0  0  0  0
  -29.6910  -17.2619   23.7424 F   0  0  0  0  0  0  0  0  0  0  0  0
  1  2  1  0  0  0  0
  1  5  2  0  0  0  0
  2  6  2  0  0  0  0
  3  8  2  0  0  0  0
  3 16  1  0  0  0  0
  4  9  1  0  0  0  0
  4 16  2  0  0  0  0
  5 18  1  0  0  0  0
  6 20  1  0  0  0  0
  7 10  2  0  0  0  0
  7 19  1  0  0  0  0
  8 24  1  0  0  0  0
  9 24  2  0  0  0  0
 10 25  1  0  0  0  0
 11 12  2  0  0  0  0
 11 26  1  0  0  0  0
 12 27  1  0  0  0  0
 13 21  1  0  0  0  0
 13 25  2  0  0  0  0
 14 22  1  0  0  0  0
 14 28  2  0  0  0  0
 15 27  2  0  0  0  0
 15 29  1  0  0  0  0
 16 32  1  0  0  0  0
 17 32  1  0  0  0  0
 17 33  2  0  0  0  0
 17 34  1  0  0  0  0
 18 20  2  0  0  0  0
 18 41  1  0  0  0  0
 19 21  2  0  0  0  0
 19 42  1  0  0  0  0
 20 50  1  0  0  0  0
 21 43  1  0  0  0  0
 22 30  2  0  0  0  0
 22 59  1  0  0  0  0
 23 28  1  0  0  0  0
 23 31  2  0  0  0  0
 23 71  1  0  0  0  0
 24 83  1  0  0  0  0
 25 84  1  0  0  0  0
 26 29  2  0  0  0  0
 26 83  1  0  0  0  0
 27 85  1  0  0  0  0
 28 86  1  0  0  0  0
 29 87  1  0  0  0  0
 30 31  1  0  0  0  0
 30 88  1  0  0  0  0
 31 89  1  0  0  0  0
 32 65  2  0  0  0  0
 33 66  1  0  0  0  0
 33 69  1  0  0  0  0
 34 70  1  0  0  0  0
 34 76  2  0  0  0  0
 35 36  1  0  0  0  0
 35 60  1  0  0  0  0
 35 77  2  0  0  0  0
 36 72  1  0  0  0  0
 36 78  2  0  0  0  0
 37 51  1  0  0  0  0
 37 73  1  0  0  0  0
 37 79  2  0  0  0  0
 38 61  1  0  0  0  0
 38 67  1  0  0  0  0
 38 80  2  0  0  0  0
 39 62  1  0  0  0  0
 39 74  1  0  0  0  0
 39 81  2  0  0  0  0
 40 68  1  0  0  0  0
 40 71  1  0  0  0  0
 40 82  2  0  0  0  0
 41 44  1  0  0  0  0
 42 51  1  0  0  0  0
 43 67  1  0  0  0  0
 44 46  1  0  0  0  0
 45 47  1  0  0  0  0
 45 48  1  0  0  0  0
 46 50  1  0  0  0  0
 47 52  1  0  0  0  0
 48 68  1  0  0  0  0
 49 52  1  0  0  0  0
 49 68  1  0  0  0  0
 50 73  1  0  0  0  0
 51 67  1  0  0  0  0
 52 66  1  0  0  0  0
 53 62  1  0  0  0  0
 54 63  1  0  0  0  0
 55 64  1  0  0  0  0
 56 64  1  0  0  0  0
 57 64  1  0  0  0  0
 58 75  1  0  0  0  0
 59 72  1  0  0  0  0
 60 63  1  0  0  0  0
 61 64  1  0  0  0  0
 61 74  1  0  0  0  0
 62 75  1  0  0  0  0
 63 84  1  0  0  0  0
 65 66  1  0  0  0  0
M  CHG  1  75   1
M  ISO  4  40 100  63 101  71 100  84 101
M  END
> <Batch ID>
0175

> <Smiles>
CNC(C)C(=O)NC(C(=O)N1Cc2cc([101O:1][101CH:1](C)CC(=O)C(=O)NCc3cc(F)c([100NH:0][100C:0](=O)N4CCCC(n5nc(-c6ccc(Oc7ccc(F)cc7F)cc6)c(C(N)=O)c5N)C4)c(F)c3F)ccc2CC1C(=O)NC1CCCc2ccccc21)C(C)(C)C

> <Shape>
0.322

> <Color>
0.206

> <Negative vol penalty>
0.000

$$$$

  -OEChem-04052304353D

 87 95  0     1  0  0  0  0  0999 V2000
  -28.2768  -30.8563   16.3332 C   0  0  0  0  0  0  0  0  0  0  0  0
  -28.7678  -29.9240   17.2415 C   0  0  0  0  0  0  0  0  0  0  0  0
  -23.0773   -9.8648   19.9434 C   0  0  0  0  0  0  0  0  0  0  0  0
  -23.8349   -9.8772   22.2375 C   0  0  0  0  0  0  0  0  0  0  0  0
  -27.8047  -30.4356   15.0906 C   0  0  0  0  0  0  0  0  0  0  0  0
  -28.7860  -28.5701   16.9082 C   0  0  0  0  0  0  0  0  0  0  0  0
  -33.1556  -26.3253   18.1379 C   0  0  0  0  0  0  0  0  0  0  0  0
  -22.3338   -8.7118   20.1951 C   0  0  0  0  0  0  0  0  0  0  0  0
  -23.0914   -8.7242   22.4893 C   0  0  0  0  0  0  0  0  0  0  0  0
  -33.3443  -25.9904   19.4780 C   0  0  0  0  0  0  0  0  0  0  0  0
  -19.8630   -7.9260   23.0903 C   0  0  0  0  0  0  0  0  0  0  0  0
  -19.1049   -7.8883   24.2605 C   0  0  0  0  0  0  0  0  0  0  0  0
  -32.7369  -23.7080   18.9870 C   0  0  0  0  0  0  0  0  0  0  0  0
  -31.1398  -17.7165   20.6013 C   0  0  0  0  0  0  0  0  0  0  0  0
  -20.3466   -5.9531   25.0024 C   0  0  0  0  0  0  0  0  0  0  0  0
  -23.8279  -10.4475   20.9646 C   0  0  0  0  0  0  0  0  0  0  0  0
  -24.1686  -12.9725   20.8394 C   0  0  0  0  0  0  0  0  0  0  0  0
  -27.8261  -29.0770   14.7381 C   0  0  0  0  0  0  0  0  0  0  0  0
  -32.7449  -25.3548   17.2127 C   0  0  0  0  0  0  0  0  0  0  0  0
  -28.3126  -28.1307   15.6602 C   0  0  0  0  0  0  0  0  0  0  0  0
  -32.5462  -24.0326   17.6352 C   0  0  0  0  0  0  0  0  0  0  0  0
  -30.2473  -17.1038   21.4739 C   0  0  0  0  0  0  0  0  0  0  0  0
  -22.3408   -8.1415   21.4680 C   0  0  0  0  0  0  0  0  0  0  0  0
  -33.1322  -24.6822   19.9033 C   0  0  0  0  0  0  0  0  0  0  0  0
  -20.8629   -6.9773   22.8761 C   0  0  0  0  0  0  0  0  0  0  0  0
  -19.3467   -6.9018   25.2166 C   0  0  0  0  0  0  0  0  0  0  0  0
  -31.2888  -19.0987   20.6252 C   0  0  0  0  0  0  0  0  0  0  0  0
  -21.1047   -5.9908   23.8322 C   0  0  0  0  0  0  0  0  0  0  0  0
  -24.5967  -11.6382   20.7050 C   0  0  0  0  0  0  0  0  0  0  0  0
  -30.5281  -19.8174   21.5333 C   0  0  0  0  0  0  0  0  0  0  0  0
  -29.5334  -17.9118   22.3441 C   0  0  0  0  0  0  0  0  0  0  0  0
  -25.2607  -13.7218   20.4756 C   0  0  0  0  0  0  0  0  0  0  0  0
  -22.8974  -13.4886   21.2559 C   0  0  0  0  0  0  0  0  0  0  0  0
  -30.4805  -23.5315   22.1355 C   0  0  0  0  0  0  0  0  0  0  0  0
  -30.0341  -22.1178   22.3740 C   0  0  0  0  0  0  0  0  0  0  0  0
  -30.2034  -24.9721   15.3424 C   0  0  0  0  0  0  0  0  0  0  0  0
  -31.8985  -22.4463   14.2158 C   0  0  0  0  0  0  0  0  0  0  0  0
  -34.3322  -20.1163   14.7592 C   0  0  0  0  0  0  0  0  0  0  0  0
  -30.7262  -14.7706   20.6535 C   0  0  0  0  0  0  0  0  0  0  0  0
  -27.2614  -28.6648   13.4017 C   0  0  0  0  0  0  0  0  0  0  0  0
  -32.5716  -25.7262   15.7655 C   0  0  0  0  0  0  0  0  0  0  0  0
  -32.1245  -22.9491   16.6778 C   0  0  0  0  0  0  0  0  0  0  0  0
  -27.6623  -27.2535   12.9802 C   0  0  0  0  0  0  0  0  0  0  0  0
  -29.6154  -12.3511   18.2893 C   0  0  0  0  0  0  0  0  0  0  0  0
  -27.4782  -26.2778   14.1382 C   0  0  0  0  0  0  0  0  0  0  0  0
  -28.1755  -12.0597   18.7181 C   0  0  0  0  0  0  0  0  0  0  0  0
  -30.5292  -12.5830   19.4914 C   0  0  0  0  0  0  0  0  0  0  0  0
  -28.6205  -13.3094   20.8692 C   0  0  0  0  0  0  0  0  0  0  0  0
  -28.3718  -26.6560   15.3256 C   0  0  1  0  0  0  0  0  0  0  0  0
  -31.6546  -24.7702   15.0089 C   0  0  1  0  0  0  0  0  0  0  0  0
  -27.6489  -13.1331   19.6908 C   0  0  2  0  0  0  0  0  0  0  0  0
  -35.4664  -18.1614   13.6688 C   0  0  0  0  0  0  0  0  0  0  0  0
  -33.4241  -25.8057   23.1139 C   0  0  0  0  0  0  0  0  0  0  0  0
  -29.4575  -20.7097   14.7955 C   0  0  0  0  0  0  0  0  0  0  0  0
  -30.9310  -18.6951   14.5995 C   0  0  0  0  0  0  0  0  0  0  0  0
  -30.6112  -20.2000   12.6359 C   0  0  0  0  0  0  0  0  0  0  0  0
  -36.9708  -21.4543   14.8392 C   0  0  0  0  0  0  0  0  0  0  0  0
  -31.6788  -24.0014   22.9322 C   0  0  0  0  0  0  0  0  0  0  0  0
  -32.0158  -20.9872   14.5852 C   0  0  1  0  0  0  0  0  0  0  0  0
  -35.5020  -19.6634   13.9043 C   0  0  2  0  0  0  0  0  0  0  0  0
  -32.5095  -25.0348   22.1713 C   0  0  2  0  0  0  0  0  0  1  0  0
  -30.7599  -20.1686   14.1727 C   0  0  0  0  0  0  0  0  0  0  0  0
  -25.8620  -11.5421   20.2882 N   0  0  0  0  0  0  0  0  0  0  0  0
  -29.6511  -19.2576   22.3964 N   0  0  0  0  0  0  0  0  0  0  0  0
  -26.2384  -12.8256   20.1574 N   0  0  0  0  0  0  0  0  0  0  0  0
  -31.9619  -23.3634   15.2744 N   0  0  0  0  0  0  0  0  0  0  0  0
  -29.9688  -13.6154   20.3660 N   0  0  0  0  0  0  0  0  0  0  0  0
  -25.4705  -15.0532   20.3998 N   0  0  0  0  0  0  0  0  0  0  0  0
  -21.8856  -12.5796   21.5941 N   0  0  0  0  0  0  0  0  0  0  0  0
  -30.0775  -15.6971   21.4692 N   0  0  0  0  0  0  0  0  0  0  0  0
  -30.6841  -21.2230   21.5516 N   0  0  0  0  0  0  0  0  0  0  0  0
  -29.7380  -26.2466   15.0805 N   0  0  0  0  0  0  0  0  0  0  0  0
  -33.2601  -20.5139   13.9886 N   0  0  0  0  0  0  0  0  0  0  0  0
  -36.7917  -20.0046   14.5685 N   0  3  0  0  0  0  0  0  0  0  0  0
  -22.6605  -14.7192   21.3103 O   0  0  0  0  0  0  0  0  0  0  0  0
  -29.8519  -24.1862   21.3179 O   0  0  0  0  0  0  0  0  0  0  0  0
  -29.2030  -21.9482   23.2507 O   0  0  0  0  0  0  0  0  0  0  0  0
  -29.5537  -24.0402   15.8017 O   0  0  0  0  0  0  0  0  0  0  0  0
  -31.7629  -22.7610   13.0308 O   0  0  0  0  0  0  0  0  0  0  0  0
  -34.3647  -20.1139   15.9878 O   0  0  0  0  0  0  0  0  0  0  0  0
  -31.8556  -14.9389   20.1866 O   0  0  0  0  0  0  0  0  0  0  0  0
  -21.6152   -7.0166   21.7141 O   0  0  0  0  0  0  0  0  0  0  0  0
  -33.3150  -24.3528   21.2110 O   0  0  0  0  0  0  0  0  0  1  0  0
  -18.6197   -6.8666   26.3410 F   0  0  0  0  0  0  0  0  0  0  0  0
  -32.1445  -19.7021   19.7904 F   0  0  0  0  0  0  0  0  0  0  0  0
  -22.0647   -5.0774   23.6325 F   0  0  0  0  0  0  0  0  0  0  0  0
  -28.6649  -17.3434   23.1968 F   0  0  0  0  0  0  0  0  0  0  0  0
  1  2  1  0  0  0  0
  1  5  2  0  0  0  0
  2  6  2  0  0  0  0
  3  8  2  0  0  0  0
  3 16  1  0  0  0  0
  4  9  1  0  0  0  0
  4 16  2  0  0  0  0
  5 18  1  0  0  0  0
  6 20  1  0  0  0  0
  7 10  2  0  0  0  0
  7 19  1  0  0  0  0
  8 23  1  0  0  0  0
  9 23  2  0  0  0  0
 10 24  1  0  0  0  0
 11 12  2  0  0  0  0
 11 25  1  0  0  0  0
 12 26  1  0  0  0  0
 13 21  1  0  0  0  0
 13 24  2  0  0  0  0
 14 22  2  0  0  0  0
 14 27  1  0  0  0  0
 15 26  2  0  0  0  0
 15 28  1  0  0  0  0
 16 29  1  0  0  0  0
 17 29  1  0  0  0  0
 17 32  2  0  0  0  0
 17 33  1  0  0  0  0
 18 20  2  0  0  0  0
 18 40  1  0  0  0  0
 19 21  2  0  0  0  0
 19 41  1  0  0  0  0
 20 49  1  0  0  0  0
 21 42  1  0  0  0  0
 22 31  1  0  0  0  0
 22 70  1  0  0  0  0
 23 82  1  0  0  0  0
 24 83  1  0  0  0  0
 25 28  2  0  0  0  0
 25 82  1  0  0  0  0
 26 84  1  0  0  0  0
 27 30  2  0  0  0  0
 27 85  1  0  0  0  0
 28 86  1  0  0  0  0
 29 63  2  0  0  0  0
 30 64  1  0  0  0  0
 30 71  1  0  0  0  0
 31 64  2  0  0  0  0
 31 87  1  0  0  0  0
 32 65  1  0  0  0  0
 32 68  1  0  0  0  0
 33 69  1  0  0  0  0
 33 75  2  0  0  0  0
 34 35  1  0  0  0  0
 34 58  1  0  0  0  0
 34 76  2  0  0  0  0
 35 71  1  0  0  0  0
 35 77  2  0  0  0  0
 36 50  1  0  0  0  0
 36 72  1  0  0  0  0
 36 78  2  0  0  0  0
 37 59  1  0  0  0  0
 37 66  1  0  0  0  0
 37 79  2  0  0  0  0
 38 60  1  0  0  0  0
 38 73  1  0  0  0  0
 38 80  2  0  0  0  0
 39 67  1  0  0  0  0
 39 70  1  0  0  0  0
 39 81  2  0  0  0  0
 40 43  1  0  0  0  0
 41 50  1  0  0  0  0
 42 66  1  0  0  0  0
 43 45  1  0  0  0  0
 44 46  1  0  0  0  0
 44 47  1  0  0  0  0
 45 49  1  0  0  0  0
 46 51  1  0  0  0  0
 47 67  1  0  0  0  0
 48 51  1  0  0  0  0
 48 67  1  0  0  0  0
 49 72  1  0  0  0  0
 50 66  1  0  0  0  0
 51 65  1  0  0  0  0
 52 60  1  0  0  0  0
 53 61  1  0  0  0  0
 54 62  1  0  0  0  0
 55 62  1  0  0  0  0
 56 62  1  0  0  0  0
 57 74  1  0  0  0  0
 58 61  1  0  0  0  0
 59 62  1  0  0  0  0
 59 73  1  0  0  0  0
 60 74  1  0  0  0  0
 61 83  1  0  0  0  0
 63 65  1  0  0  0  0
M  CHG  1  74   1
M  ISO  4  39 100  61 101  70 100  83 101
M  END
> <Batch ID>
0175

> <Smiles>
CNC(C)C(=O)NC(C(=O)N1Cc2cc([101O:1][101CH:1](C)CC(=O)C(=O)Nc3nc(F)c([100NH:0][100C:0](=O)N4CCCC(n5nc(-c6ccc(Oc7ccc(F)cc7F)cc6)c(C(N)=O)c5N)C4)cc3F)ccc2CC1C(=O)NC1CCCc2ccccc21)C(C)(C)C

> <Shape>
0.192

> <Color>
0.184

> <Negative vol penalty>
0.000

$$$$

  -OEChem-04052304353D

 84 92  0     1  0  0  0  0  0999 V2000
  -25.8792  -35.4991   22.9875 C   0  0  0  0  0  0  0  0  0  0  0  0
  -26.4344  -34.2304   22.8548 C   0  0  0  0  0  0  0  0  0  0  0  0
  -22.7772  -10.7037   21.8544 C   0  0  0  0  0  0  0  0  0  0  0  0
  -24.9416  -10.8737   22.9143 C   0  0  0  0  0  0  0  0  0  0  0  0
  -24.5536  -35.6394   23.3961 C   0  0  0  0  0  0  0  0  0  0  0  0
  -25.6646  -33.1012   23.1318 C   0  0  0  0  0  0  0  0  0  0  0  0
  -26.1989  -29.4796   19.6327 C   0  0  0  0  0  0  0  0  0  0  0  0
  -22.8660   -9.3124   21.8961 C   0  0  0  0  0  0  0  0  0  0  0  0
  -25.0304   -9.4823   22.9560 C   0  0  0  0  0  0  0  0  0  0  0  0
  -27.3526  -28.6994   19.6949 C   0  0  0  0  0  0  0  0  0  0  0  0
  -22.4401   -6.8566   24.1810 C   0  0  0  0  0  0  0  0  0  0  0  0
  -21.3157   -6.1476   24.6036 C   0  0  0  0  0  0  0  0  0  0  0  0
  -26.1019  -26.9475   20.7839 C   0  0  0  0  0  0  0  0  0  0  0  0
  -21.2363   -5.0052   22.4763 C   0  0  0  0  0  0  0  0  0  0  0  0
  -23.8150  -11.4844   22.3634 C   0  0  0  0  0  0  0  0  0  0  0  0
  -23.1769  -13.7690   23.3023 C   0  0  0  0  0  0  0  0  0  0  0  0
  -23.7642  -34.5111   23.6689 C   0  0  0  0  0  0  0  0  0  0  0  0
  -24.9884  -29.0032   20.1563 C   0  0  0  0  0  0  0  0  0  0  0  0
  -24.3276  -33.2266   23.5457 C   0  0  0  0  0  0  0  0  0  0  0  0
  -24.9337  -27.7226   20.7248 C   0  0  0  0  0  0  0  0  0  0  0  0
  -23.9926   -8.7016   22.4469 C   0  0  0  0  0  0  0  0  0  0  0  0
  -27.3049  -27.4343   20.2732 C   0  0  0  0  0  0  0  0  0  0  0  0
  -22.9626   -6.6399   22.9059 C   0  0  0  0  0  0  0  0  0  0  0  0
  -20.7138   -5.2219   23.7513 C   0  0  0  0  0  0  0  0  0  0  0  0
  -22.3607   -5.7142   22.0536 C   0  0  0  0  0  0  0  0  0  0  0  0
  -23.7241  -12.9218   22.3201 C   0  0  0  0  0  0  0  0  0  0  0  0
  -29.3578  -18.9039   20.6938 C   0  0  0  0  0  0  0  0  0  0  0  0
  -23.3299  -15.0336   22.7888 C   0  0  0  0  0  0  0  0  0  0  0  0
  -29.3060  -18.9572   22.0709 C   0  0  0  0  0  0  0  0  0  0  0  0
  -29.3550  -21.0832   20.9395 C   0  0  0  0  0  0  0  0  0  0  0  0
  -22.5833  -13.4420   24.5658 C   0  0  0  0  0  0  0  0  0  0  0  0
  -29.4498  -24.6133   19.6404 C   0  0  0  0  0  0  0  0  0  0  0  0
  -29.4127  -23.1197   19.4931 C   0  0  0  0  0  0  0  0  0  0  0  0
  -23.0212  -29.9419   22.4699 C   0  0  0  0  0  0  0  0  0  0  0  0
  -21.1613  -27.5416   21.3290 C   0  0  0  0  0  0  0  0  0  0  0  0
  -20.9616  -24.5887   19.6299 C   0  0  0  0  0  0  0  0  0  0  0  0
  -27.1502  -17.3908   18.8265 C   0  0  0  0  0  0  0  0  0  0  0  0
  -22.3504  -34.7141   24.1533 C   0  0  0  0  0  0  0  0  0  0  0  0
  -23.7467  -29.8464   20.0574 C   0  0  0  0  0  0  0  0  0  0  0  0
  -23.6543  -27.1568   21.2830 C   0  0  0  0  0  0  0  0  0  0  0  0
  -21.4900  -33.4562   24.0659 C   0  0  0  0  0  0  0  0  0  0  0  0
  -23.5954  -17.3783   18.6267 C   0  0  0  0  0  0  0  0  0  0  0  0
  -22.2448  -32.2534   24.6231 C   0  0  0  0  0  0  0  0  0  0  0  0
  -23.1759  -16.3112   19.6392 C   0  0  0  0  0  0  0  0  0  0  0  0
  -24.8853  -16.9951   17.9046 C   0  0  0  0  0  0  0  0  0  0  0  0
  -25.5963  -15.5945   19.8038 C   0  0  0  0  0  0  0  0  0  0  0  0
  -23.5171  -31.9768   23.8130 C   0  0  1  0  0  0  0  0  0  0  0  0
  -22.6841  -29.4680   21.0845 C   0  0  1  0  0  0  0  0  0  0  0  0
  -24.3308  -15.9624   20.5973 C   0  0  2  0  0  0  0  0  0  0  0  0
  -19.3110  -22.8487   18.8913 C   0  0  0  0  0  0  0  0  0  0  0  0
  -21.0457  -26.4470   24.1747 C   0  0  0  0  0  0  0  0  0  0  0  0
  -20.2270  -24.2768   23.2322 C   0  0  0  0  0  0  0  0  0  0  0  0
  -18.8775  -26.3531   22.9320 C   0  0  0  0  0  0  0  0  0  0  0  0
  -21.5695  -25.0584   16.7718 C   0  0  0  0  0  0  0  0  0  0  0  0
  -29.3849  -17.6786   19.8671 C   0  0  0  0  0  0  0  0  0  0  0  0
  -28.2566  -25.2549   20.2991 C   0  0  0  0  0  0  0  0  0  1  0  0
  -21.0203  -26.0673   21.6210 C   0  0  1  0  0  0  0  0  0  0  0  0
  -20.0405  -24.1287   18.5143 C   0  0  2  0  0  0  0  0  0  0  0  0
  -20.3173  -25.7972   22.9813 C   0  0  0  0  0  0  0  0  0  0  0  0
  -24.1899  -13.5918   21.2626 N   0  0  0  0  0  0  0  0  0  0  0  0
  -29.3855  -20.1220   20.0433 N   0  0  0  0  0  0  0  0  0  0  0  0
  -23.9356  -14.8733   21.5774 N   0  0  0  0  0  0  0  0  0  0  0  0
  -22.4687  -28.0221   21.1684 N   0  0  0  0  0  0  0  0  0  0  0  0
  -25.9408  -16.6778   18.8696 N   0  0  0  0  0  0  0  0  0  0  0  0
  -23.0040  -16.2561   23.2599 N   0  0  0  0  0  0  0  0  0  0  0  0
  -29.2694  -17.9236   22.9468 N   0  0  0  0  0  0  0  0  0  0  0  0
  -22.5059  -12.0931   24.9385 N   0  0  0  0  0  0  0  0  0  0  0  0
  -29.3666  -22.4792   20.7126 N   0  0  0  0  0  0  0  0  0  0  0  0
  -23.1904  -31.3096   22.5711 N   0  0  0  0  0  0  0  0  0  0  0  0
  -20.3376  -25.4866   20.4699 N   0  0  0  0  0  0  0  0  0  0  0  0
  -28.0946  -17.0317   19.7805 N   0  0  0  0  0  0  0  0  0  0  0  0
  -20.8202  -23.8762   17.2697 N   0  3  0  0  0  0  0  0  0  0  0  0
  -22.1201  -14.3187   25.3340 O   0  0  0  0  0  0  0  0  0  0  0  0
  -30.4271  -25.2006   19.2016 O   0  0  0  0  0  0  0  0  0  0  0  0
  -29.4532  -22.6816   18.3553 O   0  0  0  0  0  0  0  0  0  0  0  0
  -23.1190  -29.1272   23.3801 O   0  0  0  0  0  0  0  0  0  0  0  0
  -20.1484  -28.2399   21.2392 O   0  0  0  0  0  0  0  0  0  0  0  0
  -22.1177  -24.1884   19.7467 O   0  0  0  0  0  0  0  0  0  0  0  0
  -27.3701  -18.2851   18.0025 O   0  0  0  0  0  0  0  0  0  0  0  0
  -24.0795   -7.3439   22.4881 O   0  0  0  0  0  0  0  0  0  0  0  0
  -28.4297  -26.6709   20.3358 O   0  0  0  0  0  0  0  0  0  1  0  0
  -19.6349   -4.5401   24.1579 F   0  0  0  0  0  0  0  0  0  0  0  0
  -22.8589   -5.5008   20.8280 F   0  0  0  0  0  0  0  0  0  0  0  0
  -29.2930  -20.5938   22.5832 S   0  0  0  0  0  0  0  0  0  0  0  0
  1  2  1  0  0  0  0
  1  5  2  0  0  0  0
  2  6  2  0  0  0  0
  3  8  2  0  0  0  0
  3 15  1  0  0  0  0
  4  9  1  0  0  0  0
  4 15  2  0  0  0  0
  5 17  1  0  0  0  0
  6 19  1  0  0  0  0
  7 10  2  0  0  0  0
  7 18  1  0  0  0  0
  8 21  1  0  0  0  0
  9 21  2  0  0  0  0
 10 22  1  0  0  0  0
 11 12  2  0  0  0  0
 11 23  1  0  0  0  0
 12 24  1  0  0  0  0
 13 20  1  0  0  0  0
 13 22  2  0  0  0  0
 14 24  2  0  0  0  0
 14 25  1  0  0  0  0
 15 26  1  0  0  0  0
 16 26  1  0  0  0  0
 16 28  2  0  0  0  0
 16 31  1  0  0  0  0
 17 19  2  0  0  0  0
 17 38  1  0  0  0  0
 18 20  2  0  0  0  0
 18 39  1  0  0  0  0
 19 47  1  0  0  0  0
 20 40  1  0  0  0  0
 21 80  1  0  0  0  0
 22 81  1  0  0  0  0
 23 25  2  0  0  0  0
 23 80  1  0  0  0  0
 24 82  1  0  0  0  0
 25 83  1  0  0  0  0
 26 60  2  0  0  0  0
 27 29  2  0  0  0  0
 27 55  1  0  0  0  0
 27 61  1  0  0  0  0
 28 62  1  0  0  0  0
 28 65  1  0  0  0  0
 29 66  1  0  0  0  0
 29 84  1  0  0  0  0
 30 61  2  0  0  0  0
 30 68  1  0  0  0  0
 30 84  1  0  0  0  0
 31 67  1  0  0  0  0
 31 73  2  0  0  0  0
 32 33  1  0  0  0  0
 32 56  1  0  0  0  0
 32 74  2  0  0  0  0
 33 68  1  0  0  0  0
 33 75  2  0  0  0  0
 34 48  1  0  0  0  0
 34 69  1  0  0  0  0
 34 76  2  0  0  0  0
 35 57  1  0  0  0  0
 35 63  1  0  0  0  0
 35 77  2  0  0  0  0
 36 58  1  0  0  0  0
 36 70  1  0  0  0  0
 36 78  2  0  0  0  0
 37 64  1  0  0  0  0
 37 71  1  0  0  0  0
 37 79  2  0  0  0  0
 38 41  1  0  0  0  0
 39 48  1  0  0  0  0
 40 63  1  0  0  0  0
 41 43  1  0  0  0  0
 42 44  1  0  0  0  0
 42 45  1  0  0  0  0
 43 47  1  0  0  0  0
 44 49  1  0  0  0  0
 45 64  1  0  0  0  0
 46 49  1  0  0  0  0
 46 64  1  0  0  0  0
 47 69  1  0  0  0  0
 48 63  1  0  0  0  0
 49 62  1  0  0  0  0
 50 58  1  0  0  0  0
 51 59  1  0  0  0  0
 52 59  1  0  0  0  0
 53 59  1  0  0  0  0
 54 72  1  0  0  0  0
 55 71  1  0  0  0  0
 56 81  1  0  0  0  0
 57 59  1  0  0  0  0
 57 70  1  0  0  0  0
 58 72  1  0  0  0  0
 60 62  1  0  0  0  0
M  CHG  1  72   1
M  ISO  4  37 100  56 101  71 100  81 101
M  END
> <Batch ID>
0175

> <Smiles>
CNC(C)C(=O)NC(C(=O)N1Cc2cc([101O:1][101CH2:1]C(=O)C(=O)Nc3nc(C[100NH:0][100C:0](=O)N4CCCC(n5nc(-c6ccc(Oc7ccc(F)cc7F)cc6)c(C(N)=O)c5N)C4)c(N)s3)ccc2CC1C(=O)NC1CCCc2ccccc21)C(C)(C)C

> <Shape>
0.294

> <Color>
0.103

> <Negative vol penalty>
0.000

$$$$

  -OEChem-04052304353D

 88 96  0     1  0  0  0  0  0999 V2000
  -19.5531  -27.0815   19.2480 C   0  0  0  0  0  0  0  0  0  0  0  0
  -19.9953  -25.7643   19.1787 C   0  0  0  0  0  0  0  0  0  0  0  0
  -26.3423  -27.9896   18.8343 C   0  0  0  0  0  0  0  0  0  0  0  0
  -26.2683  -27.3453   21.1616 C   0  0  0  0  0  0  0  0  0  0  0  0
  -20.0271  -27.9227   20.2538 C   0  0  0  0  0  0  0  0  0  0  0  0
  -20.9126  -25.2878   20.1146 C   0  0  0  0  0  0  0  0  0  0  0  0
  -21.1975  -19.6292   22.4396 C   0  0  0  0  0  0  0  0  0  0  0  0
  -25.9215  -29.2746   19.1766 C   0  0  0  0  0  0  0  0  0  0  0  0
  -25.8474  -28.6303   21.5040 C   0  0  0  0  0  0  0  0  0  0  0  0
  -21.9885  -18.5249   22.1256 C   0  0  0  0  0  0  0  0  0  0  0  0
  -25.1007  -31.8443   23.0308 C   0  0  0  0  0  0  0  0  0  0  0  0
  -25.7090  -32.4563   24.1266 C   0  0  0  0  0  0  0  0  0  0  0  0
  -23.5216  -19.1298   23.8871 C   0  0  0  0  0  0  0  0  0  0  0  0
  -27.8544  -32.2913   23.0278 C   0  0  0  0  0  0  0  0  0  0  0  0
  -29.2455  -15.5047   21.0215 C   0  0  0  0  0  0  0  0  0  0  0  0
  -28.9700  -17.8936   21.0661 C   0  0  0  0  0  0  0  0  0  0  0  0
  -26.5157  -27.0249   19.8268 C   0  0  0  0  0  0  0  0  0  0  0  0
  -28.2754  -25.2311   19.3871 C   0  0  0  0  0  0  0  0  0  0  0  0
  -20.9434  -27.4536   21.2083 C   0  0  0  0  0  0  0  0  0  0  0  0
  -21.5690  -20.4998   23.4743 C   0  0  0  0  0  0  0  0  0  0  0  0
  -21.4003  -26.1239   21.1333 C   0  0  0  0  0  0  0  0  0  0  0  0
  -22.7323  -20.2430   24.2139 C   0  0  0  0  0  0  0  0  0  0  0  0
  -25.6740  -29.5950   20.5114 C   0  0  0  0  0  0  0  0  0  0  0  0
  -23.1523  -18.2767   22.8475 C   0  0  0  0  0  0  0  0  0  0  0  0
  -25.8692  -31.4557   21.9334 C   0  0  0  0  0  0  0  0  0  0  0  0
  -27.0859  -32.6798   24.1251 C   0  0  0  0  0  0  0  0  0  0  0  0
  -27.2460  -31.6792   21.9319 C   0  0  0  0  0  0  0  0  0  0  0  0
  -29.7266  -16.7646   21.3599 C   0  0  0  0  0  0  0  0  0  0  0  0
  -26.9498  -25.6971   19.4737 C   0  0  0  0  0  0  0  0  0  0  0  0
  -28.0117  -15.4282   20.3956 C   0  0  0  0  0  0  0  0  0  0  0  0
  -27.7486  -17.7101   20.4380 C   0  0  0  0  0  0  0  0  0  0  0  0
  -28.1528  -23.9135   19.0193 C   0  0  0  0  0  0  0  0  0  0  0  0
  -29.5074  -25.9270   19.6185 C   0  0  0  0  0  0  0  0  0  0  0  0
  -22.3278  -23.5816   23.6491 C   0  0  0  0  0  0  0  0  0  0  0  0
  -23.9836  -14.7812   22.4066 C   0  0  0  0  0  0  0  0  0  0  0  0
  -22.3424  -22.9965   26.8397 C   0  0  0  0  0  0  0  0  0  0  0  0
  -25.3181  -12.8874   20.4411 C   0  0  0  0  0  0  0  0  0  0  0  0
  -22.6640  -20.7264   29.3675 C   0  0  0  0  0  0  0  0  0  0  0  0
  -25.7391  -18.9209   19.5203 C   0  0  0  0  0  0  0  0  0  0  0  0
  -21.4634  -28.4137   22.2487 C   0  0  0  0  0  0  0  0  0  0  0  0
  -20.6909  -21.6716   23.8180 C   0  0  0  0  0  0  0  0  0  0  0  0
  -23.1645  -21.1357   25.3474 C   0  0  0  0  0  0  0  0  0  0  0  0
  -22.1484  -27.7240   23.4257 C   0  0  0  0  0  0  0  0  0  0  0  0
  -24.1221  -21.3006   17.4229 C   0  0  0  0  0  0  0  0  0  0  0  0
  -23.1156  -26.6543   22.9284 C   0  0  0  0  0  0  0  0  0  0  0  0
  -24.8227  -22.6183   17.7623 C   0  0  0  0  0  0  0  0  0  0  0  0
  -23.9515  -20.4150   18.6558 C   0  0  0  0  0  0  0  0  0  0  0  0
  -25.8844  -21.4783   19.7524 C   0  0  0  0  0  0  0  0  0  0  0  0
  -22.3760  -25.5631   22.1451 C   0  0  1  0  0  0  0  0  0  0  0  0
  -21.4357  -22.7805   24.5548 C   0  0  1  0  0  0  0  0  0  0  0  0
  -26.1370  -22.3762   18.5302 C   0  0  2  0  0  0  0  0  0  0  0  0
  -27.8854  -13.6414   18.6114 C   0  0  0  0  0  0  0  0  0  0  0  0
  -22.6663  -20.5529   31.8710 C   0  0  0  0  0  0  0  0  0  0  0  0
  -25.1552  -24.1764   26.9165 C   0  0  0  0  0  0  0  0  0  0  0  0
  -25.4582  -23.1279   29.1697 C   0  0  0  0  0  0  0  0  0  0  0  0
  -23.6881  -24.8517   28.8260 C   0  0  0  0  0  0  0  0  0  0  0  0
  -20.3261  -18.9118   29.3598 C   0  0  0  0  0  0  0  0  0  0  0  0
  -23.3592  -13.4882   21.9025 C   0  0  0  0  0  0  0  0  0  0  0  0
  -23.2646  -16.0550   22.0065 C   0  0  0  0  0  0  0  0  0  1  0  0
  -23.8180  -13.1022   20.5000 C   0  0  0  0  0  0  0  0  0  0  0  0
  -27.4564  -14.0735   20.0121 C   0  0  2  0  0  0  0  0  0  0  0  0
  -23.3797  -22.5446   27.8390 C   0  0  1  0  0  0  0  0  0  0  0  0
  -21.8247  -20.4731   30.6068 C   0  0  2  0  0  0  0  0  0  0  0  0
  -24.4135  -23.6592   28.1652 C   0  0  0  0  0  0  0  0  0  0  0  0
  -26.0512  -24.7524   19.1841 N   0  0  0  0  0  0  0  0  0  0  0  0
  -27.2482  -16.5023   20.0941 N   0  0  0  0  0  0  0  0  0  0  0  0
  -26.8134  -23.6796   18.9118 N   0  0  0  0  0  0  0  0  0  0  0  0
  -22.2758  -22.2722   25.6411 N   0  0  0  0  0  0  0  0  0  0  0  0
  -25.2380  -20.2260   19.3296 N   0  0  0  0  0  0  0  0  0  0  0  0
  -29.0611  -22.9437   18.7804 N   0  0  0  0  0  0  0  0  0  0  0  0
  -29.4525  -27.2774   19.9898 N   0  0  0  0  0  0  0  0  0  0  0  0
  -26.9857  -18.8671   20.1430 N   0  0  0  0  0  0  0  0  0  0  0  0
  -21.7017  -24.6589   23.0519 N   0  0  0  0  0  0  0  0  0  0  0  0
  -26.0178  -14.0427   20.1352 N   0  0  0  0  0  0  0  0  0  0  0  0
  -22.6429  -22.0549   28.9991 N   0  0  0  0  0  0  0  0  0  0  0  0
  -21.2005  -19.1214   30.5423 N   0  3  0  0  0  0  0  0  0  0  0  0
  -30.6244  -25.3724   19.4835 O   0  0  0  0  0  0  0  0  0  0  0  0
  -23.4979  -23.2477   23.5041 O   0  0  0  0  0  0  0  0  0  0  0  0
  -25.0013  -14.8033   23.0967 O   0  0  0  0  0  0  0  0  0  0  0  0
  -21.6130  -23.9523   27.1155 O   0  0  0  0  0  0  0  0  0  0  0  0
  -25.8191  -11.7825   20.6391 O   0  0  0  0  0  0  0  0  0  0  0  0
  -23.2800  -19.8354   28.7867 O   0  0  0  0  0  0  0  0  0  0  0  0
  -25.1212  -17.9256   19.1335 O   0  0  0  0  0  0  0  0  0  0  0  0
  -25.2636  -30.8489   20.8459 O   0  0  0  0  0  0  0  0  0  0  0  0
  -23.9265  -17.1998   22.5427 O   0  0  0  0  0  0  0  0  0  1  0  0
  -27.6697  -33.2690   25.1769 F   0  0  0  0  0  0  0  0  0  0  0  0
  -27.9893  -31.3092   20.8801 F   0  0  0  0  0  0  0  0  0  0  0  0
  -30.9138  -16.8895   21.9669 F   0  0  0  0  0  0  0  0  0  0  0  0
  1  2  1  0  0  0  0
  1  5  2  0  0  0  0
  2  6  2  0  0  0  0
  3  8  2  0  0  0  0
  3 17  1  0  0  0  0
  4  9  1  0  0  0  0
  4 17  2  0  0  0  0
  5 19  1  0  0  0  0
  6 21  1  0  0  0  0
  7 10  2  0  0  0  0
  7 20  1  0  0  0  0
  8 23  1  0  0  0  0
  9 23  2  0  0  0  0
 10 24  1  0  0  0  0
 11 12  2  0  0  0  0
 11 25  1  0  0  0  0
 12 26  1  0  0  0  0
 13 22  1  0  0  0  0
 13 24  2  0  0  0  0
 14 26  2  0  0  0  0
 14 27  1  0  0  0  0
 15 28  2  0  0  0  0
 15 30  1  0  0  0  0
 16 28  1  0  0  0  0
 16 31  2  0  0  0  0
 17 29  1  0  0  0  0
 18 29  1  0  0  0  0
 18 32  2  0  0  0  0
 18 33  1  0  0  0  0
 19 21  2  0  0  0  0
 19 40  1  0  0  0  0
 20 22  2  0  0  0  0
 20 41  1  0  0  0  0
 21 49  1  0  0  0  0
 22 42  1  0  0  0  0
 23 84  1  0  0  0  0
 24 85  1  0  0  0  0
 25 27  2  0  0  0  0
 25 84  1  0  0  0  0
 26 86  1  0  0  0  0
 27 87  1  0  0  0  0
 28 88  1  0  0  0  0
 29 65  2  0  0  0  0
 30 61  1  0  0  0  0
 30 66  2  0  0  0  0
 31 66  1  0  0  0  0
 31 72  1  0  0  0  0
 32 67  1  0  0  0  0
 32 70  1  0  0  0  0
 33 71  1  0  0  0  0
 33 77  2  0  0  0  0
 34 50  1  0  0  0  0
 34 73  1  0  0  0  0
 34 78  2  0  0  0  0
 35 58  1  0  0  0  0
 35 59  1  0  0  0  0
 35 79  2  0  0  0  0
 36 62  1  0  0  0  0
 36 68  1  0  0  0  0
 36 80  2  0  0  0  0
 37 60  1  0  0  0  0
 37 74  1  0  0  0  0
 37 81  2  0  0  0  0
 38 63  1  0  0  0  0
 38 75  1  0  0  0  0
 38 82  2  0  0  0  0
 39 69  1  0  0  0  0
 39 72  1  0  0  0  0
 39 83  2  0  0  0  0
 40 43  1  0  0  0  0
 41 50  1  0  0  0  0
 42 68  1  0  0  0  0
 43 45  1  0  0  0  0
 44 46  1  0  0  0  0
 44 47  1  0  0  0  0
 45 49  1  0  0  0  0
 46 51  1  0  0  0  0
 47 69  1  0  0  0  0
 48 51  1  0  0  0  0
 48 69  1  0  0  0  0
 49 73  1  0  0  0  0
 50 68  1  0  0  0  0
 51 67  1  0  0  0  0
 52 61  1  0  0  0  0
 53 63  1  0  0  0  0
 54 64  1  0  0  0  0
 55 64  1  0  0  0  0
 56 64  1  0  0  0  0
 57 76  1  0  0  0  0
 58 60  1  0  0  0  0
 59 85  1  0  0  0  0
 61 74  1  0  0  0  0
 62 64  1  0  0  0  0
 62 75  1  0  0  0  0
 63 76  1  0  0  0  0
 65 67  1  0  0  0  0
M  CHG  1  76   1
M  ISO  4  39 100  59 101  72 100  85 101
M  END
> <Batch ID>
0175

> <Smiles>
CNC(C)C(=O)NC(C(=O)N1Cc2cc([101O:1][101CH2:1]C(=O)CCC(=O)NC(C)c3cc(F)cc([100NH:0][100C:0](=O)N4CCCC(n5nc(-c6ccc(Oc7ccc(F)cc7F)cc6)c(C(N)=O)c5N)C4)n3)ccc2CC1C(=O)NC1CCCc2ccccc21)C(C)(C)C

> <Shape>
0.199

> <Color>
0.076

> <Negative vol penalty>
0.000

$$$$

  -OEChem-04052304353D

 86 94  0     1  0  0  0  0  0999 V2000
  -33.1785  -30.0730   16.3809 C   0  0  0  0  0  0  0  0  0  0  0  0
  -32.2886  -29.2579   17.0731 C   0  0  0  0  0  0  0  0  0  0  0  0
  -23.9499   -9.8096   20.4290 C   0  0  0  0  0  0  0  0  0  0  0  0
  -24.5716  -10.3205   22.7071 C   0  0  0  0  0  0  0  0  0  0  0  0
  -33.5621  -31.3001   16.9203 C   0  0  0  0  0  0  0  0  0  0  0  0
  -31.7826  -29.6690   18.3057 C   0  0  0  0  0  0  0  0  0  0  0  0
  -26.7954  -28.8913   18.7155 C   0  0  0  0  0  0  0  0  0  0  0  0
  -23.5421   -8.5361   20.8259 C   0  0  0  0  0  0  0  0  0  0  0  0
  -24.1637   -9.0470   23.1040 C   0  0  0  0  0  0  0  0  0  0  0  0
  -26.3739  -27.5899   18.9846 C   0  0  0  0  0  0  0  0  0  0  0  0
  -20.8640   -7.1389   22.3453 C   0  0  0  0  0  0  0  0  0  0  0  0
  -19.6444   -6.6679   21.8591 C   0  0  0  0  0  0  0  0  0  0  0  0
  -26.1012  -28.1658   21.3112 C   0  0  0  0  0  0  0  0  0  0  0  0
  -29.8443  -20.8851   23.5795 C   0  0  0  0  0  0  0  0  0  0  0  0
  -30.6004  -19.0663   22.1804 C   0  0  0  0  0  0  0  0  0  0  0  0
  -20.7786   -4.8068   20.8166 C   0  0  0  0  0  0  0  0  0  0  0  0
  -24.4647  -10.7018   21.3696 C   0  0  0  0  0  0  0  0  0  0  0  0
  -24.1022  -13.1852   20.9124 C   0  0  0  0  0  0  0  0  0  0  0  0
  -33.0530  -31.7308   18.1557 C   0  0  0  0  0  0  0  0  0  0  0  0
  -26.8835  -29.8384   19.7459 C   0  0  0  0  0  0  0  0  0  0  0  0
  -32.1608  -30.9024   18.8628 C   0  0  0  0  0  0  0  0  0  0  0  0
  -26.5216  -29.4793   21.0521 C   0  0  0  0  0  0  0  0  0  0  0  0
  -28.5250  -20.4632   23.4150 C   0  0  0  0  0  0  0  0  0  0  0  0
  -29.2810  -18.6444   22.0160 C   0  0  0  0  0  0  0  0  0  0  0  0
  -23.6490   -8.1548   22.1634 C   0  0  0  0  0  0  0  0  0  0  0  0
  -26.0295  -27.2262   20.2832 C   0  0  0  0  0  0  0  0  0  0  0  0
  -22.0409   -6.4439   22.0670 C   0  0  0  0  0  0  0  0  0  0  0  0
  -19.6017   -5.5019   21.0948 C   0  0  0  0  0  0  0  0  0  0  0  0
  -30.8820  -20.1866   22.9621 C   0  0  0  0  0  0  0  0  0  0  0  0
  -21.9982   -5.2778   21.3027 C   0  0  0  0  0  0  0  0  0  0  0  0
  -28.2434  -19.3429   22.6333 C   0  0  0  0  0  0  0  0  0  0  0  0
  -24.8867  -12.0172   20.9601 C   0  0  0  0  0  0  0  0  0  0  0  0
  -24.9610  -14.1574   20.4609 C   0  0  0  0  0  0  0  0  0  0  0  0
  -26.3457  -25.2177   21.4393 C   0  0  0  0  0  0  0  0  0  1  0  0
  -22.7208  -13.3744   21.2465 C   0  0  0  0  0  0  0  0  0  0  0  0
  -26.0989  -23.9564   21.8262 C   0  0  0  0  0  0  0  0  0  0  0  0
  -27.0287  -23.3326   22.8214 C   0  0  0  0  0  0  0  0  0  0  0  0
  -29.2401  -31.5379   21.0350 C   0  0  0  0  0  0  0  0  0  0  0  0
  -26.8141  -32.9281   22.6796 C   0  0  0  0  0  0  0  0  0  0  0  0
  -23.6352  -32.6978   23.8995 C   0  0  0  0  0  0  0  0  0  0  0  0
  -29.9128  -16.7021   20.5413 C   0  0  0  0  0  0  0  0  0  0  0  0
  -33.5334  -33.0440   18.7207 C   0  0  0  0  0  0  0  0  0  0  0  0
  -27.3144  -31.2454   19.4343 C   0  0  0  0  0  0  0  0  0  0  0  0
  -26.5794  -30.4642   22.1901 C   0  0  0  0  0  0  0  0  0  0  0  0
  -32.6615  -33.5740   19.8561 C   0  0  0  0  0  0  0  0  0  0  0  0
  -29.6178  -13.7920   18.5111 C   0  0  0  0  0  0  0  0  0  0  0  0
  -32.3534  -32.4637   20.8556 C   0  0  0  0  0  0  0  0  0  0  0  0
  -28.2961  -13.1669   18.9634 C   0  0  0  0  0  0  0  0  0  0  0  0
  -30.3778  -14.4184   19.6789 C   0  0  0  0  0  0  0  0  0  0  0  0
  -28.2833  -14.7509   20.9326 C   0  0  0  0  0  0  0  0  0  0  0  0
  -31.5709  -31.3246   20.1909 C   0  0  1  0  0  0  0  0  0  0  0  0
  -27.8584  -31.9870   20.6515 C   0  0  1  0  0  0  0  0  0  0  0  0
  -27.4515  -14.1642   19.7804 C   0  0  2  0  0  0  0  0  0  0  0  0
  -21.9404  -33.9784   25.2356 C   0  0  0  0  0  0  0  0  0  0  0  0
  -28.3406  -32.2732   25.2391 C   0  0  0  0  0  0  0  0  0  0  0  0
  -26.2313  -32.6912   26.5213 C   0  0  0  0  0  0  0  0  0  0  0  0
  -27.2774  -34.5366   25.2087 C   0  0  0  0  0  0  0  0  0  0  0  0
  -21.7153  -32.7332   21.6474 C   0  0  0  0  0  0  0  0  0  0  0  0
  -27.4110  -21.2179   24.0810 C   0  0  0  0  0  0  0  0  0  0  0  0
  -26.1140  -32.6526   23.9884 C   0  0  1  0  0  0  0  0  0  0  0  0
  -22.4625  -33.6601   23.8431 C   0  0  2  0  0  0  0  0  0  0  0  0
  -26.9915  -33.0191   25.2185 C   0  0  0  0  0  0  0  0  0  0  0  0
  -26.1469  -12.2262   20.5699 N   0  0  0  0  0  0  0  0  0  0  0  0
  -26.1608  -13.5367   20.2726 N   0  0  0  0  0  0  0  0  0  0  0  0
  -27.0129  -31.8259   21.8361 N   0  0  0  0  0  0  0  0  0  0  0  0
  -29.5164  -15.3550   20.4039 N   0  0  0  0  0  0  0  0  0  0  0  0
  -24.7992  -15.4740   20.2105 N   0  0  0  0  0  0  0  0  0  0  0  0
  -21.9843  -12.2693   21.6945 N   0  0  0  0  0  0  0  0  0  0  0  0
  -28.9984  -17.5057   21.2214 N   0  0  0  0  0  0  0  0  0  0  0  0
  -26.6736  -22.0338   23.1426 N   0  0  0  0  0  0  0  0  0  0  0  0
  -30.1798  -31.6915   20.0337 N   0  0  0  0  0  0  0  0  0  0  0  0
  -24.8419  -33.3643   23.9285 N   0  0  0  0  0  0  0  0  0  0  0  0
  -21.3484  -33.0729   23.0463 N   0  3  0  0  0  0  0  0  0  0  0  0
  -22.1520  -14.4868   21.1349 O   0  0  0  0  0  0  0  0  0  0  0  0
  -27.9924  -23.9364   23.2845 O   0  0  0  0  0  0  0  0  0  0  0  0
  -29.4391  -31.0868   22.1569 O   0  0  0  0  0  0  0  0  0  0  0  0
  -27.1652  -34.0800   22.4123 O   0  0  0  0  0  0  0  0  0  0  0  0
  -23.4947  -31.4770   23.9198 O   0  0  0  0  0  0  0  0  0  0  0  0
  -30.9720  -17.1186   20.0652 O   0  0  0  0  0  0  0  0  0  0  0  0
  -25.0447  -23.1964   21.3690 O   0  0  0  0  0  0  0  0  0  0  0  0
  -23.2509   -6.9123   22.5510 O   0  0  0  0  0  0  0  0  0  0  0  0
  -25.6184  -25.9564   20.5487 O   0  0  0  0  0  0  0  0  0  1  0  0
  -18.4302   -5.0489   20.6294 F   0  0  0  0  0  0  0  0  0  0  0  0
  -32.1490  -20.5916   23.1203 F   0  0  0  0  0  0  0  0  0  0  0  0
  -23.1255   -4.6052   21.0332 F   0  0  0  0  0  0  0  0  0  0  0  0
  -26.9737  -18.9387   22.4762 F   0  0  0  0  0  0  0  0  0  0  0  0
  1  2  1  0  0  0  0
  1  5  2  0  0  0  0
  2  6  2  0  0  0  0
  3  8  2  0  0  0  0
  3 17  1  0  0  0  0
  4  9  1  0  0  0  0
  4 17  2  0  0  0  0
  5 19  1  0  0  0  0
  6 21  1  0  0  0  0
  7 10  2  0  0  0  0
  7 20  1  0  0  0  0
  8 25  1  0  0  0  0
  9 25  2  0  0  0  0
 10 26  1  0  0  0  0
 11 12  2  0  0  0  0
 11 27  1  0  0  0  0
 12 28  1  0  0  0  0
 13 22  1  0  0  0  0
 13 26  2  0  0  0  0
 14 23  1  0  0  0  0
 14 29  2  0  0  0  0
 15 24  2  0  0  0  0
 15 29  1  0  0  0  0
 16 28  2  0  0  0  0
 16 30  1  0  0  0  0
 17 32  1  0  0  0  0
 18 32  1  0  0  0  0
 18 33  2  0  0  0  0
 18 35  1  0  0  0  0
 19 21  2  0  0  0  0
 19 42  1  0  0  0  0
 20 22  2  0  0  0  0
 20 43  1  0  0  0  0
 21 51  1  0  0  0  0
 22 44  1  0  0  0  0
 23 31  2  0  0  0  0
 23 59  1  0  0  0  0
 24 31  1  0  0  0  0
 24 69  1  0  0  0  0
 25 81  1  0  0  0  0
 26 82  1  0  0  0  0
 27 30  2  0  0  0  0
 27 81  1  0  0  0  0
 28 83  1  0  0  0  0
 29 84  1  0  0  0  0
 30 85  1  0  0  0  0
 31 86  1  0  0  0  0
 32 63  2  0  0  0  0
 33 64  1  0  0  0  0
 33 67  1  0  0  0  0
 34 36  2  0  0  0  0
 34 82  1  0  0  0  0
 35 68  1  0  0  0  0
 35 74  2  0  0  0  0
 36 37  1  0  0  0  0
 36 80  1  0  0  0  0
 37 70  1  0  0  0  0
 37 75  2  0  0  0  0
 38 52  1  0  0  0  0
 38 71  1  0  0  0  0
 38 76  2  0  0  0  0
 39 60  1  0  0  0  0
 39 65  1  0  0  0  0
 39 77  2  0  0  0  0
 40 61  1  0  0  0  0
 40 72  1  0  0  0  0
 40 78  2  0  0  0  0
 41 66  1  0  0  0  0
 41 69  1  0  0  0  0
 41 79  2  0  0  0  0
 42 45  1  0  0  0  0
 43 52  1  0  0  0  0
 44 65  1  0  0  0  0
 45 47  1  0  0  0  0
 46 48  1  0  0  0  0
 46 49  1  0  0  0  0
 47 51  1  0  0  0  0
 48 53  1  0  0  0  0
 49 66  1  0  0  0  0
 50 53  1  0  0  0  0
 50 66  1  0  0  0  0
 51 71  1  0  0  0  0
 52 65  1  0  0  0  0
 53 64  1  0  0  0  0
 54 61  1  0  0  0  0
 55 62  1  0  0  0  0
 56 62  1  0  0  0  0
 57 62  1  0  0  0  0
 58 73  1  0  0  0  0
 59 70  1  0  0  0  0
 60 62  1  0  0  0  0
 60 72  1  0  0  0  0
 61 73  1  0  0  0  0
 63 64  1  0  0  0  0
M  CHG  1  73   1
M  ISO  4  34 101  41 100  69 100  82 101
M  END
> <Batch ID>
0175

> <Smiles>
CNC(C)C(=O)NC(C(=O)N1Cc2cc([101O:1][101CH2:1]C(=O)C(=O)NCc3cc(F)cc([100NH:0][100C:0](=O)N4CCCC(n5nc(-c6ccc(Oc7ccc(F)cc7F)cc6)c(C(N)=O)c5N)C4)c3F)ccc2CC1C(=O)NC1CCCc2ccccc21)C(C)(C)C

> <Shape>
0.239

> <Color>
0.148

> <Negative vol penalty>
0.000

$$$$

  -OEChem-04052304353D

 87 95  0     1  0  0  0  0  0999 V2000
  -13.3500  -21.0511   22.3803 C   0  0  0  0  0  0  0  0  0  0  0  0
  -14.7045  -20.9186   22.0922 C   0  0  0  0  0  0  0  0  0  0  0  0
  -23.2039   -9.7670   20.9617 C   0  0  0  0  0  0  0  0  0  0  0  0
  -23.8713  -10.4735   23.1736 C   0  0  0  0  0  0  0  0  0  0  0  0
  -31.1719  -20.1418   21.1899 C   0  0  0  0  0  0  0  0  0  0  0  0
  -12.7132  -22.2758   22.1836 C   0  0  0  0  0  0  0  0  0  0  0  0
  -15.4229  -22.0104   21.6061 C   0  0  0  0  0  0  0  0  0  0  0  0
  -19.9138  -22.5505   23.8830 C   0  0  0  0  0  0  0  0  0  0  0  0
  -22.5007   -8.6972   21.5156 C   0  0  0  0  0  0  0  0  0  0  0  0
  -23.1680   -9.4037   23.7275 C   0  0  0  0  0  0  0  0  0  0  0  0
  -20.9413  -21.7016   23.4740 C   0  0  0  0  0  0  0  0  0  0  0  0
  -23.2024   -5.6376   22.7689 C   0  0  0  0  0  0  0  0  0  0  0  0
  -32.0214  -19.1700   20.6610 C   0  0  0  0  0  0  0  0  0  0  0  0
  -23.3504   -4.3864   22.1704 C   0  0  0  0  0  0  0  0  0  0  0  0
  -21.8426  -23.4656   22.0973 C   0  0  0  0  0  0  0  0  0  0  0  0
  -20.9768   -4.3188   21.7249 C   0  0  0  0  0  0  0  0  0  0  0  0
  -23.8892  -10.6551   21.7908 C   0  0  0  0  0  0  0  0  0  0  0  0
  -29.8962  -19.7884   21.6297 C   0  0  0  0  0  0  0  0  0  0  0  0
  -24.1273  -13.0531   20.9539 C   0  0  0  0  0  0  0  0  0  0  0  0
  -13.4263  -23.3858   21.7040 C   0  0  0  0  0  0  0  0  0  0  0  0
  -19.8367  -23.8622   23.3930 C   0  0  0  0  0  0  0  0  0  0  0  0
  -14.7947  -23.2507   21.4015 C   0  0  0  0  0  0  0  0  0  0  0  0
  -20.8146  -24.3300   22.5037 C   0  0  0  0  0  0  0  0  0  0  0  0
  -30.3193  -17.4915   21.0115 C   0  0  0  0  0  0  0  0  0  0  0  0
  -22.4827   -8.5156   22.8984 C   0  0  0  0  0  0  0  0  0  0  0  0
  -21.9043  -22.1581   22.5787 C   0  0  0  0  0  0  0  0  0  0  0  0
  -21.9416   -6.2294   22.8455 C   0  0  0  0  0  0  0  0  0  0  0  0
  -22.2376   -3.7270   21.6484 C   0  0  0  0  0  0  0  0  0  0  0  0
  -31.5951  -17.8449   20.5717 C   0  0  0  0  0  0  0  0  0  0  0  0
  -20.8288   -5.5700   22.3234 C   0  0  0  0  0  0  0  0  0  0  0  0
  -29.4699  -18.4633   21.5404 C   0  0  0  0  0  0  0  0  0  0  0  0
  -24.6163  -11.7600   21.2192 C   0  0  0  0  0  0  0  0  0  0  0  0
  -25.1999  -13.7225   20.4174 C   0  0  0  0  0  0  0  0  0  0  0  0
  -24.1951  -21.7068   22.4413 C   0  0  0  0  0  0  0  0  0  1  0  0
  -28.9950  -20.8265   22.1918 C   0  0  0  0  0  0  0  0  0  0  0  0
  -22.8203  -13.6004   21.1730 C   0  0  0  0  0  0  0  0  0  0  0  0
  -25.2576  -20.9716   22.0923 C   0  0  0  0  0  0  0  0  0  0  0  0
  -26.6253  -21.4734   22.4282 C   0  0  0  0  0  0  0  0  0  0  0  0
  -17.7185  -25.4935   21.6738 C   0  0  0  0  0  0  0  0  0  0  0  0
  -19.6964  -27.9828   22.3168 C   0  0  0  0  0  0  0  0  0  0  0  0
  -22.8282  -29.0555   23.1463 C   0  0  0  0  0  0  0  0  0  0  0  0
  -30.6051  -15.0590   20.4219 C   0  0  0  0  0  0  0  0  0  0  0  0
  -12.6841  -24.6763   21.4626 C   0  0  0  0  0  0  0  0  0  0  0  0
  -18.7373  -24.7739   23.8647 C   0  0  0  0  0  0  0  0  0  0  0  0
  -20.7883  -25.7359   21.9640 C   0  0  0  0  0  0  0  0  0  0  0  0
  -13.6017  -25.8853   21.2991 C   0  0  0  0  0  0  0  0  0  0  0  0
  -29.6898  -12.0108   18.8258 C   0  0  0  0  0  0  0  0  0  0  0  0
  -14.7488  -25.5600   20.3477 C   0  0  0  0  0  0  0  0  0  0  0  0
  -28.2480  -11.7802   19.2843 C   0  0  0  0  0  0  0  0  0  0  0  0
  -30.5459  -12.6234   19.9328 C   0  0  0  0  0  0  0  0  0  0  0  0
  -28.5564  -13.6138   20.9960 C   0  0  0  0  0  0  0  0  0  0  0  0
  -15.6136  -24.4186   20.8960 C   0  0  1  0  0  0  0  0  0  0  0  0
  -18.4641  -25.9272   22.9041 C   0  0  1  0  0  0  0  0  0  0  0  0
  -27.6394  -13.0582   19.8942 C   0  0  2  0  0  0  0  0  0  0  0  0
  -24.1473  -31.1492   23.5631 C   0  0  0  0  0  0  0  0  0  0  0  0
  -19.8080  -28.5076   19.3131 C   0  0  0  0  0  0  0  0  0  0  0  0
  -21.8219  -29.9414   19.7089 C   0  0  0  0  0  0  0  0  0  0  0  0
  -19.6306  -30.5638   20.7254 C   0  0  0  0  0  0  0  0  0  0  0  0
  -23.4320  -28.2591   25.9320 C   0  0  0  0  0  0  0  0  0  0  0  0
  -20.9077  -28.5863   21.6477 C   0  0  1  0  0  0  0  0  0  0  0  0
  -23.3099  -30.0459   24.1910 C   0  0  2  0  0  0  0  0  0  0  0  0
  -20.5417  -29.3726   20.3573 C   0  0  0  0  0  0  0  0  0  0  0  0
  -25.8997  -11.6142   20.8791 N   0  0  0  0  0  0  0  0  0  0  0  0
  -26.2262  -12.8245   20.3945 N   0  0  0  0  0  0  0  0  0  0  0  0
  -19.6899  -26.5871   22.4502 N   0  0  0  0  0  0  0  0  0  0  0  0
  -29.9090  -13.8324   20.4597 N   0  0  0  0  0  0  0  0  0  0  0  0
  -25.3559  -14.9857   19.9676 N   0  0  0  0  0  0  0  0  0  0  0  0
  -21.8356  -12.7750   21.7329 N   0  0  0  0  0  0  0  0  0  0  0  0
  -29.8869  -16.1452   20.9207 N   0  0  0  0  0  0  0  0  0  0  0  0
  -27.6310  -20.6065   22.0052 N   0  0  0  0  0  0  0  0  0  0  0  0
  -16.4951  -24.9066   21.9350 N   0  0  0  0  0  0  0  0  0  0  0  0
  -21.5794  -29.3874   22.6653 N   0  0  0  0  0  0  0  0  0  0  0  0
  -24.1387  -29.3535   25.2180 N   0  3  0  0  0  0  0  0  0  0  0  0
  -29.4846  -21.8053   22.7490 O   0  0  0  0  0  0  0  0  0  0  0  0
  -22.5295  -14.7813   20.8657 O   0  0  0  0  0  0  0  0  0  0  0  0
  -26.8042  -22.5362   23.0160 O   0  0  0  0  0  0  0  0  0  0  0  0
  -18.2157  -25.6791   20.5692 O   0  0  0  0  0  0  0  0  0  0  0  0
  -18.7928  -28.7231   22.7130 O   0  0  0  0  0  0  0  0  0  0  0  0
  -23.4949  -28.0865   22.7897 O   0  0  0  0  0  0  0  0  0  0  0  0
  -31.7436  -15.1450   19.9545 O   0  0  0  0  0  0  0  0  0  0  0  0
  -25.1445  -19.7650   21.4331 O   0  0  0  0  0  0  0  0  0  0  0  0
  -21.7965   -7.4720   23.4392 O   0  0  0  0  0  0  0  0  0  0  0  0
  -22.9078  -21.3313   22.1773 O   0  0  0  0  0  0  0  0  0  1  0  0
  -22.3801   -2.5262   21.0723 F   0  0  0  0  0  0  0  0  0  0  0  0
  -32.4201  -16.9196   20.0616 F   0  0  0  0  0  0  0  0  0  0  0  0
  -19.6152   -6.1341   22.3929 F   0  0  0  0  0  0  0  0  0  0  0  0
  -28.2426  -18.1237   21.9635 F   0  0  0  0  0  0  0  0  0  0  0  0
  1  2  1  0  0  0  0
  1  6  2  0  0  0  0
  2  7  2  0  0  0  0
  3  9  2  0  0  0  0
  3 17  1  0  0  0  0
  4 10  1  0  0  0  0
  4 17  2  0  0  0  0
  5 13  2  0  0  0  0
  5 18  1  0  0  0  0
  6 20  1  0  0  0  0
  7 22  1  0  0  0  0
  8 11  2  0  0  0  0
  8 21  1  0  0  0  0
  9 25  1  0  0  0  0
 10 25  2  0  0  0  0
 11 26  1  0  0  0  0
 12 14  2  0  0  0  0
 12 27  1  0  0  0  0
 13 29  1  0  0  0  0
 14 28  1  0  0  0  0
 15 23  1  0  0  0  0
 15 26  2  0  0  0  0
 16 28  2  0  0  0  0
 16 30  1  0  0  0  0
 17 32  1  0  0  0  0
 18 31  2  0  0  0  0
 18 35  1  0  0  0  0
 19 32  1  0  0  0  0
 19 33  2  0  0  0  0
 19 36  1  0  0  0  0
 20 22  2  0  0  0  0
 20 43  1  0  0  0  0
 21 23  2  0  0  0  0
 21 44  1  0  0  0  0
 22 52  1  0  0  0  0
 23 45  1  0  0  0  0
 24 29  2  0  0  0  0
 24 31  1  0  0  0  0
 24 69  1  0  0  0  0
 25 82  1  0  0  0  0
 26 83  1  0  0  0  0
 27 30  2  0  0  0  0
 27 82  1  0  0  0  0
 28 84  1  0  0  0  0
 29 85  1  0  0  0  0
 30 86  1  0  0  0  0
 31 87  1  0  0  0  0
 32 63  2  0  0  0  0
 33 64  1  0  0  0  0
 33 67  1  0  0  0  0
 34 37  2  0  0  0  0
 34 83  1  0  0  0  0
 35 70  1  0  0  0  0
 35 74  2  0  0  0  0
 36 68  1  0  0  0  0
 36 75  2  0  0  0  0
 37 38  1  0  0  0  0
 37 81  1  0  0  0  0
 38 70  1  0  0  0  0
 38 76  2  0  0  0  0
 39 53  1  0  0  0  0
 39 71  1  0  0  0  0
 39 77  2  0  0  0  0
 40 60  1  0  0  0  0
 40 65  1  0  0  0  0
 40 78  2  0  0  0  0
 41 61  1  0  0  0  0
 41 72  1  0  0  0  0
 41 79  2  0  0  0  0
 42 66  1  0  0  0  0
 42 69  1  0  0  0  0
 42 80  2  0  0  0  0
 43 46  1  0  0  0  0
 44 53  1  0  0  0  0
 45 65  1  0  0  0  0
 46 48  1  0  0  0  0
 47 49  1  0  0  0  0
 47 50  1  0  0  0  0
 48 52  1  0  0  0  0
 49 54  1  0  0  0  0
 50 66  1  0  0  0  0
 51 54  1  0  0  0  0
 51 66  1  0  0  0  0
 52 71  1  0  0  0  0
 53 65  1  0  0  0  0
 54 64  1  0  0  0  0
 55 61  1  0  0  0  0
 56 62  1  0  0  0  0
 57 62  1  0  0  0  0
 58 62  1  0  0  0  0
 59 73  1  0  0  0  0
 60 62  1  0  0  0  0
 60 72  1  0  0  0  0
 61 73  1  0  0  0  0
 63 64  1  0  0  0  0
M  CHG  1  73   1
M  ISO  4  34 101  42 100  69 100  83 101
M  END
> <Batch ID>
0175

> <Smiles>
CNC(C)C(=O)NC(C(=O)N1Cc2cc([101O:1][101CH2:1]C(=O)C(=O)NC(=O)c3ccc(F)c([100NH:0][100C:0](=O)N4CCCC(n5nc(-c6ccc(Oc7ccc(F)cc7F)cc6)c(C(N)=O)c5N)C4)c3F)ccc2CC1C(=O)NC1CCCc2ccccc21)C(C)(C)C

> <Shape>
0.254

> <Color>
0.175

> <Negative vol penalty>
0.000

$$$$

  -OEChem-04052304353D

 82 90  0     1  0  0  0  0  0999 V2000
  -16.7361  -29.3888   23.5025 C   0  0  0  0  0  0  0  0  0  0  0  0
  -17.6553  -29.5491   22.4706 C   0  0  0  0  0  0  0  0  0  0  0  0
  -26.3413  -12.9345   21.8223 C   0  0  0  0  0  0  0  0  0  0  0  0
  -26.2249  -13.9158   19.6177 C   0  0  0  0  0  0  0  0  0  0  0  0
  -17.1496  -28.8687   24.7282 C   0  0  0  0  0  0  0  0  0  0  0  0
  -18.9888  -29.1904   22.6642 C   0  0  0  0  0  0  0  0  0  0  0  0
  -24.6315  -26.5543   19.1248 C   0  0  0  0  0  0  0  0  0  0  0  0
  -25.0803  -12.3681   21.6369 C   0  0  0  0  0  0  0  0  0  0  0  0
  -24.9638  -13.3494   19.4322 C   0  0  0  0  0  0  0  0  0  0  0  0
  -25.9752  -26.8335   18.8791 C   0  0  0  0  0  0  0  0  0  0  0  0
  -23.7586   -9.7030   20.0295 C   0  0  0  0  0  0  0  0  0  0  0  0
  -23.5860   -8.3696   20.4005 C   0  0  0  0  0  0  0  0  0  0  0  0
  -26.5590  -25.8712   21.0128 C   0  0  0  0  0  0  0  0  0  0  0  0
  -21.8742   -9.0285   21.9729 C   0  0  0  0  0  0  0  0  0  0  0  0
  -30.1026  -22.6842   17.1547 C   0  0  0  0  0  0  0  0  0  0  0  0
  -26.9136  -13.7085   20.8128 C   0  0  0  0  0  0  0  0  0  0  0  0
  -30.5547  -23.4838   18.1813 C   0  0  0  0  0  0  0  0  0  0  0  0
  -29.4613  -13.7216   20.6831 C   0  0  0  0  0  0  0  0  0  0  0  0
  -18.4868  -28.4944   24.9339 C   0  0  0  0  0  0  0  0  0  0  0  0
  -24.2396  -25.9403   20.3231 C   0  0  0  0  0  0  0  0  0  0  0  0
  -19.4208  -28.6660   23.8943 C   0  0  0  0  0  0  0  0  0  0  0  0
  -25.2100  -25.5830   21.2701 C   0  0  0  0  0  0  0  0  0  0  0  0
  -24.3915  -12.5755   20.4418 C   0  0  0  0  0  0  0  0  0  0  0  0
  -26.9389  -26.4946   19.8244 C   0  0  0  0  0  0  0  0  0  0  0  0
  -22.9890  -10.6993   20.6303 C   0  0  0  0  0  0  0  0  0  0  0  0
  -22.6438   -8.0323   21.3721 C   0  0  0  0  0  0  0  0  0  0  0  0
  -22.0468  -10.3621   21.6019 C   0  0  0  0  0  0  0  0  0  0  0  0
  -30.5217  -22.8119   19.4373 C   0  0  0  0  0  0  0  0  0  0  0  0
  -28.2160  -14.2944   21.0040 C   0  0  0  0  0  0  0  0  0  0  0  0
  -30.3819  -14.6703   21.0558 C   0  0  0  0  0  0  0  0  0  0  0  0
  -30.0454  -21.5243   19.3229 C   0  0  0  0  0  0  0  0  0  0  0  0
  -29.0014  -25.8150   18.9556 C   0  0  0  0  0  0  0  0  0  1  0  0
  -31.0114  -24.8726   17.9630 C   0  0  0  0  0  0  0  0  0  0  0  0
  -29.7592  -12.4460   20.1001 C   0  0  0  0  0  0  0  0  0  0  0  0
  -30.2995  -25.9753   18.6723 C   0  0  0  0  0  0  0  0  0  0  0  0
  -22.3869  -26.7720   22.7684 C   0  0  0  0  0  0  0  0  0  0  0  0
  -22.9388  -23.7203   23.7197 C   0  0  0  0  0  0  0  0  0  0  0  0
  -24.9536  -20.9683   23.6017 C   0  0  0  0  0  0  0  0  0  0  0  0
  -30.1053  -20.6077   21.6687 C   0  0  0  0  0  0  0  0  0  0  0  0
  -18.8964  -27.9808   26.2915 C   0  0  0  0  0  0  0  0  0  0  0  0
  -22.7891  -25.6217   20.5613 C   0  0  0  0  0  0  0  0  0  0  0  0
  -24.8435  -24.9039   22.5636 C   0  0  0  0  0  0  0  0  0  0  0  0
  -20.2501  -27.2754   26.2929 C   0  0  0  0  0  0  0  0  0  0  0  0
  -31.0189  -18.2486   24.1741 C   0  0  0  0  0  0  0  0  0  0  0  0
  -21.2811  -28.0972   25.5257 C   0  0  0  0  0  0  0  0  0  0  0  0
  -30.5225  -16.9139   23.6135 C   0  0  0  0  0  0  0  0  0  0  0  0
  -30.0666  -19.3946   23.8370 C   0  0  0  0  0  0  0  0  0  0  0  0
  -29.2387  -18.1930   21.8521 C   0  0  0  0  0  0  0  0  0  0  0  0
  -20.8709  -28.2654   24.0578 C   0  0  1  0  0  0  0  0  0  0  0  0
  -22.4479  -25.4595   22.0394 C   0  0  1  0  0  0  0  0  0  0  0  0
  -30.1980  -17.0197   22.1105 C   0  0  2  0  0  0  0  0  0  0  0  0
  -25.1631  -18.6397   24.5135 C   0  0  0  0  0  0  0  0  0  0  0  0
  -23.8610  -24.8546   26.3980 C   0  0  0  0  0  0  0  0  0  0  0  0
  -24.9243  -22.6419   26.8899 C   0  0  0  0  0  0  0  0  0  0  0  0
  -22.4554  -22.7930   26.5666 C   0  0  0  0  0  0  0  0  0  0  0  0
  -24.8243  -19.7732   20.8973 C   0  0  0  0  0  0  0  0  0  0  0  0
  -23.9844  -23.0375   24.5680 C   0  0  1  0  0  0  0  0  0  0  0  0
  -24.6413  -19.5004   23.3734 C   0  0  2  0  0  0  0  0  0  0  0  0
  -23.8133  -23.3463   26.0822 C   0  0  0  0  0  0  0  0  0  0  0  0
  -28.3315  -15.5125   21.5396 N   0  0  0  0  0  0  0  0  0  0  0  0
  -29.6602  -15.7129   21.5581 N   0  0  0  0  0  0  0  0  0  0  0  0
  -23.4115  -24.6191   22.7530 N   0  0  0  0  0  0  0  0  0  0  0  0
  -29.8085  -19.4357   22.3960 N   0  0  0  0  0  0  0  0  0  0  0  0
  -31.7302  -14.7060   20.9997 N   0  0  0  0  0  0  0  0  0  0  0  0
  -28.6944  -11.5936   19.7777 N   0  0  0  0  0  0  0  0  0  0  0  0
  -29.8487  -20.5181   20.3010 N   0  0  0  0  0  0  0  0  0  0  0  0
  -21.1493  -27.0558   23.3135 N   0  0  0  0  0  0  0  0  0  0  0  0
  -23.9162  -21.6184   24.2361 N   0  0  0  0  0  0  0  0  0  0  0  0
  -25.2659  -19.0292   22.1050 N   0  3  0  0  0  0  0  0  0  0  0  0
  -31.9713  -25.0735   17.2260 O   0  0  0  0  0  0  0  0  0  0  0  0
  -30.9356  -12.0664   19.8869 O   0  0  0  0  0  0  0  0  0  0  0  0
  -23.3889  -27.4744   22.8328 O   0  0  0  0  0  0  0  0  0  0  0  0
  -21.7470  -23.4603   23.9032 O   0  0  0  0  0  0  0  0  0  0  0  0
  -26.0134  -21.4856   23.2556 O   0  0  0  0  0  0  0  0  0  0  0  0
  -30.5797  -21.6074   22.2142 O   0  0  0  0  0  0  0  0  0  0  0  0
  -30.9913  -27.1275   18.9792 O   0  0  0  0  0  0  0  0  0  0  0  0
  -23.1610  -12.0227   20.2603 O   0  0  0  0  0  0  0  0  0  0  0  0
  -28.2510  -26.7666   19.5874 O   0  0  0  0  0  0  0  0  0  1  0  0
  -22.4771   -6.7515   21.7271 F   0  0  0  0  0  0  0  0  0  0  0  0
  -21.3037  -11.3147   22.1818 F   0  0  0  0  0  0  0  0  0  0  0  0
  -30.9072  -23.3637   20.5903 F   0  0  0  0  0  0  0  0  0  0  0  0
  -29.6409  -21.1302   17.7063 S   0  0  0  0  0  0  0  0  0  0  0  0
  1  2  1  0  0  0  0
  1  5  2  0  0  0  0
  2  6  2  0  0  0  0
  3  8  2  0  0  0  0
  3 16  1  0  0  0  0
  4  9  1  0  0  0  0
  4 16  2  0  0  0  0
  5 19  1  0  0  0  0
  6 21  1  0  0  0  0
  7 10  2  0  0  0  0
  7 20  1  0  0  0  0
  8 23  1  0  0  0  0
  9 23  2  0  0  0  0
 10 24  1  0  0  0  0
 11 12  2  0  0  0  0
 11 25  1  0  0  0  0
 12 26  1  0  0  0  0
 13 22  1  0  0  0  0
 13 24  2  0  0  0  0
 14 26  2  0  0  0  0
 14 27  1  0  0  0  0
 15 17  2  0  0  0  0
 15 82  1  0  0  0  0
 16 29  1  0  0  0  0
 17 28  1  0  0  0  0
 17 33  1  0  0  0  0
 18 29  1  0  0  0  0
 18 30  2  0  0  0  0
 18 34  1  0  0  0  0
 19 21  2  0  0  0  0
 19 40  1  0  0  0  0
 20 22  2  0  0  0  0
 20 41  1  0  0  0  0
 21 49  1  0  0  0  0
 22 42  1  0  0  0  0
 23 77  1  0  0  0  0
 24 78  1  0  0  0  0
 25 27  2  0  0  0  0
 25 77  1  0  0  0  0
 26 79  1  0  0  0  0
 27 80  1  0  0  0  0
 28 31  2  0  0  0  0
 28 81  1  0  0  0  0
 29 60  2  0  0  0  0
 30 61  1  0  0  0  0
 30 64  1  0  0  0  0
 31 66  1  0  0  0  0
 31 82  1  0  0  0  0
 32 35  2  0  0  0  0
 32 78  1  0  0  0  0
 33 35  1  0  0  0  0
 33 70  2  0  0  0  0
 34 65  1  0  0  0  0
 34 71  2  0  0  0  0
 35 76  1  0  0  0  0
 36 50  1  0  0  0  0
 36 67  1  0  0  0  0
 36 72  2  0  0  0  0
 37 57  1  0  0  0  0
 37 62  1  0  0  0  0
 37 73  2  0  0  0  0
 38 58  1  0  0  0  0
 38 68  1  0  0  0  0
 38 74  2  0  0  0  0
 39 63  1  0  0  0  0
 39 66  1  0  0  0  0
 39 75  2  0  0  0  0
 40 43  1  0  0  0  0
 41 50  1  0  0  0  0
 42 62  1  0  0  0  0
 43 45  1  0  0  0  0
 44 46  1  0  0  0  0
 44 47  1  0  0  0  0
 45 49  1  0  0  0  0
 46 51  1  0  0  0  0
 47 63  1  0  0  0  0
 48 51  1  0  0  0  0
 48 63  1  0  0  0  0
 49 67  1  0  0  0  0
 50 62  1  0  0  0  0
 51 61  1  0  0  0  0
 52 58  1  0  0  0  0
 53 59  1  0  0  0  0
 54 59  1  0  0  0  0
 55 59  1  0  0  0  0
 56 69  1  0  0  0  0
 57 59  1  0  0  0  0
 57 68  1  0  0  0  0
 58 69  1  0  0  0  0
 60 61  1  0  0  0  0
M  CHG  1  69   1
M  ISO  4  32 101  39 100  66 100  78 101
M  END
> <Batch ID>
0175

> <Smiles>
CNC(C)C(=O)NC(C(=O)N1Cc2cc([101O:1][101CH2:1]C(=O)C(=O)c3csc([100NH:0][100C:0](=O)N4CCCC(n5nc(-c6ccc(Oc7ccc(F)cc7F)cc6)c(C(N)=O)c5N)C4)c3F)ccc2CC1C(=O)NC1CCCc2ccccc21)C(C)(C)C

> <Shape>
0.253

> <Color>
0.070

> <Negative vol penalty>
0.000

$$$$

  -OEChem-04052304353D

 87 95  0     1  0  0  0  0  0999 V2000
  -17.3606  -27.5089   24.7028 C   0  0  0  0  0  0  0  0  0  0  0  0
  -18.6006  -26.8942   24.8444 C   0  0  0  0  0  0  0  0  0  0  0  0
  -22.9864   -9.9170   19.9978 C   0  0  0  0  0  0  0  0  0  0  0  0
  -23.6875  -10.0034   22.3082 C   0  0  0  0  0  0  0  0  0  0  0  0
  -17.1197  -28.3475   23.6153 C   0  0  0  0  0  0  0  0  0  0  0  0
  -19.6001  -27.1170   23.8980 C   0  0  0  0  0  0  0  0  0  0  0  0
  -24.1158  -28.0007   26.0127 C   0  0  0  0  0  0  0  0  0  0  0  0
  -22.2122   -8.7903   20.2748 C   0  0  0  0  0  0  0  0  0  0  0  0
  -22.9132   -8.8767   22.5853 C   0  0  0  0  0  0  0  0  0  0  0  0
  -24.8227  -26.8974   26.4890 C   0  0  0  0  0  0  0  0  0  0  0  0
  -23.1478   -5.5294   22.1717 C   0  0  0  0  0  0  0  0  0  0  0  0
  -23.7230   -4.5225   22.9469 C   0  0  0  0  0  0  0  0  0  0  0  0
  -26.1711  -26.9055   24.4887 C   0  0  0  0  0  0  0  0  0  0  0  0
  -29.8651  -17.4943   23.0618 C   0  0  0  0  0  0  0  0  0  0  0  0
  -32.0447  -16.5780   22.5653 C   0  0  0  0  0  0  0  0  0  0  0  0
  -21.9826   -4.8006   24.5994 C   0  0  0  0  0  0  0  0  0  0  0  0
  -23.7241  -10.5235   21.0144 C   0  0  0  0  0  0  0  0  0  0  0  0
  -24.1223  -13.0341   20.8006 C   0  0  0  0  0  0  0  0  0  0  0  0
  -18.1200  -28.5884   22.6603 C   0  0  0  0  0  0  0  0  0  0  0  0
  -24.4245  -28.5589   24.7639 C   0  0  0  0  0  0  0  0  0  0  0  0
  -19.3719  -27.9586   22.7960 C   0  0  0  0  0  0  0  0  0  0  0  0
  -25.4683  -28.0174   24.0000 C   0  0  0  0  0  0  0  0  0  0  0  0
  -30.6633  -16.5819   22.3719 C   0  0  0  0  0  0  0  0  0  0  0  0
  -30.4483  -18.4030   23.9450 C   0  0  0  0  0  0  0  0  0  0  0  0
  -22.1755   -8.2702   21.5686 C   0  0  0  0  0  0  0  0  0  0  0  0
  -25.8486  -26.3478   25.7257 C   0  0  0  0  0  0  0  0  0  0  0  0
  -21.9901   -6.1720   22.6104 C   0  0  0  0  0  0  0  0  0  0  0  0
  -23.1403   -4.1580   24.1607 C   0  0  0  0  0  0  0  0  0  0  0  0
  -32.6279  -17.4865   23.4486 C   0  0  0  0  0  0  0  0  0  0  0  0
  -21.4075   -5.8076   23.8243 C   0  0  0  0  0  0  0  0  0  0  0  0
  -31.8297  -18.3990   24.1384 C   0  0  0  0  0  0  0  0  0  0  0  0
  -24.5246  -11.6870   20.7287 C   0  0  0  0  0  0  0  0  0  0  0  0
  -25.2390  -13.7459   20.4360 C   0  0  0  0  0  0  0  0  0  0  0  0
  -22.8527  -13.5923   21.1645 C   0  0  0  0  0  0  0  0  0  0  0  0
  -27.7421  -20.5461   25.4487 C   0  0  0  0  0  0  0  0  0  0  0  0
  -28.2665  -19.4538   24.5609 C   0  0  0  0  0  0  0  0  0  0  0  0
  -22.8462  -28.9597   22.0341 C   0  0  0  0  0  0  0  0  0  0  0  0
  -25.5069  -30.6122   21.1904 C   0  0  0  0  0  0  0  0  0  0  0  0
  -28.8422  -31.1661   21.6548 C   0  0  0  0  0  0  0  0  0  0  0  0
  -30.7198  -14.6877   20.7121 C   0  0  0  0  0  0  0  0  0  0  0  0
  -17.7973  -29.4653   21.4764 C   0  0  0  0  0  0  0  0  0  0  0  0
  -23.6703  -29.7654   24.2763 C   0  0  0  0  0  0  0  0  0  0  0  0
  -25.8524  -28.5921   22.6618 C   0  0  0  0  0  0  0  0  0  0  0  0
  -19.0328  -29.9452   20.7192 C   0  0  0  0  0  0  0  0  0  0  0  0
  -29.6154  -12.2010   18.4156 C   0  0  0  0  0  0  0  0  0  0  0  0
  -19.9948  -28.7861   20.4780 C   0  0  0  0  0  0  0  0  0  0  0  0
  -28.1594  -11.9564   18.8186 C   0  0  0  0  0  0  0  0  0  0  0  0
  -30.5042  -12.4608   19.6307 C   0  0  0  0  0  0  0  0  0  0  0  0
  -28.5784  -13.2799   20.9305 C   0  0  0  0  0  0  0  0  0  0  0  0
  -20.4897  -28.1950   21.8036 C   0  0  1  0  0  0  0  0  0  0  0  0
  -23.7286  -29.9345   22.7613 C   0  0  1  0  0  0  0  0  0  0  0  0
  -27.6325  -13.0777   19.7354 C   0  0  2  0  0  0  0  0  0  0  0  0
  -30.7480  -32.5515   20.7911 C   0  0  0  0  0  0  0  0  0  0  0  0
  -25.6730  -28.8362   18.7149 C   0  0  0  0  0  0  0  0  0  0  0  0
  -28.0392  -29.5967   18.4135 C   0  0  0  0  0  0  0  0  0  0  0  0
  -26.1755  -31.2510   18.3019 C   0  0  0  0  0  0  0  0  0  0  0  0
  -29.2676  -32.4357   24.2941 C   0  0  0  0  0  0  0  0  0  0  0  0
  -27.6615  -21.9295   24.8445 C   0  0  0  0  0  0  0  0  0  0  0  0
  -27.1277  -22.9732   25.8207 C   0  0  0  0  0  0  0  0  0  0  0  0
  -27.0663  -24.3701   25.2141 C   0  0  0  0  0  0  0  0  0  1  0  0
  -26.8214  -30.2605   20.5366 C   0  0  1  0  0  0  0  0  0  0  0  0
  -29.6364  -32.4488   21.8238 C   0  0  2  0  0  0  0  0  0  0  0  0
  -26.6690  -29.9739   19.0160 C   0  0  0  0  0  0  0  0  0  0  0  0
  -25.7974  -11.5486   20.3482 N   0  0  0  0  0  0  0  0  0  0  0  0
  -26.2045  -12.8179   20.1777 N   0  0  0  0  0  0  0  0  0  0  0  0
  -25.0812  -29.7678   22.2256 N   0  0  0  0  0  0  0  0  0  0  0  0
  -29.9449  -13.5380   20.4502 N   0  0  0  0  0  0  0  0  0  0  0  0
  -25.4793  -15.0687   20.3143 N   0  0  0  0  0  0  0  0  0  0  0  0
  -21.8135  -12.7183   21.5117 N   0  0  0  0  0  0  0  0  0  0  0  0
  -29.6366  -19.3268   24.6436 N   0  0  0  0  0  0  0  0  0  0  0  0
  -30.0715  -15.6586   21.4747 N   0  0  0  0  0  0  0  0  0  0  0  0
  -21.5116  -29.0399   22.3834 N   0  0  0  0  0  0  0  0  0  0  0  0
  -27.7380  -31.3513   20.8501 N   0  0  0  0  0  0  0  0  0  0  0  0
  -30.2492  -32.5035   23.1811 N   0  3  0  0  0  0  0  0  0  0  0  0
  -22.6412  -14.8287   21.1653 O   0  0  0  0  0  0  0  0  0  0  0  0
  -27.4071  -20.2346   26.5818 O   0  0  0  0  0  0  0  0  0  0  0  0
  -27.4439  -18.8587   23.8846 O   0  0  0  0  0  0  0  0  0  0  0  0
  -23.3393  -28.1926   21.2156 O   0  0  0  0  0  0  0  0  0  0  0  0
  -24.8845  -31.6038   20.8019 O   0  0  0  0  0  0  0  0  0  0  0  0
  -29.1709  -30.1050   22.1808 O   0  0  0  0  0  0  0  0  0  0  0  0
  -31.8638  -14.8142   20.2679 O   0  0  0  0  0  0  0  0  0  0  0  0
  -21.4199   -7.1710   21.8394 O   0  0  0  0  0  0  0  0  0  0  0  0
  -26.5398  -25.2706   26.1879 O   0  0  0  0  0  0  0  0  0  1  0  0
  -23.6919   -3.1900   24.9043 F   0  0  0  0  0  0  0  0  0  0  0  0
  -33.9543  -17.4830   23.6339 F   0  0  0  0  0  0  0  0  0  0  0  0
  -20.2946   -6.4205   24.2504 F   0  0  0  0  0  0  0  0  0  0  0  0
  -32.4011  -19.2679   24.9843 F   0  0  0  0  0  0  0  0  0  0  0  0
  1  2  1  0  0  0  0
  1  5  2  0  0  0  0
  2  6  2  0  0  0  0
  3  8  2  0  0  0  0
  3 17  1  0  0  0  0
  4  9  1  0  0  0  0
  4 17  2  0  0  0  0
  5 19  1  0  0  0  0
  6 21  1  0  0  0  0
  7 10  2  0  0  0  0
  7 20  1  0  0  0  0
  8 25  1  0  0  0  0
  9 25  2  0  0  0  0
 10 26  1  0  0  0  0
 11 12  2  0  0  0  0
 11 27  1  0  0  0  0
 12 28  1  0  0  0  0
 13 22  1  0  0  0  0
 13 26  2  0  0  0  0
 14 23  2  0  0  0  0
 14 24  1  0  0  0  0
 15 23  1  0  0  0  0
 15 29  2  0  0  0  0
 16 28  2  0  0  0  0
 16 30  1  0  0  0  0
 17 32  1  0  0  0  0
 18 32  1  0  0  0  0
 18 33  2  0  0  0  0
 18 34  1  0  0  0  0
 19 21  2  0  0  0  0
 19 41  1  0  0  0  0
 20 22  2  0  0  0  0
 20 42  1  0  0  0  0
 21 50  1  0  0  0  0
 22 43  1  0  0  0  0
 23 71  1  0  0  0  0
 24 31  2  0  0  0  0
 24 70  1  0  0  0  0
 25 82  1  0  0  0  0
 26 83  1  0  0  0  0
 27 30  2  0  0  0  0
 27 82  1  0  0  0  0
 28 84  1  0  0  0  0
 29 31  1  0  0  0  0
 29 85  1  0  0  0  0
 30 86  1  0  0  0  0
 31 87  1  0  0  0  0
 32 64  2  0  0  0  0
 33 65  1  0  0  0  0
 33 68  1  0  0  0  0
 34 69  1  0  0  0  0
 34 75  2  0  0  0  0
 35 36  1  0  0  0  0
 35 58  1  0  0  0  0
 35 76  2  0  0  0  0
 36 70  1  0  0  0  0
 36 77  2  0  0  0  0
 37 51  1  0  0  0  0
 37 72  1  0  0  0  0
 37 78  2  0  0  0  0
 38 61  1  0  0  0  0
 38 66  1  0  0  0  0
 38 79  2  0  0  0  0
 39 62  1  0  0  0  0
 39 73  1  0  0  0  0
 39 80  2  0  0  0  0
 40 67  1  0  0  0  0
 40 71  1  0  0  0  0
 40 81  2  0  0  0  0
 41 44  1  0  0  0  0
 42 51  1  0  0  0  0
 43 66  1  0  0  0  0
 44 46  1  0  0  0  0
 45 47  1  0  0  0  0
 45 48  1  0  0  0  0
 46 50  1  0  0  0  0
 47 52  1  0  0  0  0
 48 67  1  0  0  0  0
 49 52  1  0  0  0  0
 49 67  1  0  0  0  0
 50 72  1  0  0  0  0
 51 66  1  0  0  0  0
 52 65  1  0  0  0  0
 53 62  1  0  0  0  0
 54 63  1  0  0  0  0
 55 63  1  0  0  0  0
 56 63  1  0  0  0  0
 57 74  1  0  0  0  0
 58 59  1  0  0  0  0
 59 60  1  0  0  0  0
 60 83  1  0  0  0  0
 61 63  1  0  0  0  0
 61 73  1  0  0  0  0
 62 74  1  0  0  0  0
 64 65  1  0  0  0  0
M  CHG  1  74   1
M  ISO  4  40 100  60 101  71 100  83 101
M  END
> <Batch ID>
0175

> <Smiles>
CNC(C)C(=O)NC(C(=O)N1Cc2cc([101O:1][101CH2:1]CCC(=O)C(=O)Nc3cc([100NH:0][100C:0](=O)N4CCCC(n5nc(-c6ccc(Oc7ccc(F)cc7F)cc6)c(C(N)=O)c5N)C4)cc(F)c3F)ccc2CC1C(=O)NC1CCCc2ccccc21)C(C)(C)C

> <Shape>
0.280

> <Color>
0.223

> <Negative vol penalty>
0.000

$$$$

  -OEChem-04052304353D

 86 94  0     1  0  0  0  0  0999 V2000
  -27.7993  -36.4656   24.7629 C   0  0  0  0  0  0  0  0  0  0  0  0
  -28.2990  -35.3269   24.1391 C   0  0  0  0  0  0  0  0  0  0  0  0
  -23.6462   -9.8859   22.4107 C   0  0  0  0  0  0  0  0  0  0  0  0
  -23.3042   -9.9609   20.0202 C   0  0  0  0  0  0  0  0  0  0  0  0
  -26.5701  -36.4170   25.4191 C   0  0  0  0  0  0  0  0  0  0  0  0
  -27.5701  -34.1386   24.1720 C   0  0  0  0  0  0  0  0  0  0  0  0
  -27.2477  -29.8943   19.7689 C   0  0  0  0  0  0  0  0  0  0  0  0
  -22.8443   -8.7473   22.4897 C   0  0  0  0  0  0  0  0  0  0  0  0
  -22.5023   -8.8223   20.0992 C   0  0  0  0  0  0  0  0  0  0  0  0
  -27.9065  -28.6791   19.5874 C   0  0  0  0  0  0  0  0  0  0  0  0
  -23.1558   -5.4346   21.8884 C   0  0  0  0  0  0  0  0  0  0  0  0
  -23.6116   -4.3738   22.6710 C   0  0  0  0  0  0  0  0  0  0  0  0
  -26.0385  -27.5242   20.5854 C   0  0  0  0  0  0  0  0  0  0  0  0
  -21.6388   -4.5472   24.0549 C   0  0  0  0  0  0  0  0  0  0  0  0
  -29.3269  -18.6422   16.4925 C   0  0  0  0  0  0  0  0  0  0  0  0
  -23.8761  -10.4927   21.1759 C   0  0  0  0  0  0  0  0  0  0  0  0
  -26.0968  -11.7164   20.8958 C   0  0  0  0  0  0  0  0  0  0  0  0
  -25.8213  -35.2300   25.4518 C   0  0  0  0  0  0  0  0  0  0  0  0
  -25.9819  -29.9347   20.3709 C   0  0  0  0  0  0  0  0  0  0  0  0
  -26.3304  -34.0737   24.8304 C   0  0  0  0  0  0  0  0  0  0  0  0
  -25.3646  -28.7410   20.7711 C   0  0  0  0  0  0  0  0  0  0  0  0
  -22.2724   -8.2155   21.3340 C   0  0  0  0  0  0  0  0  0  0  0  0
  -27.3032  -27.4940   19.9983 C   0  0  0  0  0  0  0  0  0  0  0  0
  -21.9416   -6.0518   22.1891 C   0  0  0  0  0  0  0  0  0  0  0  0
  -22.8531   -3.9300   23.7543 C   0  0  0  0  0  0  0  0  0  0  0  0
  -21.1831   -5.6081   23.2723 C   0  0  0  0  0  0  0  0  0  0  0  0
  -29.2642  -20.0309   16.5215 C   0  0  0  0  0  0  0  0  0  0  0  0
  -28.3717  -17.8944   17.1722 C   0  0  0  0  0  0  0  0  0  0  0  0
  -24.7039  -11.6692   21.0938 C   0  0  0  0  0  0  0  0  0  0  0  0
  -28.2349  -20.6189   17.2388 C   0  0  0  0  0  0  0  0  0  0  0  0
  -27.3825  -18.5780   17.8606 C   0  0  0  0  0  0  0  0  0  0  0  0
  -26.3982  -13.0564   20.8939 C   0  0  0  0  0  0  0  0  0  0  0  0
  -27.0345  -10.6448   20.7285 C   0  0  0  0  0  0  0  0  0  0  0  0
  -27.5227  -24.2773   17.7536 C   0  0  0  0  0  0  0  0  0  0  0  0
  -27.2469  -22.8106   17.9189 C   0  0  0  0  0  0  0  0  0  0  0  0
  -24.7943  -31.2486   23.0105 C   0  0  0  0  0  0  0  0  0  0  0  0
  -21.9770  -30.1844   21.8051 C   0  0  0  0  0  0  0  0  0  0  0  0
  -20.3417  -27.9816   19.7752 C   0  0  0  0  0  0  0  0  0  0  0  0
  -25.3369  -18.2853   19.3015 C   0  0  0  0  0  0  0  0  0  0  0  0
  -24.5199  -35.2134   26.2140 C   0  0  0  0  0  0  0  0  0  0  0  0
  -25.2729  -31.2511   20.5352 C   0  0  0  0  0  0  0  0  0  0  0  0
  -23.9980  -28.7283   21.4041 C   0  0  0  0  0  0  0  0  0  0  0  0
  -23.6350  -34.0147   25.8821 C   0  0  0  0  0  0  0  0  0  0  0  0
  -23.5783  -17.0685   22.1482 C   0  0  0  0  0  0  0  0  0  0  0  0
  -24.4547  -32.7282   25.8875 C   0  0  0  0  0  0  0  0  0  0  0  0
  -23.8289  -15.5592   22.1114 C   0  0  0  0  0  0  0  0  0  0  0  0
  -23.4164  -17.6509   20.7453 C   0  0  0  0  0  0  0  0  0  0  0  0
  -24.7558  -15.8249   19.7753 C   0  0  0  0  0  0  0  0  0  0  0  0
  -25.5577  -32.7725   24.8231 C   0  0  1  0  0  0  0  0  0  0  0  0
  -24.2080  -31.2240   21.6272 C   0  0  1  0  0  0  0  0  0  0  0  0
  -24.9900  -15.2038   21.1620 C   0  0  2  0  0  0  0  0  0  0  0  0
  -18.0367  -27.3316   19.0257 C   0  0  0  0  0  0  0  0  0  0  0  0
  -21.5039  -28.7900   24.4775 C   0  0  0  0  0  0  0  0  0  0  0  0
  -19.7235  -27.4224   23.3695 C   0  0  0  0  0  0  0  0  0  0  0  0
  -19.4839  -29.9014   23.5087 C   0  0  0  0  0  0  0  0  0  0  0  0
  -20.9580  -28.6085   16.9493 C   0  0  0  0  0  0  0  0  0  0  0  0
  -28.8748  -24.7639   18.2267 C   0  0  0  0  0  0  0  0  0  0  0  0
  -28.8316  -26.2057   18.7099 C   0  0  0  0  0  0  0  0  0  1  0  0
  -21.1798  -28.9075   21.9188 C   0  0  1  0  0  0  0  0  0  0  0  0
  -19.2591  -28.1870   18.7311 C   0  0  2  0  0  0  0  0  0  0  0  0
  -20.4994  -28.7554   23.3085 C   0  0  0  0  0  0  0  0  0  0  0  0
  -24.1581  -12.8828   21.2094 N   0  0  0  0  0  0  0  0  0  0  0  0
  -27.2890  -19.9258   17.9115 N   0  0  0  0  0  0  0  0  0  0  0  0
  -25.2136  -13.7051   21.0838 N   0  0  0  0  0  0  0  0  0  0  0  0
  -23.3481  -30.0413   21.5490 N   0  0  0  0  0  0  0  0  0  0  0  0
  -24.5551  -17.2768   19.9036 N   0  0  0  0  0  0  0  0  0  0  0  0
  -27.5582  -13.7313   20.7484 N   0  0  0  0  0  0  0  0  0  0  0  0
  -26.5560   -9.3278   20.7564 N   0  0  0  0  0  0  0  0  0  0  0  0
  -28.1767  -22.0318   17.2643 N   0  0  0  0  0  0  0  0  0  0  0  0
  -26.4118  -17.8104   18.5508 N   0  0  0  0  0  0  0  0  0  0  0  0
  -25.0036  -32.5197   23.5103 N   0  0  0  0  0  0  0  0  0  0  0  0
  -20.2498  -28.9055   20.7947 N   0  0  0  0  0  0  0  0  0  0  0  0
  -19.7696  -27.8270   17.3780 N   0  3  0  0  0  0  0  0  0  0  0  0
  -28.2628  -10.8486   20.5757 O   0  0  0  0  0  0  0  0  0  0  0  0
  -26.6454  -24.9575   17.2435 O   0  0  0  0  0  0  0  0  0  0  0  0
  -26.2863  -22.5097   18.6077 O   0  0  0  0  0  0  0  0  0  0  0  0
  -25.0374  -30.1925   23.5825 O   0  0  0  0  0  0  0  0  0  0  0  0
  -21.4031  -31.2689   21.9316 O   0  0  0  0  0  0  0  0  0  0  0  0
  -21.1824  -27.0885   19.6964 O   0  0  0  0  0  0  0  0  0  0  0  0
  -25.0885  -19.4828   19.4638 O   0  0  0  0  0  0  0  0  0  0  0  0
  -21.4901   -7.1043   21.4106 O   0  0  0  0  0  0  0  0  0  0  0  0
  -27.9443  -26.3066   19.8230 O   0  0  0  0  0  0  0  0  0  1  0  0
  -23.2901   -2.9103   24.5048 F   0  0  0  0  0  0  0  0  0  0  0  0
  -20.0152   -6.1963   23.5653 F   0  0  0  0  0  0  0  0  0  0  0  0
  -30.1776  -20.7638   15.8715 F   0  0  0  0  0  0  0  0  0  0  0  0
  -28.4196  -16.5562   17.1524 F   0  0  0  0  0  0  0  0  0  0  0  0
  1  2  1  0  0  0  0
  1  5  2  0  0  0  0
  2  6  2  0  0  0  0
  3  8  2  0  0  0  0
  3 16  1  0  0  0  0
  4  9  1  0  0  0  0
  4 16  2  0  0  0  0
  5 18  1  0  0  0  0
  6 20  1  0  0  0  0
  7 10  2  0  0  0  0
  7 19  1  0  0  0  0
  8 22  1  0  0  0  0
  9 22  2  0  0  0  0
 10 23  1  0  0  0  0
 11 12  2  0  0  0  0
 11 24  1  0  0  0  0
 12 25  1  0  0  0  0
 13 21  1  0  0  0  0
 13 23  2  0  0  0  0
 14 25  2  0  0  0  0
 14 26  1  0  0  0  0
 15 27  1  0  0  0  0
 15 28  2  0  0  0  0
 16 29  1  0  0  0  0
 17 29  1  0  0  0  0
 17 32  2  0  0  0  0
 17 33  1  0  0  0  0
 18 20  2  0  0  0  0
 18 40  1  0  0  0  0
 19 21  2  0  0  0  0
 19 41  1  0  0  0  0
 20 49  1  0  0  0  0
 21 42  1  0  0  0  0
 22 81  1  0  0  0  0
 23 82  1  0  0  0  0
 24 26  2  0  0  0  0
 24 81  1  0  0  0  0
 25 83  1  0  0  0  0
 26 84  1  0  0  0  0
 27 30  2  0  0  0  0
 27 85  1  0  0  0  0
 28 31  1  0  0  0  0
 28 86  1  0  0  0  0
 29 62  2  0  0  0  0
 30 63  1  0  0  0  0
 30 69  1  0  0  0  0
 31 63  2  0  0  0  0
 31 70  1  0  0  0  0
 32 64  1  0  0  0  0
 32 67  1  0  0  0  0
 33 68  1  0  0  0  0
 33 74  2  0  0  0  0
 34 35  1  0  0  0  0
 34 57  1  0  0  0  0
 34 75  2  0  0  0  0
 35 69  1  0  0  0  0
 35 76  2  0  0  0  0
 36 50  1  0  0  0  0
 36 71  1  0  0  0  0
 36 77  2  0  0  0  0
 37 59  1  0  0  0  0
 37 65  1  0  0  0  0
 37 78  2  0  0  0  0
 38 60  1  0  0  0  0
 38 72  1  0  0  0  0
 38 79  2  0  0  0  0
 39 66  1  0  0  0  0
 39 70  1  0  0  0  0
 39 80  2  0  0  0  0
 40 43  1  0  0  0  0
 41 50  1  0  0  0  0
 42 65  1  0  0  0  0
 43 45  1  0  0  0  0
 44 46  1  0  0  0  0
 44 47  1  0  0  0  0
 45 49  1  0  0  0  0
 46 51  1  0  0  0  0
 47 66  1  0  0  0  0
 48 51  1  0  0  0  0
 48 66  1  0  0  0  0
 49 71  1  0  0  0  0
 50 65  1  0  0  0  0
 51 64  1  0  0  0  0
 52 60  1  0  0  0  0
 53 61  1  0  0  0  0
 54 61  1  0  0  0  0
 55 61  1  0  0  0  0
 56 73  1  0  0  0  0
 57 58  1  0  0  0  0
 58 82  1  0  0  0  0
 59 61  1  0  0  0  0
 59 72  1  0  0  0  0
 60 73  1  0  0  0  0
 62 64  1  0  0  0  0
M  CHG  1  73   1
M  ISO  4  39 100  58 101  70 100  82 101
M  END
> <Batch ID>
0175

> <Smiles>
CNC(C)C(=O)NC(C(=O)N1Cc2cc([101O:1][101CH2:1]CC(=O)C(=O)Nc3nc([100NH:0][100C:0](=O)N4CCCC(n5nc(-c6ccc(Oc7ccc(F)cc7F)cc6)c(C(N)=O)c5N)C4)c(F)cc3F)ccc2CC1C(=O)NC1CCCc2ccccc21)C(C)(C)C

> <Shape>
0.293

> <Color>
0.103

> <Negative vol penalty>
0.000

$$$$

  -OEChem-04052304353D

 88 96  0     1  0  0  0  0  0999 V2000
  -27.8287  -33.6410   26.4918 C   0  0  0  0  0  0  0  0  0  0  0  0
  -28.0637  -32.5290   25.6895 C   0  0  0  0  0  0  0  0  0  0  0  0
  -24.7837   -7.9985   21.3018 C   0  0  0  0  0  0  0  0  0  0  0  0
  -24.1054  -10.0785   22.3268 C   0  0  0  0  0  0  0  0  0  0  0  0
  -26.5366  -33.9175   26.9367 C   0  0  0  0  0  0  0  0  0  0  0  0
  -27.0069  -31.6922   25.3326 C   0  0  0  0  0  0  0  0  0  0  0  0
  -27.0967  -30.4333   20.4283 C   0  0  0  0  0  0  0  0  0  0  0  0
  -24.1637   -7.2893   22.3305 C   0  0  0  0  0  0  0  0  0  0  0  0
  -23.4853   -9.3693   23.3555 C   0  0  0  0  0  0  0  0  0  0  0  0
  -28.0006  -29.4449   20.0411 C   0  0  0  0  0  0  0  0  0  0  0  0
  -21.0233   -6.3672   23.1796 C   0  0  0  0  0  0  0  0  0  0  0  0
  -20.2358   -5.2710   22.8282 C   0  0  0  0  0  0  0  0  0  0  0  0
  -26.2169  -27.8208   20.0449 C   0  0  0  0  0  0  0  0  0  0  0  0
  -28.5121  -18.3139   21.2690 C   0  0  0  0  0  0  0  0  0  0  0  0
  -30.5708  -16.9738   19.9466 C   0  0  0  0  0  0  0  0  0  0  0  0
  -21.6588   -3.8273   24.1427 C   0  0  0  0  0  0  0  0  0  0  0  0
  -24.7546   -9.3931   21.3000 C   0  0  0  0  0  0  0  0  0  0  0  0
  -24.8192  -10.5381   19.0213 C   0  0  0  0  0  0  0  0  0  0  0  0
  -25.4618  -33.0891   26.5771 C   0  0  0  0  0  0  0  0  0  0  0  0
  -25.7460  -30.1201   20.6377 C   0  0  0  0  0  0  0  0  0  0  0  0
  -25.6995  -31.9572   25.7742 C   0  0  0  0  0  0  0  0  0  0  0  0
  -25.2974  -28.8075   20.4323 C   0  0  0  0  0  0  0  0  0  0  0  0
  -29.4250  -19.0292   20.4941 C   0  0  0  0  0  0  0  0  0  0  0  0
  -29.6578  -16.2585   20.7215 C   0  0  0  0  0  0  0  0  0  0  0  0
  -23.5145   -7.9747   23.3574 C   0  0  0  0  0  0  0  0  0  0  0  0
  -27.5613  -28.1378   19.8522 C   0  0  0  0  0  0  0  0  0  0  0  0
  -22.1287   -6.1935   24.0126 C   0  0  0  0  0  0  0  0  0  0  0  0
  -20.5534   -4.0010   23.3097 C   0  0  0  0  0  0  0  0  0  0  0  0
  -28.6285  -16.9285   21.3828 C   0  0  0  0  0  0  0  0  0  0  0  0
  -30.4543  -18.3592   19.8328 C   0  0  0  0  0  0  0  0  0  0  0  0
  -22.4464   -4.9236   24.4941 C   0  0  0  0  0  0  0  0  0  0  0  0
  -25.3954  -10.1262   20.2379 C   0  0  0  0  0  0  0  0  0  0  0  0
  -25.8330  -11.1928   18.3655 C   0  0  0  0  0  0  0  0  0  0  0  0
  -23.4867  -10.3461   18.5281 C   0  0  0  0  0  0  0  0  0  0  0  0
  -23.7770  -30.2346   23.1304 C   0  0  0  0  0  0  0  0  0  0  0  0
  -29.4543  -25.0503   20.0661 C   0  0  0  0  0  0  0  0  0  0  0  0
  -21.5526  -29.4161   20.9159 C   0  0  0  0  0  0  0  0  0  0  0  0
  -20.8589  -27.9711   17.9030 C   0  0  0  0  0  0  0  0  0  0  0  0
  -30.7421  -14.0355   20.2429 C   0  0  0  0  0  0  0  0  0  0  0  0
  -24.0904  -33.4020   27.1213 C   0  0  0  0  0  0  0  0  0  0  0  0
  -24.7785  -31.2032   21.0292 C   0  0  0  0  0  0  0  0  0  0  0  0
  -23.8537  -28.4237   20.6242 C   0  0  0  0  0  0  0  0  0  0  0  0
  -22.9646  -32.6760   26.3895 C   0  0  0  0  0  0  0  0  0  0  0  0
  -30.6064  -11.2815   17.9903 C   0  0  0  0  0  0  0  0  0  0  0  0
  -23.3131  -31.2029   26.2011 C   0  0  0  0  0  0  0  0  0  0  0  0
  -29.2001  -10.7139   18.1959 C   0  0  0  0  0  0  0  0  0  0  0  0
  -31.2117  -11.7851   19.2994 C   0  0  0  0  0  0  0  0  0  0  0  0
  -28.9713  -12.1701   20.2487 C   0  0  0  0  0  0  0  0  0  0  0  0
  -24.5750  -31.0397   25.3453 C   0  0  1  0  0  0  0  0  0  0  0  0
  -23.5251  -30.6661   21.7133 C   0  0  1  0  0  0  0  0  0  0  0  0
  -28.2948  -11.7097   18.9472 C   0  0  2  0  0  0  0  0  0  0  0  0
  -18.9444  -27.4173   16.3780 C   0  0  0  0  0  0  0  0  0  0  0  0
  -20.7808  -27.0900   22.7334 C   0  0  0  0  0  0  0  0  0  0  0  0
  -19.5849  -26.0594   20.7902 C   0  0  0  0  0  0  0  0  0  0  0  0
  -18.8481  -28.2724   21.6748 C   0  0  0  0  0  0  0  0  0  0  0  0
  -21.9490  -29.6600   15.7309 C   0  0  0  0  0  0  0  0  0  0  0  0
  -29.2962  -20.5202   20.3731 C   0  0  0  0  0  0  0  0  0  0  0  0
  -28.1691  -25.8393   19.9091 C   0  0  0  0  0  0  0  0  0  1  0  0
  -29.2874  -23.6165   20.5102 C   0  0  0  0  0  0  0  0  0  0  0  0
  -21.0109  -28.1150   20.3749 C   0  0  1  0  0  0  0  0  0  0  0  0
  -20.0136  -28.4391   16.7321 C   0  0  2  0  0  0  0  0  0  0  0  0
  -20.0838  -27.3907   21.3915 C   0  0  0  0  0  0  0  0  0  0  0  0
  -26.6759  -10.4887   20.3508 N   0  0  0  0  0  0  0  0  0  0  0  0
  -26.9128  -11.1352   19.1966 N   0  0  0  0  0  0  0  0  0  0  0  0
  -22.9476  -29.5168   21.0133 N   0  0  0  0  0  0  0  0  0  0  0  0
  -30.3006  -12.7271   19.9531 N   0  0  0  0  0  0  0  0  0  0  0  0
  -25.8972  -11.8063   17.1647 N   0  0  0  0  0  0  0  0  0  0  0  0
  -22.5710   -9.6514   19.3301 N   0  0  0  0  0  0  0  0  0  0  0  0
  -29.7785  -14.8513   20.8350 N   0  0  0  0  0  0  0  0  0  0  0  0
  -24.2656  -31.2378   23.9455 N   0  0  0  0  0  0  0  0  0  0  0  0
  -20.3690  -28.4366   19.1049 N   0  0  0  0  0  0  0  0  0  0  0  0
  -30.3037  -21.2283   21.1832 N   0  0  0  0  0  0  0  0  0  0  0  0
  -20.8686  -28.6600   15.5316 N   0  3  0  0  0  0  0  0  0  0  0  0
  -23.1236  -10.7635   17.4023 O   0  0  0  0  0  0  0  0  0  0  0  0
  -23.5439  -29.0777   23.4602 O   0  0  0  0  0  0  0  0  0  0  0  0
  -30.5530  -25.5559   19.8430 O   0  0  0  0  0  0  0  0  0  0  0  0
  -20.7672  -30.3127   21.2333 O   0  0  0  0  0  0  0  0  0  0  0  0
  -21.8521  -27.2603   17.7654 O   0  0  0  0  0  0  0  0  0  0  0  0
  -31.8819  -14.4134   19.9600 O   0  0  0  0  0  0  0  0  0  0  0  0
  -31.4516  -22.6797   19.3749 O   0  0  0  0  0  0  0  0  0  0  0  0
  -31.5479  -23.3893   21.7923 O   0  0  0  0  0  0  0  0  0  0  0  0
  -22.9091   -7.2830   24.3612 O   0  0  0  0  0  0  0  0  0  0  0  0
  -28.4415  -27.1711   19.4749 O   0  0  0  0  0  0  0  0  0  1  0  0
  -19.7962   -2.9486   22.9734 F   0  0  0  0  0  0  0  0  0  0  0  0
  -27.7455  -16.2510   22.1304 F   0  0  0  0  0  0  0  0  0  0  0  0
  -31.3362  -19.0381   19.0862 F   0  0  0  0  0  0  0  0  0  0  0  0
  -23.5063   -4.7507   25.2956 F   0  0  0  0  0  0  0  0  0  0  0  0
  -30.8258  -22.7792   20.6851 S   0  0  0  0  0  0  0  0  0  0  0  0
  1  2  1  0  0  0  0
  1  5  2  0  0  0  0
  2  6  2  0  0  0  0
  3  8  2  0  0  0  0
  3 17  1  0  0  0  0
  4  9  1  0  0  0  0
  4 17  2  0  0  0  0
  5 19  1  0  0  0  0
  6 21  1  0  0  0  0
  7 10  2  0  0  0  0
  7 20  1  0  0  0  0
  8 25  1  0  0  0  0
  9 25  2  0  0  0  0
 10 26  1  0  0  0  0
 11 12  2  0  0  0  0
 11 27  1  0  0  0  0
 12 28  1  0  0  0  0
 13 22  1  0  0  0  0
 13 26  2  0  0  0  0
 14 23  1  0  0  0  0
 14 29  2  0  0  0  0
 15 24  2  0  0  0  0
 15 30  1  0  0  0  0
 16 28  2  0  0  0  0
 16 31  1  0  0  0  0
 17 32  1  0  0  0  0
 18 32  1  0  0  0  0
 18 33  2  0  0  0  0
 18 34  1  0  0  0  0
 19 21  2  0  0  0  0
 19 40  1  0  0  0  0
 20 22  2  0  0  0  0
 20 41  1  0  0  0  0
 21 49  1  0  0  0  0
 22 42  1  0  0  0  0
 23 30  2  0  0  0  0
 23 57  1  0  0  0  0
 24 29  1  0  0  0  0
 24 69  1  0  0  0  0
 25 82  1  0  0  0  0
 26 83  1  0  0  0  0
 27 31  2  0  0  0  0
 27 82  1  0  0  0  0
 28 84  1  0  0  0  0
 29 85  1  0  0  0  0
 30 86  1  0  0  0  0
 31 87  1  0  0  0  0
 32 63  2  0  0  0  0
 33 64  1  0  0  0  0
 33 67  1  0  0  0  0
 34 68  1  0  0  0  0
 34 74  2  0  0  0  0
 35 50  1  0  0  0  0
 35 70  1  0  0  0  0
 35 75  2  0  0  0  0
 36 58  1  0  0  0  0
 36 59  1  0  0  0  0
 36 76  2  0  0  0  0
 37 60  1  0  0  0  0
 37 65  1  0  0  0  0
 37 77  2  0  0  0  0
 38 61  1  0  0  0  0
 38 71  1  0  0  0  0
 38 78  2  0  0  0  0
 39 66  1  0  0  0  0
 39 69  1  0  0  0  0
 39 79  2  0  0  0  0
 40 43  1  0  0  0  0
 41 50  1  0  0  0  0
 42 65  1  0  0  0  0
 43 45  1  0  0  0  0
 44 46  1  0  0  0  0
 44 47  1  0  0  0  0
 45 49  1  0  0  0  0
 46 51  1  0  0  0  0
 47 66  1  0  0  0  0
 48 51  1  0  0  0  0
 48 66  1  0  0  0  0
 49 70  1  0  0  0  0
 50 65  1  0  0  0  0
 51 64  1  0  0  0  0
 52 61  1  0  0  0  0
 53 62  1  0  0  0  0
 54 62  1  0  0  0  0
 55 62  1  0  0  0  0
 56 73  1  0  0  0  0
 57 72  1  0  0  0  0
 58 83  1  0  0  0  0
 59 88  1  0  0  0  0
 60 62  1  0  0  0  0
 60 71  1  0  0  0  0
 61 73  1  0  0  0  0
 63 64  1  0  0  0  0
 72 88  1  0  0  0  0
 80 88  2  0  0  0  0
 81 88  2  0  0  0  0
M  CHG  1  73   1
M  ISO  4  39 100  58 101  69 100  83 101
M  END
> <Batch ID>
0175

> <Smiles>
CNC(C)C(=O)NC(C(=O)N1Cc2cc([101O:1][101CH2:1]C(=O)CS(=O)(=O)NCc3cc(F)c([100NH:0][100C:0](=O)N4CCCC(n5nc(-c6ccc(Oc7ccc(F)cc7F)cc6)c(C(N)=O)c5N)C4)cc3F)ccc2CC1C(=O)NC1CCCc2ccccc21)C(C)(C)C

> <Shape>
0.342

> <Color>
0.107

> <Negative vol penalty>
0.000

$$$$

  -OEChem-04052304353D

 85 93  0     1  0  0  0  0  0999 V2000
  -17.2431  -31.0372   25.1384 C   0  0  0  0  0  0  0  0  0  0  0  0
  -18.4803  -30.6037   25.6039 C   0  0  0  0  0  0  0  0  0  0  0  0
  -23.6474   -8.6123   19.3059 C   0  0  0  0  0  0  0  0  0  0  0  0
  -23.3249   -9.8959   21.3271 C   0  0  0  0  0  0  0  0  0  0  0  0
  -16.8922  -30.8363   23.8041 C   0  0  0  0  0  0  0  0  0  0  0  0
  -19.3671  -29.9680   24.7355 C   0  0  0  0  0  0  0  0  0  0  0  0
  -26.3798  -29.2194   23.4796 C   0  0  0  0  0  0  0  0  0  0  0  0
  -22.8501   -7.5929   19.8260 C   0  0  0  0  0  0  0  0  0  0  0  0
  -22.5275   -8.8765   21.8473 C   0  0  0  0  0  0  0  0  0  0  0  0
  -27.3409  -28.2265   23.2945 C   0  0  0  0  0  0  0  0  0  0  0  0
  -20.7017   -6.4579   23.8540 C   0  0  0  0  0  0  0  0  0  0  0  0
  -20.9202   -6.0752   25.1774 C   0  0  0  0  0  0  0  0  0  0  0  0
  -26.6593  -28.0045   20.9912 C   0  0  0  0  0  0  0  0  0  0  0  0
  -23.1953   -5.4756   24.6285 C   0  0  0  0  0  0  0  0  0  0  0  0
  -23.8849   -9.7639   20.0565 C   0  0  0  0  0  0  0  0  0  0  0  0
  -24.2869  -11.9194   18.7528 C   0  0  0  0  0  0  0  0  0  0  0  0
  -17.7789  -30.2065   22.9166 C   0  0  0  0  0  0  0  0  0  0  0  0
  -25.5425  -29.6053   22.4230 C   0  0  0  0  0  0  0  0  0  0  0  0
  -19.0271  -29.7573   23.3884 C   0  0  0  0  0  0  0  0  0  0  0  0
  -25.6901  -29.0043   21.1647 C   0  0  0  0  0  0  0  0  0  0  0  0
  -22.2901   -7.7250   21.0967 C   0  0  0  0  0  0  0  0  0  0  0  0
  -27.4788  -27.6168   22.0509 C   0  0  0  0  0  0  0  0  0  0  0  0
  -21.7300   -6.3494   22.9178 C   0  0  0  0  0  0  0  0  0  0  0  0
  -22.1670   -5.5841   25.5647 C   0  0  0  0  0  0  0  0  0  0  0  0
  -22.9768   -5.8582   23.3050 C   0  0  0  0  0  0  0  0  0  0  0  0
  -24.7089  -10.8171   19.5199 C   0  0  0  0  0  0  0  0  0  0  0  0
  -29.3243  -19.5851   19.6053 C   0  0  0  0  0  0  0  0  0  0  0  0
  -30.6341  -19.1563   19.6570 C   0  0  0  0  0  0  0  0  0  0  0  0
  -25.4401  -12.6190   18.4936 C   0  0  0  0  0  0  0  0  0  0  0  0
  -29.6420  -17.2124   19.8732 C   0  0  0  0  0  0  0  0  0  0  0  0
  -28.5822  -23.2024   20.3246 C   0  0  0  0  0  0  0  0  0  0  0  0
  -22.9702  -12.2790   18.3138 C   0  0  0  0  0  0  0  0  0  0  0  0
  -28.7650  -20.9452   19.4517 C   0  0  0  0  0  0  0  0  0  0  0  0
  -29.1020  -21.9735   20.4852 C   0  0  0  0  0  0  0  0  0  0  0  0
  -28.8065  -24.3375   21.2708 C   0  0  0  0  0  0  0  0  0  0  0  0
  -22.4063  -29.5439   21.9089 C   0  0  0  0  0  0  0  0  0  0  0  0
  -23.2090  -31.1689   19.2187 C   0  0  0  0  0  0  0  0  0  0  0  0
  -25.5878  -31.9235   16.8909 C   0  0  0  0  0  0  0  0  0  0  0  0
  -30.2930  -14.7938   20.1438 C   0  0  0  0  0  0  0  0  0  0  0  0
  -17.3363  -29.9691   21.4944 C   0  0  0  0  0  0  0  0  0  0  0  0
  -24.5287  -30.6967   22.6317 C   0  0  0  0  0  0  0  0  0  0  0  0
  -24.8296  -29.3969   19.9926 C   0  0  0  0  0  0  0  0  0  0  0  0
  -18.4837  -29.6227   20.5491 C   0  0  0  0  0  0  0  0  0  0  0  0
  -30.2895  -11.3577   19.2107 C   0  0  0  0  0  0  0  0  0  0  0  0
  -19.3911  -28.5682   21.1749 C   0  0  0  0  0  0  0  0  0  0  0  0
  -28.8026  -11.0014   19.1449 C   0  0  0  0  0  0  0  0  0  0  0  0
  -30.5888  -12.3348   20.3463 C   0  0  0  0  0  0  0  0  0  0  0  0
  -28.2818  -13.1966   20.2837 C   0  0  0  0  0  0  0  0  0  0  0  0
  -20.0262  -29.0859   22.4711 C   0  0  1  0  0  0  0  0  0  0  0  0
  -23.3837  -30.6491   21.6246 C   0  0  1  0  0  0  0  0  0  0  0  0
  -27.9211  -12.2654   19.1148 C   0  0  2  0  0  0  0  0  0  0  0  0
  -31.8343  -20.0127   19.5630 C   0  0  0  0  0  0  0  0  0  0  0  0
  -25.9367  -33.2498   14.7893 C   0  0  0  0  0  0  0  0  0  0  0  0
  -21.6651  -29.0650   17.6375 C   0  0  0  0  0  0  0  0  0  0  0  0
  -22.8198  -29.8734   15.5683 C   0  0  0  0  0  0  0  0  0  0  0  0
  -21.3334  -31.4147   16.8480 C   0  0  0  0  0  0  0  0  0  0  0  0
  -27.6990  -33.5750   18.1456 C   0  0  0  0  0  0  0  0  0  0  0  0
  -28.1265  -25.6392   20.8997 C   0  0  0  0  0  0  0  0  0  1  0  0
  -23.5851  -30.7828   17.8085 C   0  0  1  0  0  0  0  0  0  0  0  0
  -26.0405  -33.2494   16.3065 C   0  0  2  0  0  0  0  0  0  0  0  0
  -22.3659  -30.2750   16.9880 C   0  0  0  0  0  0  0  0  0  0  0  0
  -26.0273  -10.8122   19.7340 N   0  0  0  0  0  0  0  0  0  0  0  0
  -30.8182  -17.7961   19.8110 N   0  0  0  0  0  0  0  0  0  0  0  0
  -26.4437  -11.9201   19.0974 N   0  0  0  0  0  0  0  0  0  0  0  0
  -23.8486  -30.4645   20.2484 N   0  0  0  0  0  0  0  0  0  0  0  0
  -29.7191  -13.5093   20.2506 N   0  0  0  0  0  0  0  0  0  0  0  0
  -25.6835  -13.7575   17.8102 N   0  0  0  0  0  0  0  0  0  0  0  0
  -21.8978  -11.4493   18.6686 N   0  0  0  0  0  0  0  0  0  0  0  0
  -29.3679  -15.8306   20.0262 N   0  0  0  0  0  0  0  0  0  0  0  0
  -21.1228  -29.9822   22.1738 N   0  0  0  0  0  0  0  0  0  0  0  0
  -24.2517  -31.9449   17.2311 N   0  0  0  0  0  0  0  0  0  0  0  0
  -27.4567  -33.5239   16.6808 N   0  3  0  0  0  0  0  0  0  0  0  0
  -22.7534  -13.2967   17.6133 O   0  0  0  0  0  0  0  0  0  0  0  0
  -28.0281  -21.1789   18.4992 O   0  0  0  0  0  0  0  0  0  0  0  0
  -29.4945  -24.2225   22.2809 O   0  0  0  0  0  0  0  0  0  0  0  0
  -22.7879  -28.3796   21.8879 O   0  0  0  0  0  0  0  0  0  0  0  0
  -22.3835  -32.0675   19.3998 O   0  0  0  0  0  0  0  0  0  0  0  0
  -26.3429  -30.9635   17.0281 O   0  0  0  0  0  0  0  0  0  0  0  0
  -31.5154  -14.9592   20.1283 O   0  0  0  0  0  0  0  0  0  0  0  0
  -29.8930  -21.5825   21.5424 O   0  0  0  0  0  0  0  0  0  0  0  0
  -21.5118   -6.7305   21.6045 O   0  0  0  0  0  0  0  0  0  0  0  0
  -28.4156  -26.6470   21.8677 O   0  0  0  0  0  0  0  0  0  1  0  0
  -22.3771   -5.2181   26.8359 F   0  0  0  0  0  0  0  0  0  0  0  0
  -23.9689   -5.7528   22.4104 F   0  0  0  0  0  0  0  0  0  0  0  0
  -28.2720  -18.2388   19.7525 S   0  0  0  0  0  0  0  0  0  0  0  0
  1  2  1  0  0  0  0
  1  5  2  0  0  0  0
  2  6  2  0  0  0  0
  3  8  2  0  0  0  0
  3 15  1  0  0  0  0
  4  9  1  0  0  0  0
  4 15  2  0  0  0  0
  5 17  1  0  0  0  0
  6 19  1  0  0  0  0
  7 10  2  0  0  0  0
  7 18  1  0  0  0  0
  8 21  1  0  0  0  0
  9 21  2  0  0  0  0
 10 22  1  0  0  0  0
 11 12  2  0  0  0  0
 11 23  1  0  0  0  0
 12 24  1  0  0  0  0
 13 20  1  0  0  0  0
 13 22  2  0  0  0  0
 14 24  2  0  0  0  0
 14 25  1  0  0  0  0
 15 26  1  0  0  0  0
 16 26  1  0  0  0  0
 16 29  2  0  0  0  0
 16 32  1  0  0  0  0
 17 19  2  0  0  0  0
 17 40  1  0  0  0  0
 18 20  2  0  0  0  0
 18 41  1  0  0  0  0
 19 49  1  0  0  0  0
 20 42  1  0  0  0  0
 21 81  1  0  0  0  0
 22 82  1  0  0  0  0
 23 25  2  0  0  0  0
 23 81  1  0  0  0  0
 24 83  1  0  0  0  0
 25 84  1  0  0  0  0
 26 62  2  0  0  0  0
 27 28  2  0  0  0  0
 27 33  1  0  0  0  0
 27 85  1  0  0  0  0
 28 52  1  0  0  0  0
 28 63  1  0  0  0  0
 29 64  1  0  0  0  0
 29 67  1  0  0  0  0
 30 63  2  0  0  0  0
 30 69  1  0  0  0  0
 30 85  1  0  0  0  0
 31 34  2  0  0  0  0
 31 35  1  0  0  0  0
 32 68  1  0  0  0  0
 32 73  2  0  0  0  0
 33 34  1  0  0  0  0
 33 74  2  0  0  0  0
 34 80  1  0  0  0  0
 35 58  1  0  0  0  0
 35 75  2  0  0  0  0
 36 50  1  0  0  0  0
 36 70  1  0  0  0  0
 36 76  2  0  0  0  0
 37 59  1  0  0  0  0
 37 65  1  0  0  0  0
 37 77  2  0  0  0  0
 38 60  1  0  0  0  0
 38 71  1  0  0  0  0
 38 78  2  0  0  0  0
 39 66  1  0  0  0  0
 39 69  1  0  0  0  0
 39 79  2  0  0  0  0
 40 43  1  0  0  0  0
 41 50  1  0  0  0  0
 42 65  1  0  0  0  0
 43 45  1  0  0  0  0
 44 46  1  0  0  0  0
 44 47  1  0  0  0  0
 45 49  1  0  0  0  0
 46 51  1  0  0  0  0
 47 66  1  0  0  0  0
 48 51  1  0  0  0  0
 48 66  1  0  0  0  0
 49 70  1  0  0  0  0
 50 65  1  0  0  0  0
 51 64  1  0  0  0  0
 53 60  1  0  0  0  0
 54 61  1  0  0  0  0
 55 61  1  0  0  0  0
 56 61  1  0  0  0  0
 57 72  1  0  0  0  0
 58 82  1  0  0  0  0
 59 61  1  0  0  0  0
 59 71  1  0  0  0  0
 60 72  1  0  0  0  0
 62 64  1  0  0  0  0
M  CHG  1  72   1
M  ISO  4  39 100  58 101  69 100  82 101
M  END
> <Batch ID>
0175

> <Smiles>
CNC(C)C(=O)NC(C(=O)N1Cc2cc([101O:1][101CH2:1]C(=O)CC(=O)C(=O)c3sc([100NH:0][100C:0](=O)N4CCCC(n5nc(-c6ccc(Oc7ccc(F)cc7F)cc6)c(C(N)=O)c5N)C4)nc3C)ccc2CC1C(=O)NC1CCCc2ccccc21)C(C)(C)C

> <Shape>
0.286

> <Color>
0.121

> <Negative vol penalty>
0.000

$$$$

  -OEChem-04052304353D

 87 95  0     1  0  0  0  0  0999 V2000
  -16.5870  -30.0036   24.3367 C   0  0  0  0  0  0  0  0  0  0  0  0
  -17.5479  -29.1966   24.9374 C   0  0  0  0  0  0  0  0  0  0  0  0
  -24.5293   -9.4523   21.4060 C   0  0  0  0  0  0  0  0  0  0  0  0
  -24.8768  -10.5176   23.5464 C   0  0  0  0  0  0  0  0  0  0  0  0
  -16.8580  -30.6157   23.1137 C   0  0  0  0  0  0  0  0  0  0  0  0
  -18.7801  -29.0003   24.3147 C   0  0  0  0  0  0  0  0  0  0  0  0
  -24.2182  -28.3165   27.0470 C   0  0  0  0  0  0  0  0  0  0  0  0
  -24.2172   -8.2561   22.0520 C   0  0  0  0  0  0  0  0  0  0  0  0
  -24.5646   -9.3214   24.1924 C   0  0  0  0  0  0  0  0  0  0  0  0
  -24.9747  -27.1884   27.3613 C   0  0  0  0  0  0  0  0  0  0  0  0
  -22.9775   -5.0187   23.1463 C   0  0  0  0  0  0  0  0  0  0  0  0
  -21.8660   -4.3081   22.6935 C   0  0  0  0  0  0  0  0  0  0  0  0
  -26.2374  -27.4756   25.3260 C   0  0  0  0  0  0  0  0  0  0  0  0
  -20.4501   -6.1983   23.2028 C   0  0  0  0  0  0  0  0  0  0  0  0
  -24.8592  -10.5830   22.1532 C   0  0  0  0  0  0  0  0  0  0  0  0
  -24.2913  -12.8454   21.1204 C   0  0  0  0  0  0  0  0  0  0  0  0
  -18.0977  -30.4345   22.4804 C   0  0  0  0  0  0  0  0  0  0  0  0
  -24.4587  -29.0275   25.8625 C   0  0  0  0  0  0  0  0  0  0  0  0
  -19.0674  -29.6094   23.0814 C   0  0  0  0  0  0  0  0  0  0  0  0
  -25.4842  -28.6139   25.0002 C   0  0  0  0  0  0  0  0  0  0  0  0
  -24.2348   -8.1907   23.4452 C   0  0  0  0  0  0  0  0  0  0  0  0
  -25.9826  -26.7661   26.4993 C   0  0  0  0  0  0  0  0  0  0  0  0
  -22.8254   -6.3191   23.6274 C   0  0  0  0  0  0  0  0  0  0  0  0
  -20.6023   -4.8978   22.7217 C   0  0  0  0  0  0  0  0  0  0  0  0
  -21.5616   -6.9089   23.6557 C   0  0  0  0  0  0  0  0  0  0  0  0
  -25.1823  -11.8188   21.4865 C   0  0  0  0  0  0  0  0  0  0  0  0
  -28.1380  -20.2126   21.3646 C   0  0  0  0  0  0  0  0  0  0  0  0
  -27.0115  -20.6037   20.6716 C   0  0  0  0  0  0  0  0  0  0  0  0
  -25.0858  -13.7921   20.5212 C   0  0  0  0  0  0  0  0  0  0  0  0
  -27.3276  -21.6320   22.8269 C   0  0  0  0  0  0  0  0  0  0  0  0
  -22.8724  -12.9353   21.3055 C   0  0  0  0  0  0  0  0  0  0  0  0
  -27.3694  -23.4588   26.1162 C   0  0  0  0  0  0  0  0  0  0  0  0
  -27.9256  -22.5211   25.0840 C   0  0  0  0  0  0  0  0  0  0  0  0
  -22.7570  -29.6952   23.2621 C   0  0  0  0  0  0  0  0  0  0  0  0
  -29.7751  -16.8417   20.5053 C   0  0  0  0  0  0  0  0  0  0  0  0
  -25.3332  -31.5212   22.5197 C   0  0  0  0  0  0  0  0  0  0  0  0
  -28.6684  -32.1247   22.9186 C   0  0  0  0  0  0  0  0  0  0  0  0
  -18.3271  -31.0787   21.1361 C   0  0  0  0  0  0  0  0  0  0  0  0
  -23.6516  -30.2579   25.5511 C   0  0  0  0  0  0  0  0  0  0  0  0
  -25.7958  -29.3542   23.7262 C   0  0  0  0  0  0  0  0  0  0  0  0
  -19.7963  -31.1213   20.7239 C   0  0  0  0  0  0  0  0  0  0  0  0
  -29.9020  -13.5858   19.0144 C   0  0  0  0  0  0  0  0  0  0  0  0
  -20.4572  -29.7673   20.9626 C   0  0  0  0  0  0  0  0  0  0  0  0
  -28.6276  -12.9100   19.5190 C   0  0  0  0  0  0  0  0  0  0  0  0
  -30.4947  -14.5169   20.0674 C   0  0  0  0  0  0  0  0  0  0  0  0
  -28.2646  -14.8763   21.0769 C   0  0  0  0  0  0  0  0  0  0  0  0
  -20.4250  -29.3922   22.4491 C   0  0  1  0  0  0  0  0  0  0  0  0
  -23.6417  -30.6059   24.0657 C   0  0  1  0  0  0  0  0  0  0  0  0
  -27.6164  -13.9503   20.0325 C   0  0  2  0  0  0  0  0  0  0  0  0
  -30.4972  -33.6634   22.1535 C   0  0  0  0  0  0  0  0  0  0  0  0
  -25.4447  -30.0552   19.8460 C   0  0  0  0  0  0  0  0  0  0  0  0
  -27.7742  -30.9225   19.5468 C   0  0  0  0  0  0  0  0  0  0  0  0
  -25.8622  -32.5169   19.7042 C   0  0  0  0  0  0  0  0  0  0  0  0
  -29.1685  -33.0880   25.6719 C   0  0  0  0  0  0  0  0  0  0  0  0
  -29.1463  -19.2358   20.9049 C   0  0  0  0  0  0  0  0  0  0  0  0
  -27.2322  -24.9030   25.7099 C   0  0  0  0  0  0  0  0  0  1  0  0
  -28.6973  -17.7669   21.0117 C   0  0  0  0  0  0  0  0  0  0  0  0
  -26.6284  -31.2918   21.7788 C   0  0  1  0  0  0  0  0  0  0  0  0
  -29.4330  -33.4037   23.2084 C   0  0  2  0  0  0  0  0  0  0  0  0
  -26.5169  -20.1839   19.3453 C   0  0  0  0  0  0  0  0  0  0  0  0
  -26.4205  -31.1813   20.2419 C   0  0  0  0  0  0  0  0  0  0  0  0
  -26.4461  -12.0879   21.1480 N   0  0  0  0  0  0  0  0  0  0  0  0
  -28.3211  -20.8015   22.6005 N   0  0  0  0  0  0  0  0  0  0  0  0
  -26.3549  -13.2943   20.5629 N   0  0  0  0  0  0  0  0  0  0  0  0
  -24.9747  -30.5475   23.4626 N   0  0  0  0  0  0  0  0  0  0  0  0
  -29.4968  -15.4754   20.5459 N   0  0  0  0  0  0  0  0  0  0  0  0
  -24.8157  -14.9935   19.9680 N   0  0  0  0  0  0  0  0  0  0  0  0
  -22.2128  -11.8739   21.9400 N   0  0  0  0  0  0  0  0  0  0  0  0
  -27.1201  -22.4407   23.9686 N   0  0  0  0  0  0  0  0  0  0  0  0
  -21.4443  -30.1184   23.1758 N   0  0  0  0  0  0  0  0  0  0  0  0
  -27.5267  -32.3674   22.1845 N   0  0  0  0  0  0  0  0  0  0  0  0
  -30.1004  -33.3182   24.5381 N   0  3  0  0  0  0  0  0  0  0  0  0
  -22.2067  -13.9202   20.9049 O   0  0  0  0  0  0  0  0  0  0  0  0
  -27.0883  -22.9931   27.2101 O   0  0  0  0  0  0  0  0  0  0  0  0
  -28.9671  -21.9525   25.3670 O   0  0  0  0  0  0  0  0  0  0  0  0
  -23.2305  -28.6844   22.7566 O   0  0  0  0  0  0  0  0  0  0  0  0
  -30.8309  -17.3212   20.0840 O   0  0  0  0  0  0  0  0  0  0  0  0
  -24.6677  -32.5308   22.2759 O   0  0  0  0  0  0  0  0  0  0  0  0
  -29.0480  -31.0203   23.3017 O   0  0  0  0  0  0  0  0  0  0  0  0
  -23.9300   -7.0237   24.0759 O   0  0  0  0  0  0  0  0  0  0  0  0
  -26.7222  -25.6649   26.8033 O   0  0  0  0  0  0  0  0  0  1  0  0
  -19.5352   -4.2158   22.2854 F   0  0  0  0  0  0  0  0  0  0  0  0
  -21.4094   -8.1583   24.1156 F   0  0  0  0  0  0  0  0  0  0  0  0
  -27.3119  -19.2602   18.7151 F   0  0  0  0  0  0  0  0  0  0  0  0
  -25.2725  -19.6067   19.3668 F   0  0  0  0  0  0  0  0  0  0  0  0
  -26.4091  -21.2214   18.4560 F   0  0  0  0  0  0  0  0  0  0  0  0
  -26.1377  -21.7538   21.5963 S   0  0  0  0  0  0  0  0  0  0  0  0
  1  2  1  0  0  0  0
  1  5  2  0  0  0  0
  2  6  2  0  0  0  0
  3  8  2  0  0  0  0
  3 15  1  0  0  0  0
  4  9  1  0  0  0  0
  4 15  2  0  0  0  0
  5 17  1  0  0  0  0
  6 19  1  0  0  0  0
  7 10  2  0  0  0  0
  7 18  1  0  0  0  0
  8 21  1  0  0  0  0
  9 21  2  0  0  0  0
 10 22  1  0  0  0  0
 11 12  2  0  0  0  0
 11 23  1  0  0  0  0
 12 24  1  0  0  0  0
 13 20  1  0  0  0  0
 13 22  2  0  0  0  0
 14 24  2  0  0  0  0
 14 25  1  0  0  0  0
 15 26  1  0  0  0  0
 16 26  1  0  0  0  0
 16 29  2  0  0  0  0
 16 31  1  0  0  0  0
 17 19  2  0  0  0  0
 17 38  1  0  0  0  0
 18 20  2  0  0  0  0
 18 39  1  0  0  0  0
 19 47  1  0  0  0  0
 20 40  1  0  0  0  0
 21 80  1  0  0  0  0
 22 81  1  0  0  0  0
 23 25  2  0  0  0  0
 23 80  1  0  0  0  0
 24 82  1  0  0  0  0
 25 83  1  0  0  0  0
 26 62  2  0  0  0  0
 27 28  2  0  0  0  0
 27 55  1  0  0  0  0
 27 63  1  0  0  0  0
 28 60  1  0  0  0  0
 28 87  1  0  0  0  0
 29 64  1  0  0  0  0
 29 67  1  0  0  0  0
 30 63  2  0  0  0  0
 30 69  1  0  0  0  0
 30 87  1  0  0  0  0
 31 68  1  0  0  0  0
 31 73  2  0  0  0  0
 32 33  1  0  0  0  0
 32 56  1  0  0  0  0
 32 74  2  0  0  0  0
 33 69  1  0  0  0  0
 33 75  2  0  0  0  0
 34 48  1  0  0  0  0
 34 70  1  0  0  0  0
 34 76  2  0  0  0  0
 35 57  1  0  0  0  0
 35 66  1  0  0  0  0
 35 77  2  0  0  0  0
 36 58  1  0  0  0  0
 36 65  1  0  0  0  0
 36 78  2  0  0  0  0
 37 59  1  0  0  0  0
 37 71  1  0  0  0  0
 37 79  2  0  0  0  0
 38 41  1  0  0  0  0
 39 48  1  0  0  0  0
 40 65  1  0  0  0  0
 41 43  1  0  0  0  0
 42 44  1  0  0  0  0
 42 45  1  0  0  0  0
 43 47  1  0  0  0  0
 44 49  1  0  0  0  0
 45 66  1  0  0  0  0
 46 49  1  0  0  0  0
 46 66  1  0  0  0  0
 47 70  1  0  0  0  0
 48 65  1  0  0  0  0
 49 64  1  0  0  0  0
 50 59  1  0  0  0  0
 51 61  1  0  0  0  0
 52 61  1  0  0  0  0
 53 61  1  0  0  0  0
 54 72  1  0  0  0  0
 55 57  1  0  0  0  0
 56 81  1  0  0  0  0
 58 61  1  0  0  0  0
 58 71  1  0  0  0  0
 59 72  1  0  0  0  0
 60 84  1  0  0  0  0
 60 85  1  0  0  0  0
 60 86  1  0  0  0  0
 62 64  1  0  0  0  0
M  CHG  1  72   1
M  ISO  4  35 100  56 101  57 100  81 101
M  END
> <Batch ID>
0175

> <Smiles>
CNC(C)C(=O)NC(C(=O)N1Cc2cc([101O:1][101CH2:1]C(=O)C(=O)Nc3nc(C[100CH2:0][100C:0](=O)N4CCCC(n5nc(-c6ccc(Oc7ccc(F)cc7F)cc6)c(C(N)=O)c5N)C4)c(C(F)(F)F)s3)ccc2CC1C(=O)NC1CCCc2ccccc21)C(C)(C)C

> <Shape>
0.268

> <Color>
0.134

> <Negative vol penalty>
0.000

$$$$

  -OEChem-04052304353D

 87 95  0     1  0  0  0  0  0999 V2000
  -27.8263  -13.7489   22.0795 C   0  0  0  0  0  0  0  0  0  0  0  0
  -28.2359  -14.9574   22.6337 C   0  0  0  0  0  0  0  0  0  0  0  0
  -22.2116  -17.7824   23.0518 C   0  0  0  0  0  0  0  0  0  0  0  0
  -23.8249  -18.1853   21.2991 C   0  0  0  0  0  0  0  0  0  0  0  0
  -27.8754  -13.5644   20.6984 C   0  0  0  0  0  0  0  0  0  0  0  0
  -28.6960  -15.9818   21.8071 C   0  0  0  0  0  0  0  0  0  0  0  0
  -28.8247  -23.1274   21.3166 C   0  0  0  0  0  0  0  0  0  0  0  0
  -21.9148  -16.5393   22.4930 C   0  0  0  0  0  0  0  0  0  0  0  0
  -23.5282  -16.9421   20.7403 C   0  0  0  0  0  0  0  0  0  0  0  0
  -29.7217  -24.1781   21.1291 C   0  0  0  0  0  0  0  0  0  0  0  0
  -20.9926  -13.1063   21.7319 C   0  0  0  0  0  0  0  0  0  0  0  0
  -20.8929  -12.0147   22.5945 C   0  0  0  0  0  0  0  0  0  0  0  0
  -29.6877  -23.7747   18.7510 C   0  0  0  0  0  0  0  0  0  0  0  0
  -24.6911  -29.0526   19.7895 C   0  0  0  0  0  0  0  0  0  0  0  0
  -25.4881  -30.5415   21.5171 C   0  0  0  0  0  0  0  0  0  0  0  0
  -23.2108  -29.7369   21.5720 C   0  0  0  0  0  0  0  0  0  0  0  0
  -23.1817  -12.3546   23.2893 C   0  0  0  0  0  0  0  0  0  0  0  0
  -23.1666  -18.6054   22.4549 C   0  0  0  0  0  0  0  0  0  0  0  0
  -24.4543  -20.1747   23.9998 C   0  0  0  0  0  0  0  0  0  0  0  0
  -28.3272  -14.5905   19.8537 C   0  0  0  0  0  0  0  0  0  0  0  0
  -28.3602  -22.3841   20.2220 C   0  0  0  0  0  0  0  0  0  0  0  0
  -28.7524  -15.8104   20.4134 C   0  0  0  0  0  0  0  0  0  0  0  0
  -28.7829  -22.7166   18.9270 C   0  0  0  0  0  0  0  0  0  0  0  0
  -25.7159  -29.8172   20.3470 C   0  0  0  0  0  0  0  0  0  0  0  0
  -23.4385  -29.0125   20.4019 C   0  0  0  0  0  0  0  0  0  0  0  0
  -22.5732  -16.1192   21.3372 C   0  0  0  0  0  0  0  0  0  0  0  0
  -30.1556  -24.5001   19.8464 C   0  0  0  0  0  0  0  0  0  0  0  0
  -22.1869  -13.8221   21.6480 C   0  0  0  0  0  0  0  0  0  0  0  0
  -21.9874  -11.6388   23.3731 C   0  0  0  0  0  0  0  0  0  0  0  0
  -24.2356  -30.5014   22.1296 C   0  0  0  0  0  0  0  0  0  0  0  0
  -23.2814  -13.4463   22.4267 C   0  0  0  0  0  0  0  0  0  0  0  0
  -23.4731  -19.8899   23.0313 C   0  0  0  0  0  0  0  0  0  0  0  0
  -24.3465  -21.5276   24.2103 C   0  0  0  0  0  0  0  0  0  0  0  0
  -25.3806  -19.2949   24.6508 C   0  0  0  0  0  0  0  0  0  0  0  0
  -28.5558  -19.3385   19.3333 C   0  0  0  0  0  0  0  0  0  0  0  0
  -26.5490  -20.3031   16.9744 C   0  0  0  0  0  0  0  0  0  0  0  0
  -29.0432  -28.6329   20.5542 C   0  0  0  0  0  0  0  0  0  0  0  0
  -25.3492  -22.8577   15.0557 C   0  0  0  0  0  0  0  0  0  0  0  0
  -22.4051  -25.9035   20.7551 C   0  0  0  0  0  0  0  0  0  0  0  0
  -28.4068  -14.3277   18.3707 C   0  0  0  0  0  0  0  0  0  0  0  0
  -27.3722  -21.2708   20.4384 C   0  0  0  0  0  0  0  0  0  0  0  0
  -28.2984  -21.9627   17.7166 C   0  0  0  0  0  0  0  0  0  0  0  0
  -28.5540  -15.5962   17.5343 C   0  0  0  0  0  0  0  0  0  0  0  0
  -21.1639  -25.0991   24.0581 C   0  0  0  0  0  0  0  0  0  0  0  0
  -29.6200  -16.5090   18.1320 C   0  0  0  0  0  0  0  0  0  0  0  0
  -21.7175  -23.6868   24.2555 C   0  0  0  0  0  0  0  0  0  0  0  0
  -20.7297  -25.3258   22.6130 C   0  0  0  0  0  0  0  0  0  0  0  0
  -22.3482  -23.6557   21.7976 C   0  0  0  0  0  0  0  0  0  0  0  0
  -29.2343  -16.9543   19.5478 C   0  0  1  0  0  0  0  0  0  0  0  0
  -27.3627  -20.2514   19.3035 C   0  0  1  0  0  0  0  0  0  0  0  0
  -22.8256  -23.3714   23.2333 C   0  0  2  0  0  0  0  0  0  0  0  0
  -23.7431  -23.3312   13.1866 C   0  0  0  0  0  0  0  0  0  0  0  0
  -28.5259  -19.1136   14.9776 C   0  0  0  0  0  0  0  0  0  0  0  0
  -27.3848  -20.4226   13.1741 C   0  0  0  0  0  0  0  0  0  0  0  0
  -26.1201  -18.6874   14.4438 C   0  0  0  0  0  0  0  0  0  0  0  0
  -31.6443  -27.7990   19.2647 C   0  0  0  0  0  0  0  0  0  0  0  0
  -29.6488  -26.7666   18.1614 C   0  0  0  0  0  0  0  0  0  0  0  0
  -23.7414  -24.6809   16.7439 C   0  0  0  0  0  0  0  0  0  0  0  0
  -27.0640  -29.8609   19.6875 C   0  0  0  0  0  0  0  0  0  0  0  0
  -22.3425  -28.1953   19.8059 C   0  0  0  0  0  0  0  0  0  0  0  0
  -29.6381  -27.2391   20.6668 C   0  0  0  0  0  0  0  0  0  0  0  0
  -26.7250  -20.8619   15.5830 C   0  0  1  0  0  0  0  0  0  0  0  0
  -23.9326  -23.2665   14.6941 C   0  0  2  0  0  0  0  0  0  0  0  0
  -27.1997  -19.7845   14.5674 C   0  0  0  0  0  0  0  0  0  0  0  0
  -30.4774  -26.8221   19.4459 C   0  0  0  0  0  0  0  0  0  1  0  0
  -22.7919  -20.9747   22.6530 N   0  0  0  0  0  0  0  0  0  0  0  0
  -23.3459  -21.9543   23.3875 N   0  0  0  0  0  0  0  0  0  0  0  0
  -27.3379  -20.8785   17.9805 N   0  0  0  0  0  0  0  0  0  0  0  0
  -21.8354  -25.0258   21.6924 N   0  0  0  0  0  0  0  0  0  0  0  0
  -25.0108  -22.3820   25.0172 N   0  0  0  0  0  0  0  0  0  0  0  0
  -25.3567  -17.9339   24.3170 N   0  0  0  0  0  0  0  0  0  0  0  0
  -28.2386  -18.0032   19.4940 N   0  0  0  0  0  0  0  0  0  0  0  0
  -27.8162  -28.6487   19.9142 N   0  0  0  0  0  0  0  0  0  0  0  0
  -25.4577  -21.4948   15.2340 N   0  0  0  0  0  0  0  0  0  0  0  0
  -21.8576  -27.1799   20.7142 N   0  0  0  0  0  0  0  0  0  0  0  0
  -23.6184  -24.6067   15.2653 N   0  3  0  0  0  0  0  0  0  0  0  0
  -26.1939  -19.7008   25.5152 O   0  0  0  0  0  0  0  0  0  0  0  0
  -29.6807  -19.8105   19.2176 O   0  0  0  0  0  0  0  0  0  0  0  0
  -25.7361  -19.3946   17.1629 O   0  0  0  0  0  0  0  0  0  0  0  0
  -29.6290  -29.6191   20.9966 O   0  0  0  0  0  0  0  0  0  0  0  0
  -26.2684  -23.6662   15.1652 O   0  0  0  0  0  0  0  0  0  0  0  0
  -23.3371  -25.5755   20.0128 O   0  0  0  0  0  0  0  0  0  0  0  0
  -22.2840  -14.9061   20.7918 O   0  0  0  0  0  0  0  0  0  0  0  0
  -31.0315  -25.5248   19.6606 O   0  0  0  0  0  0  0  0  0  1  0  0
  -21.8911  -10.5915   24.2025 F   0  0  0  0  0  0  0  0  0  0  0  0
  -24.0168  -31.1979   23.2525 F   0  0  0  0  0  0  0  0  0  0  0  0
  -24.4310  -14.1308   22.3513 F   0  0  0  0  0  0  0  0  0  0  0  0
  1  2  1  0  0  0  0
  1  5  2  0  0  0  0
  2  6  2  0  0  0  0
  3  8  2  0  0  0  0
  3 18  1  0  0  0  0
  4  9  1  0  0  0  0
  4 18  2  0  0  0  0
  5 20  1  0  0  0  0
  6 22  1  0  0  0  0
  7 10  2  0  0  0  0
  7 21  1  0  0  0  0
  8 26  1  0  0  0  0
  9 26  2  0  0  0  0
 10 27  1  0  0  0  0
 11 12  2  0  0  0  0
 11 28  1  0  0  0  0
 12 29  1  0  0  0  0
 13 23  1  0  0  0  0
 13 27  2  0  0  0  0
 14 24  2  0  0  0  0
 14 25  1  0  0  0  0
 15 24  1  0  0  0  0
 15 30  2  0  0  0  0
 16 25  2  0  0  0  0
 16 30  1  0  0  0  0
 17 29  2  0  0  0  0
 17 31  1  0  0  0  0
 18 32  1  0  0  0  0
 19 32  1  0  0  0  0
 19 33  2  0  0  0  0
 19 34  1  0  0  0  0
 20 22  2  0  0  0  0
 20 40  1  0  0  0  0
 21 23  2  0  0  0  0
 21 41  1  0  0  0  0
 22 49  1  0  0  0  0
 23 42  1  0  0  0  0
 24 59  1  0  0  0  0
 25 60  1  0  0  0  0
 26 83  1  0  0  0  0
 27 84  1  0  0  0  0
 28 31  2  0  0  0  0
 28 83  1  0  0  0  0
 29 85  1  0  0  0  0
 30 86  1  0  0  0  0
 31 87  1  0  0  0  0
 32 66  2  0  0  0  0
 33 67  1  0  0  0  0
 33 70  1  0  0  0  0
 34 71  1  0  0  0  0
 34 77  2  0  0  0  0
 35 50  1  0  0  0  0
 35 72  1  0  0  0  0
 35 78  2  0  0  0  0
 36 62  1  0  0  0  0
 36 68  1  0  0  0  0
 36 79  2  0  0  0  0
 37 61  1  0  0  0  0
 37 73  1  0  0  0  0
 37 80  2  0  0  0  0
 38 63  1  0  0  0  0
 38 74  1  0  0  0  0
 38 81  2  0  0  0  0
 39 69  1  0  0  0  0
 39 75  1  0  0  0  0
 39 82  2  0  0  0  0
 40 43  1  0  0  0  0
 41 50  1  0  0  0  0
 42 68  1  0  0  0  0
 43 45  1  0  0  0  0
 44 46  1  0  0  0  0
 44 47  1  0  0  0  0
 45 49  1  0  0  0  0
 46 51  1  0  0  0  0
 47 69  1  0  0  0  0
 48 51  1  0  0  0  0
 48 69  1  0  0  0  0
 49 72  1  0  0  0  0
 50 68  1  0  0  0  0
 51 67  1  0  0  0  0
 52 63  1  0  0  0  0
 53 64  1  0  0  0  0
 54 64  1  0  0  0  0
 55 64  1  0  0  0  0
 56 65  1  0  0  0  0
 57 65  1  0  0  0  0
 58 76  1  0  0  0  0
 59 73  1  0  0  0  0
 60 75  1  0  0  0  0
 61 65  1  0  0  0  0
 62 64  1  0  0  0  0
 62 74  1  0  0  0  0
 63 76  1  0  0  0  0
 65 84  1  0  0  0  0
 66 67  1  0  0  0  0
M  CHG  1  76   1
M  ISO  4  39 100  65 101  75 100  84 101
M  END
> <Batch ID>
0175

> <Smiles>
CNC(C)C(=O)NC(C(=O)N1Cc2cc([101O:1][101C:1](C)(C)CC(=O)NCc3cc(F)cc(C[100NH:0][100C:0](=O)N4CCCC(n5nc(-c6ccc(Oc7ccc(F)cc7F)cc6)c(C(N)=O)c5N)C4)c3)ccc2CC1C(=O)NC1CCCc2ccccc21)C(C)(C)C

> <Shape>
0.201

> <Color>
0.054

> <Negative vol penalty>
0.000

$$$$

  -OEChem-04052304353D

 89 97  0     1  0  0  0  0  0999 V2000
  -35.5862  -31.8117   19.1611 C   0  0  0  0  0  0  0  0  0  0  0  0
  -34.4274  -31.0426   19.1951 C   0  0  0  0  0  0  0  0  0  0  0  0
  -24.5872   -9.6339   21.6757 C   0  0  0  0  0  0  0  0  0  0  0  0
  -24.7557  -10.9057   23.7230 C   0  0  0  0  0  0  0  0  0  0  0  0
  -35.8746  -32.6825   20.2111 C   0  0  0  0  0  0  0  0  0  0  0  0
  -33.5568  -31.1432   20.2798 C   0  0  0  0  0  0  0  0  0  0  0  0
  -28.7051  -31.4269   18.8567 C   0  0  0  0  0  0  0  0  0  0  0  0
  -24.2722   -8.4915   22.4114 C   0  0  0  0  0  0  0  0  0  0  0  0
  -24.4406   -9.7633   24.4586 C   0  0  0  0  0  0  0  0  0  0  0  0
  -28.0825  -30.2388   18.4764 C   0  0  0  0  0  0  0  0  0  0  0  0
  -21.5622   -7.1988   23.9663 C   0  0  0  0  0  0  0  0  0  0  0  0
  -20.5049   -6.4086   23.5154 C   0  0  0  0  0  0  0  0  0  0  0  0
  -27.1066  -21.3309   20.4846 C   0  0  0  0  0  0  0  0  0  0  0  0
  -27.0512  -30.0898   20.6520 C   0  0  0  0  0  0  0  0  0  0  0  0
  -22.0087   -4.5327   23.2769 C   0  0  0  0  0  0  0  0  0  0  0  0
  -24.8291  -10.8411   22.3315 C   0  0  0  0  0  0  0  0  0  0  0  0
  -27.1941  -19.9564   20.6757 C   0  0  0  0  0  0  0  0  0  0  0  0
  -24.2573  -12.9741   21.0545 C   0  0  0  0  0  0  0  0  0  0  0  0
  -35.0022  -32.8009   21.3045 C   0  0  0  0  0  0  0  0  0  0  0  0
  -28.5136  -31.9505   20.1434 C   0  0  0  0  0  0  0  0  0  0  0  0
  -33.8345  -32.0154   21.3460 C   0  0  0  0  0  0  0  0  0  0  0  0
  -27.6703  -31.2861   21.0453 C   0  0  0  0  0  0  0  0  0  0  0  0
  -28.1978  -22.0275   19.9775 C   0  0  0  0  0  0  0  0  0  0  0  0
  -24.1988   -8.5562   23.8028 C   0  0  0  0  0  0  0  0  0  0  0  0
  -27.2577  -29.5685   19.3751 C   0  0  0  0  0  0  0  0  0  0  0  0
  -22.8427   -6.6560   24.0724 C   0  0  0  0  0  0  0  0  0  0  0  0
  -20.7281   -5.0755   23.1707 C   0  0  0  0  0  0  0  0  0  0  0  0
  -23.0660   -5.3230   23.7277 C   0  0  0  0  0  0  0  0  0  0  0  0
  -25.1551  -12.0214   21.5722 C   0  0  0  0  0  0  0  0  0  0  0  0
  -28.3856  -19.3305   20.3466 C   0  0  0  0  0  0  0  0  0  0  0  0
  -29.3445  -21.3089   19.6798 C   0  0  0  0  0  0  0  0  0  0  0  0
  -25.0585  -13.8915   20.4196 C   0  0  0  0  0  0  0  0  0  0  0  0
  -26.0458  -19.2353   21.2074 C   0  0  0  0  0  0  0  0  0  0  0  0
  -22.8270  -13.0253   21.1399 C   0  0  0  0  0  0  0  0  0  0  0  0
  -27.3596  -25.6846   19.6930 C   0  0  0  0  0  0  0  0  0  0  0  0
  -27.0634  -24.2529   20.0349 C   0  0  0  0  0  0  0  0  0  0  0  0
  -30.4100  -32.5704   22.6179 C   0  0  0  0  0  0  0  0  0  0  0  0
  -27.7125  -33.8760   23.8594 C   0  0  0  0  0  0  0  0  0  0  0  0
  -24.3020  -33.9959   23.8930 C   0  0  0  0  0  0  0  0  0  0  0  0
  -29.5922  -17.1204   20.2687 C   0  0  0  0  0  0  0  0  0  0  0  0
  -35.3801  -33.7209   22.4384 C   0  0  0  0  0  0  0  0  0  0  0  0
  -29.1711  -33.2472   20.5291 C   0  0  0  0  0  0  0  0  0  0  0  0
  -27.4159  -31.8172   22.4316 C   0  0  0  0  0  0  0  0  0  0  0  0
  -34.2176  -34.0448   23.3732 C   0  0  0  0  0  0  0  0  0  0  0  0
  -29.9853  -13.7253   19.2706 C   0  0  0  0  0  0  0  0  0  0  0  0
  -33.4569  -32.7742   23.7391 C   0  0  0  0  0  0  0  0  0  0  0  0
  -28.6899  -13.0577   19.7378 C   0  0  0  0  0  0  0  0  0  0  0  0
  -30.4607  -14.7922   20.2553 C   0  0  0  0  0  0  0  0  0  0  0  0
  -28.1621  -15.1388   21.0711 C   0  0  0  0  0  0  0  0  0  0  0  0
  -32.8529  -32.1147   22.4935 C   0  0  1  0  0  0  0  0  0  0  0  0
  -29.3138  -33.4190   22.0383 C   0  0  1  0  0  0  0  0  0  0  0  0
  -27.6091  -14.1022   20.0795 C   0  0  2  0  0  0  0  0  0  0  0  0
  -23.5857  -18.6775   20.8211 C   0  0  0  0  0  0  0  0  0  0  0  0
  -22.3821  -35.1332   25.0410 C   0  0  0  0  0  0  0  0  0  0  0  0
  -28.1378  -32.1122   26.3126 C   0  0  0  0  0  0  0  0  0  0  0  0
  -25.7636  -32.5667   26.9646 C   0  0  0  0  0  0  0  0  0  0  0  0
  -27.3975  -34.4462   26.8215 C   0  0  0  0  0  0  0  0  0  0  0  0
  -23.3371  -35.1806   21.3583 C   0  0  0  0  0  0  0  0  0  0  0  0
  -24.6402  -19.7701   20.9036 C   0  0  0  0  0  0  0  0  0  0  0  0
  -26.9856  -26.1329   18.2972 C   0  0  0  0  0  0  0  0  0  0  0  0
  -27.3276  -27.5945   18.0505 C   0  0  0  0  0  0  0  0  0  1  0  0
  -26.5634  -33.3643   24.6941 C   0  0  1  0  0  0  0  0  0  0  0  0
  -23.3348  -35.1654   23.8560 C   0  0  2  0  0  0  0  0  0  0  0  0
  -26.9717  -33.1111   26.1728 C   0  0  0  0  0  0  0  0  0  0  0  0
  -26.4291  -12.3070   21.2905 N   0  0  0  0  0  0  0  0  0  0  0  0
  -29.4669  -19.9736   19.8518 N   0  0  0  0  0  0  0  0  0  0  0  0
  -26.3376  -13.4495   20.5888 N   0  0  0  0  0  0  0  0  0  0  0  0
  -28.0864  -33.0851   22.7637 N   0  0  0  0  0  0  0  0  0  0  0  0
  -29.3860  -15.7489   20.5283 N   0  0  0  0  0  0  0  0  0  0  0  0
  -24.7865  -15.0249   19.7387 N   0  0  0  0  0  0  0  0  0  0  0  0
  -22.1618  -12.0023   21.8293 N   0  0  0  0  0  0  0  0  0  0  0  0
  -28.1344  -23.4257   19.7738 N   0  0  0  0  0  0  0  0  0  0  0  0
  -28.4888  -17.9300   20.5362 N   0  0  0  0  0  0  0  0  0  0  0  0
  -31.6579  -32.8177   22.0785 N   0  0  0  0  0  0  0  0  0  0  0  0
  -25.4793  -34.3268   24.5299 N   0  0  0  0  0  0  0  0  0  0  0  0
  -22.5282  -35.1311   22.6034 N   0  3  0  0  0  0  0  0  0  0  0  0
  -26.1554  -18.2079   21.8959 O   0  0  0  0  0  0  0  0  0  0  0  0
  -22.1575  -13.9421   20.6062 O   0  0  0  0  0  0  0  0  0  0  0  0
  -27.8653  -26.3749   20.5649 O   0  0  0  0  0  0  0  0  0  0  0  0
  -25.9629  -24.0204   20.5068 O   0  0  0  0  0  0  0  0  0  0  0  0
  -30.1436  -31.7529   23.4910 O   0  0  0  0  0  0  0  0  0  0  0  0
  -28.2536  -34.9419   24.1640 O   0  0  0  0  0  0  0  0  0  0  0  0
  -24.0380  -32.8976   23.4087 O   0  0  0  0  0  0  0  0  0  0  0  0
  -30.6592  -17.5417   19.8149 O   0  0  0  0  0  0  0  0  0  0  0  0
  -23.8912   -7.4416   24.5210 O   0  0  0  0  0  0  0  0  0  0  0  0
  -26.6494  -28.4083   19.0066 O   0  0  0  0  0  0  0  0  0  1  0  0
  -19.7124   -4.3164   22.7392 F   0  0  0  0  0  0  0  0  0  0  0  0
  -24.2938   -4.7956   23.8287 F   0  0  0  0  0  0  0  0  0  0  0  0
  -30.4121  -21.9594   19.1888 F   0  0  0  0  0  0  0  0  0  0  0  0
  1  2  1  0  0  0  0
  1  5  2  0  0  0  0
  2  6  2  0  0  0  0
  3  8  2  0  0  0  0
  3 16  1  0  0  0  0
  4  9  1  0  0  0  0
  4 16  2  0  0  0  0
  5 19  1  0  0  0  0
  6 21  1  0  0  0  0
  7 10  2  0  0  0  0
  7 20  1  0  0  0  0
  8 24  1  0  0  0  0
  9 24  2  0  0  0  0
 10 25  1  0  0  0  0
 11 12  2  0  0  0  0
 11 26  1  0  0  0  0
 12 27  1  0  0  0  0
 13 17  1  0  0  0  0
 13 23  2  0  0  0  0
 14 22  1  0  0  0  0
 14 25  2  0  0  0  0
 15 27  2  0  0  0  0
 15 28  1  0  0  0  0
 16 29  1  0  0  0  0
 17 30  2  0  0  0  0
 17 33  1  0  0  0  0
 18 29  1  0  0  0  0
 18 32  2  0  0  0  0
 18 34  1  0  0  0  0
 19 21  2  0  0  0  0
 19 41  1  0  0  0  0
 20 22  2  0  0  0  0
 20 42  1  0  0  0  0
 21 50  1  0  0  0  0
 22 43  1  0  0  0  0
 23 31  1  0  0  0  0
 23 72  1  0  0  0  0
 24 85  1  0  0  0  0
 25 86  1  0  0  0  0
 26 28  2  0  0  0  0
 26 85  1  0  0  0  0
 27 87  1  0  0  0  0
 28 88  1  0  0  0  0
 29 65  2  0  0  0  0
 30 66  1  0  0  0  0
 30 73  1  0  0  0  0
 31 66  2  0  0  0  0
 31 89  1  0  0  0  0
 32 67  1  0  0  0  0
 32 70  1  0  0  0  0
 33 59  1  0  0  0  0
 33 77  2  0  0  0  0
 34 71  1  0  0  0  0
 34 78  2  0  0  0  0
 35 36  1  0  0  0  0
 35 60  1  0  0  0  0
 35 79  2  0  0  0  0
 36 72  1  0  0  0  0
 36 80  2  0  0  0  0
 37 51  1  0  0  0  0
 37 74  1  0  0  0  0
 37 81  2  0  0  0  0
 38 62  1  0  0  0  0
 38 68  1  0  0  0  0
 38 82  2  0  0  0  0
 39 63  1  0  0  0  0
 39 75  1  0  0  0  0
 39 83  2  0  0  0  0
 40 69  1  0  0  0  0
 40 73  1  0  0  0  0
 40 84  2  0  0  0  0
 41 44  1  0  0  0  0
 42 51  1  0  0  0  0
 43 68  1  0  0  0  0
 44 46  1  0  0  0  0
 45 47  1  0  0  0  0
 45 48  1  0  0  0  0
 46 50  1  0  0  0  0
 47 52  1  0  0  0  0
 48 69  1  0  0  0  0
 49 52  1  0  0  0  0
 49 69  1  0  0  0  0
 50 74  1  0  0  0  0
 51 68  1  0  0  0  0
 52 67  1  0  0  0  0
 53 59  1  0  0  0  0
 54 63  1  0  0  0  0
 55 64  1  0  0  0  0
 56 64  1  0  0  0  0
 57 64  1  0  0  0  0
 58 76  1  0  0  0  0
 60 61  1  0  0  0  0
 61 86  1  0  0  0  0
 62 64  1  0  0  0  0
 62 75  1  0  0  0  0
 63 76  1  0  0  0  0
 65 67  1  0  0  0  0
M  CHG  1  76   1
M  ISO  4  40 100  61 101  73 100  86 101
M  END
> <Batch ID>
0175

> <Smiles>
CCC(=O)c1cc(NC(=O)C(=O)C[101CH2:1][101O:1]c2ccc3c(c2)CN(C(=O)C(NC(=O)C(C)NC)C(C)(C)C)C(C(=O)NC2CCCc4ccccc42)C3)c(F)nc1[100NH:0][100C:0](=O)N1CCCC(n2nc(-c3ccc(Oc4ccc(F)cc4F)cc3)c(C(N)=O)c2N)C1

> <Shape>
0.249

> <Color>
0.134

> <Negative vol penalty>
0.000

$$$$

  -OEChem-04052304353D

 83 91  0     1  0  0  0  0  0999 V2000
  -24.4427  -35.3923   20.9424 C   0  0  0  0  0  0  0  0  0  0  0  0
  -25.2554  -34.2677   21.0430 C   0  0  0  0  0  0  0  0  0  0  0  0
  -22.1345  -14.2654   21.0976 C   0  0  0  0  0  0  0  0  0  0  0  0
  -22.4515  -16.5905   20.5226 C   0  0  0  0  0  0  0  0  0  0  0  0
  -23.1752  -35.3891   21.5232 C   0  0  0  0  0  0  0  0  0  0  0  0
  -24.8015  -33.1395   21.7254 C   0  0  0  0  0  0  0  0  0  0  0  0
  -25.7531  -28.8413   19.2224 C   0  0  0  0  0  0  0  0  0  0  0  0
  -20.9860  -14.5995   21.8151 C   0  0  0  0  0  0  0  0  0  0  0  0
  -21.3029  -16.9245   21.2400 C   0  0  0  0  0  0  0  0  0  0  0  0
  -27.0545  -28.3447   19.2818 C   0  0  0  0  0  0  0  0  0  0  0  0
  -17.9572  -16.8037   20.7795 C   0  0  0  0  0  0  0  0  0  0  0  0
  -17.0566  -17.6865   20.1837 C   0  0  0  0  0  0  0  0  0  0  0  0
  -26.3703  -26.7715   20.9777 C   0  0  0  0  0  0  0  0  0  0  0  0
  -17.3512  -19.2271   22.0213 C   0  0  0  0  0  0  0  0  0  0  0  0
  -32.3218  -20.1226   19.8526 C   0  0  0  0  0  0  0  0  0  0  0  0
  -22.8674  -15.2610   20.4513 C   0  0  0  0  0  0  0  0  0  0  0  0
  -24.1354  -14.5690   18.3487 C   0  0  0  0  0  0  0  0  0  0  0  0
  -22.7017  -34.2569   22.2048 C   0  0  0  0  0  0  0  0  0  0  0  0
  -24.7513  -28.3133   20.0494 C   0  0  0  0  0  0  0  0  0  0  0  0
  -23.5270  -33.1217   22.3170 C   0  0  0  0  0  0  0  0  0  0  0  0
  -25.0564  -27.2615   20.9251 C   0  0  0  0  0  0  0  0  0  0  0  0
  -20.5702  -15.9290   21.8863 C   0  0  0  0  0  0  0  0  0  0  0  0
  -27.3639  -27.3116   20.1616 C   0  0  0  0  0  0  0  0  0  0  0  0
  -18.5548  -17.1325   21.9963 C   0  0  0  0  0  0  0  0  0  0  0  0
  -16.7536  -18.8983   20.8046 C   0  0  0  0  0  0  0  0  0  0  0  0
  -18.2518  -18.3442   22.6172 C   0  0  0  0  0  0  0  0  0  0  0  0
  -24.0542  -14.9167   19.7105 C   0  0  0  0  0  0  0  0  0  0  0  0
  -25.4714  -14.3344   18.1332 C   0  0  0  0  0  0  0  0  0  0  0  0
  -31.2640  -20.9100   19.4486 C   0  0  0  0  0  0  0  0  0  0  0  0
  -30.7086  -18.6564   20.0931 C   0  0  0  0  0  0  0  0  0  0  0  0
  -23.0960  -14.4673   17.3664 C   0  0  0  0  0  0  0  0  0  0  0  0
  -22.8958  -29.4812   22.3509 C   0  0  0  0  0  0  0  0  0  0  0  0
  -30.0139  -24.8579   19.9126 C   0  0  0  0  0  0  0  0  0  0  0  0
  -21.5193  -26.5481   22.1933 C   0  0  0  0  0  0  0  0  0  0  0  0
  -21.8114  -23.2516   21.3599 C   0  0  0  0  0  0  0  0  0  0  0  0
  -30.4417  -16.2628   20.8319 C   0  0  0  0  0  0  0  0  0  0  0  0
  -21.3431  -34.3176   22.8569 C   0  0  0  0  0  0  0  0  0  0  0  0
  -23.3464  -28.8419   19.9542 C   0  0  0  0  0  0  0  0  0  0  0  0
  -24.0125  -26.6462   21.8196 C   0  0  0  0  0  0  0  0  0  0  0  0
  -20.7899  -32.9475   23.2406 C   0  0  0  0  0  0  0  0  0  0  0  0
  -29.4306  -12.8765   20.3989 C   0  0  0  0  0  0  0  0  0  0  0  0
  -21.8585  -32.1191   23.9469 C   0  0  0  0  0  0  0  0  0  0  0  0
  -27.9459  -12.9841   20.0434 C   0  0  0  0  0  0  0  0  0  0  0  0
  -29.8445  -13.9258   21.4292 C   0  0  0  0  0  0  0  0  0  0  0  0
  -28.0151  -15.4172   20.7233 C   0  0  0  0  0  0  0  0  0  0  0  0
  -23.0603  -31.8698   23.0277 C   0  0  1  0  0  0  0  0  0  0  0  0
  -22.5220  -28.5774   21.2103 C   0  0  1  0  0  0  0  0  0  0  0  0
  -27.5657  -14.4224   19.6406 C   0  0  2  0  0  0  0  0  0  0  0  0
  -20.5314  -21.0933   21.3819 C   0  0  0  0  0  0  0  0  0  0  0  0
  -21.9804  -26.3081   25.1999 C   0  0  0  0  0  0  0  0  0  0  0  0
  -21.5802  -23.8452   24.9942 C   0  0  0  0  0  0  0  0  0  0  0  0
  -19.7653  -25.4548   24.4128 C   0  0  0  0  0  0  0  0  0  0  0  0
  -21.9682  -22.9943   18.4158 C   0  0  0  0  0  0  0  0  0  0  0  0
  -28.7867  -25.4516   20.5762 C   0  0  0  0  0  0  0  0  0  1  0  0
  -30.2701  -23.3986   20.2055 C   0  0  0  0  0  0  0  0  0  0  0  0
  -21.7542  -25.2192   22.8699 C   0  0  1  0  0  0  0  0  0  0  0  0
  -20.9003  -22.3271   20.5729 C   0  0  2  0  0  0  0  0  0  0  0  0
  -21.2903  -25.2195   24.3539 C   0  0  0  0  0  0  0  0  0  0  0  0
  -32.0052  -18.8301   20.2229 N   0  0  0  0  0  0  0  0  0  0  0  0
  -25.2440  -14.9051   20.3174 N   0  0  0  0  0  0  0  0  0  0  0  0
  -26.0854  -14.5472   19.3324 N   0  0  0  0  0  0  0  0  0  0  0  0
  -22.6549  -27.2018   21.6943 N   0  0  0  0  0  0  0  0  0  0  0  0
  -29.4560  -15.2639   20.9781 N   0  0  0  0  0  0  0  0  0  0  0  0
  -26.1692  -13.9689   17.0369 N   0  0  0  0  0  0  0  0  0  0  0  0
  -21.7784  -14.7427   17.7568 N   0  0  0  0  0  0  0  0  0  0  0  0
  -29.9591  -17.4852   20.3657 N   0  0  0  0  0  0  0  0  0  0  0  0
  -22.7572  -30.8272   22.0709 N   0  0  0  0  0  0  0  0  0  0  0  0
  -21.0972  -24.2162   22.0387 N   0  0  0  0  0  0  0  0  0  0  0  0
  -21.5714  -21.8832   19.3184 N   0  3  0  0  0  0  0  0  0  0  0  0
  -23.3266  -14.1259   16.1816 O   0  0  0  0  0  0  0  0  0  0  0  0
  -23.2801  -28.9934   23.4074 O   0  0  0  0  0  0  0  0  0  0  0  0
  -30.7436  -25.5305   19.1861 O   0  0  0  0  0  0  0  0  0  0  0  0
  -20.3698  -26.9867   22.1044 O   0  0  0  0  0  0  0  0  0  0  0  0
  -23.0342  -23.1281   21.3744 O   0  0  0  0  0  0  0  0  0  0  0  0
  -31.6309  -16.0415   21.0745 O   0  0  0  0  0  0  0  0  0  0  0  0
  -32.4461  -23.1182   18.7699 O   0  0  0  0  0  0  0  0  0  0  0  0
  -30.2154  -22.5757   17.7329 O   0  0  0  0  0  0  0  0  0  0  0  0
  -19.4493  -16.2553   22.5862 O   0  0  0  0  0  0  0  0  0  0  0  0
  -28.6335  -26.8255   20.2220 O   0  0  0  0  0  0  0  0  0  1  0  0
  -15.8899  -19.7467   20.2315 F   0  0  0  0  0  0  0  0  0  0  0  0
  -18.8236  -18.6662   23.7856 F   0  0  0  0  0  0  0  0  0  0  0  0
  -29.8093  -20.0052   19.5300 S   0  0  0  0  0  0  0  0  0  0  0  0
  -31.1003  -22.5797   18.8869 S   0  0  0  0  0  0  0  0  0  0  0  0
  1  2  1  0  0  0  0
  1  5  2  0  0  0  0
  2  6  2  0  0  0  0
  3  8  2  0  0  0  0
  3 16  1  0  0  0  0
  4  9  1  0  0  0  0
  4 16  2  0  0  0  0
  5 18  1  0  0  0  0
  6 20  1  0  0  0  0
  7 10  2  0  0  0  0
  7 19  1  0  0  0  0
  8 22  1  0  0  0  0
  9 22  2  0  0  0  0
 10 23  1  0  0  0  0
 11 12  2  0  0  0  0
 11 24  1  0  0  0  0
 12 25  1  0  0  0  0
 13 21  1  0  0  0  0
 13 23  2  0  0  0  0
 14 25  2  0  0  0  0
 14 26  1  0  0  0  0
 15 29  2  0  0  0  0
 15 59  1  0  0  0  0
 16 27  1  0  0  0  0
 17 27  1  0  0  0  0
 17 28  2  0  0  0  0
 17 31  1  0  0  0  0
 18 20  2  0  0  0  0
 18 37  1  0  0  0  0
 19 21  2  0  0  0  0
 19 38  1  0  0  0  0
 20 46  1  0  0  0  0
 21 39  1  0  0  0  0
 22 78  1  0  0  0  0
 23 79  1  0  0  0  0
 24 26  2  0  0  0  0
 24 78  1  0  0  0  0
 25 80  1  0  0  0  0
 26 81  1  0  0  0  0
 27 60  2  0  0  0  0
 28 61  1  0  0  0  0
 28 64  1  0  0  0  0
 29 82  1  0  0  0  0
 29 83  1  0  0  0  0
 30 59  2  0  0  0  0
 30 66  1  0  0  0  0
 30 82  1  0  0  0  0
 31 65  1  0  0  0  0
 31 70  2  0  0  0  0
 32 47  1  0  0  0  0
 32 67  1  0  0  0  0
 32 71  2  0  0  0  0
 33 54  1  0  0  0  0
 33 55  1  0  0  0  0
 33 72  2  0  0  0  0
 34 56  1  0  0  0  0
 34 62  1  0  0  0  0
 34 73  2  0  0  0  0
 35 57  1  0  0  0  0
 35 68  1  0  0  0  0
 35 74  2  0  0  0  0
 36 63  1  0  0  0  0
 36 66  1  0  0  0  0
 36 75  2  0  0  0  0
 37 40  1  0  0  0  0
 38 47  1  0  0  0  0
 39 62  1  0  0  0  0
 40 42  1  0  0  0  0
 41 43  1  0  0  0  0
 41 44  1  0  0  0  0
 42 46  1  0  0  0  0
 43 48  1  0  0  0  0
 44 63  1  0  0  0  0
 45 48  1  0  0  0  0
 45 63  1  0  0  0  0
 46 67  1  0  0  0  0
 47 62  1  0  0  0  0
 48 61  1  0  0  0  0
 49 57  1  0  0  0  0
 50 58  1  0  0  0  0
 51 58  1  0  0  0  0
 52 58  1  0  0  0  0
 53 69  1  0  0  0  0
 54 79  1  0  0  0  0
 55 83  1  0  0  0  0
 56 58  1  0  0  0  0
 56 68  1  0  0  0  0
 57 69  1  0  0  0  0
 60 61  1  0  0  0  0
 76 83  2  0  0  0  0
 77 83  2  0  0  0  0
M  CHG  1  69   1
M  ISO  4  36 100  54 101  66 100  79 101
M  END
> <Batch ID>
0175

> <Smiles>
CNC(C)C(=O)NC(C(=O)N1Cc2cc([101O:1][101CH2:1]C(=O)CS(=O)(=O)c3cnc([100NH:0][100C:0](=O)N4CCCC(n5nc(-c6ccc(Oc7ccc(F)cc7F)cc6)c(C(N)=O)c5N)C4)s3)ccc2CC1C(=O)NC1CCCc2ccccc21)C(C)(C)C

> <Shape>
0.193

> <Color>
0.087

> <Negative vol penalty>
0.000

$$$$

  -OEChem-04052304353D

 90 98  0     1  0  0  0  0  0999 V2000
  -29.4543  -35.0196   24.8397 C   0  0  0  0  0  0  0  0  0  0  0  0
  -29.6052  -33.8153   24.1599 C   0  0  0  0  0  0  0  0  0  0  0  0
  -23.4921  -10.0693   22.3543 C   0  0  0  0  0  0  0  0  0  0  0  0
  -23.5201   -9.7910   19.9545 C   0  0  0  0  0  0  0  0  0  0  0  0
  -28.2803  -35.2777   25.5461 C   0  0  0  0  0  0  0  0  0  0  0  0
  -28.5825  -32.8677   24.1871 C   0  0  0  0  0  0  0  0  0  0  0  0
  -26.9752  -29.0553   19.6718 C   0  0  0  0  0  0  0  0  0  0  0  0
  -22.6342   -8.9757   22.4712 C   0  0  0  0  0  0  0  0  0  0  0  0
  -22.6622   -8.6973   20.0714 C   0  0  0  0  0  0  0  0  0  0  0  0
  -27.2729  -27.7159   19.4245 C   0  0  0  0  0  0  0  0  0  0  0  0
  -20.7245   -6.0350   23.4305 C   0  0  0  0  0  0  0  0  0  0  0  0
  -21.0031   -5.0954   24.4229 C   0  0  0  0  0  0  0  0  0  0  0  0
  -25.1952  -27.0683   20.4653 C   0  0  0  0  0  0  0  0  0  0  0  0
  -23.1533   -4.6629   23.4098 C   0  0  0  0  0  0  0  0  0  0  0  0
  -29.3303  -17.0741   16.8157 C   0  0  0  0  0  0  0  0  0  0  0  0
  -23.9350  -10.4770   21.0960 C   0  0  0  0  0  0  0  0  0  0  0  0
  -26.2282  -11.5896   20.9928 C   0  0  0  0  0  0  0  0  0  0  0  0
  -27.2388  -34.3369   25.5740 C   0  0  0  0  0  0  0  0  0  0  0  0
  -25.7884  -29.4112   20.3285 C   0  0  0  0  0  0  0  0  0  0  0  0
  -27.3940  -33.1129   24.8956 C   0  0  0  0  0  0  0  0  0  0  0  0
  -24.8836  -28.4130   20.7174 C   0  0  0  0  0  0  0  0  0  0  0  0
  -22.2193   -8.2896   21.3297 C   0  0  0  0  0  0  0  0  0  0  0  0
  -26.3842  -26.7220   19.8239 C   0  0  0  0  0  0  0  0  0  0  0  0
  -21.6602   -6.2885   22.4276 C   0  0  0  0  0  0  0  0  0  0  0  0
  -22.2175   -4.4093   24.4126 C   0  0  0  0  0  0  0  0  0  0  0  0
  -22.8747   -5.6025   22.4173 C   0  0  0  0  0  0  0  0  0  0  0  0
  -30.4139  -17.6838   16.1931 C   0  0  0  0  0  0  0  0  0  0  0  0
  -30.4176  -19.0619   16.0087 C   0  0  0  0  0  0  0  0  0  0  0  0
  -24.8207  -11.6070   20.9746 C   0  0  0  0  0  0  0  0  0  0  0  0
  -29.3222  -19.7797   16.4613 C   0  0  0  0  0  0  0  0  0  0  0  0
  -28.2838  -17.8810   17.2323 C   0  0  0  0  0  0  0  0  0  0  0  0
  -26.5898  -12.9062   20.8434 C   0  0  0  0  0  0  0  0  0  0  0  0
  -27.1284  -10.4824   21.1321 C   0  0  0  0  0  0  0  0  0  0  0  0
  -29.2672  -21.2544   16.2896 C   0  0  0  0  0  0  0  0  0  0  0  0
  -25.0896  -30.8861   23.0561 C   0  0  0  0  0  0  0  0  0  0  0  0
  -27.1331  -23.7460   17.8891 C   0  0  0  0  0  0  0  0  0  0  0  0
  -22.0512  -30.6737   21.9401 C   0  0  0  0  0  0  0  0  0  0  0  0
  -19.8134  -29.0811   19.9146 C   0  0  0  0  0  0  0  0  0  0  0  0
  -26.0320  -17.8592   18.3616 C   0  0  0  0  0  0  0  0  0  0  0  0
  -26.0076  -34.6409   26.3903 C   0  0  0  0  0  0  0  0  0  0  0  0
  -25.4694  -30.8621   20.5639 C   0  0  0  0  0  0  0  0  0  0  0  0
  -23.5865  -28.7438   21.4077 C   0  0  0  0  0  0  0  0  0  0  0  0
  -24.8199  -33.7407   26.0595 C   0  0  0  0  0  0  0  0  0  0  0  0
  -23.8067  -17.1295   21.0435 C   0  0  0  0  0  0  0  0  0  0  0  0
  -25.2592  -32.2816   25.9897 C   0  0  0  0  0  0  0  0  0  0  0  0
  -23.9879  -15.6262   21.2662 C   0  0  0  0  0  0  0  0  0  0  0  0
  -23.8870  -17.4973   19.5630 C   0  0  0  0  0  0  0  0  0  0  0  0
  -25.2695  -15.5135   19.0909 C   0  0  0  0  0  0  0  0  0  0  0  0
  -26.2972  -32.0704   24.8810 C   0  0  1  0  0  0  0  0  0  0  0  0
  -24.4735  -31.0784   21.6992 C   0  0  1  0  0  0  0  0  0  0  0  0
  -25.2610  -15.1033   20.5725 C   0  0  2  0  0  0  0  0  0  0  0  0
  -17.3952  -29.1098   19.2446 C   0  0  0  0  0  0  0  0  0  0  0  0
  -21.3051  -29.3492   24.5856 C   0  0  0  0  0  0  0  0  0  0  0  0
  -19.1848  -28.5608   23.5128 C   0  0  0  0  0  0  0  0  0  0  0  0
  -19.6322  -31.0044   23.7393 C   0  0  0  0  0  0  0  0  0  0  0  0
  -20.4837  -29.6351   17.0857 C   0  0  0  0  0  0  0  0  0  0  0  0
  -27.4622  -25.1233   18.4317 C   0  0  0  0  0  0  0  0  0  1  0  0
  -27.9171  -23.3023   16.6628 C   0  0  2  0  0  0  0  0  0  0  0  0
  -20.9413  -29.6562   22.0480 C   0  0  1  0  0  0  0  0  0  0  0  0
  -18.7936  -29.6146   18.9246 C   0  0  2  0  0  0  0  0  0  0  0  0
  -20.2911  -29.6360   23.4602 C   0  0  0  0  0  0  0  0  0  0  0  0
  -27.1764  -23.6619   15.3940 C   0  0  0  0  0  0  0  0  0  0  0  0
  -24.3221  -12.8371   20.8256 N   0  0  0  0  0  0  0  0  0  0  0  0
  -28.2516  -19.2228   17.0705 N   0  0  0  0  0  0  0  0  0  0  0  0
  -25.4223  -13.6050   20.7489 N   0  0  0  0  0  0  0  0  0  0  0  0
  -23.3227  -30.1764   21.6211 N   0  0  0  0  0  0  0  0  0  0  0  0
  -25.1209  -16.9726   18.9737 N   0  0  0  0  0  0  0  0  0  0  0  0
  -27.7893  -13.5228   20.7852 N   0  0  0  0  0  0  0  0  0  0  0  0
  -26.5890   -9.1968   21.2757 N   0  0  0  0  0  0  0  0  0  0  0  0
  -27.1844  -17.2503   17.8659 N   0  0  0  0  0  0  0  0  0  0  0  0
  -28.1282  -21.8830   16.7762 N   0  0  0  0  0  0  0  0  0  0  0  0
  -25.6525  -32.0315   23.5858 N   0  0  0  0  0  0  0  0  0  0  0  0
  -20.0094  -29.9522   20.9653 N   0  0  0  0  0  0  0  0  0  0  0  0
  -19.1424  -29.1866   17.5404 N   0  3  0  0  0  0  0  0  0  0  0  0
  -28.3739  -10.6306   21.1459 O   0  0  0  0  0  0  0  0  0  0  0  0
  -30.1946  -21.8276   15.7240 O   0  0  0  0  0  0  0  0  0  0  0  0
  -25.0553  -29.7808   23.5841 O   0  0  0  0  0  0  0  0  0  0  0  0
  -26.2590  -23.0423   18.3958 O   0  0  0  0  0  0  0  0  0  0  0  0
  -21.7979  -31.8668   22.1248 O   0  0  0  0  0  0  0  0  0  0  0  0
  -20.3769  -27.9982   19.7720 O   0  0  0  0  0  0  0  0  0  0  0  0
  -25.8191  -19.0732   18.3072 O   0  0  0  0  0  0  0  0  0  0  0  0
  -21.3824   -7.2223   21.4434 O   0  0  0  0  0  0  0  0  0  0  0  0
  -26.6727  -25.4138   19.5843 O   0  0  0  0  0  0  0  0  0  1  0  0
  -22.4856   -3.5081   25.3667 F   0  0  0  0  0  0  0  0  0  0  0  0
  -23.7781   -5.8427   21.4571 F   0  0  0  0  0  0  0  0  0  0  0  0
  -31.4501  -16.9470   15.7723 F   0  0  0  0  0  0  0  0  0  0  0  0
  -31.4521  -19.6652   15.4104 F   0  0  0  0  0  0  0  0  0  0  0  0
  -27.8499  -23.2406   14.3008 F   0  0  0  0  0  0  0  0  0  0  0  0
  -26.9938  -24.9948   15.2781 F   0  0  0  0  0  0  0  0  0  0  0  0
  -25.9583  -23.0757   15.3654 F   0  0  0  0  0  0  0  0  0  0  0  0
  1  2  1  0  0  0  0
  1  5  2  0  0  0  0
  2  6  2  0  0  0  0
  3  8  2  0  0  0  0
  3 16  1  0  0  0  0
  4  9  1  0  0  0  0
  4 16  2  0  0  0  0
  5 18  1  0  0  0  0
  6 20  1  0  0  0  0
  7 10  2  0  0  0  0
  7 19  1  0  0  0  0
  8 22  1  0  0  0  0
  9 22  2  0  0  0  0
 10 23  1  0  0  0  0
 11 12  2  0  0  0  0
 11 24  1  0  0  0  0
 12 25  1  0  0  0  0
 13 21  1  0  0  0  0
 13 23  2  0  0  0  0
 14 25  2  0  0  0  0
 14 26  1  0  0  0  0
 15 27  2  0  0  0  0
 15 31  1  0  0  0  0
 16 29  1  0  0  0  0
 17 29  1  0  0  0  0
 17 32  2  0  0  0  0
 17 33  1  0  0  0  0
 18 20  2  0  0  0  0
 18 40  1  0  0  0  0
 19 21  2  0  0  0  0
 19 41  1  0  0  0  0
 20 49  1  0  0  0  0
 21 42  1  0  0  0  0
 22 82  1  0  0  0  0
 23 83  1  0  0  0  0
 24 26  2  0  0  0  0
 24 82  1  0  0  0  0
 25 84  1  0  0  0  0
 26 85  1  0  0  0  0
 27 28  1  0  0  0  0
 27 86  1  0  0  0  0
 28 30  2  0  0  0  0
 28 87  1  0  0  0  0
 29 63  2  0  0  0  0
 30 34  1  0  0  0  0
 30 64  1  0  0  0  0
 31 64  2  0  0  0  0
 31 70  1  0  0  0  0
 32 65  1  0  0  0  0
 32 68  1  0  0  0  0
 33 69  1  0  0  0  0
 33 75  2  0  0  0  0
 34 71  1  0  0  0  0
 34 76  2  0  0  0  0
 35 50  1  0  0  0  0
 35 72  1  0  0  0  0
 35 77  2  0  0  0  0
 36 57  1  0  0  0  0
 36 58  1  0  0  0  0
 36 78  2  0  0  0  0
 37 59  1  0  0  0  0
 37 66  1  0  0  0  0
 37 79  2  0  0  0  0
 38 60  1  0  0  0  0
 38 73  1  0  0  0  0
 38 80  2  0  0  0  0
 39 67  1  0  0  0  0
 39 70  1  0  0  0  0
 39 81  2  0  0  0  0
 40 43  1  0  0  0  0
 41 50  1  0  0  0  0
 42 66  1  0  0  0  0
 43 45  1  0  0  0  0
 44 46  1  0  0  0  0
 44 47  1  0  0  0  0
 45 49  1  0  0  0  0
 46 51  1  0  0  0  0
 47 67  1  0  0  0  0
 48 51  1  0  0  0  0
 48 67  1  0  0  0  0
 49 72  1  0  0  0  0
 50 66  1  0  0  0  0
 51 65  1  0  0  0  0
 52 60  1  0  0  0  0
 53 61  1  0  0  0  0
 54 61  1  0  0  0  0
 55 61  1  0  0  0  0
 56 74  1  0  0  0  0
 57 83  1  0  0  0  0
 58 62  1  0  0  0  0
 58 71  1  0  0  0  0
 59 61  1  0  0  0  0
 59 73  1  0  0  0  0
 60 74  1  0  0  0  0
 62 88  1  0  0  0  0
 62 89  1  0  0  0  0
 62 90  1  0  0  0  0
 63 65  1  0  0  0  0
M  CHG  1  74   1
M  ISO  4  39 100  57 101  70 100  83 101
M  END
> <Batch ID>
0175

> <Smiles>
CNC(C)C(=O)NC(C(=O)N1Cc2cc([101O:1][101CH2:1]C(=O)C(NC(=O)c3nc([100NH:0][100C:0](=O)N4CCCC(n5nc(-c6ccc(Oc7ccc(F)cc7F)cc6)c(C(N)=O)c5N)C4)cc(F)c3F)C(F)(F)F)ccc2CC1C(=O)NC1CCCc2ccccc21)C(C)(C)C

> <Shape>
0.263

> <Color>
0.104

> <Negative vol penalty>
0.000

$$$$

  -OEChem-04052304353D

 86 94  0     1  0  0  0  0  0999 V2000
  -24.5849  -35.5215   23.5750 C   0  0  0  0  0  0  0  0  0  0  0  0
  -25.3220  -34.4417   24.0505 C   0  0  0  0  0  0  0  0  0  0  0  0
  -24.8224   -8.9791   21.6321 C   0  0  0  0  0  0  0  0  0  0  0  0
  -23.1655  -10.6563   21.1041 C   0  0  0  0  0  0  0  0  0  0  0  0
  -23.4002  -35.3006   22.8738 C   0  0  0  0  0  0  0  0  0  0  0  0
  -24.8743  -33.1403   23.8261 C   0  0  0  0  0  0  0  0  0  0  0  0
  -28.9457  -28.3794   20.2696 C   0  0  0  0  0  0  0  0  0  0  0  0
  -23.8894   -8.3055   22.4204 C   0  0  0  0  0  0  0  0  0  0  0  0
  -22.2324   -9.9827   21.8924 C   0  0  0  0  0  0  0  0  0  0  0  0
  -29.7517  -27.3501   19.7828 C   0  0  0  0  0  0  0  0  0  0  0  0
  -21.2729   -6.2169   21.9464 C   0  0  0  0  0  0  0  0  0  0  0  0
  -21.1863   -4.8317   21.8073 C   0  0  0  0  0  0  0  0  0  0  0  0
  -27.9109  -25.7957   19.9908 C   0  0  0  0  0  0  0  0  0  0  0  0
  -21.7514   -4.5620   24.1407 C   0  0  0  0  0  0  0  0  0  0  0  0
  -26.0743  -19.3205   16.3540 C   0  0  0  0  0  0  0  0  0  0  0  0
  -24.4605  -10.1545   20.9740 C   0  0  0  0  0  0  0  0  0  0  0  0
  -25.6711  -10.6633   18.7870 C   0  0  0  0  0  0  0  0  0  0  0  0
  -22.9427  -33.9956   22.6323 C   0  0  0  0  0  0  0  0  0  0  0  0
  -27.6131  -28.1238   20.6047 C   0  0  0  0  0  0  0  0  0  0  0  0
  -23.6817  -32.9018   23.1221 C   0  0  0  0  0  0  0  0  0  0  0  0
  -27.0951  -26.8256   20.4671 C   0  0  0  0  0  0  0  0  0  0  0  0
  -22.5944   -8.8072   22.5505 C   0  0  0  0  0  0  0  0  0  0  0  0
  -29.2356  -26.0614   19.6440 C   0  0  0  0  0  0  0  0  0  0  0  0
  -21.5988   -6.7747   23.1827 C   0  0  0  0  0  0  0  0  0  0  0  0
  -21.4255   -4.0043   22.9044 C   0  0  0  0  0  0  0  0  0  0  0  0
  -21.8380   -5.9472   24.2798 C   0  0  0  0  0  0  0  0  0  0  0  0
  -26.2328  -18.2178   17.1860 C   0  0  0  0  0  0  0  0  0  0  0  0
  -26.9803  -20.3730   16.4237 C   0  0  0  0  0  0  0  0  0  0  0  0
  -25.4240  -10.8511   20.1601 C   0  0  0  0  0  0  0  0  0  0  0  0
  -27.3053  -18.2161   18.0632 C   0  0  0  0  0  0  0  0  0  0  0  0
  -28.0192  -20.2749   17.3352 C   0  0  0  0  0  0  0  0  0  0  0  0
  -26.6701  -11.5586   18.4922 C   0  0  0  0  0  0  0  0  0  0  0  0
  -25.0528   -9.7603   17.8607 C   0  0  0  0  0  0  0  0  0  0  0  0
  -24.3568  -29.4916   21.8702 C   0  0  0  0  0  0  0  0  0  0  0  0
  -23.6822  -27.5414   19.6003 C   0  0  0  0  0  0  0  0  0  0  0  0
  -23.6892  -24.3565   18.3783 C   0  0  0  0  0  0  0  0  0  0  0  0
  -28.4593  -16.8776   19.8585 C   0  0  0  0  0  0  0  0  0  0  0  0
  -21.6318  -33.8079   21.9105 C   0  0  0  0  0  0  0  0  0  0  0  0
  -26.7260  -29.1884   21.1908 C   0  0  0  0  0  0  0  0  0  0  0  0
  -25.6659  -26.5895   20.8728 C   0  0  0  0  0  0  0  0  0  0  0  0
  -21.4208  -32.3884   21.3902 C   0  0  0  0  0  0  0  0  0  0  0  0
  -30.0758  -13.9775   21.1442 C   0  0  0  0  0  0  0  0  0  0  0  0
  -21.7674  -31.3673   22.4691 C   0  0  0  0  0  0  0  0  0  0  0  0
  -29.0664  -12.8561   20.8879 C   0  0  0  0  0  0  0  0  0  0  0  0
  -29.3855  -15.2855   21.5266 C   0  0  0  0  0  0  0  0  0  0  0  0
  -27.3361  -14.6135   20.3359 C   0  0  0  0  0  0  0  0  0  0  0  0
  -23.2416  -31.4747   22.8773 C   0  0  1  0  0  0  0  0  0  0  0  0
  -25.2568  -29.0597   20.7501 C   0  0  1  0  0  0  0  0  0  0  0  0
  -27.9814  -13.2931   19.8843 C   0  0  2  0  0  0  0  0  0  0  0  0
  -23.0532  -22.4257   16.9069 C   0  0  0  0  0  0  0  0  0  0  0  0
  -31.1502  -20.4820   17.7241 C   0  0  0  0  0  0  0  0  0  0  0  0
  -21.3617  -27.2817   21.5629 C   0  0  0  0  0  0  0  0  0  0  0  0
  -20.7116  -25.1600   20.4037 C   0  0  0  0  0  0  0  0  0  0  0  0
  -20.6917  -27.3187   19.1537 C   0  0  0  0  0  0  0  0  0  0  0  0
  -25.7303  -25.0731   16.3586 C   0  0  0  0  0  0  0  0  0  0  0  0
  -30.5403  -22.8076   18.4783 C   0  0  0  0  0  0  0  0  0  0  0  0
  -22.9051  -26.2597   19.7631 C   0  0  1  0  0  0  0  0  0  0  0  0
  -23.6530  -23.8223   16.9579 C   0  0  2  0  0  0  0  0  0  0  0  0
  -30.0465  -21.3661   18.2969 C   0  0  1  0  0  0  0  0  0  0  0  0
  -21.4436  -26.5081   20.2318 C   0  0  0  0  0  0  0  0  0  0  0  0
  -29.4753  -23.7489   19.0305 C   0  0  0  0  0  0  0  0  0  1  0  0
  -26.2033  -11.7918   20.7003 N   0  0  0  0  0  0  0  0  0  0  0  0
  -28.2058  -19.2198   18.1596 N   0  0  0  0  0  0  0  0  0  0  0  0
  -26.9500  -12.2029   19.6613 N   0  0  0  0  0  0  0  0  0  0  0  0
  -24.8203  -27.6972   20.4009 N   0  0  0  0  0  0  0  0  0  0  0  0
  -28.3738  -15.6387   20.5282 N   0  0  0  0  0  0  0  0  0  0  0  0
  -27.3277  -11.8496   17.3497 N   0  0  0  0  0  0  0  0  0  0  0  0
  -24.0429   -8.9093   18.3301 N   0  0  0  0  0  0  0  0  0  0  0  0
  -27.4610  -17.0894   18.9081 N   0  0  0  0  0  0  0  0  0  0  0  0
  -28.9141  -21.3283   17.3956 N   0  0  0  0  0  0  0  0  0  0  0  0
  -24.0877  -30.8469   21.8852 N   0  0  0  0  0  0  0  0  0  0  0  0
  -23.0128  -25.5527   18.4915 N   0  0  0  0  0  0  0  0  0  0  0  0
  -25.0302  -23.7633   16.3914 N   0  3  0  0  0  0  0  0  0  0  0  0
  -25.3974   -9.6980   16.6561 O   0  0  0  0  0  0  0  0  0  0  0  0
  -23.9353  -28.6571   22.6626 O   0  0  0  0  0  0  0  0  0  0  0  0
  -23.2898  -28.3859   18.7902 O   0  0  0  0  0  0  0  0  0  0  0  0
  -24.2572  -23.7694   19.2965 O   0  0  0  0  0  0  0  0  0  0  0  0
  -29.3679  -17.6793   20.0903 O   0  0  0  0  0  0  0  0  0  0  0  0
  -21.6836   -8.1501   23.3194 O   0  0  0  0  0  0  0  0  0  0  0  0
  -30.0267  -25.0622   19.1640 O   0  0  0  0  0  0  0  0  0  1  0  0
  -21.3408   -2.6741   22.7710 F   0  0  0  0  0  0  0  0  0  0  0  0
  -22.1504   -6.4773   25.4703 F   0  0  0  0  0  0  0  0  0  0  0  0
  -25.3678  -17.1971   17.1294 F   0  0  0  0  0  0  0  0  0  0  0  0
  -26.8399  -21.4412   15.6285 F   0  0  0  0  0  0  0  0  0  0  0  0
  -29.0613  -23.3074   20.2429 F   0  0  0  0  0  0  0  0  0  0  0  0
  -28.4095  -23.7924   18.1967 F   0  0  0  0  0  0  0  0  0  0  0  0
  1  2  1  0  0  0  0
  1  5  2  0  0  0  0
  2  6  2  0  0  0  0
  3  8  2  0  0  0  0
  3 16  1  0  0  0  0
  4  9  1  0  0  0  0
  4 16  2  0  0  0  0
  5 18  1  0  0  0  0
  6 20  1  0  0  0  0
  7 10  2  0  0  0  0
  7 19  1  0  0  0  0
  8 22  1  0  0  0  0
  9 22  2  0  0  0  0
 10 23  1  0  0  0  0
 11 12  2  0  0  0  0
 11 24  1  0  0  0  0
 12 25  1  0  0  0  0
 13 21  1  0  0  0  0
 13 23  2  0  0  0  0
 14 25  2  0  0  0  0
 14 26  1  0  0  0  0
 15 27  2  0  0  0  0
 15 28  1  0  0  0  0
 16 29  1  0  0  0  0
 17 29  1  0  0  0  0
 17 32  2  0  0  0  0
 17 33  1  0  0  0  0
 18 20  2  0  0  0  0
 18 38  1  0  0  0  0
 19 21  2  0  0  0  0
 19 39  1  0  0  0  0
 20 47  1  0  0  0  0
 21 40  1  0  0  0  0
 22 79  1  0  0  0  0
 23 80  1  0  0  0  0
 24 26  2  0  0  0  0
 24 79  1  0  0  0  0
 25 81  1  0  0  0  0
 26 82  1  0  0  0  0
 27 30  1  0  0  0  0
 27 83  1  0  0  0  0
 28 31  2  0  0  0  0
 28 84  1  0  0  0  0
 29 62  2  0  0  0  0
 30 63  2  0  0  0  0
 30 69  1  0  0  0  0
 31 63  1  0  0  0  0
 31 70  1  0  0  0  0
 32 64  1  0  0  0  0
 32 67  1  0  0  0  0
 33 68  1  0  0  0  0
 33 74  2  0  0  0  0
 34 48  1  0  0  0  0
 34 71  1  0  0  0  0
 34 75  2  0  0  0  0
 35 57  1  0  0  0  0
 35 65  1  0  0  0  0
 35 76  2  0  0  0  0
 36 58  1  0  0  0  0
 36 72  1  0  0  0  0
 36 77  2  0  0  0  0
 37 66  1  0  0  0  0
 37 69  1  0  0  0  0
 37 78  2  0  0  0  0
 38 41  1  0  0  0  0
 39 48  1  0  0  0  0
 40 65  1  0  0  0  0
 41 43  1  0  0  0  0
 42 44  1  0  0  0  0
 42 45  1  0  0  0  0
 43 47  1  0  0  0  0
 44 49  1  0  0  0  0
 45 66  1  0  0  0  0
 46 49  1  0  0  0  0
 46 66  1  0  0  0  0
 47 71  1  0  0  0  0
 48 65  1  0  0  0  0
 49 64  1  0  0  0  0
 50 58  1  0  0  0  0
 51 59  1  0  0  0  0
 52 60  1  0  0  0  0
 53 60  1  0  0  0  0
 54 60  1  0  0  0  0
 55 73  1  0  0  0  0
 56 59  1  0  0  0  0
 56 61  1  0  0  0  0
 57 60  1  0  0  0  0
 57 72  1  0  0  0  0
 58 73  1  0  0  0  0
 59 70  1  0  0  0  0
 61 80  1  0  0  0  0
 61 85  1  0  0  0  0
 61 86  1  0  0  0  0
 62 64  1  0  0  0  0
M  CHG  1  73   1
M  ISO  4  37 100  61 101  69 100  80 101
M  END
> <Batch ID>
0175

> <Smiles>
CNC(C)C(=O)NC(C(=O)N1Cc2cc([101O:1][101C:1](F)(F)CC(C)Nc3nc([100NH:0][100C:0](=O)N4CCCC(n5nc(-c6ccc(Oc7ccc(F)cc7F)cc6)c(C(N)=O)c5N)C4)c(F)cc3F)ccc2CC1C(=O)NC1CCCc2ccccc21)C(C)(C)C

> <Shape>
0.292

> <Color>
0.082

> <Negative vol penalty>
0.000

$$$$

  -OEChem-04052304353D

 89 98  0     1  0  0  0  0  0999 V2000
  -20.0760  -30.6696   24.6628 C   0  0  0  0  0  0  0  0  0  0  0  0
  -21.3657  -30.2199   24.3982 C   0  0  0  0  0  0  0  0  0  0  0  0
  -25.8908  -14.0983   18.7259 C   0  0  0  0  0  0  0  0  0  0  0  0
  -25.5101  -14.0610   21.1114 C   0  0  0  0  0  0  0  0  0  0  0  0
  -18.9782  -29.9554   24.1846 C   0  0  0  0  0  0  0  0  0  0  0  0
  -21.5582  -29.0551   23.6562 C   0  0  0  0  0  0  0  0  0  0  0  0
  -25.1677  -29.5655   20.1411 C   0  0  0  0  0  0  0  0  0  0  0  0
  -24.9227  -13.1086   18.5559 C   0  0  0  0  0  0  0  0  0  0  0  0
  -24.5419  -13.0714   20.9414 C   0  0  0  0  0  0  0  0  0  0  0  0
  -26.4915  -29.5001   20.5736 C   0  0  0  0  0  0  0  0  0  0  0  0
  -24.4578   -9.7315   20.4229 C   0  0  0  0  0  0  0  0  0  0  0  0
  -24.4849   -8.6420   21.2935 C   0  0  0  0  0  0  0  0  0  0  0  0
  -26.6133  -27.2069   19.8350 C   0  0  0  0  0  0  0  0  0  0  0  0
  -22.2545   -9.1872   22.0452 C   0  0  0  0  0  0  0  0  0  0  0  0
  -31.4942  -22.2167   17.9162 C   0  0  0  0  0  0  0  0  0  0  0  0
  -26.1846  -14.5745   20.0037 C   0  0  0  0  0  0  0  0  0  0  0  0
  -28.5461  -15.5232   19.8284 C   0  0  0  0  0  0  0  0  0  0  0  0
  -19.1575  -28.7866   23.4281 C   0  0  0  0  0  0  0  0  0  0  0  0
  -24.5523  -28.4468   19.5612 C   0  0  0  0  0  0  0  0  0  0  0  0
  -20.4617  -28.3239   23.1686 C   0  0  0  0  0  0  0  0  0  0  0  0
  -25.2824  -27.2614   19.3936 C   0  0  0  0  0  0  0  0  0  0  0  0
  -24.2483  -12.5952   19.6636 C   0  0  0  0  0  0  0  0  0  0  0  0
  -27.2136  -28.3198   20.4232 C   0  0  0  0  0  0  0  0  0  0  0  0
  -23.3290  -10.5488   20.3635 C   0  0  0  0  0  0  0  0  0  0  0  0
  -23.3833   -8.3698   22.1046 C   0  0  0  0  0  0  0  0  0  0  0  0
  -22.2274  -10.2767   21.1746 C   0  0  0  0  0  0  0  0  0  0  0  0
  -32.5026  -23.0093   17.3794 C   0  0  0  0  0  0  0  0  0  0  0  0
  -32.6749  -24.3105   17.8382 C   0  0  0  0  0  0  0  0  0  0  0  0
  -27.1849  -15.5964   20.1800 C   0  0  0  0  0  0  0  0  0  0  0  0
  -31.8193  -24.7681   18.8273 C   0  0  0  0  0  0  0  0  0  0  0  0
  -30.6915  -22.7679   18.9019 C   0  0  0  0  0  0  0  0  0  0  0  0
  -29.0622  -16.7411   20.1983 C   0  0  0  0  0  0  0  0  0  0  0  0
  -29.2785  -14.4502   19.2217 C   0  0  0  0  0  0  0  0  0  0  0  0
  -22.0599  -26.6201   20.3058 C   0  0  0  0  0  0  0  0  0  0  0  0
  -22.6770  -25.2766   17.4184 C   0  0  0  0  0  0  0  0  0  0  0  0
  -25.5964  -24.2722   15.5514 C   0  0  0  0  0  0  0  0  0  0  0  0
  -28.7489  -22.2953   20.4346 C   0  0  0  0  0  0  0  0  0  0  0  0
  -17.9395  -28.0226   22.9728 C   0  0  0  0  0  0  0  0  0  0  0  0
  -23.1320  -28.5417   19.0754 C   0  0  0  0  0  0  0  0  0  0  0  0
  -24.6742  -26.0385   18.7587 C   0  0  0  0  0  0  0  0  0  0  0  0
  -18.2350  -27.0029   21.8759 C   0  0  0  0  0  0  0  0  0  0  0  0
  -32.5611  -27.5214   21.5010 C   0  0  0  0  0  0  0  0  0  0  0  0
  -27.0502  -20.4658   22.9732 C   0  0  0  0  0  0  0  0  0  0  0  0
  -19.4723  -26.1833   22.2282 C   0  0  0  0  0  0  0  0  0  0  0  0
  -32.3737  -26.1540   20.8407 C   0  0  0  0  0  0  0  0  0  0  0  0
  -30.7194  -27.0306   19.0463 C   0  0  0  0  0  0  0  0  0  0  0  0
  -27.0458  -19.0298   22.4439 C   0  0  0  0  0  0  0  0  0  0  0  0
  -31.2335  -28.2379   21.7517 C   0  0  0  0  0  0  0  0  0  0  0  0
  -30.9703  -28.5324   19.1849 C   0  0  0  0  0  0  0  0  0  0  0  0
  -26.8734  -21.4851   21.8492 C   0  0  0  0  0  0  0  0  0  0  0  0
  -27.8119  -19.9112   20.2026 C   0  0  0  0  0  0  0  0  0  0  0  0
  -20.7117  -27.0784   22.3462 C   0  0  1  0  0  0  0  0  0  0  0  0
  -31.9751  -26.1896   19.3551 C   0  0  2  0  0  0  0  0  0  0  0  0
  -22.4454  -27.1837   18.9673 C   0  0  1  0  0  0  0  0  0  0  0  0
  -28.0521  -18.8514   21.2902 C   0  0  2  0  0  0  0  0  0  0  0  0
  -30.7438  -29.1167   20.5895 C   0  0  1  0  0  0  0  0  0  0  0  0
  -25.9614  -24.0728   13.0766 C   0  0  0  0  0  0  0  0  0  0  0  0
  -21.9039  -22.3542   17.8326 C   0  0  0  0  0  0  0  0  0  0  0  0
  -23.6515  -21.7264   16.1533 C   0  0  0  0  0  0  0  0  0  0  0  0
  -21.7247  -23.1560   15.4705 C   0  0  0  0  0  0  0  0  0  0  0  0
  -27.9473  -26.0680   15.6362 C   0  0  0  0  0  0  0  0  0  0  0  0
  -31.0841  -31.2282   19.6152 C   0  0  0  0  0  0  0  0  0  0  0  0
  -29.2639  -29.4614   20.8090 C   0  0  0  0  0  0  0  0  0  1  0  0
  -23.5396  -24.1372   16.9319 C   0  0  1  0  0  0  0  0  0  0  0  0
  -26.1556  -24.9422   14.3092 C   0  0  2  0  0  0  0  0  0  0  0  0
  -22.7118  -22.8585   16.6202 C   0  0  0  0  0  0  0  0  0  0  0  0
  -26.8570  -16.7681   20.7310 N   0  0  0  0  0  0  0  0  0  0  0  0
  -30.8285  -24.0277   19.3729 N   0  0  0  0  0  0  0  0  0  0  0  0
  -28.0195  -17.4423   20.7286 N   0  0  0  0  0  0  0  0  0  0  0  0
  -23.2805  -26.1792   18.3056 N   0  0  0  0  0  0  0  0  0  0  0  0
  -27.8633  -21.2574   20.7942 N   0  0  0  0  0  0  0  0  0  0  0  0
  -30.3018  -17.2698   20.1185 N   0  0  0  0  0  0  0  0  0  0  0  0
  -29.8837  -13.4994   20.0548 N   0  0  0  0  0  0  0  0  0  0  0  0
  -29.6670  -21.9520   19.4427 N   0  0  0  0  0  0  0  0  0  0  0  0
  -21.2084  -27.4297   21.0330 N   0  0  0  0  0  0  0  0  0  0  0  0
  -24.2936  -24.6530   15.7944 N   0  0  0  0  0  0  0  0  0  0  0  0
  -27.6132  -25.2049   14.4741 N   0  3  0  0  0  0  0  0  0  0  0  0
  -29.4066  -14.3472   17.9782 O   0  0  0  0  0  0  0  0  0  0  0  0
  -22.5010  -25.5306   20.6523 O   0  0  0  0  0  0  0  0  0  0  0  0
  -21.5130  -25.3667   17.0203 O   0  0  0  0  0  0  0  0  0  0  0  0
  -26.2487  -23.4867   16.2354 O   0  0  0  0  0  0  0  0  0  0  0  0
  -28.7144  -23.3981   20.9864 O   0  0  0  0  0  0  0  0  0  0  0  0
  -23.3034  -11.6296   19.4981 O   0  0  0  0  0  0  0  0  0  0  0  0
  -28.5057  -28.2531   20.8452 O   0  0  0  0  0  0  0  0  0  1  0  0
  -31.4740  -30.3515   20.6564 O   0  0  0  0  0  0  0  0  0  0  0  0
  -23.4088   -7.3227   22.9395 F   0  0  0  0  0  0  0  0  0  0  0  0
  -21.1397  -11.0576   21.1211 F   0  0  0  0  0  0  0  0  0  0  0  0
  -33.3047  -22.5219   16.4241 F   0  0  0  0  0  0  0  0  0  0  0  0
  -33.6399  -25.0884   17.3328 F   0  0  0  0  0  0  0  0  0  0  0  0
  1  2  1  0  0  0  0
  1  5  2  0  0  0  0
  2  6  2  0  0  0  0
  3  8  2  0  0  0  0
  3 16  1  0  0  0  0
  4  9  1  0  0  0  0
  4 16  2  0  0  0  0
  5 18  1  0  0  0  0
  6 20  1  0  0  0  0
  7 10  2  0  0  0  0
  7 19  1  0  0  0  0
  8 22  1  0  0  0  0
  9 22  2  0  0  0  0
 10 23  1  0  0  0  0
 11 12  2  0  0  0  0
 11 24  1  0  0  0  0
 12 25  1  0  0  0  0
 13 21  1  0  0  0  0
 13 23  2  0  0  0  0
 14 25  2  0  0  0  0
 14 26  1  0  0  0  0
 15 27  2  0  0  0  0
 15 31  1  0  0  0  0
 16 29  1  0  0  0  0
 17 29  1  0  0  0  0
 17 32  2  0  0  0  0
 17 33  1  0  0  0  0
 18 20  2  0  0  0  0
 18 38  1  0  0  0  0
 19 21  2  0  0  0  0
 19 39  1  0  0  0  0
 20 52  1  0  0  0  0
 21 40  1  0  0  0  0
 22 83  1  0  0  0  0
 23 84  1  0  0  0  0
 24 26  2  0  0  0  0
 24 83  1  0  0  0  0
 25 86  1  0  0  0  0
 26 87  1  0  0  0  0
 27 28  1  0  0  0  0
 27 88  1  0  0  0  0
 28 30  2  0  0  0  0
 28 89  1  0  0  0  0
 29 67  2  0  0  0  0
 30 53  1  0  0  0  0
 30 68  1  0  0  0  0
 31 68  2  0  0  0  0
 31 74  1  0  0  0  0
 32 69  1  0  0  0  0
 32 72  1  0  0  0  0
 33 73  1  0  0  0  0
 33 78  2  0  0  0  0
 34 54  1  0  0  0  0
 34 75  1  0  0  0  0
 34 79  2  0  0  0  0
 35 64  1  0  0  0  0
 35 70  1  0  0  0  0
 35 80  2  0  0  0  0
 36 65  1  0  0  0  0
 36 76  1  0  0  0  0
 36 81  2  0  0  0  0
 37 71  1  0  0  0  0
 37 74  1  0  0  0  0
 37 82  2  0  0  0  0
 38 41  1  0  0  0  0
 39 54  1  0  0  0  0
 40 70  1  0  0  0  0
 41 44  1  0  0  0  0
 42 45  1  0  0  0  0
 42 48  1  0  0  0  0
 43 47  1  0  0  0  0
 43 50  1  0  0  0  0
 44 52  1  0  0  0  0
 45 53  1  0  0  0  0
 46 49  1  0  0  0  0
 46 53  1  0  0  0  0
 47 55  1  0  0  0  0
 48 56  1  0  0  0  0
 49 56  1  0  0  0  0
 50 71  1  0  0  0  0
 51 55  1  0  0  0  0
 51 71  1  0  0  0  0
 52 75  1  0  0  0  0
 54 70  1  0  0  0  0
 55 69  1  0  0  0  0
 56 63  1  0  0  0  0
 56 85  1  0  0  0  0
 57 65  1  0  0  0  0
 58 66  1  0  0  0  0
 59 66  1  0  0  0  0
 60 66  1  0  0  0  0
 61 77  1  0  0  0  0
 62 85  1  0  0  0  0
 63 84  1  0  0  0  0
 64 66  1  0  0  0  0
 64 76  1  0  0  0  0
 65 77  1  0  0  0  0
 67 69  1  0  0  0  0
M  CHG  1  77   1
M  ISO  4  37 100  63 101  74 100  84 101
M  END
> <Batch ID>
0175

> <Smiles>
CNC(C)C(=O)NC(C(=O)N1Cc2cc([101O:1][101CH2:1]C3(OC)CCCC(c4nc([100NH:0][100C:0](=O)N5CCCC(n6nc(-c7ccc(Oc8ccc(F)cc8F)cc7)c(C(N)=O)c6N)C5)cc(F)c4F)CC3)ccc2CC1C(=O)NC1CCCc2ccccc21)C(C)(C)C

> <Shape>
0.276

> <Color>
0.078

> <Negative vol penalty>
0.000

$$$$

  -OEChem-04052304353D

 90 98  0     1  0  0  0  0  0999 V2000
  -27.5960  -37.6771   22.5427 C   0  0  0  0  0  0  0  0  0  0  0  0
  -27.9668  -36.3420   22.4188 C   0  0  0  0  0  0  0  0  0  0  0  0
  -23.8686   -9.1656   21.2332 C   0  0  0  0  0  0  0  0  0  0  0  0
  -23.7035  -10.8832   22.9243 C   0  0  0  0  0  0  0  0  0  0  0  0
  -26.3485  -38.0068   23.0708 C   0  0  0  0  0  0  0  0  0  0  0  0
  -27.0907  -35.3357   22.8241 C   0  0  0  0  0  0  0  0  0  0  0  0
  -26.3803  -29.8199   20.2596 C   0  0  0  0  0  0  0  0  0  0  0  0
  -23.2513   -8.2584   22.0942 C   0  0  0  0  0  0  0  0  0  0  0  0
  -23.0860   -9.9759   23.7854 C   0  0  0  0  0  0  0  0  0  0  0  0
  -26.8835  -28.5615   20.5868 C   0  0  0  0  0  0  0  0  0  0  0  0
  -20.1134   -7.5568   23.1403 C   0  0  0  0  0  0  0  0  0  0  0  0
  -19.1039   -6.7496   22.6160 C   0  0  0  0  0  0  0  0  0  0  0  0
  -28.2427  -20.2709   18.7450 C   0  0  0  0  0  0  0  0  0  0  0  0
  -24.8488  -28.0658   21.7841 C   0  0  0  0  0  0  0  0  0  0  0  0
  -20.3800   -4.7803   23.1910 C   0  0  0  0  0  0  0  0  0  0  0  0
  -24.0948  -10.4780   21.6482 C   0  0  0  0  0  0  0  0  0  0  0  0
  -29.1468  -20.8629   19.6268 C   0  0  0  0  0  0  0  0  0  0  0  0
  -24.1065  -12.2690   19.8317 C   0  0  0  0  0  0  0  0  0  0  0  0
  -25.4527  -37.0038   23.4738 C   0  0  0  0  0  0  0  0  0  0  0  0
  -25.1098  -30.2155   20.7021 C   0  0  0  0  0  0  0  0  0  0  0  0
  -25.8305  -35.6523   23.3594 C   0  0  0  0  0  0  0  0  0  0  0  0
  -24.3307  -29.3287   21.4590 C   0  0  0  0  0  0  0  0  0  0  0  0
  -28.9935  -18.0834   19.4436 C   0  0  0  0  0  0  0  0  0  0  0  0
  -22.8599   -8.6636   23.3703 C   0  0  0  0  0  0  0  0  0  0  0  0
  -26.1189  -27.6853   21.3516 C   0  0  0  0  0  0  0  0  0  0  0  0
  -21.2563   -6.9758   23.6899 C   0  0  0  0  0  0  0  0  0  0  0  0
  -19.2372   -5.3613   22.6414 C   0  0  0  0  0  0  0  0  0  0  0  0
  -28.1660  -18.8811   18.6534 C   0  0  0  0  0  0  0  0  0  0  0  0
  -21.3896   -5.5876   23.7153 C   0  0  0  0  0  0  0  0  0  0  0  0
  -29.9744  -20.0652   20.4170 C   0  0  0  0  0  0  0  0  0  0  0  0
  -29.8977  -18.6754   20.3254 C   0  0  0  0  0  0  0  0  0  0  0  0
  -24.7330  -11.4155   20.7595 C   0  0  0  0  0  0  0  0  0  0  0  0
  -25.1411  -12.9520   19.2403 C   0  0  0  0  0  0  0  0  0  0  0  0
  -29.2246  -22.3435   19.7213 C   0  0  0  0  0  0  0  0  0  0  0  0
  -22.7138  -12.4302   19.5314 C   0  0  0  0  0  0  0  0  0  0  0  0
  -24.0090  -32.5341   22.5773 C   0  0  0  0  0  0  0  0  0  0  0  0
  -30.7766  -24.6013   22.2276 C   0  0  0  0  0  0  0  0  0  0  0  0
  -28.3154  -24.7397   21.6401 C   0  0  0  0  0  0  0  0  0  0  0  0
  -21.1224  -31.4046   21.6212 C   0  0  0  0  0  0  0  0  0  0  0  0
  -19.2899  -28.7929   20.4096 C   0  0  0  0  0  0  0  0  0  0  0  0
  -29.9426  -15.7528   19.5622 C   0  0  0  0  0  0  0  0  0  0  0  0
  -24.1341  -37.4101   24.0827 C   0  0  0  0  0  0  0  0  0  0  0  0
  -24.5705  -31.5661   20.3181 C   0  0  0  0  0  0  0  0  0  0  0  0
  -22.9524  -29.6976   21.9415 C   0  0  0  0  0  0  0  0  0  0  0  0
  -23.1147  -36.2753   24.1408 C   0  0  0  0  0  0  0  0  0  0  0  0
  -30.1414  -12.1991   19.4684 C   0  0  0  0  0  0  0  0  0  0  0  0
  -23.7616  -35.0036   24.6802 C   0  0  0  0  0  0  0  0  0  0  0  0
  -28.7005  -11.7487   19.7196 C   0  0  0  0  0  0  0  0  0  0  0  0
  -30.4978  -13.4407   20.2839 C   0  0  0  0  0  0  0  0  0  0  0  0
  -28.1318  -14.1204   20.3818 C   0  0  0  0  0  0  0  0  0  0  0  0
  -24.8978  -34.5317   23.7649 C   0  0  1  0  0  0  0  0  0  0  0  0
  -23.4733  -32.0600   21.2559 C   0  0  1  0  0  0  0  0  0  0  0  0
  -27.7059  -12.9113   19.5331 C   0  0  2  0  0  0  0  0  0  0  0  0
  -31.5389  -25.8955   22.0969 C   0  0  0  0  0  0  0  0  0  0  0  0
  -16.9482  -28.1602   19.7665 C   0  0  0  0  0  0  0  0  0  0  0  0
  -20.3807  -31.1614   24.5709 C   0  0  0  0  0  0  0  0  0  0  0  0
  -18.4792  -29.6779   23.8986 C   0  0  0  0  0  0  0  0  0  0  0  0
  -18.5554  -32.0417   23.1053 C   0  0  0  0  0  0  0  0  0  0  0  0
  -20.0803  -28.2559   17.6086 C   0  0  0  0  0  0  0  0  0  0  0  0
  -27.9118  -26.1309   21.1933 C   0  0  0  0  0  0  0  0  0  1  0  0
  -29.6944  -24.2702   21.2123 C   0  0  2  0  0  0  0  0  0  0  0  0
  -20.1643  -30.3539   22.1281 C   0  0  1  0  0  0  0  0  0  0  0  0
  -18.2799  -28.7097   19.2793 C   0  0  2  0  0  0  0  0  0  0  0  0
  -19.4216  -30.8022   23.4184 C   0  0  0  0  0  0  0  0  0  0  0  0
  -26.0626  -11.5426   20.7609 N   0  0  0  0  0  0  0  0  0  0  0  0
  -26.2800  -12.4840   19.8267 N   0  0  0  0  0  0  0  0  0  0  0  0
  -22.4719  -31.0316   21.5454 N   0  0  0  0  0  0  0  0  0  0  0  0
  -29.5145  -14.5014   20.0536 N   0  0  0  0  0  0  0  0  0  0  0  0
  -25.1785  -13.9011   18.2811 N   0  0  0  0  0  0  0  0  0  0  0  0
  -21.7845  -11.6496   20.2323 N   0  0  0  0  0  0  0  0  0  0  0  0
  -28.9150  -16.6716   19.3514 N   0  0  0  0  0  0  0  0  0  0  0  0
  -29.5981  -22.8601   20.9573 N   0  0  0  0  0  0  0  0  0  0  0  0
  -24.3623  -33.8699   22.5945 N   0  0  0  0  0  0  0  0  0  0  0  0
  -19.2817  -30.0335   21.0115 N   0  0  0  0  0  0  0  0  0  0  0  0
  -18.7871  -27.8208   18.1960 N   0  3  0  0  0  0  0  0  0  0  0  0
  -28.9435  -23.0231   18.7377 O   0  0  0  0  0  0  0  0  0  0  0  0
  -22.3068  -13.2305   18.6554 O   0  0  0  0  0  0  0  0  0  0  0  0
  -24.0942  -31.7466   23.5123 O   0  0  0  0  0  0  0  0  0  0  0  0
  -31.0008  -23.8412   23.1731 O   0  0  0  0  0  0  0  0  0  0  0  0
  -27.5792  -24.0430   22.3391 O   0  0  0  0  0  0  0  0  0  0  0  0
  -20.6885  -32.5130   21.2974 O   0  0  0  0  0  0  0  0  0  0  0  0
  -20.0111  -27.8505   20.7292 O   0  0  0  0  0  0  0  0  0  0  0  0
  -31.1299  -15.9827   19.3186 O   0  0  0  0  0  0  0  0  0  0  0  0
  -22.2573   -7.7786   24.2107 O   0  0  0  0  0  0  0  0  0  0  0  0
  -26.6080  -26.4568   21.6729 O   0  0  0  0  0  0  0  0  0  1  0  0
  -18.2670   -4.5862   22.1394 F   0  0  0  0  0  0  0  0  0  0  0  0
  -27.2940  -18.3234   17.8011 F   0  0  0  0  0  0  0  0  0  0  0  0
  -22.4847   -5.0236   24.2430 F   0  0  0  0  0  0  0  0  0  0  0  0
  -30.8481  -20.6232   21.2672 F   0  0  0  0  0  0  0  0  0  0  0  0
  -30.6986  -17.9189   21.0895 F   0  0  0  0  0  0  0  0  0  0  0  0
  1  2  1  0  0  0  0
  1  5  2  0  0  0  0
  2  6  2  0  0  0  0
  3  8  2  0  0  0  0
  3 16  1  0  0  0  0
  4  9  1  0  0  0  0
  4 16  2  0  0  0  0
  5 19  1  0  0  0  0
  6 21  1  0  0  0  0
  7 10  2  0  0  0  0
  7 20  1  0  0  0  0
  8 24  1  0  0  0  0
  9 24  2  0  0  0  0
 10 25  1  0  0  0  0
 11 12  2  0  0  0  0
 11 26  1  0  0  0  0
 12 27  1  0  0  0  0
 13 17  1  0  0  0  0
 13 28  2  0  0  0  0
 14 22  1  0  0  0  0
 14 25  2  0  0  0  0
 15 27  2  0  0  0  0
 15 29  1  0  0  0  0
 16 32  1  0  0  0  0
 17 30  2  0  0  0  0
 17 34  1  0  0  0  0
 18 32  1  0  0  0  0
 18 33  2  0  0  0  0
 18 35  1  0  0  0  0
 19 21  2  0  0  0  0
 19 42  1  0  0  0  0
 20 22  2  0  0  0  0
 20 43  1  0  0  0  0
 21 51  1  0  0  0  0
 22 44  1  0  0  0  0
 23 28  1  0  0  0  0
 23 31  2  0  0  0  0
 23 71  1  0  0  0  0
 24 84  1  0  0  0  0
 25 85  1  0  0  0  0
 26 29  2  0  0  0  0
 26 84  1  0  0  0  0
 27 86  1  0  0  0  0
 28 87  1  0  0  0  0
 29 88  1  0  0  0  0
 30 31  1  0  0  0  0
 30 89  1  0  0  0  0
 31 90  1  0  0  0  0
 32 65  2  0  0  0  0
 33 66  1  0  0  0  0
 33 69  1  0  0  0  0
 34 72  1  0  0  0  0
 34 76  2  0  0  0  0
 35 70  1  0  0  0  0
 35 77  2  0  0  0  0
 36 52  1  0  0  0  0
 36 73  1  0  0  0  0
 36 78  2  0  0  0  0
 37 54  1  0  0  0  0
 37 61  1  0  0  0  0
 37 79  2  0  0  0  0
 38 60  1  0  0  0  0
 38 61  1  0  0  0  0
 38 80  2  0  0  0  0
 39 62  1  0  0  0  0
 39 67  1  0  0  0  0
 39 81  2  0  0  0  0
 40 63  1  0  0  0  0
 40 74  1  0  0  0  0
 40 82  2  0  0  0  0
 41 68  1  0  0  0  0
 41 71  1  0  0  0  0
 41 83  2  0  0  0  0
 42 45  1  0  0  0  0
 43 52  1  0  0  0  0
 44 67  1  0  0  0  0
 45 47  1  0  0  0  0
 46 48  1  0  0  0  0
 46 49  1  0  0  0  0
 47 51  1  0  0  0  0
 48 53  1  0  0  0  0
 49 68  1  0  0  0  0
 50 53  1  0  0  0  0
 50 68  1  0  0  0  0
 51 73  1  0  0  0  0
 52 67  1  0  0  0  0
 53 66  1  0  0  0  0
 55 63  1  0  0  0  0
 56 64  1  0  0  0  0
 57 64  1  0  0  0  0
 58 64  1  0  0  0  0
 59 75  1  0  0  0  0
 60 85  1  0  0  0  0
 61 72  1  0  0  0  0
 62 64  1  0  0  0  0
 62 74  1  0  0  0  0
 63 75  1  0  0  0  0
 65 66  1  0  0  0  0
M  CHG  1  75   1
M  ISO  4  41 100  60 101  71 100  85 101
M  END
> <Batch ID>
0175

> <Smiles>
CNC(C)C(=O)NC(C(=O)N1Cc2cc([101O:1][101CH2:1]C(=O)C(NC(=O)c3cc(F)c([100NH:0][100C:0](=O)N4CCCC(n5nc(-c6ccc(Oc7ccc(F)cc7F)cc6)c(C(N)=O)c5N)C4)c(F)c3F)C(C)=O)ccc2CC1C(=O)NC1CCCc2ccccc21)C(C)(C)C

> <Shape>
0.328

> <Color>
0.089

> <Negative vol penalty>
0.000

$$$$

  -OEChem-04052304353D

 91 99  0     1  0  0  0  0  0999 V2000
  -27.6386  -36.6884   24.2717 C   0  0  0  0  0  0  0  0  0  0  0  0
  -28.1747  -35.5242   23.7306 C   0  0  0  0  0  0  0  0  0  0  0  0
  -24.4737  -11.4758   23.9542 C   0  0  0  0  0  0  0  0  0  0  0  0
  -24.2770  -13.8793   24.1008 C   0  0  0  0  0  0  0  0  0  0  0  0
  -26.4004  -36.6525   24.9115 C   0  0  0  0  0  0  0  0  0  0  0  0
  -27.4732  -34.3232   23.8300 C   0  0  0  0  0  0  0  0  0  0  0  0
  -27.3209  -29.7967   19.7077 C   0  0  0  0  0  0  0  0  0  0  0  0
  -24.0748  -11.3619   25.2859 C   0  0  0  0  0  0  0  0  0  0  0  0
  -23.8780  -13.7654   25.4326 C   0  0  0  0  0  0  0  0  0  0  0  0
  -28.0106  -28.5886   19.6153 C   0  0  0  0  0  0  0  0  0  0  0  0
  -22.7601  -10.4162   28.5406 C   0  0  0  0  0  0  0  0  0  0  0  0
  -21.8132   -9.4408   28.8527 C   0  0  0  0  0  0  0  0  0  0  0  0
  -29.4919  -18.8242   20.2899 C   0  0  0  0  0  0  0  0  0  0  0  0
  -26.1539  -27.4558   20.6587 C   0  0  0  0  0  0  0  0  0  0  0  0
  -31.7176  -17.9712   19.8955 C   0  0  0  0  0  0  0  0  0  0  0  0
  -20.2376  -10.4901   27.3515 C   0  0  0  0  0  0  0  0  0  0  0  0
  -24.5749  -12.7345   23.3617 C   0  0  0  0  0  0  0  0  0  0  0  0
  -30.0251  -20.0786   20.5861 C   0  0  0  0  0  0  0  0  0  0  0  0
  -24.1598  -12.8547   20.8476 C   0  0  0  0  0  0  0  0  0  0  0  0
  -25.6789  -35.4524   25.0103 C   0  0  0  0  0  0  0  0  0  0  0  0
  -26.0449  -29.8453   20.2872 C   0  0  0  0  0  0  0  0  0  0  0  0
  -26.2247  -34.2710   24.4729 C   0  0  0  0  0  0  0  0  0  0  0  0
  -25.4491  -28.6653   20.7549 C   0  0  0  0  0  0  0  0  0  0  0  0
  -30.3381  -17.7704   19.9447 C   0  0  0  0  0  0  0  0  0  0  0  0
  -23.7769  -12.5066   26.0251 C   0  0  0  0  0  0  0  0  0  0  0  0
  -27.4284  -27.4184   20.0934 C   0  0  0  0  0  0  0  0  0  0  0  0
  -22.4458  -11.4287   27.6340 C   0  0  0  0  0  0  0  0  0  0  0  0
  -20.5519   -9.4777   28.2582 C   0  0  0  0  0  0  0  0  0  0  0  0
  -32.2509  -19.2256   20.1915 C   0  0  0  0  0  0  0  0  0  0  0  0
  -21.1845  -11.4656   27.0395 C   0  0  0  0  0  0  0  0  0  0  0  0
  -31.4046  -20.2793   20.5368 C   0  0  0  0  0  0  0  0  0  0  0  0
  -24.9875  -12.8528   21.9862 C   0  0  0  0  0  0  0  0  0  0  0  0
  -25.0280  -12.9910   19.7921 C   0  0  0  0  0  0  0  0  0  0  0  0
  -29.1214  -21.1993   20.9529 C   0  0  0  0  0  0  0  0  0  0  0  0
  -22.7335  -12.7434   20.7524 C   0  0  0  0  0  0  0  0  0  0  0  0
  -24.7844  -31.2979   22.8180 C   0  0  0  0  0  0  0  0  0  0  0  0
  -29.0452  -24.3792   21.2375 C   0  0  0  0  0  0  0  0  0  0  0  0
  -22.0126  -30.0901   21.6430 C   0  0  0  0  0  0  0  0  0  0  0  0
  -20.4620  -27.7219   19.7367 C   0  0  0  0  0  0  0  0  0  0  0  0
  -30.4965  -15.3450   19.2826 C   0  0  0  0  0  0  0  0  0  0  0  0
  -24.3660  -35.4536   25.7526 C   0  0  0  0  0  0  0  0  0  0  0  0
  -25.3030  -31.1520   20.3551 C   0  0  0  0  0  0  0  0  0  0  0  0
  -24.0730  -28.6605   21.3672 C   0  0  0  0  0  0  0  0  0  0  0  0
  -23.5147  -34.2149   25.4864 C   0  0  0  0  0  0  0  0  0  0  0  0
  -29.5330  -12.0083   18.4981 C   0  0  0  0  0  0  0  0  0  0  0  0
  -24.3638  -32.9517   25.5874 C   0  0  0  0  0  0  0  0  0  0  0  0
  -28.1798  -11.8484   19.1949 C   0  0  0  0  0  0  0  0  0  0  0  0
  -30.4975  -12.8603   19.3212 C   0  0  0  0  0  0  0  0  0  0  0  0
  -28.6208  -14.0095   20.4287 C   0  0  0  0  0  0  0  0  0  0  0  0
  -25.4826  -32.9538   24.5388 C   0  0  1  0  0  0  0  0  0  0  0  0
  -24.2214  -31.1698   21.4308 C   0  0  1  0  0  0  0  0  0  0  0  0
  -27.5937  -13.2129   19.6077 C   0  0  2  0  0  0  0  0  0  0  0  0
  -18.1852  -26.9692   18.9971 C   0  0  0  0  0  0  0  0  0  0  0  0
  -21.5285  -28.8603   24.3931 C   0  0  0  0  0  0  0  0  0  0  0  0
  -19.7985  -27.3812   23.3502 C   0  0  0  0  0  0  0  0  0  0  0  0
  -19.4992  -29.8576   23.3245 C   0  0  0  0  0  0  0  0  0  0  0  0
  -21.1094  -28.1796   16.8853 C   0  0  0  0  0  0  0  0  0  0  0  0
  -27.8330  -25.2622   21.0117 C   0  0  0  0  0  0  0  0  0  1  0  0
  -29.3598  -23.7908   23.6445 C   0  0  0  0  0  0  0  0  0  0  0  0
  -28.8899  -23.2815   22.2821 C   0  0  2  0  0  0  0  0  0  0  0  0
  -21.2434  -28.8043   21.8276 C   0  0  1  0  0  0  0  0  0  0  0  0
  -19.3921  -27.8331   18.6655 C   0  0  2  0  0  0  0  0  0  0  0  0
  -20.5441  -28.7259   23.2141 C   0  0  0  0  0  0  0  0  0  0  0  0
  -29.1861  -22.7707   24.7520 C   0  0  0  0  0  0  0  0  0  0  0  0
  -26.2822  -12.9778   21.6828 N   0  0  0  0  0  0  0  0  0  0  0  0
  -26.2746  -13.0594   20.3413 N   0  0  0  0  0  0  0  0  0  0  0  0
  -23.3905  -29.9641   21.4169 N   0  0  0  0  0  0  0  0  0  0  0  0
  -29.8759  -14.1392   19.6719 N   0  0  0  0  0  0  0  0  0  0  0  0
  -24.8393  -13.0577   18.4571 N   0  0  0  0  0  0  0  0  0  0  0  0
  -21.9934  -12.6099   21.9351 N   0  0  0  0  0  0  0  0  0  0  0  0
  -29.7969  -16.4962   19.6431 N   0  0  0  0  0  0  0  0  0  0  0  0
  -29.6496  -22.1504   21.8157 N   0  0  0  0  0  0  0  0  0  0  0  0
  -24.9560  -32.6034   23.2371 N   0  0  0  0  0  0  0  0  0  0  0  0
  -20.3321  -28.7072   20.6925 N   0  0  0  0  0  0  0  0  0  0  0  0
  -19.9326  -27.3989   17.3464 N   0  3  0  0  0  0  0  0  0  0  0  0
  -27.9779  -21.2191   20.5052 O   0  0  0  0  0  0  0  0  0  0  0  0
  -22.1345  -12.7451   19.6502 O   0  0  0  0  0  0  0  0  0  0  0  0
  -25.0425  -30.2871   23.4610 O   0  0  0  0  0  0  0  0  0  0  0  0
  -30.1027  -24.5637   20.6344 O   0  0  0  0  0  0  0  0  0  0  0  0
  -21.4117  -31.1664   21.6903 O   0  0  0  0  0  0  0  0  0  0  0  0
  -21.3243  -26.8462   19.7284 O   0  0  0  0  0  0  0  0  0  0  0  0
  -31.5559  -15.3550   18.6504 O   0  0  0  0  0  0  0  0  0  0  0  0
  -23.3873  -12.3959   27.3245 O   0  0  0  0  0  0  0  0  0  0  0  0
  -28.0996  -26.2379   20.0051 O   0  0  0  0  0  0  0  0  0  1  0  0
  -19.6432   -8.5401   28.5569 F   0  0  0  0  0  0  0  0  0  0  0  0
  -33.5755  -19.4184   20.1443 F   0  0  0  0  0  0  0  0  0  0  0  0
  -20.8772  -12.4350   26.1668 F   0  0  0  0  0  0  0  0  0  0  0  0
  -31.9280  -21.4805   20.8197 F   0  0  0  0  0  0  0  0  0  0  0  0
  -29.5531  -23.2774   25.9482 F   0  0  0  0  0  0  0  0  0  0  0  0
  -27.9075  -22.3510   24.8501 F   0  0  0  0  0  0  0  0  0  0  0  0
  -29.9545  -21.6838   24.5154 F   0  0  0  0  0  0  0  0  0  0  0  0
  1  2  1  0  0  0  0
  1  5  2  0  0  0  0
  2  6  2  0  0  0  0
  3  8  2  0  0  0  0
  3 17  1  0  0  0  0
  4  9  1  0  0  0  0
  4 17  2  0  0  0  0
  5 20  1  0  0  0  0
  6 22  1  0  0  0  0
  7 10  2  0  0  0  0
  7 21  1  0  0  0  0
  8 25  1  0  0  0  0
  9 25  2  0  0  0  0
 10 26  1  0  0  0  0
 11 12  2  0  0  0  0
 11 27  1  0  0  0  0
 12 28  1  0  0  0  0
 13 18  1  0  0  0  0
 13 24  2  0  0  0  0
 14 23  1  0  0  0  0
 14 26  2  0  0  0  0
 15 24  1  0  0  0  0
 15 29  2  0  0  0  0
 16 28  2  0  0  0  0
 16 30  1  0  0  0  0
 17 32  1  0  0  0  0
 18 31  2  0  0  0  0
 18 34  1  0  0  0  0
 19 32  1  0  0  0  0
 19 33  2  0  0  0  0
 19 35  1  0  0  0  0
 20 22  2  0  0  0  0
 20 41  1  0  0  0  0
 21 23  2  0  0  0  0
 21 42  1  0  0  0  0
 22 50  1  0  0  0  0
 23 43  1  0  0  0  0
 24 71  1  0  0  0  0
 25 83  1  0  0  0  0
 26 84  1  0  0  0  0
 27 30  2  0  0  0  0
 27 83  1  0  0  0  0
 28 85  1  0  0  0  0
 29 31  1  0  0  0  0
 29 86  1  0  0  0  0
 30 87  1  0  0  0  0
 31 88  1  0  0  0  0
 32 65  2  0  0  0  0
 33 66  1  0  0  0  0
 33 69  1  0  0  0  0
 34 72  1  0  0  0  0
 34 76  2  0  0  0  0
 35 70  1  0  0  0  0
 35 77  2  0  0  0  0
 36 51  1  0  0  0  0
 36 73  1  0  0  0  0
 36 78  2  0  0  0  0
 37 58  1  0  0  0  0
 37 60  1  0  0  0  0
 37 79  2  0  0  0  0
 38 61  1  0  0  0  0
 38 67  1  0  0  0  0
 38 80  2  0  0  0  0
 39 62  1  0  0  0  0
 39 74  1  0  0  0  0
 39 81  2  0  0  0  0
 40 68  1  0  0  0  0
 40 71  1  0  0  0  0
 40 82  2  0  0  0  0
 41 44  1  0  0  0  0
 42 51  1  0  0  0  0
 43 67  1  0  0  0  0
 44 46  1  0  0  0  0
 45 47  1  0  0  0  0
 45 48  1  0  0  0  0
 46 50  1  0  0  0  0
 47 52  1  0  0  0  0
 48 68  1  0  0  0  0
 49 52  1  0  0  0  0
 49 68  1  0  0  0  0
 50 73  1  0  0  0  0
 51 67  1  0  0  0  0
 52 66  1  0  0  0  0
 53 62  1  0  0  0  0
 54 63  1  0  0  0  0
 55 63  1  0  0  0  0
 56 63  1  0  0  0  0
 57 75  1  0  0  0  0
 58 84  1  0  0  0  0
 59 60  1  0  0  0  0
 59 64  1  0  0  0  0
 60 72  1  0  0  0  0
 61 63  1  0  0  0  0
 61 74  1  0  0  0  0
 62 75  1  0  0  0  0
 64 89  1  0  0  0  0
 64 90  1  0  0  0  0
 64 91  1  0  0  0  0
 65 66  1  0  0  0  0
M  CHG  1  75   1
M  ISO  4  40 100  58 101  71 100  84 101
M  END
> <Batch ID>
0175

> <Smiles>
CNC(C)C(=O)NC(C(=O)N1Cc2cc([101O:1][101CH2:1]C(=O)C(CC(F)(F)F)NC(=O)c3cc([100NH:0][100C:0](=O)N4CCCC(n5nc(-c6ccc(Oc7ccc(F)cc7F)cc6)c(C(N)=O)c5N)C4)cc(F)c3F)ccc2CC1C(=O)NC1CCCc2ccccc21)C(C)(C)C

> <Shape>
0.284

> <Color>
0.102

> <Negative vol penalty>
0.000

$$$$

  -OEChem-04052304353D

 86 94  0     1  0  0  0  0  0999 V2000
  -24.6458  -21.7687   17.9365 C   0  0  0  0  0  0  0  0  0  0  0  0
  -25.6783  -20.8811   17.6512 C   0  0  0  0  0  0  0  0  0  0  0  0
  -27.4274  -28.9361   20.2788 C   0  0  0  0  0  0  0  0  0  0  0  0
  -25.5182  -27.5051   20.6584 C   0  0  0  0  0  0  0  0  0  0  0  0
  -23.9187  -21.6337   19.1185 C   0  0  0  0  0  0  0  0  0  0  0  0
  -25.9850  -19.8585   18.5482 C   0  0  0  0  0  0  0  0  0  0  0  0
  -28.3799  -13.1091   18.7136 C   0  0  0  0  0  0  0  0  0  0  0  0
  -26.5791  -30.0370   20.1619 C   0  0  0  0  0  0  0  0  0  0  0  0
  -24.6698  -28.6061   20.5416 C   0  0  0  0  0  0  0  0  0  0  0  0
  -29.3630  -12.3297   19.3217 C   0  0  0  0  0  0  0  0  0  0  0  0
  -24.9433  -33.2832   20.1222 C   0  0  0  0  0  0  0  0  0  0  0  0
  -25.3047  -34.4541   20.7886 C   0  0  0  0  0  0  0  0  0  0  0  0
  -27.9875  -12.1450   21.2948 C   0  0  0  0  0  0  0  0  0  0  0  0
  -25.2399  -33.2745   22.8961 C   0  0  0  0  0  0  0  0  0  0  0  0
  -29.4625  -18.5624   21.7169 C   0  0  0  0  0  0  0  0  0  0  0  0
  -26.8970  -27.6701   20.5270 C   0  0  0  0  0  0  0  0  0  0  0  0
  -28.3735  -26.0423   21.8224 C   0  0  0  0  0  0  0  0  0  0  0  0
  -24.2103  -20.6030   20.0259 C   0  0  0  0  0  0  0  0  0  0  0  0
  -27.1959  -13.4220   19.3967 C   0  0  0  0  0  0  0  0  0  0  0  0
  -25.2620  -19.7103   19.7440 C   0  0  0  0  0  0  0  0  0  0  0  0
  -26.9899  -12.9264   20.6921 C   0  0  0  0  0  0  0  0  0  0  0  0
  -30.3647  -16.3366   21.5890 C   0  0  0  0  0  0  0  0  0  0  0  0
  -25.2002  -29.8721   20.2933 C   0  0  0  0  0  0  0  0  0  0  0  0
  -29.1682  -11.8499   20.6135 C   0  0  0  0  0  0  0  0  0  0  0  0
  -24.7301  -32.1080   20.8427 C   0  0  0  0  0  0  0  0  0  0  0  0
  -25.4530  -34.4497   22.1755 C   0  0  0  0  0  0  0  0  0  0  0  0
  -24.8784  -32.1037   22.2297 C   0  0  0  0  0  0  0  0  0  0  0  0
  -29.7793  -17.3561   22.3315 C   0  0  0  0  0  0  0  0  0  0  0  0
  -27.7728  -26.5323   20.6473 C   0  0  0  0  0  0  0  0  0  0  0  0
  -29.7492  -18.6980   20.3681 C   0  0  0  0  0  0  0  0  0  0  0  0
  -30.6108  -16.5717   20.2459 C   0  0  0  0  0  0  0  0  0  0  0  0
  -29.1041  -24.9559   21.4073 C   0  0  0  0  0  0  0  0  0  0  0  0
  -28.2793  -26.5260   23.1689 C   0  0  0  0  0  0  0  0  0  0  0  0
  -25.8155  -16.1123   20.3767 C   0  0  0  0  0  0  0  0  0  0  0  0
  -23.3874  -14.1159   21.1775 C   0  0  0  0  0  0  0  0  0  0  0  0
  -31.7357  -14.2390   21.8396 C   0  0  0  0  0  0  0  0  0  0  0  0
  -22.3818  -10.9579   21.9915 C   0  0  0  0  0  0  0  0  0  0  0  0
  -29.6196  -20.2870   18.4175 C   0  0  0  0  0  0  0  0  0  0  0  0
  -23.4277  -20.5259   21.3128 C   0  0  0  0  0  0  0  0  0  0  0  0
  -26.1337  -14.2416   18.7168 C   0  0  0  0  0  0  0  0  0  0  0  0
  -25.7276  -13.2168   21.4608 C   0  0  0  0  0  0  0  0  0  0  0  0
  -23.5707  -19.1877   22.0334 C   0  0  0  0  0  0  0  0  0  0  0  0
  -30.2801  -23.3622   16.7491 C   0  0  0  0  0  0  0  0  0  0  0  0
  -25.0354  -18.7655   22.0896 C   0  0  0  0  0  0  0  0  0  0  0  0
  -29.7361  -24.4208   17.7112 C   0  0  0  0  0  0  0  0  0  0  0  0
  -29.4108  -22.1061   16.7375 C   0  0  0  0  0  0  0  0  0  0  0  0
  -28.6105  -22.5749   19.0198 C   0  0  0  0  0  0  0  0  0  0  0  0
  -25.6086  -18.5731   20.6803 C   0  0  1  0  0  0  0  0  0  0  0  0
  -25.1884  -14.9272   19.6984 C   0  0  1  0  0  0  0  0  0  0  0  0
  -29.4888  -23.8331   19.1144 C   0  0  2  0  0  0  0  0  0  0  0  0
  -20.3418   -9.6432   22.6298 C   0  0  0  0  0  0  0  0  0  0  0  0
  -32.0504  -10.0664   20.2053 C   0  0  0  0  0  0  0  0  0  0  0  0
  -23.5043  -15.3027   23.9860 C   0  0  0  0  0  0  0  0  0  0  0  0
  -22.1600  -13.3503   24.7916 C   0  0  0  0  0  0  0  0  0  0  0  0
  -21.1931  -14.9196   23.1108 C   0  0  0  0  0  0  0  0  0  0  0  0
  -22.6237   -9.2086   19.6165 C   0  0  0  0  0  0  0  0  0  0  0  0
  -31.7422  -13.0123   22.7436 C   0  0  0  0  0  0  0  0  0  0  0  0
  -32.2830  -11.7497   22.0672 C   0  0  0  0  0  0  0  0  0  0  0  0
  -23.0192  -13.3194   22.4059 C   0  0  1  0  0  0  0  0  0  0  0  0
  -21.2317  -10.1054   21.4865 C   0  0  2  0  0  0  0  0  0  0  0  0
  -31.4797  -11.3338   20.8287 C   0  0  2  0  0  0  0  0  0  1  0  0
  -22.4939  -14.2190   23.5601 C   0  0  0  0  0  0  0  0  0  0  0  0
  -28.0942  -25.8160   19.5667 N   0  0  0  0  0  0  0  0  0  0  0  0
  -30.3172  -17.7303   19.6140 N   0  0  0  0  0  0  0  0  0  0  0  0
  -28.9048  -24.8649   20.0611 N   0  0  0  0  0  0  0  0  0  0  0  0
  -24.7215  -14.0278   20.7554 N   0  0  0  0  0  0  0  0  0  0  0  0
  -29.2233  -21.6035   18.1003 N   0  0  0  0  0  0  0  0  0  0  0  0
  -29.8914  -24.0792   22.0661 N   0  0  0  0  0  0  0  0  0  0  0  0
  -27.4853  -27.6533   23.4199 N   0  0  0  0  0  0  0  0  0  0  0  0
  -30.6985  -15.0991   22.1892 N   0  0  0  0  0  0  0  0  0  0  0  0
  -29.4227  -19.9312   19.7514 N   0  0  0  0  0  0  0  0  0  0  0  0
  -25.1728  -17.3095   20.1256 N   0  0  0  0  0  0  0  0  0  0  0  0
  -22.0724  -12.3013   21.9636 N   0  0  0  0  0  0  0  0  0  0  0  0
  -21.7513   -8.9011   20.7790 N   0  3  0  0  0  0  0  0  0  0  0  0
  -28.8946  -25.9846   24.1185 O   0  0  0  0  0  0  0  0  0  0  0  0
  -26.8081  -15.9520   21.0773 O   0  0  0  0  0  0  0  0  0  0  0  0
  -22.5214  -14.7857   20.6091 O   0  0  0  0  0  0  0  0  0  0  0  0
  -32.5713  -14.4022   20.9567 O   0  0  0  0  0  0  0  0  0  0  0  0
  -23.4466  -10.4796   22.3760 O   0  0  0  0  0  0  0  0  0  0  0  0
  -30.1235  -19.5401   17.5748 O   0  0  0  0  0  0  0  0  0  0  0  0
  -24.3721  -30.9462   20.1796 O   0  0  0  0  0  0  0  0  0  0  0  0
  -30.1264  -11.0895   21.2097 O   0  0  0  0  0  0  0  0  0  1  0  0
  -25.8016  -35.5738   22.8152 F   0  0  0  0  0  0  0  0  0  0  0  0
  -24.6761  -30.9774   22.9271 F   0  0  0  0  0  0  0  0  0  0  0  0
  -29.5179  -17.1874   23.6353 F   0  0  0  0  0  0  0  0  0  0  0  0
  -31.1744  -15.6018   19.5071 F   0  0  0  0  0  0  0  0  0  0  0  0
  1  2  1  0  0  0  0
  1  5  2  0  0  0  0
  2  6  2  0  0  0  0
  3  8  2  0  0  0  0
  3 16  1  0  0  0  0
  4  9  1  0  0  0  0
  4 16  2  0  0  0  0
  5 18  1  0  0  0  0
  6 20  1  0  0  0  0
  7 10  2  0  0  0  0
  7 19  1  0  0  0  0
  8 23  1  0  0  0  0
  9 23  2  0  0  0  0
 10 24  1  0  0  0  0
 11 12  2  0  0  0  0
 11 25  1  0  0  0  0
 12 26  1  0  0  0  0
 13 21  1  0  0  0  0
 13 24  2  0  0  0  0
 14 26  2  0  0  0  0
 14 27  1  0  0  0  0
 15 28  2  0  0  0  0
 15 30  1  0  0  0  0
 16 29  1  0  0  0  0
 17 29  1  0  0  0  0
 17 32  2  0  0  0  0
 17 33  1  0  0  0  0
 18 20  2  0  0  0  0
 18 39  1  0  0  0  0
 19 21  2  0  0  0  0
 19 40  1  0  0  0  0
 20 48  1  0  0  0  0
 21 41  1  0  0  0  0
 22 28  1  0  0  0  0
 22 31  2  0  0  0  0
 22 70  1  0  0  0  0
 23 81  1  0  0  0  0
 24 82  1  0  0  0  0
 25 27  2  0  0  0  0
 25 81  1  0  0  0  0
 26 83  1  0  0  0  0
 27 84  1  0  0  0  0
 28 85  1  0  0  0  0
 29 63  2  0  0  0  0
 30 64  2  0  0  0  0
 30 71  1  0  0  0  0
 31 64  1  0  0  0  0
 31 86  1  0  0  0  0
 32 65  1  0  0  0  0
 32 68  1  0  0  0  0
 33 69  1  0  0  0  0
 33 75  2  0  0  0  0
 34 49  1  0  0  0  0
 34 72  1  0  0  0  0
 34 76  2  0  0  0  0
 35 59  1  0  0  0  0
 35 66  1  0  0  0  0
 35 77  2  0  0  0  0
 36 57  1  0  0  0  0
 36 70  1  0  0  0  0
 36 78  2  0  0  0  0
 37 60  1  0  0  0  0
 37 73  1  0  0  0  0
 37 79  2  0  0  0  0
 38 67  1  0  0  0  0
 38 71  1  0  0  0  0
 38 80  2  0  0  0  0
 39 42  1  0  0  0  0
 40 49  1  0  0  0  0
 41 66  1  0  0  0  0
 42 44  1  0  0  0  0
 43 45  1  0  0  0  0
 43 46  1  0  0  0  0
 44 48  1  0  0  0  0
 45 50  1  0  0  0  0
 46 67  1  0  0  0  0
 47 50  1  0  0  0  0
 47 67  1  0  0  0  0
 48 72  1  0  0  0  0
 49 66  1  0  0  0  0
 50 65  1  0  0  0  0
 51 60  1  0  0  0  0
 52 61  1  0  0  0  0
 53 62  1  0  0  0  0
 54 62  1  0  0  0  0
 55 62  1  0  0  0  0
 56 74  1  0  0  0  0
 57 58  1  0  0  0  0
 58 61  1  0  0  0  0
 59 62  1  0  0  0  0
 59 73  1  0  0  0  0
 60 74  1  0  0  0  0
 61 82  1  0  0  0  0
 63 65  1  0  0  0  0
M  CHG  1  74   1
M  ISO  4  38 100  61 101  71 100  82 101
M  END
> <Batch ID>
0175

> <Smiles>
CNC(C)C(=O)NC(C(=O)N1Cc2cc([101O:1][101CH:1](C)CCC(=O)Nc3c(F)cc([100NH:0][100C:0](=O)N4CCCC(n5nc(-c6ccc(Oc7ccc(F)cc7F)cc6)c(C(N)=O)c5N)C4)nc3F)ccc2CC1C(=O)NC1CCCc2ccccc21)C(C)(C)C

> <Shape>
0.276

> <Color>
0.084

> <Negative vol penalty>
0.000

$$$$

  -OEChem-04052304353D

 84 92  0     1  0  0  0  0  0999 V2000
  -17.9694  -26.4471   22.4730 C   0  0  0  0  0  0  0  0  0  0  0  0
  -19.0815  -26.2493   21.6609 C   0  0  0  0  0  0  0  0  0  0  0  0
  -25.2472  -13.2967   21.8713 C   0  0  0  0  0  0  0  0  0  0  0  0
  -26.6756  -13.0751   19.9354 C   0  0  0  0  0  0  0  0  0  0  0  0
  -17.9607  -27.4888   23.3997 C   0  0  0  0  0  0  0  0  0  0  0  0
  -20.1852  -27.0939   21.7742 C   0  0  0  0  0  0  0  0  0  0  0  0
  -26.0752  -25.5685   21.0765 C   0  0  0  0  0  0  0  0  0  0  0  0
  -24.3545  -12.3791   21.3177 C   0  0  0  0  0  0  0  0  0  0  0  0
  -25.7828  -12.1574   19.3818 C   0  0  0  0  0  0  0  0  0  0  0  0
  -26.9563  -25.6954   20.0035 C   0  0  0  0  0  0  0  0  0  0  0  0
  -24.1255   -9.0232   20.9737 C   0  0  0  0  0  0  0  0  0  0  0  0
  -23.6245   -8.0227   21.8066 C   0  0  0  0  0  0  0  0  0  0  0  0
  -27.7893  -27.7569   20.9390 C   0  0  0  0  0  0  0  0  0  0  0  0
  -21.3779   -8.8188   21.4116 C   0  0  0  0  0  0  0  0  0  0  0  0
  -32.0829  -20.4112   16.1362 C   0  0  0  0  0  0  0  0  0  0  0  0
  -26.4078  -13.6448   21.1802 C   0  0  0  0  0  0  0  0  0  0  0  0
  -28.4251  -14.3141   22.5909 C   0  0  0  0  0  0  0  0  0  0  0  0
  -19.0688  -28.3406   23.5311 C   0  0  0  0  0  0  0  0  0  0  0  0
  -26.0369  -26.5422   22.0850 C   0  0  0  0  0  0  0  0  0  0  0  0
  -20.1909  -28.1488   22.7026 C   0  0  0  0  0  0  0  0  0  0  0  0
  -26.9087  -27.6388   22.0251 C   0  0  0  0  0  0  0  0  0  0  0  0
  -24.6223  -11.8094   20.0730 C   0  0  0  0  0  0  0  0  0  0  0  0
  -27.8115  -26.7912   19.9331 C   0  0  0  0  0  0  0  0  0  0  0  0
  -23.2527   -9.9215   20.3598 C   0  0  0  0  0  0  0  0  0  0  0  0
  -22.2507   -7.9205   22.0255 C   0  0  0  0  0  0  0  0  0  0  0  0
  -21.8789   -9.8193   20.5787 C   0  0  0  0  0  0  0  0  0  0  0  0
  -27.3301  -14.5931   21.7513 C   0  0  0  0  0  0  0  0  0  0  0  0
  -31.8027  -21.6470   16.6807 C   0  0  0  0  0  0  0  0  0  0  0  0
  -28.9765  -15.5438   22.8560 C   0  0  0  0  0  0  0  0  0  0  0  0
  -30.5346  -20.4183   17.9815 C   0  0  0  0  0  0  0  0  0  0  0  0
  -29.5961  -25.9303   18.6902 C   0  0  0  0  0  0  0  0  0  1  0  0
  -28.9012  -13.0559   23.0868 C   0  0  0  0  0  0  0  0  0  0  0  0
  -30.4898  -25.9507   17.6949 C   0  0  0  0  0  0  0  0  0  0  0  0
  -31.4662  -24.8273   17.6086 C   0  0  0  0  0  0  0  0  0  0  0  0
  -23.8327  -28.5554   23.1767 C   0  0  0  0  0  0  0  0  0  0  0  0
  -26.0855  -29.1913   25.4222 C   0  0  0  0  0  0  0  0  0  0  0  0
  -29.3842  -29.1943   26.2971 C   0  0  0  0  0  0  0  0  0  0  0  0
  -28.9556  -20.7463   19.9168 C   0  0  0  0  0  0  0  0  0  0  0  0
  -18.9943  -29.4821   24.5141 C   0  0  0  0  0  0  0  0  0  0  0  0
  -25.0995  -26.3769   23.2496 C   0  0  0  0  0  0  0  0  0  0  0  0
  -26.9210  -28.7012   23.0926 C   0  0  0  0  0  0  0  0  0  0  0  0
  -20.3527  -30.1015   24.8323 C   0  0  0  0  0  0  0  0  0  0  0  0
  -27.8026  -20.1711   23.2360 C   0  0  0  0  0  0  0  0  0  0  0  0
  -21.1419  -30.3450   23.5498 C   0  0  0  0  0  0  0  0  0  0  0  0
  -27.6561  -18.6495   23.3103 C   0  0  0  0  0  0  0  0  0  0  0  0
  -27.4101  -20.7123   21.8624 C   0  0  0  0  0  0  0  0  0  0  0  0
  -27.9427  -18.5537   20.8012 C   0  0  0  0  0  0  0  0  0  0  0  0
  -21.4172  -29.0287   22.8131 C   0  0  1  0  0  0  0  0  0  0  0  0
  -24.7853  -27.6926   23.9550 C   0  0  1  0  0  0  0  0  0  0  0  0
  -28.3885  -17.9553   22.1453 C   0  0  2  0  0  0  0  0  0  0  0  0
  -30.9213  -29.8069   28.1838 C   0  0  0  0  0  0  0  0  0  0  0  0
  -25.7964  -32.1410   24.6969 C   0  0  0  0  0  0  0  0  0  0  0  0
  -27.9597  -32.5724   25.8810 C   0  0  0  0  0  0  0  0  0  0  0  0
  -26.0024  -31.6846   27.1471 C   0  0  0  0  0  0  0  0  0  0  0  0
  -30.5060  -24.3151   15.3546 C   0  0  0  0  0  0  0  0  0  0  0  0
  -30.3234  -26.4033   26.5919 C   0  0  0  0  0  0  0  0  0  0  0  0
  -32.3750  -22.9572   16.2225 C   0  0  0  0  0  0  0  0  0  0  0  0
  -27.2311  -30.1673   25.5408 C   0  0  1  0  0  0  0  0  0  0  0  0
  -30.0961  -28.7013   27.5439 C   0  0  2  0  0  0  0  0  0  0  0  0
  -26.7461  -31.6225   25.7952 C   0  0  0  0  0  0  0  0  0  0  0  0
  -27.1924  -15.8976   21.4998 N   0  0  0  0  0  0  0  0  0  0  0  0
  -30.9148  -21.6530   17.7387 N   0  0  0  0  0  0  0  0  0  0  0  0
  -28.2080  -16.4493   22.1854 N   0  0  0  0  0  0  0  0  0  0  0  0
  -25.9817  -28.4982   24.2079 N   0  0  0  0  0  0  0  0  0  0  0  0
  -28.1466  -20.0108   20.8087 N   0  0  0  0  0  0  0  0  0  0  0  0
  -30.0389  -15.9280   23.5949 N   0  0  0  0  0  0  0  0  0  0  0  0
  -28.2174  -11.8899   22.7166 N   0  0  0  0  0  0  0  0  0  0  0  0
  -29.6332  -19.9689   18.9781 N   0  0  0  0  0  0  0  0  0  0  0  0
  -22.5004  -28.3102   23.4494 N   0  0  0  0  0  0  0  0  0  0  0  0
  -28.1104  -29.6405   26.5790 N   0  0  0  0  0  0  0  0  0  0  0  0
  -31.4507  -24.0621   16.4409 N   0  0  0  0  0  0  0  0  0  0  0  0
  -31.0063  -27.5702   27.2076 N   0  3  0  0  0  0  0  0  0  0  0  0
  -29.8936  -12.9698   23.8492 O   0  0  0  0  0  0  0  0  0  0  0  0
  -32.2467  -24.6445   18.5452 O   0  0  0  0  0  0  0  0  0  0  0  0
  -24.2738  -29.3833   22.3882 O   0  0  0  0  0  0  0  0  0  0  0  0
  -25.3155  -29.0440   26.3746 O   0  0  0  0  0  0  0  0  0  0  0  0
  -29.9073  -29.1881   25.1850 O   0  0  0  0  0  0  0  0  0  0  0  0
  -29.0622  -21.9727   19.9983 O   0  0  0  0  0  0  0  0  0  0  0  0
  -30.5872  -26.9806   16.7861 O   0  0  0  0  0  0  0  0  0  0  0  0
  -23.7515  -10.9137   19.5326 O   0  0  0  0  0  0  0  0  0  0  0  0
  -28.6719  -26.9178   18.8865 O   0  0  0  0  0  0  0  0  0  1  0  0
  -21.7697   -6.9587   22.8241 F   0  0  0  0  0  0  0  0  0  0  0  0
  -21.0353  -10.6787   19.9908 F   0  0  0  0  0  0  0  0  0  0  0  0
  -31.2059  -19.2002   16.9762 S   0  0  0  0  0  0  0  0  0  0  0  0
  1  2  1  0  0  0  0
  1  5  2  0  0  0  0
  2  6  2  0  0  0  0
  3  8  2  0  0  0  0
  3 16  1  0  0  0  0
  4  9  1  0  0  0  0
  4 16  2  0  0  0  0
  5 18  1  0  0  0  0
  6 20  1  0  0  0  0
  7 10  2  0  0  0  0
  7 19  1  0  0  0  0
  8 22  1  0  0  0  0
  9 22  2  0  0  0  0
 10 23  1  0  0  0  0
 11 12  2  0  0  0  0
 11 24  1  0  0  0  0
 12 25  1  0  0  0  0
 13 21  1  0  0  0  0
 13 23  2  0  0  0  0
 14 25  2  0  0  0  0
 14 26  1  0  0  0  0
 15 28  2  0  0  0  0
 15 84  1  0  0  0  0
 16 27  1  0  0  0  0
 17 27  1  0  0  0  0
 17 29  2  0  0  0  0
 17 32  1  0  0  0  0
 18 20  2  0  0  0  0
 18 39  1  0  0  0  0
 19 21  2  0  0  0  0
 19 40  1  0  0  0  0
 20 48  1  0  0  0  0
 21 41  1  0  0  0  0
 22 80  1  0  0  0  0
 23 81  1  0  0  0  0
 24 26  2  0  0  0  0
 24 80  1  0  0  0  0
 25 82  1  0  0  0  0
 26 83  1  0  0  0  0
 27 61  2  0  0  0  0
 28 57  1  0  0  0  0
 28 62  1  0  0  0  0
 29 63  1  0  0  0  0
 29 66  1  0  0  0  0
 30 62  2  0  0  0  0
 30 68  1  0  0  0  0
 30 84  1  0  0  0  0
 31 33  2  0  0  0  0
 31 81  1  0  0  0  0
 32 67  1  0  0  0  0
 32 73  2  0  0  0  0
 33 34  1  0  0  0  0
 33 79  1  0  0  0  0
 34 71  1  0  0  0  0
 34 74  2  0  0  0  0
 35 49  1  0  0  0  0
 35 69  1  0  0  0  0
 35 75  2  0  0  0  0
 36 58  1  0  0  0  0
 36 64  1  0  0  0  0
 36 76  2  0  0  0  0
 37 59  1  0  0  0  0
 37 70  1  0  0  0  0
 37 77  2  0  0  0  0
 38 65  1  0  0  0  0
 38 68  1  0  0  0  0
 38 78  2  0  0  0  0
 39 42  1  0  0  0  0
 40 49  1  0  0  0  0
 41 64  1  0  0  0  0
 42 44  1  0  0  0  0
 43 45  1  0  0  0  0
 43 46  1  0  0  0  0
 44 48  1  0  0  0  0
 45 50  1  0  0  0  0
 46 65  1  0  0  0  0
 47 50  1  0  0  0  0
 47 65  1  0  0  0  0
 48 69  1  0  0  0  0
 49 64  1  0  0  0  0
 50 63  1  0  0  0  0
 51 59  1  0  0  0  0
 52 60  1  0  0  0  0
 53 60  1  0  0  0  0
 54 60  1  0  0  0  0
 55 71  1  0  0  0  0
 56 72  1  0  0  0  0
 57 71  1  0  0  0  0
 58 60  1  0  0  0  0
 58 70  1  0  0  0  0
 59 72  1  0  0  0  0
 61 63  1  0  0  0  0
M  CHG  1  72   1
M  ISO  4  31 101  38 100  68 100  81 101
M  END
> <Batch ID>
0175

> <Smiles>
CNC(C)C(=O)NC(C(=O)N1Cc2cc([101O:1][101CH2:1]C(=O)C(=O)N(C)Cc3csc([100NH:0][100C:0](=O)N4CCCC(n5nc(-c6ccc(Oc7ccc(F)cc7F)cc6)c(C(N)=O)c5N)C4)n3)ccc2CC1C(=O)NC1CCCc2ccccc21)C(C)(C)C

> <Shape>
0.280

> <Color>
0.071

> <Negative vol penalty>
0.000

$$$$

  -OEChem-04052304353D

 88 96  0     1  0  0  0  0  0999 V2000
  -17.9580  -26.2479   25.2035 C   0  0  0  0  0  0  0  0  0  0  0  0
  -19.1916  -26.3189   24.5643 C   0  0  0  0  0  0  0  0  0  0  0  0
  -24.6215   -9.0698   22.2792 C   0  0  0  0  0  0  0  0  0  0  0  0
  -23.7409  -10.2217   20.3466 C   0  0  0  0  0  0  0  0  0  0  0  0
  -17.0355  -27.2824   25.0529 C   0  0  0  0  0  0  0  0  0  0  0  0
  -19.5029  -27.4241   23.7730 C   0  0  0  0  0  0  0  0  0  0  0  0
  -24.1832  -29.1629   24.6197 C   0  0  0  0  0  0  0  0  0  0  0  0
  -23.5628   -8.1635   22.2215 C   0  0  0  0  0  0  0  0  0  0  0  0
  -22.6822   -9.3153   20.2888 C   0  0  0  0  0  0  0  0  0  0  0  0
  -25.2382  -28.4597   24.0400 C   0  0  0  0  0  0  0  0  0  0  0  0
  -22.7186   -5.4311   20.4175 C   0  0  0  0  0  0  0  0  0  0  0  0
  -23.0164   -4.0764   20.5643 C   0  0  0  0  0  0  0  0  0  0  0  0
  -25.3490  -30.0961   22.2710 C   0  0  0  0  0  0  0  0  0  0  0  0
  -28.7961  -19.5724   19.9845 C   0  0  0  0  0  0  0  0  0  0  0  0
  -21.5876   -3.9731   22.5098 C   0  0  0  0  0  0  0  0  0  0  0  0
  -24.7105  -10.0990   21.3418 C   0  0  0  0  0  0  0  0  0  0  0  0
  -27.0542  -10.9246   20.7648 C   0  0  0  0  0  0  0  0  0  0  0  0
  -17.3395  -28.4053   24.2672 C   0  0  0  0  0  0  0  0  0  0  0  0
  -23.6951  -30.3340   24.0225 C   0  0  0  0  0  0  0  0  0  0  0  0
  -18.5831  -28.4740   23.6107 C   0  0  0  0  0  0  0  0  0  0  0  0
  -24.2893  -30.8137   22.8466 C   0  0  0  0  0  0  0  0  0  0  0  0
  -29.0195  -18.2080   19.8003 C   0  0  0  0  0  0  0  0  0  0  0  0
  -29.2298  -20.4862   19.0240 C   0  0  0  0  0  0  0  0  0  0  0  0
  -22.5932   -8.2862   21.2263 C   0  0  0  0  0  0  0  0  0  0  0  0
  -25.8194  -28.9246   22.8639 C   0  0  0  0  0  0  0  0  0  0  0  0
  -21.8554   -6.0569   21.3169 C   0  0  0  0  0  0  0  0  0  0  0  0
  -22.4509   -3.3473   21.6104 C   0  0  0  0  0  0  0  0  0  0  0  0
  -21.2899   -5.3279   22.3630 C   0  0  0  0  0  0  0  0  0  0  0  0
  -29.6767  -17.7573   18.6555 C   0  0  0  0  0  0  0  0  0  0  0  0
  -29.8871  -20.0355   17.8792 C   0  0  0  0  0  0  0  0  0  0  0  0
  -30.1105  -18.6710   17.6949 C   0  0  0  0  0  0  0  0  0  0  0  0
  -25.8035  -11.0359   21.4013 C   0  0  0  0  0  0  0  0  0  0  0  0
  -27.7298  -12.0621   21.1339 C   0  0  0  0  0  0  0  0  0  0  0  0
  -27.5601   -9.8858   19.9158 C   0  0  0  0  0  0  0  0  0  0  0  0
  -20.9051  -31.2286   22.7899 C   0  0  0  0  0  0  0  0  0  0  0  0
  -28.2706  -23.9052   20.2425 C   0  0  0  0  0  0  0  0  0  0  0  0
  -27.5234  -26.1305   21.3114 C   0  0  0  0  0  0  0  0  0  0  0  0
  -22.3738  -34.1116   22.5591 C   0  0  0  0  0  0  0  0  0  0  0  0
  -25.2924  -35.8675   22.3464 C   0  0  0  0  0  0  0  0  0  0  0  0
  -27.9123  -17.5640   21.9695 C   0  0  0  0  0  0  0  0  0  0  0  0
  -16.2918  -29.4766   24.0960 C   0  0  0  0  0  0  0  0  0  0  0  0
  -22.5739  -31.0956   24.6749 C   0  0  0  0  0  0  0  0  0  0  0  0
  -23.8156  -32.0768   22.1768 C   0  0  0  0  0  0  0  0  0  0  0  0
  -16.8455  -30.7872   23.5427 C   0  0  0  0  0  0  0  0  0  0  0  0
  -26.6277  -15.5630   24.6196 C   0  0  0  0  0  0  0  0  0  0  0  0
  -17.7606  -30.5197   22.3520 C   0  0  0  0  0  0  0  0  0  0  0  0
  -26.4016  -14.1977   23.9662 C   0  0  0  0  0  0  0  0  0  0  0  0
  -26.3066  -16.7098   23.6628 C   0  0  0  0  0  0  0  0  0  0  0  0
  -26.7618  -15.2782   21.7102 C   0  0  0  0  0  0  0  0  0  0  0  0
  -18.9674  -29.6680   22.7640 C   0  0  1  0  0  0  0  0  0  0  0  0
  -21.8187  -31.9966   23.7027 C   0  0  1  0  0  0  0  0  0  0  0  0
  -27.1341  -14.0918   22.6143 C   0  0  2  0  0  0  0  0  0  0  0  0
  -26.1721  -38.2079   22.1308 C   0  0  0  0  0  0  0  0  0  0  0  0
  -21.6099  -34.1241   19.6051 C   0  0  0  0  0  0  0  0  0  0  0  0
  -23.2862  -35.9497   19.2509 C   0  0  0  0  0  0  0  0  0  0  0  0
  -21.3373  -36.3243   20.7623 C   0  0  0  0  0  0  0  0  0  0  0  0
  -26.7363  -35.6861   24.9235 C   0  0  0  0  0  0  0  0  0  0  0  0
  -27.5942  -24.6189   21.3976 C   0  0  0  0  0  0  0  0  0  0  0  0
  -28.3437  -22.3962   20.3627 C   0  0  0  0  0  0  0  0  0  0  0  0
  -26.8765  -26.8268   22.4930 C   0  0  0  0  0  0  0  0  0  1  0  0
  -23.2127  -34.8033   21.5118 C   0  0  1  0  0  0  0  0  0  0  0  0
  -25.7866  -37.0941   23.0919 C   0  0  2  0  0  0  0  0  0  0  0  0
  -22.3694  -35.2754   20.2939 C   0  0  0  0  0  0  0  0  0  0  0  0
  -25.6888  -12.1557   22.1204 N   0  0  0  0  0  0  0  0  0  0  0  0
  -26.8761  -12.7583   21.9380 N   0  0  0  0  0  0  0  0  0  0  0  0
  -22.7125  -32.7825   22.8497 N   0  0  0  0  0  0  0  0  0  0  0  0
  -27.0393  -16.5449   22.4055 N   0  0  0  0  0  0  0  0  0  0  0  0
  -28.9649  -12.5246   20.8459 N   0  0  0  0  0  0  0  0  0  0  0  0
  -26.7342   -8.7879   19.6387 N   0  0  0  0  0  0  0  0  0  0  0  0
  -28.5787  -17.2816   20.7776 N   0  0  0  0  0  0  0  0  0  0  0  0
  -29.0096  -21.8432   19.2110 N   0  0  0  0  0  0  0  0  0  0  0  0
  -19.9489  -30.4806   23.4500 N   0  0  0  0  0  0  0  0  0  0  0  0
  -23.9214  -35.8768   22.2001 N   0  0  0  0  0  0  0  0  0  0  0  0
  -26.9790  -36.7526   23.9181 N   0  3  0  0  0  0  0  0  0  0  0  0
  -28.7164   -9.9221   19.4309 O   0  0  0  0  0  0  0  0  0  0  0  0
  -21.0556  -31.3098   21.5764 O   0  0  0  0  0  0  0  0  0  0  0  0
  -28.7620  -24.5133   19.2927 O   0  0  0  0  0  0  0  0  0  0  0  0
  -27.9273  -26.7591   20.3345 O   0  0  0  0  0  0  0  0  0  0  0  0
  -21.4564  -34.7302   23.1045 O   0  0  0  0  0  0  0  0  0  0  0  0
  -26.0474  -34.9909   21.9319 O   0  0  0  0  0  0  0  0  0  0  0  0
  -28.0786  -18.5985   22.6207 O   0  0  0  0  0  0  0  0  0  0  0  0
  -21.5602   -7.4018   21.1694 O   0  0  0  0  0  0  0  0  0  0  0  0
  -26.8489  -28.2398   22.2956 O   0  0  0  0  0  0  0  0  0  1  0  0
  -22.7357   -2.0460   21.7503 F   0  0  0  0  0  0  0  0  0  0  0  0
  -20.4590   -5.9233   23.2295 F   0  0  0  0  0  0  0  0  0  0  0  0
  -29.8973  -16.4482   18.4681 F   0  0  0  0  0  0  0  0  0  0  0  0
  -30.3088  -20.9047   16.9497 F   0  0  0  0  0  0  0  0  0  0  0  0
  -30.7435  -18.2383   16.5967 F   0  0  0  0  0  0  0  0  0  0  0  0
  1  2  1  0  0  0  0
  1  5  2  0  0  0  0
  2  6  2  0  0  0  0
  3  8  2  0  0  0  0
  3 16  1  0  0  0  0
  4  9  1  0  0  0  0
  4 16  2  0  0  0  0
  5 18  1  0  0  0  0
  6 20  1  0  0  0  0
  7 10  2  0  0  0  0
  7 19  1  0  0  0  0
  8 24  1  0  0  0  0
  9 24  2  0  0  0  0
 10 25  1  0  0  0  0
 11 12  2  0  0  0  0
 11 26  1  0  0  0  0
 12 27  1  0  0  0  0
 13 21  1  0  0  0  0
 13 25  2  0  0  0  0
 14 22  2  0  0  0  0
 14 23  1  0  0  0  0
 15 27  2  0  0  0  0
 15 28  1  0  0  0  0
 16 32  1  0  0  0  0
 17 32  1  0  0  0  0
 17 33  2  0  0  0  0
 17 34  1  0  0  0  0
 18 20  2  0  0  0  0
 18 41  1  0  0  0  0
 19 21  2  0  0  0  0
 19 42  1  0  0  0  0
 20 50  1  0  0  0  0
 21 43  1  0  0  0  0
 22 29  1  0  0  0  0
 22 70  1  0  0  0  0
 23 30  2  0  0  0  0
 23 71  1  0  0  0  0
 24 82  1  0  0  0  0
 25 83  1  0  0  0  0
 26 28  2  0  0  0  0
 26 82  1  0  0  0  0
 27 84  1  0  0  0  0
 28 85  1  0  0  0  0
 29 31  2  0  0  0  0
 29 86  1  0  0  0  0
 30 31  1  0  0  0  0
 30 87  1  0  0  0  0
 31 88  1  0  0  0  0
 32 64  2  0  0  0  0
 33 65  1  0  0  0  0
 33 68  1  0  0  0  0
 34 69  1  0  0  0  0
 34 75  2  0  0  0  0
 35 51  1  0  0  0  0
 35 72  1  0  0  0  0
 35 76  2  0  0  0  0
 36 58  1  0  0  0  0
 36 59  1  0  0  0  0
 36 77  2  0  0  0  0
 37 58  1  0  0  0  0
 37 60  1  0  0  0  0
 37 78  2  0  0  0  0
 38 61  1  0  0  0  0
 38 66  1  0  0  0  0
 38 79  2  0  0  0  0
 39 62  1  0  0  0  0
 39 73  1  0  0  0  0
 39 80  2  0  0  0  0
 40 67  1  0  0  0  0
 40 70  1  0  0  0  0
 40 81  2  0  0  0  0
 41 44  1  0  0  0  0
 42 51  1  0  0  0  0
 43 66  1  0  0  0  0
 44 46  1  0  0  0  0
 45 47  1  0  0  0  0
 45 48  1  0  0  0  0
 46 50  1  0  0  0  0
 47 52  1  0  0  0  0
 48 67  1  0  0  0  0
 49 52  1  0  0  0  0
 49 67  1  0  0  0  0
 50 72  1  0  0  0  0
 51 66  1  0  0  0  0
 52 65  1  0  0  0  0
 53 62  1  0  0  0  0
 54 63  1  0  0  0  0
 55 63  1  0  0  0  0
 56 63  1  0  0  0  0
 57 74  1  0  0  0  0
 59 71  1  0  0  0  0
 60 83  1  0  0  0  0
 61 63  1  0  0  0  0
 61 73  1  0  0  0  0
 62 74  1  0  0  0  0
 64 65  1  0  0  0  0
M  CHG  1  74   1
M  ISO  4  40 100  60 101  70 100  83 101
M  END
> <Batch ID>
0175

> <Smiles>
CNC(C)C(=O)NC(C(=O)N1Cc2cc([101O:1][101CH2:1]C(=O)CC(=O)CNc3cc([100NH:0][100C:0](=O)N4CCCC(n5nc(-c6ccc(Oc7ccc(F)cc7F)cc6)c(C(N)=O)c5N)C4)c(F)c(F)c3F)ccc2CC1C(=O)NC1CCCc2ccccc21)C(C)(C)C

> <Shape>
0.260

> <Color>
0.095

> <Negative vol penalty>
0.000

$$$$

  -OEChem-04052304353D

 89 97  0     1  0  0  0  0  0999 V2000
  -24.0582  -35.3810   14.5624 C   0  0  0  0  0  0  0  0  0  0  0  0
  -24.0848  -34.0214   14.8557 C   0  0  0  0  0  0  0  0  0  0  0  0
  -23.5113   -9.1337   20.3658 C   0  0  0  0  0  0  0  0  0  0  0  0
  -23.1494  -10.9347   21.9350 C   0  0  0  0  0  0  0  0  0  0  0  0
  -25.0000  -36.2350   15.1348 C   0  0  0  0  0  0  0  0  0  0  0  0
  -25.0539  -33.5148   15.7210 C   0  0  0  0  0  0  0  0  0  0  0  0
  -24.3914  -28.9033   19.6960 C   0  0  0  0  0  0  0  0  0  0  0  0
  -22.6107   -8.3369   21.0726 C   0  0  0  0  0  0  0  0  0  0  0  0
  -22.2488  -10.1379   22.6418 C   0  0  0  0  0  0  0  0  0  0  0  0
  -24.7318  -27.5528   19.6312 C   0  0  0  0  0  0  0  0  0  0  0  0
  -22.6142   -6.4774   23.8951 C   0  0  0  0  0  0  0  0  0  0  0  0
  -22.9817   -5.1566   24.1519 C   0  0  0  0  0  0  0  0  0  0  0  0
  -26.7905  -28.0220   20.7977 C   0  0  0  0  0  0  0  0  0  0  0  0
  -31.0330  -17.8887   20.2681 C   0  0  0  0  0  0  0  0  0  0  0  0
  -21.0482   -4.3808   22.9284 C   0  0  0  0  0  0  0  0  0  0  0  0
  -28.9615  -18.2666   19.1624 C   0  0  0  0  0  0  0  0  0  0  0  0
  -23.7807  -10.4327   20.7970 C   0  0  0  0  0  0  0  0  0  0  0  0
  -24.4204  -12.1274   19.0008 C   0  0  0  0  0  0  0  0  0  0  0  0
  -25.9751  -35.7402   16.0151 C   0  0  0  0  0  0  0  0  0  0  0  0
  -25.2545  -29.8265   20.3036 C   0  0  0  0  0  0  0  0  0  0  0  0
  -26.0104  -34.3628   16.3047 C   0  0  0  0  0  0  0  0  0  0  0  0
  -26.4576  -29.3832   20.8712 C   0  0  0  0  0  0  0  0  0  0  0  0
  -29.8872  -17.3715   19.6740 C   0  0  0  0  0  0  0  0  0  0  0  0
  -21.9794   -8.8390   22.2106 C   0  0  0  0  0  0  0  0  0  0  0  0
  -25.9328  -27.1125   20.1795 C   0  0  0  0  0  0  0  0  0  0  0  0
  -21.4636   -6.7499   23.1551 C   0  0  0  0  0  0  0  0  0  0  0  0
  -22.1988   -4.1083   23.6685 C   0  0  0  0  0  0  0  0  0  0  0  0
  -31.2155  -19.2656   20.3317 C   0  0  0  0  0  0  0  0  0  0  0  0
  -20.6806   -5.7016   22.6717 C   0  0  0  0  0  0  0  0  0  0  0  0
  -24.7113  -11.2561   20.0676 C   0  0  0  0  0  0  0  0  0  0  0  0
  -30.2304  -20.0759   19.7905 C   0  0  0  0  0  0  0  0  0  0  0  0
  -25.6352  -12.6699   18.6595 C   0  0  0  0  0  0  0  0  0  0  0  0
  -23.1644  -12.4202   18.3743 C   0  0  0  0  0  0  0  0  0  0  0  0
  -30.3693  -21.5546   19.8268 C   0  0  0  0  0  0  0  0  0  0  0  0
  -26.8496  -32.3924   19.3157 C   0  0  0  0  0  0  0  0  0  0  0  0
  -27.8849  -24.1792   19.3163 C   0  0  0  0  0  0  0  0  0  0  0  0
  -27.5686  -32.6772   22.4660 C   0  0  0  0  0  0  0  0  0  0  0  0
  -27.9272  -31.1647   25.5042 C   0  0  0  0  0  0  0  0  0  0  0  0
  -30.5123  -14.9620   20.0607 C   0  0  0  0  0  0  0  0  0  0  0  0
  -27.0014  -36.6945   16.5724 C   0  0  0  0  0  0  0  0  0  0  0  0
  -24.8604  -31.2756   20.3889 C   0  0  0  0  0  0  0  0  0  0  0  0
  -27.4096  -30.3309   21.5524 C   0  0  0  0  0  0  0  0  0  0  0  0
  -27.7631  -36.1374   17.7722 C   0  0  0  0  0  0  0  0  0  0  0  0
  -30.3245  -11.4065   20.0864 C   0  0  0  0  0  0  0  0  0  0  0  0
  -28.2257  -34.7105   17.4951 C   0  0  0  0  0  0  0  0  0  0  0  0
  -28.8235  -11.1221   19.9961 C   0  0  0  0  0  0  0  0  0  0  0  0
  -30.6177  -12.6398   20.9390 C   0  0  0  0  0  0  0  0  0  0  0  0
  -28.3872  -13.5683   20.4573 C   0  0  0  0  0  0  0  0  0  0  0  0
  -27.0307  -33.7793   17.2579 C   0  0  1  0  0  0  0  0  0  0  0  0
  -26.0524  -32.2090   20.5761 C   0  0  1  0  0  0  0  0  0  0  0  0
  -28.0384  -12.3731   19.5554 C   0  0  2  0  0  0  0  0  0  0  0  0
  -28.5615  -31.6492   27.8833 C   0  0  0  0  0  0  0  0  0  0  0  0
  -30.5082  -32.7923   21.6563 C   0  0  0  0  0  0  0  0  0  0  0  0
  -31.1111  -32.3189   24.0397 C   0  0  0  0  0  0  0  0  0  0  0  0
  -29.8596  -34.3976   23.4609 C   0  0  0  0  0  0  0  0  0  0  0  0
  -25.2697  -30.3305   26.5045 C   0  0  0  0  0  0  0  0  0  0  0  0
  -27.6586  -25.4804   20.0613 C   0  0  0  0  0  0  0  0  0  1  0  0
  -29.3296  -23.7170   19.1952 C   0  0  2  0  0  0  0  0  0  0  0  0
  -28.6724  -32.1677   23.3610 C   0  0  1  0  0  0  0  0  0  0  0  0
  -27.4201  -31.5432   26.8840 C   0  0  2  0  0  0  0  0  0  0  0  0
  -30.0210  -32.9013   23.1150 C   0  0  0  0  0  0  0  0  0  0  0  0
  -29.9487  -24.2239   17.9116 C   0  0  0  0  0  0  0  0  0  0  0  0
  -29.1041  -19.6103   19.2055 N   0  0  0  0  0  0  0  0  0  0  0  0
  -26.0091  -11.2426   20.3831 N   0  0  0  0  0  0  0  0  0  0  0  0
  -26.5445  -12.1120   19.5094 N   0  0  0  0  0  0  0  0  0  0  0  0
  -26.9824  -31.7388   21.6049 N   0  0  0  0  0  0  0  0  0  0  0  0
  -29.8423  -13.7863   20.4604 N   0  0  0  0  0  0  0  0  0  0  0  0
  -26.0036  -13.5649   17.7184 N   0  0  0  0  0  0  0  0  0  0  0  0
  -22.0145  -11.7746   18.8489 N   0  0  0  0  0  0  0  0  0  0  0  0
  -29.6734  -15.9731   19.5933 N   0  0  0  0  0  0  0  0  0  0  0  0
  -29.3293  -22.2790   19.2588 N   0  0  0  0  0  0  0  0  0  0  0  0
  -26.4063  -33.4280   18.5154 N   0  0  0  0  0  0  0  0  0  0  0  0
  -28.1732  -32.2771   24.7275 N   0  0  0  0  0  0  0  0  0  0  0  0
  -26.4550  -30.5214   27.3795 N   0  3  0  0  0  0  0  0  0  0  0  0
  -23.0673  -13.2179   17.4112 O   0  0  0  0  0  0  0  0  0  0  0  0
  -31.3769  -22.0505   20.3241 O   0  0  0  0  0  0  0  0  0  0  0  0
  -27.7975  -31.6502   19.0870 O   0  0  0  0  0  0  0  0  0  0  0  0
  -26.9534  -23.5509   18.8126 O   0  0  0  0  0  0  0  0  0  0  0  0
  -27.2338  -33.8625   22.5337 O   0  0  0  0  0  0  0  0  0  0  0  0
  -28.0925  -29.9989   25.1519 O   0  0  0  0  0  0  0  0  0  0  0  0
  -31.7418  -15.0543   20.1023 O   0  0  0  0  0  0  0  0  0  0  0  0
  -21.1004   -8.0618   22.9004 O   0  0  0  0  0  0  0  0  0  0  0  0
  -26.2678  -25.7950   20.1171 O   0  0  0  0  0  0  0  0  0  1  0  0
  -22.5527   -2.8399   23.9138 F   0  0  0  0  0  0  0  0  0  0  0  0
  -32.3126  -19.7815   20.8996 F   0  0  0  0  0  0  0  0  0  0  0  0
  -19.5748   -5.9572   21.9592 F   0  0  0  0  0  0  0  0  0  0  0  0
  -31.2215  -23.7892   17.7799 F   0  0  0  0  0  0  0  0  0  0  0  0
  -29.9658  -25.5731   17.8592 F   0  0  0  0  0  0  0  0  0  0  0  0
  -29.2596  -23.7790   16.8366 F   0  0  0  0  0  0  0  0  0  0  0  0
  1  2  1  0  0  0  0
  1  5  2  0  0  0  0
  2  6  2  0  0  0  0
  3  8  2  0  0  0  0
  3 17  1  0  0  0  0
  4  9  1  0  0  0  0
  4 17  2  0  0  0  0
  5 19  1  0  0  0  0
  6 21  1  0  0  0  0
  7 10  2  0  0  0  0
  7 20  1  0  0  0  0
  8 24  1  0  0  0  0
  9 24  2  0  0  0  0
 10 25  1  0  0  0  0
 11 12  2  0  0  0  0
 11 26  1  0  0  0  0
 12 27  1  0  0  0  0
 13 22  1  0  0  0  0
 13 25  2  0  0  0  0
 14 23  2  0  0  0  0
 14 28  1  0  0  0  0
 15 27  2  0  0  0  0
 15 29  1  0  0  0  0
 16 23  1  0  0  0  0
 16 63  2  0  0  0  0
 17 30  1  0  0  0  0
 18 30  1  0  0  0  0
 18 32  2  0  0  0  0
 18 33  1  0  0  0  0
 19 21  2  0  0  0  0
 19 40  1  0  0  0  0
 20 22  2  0  0  0  0
 20 41  1  0  0  0  0
 21 49  1  0  0  0  0
 22 42  1  0  0  0  0
 23 70  1  0  0  0  0
 24 82  1  0  0  0  0
 25 83  1  0  0  0  0
 26 29  2  0  0  0  0
 26 82  1  0  0  0  0
 27 84  1  0  0  0  0
 28 31  2  0  0  0  0
 28 85  1  0  0  0  0
 29 86  1  0  0  0  0
 30 64  2  0  0  0  0
 31 34  1  0  0  0  0
 31 63  1  0  0  0  0
 32 65  1  0  0  0  0
 32 68  1  0  0  0  0
 33 69  1  0  0  0  0
 33 75  2  0  0  0  0
 34 71  1  0  0  0  0
 34 76  2  0  0  0  0
 35 50  1  0  0  0  0
 35 72  1  0  0  0  0
 35 77  2  0  0  0  0
 36 57  1  0  0  0  0
 36 58  1  0  0  0  0
 36 78  2  0  0  0  0
 37 59  1  0  0  0  0
 37 66  1  0  0  0  0
 37 79  2  0  0  0  0
 38 60  1  0  0  0  0
 38 73  1  0  0  0  0
 38 80  2  0  0  0  0
 39 67  1  0  0  0  0
 39 70  1  0  0  0  0
 39 81  2  0  0  0  0
 40 43  1  0  0  0  0
 41 50  1  0  0  0  0
 42 66  1  0  0  0  0
 43 45  1  0  0  0  0
 44 46  1  0  0  0  0
 44 47  1  0  0  0  0
 45 49  1  0  0  0  0
 46 51  1  0  0  0  0
 47 67  1  0  0  0  0
 48 51  1  0  0  0  0
 48 67  1  0  0  0  0
 49 72  1  0  0  0  0
 50 66  1  0  0  0  0
 51 65  1  0  0  0  0
 52 60  1  0  0  0  0
 53 61  1  0  0  0  0
 54 61  1  0  0  0  0
 55 61  1  0  0  0  0
 56 74  1  0  0  0  0
 57 83  1  0  0  0  0
 58 62  1  0  0  0  0
 58 71  1  0  0  0  0
 59 61  1  0  0  0  0
 59 73  1  0  0  0  0
 60 74  1  0  0  0  0
 62 87  1  0  0  0  0
 62 88  1  0  0  0  0
 62 89  1  0  0  0  0
 64 65  1  0  0  0  0
M  CHG  1  74   1
M  ISO  4  39 100  57 101  70 100  83 101
M  END
> <Batch ID>
0175

> <Smiles>
CNC(C)C(=O)NC(C(=O)N1Cc2cc([101O:1][101CH2:1]C(=O)C(NC(=O)c3ncc([100NH:0][100C:0](=O)N4CCCC(n5nc(-c6ccc(Oc7ccc(F)cc7F)cc6)c(C(N)=O)c5N)C4)cc3F)C(F)(F)F)ccc2CC1C(=O)NC1CCCc2ccccc21)C(C)(C)C

> <Shape>
0.291

> <Color>
0.101

> <Negative vol penalty>
0.000

$$$$

  -OEChem-04052304353D

 87 95  0     1  0  0  0  0  0999 V2000
  -22.8305   -7.8030   21.9658 C   0  0  0  0  0  0  0  0  0  0  0  0
  -23.7786   -8.6817   21.4516 C   0  0  0  0  0  0  0  0  0  0  0  0
  -25.3062  -31.1424   22.6165 C   0  0  0  0  0  0  0  0  0  0  0  0
  -26.9348  -31.1398   20.8319 C   0  0  0  0  0  0  0  0  0  0  0  0
  -21.5123   -8.2236   22.1369 C   0  0  0  0  0  0  0  0  0  0  0  0
  -23.4087   -9.9813   21.1070 C   0  0  0  0  0  0  0  0  0  0  0  0
  -26.7308  -13.4417   22.7302 C   0  0  0  0  0  0  0  0  0  0  0  0
  -25.5485  -32.4984   22.8357 C   0  0  0  0  0  0  0  0  0  0  0  0
  -27.1770  -32.4959   21.0510 C   0  0  0  0  0  0  0  0  0  0  0  0
  -27.9065  -13.5893   21.9956 C   0  0  0  0  0  0  0  0  0  0  0  0
  -24.6733  -35.4447   21.4263 C   0  0  0  0  0  0  0  0  0  0  0  0
  -23.5701  -36.2807   21.5986 C   0  0  0  0  0  0  0  0  0  0  0  0
  -29.0344  -20.9064   18.8274 C   0  0  0  0  0  0  0  0  0  0  0  0
  -26.9763  -15.5315   20.9085 C   0  0  0  0  0  0  0  0  0  0  0  0
  -27.3656  -22.0101   17.4733 C   0  0  0  0  0  0  0  0  0  0  0  0
  -24.3708  -36.8840   23.7968 C   0  0  0  0  0  0  0  0  0  0  0  0
  -25.9994  -30.4630   21.6147 C   0  0  0  0  0  0  0  0  0  0  0  0
  -29.3926  -20.1118   17.7385 C   0  0  0  0  0  0  0  0  0  0  0  0
  -24.7971  -28.4979   20.5191 C   0  0  0  0  0  0  0  0  0  0  0  0
  -21.1281   -9.5320   21.8033 C   0  0  0  0  0  0  0  0  0  0  0  0
  -25.6630  -14.3329   22.5512 C   0  0  0  0  0  0  0  0  0  0  0  0
  -22.0838  -10.4194   21.2725 C   0  0  0  0  0  0  0  0  0  0  0  0
  -25.7890  -15.3945   21.6439 C   0  0  0  0  0  0  0  0  0  0  0  0
  -28.0209  -21.8556   18.6949 C   0  0  0  0  0  0  0  0  0  0  0  0
  -26.4838  -33.1752   22.0529 C   0  0  0  0  0  0  0  0  0  0  0  0
  -28.0283  -14.6326   21.0825 C   0  0  0  0  0  0  0  0  0  0  0  0
  -25.6252  -35.3283   22.4392 C   0  0  0  0  0  0  0  0  0  0  0  0
  -23.4189  -37.0004   22.7838 C   0  0  0  0  0  0  0  0  0  0  0  0
  -27.7237  -21.2155   16.3842 C   0  0  0  0  0  0  0  0  0  0  0  0
  -25.4739  -36.0480   23.6245 C   0  0  0  0  0  0  0  0  0  0  0  0
  -28.7373  -20.2664   16.5169 C   0  0  0  0  0  0  0  0  0  0  0  0
  -25.7501  -29.0621   21.3882 C   0  0  0  0  0  0  0  0  0  0  0  0
  -24.9580  -27.1419   20.6668 C   0  0  0  0  0  0  0  0  0  0  0  0
  -30.4728  -19.1021   17.8824 C   0  0  0  0  0  0  0  0  0  0  0  0
  -23.8511  -29.1419   19.6555 C   0  0  0  0  0  0  0  0  0  0  0  0
  -22.6526  -14.0583   21.5685 C   0  0  0  0  0  0  0  0  0  0  0  0
  -31.0435  -16.2302   19.8553 C   0  0  0  0  0  0  0  0  0  0  0  0
  -22.4994  -17.1846   22.4200 C   0  0  0  0  0  0  0  0  0  0  0  0
  -24.1480  -20.1217   22.9700 C   0  0  0  0  0  0  0  0  0  0  0  0
  -28.2068  -22.6390   21.0819 C   0  0  0  0  0  0  0  0  0  0  0  0
  -19.6810   -9.9264   21.9616 C   0  0  0  0  0  0  0  0  0  0  0  0
  -24.4116  -14.1758   23.3707 C   0  0  0  0  0  0  0  0  0  0  0  0
  -24.6796  -16.3903   21.4294 C   0  0  0  0  0  0  0  0  0  0  0  0
  -19.4532  -11.4353   21.9229 C   0  0  0  0  0  0  0  0  0  0  0  0
  -27.6128  -24.4905   24.0646 C   0  0  0  0  0  0  0  0  0  0  0  0
  -20.2160  -12.0607   20.7593 C   0  0  0  0  0  0  0  0  0  0  0  0
  -26.9968  -25.7985   23.5627 C   0  0  0  0  0  0  0  0  0  0  0  0
  -28.6964  -23.9746   23.1194 C   0  0  0  0  0  0  0  0  0  0  0  0
  -27.6689  -25.1507   21.2141 C   0  0  0  0  0  0  0  0  0  0  0  0
  -21.7267  -11.8447   20.9103 C   0  0  1  0  0  0  0  0  0  0  0  0
  -23.1933  -14.8374   22.7339 C   0  0  1  0  0  0  0  0  0  0  0  0
  -26.5270  -25.6754   22.0999 C   0  0  2  0  0  0  0  0  0  0  0  0
  -32.5759  -18.1030   20.5311 C   0  0  0  0  0  0  0  0  0  0  0  0
  -23.7495  -22.5127   23.6195 C   0  0  0  0  0  0  0  0  0  0  0  0
  -21.4396  -17.7664   19.6185 C   0  0  0  0  0  0  0  0  0  0  0  0
  -21.9608  -20.1854   19.9993 C   0  0  0  0  0  0  0  0  0  0  0  0
  -20.2943  -19.0270   21.4497 C   0  0  0  0  0  0  0  0  0  0  0  0
  -25.8278  -19.8648   25.3932 C   0  0  0  0  0  0  0  0  0  0  0  0
  -29.5357  -16.1046   19.9793 C   0  0  0  0  0  0  0  0  0  1  0  0
  -31.6434  -17.5769   19.4506 C   0  0  2  0  0  0  0  0  0  0  0  0
  -22.7518  -18.4973   21.7185 C   0  0  1  0  0  0  0  0  0  0  0  0
  -24.0820  -21.1144   24.1166 C   0  0  2  0  0  0  0  0  0  0  0  0
  -21.6320  -18.8493   20.6989 C   0  0  0  0  0  0  0  0  0  0  0  0
  -26.4634  -28.1399   22.0399 N   0  0  0  0  0  0  0  0  0  0  0  0
  -25.9584  -26.9825   21.5801 N   0  0  0  0  0  0  0  0  0  0  0  0
  -23.4735  -16.1907   22.2498 N   0  0  0  0  0  0  0  0  0  0  0  0
  -28.1781  -23.8798   21.7530 N   0  0  0  0  0  0  0  0  0  0  0  0
  -24.3399  -26.0822   20.1033 N   0  0  0  0  0  0  0  0  0  0  0  0
  -23.8194  -30.5428   19.6256 N   0  0  0  0  0  0  0  0  0  0  0  0
  -27.6572  -22.6636   19.8006 N   0  0  0  0  0  0  0  0  0  0  0  0
  -30.6267  -18.5488   19.1474 N   0  0  0  0  0  0  0  0  0  0  0  0
  -22.2745  -12.7667   21.8820 N   0  0  0  0  0  0  0  0  0  0  0  0
  -22.9377  -19.4924   22.7690 N   0  0  0  0  0  0  0  0  0  0  0  0
  -25.3887  -21.1681   24.8312 N   0  3  0  0  0  0  0  0  0  0  0  0
  -31.1713  -18.8279   16.9100 O   0  0  0  0  0  0  0  0  0  0  0  0
  -23.0461  -28.4944   18.9440 O   0  0  0  0  0  0  0  0  0  0  0  0
  -22.5822  -14.5901   20.4667 O   0  0  0  0  0  0  0  0  0  0  0  0
  -31.7751  -15.2511   20.0262 O   0  0  0  0  0  0  0  0  0  0  0  0
  -21.4792  -17.0487   23.0999 O   0  0  0  0  0  0  0  0  0  0  0  0
  -25.1699  -19.9269   22.3156 O   0  0  0  0  0  0  0  0  0  0  0  0
  -28.6592  -21.6229   21.6157 O   0  0  0  0  0  0  0  0  0  0  0  0
  -26.7203  -34.4985   22.2663 O   0  0  0  0  0  0  0  0  0  0  0  0
  -29.1746  -14.7786   20.3637 O   0  0  0  0  0  0  0  0  0  1  0  0
  -22.3602  -37.8043   22.9486 F   0  0  0  0  0  0  0  0  0  0  0  0
  -27.0946  -21.3639   15.2112 F   0  0  0  0  0  0  0  0  0  0  0  0
  -26.3857  -35.9411   24.6007 F   0  0  0  0  0  0  0  0  0  0  0  0
  -29.0731  -19.5081   15.4639 F   0  0  0  0  0  0  0  0  0  0  0  0
  1  2  1  0  0  0  0
  1  5  2  0  0  0  0
  2  6  2  0  0  0  0
  3  8  2  0  0  0  0
  3 17  1  0  0  0  0
  4  9  1  0  0  0  0
  4 17  2  0  0  0  0
  5 20  1  0  0  0  0
  6 22  1  0  0  0  0
  7 10  2  0  0  0  0
  7 21  1  0  0  0  0
  8 25  1  0  0  0  0
  9 25  2  0  0  0  0
 10 26  1  0  0  0  0
 11 12  2  0  0  0  0
 11 27  1  0  0  0  0
 12 28  1  0  0  0  0
 13 18  1  0  0  0  0
 13 24  2  0  0  0  0
 14 23  1  0  0  0  0
 14 26  2  0  0  0  0
 15 24  1  0  0  0  0
 15 29  2  0  0  0  0
 16 28  2  0  0  0  0
 16 30  1  0  0  0  0
 17 32  1  0  0  0  0
 18 31  2  0  0  0  0
 18 34  1  0  0  0  0
 19 32  1  0  0  0  0
 19 33  2  0  0  0  0
 19 35  1  0  0  0  0
 20 22  2  0  0  0  0
 20 41  1  0  0  0  0
 21 23  2  0  0  0  0
 21 42  1  0  0  0  0
 22 50  1  0  0  0  0
 23 43  1  0  0  0  0
 24 70  1  0  0  0  0
 25 82  1  0  0  0  0
 26 83  1  0  0  0  0
 27 30  2  0  0  0  0
 27 82  1  0  0  0  0
 28 84  1  0  0  0  0
 29 31  1  0  0  0  0
 29 85  1  0  0  0  0
 30 86  1  0  0  0  0
 31 87  1  0  0  0  0
 32 64  2  0  0  0  0
 33 65  1  0  0  0  0
 33 68  1  0  0  0  0
 34 71  1  0  0  0  0
 34 75  2  0  0  0  0
 35 69  1  0  0  0  0
 35 76  2  0  0  0  0
 36 51  1  0  0  0  0
 36 72  1  0  0  0  0
 36 77  2  0  0  0  0
 37 59  1  0  0  0  0
 37 60  1  0  0  0  0
 37 78  2  0  0  0  0
 38 61  1  0  0  0  0
 38 66  1  0  0  0  0
 38 79  2  0  0  0  0
 39 62  1  0  0  0  0
 39 73  1  0  0  0  0
 39 80  2  0  0  0  0
 40 67  1  0  0  0  0
 40 70  1  0  0  0  0
 40 81  2  0  0  0  0
 41 44  1  0  0  0  0
 42 51  1  0  0  0  0
 43 66  1  0  0  0  0
 44 46  1  0  0  0  0
 45 47  1  0  0  0  0
 45 48  1  0  0  0  0
 46 50  1  0  0  0  0
 47 52  1  0  0  0  0
 48 67  1  0  0  0  0
 49 52  1  0  0  0  0
 49 67  1  0  0  0  0
 50 72  1  0  0  0  0
 51 66  1  0  0  0  0
 52 65  1  0  0  0  0
 53 60  1  0  0  0  0
 54 62  1  0  0  0  0
 55 63  1  0  0  0  0
 56 63  1  0  0  0  0
 57 63  1  0  0  0  0
 58 74  1  0  0  0  0
 59 83  1  0  0  0  0
 60 71  1  0  0  0  0
 61 63  1  0  0  0  0
 61 73  1  0  0  0  0
 62 74  1  0  0  0  0
 64 65  1  0  0  0  0
M  CHG  1  74   1
M  ISO  4  40 100  59 101  70 100  83 101
M  END
> <Batch ID>
0175

> <Smiles>
CNC(C)C(=O)NC(C(=O)N1Cc2cc([101O:1][101CH2:1]C(=O)C(C)NC(=O)c3cc([100NH:0][100C:0](=O)N4CCCC(n5nc(-c6ccc(Oc7ccc(F)cc7F)cc6)c(C(N)=O)c5N)C4)cc(F)c3F)ccc2CC1C(=O)NC1CCCc2ccccc21)C(C)(C)C

> <Shape>
0.206

> <Color>
0.078

> <Negative vol penalty>
0.000

$$$$

  -OEChem-04052304353D

 87 96  0     1  0  0  0  0  0999 V2000
  -27.4328  -37.7151   19.8795 C   0  0  0  0  0  0  0  0  0  0  0  0
  -27.9502  -36.4426   19.6592 C   0  0  0  0  0  0  0  0  0  0  0  0
  -24.7938   -8.8558   21.1187 C   0  0  0  0  0  0  0  0  0  0  0  0
  -22.9931  -10.1050   20.1019 C   0  0  0  0  0  0  0  0  0  0  0  0
  -26.5221  -37.9266   20.9138 C   0  0  0  0  0  0  0  0  0  0  0  0
  -27.5579  -35.3811   20.4739 C   0  0  0  0  0  0  0  0  0  0  0  0
  -26.8116  -29.5372   18.8011 C   0  0  0  0  0  0  0  0  0  0  0  0
  -23.8788   -7.9056   21.5718 C   0  0  0  0  0  0  0  0  0  0  0  0
  -22.0780   -9.1547   20.5550 C   0  0  0  0  0  0  0  0  0  0  0  0
  -27.6340  -28.4171   18.9134 C   0  0  0  0  0  0  0  0  0  0  0  0
  -22.1770   -5.2783   20.2934 C   0  0  0  0  0  0  0  0  0  0  0  0
  -22.5054   -3.9326   20.1299 C   0  0  0  0  0  0  0  0  0  0  0  0
  -26.4941  -27.7912   20.9451 C   0  0  0  0  0  0  0  0  0  0  0  0
  -22.3886   -3.6136   22.5220 C   0  0  0  0  0  0  0  0  0  0  0  0
  -27.5584  -18.0093   16.0774 C   0  0  0  0  0  0  0  0  0  0  0  0
  -24.3510   -9.9556   20.3838 C   0  0  0  0  0  0  0  0  0  0  0  0
  -25.9868  -10.9360   18.6895 C   0  0  0  0  0  0  0  0  0  0  0  0
  -26.1111  -36.8652   21.7355 C   0  0  0  0  0  0  0  0  0  0  0  0
  -25.8298  -29.7991   19.7675 C   0  0  0  0  0  0  0  0  0  0  0  0
  -26.6419  -35.5789   21.5210 C   0  0  0  0  0  0  0  0  0  0  0  0
  -25.6588  -28.9140   20.8415 C   0  0  0  0  0  0  0  0  0  0  0  0
  -22.5209   -8.0550   21.2899 C   0  0  0  0  0  0  0  0  0  0  0  0
  -27.4773  -27.5454   19.9870 C   0  0  0  0  0  0  0  0  0  0  0  0
  -21.9545   -5.7917   21.5711 C   0  0  0  0  0  0  0  0  0  0  0  0
  -22.6112   -3.1002   21.2442 C   0  0  0  0  0  0  0  0  0  0  0  0
  -22.0603   -4.9594   22.6854 C   0  0  0  0  0  0  0  0  0  0  0  0
  -25.2957  -10.9378   19.9160 C   0  0  0  0  0  0  0  0  0  0  0  0
  -27.6987  -18.2454   17.4289 C   0  0  0  0  0  0  0  0  0  0  0  0
  -26.7545  -12.0743   18.7263 C   0  0  0  0  0  0  0  0  0  0  0  0
  -28.5974  -20.0986   16.6754 C   0  0  0  0  0  0  0  0  0  0  0  0
  -25.9389   -9.9900   17.6131 C   0  0  0  0  0  0  0  0  0  0  0  0
  -28.9523  -24.3802   19.0460 C   0  0  0  0  0  0  0  0  0  0  0  0
  -25.2838  -32.1563   21.8289 C   0  0  0  0  0  0  0  0  0  0  0  0
  -22.5458  -30.5093   22.3884 C   0  0  0  0  0  0  0  0  0  0  0  0
  -20.8890  -27.5270   22.2986 C   0  0  0  0  0  0  0  0  0  0  0  0
  -27.3718  -17.5002   19.8131 C   0  0  0  0  0  0  0  0  0  0  0  0
  -25.1606  -37.1520   22.8708 C   0  0  0  0  0  0  0  0  0  0  0  0
  -24.9329  -30.9973   19.6176 C   0  0  0  0  0  0  0  0  0  0  0  0
  -24.6061  -29.1392   21.8948 C   0  0  0  0  0  0  0  0  0  0  0  0
  -24.5104  -35.8991   23.4521 C   0  0  0  0  0  0  0  0  0  0  0  0
  -27.7629  -15.2453   22.5407 C   0  0  0  0  0  0  0  0  0  0  0  0
  -25.5567  -34.8138   23.6850 C   0  0  0  0  0  0  0  0  0  0  0  0
  -27.2127  -13.9235   22.0001 C   0  0  0  0  0  0  0  0  0  0  0  0
  -30.7802  -21.2877   16.6670 C   0  0  0  0  0  0  0  0  0  0  0  0
  -30.9628  -23.5110   17.8652 C   0  0  0  0  0  0  0  0  0  0  0  0
  -26.9676  -16.4436   22.0256 C   0  0  0  0  0  0  0  0  0  0  0  0
  -26.2679  -15.1868   20.0256 C   0  0  0  0  0  0  0  0  0  0  0  0
  -26.2218  -34.3970   22.3677 C   0  0  1  0  0  0  0  0  0  0  0  0
  -29.2517  -21.4256   16.6456 C   0  0  2  0  0  0  0  0  0  0  0  0
  -29.4487  -23.6386   17.8333 C   0  0  1  0  0  0  0  0  0  0  0  0
  -24.3078  -31.4443   20.9355 C   0  0  1  0  0  0  0  0  0  0  0  0
  -27.0767  -13.9554   20.4651 C   0  0  2  0  0  0  0  0  0  0  0  0
  -31.4630  -22.6455   16.7210 C   0  0  0  0  0  0  0  0  0  0  0  0
  -18.6747  -26.4862   22.8562 C   0  0  0  0  0  0  0  0  0  0  0  0
  -23.2787  -30.5427   25.3501 C   0  0  0  0  0  0  0  0  0  0  0  0
  -21.5944  -28.7267   25.7158 C   0  0  0  0  0  0  0  0  0  0  0  0
  -20.8593  -30.9551   24.8693 C   0  0  0  0  0  0  0  0  0  0  0  0
  -20.4120  -26.7543   19.4818 C   0  0  0  0  0  0  0  0  0  0  0  0
  -28.7630  -25.8738   18.8876 C   0  0  0  0  0  0  0  0  0  1  0  0
  -22.1364  -29.4054   23.3332 C   0  0  1  0  0  0  0  0  0  0  0  0
  -19.5127  -27.1546   21.7775 C   0  0  2  0  0  0  0  0  0  0  0  0
  -21.9884  -29.9040   24.7985 C   0  0  0  0  0  0  0  0  0  0  0  0
  -25.5978  -11.9934   20.6765 N   0  0  0  0  0  0  0  0  0  0  0  0
  -28.2947  -19.4428   17.7737 N   0  0  0  0  0  0  0  0  0  0  0  0
  -26.4873  -12.6655   19.9260 N   0  0  0  0  0  0  0  0  0  0  0  0
  -23.7581  -30.3281   21.7076 N   0  0  0  0  0  0  0  0  0  0  0  0
  -26.8841  -16.4097   20.5639 N   0  0  0  0  0  0  0  0  0  0  0  0
  -27.6254  -12.6171   17.8492 N   0  0  0  0  0  0  0  0  0  0  0  0
  -25.0967   -8.8769   17.7389 N   0  0  0  0  0  0  0  0  0  0  0  0
  -27.2690  -17.3410   18.4315 N   0  0  0  0  0  0  0  0  0  0  0  0
  -25.3495  -33.5201   21.6163 N   0  0  0  0  0  0  0  0  0  0  0  0
  -20.9218  -28.8204   22.7756 N   0  0  0  0  0  0  0  0  0  0  0  0
  -28.8349  -22.2742   17.8243 N   0  3  0  0  0  0  0  0  0  0  0  0
  -19.6314  -26.2164   20.6257 N   0  3  0  0  0  0  0  0  0  0  0  0
  -26.6351  -10.1192   16.5777 O   0  0  0  0  0  0  0  0  0  0  0  0
  -28.7173  -23.7941   20.1017 O   0  0  0  0  0  0  0  0  0  0  0  0
  -25.9284  -31.5160   22.6511 O   0  0  0  0  0  0  0  0  0  0  0  0
  -21.8134  -31.4927   22.2537 O   0  0  0  0  0  0  0  0  0  0  0  0
  -21.8390  -26.7473   22.2874 O   0  0  0  0  0  0  0  0  0  0  0  0
  -27.8708  -18.4898   20.3550 O   0  0  0  0  0  0  0  0  0  0  0  0
  -21.6277   -7.1278   21.7317 O   0  0  0  0  0  0  0  0  0  0  0  0
  -28.2792  -26.4517   20.0994 O   0  0  0  0  0  0  0  0  0  1  0  0
  -22.9250   -1.8076   21.0870 F   0  0  0  0  0  0  0  0  0  0  0  0
  -21.8465   -5.4466   23.9153 F   0  0  0  0  0  0  0  0  0  0  0  0
  -32.8033  -22.4737   16.8355 F   0  0  0  0  0  0  0  0  0  0  0  0
  -31.2571  -23.2956   15.5460 F   0  0  0  0  0  0  0  0  0  0  0  0
  -28.1931  -19.3345   15.1929 S   0  0  0  0  0  0  0  0  0  0  0  0
  1  2  1  0  0  0  0
  1  5  2  0  0  0  0
  2  6  2  0  0  0  0
  3  8  2  0  0  0  0
  3 16  1  0  0  0  0
  4  9  1  0  0  0  0
  4 16  2  0  0  0  0
  5 18  1  0  0  0  0
  6 20  1  0  0  0  0
  7 10  2  0  0  0  0
  7 19  1  0  0  0  0
  8 22  1  0  0  0  0
  9 22  2  0  0  0  0
 10 23  1  0  0  0  0
 11 12  2  0  0  0  0
 11 24  1  0  0  0  0
 12 25  1  0  0  0  0
 13 21  1  0  0  0  0
 13 23  2  0  0  0  0
 14 25  2  0  0  0  0
 14 26  1  0  0  0  0
 15 28  2  0  0  0  0
 15 87  1  0  0  0  0
 16 27  1  0  0  0  0
 17 27  1  0  0  0  0
 17 29  2  0  0  0  0
 17 31  1  0  0  0  0
 18 20  2  0  0  0  0
 18 37  1  0  0  0  0
 19 21  2  0  0  0  0
 19 38  1  0  0  0  0
 20 48  1  0  0  0  0
 21 39  1  0  0  0  0
 22 81  1  0  0  0  0
 23 82  1  0  0  0  0
 24 26  2  0  0  0  0
 24 81  1  0  0  0  0
 25 83  1  0  0  0  0
 26 84  1  0  0  0  0
 27 63  2  0  0  0  0
 28 64  1  0  0  0  0
 28 70  1  0  0  0  0
 29 65  1  0  0  0  0
 29 68  1  0  0  0  0
 30 49  1  0  0  0  0
 30 64  2  0  0  0  0
 30 87  1  0  0  0  0
 31 69  1  0  0  0  0
 31 75  2  0  0  0  0
 32 50  1  0  0  0  0
 32 59  1  0  0  0  0
 32 76  2  0  0  0  0
 33 51  1  0  0  0  0
 33 71  1  0  0  0  0
 33 77  2  0  0  0  0
 34 60  1  0  0  0  0
 34 66  1  0  0  0  0
 34 78  2  0  0  0  0
 35 61  1  0  0  0  0
 35 72  1  0  0  0  0
 35 79  2  0  0  0  0
 36 67  1  0  0  0  0
 36 70  1  0  0  0  0
 36 80  2  0  0  0  0
 37 40  1  0  0  0  0
 38 51  1  0  0  0  0
 39 66  1  0  0  0  0
 40 42  1  0  0  0  0
 41 43  1  0  0  0  0
 41 46  1  0  0  0  0
 42 48  1  0  0  0  0
 43 52  1  0  0  0  0
 44 49  1  0  0  0  0
 44 53  1  0  0  0  0
 45 50  1  0  0  0  0
 45 53  1  0  0  0  0
 46 67  1  0  0  0  0
 47 52  1  0  0  0  0
 47 67  1  0  0  0  0
 48 71  1  0  0  0  0
 49 73  1  0  0  0  0
 50 73  1  0  0  0  0
 51 66  1  0  0  0  0
 52 65  1  0  0  0  0
 53 85  1  0  0  0  0
 53 86  1  0  0  0  0
 54 61  1  0  0  0  0
 55 62  1  0  0  0  0
 56 62  1  0  0  0  0
 57 62  1  0  0  0  0
 58 74  1  0  0  0  0
 59 82  1  0  0  0  0
 60 62  1  0  0  0  0
 60 72  1  0  0  0  0
 61 74  1  0  0  0  0
 63 65  1  0  0  0  0
M  CHG  2  73   1  74   1
M  ISO  4  36 100  59 101  70 100  82 101
M  END
> <Batch ID>
0175

> <Smiles>
CNC(C)C(=O)NC(C(=O)N1Cc2cc([101O:1][101CH2:1]C(=O)C3CC(F)(F)CC(c4nc([100NH:0][100C:0](=O)N5CCCC(n6nc(-c7ccc(Oc8ccc(F)cc8F)cc7)c(C(N)=O)c6N)C5)cs4)N3)ccc2CC1C(=O)NC1CCCc2ccccc21)C(C)(C)C

> <Shape>
0.303

> <Color>
0.104

> <Negative vol penalty>
0.000

$$$$

  -OEChem-04052304353D

 85 93  0     1  0  0  0  0  0999 V2000
  -24.7779  -31.5782   26.0486 C   0  0  0  0  0  0  0  0  0  0  0  0
  -25.4424  -30.5536   25.3822 C   0  0  0  0  0  0  0  0  0  0  0  0
  -23.1102   -9.8475   20.0233 C   0  0  0  0  0  0  0  0  0  0  0  0
  -23.8383   -9.9800   22.3232 C   0  0  0  0  0  0  0  0  0  0  0  0
  -23.4338  -31.4304   26.3885 C   0  0  0  0  0  0  0  0  0  0  0  0
  -24.7634  -29.3801   25.0562 C   0  0  0  0  0  0  0  0  0  0  0  0
  -25.7050  -27.8413   20.3244 C   0  0  0  0  0  0  0  0  0  0  0  0
  -22.3751   -8.7004   20.3221 C   0  0  0  0  0  0  0  0  0  0  0  0
  -23.1031   -8.8329   22.6220 C   0  0  0  0  0  0  0  0  0  0  0  0
  -26.9185  -27.1944   20.0948 C   0  0  0  0  0  0  0  0  0  0  0  0
  -19.8754   -8.0311   23.2218 C   0  0  0  0  0  0  0  0  0  0  0  0
  -19.1028   -8.0426   24.3831 C   0  0  0  0  0  0  0  0  0  0  0  0
  -30.1219  -19.1559   22.8589 C   0  0  0  0  0  0  0  0  0  0  0  0
  -29.6661  -17.8962   22.4866 C   0  0  0  0  0  0  0  0  0  0  0  0
  -25.7897  -25.0638   20.1687 C   0  0  0  0  0  0  0  0  0  0  0  0
  -20.3541   -6.1592   25.2341 C   0  0  0  0  0  0  0  0  0  0  0  0
  -32.1483  -18.7090   21.6966 C   0  0  0  0  0  0  0  0  0  0  0  0
  -23.8419  -10.4873   21.0238 C   0  0  0  0  0  0  0  0  0  0  0  0
  -24.1590  -13.0066   20.7792 C   0  0  0  0  0  0  0  0  0  0  0  0
  -22.7354  -30.2584   26.0579 C   0  0  0  0  0  0  0  0  0  0  0  0
  -24.5245  -27.1025   20.4890 C   0  0  0  0  0  0  0  0  0  0  0  0
  -23.4091  -29.2159   25.3932 C   0  0  0  0  0  0  0  0  0  0  0  0
  -24.5621  -25.7038   20.3978 C   0  0  0  0  0  0  0  0  0  0  0  0
  -22.3714   -8.1931   21.6215 C   0  0  0  0  0  0  0  0  0  0  0  0
  -26.9615  -25.8053   20.0198 C   0  0  0  0  0  0  0  0  0  0  0  0
  -20.8873   -7.0836   23.0666 C   0  0  0  0  0  0  0  0  0  0  0  0
  -19.3422   -7.1066   25.3892 C   0  0  0  0  0  0  0  0  0  0  0  0
  -21.1267   -6.1477   24.0728 C   0  0  0  0  0  0  0  0  0  0  0  0
  -31.3855  -19.5777   22.4604 C   0  0  0  0  0  0  0  0  0  0  0  0
  -24.6020  -11.6719   20.7157 C   0  0  0  0  0  0  0  0  0  0  0  0
  -30.5058  -17.1028   21.7215 C   0  0  0  0  0  0  0  0  0  0  0  0
  -25.2482  -13.7487   20.3925 C   0  0  0  0  0  0  0  0  0  0  0  0
  -22.8776  -13.5290   21.1543 C   0  0  0  0  0  0  0  0  0  0  0  0
  -22.4182  -26.7346   22.8409 C   0  0  0  0  0  0  0  0  0  0  0  0
  -29.7465  -23.5969   20.7073 C   0  0  0  0  0  0  0  0  0  0  0  0
  -20.8028  -25.0305   20.6029 C   0  0  0  0  0  0  0  0  0  0  0  0
  -20.9040  -23.2001   17.7243 C   0  0  0  0  0  0  0  0  0  0  0  0
  -30.7003  -14.8625   20.5858 C   0  0  0  0  0  0  0  0  0  0  0  0
  -21.2960  -30.1253   26.4880 C   0  0  0  0  0  0  0  0  0  0  0  0
  -23.2192  -27.8167   20.7094 C   0  0  0  0  0  0  0  0  0  0  0  0
  -23.3197  -24.8657   20.5473 C   0  0  0  0  0  0  0  0  0  0  0  0
  -20.5484  -29.0020   25.7743 C   0  0  0  0  0  0  0  0  0  0  0  0
  -29.6439  -12.3187   18.3297 C   0  0  0  0  0  0  0  0  0  0  0  0
  -21.3859  -27.7271   25.7618 C   0  0  0  0  0  0  0  0  0  0  0  0
  -28.2016  -12.0334   18.7546 C   0  0  0  0  0  0  0  0  0  0  0  0
  -30.5399  -12.6187   19.5301 C   0  0  0  0  0  0  0  0  0  0  0  0
  -28.6066  -13.3915   20.8471 C   0  0  0  0  0  0  0  0  0  0  0  0
  -22.7002  -27.9379   25.0004 C   0  0  1  0  0  0  0  0  0  0  0  0
  -22.1630  -26.9394   21.3744 C   0  0  1  0  0  0  0  0  0  0  0  0
  -27.6520  -13.1475   19.6669 C   0  0  2  0  0  0  0  0  0  0  0  0
  -19.4294  -21.9049   16.1606 C   0  0  0  0  0  0  0  0  0  0  0  0
  -20.6976  -22.7335   22.6085 C   0  0  0  0  0  0  0  0  0  0  0  0
  -20.0939  -21.2045   20.7201 C   0  0  0  0  0  0  0  0  0  0  0  0
  -18.5823  -23.0947   21.3242 C   0  0  0  0  0  0  0  0  0  0  0  0
  -21.5529  -24.9813   15.4516 C   0  0  0  0  0  0  0  0  0  0  0  0
  -30.0282  -22.2471   21.3188 C   0  0  0  0  0  0  0  0  0  0  0  0
  -28.2972  -23.8659   20.3522 C   0  0  0  0  0  0  0  0  0  1  0  0
  -20.7789  -23.5839   20.1721 C   0  0  1  0  0  0  0  0  0  0  0  0
  -20.0582  -23.2557   16.4650 C   0  0  2  0  0  0  0  0  0  0  0  0
  -20.0621  -22.6695   21.2053 C   0  0  0  0  0  0  0  0  0  0  0  0
  -31.7395  -17.4780   21.3155 N   0  0  0  0  0  0  0  0  0  0  0  0
  -25.8735  -11.5689   20.3196 N   0  0  0  0  0  0  0  0  0  0  0  0
  -26.2387  -12.8484   20.1307 N   0  0  0  0  0  0  0  0  0  0  0  0
  -22.0688  -25.6100   20.7677 N   0  0  0  0  0  0  0  0  0  0  0  0
  -29.9582  -13.6867   20.3461 N   0  0  0  0  0  0  0  0  0  0  0  0
  -25.4457  -15.0769   20.2542 N   0  0  0  0  0  0  0  0  0  0  0  0
  -21.8707  -12.6270   21.5243 N   0  0  0  0  0  0  0  0  0  0  0  0
  -30.0321  -15.8209   21.3472 N   0  0  0  0  0  0  0  0  0  0  0  0
  -22.4677  -27.9060   23.5723 N   0  0  0  0  0  0  0  0  0  0  0  0
  -20.1818  -23.5641   18.8411 N   0  0  0  0  0  0  0  0  0  0  0  0
  -31.4647  -22.1333   21.6131 N   0  0  0  0  0  0  0  0  0  0  0  0
  -20.8925  -23.6594   15.2980 N   0  3  0  0  0  0  0  0  0  0  0  0
  -22.6278  -14.7582   21.1454 O   0  0  0  0  0  0  0  0  0  0  0  0
  -22.5582  -25.5979   23.2769 O   0  0  0  0  0  0  0  0  0  0  0  0
  -30.6264  -24.4325   20.5034 O   0  0  0  0  0  0  0  0  0  0  0  0
  -19.7373  -25.6265   20.7795 O   0  0  0  0  0  0  0  0  0  0  0  0
  -22.0861  -22.8636   17.7185 O   0  0  0  0  0  0  0  0  0  0  0  0
  -31.8339  -15.0197   20.1252 O   0  0  0  0  0  0  0  0  0  0  0  0
  -31.3167  -21.5855   24.1259 O   0  0  0  0  0  0  0  0  0  0  0  0
  -33.4471  -21.0921   22.8840 O   0  0  0  0  0  0  0  0  0  0  0  0
  -21.6540   -7.0740   21.9134 O   0  0  0  0  0  0  0  0  0  0  0  0
  -28.1447  -25.1714   19.7964 O   0  0  0  0  0  0  0  0  0  1  0  0
  -18.6012   -7.1188   26.5050 F   0  0  0  0  0  0  0  0  0  0  0  0
  -22.0981   -5.2357   23.9299 F   0  0  0  0  0  0  0  0  0  0  0  0
  -31.9993  -21.1719   22.9147 S   0  0  0  0  0  0  0  0  0  0  0  0
  1  2  1  0  0  0  0
  1  5  2  0  0  0  0
  2  6  2  0  0  0  0
  3  8  2  0  0  0  0
  3 18  1  0  0  0  0
  4  9  1  0  0  0  0
  4 18  2  0  0  0  0
  5 20  1  0  0  0  0
  6 22  1  0  0  0  0
  7 10  2  0  0  0  0
  7 21  1  0  0  0  0
  8 24  1  0  0  0  0
  9 24  2  0  0  0  0
 10 25  1  0  0  0  0
 11 12  2  0  0  0  0
 11 26  1  0  0  0  0
 12 27  1  0  0  0  0
 13 14  2  0  0  0  0
 13 29  1  0  0  0  0
 14 31  1  0  0  0  0
 15 23  1  0  0  0  0
 15 25  2  0  0  0  0
 16 27  2  0  0  0  0
 16 28  1  0  0  0  0
 17 29  2  0  0  0  0
 17 61  1  0  0  0  0
 18 30  1  0  0  0  0
 19 30  1  0  0  0  0
 19 32  2  0  0  0  0
 19 33  1  0  0  0  0
 20 22  2  0  0  0  0
 20 39  1  0  0  0  0
 21 23  2  0  0  0  0
 21 40  1  0  0  0  0
 22 48  1  0  0  0  0
 23 41  1  0  0  0  0
 24 81  1  0  0  0  0
 25 82  1  0  0  0  0
 26 28  2  0  0  0  0
 26 81  1  0  0  0  0
 27 83  1  0  0  0  0
 28 84  1  0  0  0  0
 29 85  1  0  0  0  0
 30 62  2  0  0  0  0
 31 61  2  0  0  0  0
 31 68  1  0  0  0  0
 32 63  1  0  0  0  0
 32 66  1  0  0  0  0
 33 67  1  0  0  0  0
 33 73  2  0  0  0  0
 34 49  1  0  0  0  0
 34 69  1  0  0  0  0
 34 74  2  0  0  0  0
 35 56  1  0  0  0  0
 35 57  1  0  0  0  0
 35 75  2  0  0  0  0
 36 58  1  0  0  0  0
 36 64  1  0  0  0  0
 36 76  2  0  0  0  0
 37 59  1  0  0  0  0
 37 70  1  0  0  0  0
 37 77  2  0  0  0  0
 38 65  1  0  0  0  0
 38 68  1  0  0  0  0
 38 78  2  0  0  0  0
 39 42  1  0  0  0  0
 40 49  1  0  0  0  0
 41 64  1  0  0  0  0
 42 44  1  0  0  0  0
 43 45  1  0  0  0  0
 43 46  1  0  0  0  0
 44 48  1  0  0  0  0
 45 50  1  0  0  0  0
 46 65  1  0  0  0  0
 47 50  1  0  0  0  0
 47 65  1  0  0  0  0
 48 69  1  0  0  0  0
 49 64  1  0  0  0  0
 50 63  1  0  0  0  0
 51 59  1  0  0  0  0
 52 60  1  0  0  0  0
 53 60  1  0  0  0  0
 54 60  1  0  0  0  0
 55 72  1  0  0  0  0
 56 71  1  0  0  0  0
 57 82  1  0  0  0  0
 58 60  1  0  0  0  0
 58 70  1  0  0  0  0
 59 72  1  0  0  0  0
 62 63  1  0  0  0  0
 71 85  1  0  0  0  0
 79 85  2  0  0  0  0
 80 85  2  0  0  0  0
M  CHG  1  72   1
M  ISO  4  38 100  57 101  68 100  82 101
M  END
> <Batch ID>
0175

> <Smiles>
CNC(C)C(=O)NC(C(=O)N1Cc2cc([101O:1][101CH2:1]C(=O)CNS(=O)(=O)c3ccc([100NH:0][100C:0](=O)N4CCCC(n5nc(-c6ccc(Oc7ccc(F)cc7F)cc6)c(C(N)=O)c5N)C4)nc3)ccc2CC1C(=O)NC1CCCc2ccccc21)C(C)(C)C

> <Shape>
0.262

> <Color>
0.184

> <Negative vol penalty>
0.000

$$$$

  -OEChem-04052304353D

 88 96  0     1  0  0  0  0  0999 V2000
  -23.2518  -30.9164   24.1014 C   0  0  0  0  0  0  0  0  0  0  0  0
  -23.5311  -29.5812   24.3746 C   0  0  0  0  0  0  0  0  0  0  0  0
  -20.5158  -22.6054   20.8752 C   0  0  0  0  0  0  0  0  0  0  0  0
  -22.7819  -22.4522   21.6987 C   0  0  0  0  0  0  0  0  0  0  0  0
  -23.5904  -31.4589   22.8625 C   0  0  0  0  0  0  0  0  0  0  0  0
  -24.1482  -28.7873   23.4084 C   0  0  0  0  0  0  0  0  0  0  0  0
  -28.7212  -23.3102   22.7721 C   0  0  0  0  0  0  0  0  0  0  0  0
  -20.2619  -23.6469   21.7676 C   0  0  0  0  0  0  0  0  0  0  0  0
  -22.5281  -23.4938   22.5911 C   0  0  0  0  0  0  0  0  0  0  0  0
  -28.8259  -22.0595   22.1649 C   0  0  0  0  0  0  0  0  0  0  0  0
  -20.8904  -26.9631   21.9695 C   0  0  0  0  0  0  0  0  0  0  0  0
  -20.2128  -28.0817   21.4844 C   0  0  0  0  0  0  0  0  0  0  0  0
  -29.4371  -23.1252   20.0889 C   0  0  0  0  0  0  0  0  0  0  0  0
  -18.4473  -27.7090   23.0911 C   0  0  0  0  0  0  0  0  0  0  0  0
  -25.4237   -9.9951   20.4459 C   0  0  0  0  0  0  0  0  0  0  0  0
  -21.7758  -22.0080   20.8408 C   0  0  0  0  0  0  0  0  0  0  0  0
  -22.5245  -21.0393   18.6027 C   0  0  0  0  0  0  0  0  0  0  0  0
  -24.2207  -30.6738   21.8842 C   0  0  0  0  0  0  0  0  0  0  0  0
  -28.9634  -24.4802   22.0381 C   0  0  0  0  0  0  0  0  0  0  0  0
  -24.4943  -29.3195   22.1547 C   0  0  0  0  0  0  0  0  0  0  0  0
  -29.3372  -24.3894   20.6897 C   0  0  0  0  0  0  0  0  0  0  0  0
  -21.2680  -24.0911   22.6255 C   0  0  0  0  0  0  0  0  0  0  0  0
  -29.1811  -21.9670   20.8224 C   0  0  0  0  0  0  0  0  0  0  0  0
  -20.3464  -26.2174   23.0153 C   0  0  0  0  0  0  0  0  0  0  0  0
  -18.9913  -28.4546   22.0452 C   0  0  0  0  0  0  0  0  0  0  0  0
  -19.1249  -26.5903   23.5761 C   0  0  0  0  0  0  0  0  0  0  0  0
  -26.7665  -10.2807   20.5857 C   0  0  0  0  0  0  0  0  0  0  0  0
  -22.0385  -20.9317   19.9196 C   0  0  0  0  0  0  0  0  0  0  0  0
  -27.0900  -11.6214   20.6323 C   0  0  0  0  0  0  0  0  0  0  0  0
  -22.5995  -19.7422   18.1573 C   0  0  0  0  0  0  0  0  0  0  0  0
  -24.9045  -12.2079   20.4158 C   0  0  0  0  0  0  0  0  0  0  0  0
  -22.8767  -22.2074   17.8495 C   0  0  0  0  0  0  0  0  0  0  0  0
  -27.2289  -27.0160   21.2225 C   0  0  0  0  0  0  0  0  0  0  0  0
  -29.1460  -18.3284   20.2296 C   0  0  0  0  0  0  0  0  0  0  0  0
  -30.0600  -28.0922   20.0609 C   0  0  0  0  0  0  0  0  0  0  0  0
  -28.6907  -14.4948   20.8735 C   0  0  0  0  0  0  0  0  0  0  0  0
  -33.1749  -27.3539   18.8780 C   0  0  0  0  0  0  0  0  0  0  0  0
  -24.1176  -14.6084   20.3603 C   0  0  0  0  0  0  0  0  0  0  0  0
  -24.5249  -31.2919   20.5425 C   0  0  0  0  0  0  0  0  0  0  0  0
  -28.8722  -25.8205   22.7146 C   0  0  0  0  0  0  0  0  0  0  0  0
  -29.6276  -25.6144   19.8630 C   0  0  0  0  0  0  0  0  0  0  0  0
  -25.5156  -30.4826   19.7096 C   0  0  0  0  0  0  0  0  0  0  0  0
  -20.4604  -15.7681   20.2994 C   0  0  0  0  0  0  0  0  0  0  0  0
  -25.1388  -29.0045   19.7193 C   0  0  0  0  0  0  0  0  0  0  0  0
  -20.5975  -16.9919   19.3967 C   0  0  0  0  0  0  0  0  0  0  0  0
  -21.5875  -14.7652   20.0878 C   0  0  0  0  0  0  0  0  0  0  0  0
  -22.9941  -16.8255   20.2679 C   0  0  0  0  0  0  0  0  0  0  0  0
  -25.1851  -28.4328   21.1415 C   0  0  1  0  0  0  0  0  0  0  0  0
  -28.6398  -26.9686   21.7373 C   0  0  1  0  0  0  0  0  0  0  0  0
  -22.0581  -17.4534   19.2234 C   0  0  2  0  0  0  0  0  0  0  0  0
  -35.2465  -28.4416   17.9710 C   0  0  0  0  0  0  0  0  0  0  0  0
  -28.6490  -28.5504   17.3947 C   0  0  0  0  0  0  0  0  0  0  0  0
  -30.9000  -28.7133   16.3109 C   0  0  0  0  0  0  0  0  0  0  0  0
  -30.2373  -30.3641   18.0597 C   0  0  0  0  0  0  0  0  0  0  0  0
  -29.1714  -13.2248   18.7253 C   0  0  0  0  0  0  0  0  0  0  0  0
  -34.8373  -26.2957   21.0861 C   0  0  0  0  0  0  0  0  0  0  0  0
  -28.5257  -12.0339   20.7830 C   0  0  0  0  0  0  0  0  0  0  0  0
  -28.8666  -17.0385   20.9870 C   0  0  0  0  0  0  0  0  0  0  0  0
  -29.0129  -19.6045   21.0375 C   0  0  0  0  0  0  0  0  0  1  0  0
  -29.0020  -15.7857   20.1228 C   0  0  0  0  0  0  0  0  0  0  0  0
  -30.7811  -27.9902   18.7386 C   0  0  1  0  0  0  0  0  0  0  0  0
  -34.5412  -27.9232   19.2147 C   0  0  2  0  0  0  0  0  0  0  0  0
  -30.1345  -28.8813   17.6407 C   0  0  0  0  0  0  0  0  0  0  0  0
  -24.4621  -10.9373   20.3576 N   0  0  0  0  0  0  0  0  0  0  0  0
  -21.8201  -19.6662   20.2867 N   0  0  0  0  0  0  0  0  0  0  0  0
  -26.1812  -12.6152   20.5497 N   0  0  0  0  0  0  0  0  0  0  0  0
  -22.1703  -18.9667   19.1939 N   0  0  0  0  0  0  0  0  0  0  0  0
  -29.5188  -26.9023   20.5681 N   0  0  0  0  0  0  0  0  0  0  0  0
  -22.9242  -15.3601   20.2308 N   0  0  0  0  0  0  0  0  0  0  0  0
  -22.9901  -19.2008   16.9840 N   0  0  0  0  0  0  0  0  0  0  0  0
  -22.7392  -23.4620   18.4590 N   0  0  0  0  0  0  0  0  0  0  0  0
  -23.9217  -13.2252   20.3261 N   0  0  0  0  0  0  0  0  0  0  0  0
  -26.5531  -28.1788   21.5398 N   0  0  0  0  0  0  0  0  0  0  0  0
  -32.1804  -28.2996   19.0119 N   0  0  0  0  0  0  0  0  0  0  0  0
  -28.7972  -13.3112   20.1350 N   0  0  0  0  0  0  0  0  0  0  0  0
  -35.3988  -26.8768   19.8395 N   0  3  0  0  0  0  0  0  0  0  0  0
  -23.2851  -22.1416   16.6653 O   0  0  0  0  0  0  0  0  0  0  0  0
  -26.7867  -26.0685   20.5835 O   0  0  0  0  0  0  0  0  0  0  0  0
  -29.4648  -18.3447   19.0419 O   0  0  0  0  0  0  0  0  0  0  0  0
  -29.9859  -29.1858   20.6267 O   0  0  0  0  0  0  0  0  0  0  0  0
  -28.3710  -14.5236   22.0647 O   0  0  0  0  0  0  0  0  0  0  0  0
  -33.0070  -26.1879   18.5276 O   0  0  0  0  0  0  0  0  0  0  0  0
  -25.2171  -15.1535   20.4779 O   0  0  0  0  0  0  0  0  0  0  0  0
  -21.0207  -25.1076   23.4962 O   0  0  0  0  0  0  0  0  0  0  0  0
  -29.2834  -20.7475   20.2272 O   0  0  0  0  0  0  0  0  0  1  0  0
  -18.3415  -29.5297   21.5804 F   0  0  0  0  0  0  0  0  0  0  0  0
  -18.5979  -25.8785   24.5818 F   0  0  0  0  0  0  0  0  0  0  0  0
  -27.6854   -9.3138   20.6716 F   0  0  0  0  0  0  0  0  0  0  0  0
  1  2  1  0  0  0  0
  1  5  2  0  0  0  0
  2  6  2  0  0  0  0
  3  8  2  0  0  0  0
  3 16  1  0  0  0  0
  4  9  1  0  0  0  0
  4 16  2  0  0  0  0
  5 18  1  0  0  0  0
  6 20  1  0  0  0  0
  7 10  2  0  0  0  0
  7 19  1  0  0  0  0
  8 22  1  0  0  0  0
  9 22  2  0  0  0  0
 10 23  1  0  0  0  0
 11 12  2  0  0  0  0
 11 24  1  0  0  0  0
 12 25  1  0  0  0  0
 13 21  1  0  0  0  0
 13 23  2  0  0  0  0
 14 25  2  0  0  0  0
 14 26  1  0  0  0  0
 15 27  1  0  0  0  0
 15 64  2  0  0  0  0
 16 28  1  0  0  0  0
 17 28  1  0  0  0  0
 17 30  2  0  0  0  0
 17 32  1  0  0  0  0
 18 20  2  0  0  0  0
 18 39  1  0  0  0  0
 19 21  2  0  0  0  0
 19 40  1  0  0  0  0
 20 48  1  0  0  0  0
 21 41  1  0  0  0  0
 22 84  1  0  0  0  0
 23 85  1  0  0  0  0
 24 26  2  0  0  0  0
 24 84  1  0  0  0  0
 25 86  1  0  0  0  0
 26 87  1  0  0  0  0
 27 29  2  0  0  0  0
 27 88  1  0  0  0  0
 28 65  2  0  0  0  0
 29 57  1  0  0  0  0
 29 66  1  0  0  0  0
 30 67  1  0  0  0  0
 30 70  1  0  0  0  0
 31 64  1  0  0  0  0
 31 66  2  0  0  0  0
 31 72  1  0  0  0  0
 32 71  1  0  0  0  0
 32 77  2  0  0  0  0
 33 49  1  0  0  0  0
 33 73  1  0  0  0  0
 33 78  2  0  0  0  0
 34 58  1  0  0  0  0
 34 59  1  0  0  0  0
 34 79  2  0  0  0  0
 35 61  1  0  0  0  0
 35 68  1  0  0  0  0
 35 80  2  0  0  0  0
 36 60  1  0  0  0  0
 36 75  1  0  0  0  0
 36 81  2  0  0  0  0
 37 62  1  0  0  0  0
 37 74  1  0  0  0  0
 37 82  2  0  0  0  0
 38 69  1  0  0  0  0
 38 72  1  0  0  0  0
 38 83  2  0  0  0  0
 39 42  1  0  0  0  0
 40 49  1  0  0  0  0
 41 68  1  0  0  0  0
 42 44  1  0  0  0  0
 43 45  1  0  0  0  0
 43 46  1  0  0  0  0
 44 48  1  0  0  0  0
 45 50  1  0  0  0  0
 46 69  1  0  0  0  0
 47 50  1  0  0  0  0
 47 69  1  0  0  0  0
 48 73  1  0  0  0  0
 49 68  1  0  0  0  0
 50 67  1  0  0  0  0
 51 62  1  0  0  0  0
 52 63  1  0  0  0  0
 53 63  1  0  0  0  0
 54 63  1  0  0  0  0
 55 75  1  0  0  0  0
 56 76  1  0  0  0  0
 57 75  1  0  0  0  0
 58 60  1  0  0  0  0
 59 85  1  0  0  0  0
 61 63  1  0  0  0  0
 61 74  1  0  0  0  0
 62 76  1  0  0  0  0
 65 67  1  0  0  0  0
M  CHG  1  76   1
M  ISO  4  38 100  59 101  72 100  85 101
M  END
> <Batch ID>
0175

> <Smiles>
CNC(C)C(=O)NC(C(=O)N1Cc2cc([101O:1][101CH2:1]C(=O)CCC(=O)N(C)Cc3nc([100NH:0][100C:0](=O)N4CCCC(n5nc(-c6ccc(Oc7ccc(F)cc7F)cc6)c(C(N)=O)c5N)C4)ncc3F)ccc2CC1C(=O)NC1CCCc2ccccc21)C(C)(C)C

> <Shape>
0.242

> <Color>
0.080

> <Negative vol penalty>
0.000

$$$$

  -OEChem-04052304353D

 83 91  0     1  0  0  0  0  0999 V2000
  -36.6612  -26.8520   16.1610 C   0  0  0  0  0  0  0  0  0  0  0  0
  -35.6070  -26.4674   16.9832 C   0  0  0  0  0  0  0  0  0  0  0  0
  -23.0755   -9.8692   19.9468 C   0  0  0  0  0  0  0  0  0  0  0  0
  -23.8351   -9.8828   22.2403 C   0  0  0  0  0  0  0  0  0  0  0  0
  -36.8899  -28.2042   15.9093 C   0  0  0  0  0  0  0  0  0  0  0  0
  -34.7814  -27.4347   17.5551 C   0  0  0  0  0  0  0  0  0  0  0  0
  -29.8708  -26.2451   17.2157 C   0  0  0  0  0  0  0  0  0  0  0  0
  -22.3318   -8.7166   20.1999 C   0  0  0  0  0  0  0  0  0  0  0  0
  -23.0914   -8.7302   22.4934 C   0  0  0  0  0  0  0  0  0  0  0  0
  -29.3800  -25.3029   18.1186 C   0  0  0  0  0  0  0  0  0  0  0  0
  -19.8633   -7.9335   23.0977 C   0  0  0  0  0  0  0  0  0  0  0  0
  -19.1062   -7.8967   24.2686 C   0  0  0  0  0  0  0  0  0  0  0  0
  -28.4755  -27.0817   19.4739 C   0  0  0  0  0  0  0  0  0  0  0  0
  -20.3478   -5.9616   25.0107 C   0  0  0  0  0  0  0  0  0  0  0  0
  -31.8097  -18.7351   22.2333 C   0  0  0  0  0  0  0  0  0  0  0  0
  -23.8272  -10.4523   20.9670 C   0  0  0  0  0  0  0  0  0  0  0  0
  -24.1686  -12.9771   20.8399 C   0  0  0  0  0  0  0  0  0  0  0  0
  -36.0609  -29.1882   16.4707 C   0  0  0  0  0  0  0  0  0  0  0  0
  -29.6767  -27.6155   17.4412 C   0  0  0  0  0  0  0  0  0  0  0  0
  -35.0001  -28.8014   17.3118 C   0  0  0  0  0  0  0  0  0  0  0  0
  -28.9625  -28.0391   18.5711 C   0  0  0  0  0  0  0  0  0  0  0  0
  -22.3397   -8.1471   21.4732 C   0  0  0  0  0  0  0  0  0  0  0  0
  -28.6847  -25.7212   19.2494 C   0  0  0  0  0  0  0  0  0  0  0  0
  -20.8626   -6.9843   22.8832 C   0  0  0  0  0  0  0  0  0  0  0  0
  -19.3485   -6.9108   25.2251 C   0  0  0  0  0  0  0  0  0  0  0  0
  -21.1049   -5.9983   23.8397 C   0  0  0  0  0  0  0  0  0  0  0  0
  -24.5961  -11.6425   20.7060 C   0  0  0  0  0  0  0  0  0  0  0  0
  -30.7079  -19.1039   22.9765 C   0  0  0  0  0  0  0  0  0  0  0  0
  -25.2607  -13.7258   20.4747 C   0  0  0  0  0  0  0  0  0  0  0  0
  -30.5717  -16.9572   21.8924 C   0  0  0  0  0  0  0  0  0  0  0  0
  -29.0997  -23.9712   20.7446 C   0  0  0  0  0  0  0  0  0  1  0  0
  -22.8980  -13.4939   21.2572 C   0  0  0  0  0  0  0  0  0  0  0  0
  -28.8195  -23.0098   21.6384 C   0  0  0  0  0  0  0  0  0  0  0  0
  -29.9598  -22.2097   22.1894 C   0  0  0  0  0  0  0  0  0  0  0  0
  -31.5958  -30.1045   17.9163 C   0  0  0  0  0  0  0  0  0  0  0  0
  -28.8199  -31.7766   17.7713 C   0  0  0  0  0  0  0  0  0  0  0  0
  -25.4252  -31.7919   18.1216 C   0  0  0  0  0  0  0  0  0  0  0  0
  -30.7267  -14.7727   20.6473 C   0  0  0  0  0  0  0  0  0  0  0  0
  -36.3762  -30.6394   16.2078 C   0  0  0  0  0  0  0  0  0  0  0  0
  -30.1892  -28.6180   16.4439 C   0  0  0  0  0  0  0  0  0  0  0  0
  -28.7097  -29.4978   18.8485 C   0  0  0  0  0  0  0  0  0  0  0  0
  -35.2272  -31.5842   16.5508 C   0  0  0  0  0  0  0  0  0  0  0  0
  -29.6130  -12.3522   18.2855 C   0  0  0  0  0  0  0  0  0  0  0  0
  -34.6438  -31.2410   17.9178 C   0  0  0  0  0  0  0  0  0  0  0  0
  -28.1733  -12.0616   18.7157 C   0  0  0  0  0  0  0  0  0  0  0  0
  -30.5279  -12.5844   19.4866 C   0  0  0  0  0  0  0  0  0  0  0  0
  -28.6207  -13.3124   20.8657 C   0  0  0  0  0  0  0  0  0  0  0  0
  -34.0675  -29.8200   17.9306 C   0  0  1  0  0  0  0  0  0  0  0  0
  -30.3793  -30.0097   17.0394 C   0  0  1  0  0  0  0  0  0  0  0  0
  -27.6480  -13.1358   19.6882 C   0  0  2  0  0  0  0  0  0  0  0  0
  -23.4365  -33.3152   17.9740 C   0  0  0  0  0  0  0  0  0  0  0  0
  -29.5682  -33.0102   20.4598 C   0  0  0  0  0  0  0  0  0  0  0  0
  -27.1890  -33.7505   20.7036 C   0  0  0  0  0  0  0  0  0  0  0  0
  -28.5747  -34.6129   18.8171 C   0  0  0  0  0  0  0  0  0  0  0  0
  -24.2083  -30.1836   15.9557 C   0  0  0  0  0  0  0  0  0  0  0  0
  -30.4594  -20.3525   23.7724 C   0  0  0  0  0  0  0  0  0  0  0  0
  -27.7809  -32.2128   18.7759 C   0  0  1  0  0  0  0  0  0  0  0  0
  -24.3227  -32.3302   17.2276 C   0  0  2  0  0  0  0  0  0  0  0  0
  -28.2845  -33.3691   19.6852 C   0  0  0  0  0  0  0  0  0  0  0  0
  -31.7335  -17.5043   21.6113 N   0  0  0  0  0  0  0  0  0  0  0  0
  -25.8611  -11.5457   20.2882 N   0  0  0  0  0  0  0  0  0  0  0  0
  -26.2378  -12.8290   20.1563 N   0  0  0  0  0  0  0  0  0  0  0  0
  -29.2361  -30.4399   17.8470 N   0  0  0  0  0  0  0  0  0  0  0  0
  -29.9687  -13.6176   20.3611 N   0  0  0  0  0  0  0  0  0  0  0  0
  -25.4709  -15.0571   20.3980 N   0  0  0  0  0  0  0  0  0  0  0  0
  -21.8862  -12.5855   21.5969 N   0  0  0  0  0  0  0  0  0  0  0  0
  -30.0791  -15.6999   21.4631 N   0  0  0  0  0  0  0  0  0  0  0  0
  -29.5485  -21.2509   23.0992 N   0  0  0  0  0  0  0  0  0  0  0  0
  -32.7783  -29.7914   17.2737 N   0  0  0  0  0  0  0  0  0  0  0  0
  -26.5818  -32.5342   18.0095 N   0  0  0  0  0  0  0  0  0  0  0  0
  -23.4694  -31.2148   16.7288 N   0  3  0  0  0  0  0  0  0  0  0  0
  -22.6615  -14.7246   21.3111 O   0  0  0  0  0  0  0  0  0  0  0  0
  -31.1231  -22.4092   21.8509 O   0  0  0  0  0  0  0  0  0  0  0  0
  -31.4709  -30.4385   19.0887 O   0  0  0  0  0  0  0  0  0  0  0  0
  -29.2412  -32.5899   16.9451 O   0  0  0  0  0  0  0  0  0  0  0  0
  -25.2742  -30.8132   18.8496 O   0  0  0  0  0  0  0  0  0  0  0  0
  -31.8559  -14.9403   20.1793 O   0  0  0  0  0  0  0  0  0  0  0  0
  -27.5510  -22.7103   22.0843 O   0  0  0  0  0  0  0  0  0  0  0  0
  -21.6139   -7.0226   21.7206 O   0  0  0  0  0  0  0  0  0  0  0  0
  -28.2052  -24.8037   20.1326 O   0  0  0  0  0  0  0  0  0  1  0  0
  -18.6224   -6.8765   26.3502 F   0  0  0  0  0  0  0  0  0  0  0  0
  -22.0644   -5.0844   23.6398 F   0  0  0  0  0  0  0  0  0  0  0  0
  -29.5216  -17.8678   22.8989 S   0  0  0  0  0  0  0  0  0  0  0  0
  1  2  1  0  0  0  0
  1  5  2  0  0  0  0
  2  6  2  0  0  0  0
  3  8  2  0  0  0  0
  3 16  1  0  0  0  0
  4  9  1  0  0  0  0
  4 16  2  0  0  0  0
  5 18  1  0  0  0  0
  6 20  1  0  0  0  0
  7 10  2  0  0  0  0
  7 19  1  0  0  0  0
  8 22  1  0  0  0  0
  9 22  2  0  0  0  0
 10 23  1  0  0  0  0
 11 12  2  0  0  0  0
 11 24  1  0  0  0  0
 12 25  1  0  0  0  0
 13 21  1  0  0  0  0
 13 23  2  0  0  0  0
 14 25  2  0  0  0  0
 14 26  1  0  0  0  0
 15 28  2  0  0  0  0
 15 60  1  0  0  0  0
 16 27  1  0  0  0  0
 17 27  1  0  0  0  0
 17 29  2  0  0  0  0
 17 32  1  0  0  0  0
 18 20  2  0  0  0  0
 18 39  1  0  0  0  0
 19 21  2  0  0  0  0
 19 40  1  0  0  0  0
 20 48  1  0  0  0  0
 21 41  1  0  0  0  0
 22 79  1  0  0  0  0
 23 80  1  0  0  0  0
 24 26  2  0  0  0  0
 24 79  1  0  0  0  0
 25 81  1  0  0  0  0
 26 82  1  0  0  0  0
 27 61  2  0  0  0  0
 28 56  1  0  0  0  0
 28 83  1  0  0  0  0
 29 62  1  0  0  0  0
 29 65  1  0  0  0  0
 30 60  2  0  0  0  0
 30 67  1  0  0  0  0
 30 83  1  0  0  0  0
 31 33  2  0  0  0  0
 31 80  1  0  0  0  0
 32 66  1  0  0  0  0
 32 72  2  0  0  0  0
 33 34  1  0  0  0  0
 33 78  1  0  0  0  0
 34 68  1  0  0  0  0
 34 73  2  0  0  0  0
 35 49  1  0  0  0  0
 35 69  1  0  0  0  0
 35 74  2  0  0  0  0
 36 57  1  0  0  0  0
 36 63  1  0  0  0  0
 36 75  2  0  0  0  0
 37 58  1  0  0  0  0
 37 70  1  0  0  0  0
 37 76  2  0  0  0  0
 38 64  1  0  0  0  0
 38 67  1  0  0  0  0
 38 77  2  0  0  0  0
 39 42  1  0  0  0  0
 40 49  1  0  0  0  0
 41 63  1  0  0  0  0
 42 44  1  0  0  0  0
 43 45  1  0  0  0  0
 43 46  1  0  0  0  0
 44 48  1  0  0  0  0
 45 50  1  0  0  0  0
 46 64  1  0  0  0  0
 47 50  1  0  0  0  0
 47 64  1  0  0  0  0
 48 69  1  0  0  0  0
 49 63  1  0  0  0  0
 50 62  1  0  0  0  0
 51 58  1  0  0  0  0
 52 59  1  0  0  0  0
 53 59  1  0  0  0  0
 54 59  1  0  0  0  0
 55 71  1  0  0  0  0
 56 68  1  0  0  0  0
 57 59  1  0  0  0  0
 57 70  1  0  0  0  0
 58 71  1  0  0  0  0
 61 62  1  0  0  0  0
M  CHG  1  71   1
M  ISO  4  31 101  38 100  67 100  80 101
M  END
> <Batch ID>
0175

> <Smiles>
CNC(C)C(=O)NC(C(=O)N1Cc2cc([101O:1][101CH2:1]C(=O)C(=O)NCc3cnc([100NH:0][100C:0](=O)N4CCCC(n5nc(-c6ccc(Oc7ccc(F)cc7F)cc6)c(C(N)=O)c5N)C4)s3)ccc2CC1C(=O)NC1CCCc2ccccc21)C(C)(C)C

> <Shape>
0.215

> <Color>
0.185

> <Negative vol penalty>
0.000

$$$$

  -OEChem-04052304353D

 86 94  0     1  0  0  0  0  0999 V2000
  -29.2123  -23.3082   14.5579 C   0  0  0  0  0  0  0  0  0  0  0  0
  -28.6234  -23.2027   15.8139 C   0  0  0  0  0  0  0  0  0  0  0  0
  -24.5932   -9.4899   20.6373 C   0  0  0  0  0  0  0  0  0  0  0  0
  -25.1962  -10.1818   22.8721 C   0  0  0  0  0  0  0  0  0  0  0  0
  -30.0458  -24.3878   14.2685 C   0  0  0  0  0  0  0  0  0  0  0  0
  -28.8687  -24.1762   16.7817 C   0  0  0  0  0  0  0  0  0  0  0  0
  -24.6569  -25.6230   19.1926 C   0  0  0  0  0  0  0  0  0  0  0  0
  -24.4063   -8.1845   21.0918 C   0  0  0  0  0  0  0  0  0  0  0  0
  -25.0093   -8.8764   23.3267 C   0  0  0  0  0  0  0  0  0  0  0  0
  -24.1660  -24.7729   20.1826 C   0  0  0  0  0  0  0  0  0  0  0  0
  -22.0341   -6.4418   22.7557 C   0  0  0  0  0  0  0  0  0  0  0  0
  -20.8907   -5.7651   22.3313 C   0  0  0  0  0  0  0  0  0  0  0  0
  -25.1706  -26.1706   21.8726 C   0  0  0  0  0  0  0  0  0  0  0  0
  -27.1684  -19.7654   21.9092 C   0  0  0  0  0  0  0  0  0  0  0  0
  -22.2741   -4.0675   21.3110 C   0  0  0  0  0  0  0  0  0  0  0  0
  -24.9882  -10.4885   21.5274 C   0  0  0  0  0  0  0  0  0  0  0  0
  -24.2202  -12.8634   21.0004 C   0  0  0  0  0  0  0  0  0  0  0  0
  -30.2936  -25.3801   15.2300 C   0  0  0  0  0  0  0  0  0  0  0  0
  -25.4189  -26.7493   19.5353 C   0  0  0  0  0  0  0  0  0  0  0  0
  -29.7073  -25.2694   16.5053 C   0  0  0  0  0  0  0  0  0  0  0  0
  -25.6679  -27.0349   20.8853 C   0  0  0  0  0  0  0  0  0  0  0  0
  -27.0537  -21.1346   22.1223 C   0  0  0  0  0  0  0  0  0  0  0  0
  -24.6144   -7.8777   22.4365 C   0  0  0  0  0  0  0  0  0  0  0  0
  -24.4252  -25.0450   21.5227 C   0  0  0  0  0  0  0  0  0  0  0  0
  -23.2976   -5.9314   22.4577 C   0  0  0  0  0  0  0  0  0  0  0  0
  -21.0107   -4.5779   21.6089 C   0  0  0  0  0  0  0  0  0  0  0  0
  -23.4176   -4.7442   21.7354 C   0  0  0  0  0  0  0  0  0  0  0  0
  -28.0244  -21.9944   21.6204 C   0  0  0  0  0  0  0  0  0  0  0  0
  -25.1820  -11.8371   21.0584 C   0  0  0  0  0  0  0  0  0  0  0  0
  -28.2640  -19.3099   21.1936 C   0  0  0  0  0  0  0  0  0  0  0  0
  -29.0818  -21.4391   20.9179 C   0  0  0  0  0  0  0  0  0  0  0  0
  -24.8983  -13.9408   20.4847 C   0  0  0  0  0  0  0  0  0  0  0  0
  -22.8374  -12.8446   21.3788 C   0  0  0  0  0  0  0  0  0  0  0  0
  -23.9281  -21.8106   24.1051 C   0  0  0  0  0  0  0  0  0  0  0  0
  -24.9224  -20.9264   23.4093 C   0  0  0  0  0  0  0  0  0  0  0  0
  -28.3912  -27.7101   18.9473 C   0  0  0  0  0  0  0  0  0  0  0  0
  -27.3942  -30.4173   20.4303 C   0  0  0  0  0  0  0  0  0  0  0  0
  -25.2250  -31.8951   22.6115 C   0  0  0  0  0  0  0  0  0  0  0  0
  -29.3810  -17.2382   20.2955 C   0  0  0  0  0  0  0  0  0  0  0  0
  -31.2393  -26.5036   14.8865 C   0  0  0  0  0  0  0  0  0  0  0  0
  -25.9186  -27.6711   18.4569 C   0  0  0  0  0  0  0  0  0  0  0  0
  -26.4634  -28.2423   21.3068 C   0  0  0  0  0  0  0  0  0  0  0  0
  -31.1494  -27.6895   15.8435 C   0  0  0  0  0  0  0  0  0  0  0  0
  -29.4907  -14.2407   18.3772 C   0  0  0  0  0  0  0  0  0  0  0  0
  -31.1456  -27.2083   17.2910 C   0  0  0  0  0  0  0  0  0  0  0  0
  -28.3004  -13.4326   18.8989 C   0  0  0  0  0  0  0  0  0  0  0  0
  -30.1771  -15.0248   19.4942 C   0  0  0  0  0  0  0  0  0  0  0  0
  -28.0966  -15.0706   20.8126 C   0  0  0  0  0  0  0  0  0  0  0  0
  -29.9293  -26.3182   17.5733 C   0  0  1  0  0  0  0  0  0  0  0  0
  -27.1182  -28.5064   18.8935 C   0  0  1  0  0  0  0  0  0  0  0  0
  -27.3334  -14.3149   19.7125 C   0  0  2  0  0  0  0  0  0  0  0  0
  -24.6808  -34.1144   23.6488 C   0  0  0  0  0  0  0  0  0  0  0  0
  -29.7984  -30.1359   22.2878 C   0  0  0  0  0  0  0  0  0  0  0  0
  -28.7016  -31.7653   23.8403 C   0  0  0  0  0  0  0  0  0  0  0  0
  -29.3314  -32.4740   21.5329 C   0  0  0  0  0  0  0  0  0  0  0  0
  -22.5091  -31.9095   21.4356 C   0  0  0  0  0  0  0  0  0  0  0  0
  -22.7525  -22.2807   23.2769 C   0  0  0  0  0  0  0  0  0  0  0  0
  -23.1887  -23.0866   22.0626 C   0  0  0  0  0  0  0  0  0  1  0  0
  -27.3728  -30.9086   21.8576 C   0  0  1  0  0  0  0  0  0  0  0  0
  -24.3909  -33.1587   22.5019 C   0  0  2  0  0  0  0  0  0  0  0  0
  -28.7877  -31.2971   22.3719 C   0  0  0  0  0  0  0  0  0  0  0  0
  -26.3799  -12.2274   20.6149 N   0  0  0  0  0  0  0  0  0  0  0  0
  -29.2271  -20.1144   20.6907 N   0  0  0  0  0  0  0  0  0  0  0  0
  -26.1753  -13.5109   20.2732 N   0  0  0  0  0  0  0  0  0  0  0  0
  -26.9358  -29.1099   20.2151 N   0  0  0  0  0  0  0  0  0  0  0  0
  -29.2004  -15.8410   20.2185 N   0  0  0  0  0  0  0  0  0  0  0  0
  -30.0643  -22.3250   20.4109 N   0  0  0  0  0  0  0  0  0  0  0  0
  -24.5209  -15.2044   20.1961 N   0  0  0  0  0  0  0  0  0  0  0  0
  -22.3009  -11.6554   21.8909 N   0  0  0  0  0  0  0  0  0  0  0  0
  -25.9532  -21.6481   22.8472 N   0  0  0  0  0  0  0  0  0  0  0  0
  -28.3717  -17.9131   20.9815 N   0  0  0  0  0  0  0  0  0  0  0  0
  -28.7408  -27.1260   17.7448 N   0  0  0  0  0  0  0  0  0  0  0  0
  -26.4019  -31.9967   21.9002 N   0  0  0  0  0  0  0  0  0  0  0  0
  -22.9388  -32.8244   22.5243 N   0  3  0  0  0  0  0  0  0  0  0  0
  -22.0952  -13.8478   21.2508 O   0  0  0  0  0  0  0  0  0  0  0  0
  -24.1372  -22.0711   25.2802 O   0  0  0  0  0  0  0  0  0  0  0  0
  -24.7104  -19.7260   23.4532 O   0  0  0  0  0  0  0  0  0  0  0  0
  -29.0112  -27.6325   20.0015 O   0  0  0  0  0  0  0  0  0  0  0  0
  -27.7960  -31.1685   19.5381 O   0  0  0  0  0  0  0  0  0  0  0  0
  -24.8699  -30.9172   23.2658 O   0  0  0  0  0  0  0  0  0  0  0  0
  -30.3448  -17.7981   19.7667 O   0  0  0  0  0  0  0  0  0  0  0  0
  -24.4318   -6.6041   22.8804 O   0  0  0  0  0  0  0  0  0  0  0  0
  -23.9478  -24.2165   22.4909 O   0  0  0  0  0  0  0  0  0  1  0  0
  -19.9125   -3.9273   21.2028 F   0  0  0  0  0  0  0  0  0  0  0  0
  -24.6287   -4.2484   21.4471 F   0  0  0  0  0  0  0  0  0  0  0  0
  -27.9373  -23.3179   21.8128 F   0  0  0  0  0  0  0  0  0  0  0  0
  1  2  1  0  0  0  0
  1  5  2  0  0  0  0
  2  6  2  0  0  0  0
  3  8  2  0  0  0  0
  3 16  1  0  0  0  0
  4  9  1  0  0  0  0
  4 16  2  0  0  0  0
  5 18  1  0  0  0  0
  6 20  1  0  0  0  0
  7 10  2  0  0  0  0
  7 19  1  0  0  0  0
  8 23  1  0  0  0  0
  9 23  2  0  0  0  0
 10 24  1  0  0  0  0
 11 12  2  0  0  0  0
 11 25  1  0  0  0  0
 12 26  1  0  0  0  0
 13 21  1  0  0  0  0
 13 24  2  0  0  0  0
 14 22  1  0  0  0  0
 14 30  2  0  0  0  0
 15 26  2  0  0  0  0
 15 27  1  0  0  0  0
 16 29  1  0  0  0  0
 17 29  1  0  0  0  0
 17 32  2  0  0  0  0
 17 33  1  0  0  0  0
 18 20  2  0  0  0  0
 18 40  1  0  0  0  0
 19 21  2  0  0  0  0
 19 41  1  0  0  0  0
 20 49  1  0  0  0  0
 21 42  1  0  0  0  0
 22 28  2  0  0  0  0
 22 70  1  0  0  0  0
 23 82  1  0  0  0  0
 24 83  1  0  0  0  0
 25 27  2  0  0  0  0
 25 82  1  0  0  0  0
 26 84  1  0  0  0  0
 27 85  1  0  0  0  0
 28 31  1  0  0  0  0
 28 86  1  0  0  0  0
 29 62  2  0  0  0  0
 30 63  1  0  0  0  0
 30 71  1  0  0  0  0
 31 63  2  0  0  0  0
 31 67  1  0  0  0  0
 32 64  1  0  0  0  0
 32 68  1  0  0  0  0
 33 69  1  0  0  0  0
 33 75  2  0  0  0  0
 34 35  1  0  0  0  0
 34 57  1  0  0  0  0
 34 76  2  0  0  0  0
 35 70  1  0  0  0  0
 35 77  2  0  0  0  0
 36 50  1  0  0  0  0
 36 72  1  0  0  0  0
 36 78  2  0  0  0  0
 37 59  1  0  0  0  0
 37 65  1  0  0  0  0
 37 79  2  0  0  0  0
 38 60  1  0  0  0  0
 38 73  1  0  0  0  0
 38 80  2  0  0  0  0
 39 66  1  0  0  0  0
 39 71  1  0  0  0  0
 39 81  2  0  0  0  0
 40 43  1  0  0  0  0
 41 50  1  0  0  0  0
 42 65  1  0  0  0  0
 43 45  1  0  0  0  0
 44 46  1  0  0  0  0
 44 47  1  0  0  0  0
 45 49  1  0  0  0  0
 46 51  1  0  0  0  0
 47 66  1  0  0  0  0
 48 51  1  0  0  0  0
 48 66  1  0  0  0  0
 49 72  1  0  0  0  0
 50 65  1  0  0  0  0
 51 64  1  0  0  0  0
 52 60  1  0  0  0  0
 53 61  1  0  0  0  0
 54 61  1  0  0  0  0
 55 61  1  0  0  0  0
 56 74  1  0  0  0  0
 57 58  1  0  0  0  0
 58 83  1  0  0  0  0
 59 61  1  0  0  0  0
 59 73  1  0  0  0  0
 60 74  1  0  0  0  0
 62 64  1  0  0  0  0
M  CHG  1  74   1
M  ISO  4  39 100  58 101  71 100  83 101
M  END
> <Batch ID>
0175

> <Smiles>
CNC(C)C(=O)NC(C(=O)N1Cc2cc([101O:1][101CH2:1]CC(=O)C(=O)Nc3cc([100NH:0][100C:0](=O)N4CCCC(n5nc(-c6ccc(Oc7ccc(F)cc7F)cc6)c(C(N)=O)c5N)C4)nc(N)c3F)ccc2CC1C(=O)NC1CCCc2ccccc21)C(C)(C)C

> <Shape>
0.255

> <Color>
0.107

> <Negative vol penalty>
0.000

$$$$

  -OEChem-04052304353D

 91 99  0     1  0  0  0  0  0999 V2000
  -27.7253  -35.7299   26.4636 C   0  0  0  0  0  0  0  0  0  0  0  0
  -27.6276  -34.3506   26.6169 C   0  0  0  0  0  0  0  0  0  0  0  0
  -23.0778   -9.8654   19.9353 C   0  0  0  0  0  0  0  0  0  0  0  0
  -23.8366   -9.8677   22.2290 C   0  0  0  0  0  0  0  0  0  0  0  0
  -27.5303  -36.3063   25.2091 C   0  0  0  0  0  0  0  0  0  0  0  0
  -27.3338  -33.5470   25.5158 C   0  0  0  0  0  0  0  0  0  0  0  0
  -29.4285  -27.8980   24.4176 C   0  0  0  0  0  0  0  0  0  0  0  0
  -22.3348   -8.7111   20.1822 C   0  0  0  0  0  0  0  0  0  0  0  0
  -23.0934   -8.7133   22.4760 C   0  0  0  0  0  0  0  0  0  0  0  0
  -28.8715  -26.6356   24.6175 C   0  0  0  0  0  0  0  0  0  0  0  0
  -19.8656   -7.9116   23.0750 C   0  0  0  0  0  0  0  0  0  0  0  0
  -19.1081   -7.8683   24.2454 C   0  0  0  0  0  0  0  0  0  0  0  0
  -28.1250  -26.6084   22.3238 C   0  0  0  0  0  0  0  0  0  0  0  0
  -20.3507   -5.9302   24.9780 C   0  0  0  0  0  0  0  0  0  0  0  0
  -31.7915  -17.5538   21.7248 C   0  0  0  0  0  0  0  0  0  0  0  0
  -23.8288  -10.4437   20.9587 C   0  0  0  0  0  0  0  0  0  0  0  0
  -24.1687  -12.9694   20.8447 C   0  0  0  0  0  0  0  0  0  0  0  0
  -27.2435  -35.5084   24.0903 C   0  0  0  0  0  0  0  0  0  0  0  0
  -29.3283  -28.5307   23.1702 C   0  0  0  0  0  0  0  0  0  0  0  0
  -27.1335  -34.1134   24.2455 C   0  0  0  0  0  0  0  0  0  0  0  0
  -28.6838  -27.8776   22.1099 C   0  0  0  0  0  0  0  0  0  0  0  0
  -22.3425   -8.1350   21.4525 C   0  0  0  0  0  0  0  0  0  0  0  0
  -28.2171  -25.9919   23.5714 C   0  0  0  0  0  0  0  0  0  0  0  0
  -20.8656   -6.9641   22.8560 C   0  0  0  0  0  0  0  0  0  0  0  0
  -19.3506   -6.8777   25.1969 C   0  0  0  0  0  0  0  0  0  0  0  0
  -21.1082   -5.9734   23.8076 C   0  0  0  0  0  0  0  0  0  0  0  0
  -31.8774  -18.8114   22.3890 C   0  0  0  0  0  0  0  0  0  0  0  0
  -24.5971  -11.6357   20.7041 C   0  0  0  0  0  0  0  0  0  0  0  0
  -30.7291  -19.1056   23.0907 C   0  0  0  0  0  0  0  0  0  0  0  0
  -25.2604  -13.7205   20.4837 C   0  0  0  0  0  0  0  0  0  0  0  0
  -30.5806  -16.9345   21.9443 C   0  0  0  0  0  0  0  0  0  0  0  0
  -22.8976  -13.4832   21.2641 C   0  0  0  0  0  0  0  0  0  0  0  0
  -30.4182  -20.3064   23.9083 C   0  0  0  0  0  0  0  0  0  0  0  0
  -27.9939  -31.2171   22.1184 C   0  0  0  0  0  0  0  0  0  0  0  0
  -28.0942  -22.4491   24.3540 C   0  0  0  0  0  0  0  0  0  0  0  0
  -29.4637  -30.4016   19.3441 C   0  0  0  0  0  0  0  0  0  0  0  0
  -30.7932  -27.9454   17.3829 C   0  0  0  0  0  0  0  0  0  0  0  0
  -30.7257  -14.7700   20.6637 C   0  0  0  0  0  0  0  0  0  0  0  0
  -26.9942  -36.1812   22.7637 C   0  0  0  0  0  0  0  0  0  0  0  0
  -29.9579  -29.8810   22.9632 C   0  0  0  0  0  0  0  0  0  0  0  0
  -28.5667  -28.5053   20.7458 C   0  0  0  0  0  0  0  0  0  0  0  0
  -27.0564  -35.2255   21.5749 C   0  0  0  0  0  0  0  0  0  0  0  0
  -29.6144  -12.3609   18.2891 C   0  0  0  0  0  0  0  0  0  0  0  0
  -26.2598  -33.9579   21.8668 C   0  0  0  0  0  0  0  0  0  0  0  0
  -28.1747  -12.0672   18.7173 C   0  0  0  0  0  0  0  0  0  0  0  0
  -30.5287  -12.5876   19.4918 C   0  0  0  0  0  0  0  0  0  0  0  0
  -28.6205  -13.3073   20.8738 C   0  0  0  0  0  0  0  0  0  0  0  0
  -26.8409  -33.2059   23.0703 C   0  0  1  0  0  0  0  0  0  0  0  0
  -29.3483  -30.6519   21.7963 C   0  0  1  0  0  0  0  0  0  0  0  0
  -27.6484  -13.1361   19.6951 C   0  0  2  0  0  0  0  0  0  0  0  0
  -31.8855  -27.5797   15.1535 C   0  0  0  0  0  0  0  0  0  0  0  0
  -26.7509  -30.6705   17.9736 C   0  0  0  0  0  0  0  0  0  0  0  0
  -27.6863  -29.4028   16.0278 C   0  0  0  0  0  0  0  0  0  0  0  0
  -28.6735  -31.6010   16.6728 C   0  0  0  0  0  0  0  0  0  0  0  0
  -28.1218  -18.7374   29.5319 C   0  0  0  0  0  0  0  0  0  0  0  0
  -26.1291  -18.8147   28.0270 C   0  0  0  0  0  0  0  0  0  0  0  0
  -26.8095  -20.8502   29.3222 C   0  0  0  0  0  0  0  0  0  0  0  0
  -33.2731  -26.9250   18.6351 C   0  0  0  0  0  0  0  0  0  0  0  0
  -28.2881  -23.9088   24.7166 C   0  0  0  0  0  0  0  0  0  1  0  0
  -27.6798  -21.0084   26.3611 C   0  0  0  0  0  0  0  0  0  0  0  0
  -28.7083  -21.4337   25.3088 C   0  0  1  0  0  0  0  0  0  0  0  0
  -29.0856  -29.5802   18.1352 C   0  0  1  0  0  0  0  0  0  0  0  0
  -32.1094  -27.8581   16.6317 C   0  0  2  0  0  0  0  0  0  0  0  0
  -28.2713  -20.0390   27.3924 C   0  0  2  0  0  0  0  0  0  0  0  0
  -28.0494  -30.3024   17.2285 C   0  0  0  0  0  0  0  0  0  0  0  0
  -27.3270  -19.6238   28.5517 C   0  0  0  0  0  0  0  0  0  0  0  0
  -25.8622  -11.5419   20.2862 N   0  0  0  0  0  0  0  0  0  0  0  0
  -26.2382  -12.8260   20.1611 N   0  0  0  0  0  0  0  0  0  0  0  0
  -29.1930  -29.8292   20.5950 N   0  0  0  0  0  0  0  0  0  0  0  0
  -29.9685  -13.6159   20.3713 N   0  0  0  0  0  0  0  0  0  0  0  0
  -25.4698  -15.0523   20.4138 N   0  0  0  0  0  0  0  0  0  0  0  0
  -21.8862  -12.5724   21.5988 N   0  0  0  0  0  0  0  0  0  0  0  0
  -30.0772  -15.6926   21.4839 N   0  0  0  0  0  0  0  0  0  0  0  0
  -29.1651  -20.3289   24.5068 N   0  0  0  0  0  0  0  0  0  0  0  0
  -28.0302  -32.4771   22.6846 N   0  0  0  0  0  0  0  0  0  0  0  0
  -30.3360  -29.2438   17.4630 N   0  0  0  0  0  0  0  0  0  0  0  0
  -32.9547  -26.7665   17.1927 N   0  3  0  0  0  0  0  0  0  0  0  0
  -22.6603  -14.7135   21.3242 O   0  0  0  0  0  0  0  0  0  0  0  0
  -31.2515  -21.2044   23.9964 O   0  0  0  0  0  0  0  0  0  0  0  0
  -26.9901  -30.5595   21.8702 O   0  0  0  0  0  0  0  0  0  0  0  0
  -27.4471  -22.1080   23.3636 O   0  0  0  0  0  0  0  0  0  0  0  0
  -29.9867  -31.5073   19.1843 O   0  0  0  0  0  0  0  0  0  0  0  0
  -30.2255  -26.9599   17.8487 O   0  0  0  0  0  0  0  0  0  0  0  0
  -31.8549  -14.9407   20.1970 O   0  0  0  0  0  0  0  0  0  0  0  0
  -21.6174   -7.0088   21.6939 O   0  0  0  0  0  0  0  0  0  0  0  0
  -27.6662  -24.7472   23.7660 O   0  0  0  0  0  0  0  0  0  1  0  0
  -18.6241   -6.8372   26.3215 F   0  0  0  0  0  0  0  0  0  0  0  0
  -22.0683   -5.0612   23.6033 F   0  0  0  0  0  0  0  0  0  0  0  0
  -32.9477  -19.6066   22.3340 F   0  0  0  0  0  0  0  0  0  0  0  0
  -29.3709  -20.6430   27.9373 F   0  0  0  0  0  0  0  0  0  0  0  0
  -29.5538  -17.8684   22.9472 S   0  0  0  0  0  0  0  0  0  0  0  0
  1  2  1  0  0  0  0
  1  5  2  0  0  0  0
  2  6  2  0  0  0  0
  3  8  2  0  0  0  0
  3 16  1  0  0  0  0
  4  9  1  0  0  0  0
  4 16  2  0  0  0  0
  5 18  1  0  0  0  0
  6 20  1  0  0  0  0
  7 10  2  0  0  0  0
  7 19  1  0  0  0  0
  8 22  1  0  0  0  0
  9 22  2  0  0  0  0
 10 23  1  0  0  0  0
 11 12  2  0  0  0  0
 11 24  1  0  0  0  0
 12 25  1  0  0  0  0
 13 21  1  0  0  0  0
 13 23  2  0  0  0  0
 14 25  2  0  0  0  0
 14 26  1  0  0  0  0
 15 27  1  0  0  0  0
 15 31  2  0  0  0  0
 16 28  1  0  0  0  0
 17 28  1  0  0  0  0
 17 30  2  0  0  0  0
 17 32  1  0  0  0  0
 18 20  2  0  0  0  0
 18 39  1  0  0  0  0
 19 21  2  0  0  0  0
 19 40  1  0  0  0  0
 20 48  1  0  0  0  0
 21 41  1  0  0  0  0
 22 85  1  0  0  0  0
 23 86  1  0  0  0  0
 24 26  2  0  0  0  0
 24 85  1  0  0  0  0
 25 87  1  0  0  0  0
 26 88  1  0  0  0  0
 27 29  2  0  0  0  0
 27 89  1  0  0  0  0
 28 67  2  0  0  0  0
 29 33  1  0  0  0  0
 29 91  1  0  0  0  0
 30 68  1  0  0  0  0
 30 71  1  0  0  0  0
 31 73  1  0  0  0  0
 31 91  1  0  0  0  0
 32 72  1  0  0  0  0
 32 78  2  0  0  0  0
 33 74  1  0  0  0  0
 33 79  2  0  0  0  0
 34 49  1  0  0  0  0
 34 75  1  0  0  0  0
 34 80  2  0  0  0  0
 35 59  1  0  0  0  0
 35 61  1  0  0  0  0
 35 81  2  0  0  0  0
 36 62  1  0  0  0  0
 36 69  1  0  0  0  0
 36 82  2  0  0  0  0
 37 63  1  0  0  0  0
 37 76  1  0  0  0  0
 37 83  2  0  0  0  0
 38 70  1  0  0  0  0
 38 73  1  0  0  0  0
 38 84  2  0  0  0  0
 39 42  1  0  0  0  0
 40 49  1  0  0  0  0
 41 69  1  0  0  0  0
 42 44  1  0  0  0  0
 43 45  1  0  0  0  0
 43 46  1  0  0  0  0
 44 48  1  0  0  0  0
 45 50  1  0  0  0  0
 46 70  1  0  0  0  0
 47 50  1  0  0  0  0
 47 70  1  0  0  0  0
 48 75  1  0  0  0  0
 49 69  1  0  0  0  0
 50 68  1  0  0  0  0
 51 63  1  0  0  0  0
 52 65  1  0  0  0  0
 53 65  1  0  0  0  0
 54 65  1  0  0  0  0
 55 66  1  0  0  0  0
 56 66  1  0  0  0  0
 57 66  1  0  0  0  0
 58 77  1  0  0  0  0
 59 86  1  0  0  0  0
 60 61  1  0  0  0  0
 60 64  1  0  0  0  0
 61 74  1  0  0  0  0
 62 65  1  0  0  0  0
 62 76  1  0  0  0  0
 63 77  1  0  0  0  0
 64 66  1  0  0  0  0
 64 90  1  0  0  0  0
 67 68  1  0  0  0  0
M  CHG  1  77   1
M  ISO  4  38 100  59 101  73 100  86 101
M  END
> <Batch ID>
0175

> <Smiles>
CNC(C)C(=O)NC(C(=O)N1Cc2cc([101O:1][101CH2:1]C(=O)C(CC(F)C(C)(C)C)NC(=O)c3sc([100NH:0][100C:0](=O)N4CCCC(n5nc(-c6ccc(Oc7ccc(F)cc7F)cc6)c(C(N)=O)c5N)C4)cc3F)ccc2CC1C(=O)NC1CCCc2ccccc21)C(C)(C)C

> <Shape>
0.237

> <Color>
0.184

> <Negative vol penalty>
0.000

$$$$

  -OEChem-04052304353D

 85 93  0     1  0  0  0  0  0999 V2000
  -32.0336  -21.3234   19.6611 C   0  0  0  0  0  0  0  0  0  0  0  0
  -31.1507  -21.6870   20.6729 C   0  0  0  0  0  0  0  0  0  0  0  0
  -29.1204  -28.1870   18.3543 C   0  0  0  0  0  0  0  0  0  0  0  0
  -27.6871  -26.7020   19.6104 C   0  0  0  0  0  0  0  0  0  0  0  0
  -31.5497  -20.7341   18.4938 C   0  0  0  0  0  0  0  0  0  0  0  0
  -29.7833  -21.4624   20.5176 C   0  0  0  0  0  0  0  0  0  0  0  0
  -23.9264  -19.8380   24.3089 C   0  0  0  0  0  0  0  0  0  0  0  0
  -30.1970  -27.3253   18.5641 C   0  0  0  0  0  0  0  0  0  0  0  0
  -28.7637  -25.8403   19.8201 C   0  0  0  0  0  0  0  0  0  0  0  0
  -22.6252  -20.2888   24.5270 C   0  0  0  0  0  0  0  0  0  0  0  0
  -31.3409  -24.4113   17.2862 C   0  0  0  0  0  0  0  0  0  0  0  0
  -32.1583  -24.1176   16.1948 C   0  0  0  0  0  0  0  0  0  0  0  0
  -21.9117  -19.1914   22.5007 C   0  0  0  0  0  0  0  0  0  0  0  0
  -34.0572  -25.0421   17.3681 C   0  0  0  0  0  0  0  0  0  0  0  0
  -27.8654  -27.8754   18.8776 C   0  0  0  0  0  0  0  0  0  0  0  0
  -26.2069  -29.1593   17.4254 C   0  0  0  0  0  0  0  0  0  0  0  0
  -30.1767  -20.4933   18.3281 C   0  0  0  0  0  0  0  0  0  0  0  0
  -24.2327  -19.0684   23.1774 C   0  0  0  0  0  0  0  0  0  0  0  0
  -29.2805  -20.8705   19.3464 C   0  0  0  0  0  0  0  0  0  0  0  0
  -23.2170  -18.7299   22.2719 C   0  0  0  0  0  0  0  0  0  0  0  0
  -30.0187  -26.1519   19.2969 C   0  0  0  0  0  0  0  0  0  0  0  0
  -21.6182  -19.9680   23.6214 C   0  0  0  0  0  0  0  0  0  0  0  0
  -31.8816  -25.0205   18.4185 C   0  0  0  0  0  0  0  0  0  0  0  0
  -33.5164  -24.4330   16.2357 C   0  0  0  0  0  0  0  0  0  0  0  0
  -33.2397  -25.3358   18.4595 C   0  0  0  0  0  0  0  0  0  0  0  0
  -26.7530  -28.7654   18.6617 C   0  0  0  0  0  0  0  0  0  0  0  0
  -18.1821  -28.0753   23.3027 C   0  0  0  0  0  0  0  0  0  0  0  0
  -25.1764  -30.0039   17.7588 C   0  0  0  0  0  0  0  0  0  0  0  0
  -18.4689  -26.8978   22.6444 C   0  0  0  0  0  0  0  0  0  0  0  0
  -20.1752  -28.5954   22.5497 C   0  0  0  0  0  0  0  0  0  0  0  0
  -26.5963  -28.7942   16.0947 C   0  0  0  0  0  0  0  0  0  0  0  0
  -26.1362  -19.4412   20.6592 C   0  0  0  0  0  0  0  0  0  0  0  0
  -18.5198  -21.7311   22.9494 C   0  0  0  0  0  0  0  0  0  0  0  0
  -25.2364  -16.3914   20.0177 C   0  0  0  0  0  0  0  0  0  0  0  0
  -18.1345  -24.5560   21.7804 C   0  0  0  0  0  0  0  0  0  0  0  0
  -22.9296  -13.9075   20.4120 C   0  0  0  0  0  0  0  0  0  0  0  0
  -21.7605  -30.5516   22.6308 C   0  0  0  0  0  0  0  0  0  0  0  0
  -29.6959  -19.8969   17.0290 C   0  0  0  0  0  0  0  0  0  0  0  0
  -25.6357  -18.5674   22.9704 C   0  0  0  0  0  0  0  0  0  0  0  0
  -23.4897  -17.8894   21.0522 C   0  0  0  0  0  0  0  0  0  0  0  0
  -28.2721  -19.3508   17.0995 C   0  0  0  0  0  0  0  0  0  0  0  0
  -23.8044  -33.0738   21.1687 C   0  0  0  0  0  0  0  0  0  0  0  0
  -27.3485  -20.3548   17.7821 C   0  0  0  0  0  0  0  0  0  0  0  0
  -24.7388  -32.2916   20.2428 C   0  0  0  0  0  0  0  0  0  0  0  0
  -23.5105  -32.3072   22.4570 C   0  0  0  0  0  0  0  0  0  0  0  0
  -23.9495  -30.1560   21.3396 C   0  0  0  0  0  0  0  0  0  0  0  0
  -27.7929  -20.6205   19.2255 C   0  0  1  0  0  0  0  0  0  0  0  0
  -25.9385  -18.2225   21.5155 C   0  0  1  0  0  0  0  0  0  0  0  0
  -24.2228  -30.8597   20.0003 C   0  0  2  0  0  0  0  0  0  0  0  0
  -16.9408  -28.3759   24.0452 C   0  0  0  0  0  0  0  0  0  0  0  0
  -22.4511  -11.5383   19.7373 C   0  0  0  0  0  0  0  0  0  0  0  0
  -24.4133  -17.3510   17.2407 C   0  0  0  0  0  0  0  0  0  0  0  0
  -23.1044  -15.2335   16.9732 C   0  0  0  0  0  0  0  0  0  0  0  0
  -25.5786  -15.1385   17.2770 C   0  0  0  0  0  0  0  0  0  0  0  0
  -22.9584  -12.9791   23.2220 C   0  0  0  0  0  0  0  0  0  0  0  0
  -17.5916  -22.0652   21.7908 C   0  0  0  0  0  0  0  0  0  0  0  0
  -19.5436  -20.6464   22.6771 C   0  0  0  0  0  0  0  0  0  1  0  0
  -17.0471  -23.4894   21.8444 C   0  0  0  0  0  0  0  0  0  0  0  0
  -24.1110  -15.7493   19.2430 C   0  0  1  0  0  0  0  0  0  0  0  0
  -23.0794  -12.4437   20.7853 C   0  0  2  0  0  0  0  0  0  0  0  0
  -24.2968  -15.8855   17.7053 C   0  0  0  0  0  0  0  0  0  0  0  0
  -26.1218  -29.3148   19.7027 N   0  0  0  0  0  0  0  0  0  0  0  0
  -19.1596  -29.0497   23.2498 N   0  0  0  0  0  0  0  0  0  0  0  0
  -25.1685  -30.0626   19.1214 N   0  0  0  0  0  0  0  0  0  0  0  0
  -24.8786  -17.4287   20.8905 N   0  0  0  0  0  0  0  0  0  0  0  0
  -23.0217  -30.9614   22.1491 N   0  0  0  0  0  0  0  0  0  0  0  0
  -24.2854  -30.6948   17.0163 N   0  0  0  0  0  0  0  0  0  0  0  0
  -26.0041  -27.6659   15.5111 N   0  0  0  0  0  0  0  0  0  0  0  0
  -17.7399  -25.6968   22.4740 N   0  0  0  0  0  0  0  0  0  0  0  0
  -21.3875  -29.2638   22.2473 N   0  0  0  0  0  0  0  0  0  0  0  0
  -27.3909  -19.5293   20.0870 N   0  0  0  0  0  0  0  0  0  0  0  0
  -24.0250  -14.3714   19.7147 N   0  0  0  0  0  0  0  0  0  0  0  0
  -22.4219  -12.1733   22.0951 N   0  3  0  0  0  0  0  0  0  0  0  0
  -27.4563  -29.4396   15.4487 O   0  0  0  0  0  0  0  0  0  0  0  0
  -25.2178  -20.2415   20.5261 O   0  0  0  0  0  0  0  0  0  0  0  0
  -18.4542  -22.3005   24.0376 O   0  0  0  0  0  0  0  0  0  0  0  0
  -26.3896  -15.9827   19.8597 O   0  0  0  0  0  0  0  0  0  0  0  0
  -19.1926  -24.3747   21.1874 O   0  0  0  0  0  0  0  0  0  0  0  0
  -21.9383  -14.5719   20.7060 O   0  0  0  0  0  0  0  0  0  0  0  0
  -21.0509  -31.2987   23.3093 O   0  0  0  0  0  0  0  0  0  0  0  0
  -31.0689  -25.3107   19.5016 O   0  0  0  0  0  0  0  0  0  0  0  0
  -20.3475  -20.4072   23.8316 O   0  0  0  0  0  0  0  0  0  1  0  0
  -34.3015  -24.1494   15.1882 F   0  0  0  0  0  0  0  0  0  0  0  0
  -33.7651  -25.9201   19.5451 F   0  0  0  0  0  0  0  0  0  0  0  0
  -20.0220  -27.0045   21.9247 S   0  0  0  0  0  0  0  0  0  0  0  0
  1  2  1  0  0  0  0
  1  5  2  0  0  0  0
  2  6  2  0  0  0  0
  3  8  2  0  0  0  0
  3 15  1  0  0  0  0
  4  9  1  0  0  0  0
  4 15  2  0  0  0  0
  5 17  1  0  0  0  0
  6 19  1  0  0  0  0
  7 10  2  0  0  0  0
  7 18  1  0  0  0  0
  8 21  1  0  0  0  0
  9 21  2  0  0  0  0
 10 22  1  0  0  0  0
 11 12  2  0  0  0  0
 11 23  1  0  0  0  0
 12 24  1  0  0  0  0
 13 20  1  0  0  0  0
 13 22  2  0  0  0  0
 14 24  2  0  0  0  0
 14 25  1  0  0  0  0
 15 26  1  0  0  0  0
 16 26  1  0  0  0  0
 16 28  2  0  0  0  0
 16 31  1  0  0  0  0
 17 19  2  0  0  0  0
 17 38  1  0  0  0  0
 18 20  2  0  0  0  0
 18 39  1  0  0  0  0
 19 47  1  0  0  0  0
 20 40  1  0  0  0  0
 21 81  1  0  0  0  0
 22 82  1  0  0  0  0
 23 25  2  0  0  0  0
 23 81  1  0  0  0  0
 24 83  1  0  0  0  0
 25 84  1  0  0  0  0
 26 62  2  0  0  0  0
 27 29  2  0  0  0  0
 27 50  1  0  0  0  0
 27 63  1  0  0  0  0
 28 64  1  0  0  0  0
 28 67  1  0  0  0  0
 29 69  1  0  0  0  0
 29 85  1  0  0  0  0
 30 63  2  0  0  0  0
 30 70  1  0  0  0  0
 30 85  1  0  0  0  0
 31 68  1  0  0  0  0
 31 74  2  0  0  0  0
 32 48  1  0  0  0  0
 32 71  1  0  0  0  0
 32 75  2  0  0  0  0
 33 56  1  0  0  0  0
 33 57  1  0  0  0  0
 33 76  2  0  0  0  0
 34 59  1  0  0  0  0
 34 65  1  0  0  0  0
 34 77  2  0  0  0  0
 35 58  1  0  0  0  0
 35 69  1  0  0  0  0
 35 78  2  0  0  0  0
 36 60  1  0  0  0  0
 36 72  1  0  0  0  0
 36 79  2  0  0  0  0
 37 66  1  0  0  0  0
 37 70  1  0  0  0  0
 37 80  2  0  0  0  0
 38 41  1  0  0  0  0
 39 48  1  0  0  0  0
 40 65  1  0  0  0  0
 41 43  1  0  0  0  0
 42 44  1  0  0  0  0
 42 45  1  0  0  0  0
 43 47  1  0  0  0  0
 44 49  1  0  0  0  0
 45 66  1  0  0  0  0
 46 49  1  0  0  0  0
 46 66  1  0  0  0  0
 47 71  1  0  0  0  0
 48 65  1  0  0  0  0
 49 64  1  0  0  0  0
 51 60  1  0  0  0  0
 52 61  1  0  0  0  0
 53 61  1  0  0  0  0
 54 61  1  0  0  0  0
 55 73  1  0  0  0  0
 56 58  1  0  0  0  0
 57 82  1  0  0  0  0
 59 61  1  0  0  0  0
 59 72  1  0  0  0  0
 60 73  1  0  0  0  0
 62 64  1  0  0  0  0
M  CHG  1  73   1
M  ISO  4  37 100  57 101  70 100  82 101
M  END
> <Batch ID>
0175

> <Smiles>
CNC(C)C(=O)NC(C(=O)N1Cc2cc([101O:1][101CH2:1]C(=O)CCC(=O)Nc3sc([100NH:0][100C:0](=O)N4CCCC(n5nc(-c6ccc(Oc7ccc(F)cc7F)cc6)c(C(N)=O)c5N)C4)nc3C)ccc2CC1C(=O)NC1CCCc2ccccc21)C(C)(C)C

> <Shape>
0.184

> <Color>
0.083

> <Negative vol penalty>
0.000

$$$$

  -OEChem-04052304353D

 87 95  0     1  0  0  0  0  0999 V2000
  -21.0590  -35.7102   15.4842 C   0  0  0  0  0  0  0  0  0  0  0  0
  -22.3069  -35.6029   16.0898 C   0  0  0  0  0  0  0  0  0  0  0  0
  -22.7776  -11.2850   19.0310 C   0  0  0  0  0  0  0  0  0  0  0  0
  -23.1631   -9.7350   20.8437 C   0  0  0  0  0  0  0  0  0  0  0  0
  -19.9162  -35.2957   16.1670 C   0  0  0  0  0  0  0  0  0  0  0  0
  -22.4126  -35.0822   17.3790 C   0  0  0  0  0  0  0  0  0  0  0  0
  -26.4369  -29.2570   18.7072 C   0  0  0  0  0  0  0  0  0  0  0  0
  -21.7620  -10.4625   18.5436 C   0  0  0  0  0  0  0  0  0  0  0  0
  -22.1474   -8.9125   20.3564 C   0  0  0  0  0  0  0  0  0  0  0  0
  -27.3535  -28.2731   19.0784 C   0  0  0  0  0  0  0  0  0  0  0  0
  -18.7694   -8.8304   20.4105 C   0  0  0  0  0  0  0  0  0  0  0  0
  -17.8549   -8.3180   21.3307 C   0  0  0  0  0  0  0  0  0  0  0  0
  -26.5907  -28.4117   21.3690 C   0  0  0  0  0  0  0  0  0  0  0  0
  -27.9234  -20.0284   20.5590 C   0  0  0  0  0  0  0  0  0  0  0  0
  -18.4971   -6.0710   20.7176 C   0  0  0  0  0  0  0  0  0  0  0  0
  -23.4782  -10.9212   20.1810 C   0  0  0  0  0  0  0  0  0  0  0  0
  -24.3995  -12.8220   21.6114 C   0  0  0  0  0  0  0  0  0  0  0  0
  -20.0090  -34.7607   17.4615 C   0  0  0  0  0  0  0  0  0  0  0  0
  -25.5821  -29.8117   19.6637 C   0  0  0  0  0  0  0  0  0  0  0  0
  -21.2698  -34.6615   18.0803 C   0  0  0  0  0  0  0  0  0  0  0  0
  -25.6619  -29.3887   21.0007 C   0  0  0  0  0  0  0  0  0  0  0  0
  -28.2445  -18.6607   20.3215 C   0  0  0  0  0  0  0  0  0  0  0  0
  -21.4468   -9.2762   19.2063 C   0  0  0  0  0  0  0  0  0  0  0  0
  -27.4303  -27.8517   20.4061 C   0  0  0  0  0  0  0  0  0  0  0  0
  -19.5477   -7.9632   19.6438 C   0  0  0  0  0  0  0  0  0  0  0  0
  -17.7188   -6.9383   21.4843 C   0  0  0  0  0  0  0  0  0  0  0  0
  -19.4116   -6.5835   19.7973 C   0  0  0  0  0  0  0  0  0  0  0  0
  -24.5279  -11.7702   20.6846 C   0  0  0  0  0  0  0  0  0  0  0  0
  -29.5868  -18.4804   20.0700 C   0  0  0  0  0  0  0  0  0  0  0  0
  -25.6755  -13.3087   21.7574 C   0  0  0  0  0  0  0  0  0  0  0  0
  -29.0328  -20.8415   20.4801 C   0  0  0  0  0  0  0  0  0  0  0  0
  -30.3225  -17.2371   19.7789 C   0  0  0  0  0  0  0  0  0  0  0  0
  -27.9185  -25.5836   20.7067 C   0  0  0  0  0  0  0  0  0  1  0  0
  -23.2312  -13.3149   22.2807 C   0  0  0  0  0  0  0  0  0  0  0  0
  -28.7124  -24.5563   21.0322 C   0  0  0  0  0  0  0  0  0  0  0  0
  -28.1718  -23.1608   20.9379 C   0  0  0  0  0  0  0  0  0  0  0  0
  -22.8089  -32.2297   20.3977 C   0  0  0  0  0  0  0  0  0  0  0  0
  -22.2286  -29.6899   22.0174 C   0  0  0  0  0  0  0  0  0  0  0  0
  -21.7303  -26.5710   23.3063 C   0  0  0  0  0  0  0  0  0  0  0  0
  -30.4811  -14.9656   19.4524 C   0  0  0  0  0  0  0  0  0  0  0  0
  -18.7407  -34.3700   18.1781 C   0  0  0  0  0  0  0  0  0  0  0  0
  -24.6217  -30.9180   19.3208 C   0  0  0  0  0  0  0  0  0  0  0  0
  -24.7464  -30.0381   22.0021 C   0  0  0  0  0  0  0  0  0  0  0  0
  -18.9785  -33.4817   19.3966 C   0  0  0  0  0  0  0  0  0  0  0  0
  -30.1151  -11.4596   20.2132 C   0  0  0  0  0  0  0  0  0  0  0  0
  -20.1107  -34.0410   20.2522 C   0  0  0  0  0  0  0  0  0  0  0  0
  -28.6117  -11.3098   20.4450 C   0  0  0  0  0  0  0  0  0  0  0  0
  -30.4148  -12.4925   19.1312 C   0  0  0  0  0  0  0  0  0  0  0  0
  -28.2971  -13.6855   19.6222 C   0  0  0  0  0  0  0  0  0  0  0  0
  -21.4279  -34.0788   19.4679 C   0  0  1  0  0  0  0  0  0  0  0  0
  -23.3054  -30.8423   20.1150 C   0  0  1  0  0  0  0  0  0  0  0  0
  -27.9577  -12.6736   20.7300 C   0  0  1  0  0  0  0  0  0  0  0  0
  -20.1334  -25.2605   24.7310 C   0  0  0  0  0  0  0  0  0  0  0  0
  -23.3410  -31.0512   24.5101 C   0  0  0  0  0  0  0  0  0  0  0  0
  -22.4770  -29.1276   25.8597 C   0  0  0  0  0  0  0  0  0  0  0  0
  -20.8879  -30.5715   24.5898 C   0  0  0  0  0  0  0  0  0  0  0  0
  -21.1354  -24.6829   21.1063 C   0  0  0  0  0  0  0  0  0  0  0  0
  -22.3800  -28.9651   23.3308 C   0  0  1  0  0  0  0  0  0  0  0  0
  -20.5104  -25.6675   23.3150 C   0  0  2  0  0  0  0  0  0  0  0  0
  -27.2403  -17.5696   20.3460 C   0  0  0  0  0  0  0  0  0  0  0  0
  -22.2895  -29.9244   24.5510 C   0  0  0  0  0  0  0  0  0  0  0  0
  -25.7861  -11.5984   20.2708 N   0  0  0  0  0  0  0  0  0  0  0  0
  -29.7277  -16.0903   19.7295 N   0  0  0  0  0  0  0  0  0  0  0  0
  -26.4600  -12.5487   20.9406 N   0  0  0  0  0  0  0  0  0  0  0  0
  -23.3990  -30.1851   21.4296 N   0  0  0  0  0  0  0  0  0  0  0  0
  -29.7498  -13.7641   19.4192 N   0  0  0  0  0  0  0  0  0  0  0  0
  -26.1917  -14.3084   22.5034 N   0  0  0  0  0  0  0  0  0  0  0  0
  -22.0000  -12.6999   22.0157 N   0  0  0  0  0  0  0  0  0  0  0  0
  -29.1691  -22.2411   20.6441 N   0  0  0  0  0  0  0  0  0  0  0  0
  -22.0130  -32.7570   19.3987 N   0  0  0  0  0  0  0  0  0  0  0  0
  -21.3787  -27.9041   23.3293 N   0  0  0  0  0  0  0  0  0  0  0  0
  -20.7755  -24.4317   22.5255 N   0  3  0  0  0  0  0  0  0  0  0  0
  -23.2751  -14.2829   23.0773 O   0  0  0  0  0  0  0  0  0  0  0  0
  -26.9792  -22.9341   21.1117 O   0  0  0  0  0  0  0  0  0  0  0  0
  -23.1228  -32.7818   21.4457 O   0  0  0  0  0  0  0  0  0  0  0  0
  -21.1037  -29.8200   21.5265 O   0  0  0  0  0  0  0  0  0  0  0  0
  -22.8801  -26.1375   23.2852 O   0  0  0  0  0  0  0  0  0  0  0  0
  -31.6961  -14.9868   19.2418 O   0  0  0  0  0  0  0  0  0  0  0  0
  -30.0156  -24.7294   21.4520 O   0  0  0  0  0  0  0  0  0  0  0  0
  -20.4557   -8.4735   18.7312 O   0  0  0  0  0  0  0  0  0  0  0  0
  -28.3243  -26.8875   20.7609 O   0  0  0  0  0  0  0  0  0  1  0  0
  -16.8417   -6.4464   22.3691 F   0  0  0  0  0  0  0  0  0  0  0  0
  -20.1573   -5.7454   19.0644 F   0  0  0  0  0  0  0  0  0  0  0  0
  -25.9667  -17.9924   20.6188 F   0  0  0  0  0  0  0  0  0  0  0  0
  -27.1348  -16.8857   19.1645 F   0  0  0  0  0  0  0  0  0  0  0  0
  -27.5113  -16.6163   21.2892 F   0  0  0  0  0  0  0  0  0  0  0  0
  -30.4539  -19.9562   20.1207 S   0  0  0  0  0  0  0  0  0  0  0  0
  1  2  1  0  0  0  0
  1  5  2  0  0  0  0
  2  6  2  0  0  0  0
  3  8  2  0  0  0  0
  3 16  1  0  0  0  0
  4  9  1  0  0  0  0
  4 16  2  0  0  0  0
  5 18  1  0  0  0  0
  6 20  1  0  0  0  0
  7 10  2  0  0  0  0
  7 19  1  0  0  0  0
  8 23  1  0  0  0  0
  9 23  2  0  0  0  0
 10 24  1  0  0  0  0
 11 12  2  0  0  0  0
 11 25  1  0  0  0  0
 12 26  1  0  0  0  0
 13 21  1  0  0  0  0
 13 24  2  0  0  0  0
 14 22  1  0  0  0  0
 14 31  2  0  0  0  0
 15 26  2  0  0  0  0
 15 27  1  0  0  0  0
 16 28  1  0  0  0  0
 17 28  1  0  0  0  0
 17 30  2  0  0  0  0
 17 34  1  0  0  0  0
 18 20  2  0  0  0  0
 18 41  1  0  0  0  0
 19 21  2  0  0  0  0
 19 42  1  0  0  0  0
 20 50  1  0  0  0  0
 21 43  1  0  0  0  0
 22 29  2  0  0  0  0
 22 60  1  0  0  0  0
 23 80  1  0  0  0  0
 24 81  1  0  0  0  0
 25 27  2  0  0  0  0
 25 80  1  0  0  0  0
 26 82  1  0  0  0  0
 27 83  1  0  0  0  0
 28 62  2  0  0  0  0
 29 32  1  0  0  0  0
 29 87  1  0  0  0  0
 30 64  1  0  0  0  0
 30 67  1  0  0  0  0
 31 69  1  0  0  0  0
 31 87  1  0  0  0  0
 32 63  2  0  0  0  0
 33 35  2  0  0  0  0
 33 81  1  0  0  0  0
 34 68  1  0  0  0  0
 34 73  2  0  0  0  0
 35 36  1  0  0  0  0
 35 79  1  0  0  0  0
 36 69  1  0  0  0  0
 36 74  2  0  0  0  0
 37 51  1  0  0  0  0
 37 70  1  0  0  0  0
 37 75  2  0  0  0  0
 38 58  1  0  0  0  0
 38 65  1  0  0  0  0
 38 76  2  0  0  0  0
 39 59  1  0  0  0  0
 39 71  1  0  0  0  0
 39 77  2  0  0  0  0
 40 63  1  0  0  0  0
 40 66  1  0  0  0  0
 40 78  2  0  0  0  0
 41 44  1  0  0  0  0
 42 51  1  0  0  0  0
 43 65  1  0  0  0  0
 44 46  1  0  0  0  0
 45 47  1  0  0  0  0
 45 48  1  0  0  0  0
 46 50  1  0  0  0  0
 47 52  1  0  0  0  0
 48 66  1  0  0  0  0
 49 52  1  0  0  0  0
 49 66  1  0  0  0  0
 50 70  1  0  0  0  0
 51 65  1  0  0  0  0
 52 64  1  0  0  0  0
 53 59  1  0  0  0  0
 54 61  1  0  0  0  0
 55 61  1  0  0  0  0
 56 61  1  0  0  0  0
 57 72  1  0  0  0  0
 58 61  1  0  0  0  0
 58 71  1  0  0  0  0
 59 72  1  0  0  0  0
 60 84  1  0  0  0  0
 60 85  1  0  0  0  0
 60 86  1  0  0  0  0
 62 64  1  0  0  0  0
M  CHG  1  72   1
M  ISO  4  33 101  40 100  63 100  81 101
M  END
> <Batch ID>
0175

> <Smiles>
CNC(C)C(=O)NC(C(=O)N1Cc2cc([101O:1][101CH2:1]C(=O)C(=O)Nc3cc(C(F)(F)F)c(C=[100N:0][100C:0](=O)N4CCCC(n5nc(-c6ccc(Oc7ccc(F)cc7F)cc6)c(C(N)=O)c5N)C4)s3)ccc2CC1C(=O)NC1CCCc2ccccc21)C(C)(C)C

> <Shape>
0.259

> <Color>
0.117

> <Negative vol penalty>
0.000

$$$$

  -OEChem-04052304353D

 89 97  0     1  0  0  0  0  0999 V2000
  -19.9679  -24.7018   36.2976 C   0  0  0  0  0  0  0  0  0  0  0  0
  -20.5787  -24.5242   35.0604 C   0  0  0  0  0  0  0  0  0  0  0  0
  -23.0748   -9.8677   19.9422 C   0  0  0  0  0  0  0  0  0  0  0  0
  -23.8387   -9.8750   22.2342 C   0  0  0  0  0  0  0  0  0  0  0  0
  -20.5488  -25.5423   37.2463 C   0  0  0  0  0  0  0  0  0  0  0  0
  -21.7704  -25.1879   34.7707 C   0  0  0  0  0  0  0  0  0  0  0  0
  -25.1864  -22.1721   32.5615 C   0  0  0  0  0  0  0  0  0  0  0  0
  -29.7374  -17.4150   24.0818 C   0  0  0  0  0  0  0  0  0  0  0  0
  -28.9317  -18.2097   24.8971 C   0  0  0  0  0  0  0  0  0  0  0  0
  -22.3325   -8.7138   20.1932 C   0  0  0  0  0  0  0  0  0  0  0  0
  -23.0963   -8.7211   22.4853 C   0  0  0  0  0  0  0  0  0  0  0  0
  -25.0149  -21.9029   31.2043 C   0  0  0  0  0  0  0  0  0  0  0  0
  -19.8700   -7.9201   23.0933 C   0  0  0  0  0  0  0  0  0  0  0  0
  -19.1151   -7.8792   24.2655 C   0  0  0  0  0  0  0  0  0  0  0  0
  -26.6816  -23.5631   30.6705 C   0  0  0  0  0  0  0  0  0  0  0  0
  -28.5301  -19.7051   23.0424 C   0  0  0  0  0  0  0  0  0  0  0  0
  -20.3597   -5.9429   24.9995 C   0  0  0  0  0  0  0  0  0  0  0  0
  -23.8280  -10.4483   20.9627 C   0  0  0  0  0  0  0  0  0  0  0  0
  -24.1672  -12.9738   20.8424 C   0  0  0  0  0  0  0  0  0  0  0  0
  -21.7532  -26.2091   36.9717 C   0  0  0  0  0  0  0  0  0  0  0  0
  -26.1005  -23.1482   32.9835 C   0  0  0  0  0  0  0  0  0  0  0  0
  -22.3673  -26.0392   35.7161 C   0  0  0  0  0  0  0  0  0  0  0  0
  -26.8647  -23.8410   32.0337 C   0  0  0  0  0  0  0  0  0  0  0  0
  -29.9395  -17.7653   22.7468 C   0  0  0  0  0  0  0  0  0  0  0  0
  -29.3359  -18.9103   22.2271 C   0  0  0  0  0  0  0  0  0  0  0  0
  -28.3281  -19.3548   24.3774 C   0  0  0  0  0  0  0  0  0  0  0  0
  -22.3433   -8.1405   21.4648 C   0  0  0  0  0  0  0  0  0  0  0  0
  -25.7604  -22.6004   30.2585 C   0  0  0  0  0  0  0  0  0  0  0  0
  -20.8697   -6.9723   22.8741 C   0  0  0  0  0  0  0  0  0  0  0  0
  -19.3600   -6.8907   25.2186 C   0  0  0  0  0  0  0  0  0  0  0  0
  -21.1146   -5.9837   23.8272 C   0  0  0  0  0  0  0  0  0  0  0  0
  -24.5955  -11.6400   20.7038 C   0  0  0  0  0  0  0  0  0  0  0  0
  -25.2579  -13.7244   20.4774 C   0  0  0  0  0  0  0  0  0  0  0  0
  -26.3771  -21.3749   28.3641 C   0  0  0  0  0  0  0  0  0  1  0  0
  -22.8969  -13.4883   21.2637 C   0  0  0  0  0  0  0  0  0  0  0  0
  -26.2985  -21.0376   27.0712 C   0  0  0  0  0  0  0  0  0  0  0  0
  -27.2018  -19.9634   26.5434 C   0  0  0  0  0  0  0  0  0  0  0  0
  -25.8780  -25.8917   34.5733 C   0  0  0  0  0  0  0  0  0  0  0  0
  -29.1172  -25.7823   34.4392 C   0  0  0  0  0  0  0  0  0  0  0  0
  -31.9141  -24.6206   32.8662 C   0  0  0  0  0  0  0  0  0  0  0  0
  -30.7410  -14.7487   20.6564 C   0  0  0  0  0  0  0  0  0  0  0  0
  -22.3185  -27.1443   38.0112 C   0  0  0  0  0  0  0  0  0  0  0  0
  -26.2930  -23.4080   34.4525 C   0  0  0  0  0  0  0  0  0  0  0  0
  -27.8738  -24.8843   32.4359 C   0  0  0  0  0  0  0  0  0  0  0  0
  -23.7779  -27.5182   37.7649 C   0  0  0  0  0  0  0  0  0  0  0  0
  -29.6016  -12.3635   18.2712 C   0  0  0  0  0  0  0  0  0  0  0  0
  -23.9920  -27.8996   36.3035 C   0  0  0  0  0  0  0  0  0  0  0  0
  -28.1652  -12.0683   18.7066 C   0  0  0  0  0  0  0  0  0  0  0  0
  -30.5206  -12.5850   19.4706 C   0  0  0  0  0  0  0  0  0  0  0  0
  -28.6205  -13.3140   20.8606 C   0  0  0  0  0  0  0  0  0  0  0  0
  -23.6734  -26.7224   35.3738 C   0  0  1  0  0  0  0  0  0  0  0  0
  -26.8804  -24.7855   34.7437 C   0  0  1  0  0  0  0  0  0  0  0  0
  -27.6445  -13.1387   19.6846 C   0  0  2  0  0  0  0  0  0  0  0  0
  -34.4192  -24.7323   32.9642 C   0  0  0  0  0  0  0  0  0  0  0  0
  -30.0142  -21.7450   21.1940 C   0  0  0  0  0  0  0  0  0  0  0  0
  -31.9318  -20.1500   21.1485 C   0  0  0  0  0  0  0  0  0  0  0  0
  -30.7235  -20.7282   19.0291 C   0  0  0  0  0  0  0  0  0  0  0  0
  -29.0370  -28.5834   33.2321 C   0  0  0  0  0  0  0  0  0  0  0  0
  -31.4053  -28.2555   32.4893 C   0  0  0  0  0  0  0  0  0  0  0  0
  -30.8471  -28.2265   34.9204 C   0  0  0  0  0  0  0  0  0  0  0  0
  -32.1431  -21.7021   33.3006 C   0  0  0  0  0  0  0  0  0  0  0  0
  -29.5363  -19.3039   20.8004 C   0  0  0  0  0  0  0  0  0  0  0  0
  -30.8069  -16.8992   21.8935 C   0  0  0  0  0  0  0  0  0  0  0  0
  -30.1642  -26.2727   33.4684 C   0  0  1  0  0  0  0  0  0  0  0  0
  -33.1772  -23.9733   33.4048 C   0  0  2  0  0  0  0  0  0  0  0  0
  -30.5553  -20.4588   20.5345 C   0  0  0  0  0  0  0  0  0  0  0  0
  -30.3431  -27.8163   33.5196 C   0  0  0  0  0  0  0  0  0  0  0  0
  -25.8597  -11.5454   20.2833 N   0  0  0  0  0  0  0  0  0  0  0  0
  -26.2351  -12.8294   20.1545 N   0  0  0  0  0  0  0  0  0  0  0  0
  -28.0212  -25.1068   33.8838 N   0  0  0  0  0  0  0  0  0  0  0  0
  -29.9706  -13.6129   20.3577 N   0  0  0  0  0  0  0  0  0  0  0  0
  -25.4669  -15.0561   20.4042 N   0  0  0  0  0  0  0  0  0  0  0  0
  -21.8865  -12.5781   21.6025 N   0  0  0  0  0  0  0  0  0  0  0  0
  -27.5086  -20.1608   25.2041 N   0  0  0  0  0  0  0  0  0  0  0  0
  -24.7608  -25.7673   35.3769 N   0  0  0  0  0  0  0  0  0  0  0  0
  -31.3787  -25.5203   33.7635 N   0  0  0  0  0  0  0  0  0  0  0  0
  -30.1424  -15.6768   21.4996 N   0  0  0  0  0  0  0  0  0  0  0  0
  -33.2875  -22.5689   32.9184 N   0  3  0  0  0  0  0  0  0  0  0  0
  -22.6596  -14.7187   21.3216 O   0  0  0  0  0  0  0  0  0  0  0  0
  -27.5841  -19.0500   27.2669 O   0  0  0  0  0  0  0  0  0  0  0  0
  -26.1022  -26.7923   33.7730 O   0  0  0  0  0  0  0  0  0  0  0  0
  -29.2697  -25.9847   35.6464 O   0  0  0  0  0  0  0  0  0  0  0  0
  -31.4510  -24.3574   31.7586 O   0  0  0  0  0  0  0  0  0  0  0  0
  -31.8760  -14.9254   20.2008 O   0  0  0  0  0  0  0  0  0  0  0  0
  -25.4146  -21.6402   26.1994 O   0  0  0  0  0  0  0  0  0  0  0  0
  -21.6188   -7.0147   21.7102 O   0  0  0  0  0  0  0  0  0  0  0  0
  -25.5945  -22.3400   28.9331 O   0  0  0  0  0  0  0  0  0  1  0  0
  -18.6360   -6.8525   26.3450 F   0  0  0  0  0  0  0  0  0  0  0  0
  -22.0744   -5.0712   23.6228 F   0  0  0  0  0  0  0  0  0  0  0  0
  1  2  1  0  0  0  0
  1  5  2  0  0  0  0
  2  6  2  0  0  0  0
  3 10  2  0  0  0  0
  3 18  1  0  0  0  0
  4 11  1  0  0  0  0
  4 18  2  0  0  0  0
  5 20  1  0  0  0  0
  6 22  1  0  0  0  0
  7 12  2  0  0  0  0
  7 21  1  0  0  0  0
  8  9  2  0  0  0  0
  8 24  1  0  0  0  0
  9 26  1  0  0  0  0
 10 27  1  0  0  0  0
 11 27  2  0  0  0  0
 12 28  1  0  0  0  0
 13 14  2  0  0  0  0
 13 29  1  0  0  0  0
 14 30  1  0  0  0  0
 15 23  1  0  0  0  0
 15 28  2  0  0  0  0
 16 25  1  0  0  0  0
 16 26  2  0  0  0  0
 17 30  2  0  0  0  0
 17 31  1  0  0  0  0
 18 32  1  0  0  0  0
 19 32  1  0  0  0  0
 19 33  2  0  0  0  0
 19 35  1  0  0  0  0
 20 22  2  0  0  0  0
 20 42  1  0  0  0  0
 21 23  2  0  0  0  0
 21 43  1  0  0  0  0
 22 51  1  0  0  0  0
 23 44  1  0  0  0  0
 24 25  2  0  0  0  0
 24 63  1  0  0  0  0
 25 62  1  0  0  0  0
 26 74  1  0  0  0  0
 27 86  1  0  0  0  0
 28 87  1  0  0  0  0
 29 31  2  0  0  0  0
 29 86  1  0  0  0  0
 30 88  1  0  0  0  0
 31 89  1  0  0  0  0
 32 68  2  0  0  0  0
 33 69  1  0  0  0  0
 33 72  1  0  0  0  0
 34 36  2  0  0  0  0
 34 87  1  0  0  0  0
 35 73  1  0  0  0  0
 35 79  2  0  0  0  0
 36 37  1  0  0  0  0
 36 85  1  0  0  0  0
 37 74  1  0  0  0  0
 37 80  2  0  0  0  0
 38 52  1  0  0  0  0
 38 75  1  0  0  0  0
 38 81  2  0  0  0  0
 39 64  1  0  0  0  0
 39 70  1  0  0  0  0
 39 82  2  0  0  0  0
 40 65  1  0  0  0  0
 40 76  1  0  0  0  0
 40 83  2  0  0  0  0
 41 71  1  0  0  0  0
 41 77  1  0  0  0  0
 41 84  2  0  0  0  0
 42 45  1  0  0  0  0
 43 52  1  0  0  0  0
 44 70  1  0  0  0  0
 45 47  1  0  0  0  0
 46 48  1  0  0  0  0
 46 49  1  0  0  0  0
 47 51  1  0  0  0  0
 48 53  1  0  0  0  0
 49 71  1  0  0  0  0
 50 53  1  0  0  0  0
 50 71  1  0  0  0  0
 51 75  1  0  0  0  0
 52 70  1  0  0  0  0
 53 69  1  0  0  0  0
 54 65  1  0  0  0  0
 55 66  1  0  0  0  0
 56 66  1  0  0  0  0
 57 66  1  0  0  0  0
 58 67  1  0  0  0  0
 59 67  1  0  0  0  0
 60 67  1  0  0  0  0
 61 78  1  0  0  0  0
 62 66  1  0  0  0  0
 63 77  1  0  0  0  0
 64 67  1  0  0  0  0
 64 76  1  0  0  0  0
 65 78  1  0  0  0  0
 68 69  1  0  0  0  0
M  CHG  1  78   1
M  ISO  4  34 101  41 100  77 100  87 101
M  END
> <Batch ID>
0175

> <Smiles>
CNC(C)C(=O)NC(C(=O)N1Cc2cc([101O:1][101CH2:1]C(=O)C(=O)Nc3ccc(C[100NH:0][100C:0](=O)N4CCCC(n5nc(-c6ccc(Oc7ccc(F)cc7F)cc6)c(C(N)=O)c5N)C4)c(CC(C)(C)C)c3)ccc2CC1C(=O)NC1CCCc2ccccc21)C(C)(C)C

> <Shape>
0.179

> <Color>
0.184

> <Negative vol penalty>
0.000

$$$$

  -OEChem-04052304353D

 86 94  0     1  0  0  0  0  0999 V2000
  -34.8410  -27.7721   18.2399 C   0  0  0  0  0  0  0  0  0  0  0  0
  -33.4754  -27.9812   18.4040 C   0  0  0  0  0  0  0  0  0  0  0  0
  -21.9656  -16.6077   18.2609 C   0  0  0  0  0  0  0  0  0  0  0  0
  -21.5615  -17.7111   20.3719 C   0  0  0  0  0  0  0  0  0  0  0  0
  -35.3121  -26.5155   17.8618 C   0  0  0  0  0  0  0  0  0  0  0  0
  -32.5800  -26.9341   18.1890 C   0  0  0  0  0  0  0  0  0  0  0  0
  -29.0454  -26.6273   21.8025 C   0  0  0  0  0  0  0  0  0  0  0  0
  -22.2672  -15.4254   18.9366 C   0  0  0  0  0  0  0  0  0  0  0  0
  -21.8631  -16.5287   21.0476 C   0  0  0  0  0  0  0  0  0  0  0  0
  -27.9887  -27.5345   21.7382 C   0  0  0  0  0  0  0  0  0  0  0  0
  -24.8869  -14.1233   20.6297 C   0  0  0  0  0  0  0  0  0  0  0  0
  -26.0139  -13.4120   20.2182 C   0  0  0  0  0  0  0  0  0  0  0  0
  -26.5957  -25.8324   20.7475 C   0  0  0  0  0  0  0  0  0  0  0  0
  -24.6234  -11.5028   19.7100 C   0  0  0  0  0  0  0  0  0  0  0  0
  -19.9482  -25.3886   22.2905 C   0  0  0  0  0  0  0  0  0  0  0  0
  -19.6772  -27.5987   23.1994 C   0  0  0  0  0  0  0  0  0  0  0  0
  -21.6128  -17.7506   18.9786 C   0  0  0  0  0  0  0  0  0  0  0  0
  -20.2772  -19.1753   17.3372 C   0  0  0  0  0  0  0  0  0  0  0  0
  -34.4228  -25.4499   17.6514 C   0  0  0  0  0  0  0  0  0  0  0  0
  -28.8883  -25.3168   21.3290 C   0  0  0  0  0  0  0  0  0  0  0  0
  -33.0396  -25.6624   17.8064 C   0  0  0  0  0  0  0  0  0  0  0  0
  -27.6512  -24.9098   20.8092 C   0  0  0  0  0  0  0  0  0  0  0  0
  -22.2160  -15.3858   20.3300 C   0  0  0  0  0  0  0  0  0  0  0  0
  -26.7645  -27.1380   21.2080 C   0  0  0  0  0  0  0  0  0  0  0  0
  -23.6281  -13.5244   20.5815 C   0  0  0  0  0  0  0  0  0  0  0  0
  -25.8822  -12.1018   19.7583 C   0  0  0  0  0  0  0  0  0  0  0  0
  -23.4963  -12.2141   20.1216 C   0  0  0  0  0  0  0  0  0  0  0  0
  -19.2987  -26.2615   23.1562 C   0  0  0  0  0  0  0  0  0  0  0  0
  -21.3017  -18.9725   18.2812 C   0  0  0  0  0  0  0  0  0  0  0  0
  -20.9617  -25.8984   21.4950 C   0  0  0  0  0  0  0  0  0  0  0  0
  -20.7029  -28.0096   22.3635 C   0  0  0  0  0  0  0  0  0  0  0  0
  -20.4001  -20.4945   16.9751 C   0  0  0  0  0  0  0  0  0  0  0  0
  -19.3015  -18.2537   16.8328 C   0  0  0  0  0  0  0  0  0  0  0  0
  -30.2438  -23.5827   19.0356 C   0  0  0  0  0  0  0  0  0  0  0  0
  -23.4665  -29.6133   22.2195 C   0  0  0  0  0  0  0  0  0  0  0  0
  -28.4479  -21.2022   20.3124 C   0  0  0  0  0  0  0  0  0  0  0  0
  -25.6997  -20.2985   22.1228 C   0  0  0  0  0  0  0  0  0  0  0  0
  -22.6564  -25.2913   19.7327 C   0  0  0  0  0  0  0  0  0  0  0  0
  -34.9754  -24.1220   17.1976 C   0  0  0  0  0  0  0  0  0  0  0  0
  -30.0297  -24.3426   21.4300 C   0  0  0  0  0  0  0  0  0  0  0  0
  -27.4248  -23.5083   20.3062 C   0  0  0  0  0  0  0  0  0  0  0  0
  -33.9899  -22.9667   17.3537 C   0  0  0  0  0  0  0  0  0  0  0  0
  -23.6596  -23.9806   16.5780 C   0  0  0  0  0  0  0  0  0  0  0  0
  -32.6161  -23.3613   16.8209 C   0  0  0  0  0  0  0  0  0  0  0  0
  -23.0703  -22.5682   16.5683 C   0  0  0  0  0  0  0  0  0  0  0  0
  -24.1504  -24.3808   17.9681 C   0  0  0  0  0  0  0  0  0  0  0  0
  -22.5721  -22.8176   19.0333 C   0  0  0  0  0  0  0  0  0  0  0  0
  -32.0388  -24.5450   17.6065 C   0  0  1  0  0  0  0  0  0  0  0  0
  -29.9141  -23.1825   20.4459 C   0  0  1  0  0  0  0  0  0  0  0  0
  -22.0050  -22.3944   17.6684 C   0  0  2  0  0  0  0  0  0  0  0  0
  -24.4745  -18.2781   22.9679 C   0  0  0  0  0  0  0  0  0  0  0  0
  -27.3417  -20.7049   17.5126 C   0  0  0  0  0  0  0  0  0  0  0  0
  -25.4894  -19.3818   18.5550 C   0  0  0  0  0  0  0  0  0  0  0  0
  -27.8544  -18.6324   18.8150 C   0  0  0  0  0  0  0  0  0  0  0  0
  -26.0744  -21.1080   24.9447 C   0  0  0  0  0  0  0  0  0  0  0  0
  -24.6640  -30.1756   21.4665 C   0  0  0  0  0  0  0  0  0  0  0  0
  -22.1139  -29.9255   21.6122 C   0  0  0  0  0  0  0  0  0  0  0  0
  -27.0543  -20.6710   20.0782 C   0  0  1  0  0  0  0  0  0  0  0  0
  -25.5289  -19.3291   23.2785 C   0  0  2  0  0  0  0  0  0  0  0  0
  -26.9395  -19.8746   18.7478 C   0  0  0  0  0  0  0  0  0  0  0  0
  -25.9294  -29.3515   21.6269 C   0  0  0  0  0  0  0  0  0  1  0  0
  -22.0225  -20.0746   18.5046 N   0  0  0  0  0  0  0  0  0  0  0  0
  -21.3572  -27.1911   21.5093 N   0  0  0  0  0  0  0  0  0  0  0  0
  -21.4501  -20.9825   17.6958 N   0  0  0  0  0  0  0  0  0  0  0  0
  -28.5733  -22.5944   20.4205 N   0  0  0  0  0  0  0  0  0  0  0  0
  -23.0869  -24.1938   18.9576 N   0  0  0  0  0  0  0  0  0  0  0  0
  -19.7115  -21.2730   16.1136 N   0  0  0  0  0  0  0  0  0  0  0  0
  -18.0757  -18.1448   17.5036 N   0  0  0  0  0  0  0  0  0  0  0  0
  -21.6177  -25.0008   20.6167 N   0  0  0  0  0  0  0  0  0  0  0  0
  -21.0685  -29.3470   22.4171 N   0  0  0  0  0  0  0  0  0  0  0  0
  -31.5159  -24.0994   18.8802 N   0  0  0  0  0  0  0  0  0  0  0  0
  -26.7056  -19.9013   21.2674 N   0  0  0  0  0  0  0  0  0  0  0  0
  -25.1162  -20.0592   24.5103 N   0  3  0  0  0  0  0  0  0  0  0  0
  -19.5169  -17.5357   15.8270 O   0  0  0  0  0  0  0  0  0  0  0  0
  -29.4065  -23.4324   18.1536 O   0  0  0  0  0  0  0  0  0  0  0  0
  -23.5902  -28.9451   23.2450 O   0  0  0  0  0  0  0  0  0  0  0  0
  -29.3895  -20.4104   20.4034 O   0  0  0  0  0  0  0  0  0  0  0  0
  -25.0074  -21.3053   21.9901 O   0  0  0  0  0  0  0  0  0  0  0  0
  -23.1527  -26.4131   19.6014 O   0  0  0  0  0  0  0  0  0  0  0  0
  -22.5100  -14.2321   20.9896 O   0  0  0  0  0  0  0  0  0  0  0  0
  -25.7316  -28.0217   21.1434 O   0  0  0  0  0  0  0  0  0  1  0  0
  -26.9644  -11.4193   19.3617 F   0  0  0  0  0  0  0  0  0  0  0  0
  -22.2895  -11.6337   20.0718 F   0  0  0  0  0  0  0  0  0  0  0  0
  -18.3131  -25.8157   23.9459 F   0  0  0  0  0  0  0  0  0  0  0  0
  -26.9537  -29.9437   20.9659 F   0  0  0  0  0  0  0  0  0  0  0  0
  -26.2501  -29.3056   22.9455 F   0  0  0  0  0  0  0  0  0  0  0  0
  1  2  1  0  0  0  0
  1  5  2  0  0  0  0
  2  6  2  0  0  0  0
  3  8  2  0  0  0  0
  3 17  1  0  0  0  0
  4  9  1  0  0  0  0
  4 17  2  0  0  0  0
  5 19  1  0  0  0  0
  6 21  1  0  0  0  0
  7 10  2  0  0  0  0
  7 20  1  0  0  0  0
  8 23  1  0  0  0  0
  9 23  2  0  0  0  0
 10 24  1  0  0  0  0
 11 12  2  0  0  0  0
 11 25  1  0  0  0  0
 12 26  1  0  0  0  0
 13 22  1  0  0  0  0
 13 24  2  0  0  0  0
 14 26  2  0  0  0  0
 14 27  1  0  0  0  0
 15 28  1  0  0  0  0
 15 30  2  0  0  0  0
 16 28  2  0  0  0  0
 16 31  1  0  0  0  0
 17 29  1  0  0  0  0
 18 29  1  0  0  0  0
 18 32  2  0  0  0  0
 18 33  1  0  0  0  0
 19 21  2  0  0  0  0
 19 39  1  0  0  0  0
 20 22  2  0  0  0  0
 20 40  1  0  0  0  0
 21 48  1  0  0  0  0
 22 41  1  0  0  0  0
 23 80  1  0  0  0  0
 24 81  1  0  0  0  0
 25 27  2  0  0  0  0
 25 80  1  0  0  0  0
 26 82  1  0  0  0  0
 27 83  1  0  0  0  0
 28 84  1  0  0  0  0
 29 62  2  0  0  0  0
 30 63  1  0  0  0  0
 30 69  1  0  0  0  0
 31 63  2  0  0  0  0
 31 70  1  0  0  0  0
 32 64  1  0  0  0  0
 32 67  1  0  0  0  0
 33 68  1  0  0  0  0
 33 74  2  0  0  0  0
 34 49  1  0  0  0  0
 34 71  1  0  0  0  0
 34 75  2  0  0  0  0
 35 56  1  0  0  0  0
 35 57  1  0  0  0  0
 35 76  2  0  0  0  0
 36 58  1  0  0  0  0
 36 65  1  0  0  0  0
 36 77  2  0  0  0  0
 37 59  1  0  0  0  0
 37 72  1  0  0  0  0
 37 78  2  0  0  0  0
 38 66  1  0  0  0  0
 38 69  1  0  0  0  0
 38 79  2  0  0  0  0
 39 42  1  0  0  0  0
 40 49  1  0  0  0  0
 41 65  1  0  0  0  0
 42 44  1  0  0  0  0
 43 45  1  0  0  0  0
 43 46  1  0  0  0  0
 44 48  1  0  0  0  0
 45 50  1  0  0  0  0
 46 66  1  0  0  0  0
 47 50  1  0  0  0  0
 47 66  1  0  0  0  0
 48 71  1  0  0  0  0
 49 65  1  0  0  0  0
 50 64  1  0  0  0  0
 51 59  1  0  0  0  0
 52 60  1  0  0  0  0
 53 60  1  0  0  0  0
 54 60  1  0  0  0  0
 55 73  1  0  0  0  0
 56 61  1  0  0  0  0
 57 70  1  0  0  0  0
 58 60  1  0  0  0  0
 58 72  1  0  0  0  0
 59 73  1  0  0  0  0
 61 81  1  0  0  0  0
 61 85  1  0  0  0  0
 61 86  1  0  0  0  0
 62 64  1  0  0  0  0
M  CHG  1  73   1
M  ISO  4  38 100  61 101  69 100  81 101
M  END
> <Batch ID>
0175

> <Smiles>
CNC(C)C(=O)NC(C(=O)N1Cc2cc([101O:1][101C:1](F)(F)CC(=O)CNc3cc(F)cc([100NH:0][100C:0](=O)N4CCCC(n5nc(-c6ccc(Oc7ccc(F)cc7F)cc6)c(C(N)=O)c5N)C4)n3)ccc2CC1C(=O)NC1CCCc2ccccc21)C(C)(C)C

> <Shape>
0.195

> <Color>
0.088

> <Negative vol penalty>
0.000

$$$$

  -OEChem-04052304353D

 87 95  0     1  0  0  0  0  0999 V2000
  -29.2273  -24.6407   13.2072 C   0  0  0  0  0  0  0  0  0  0  0  0
  -29.1094  -23.5755   14.0928 C   0  0  0  0  0  0  0  0  0  0  0  0
  -22.9529  -23.9858   18.1950 C   0  0  0  0  0  0  0  0  0  0  0  0
  -24.6292  -23.6660   19.9052 C   0  0  0  0  0  0  0  0  0  0  0  0
  -29.7966  -25.8382   13.6351 C   0  0  0  0  0  0  0  0  0  0  0  0
  -29.5498  -23.7113   15.4098 C   0  0  0  0  0  0  0  0  0  0  0  0
  -28.5561  -20.0077   18.4920 C   0  0  0  0  0  0  0  0  0  0  0  0
  -22.8922  -25.3436   18.5083 C   0  0  0  0  0  0  0  0  0  0  0  0
  -24.5686  -25.0239   20.2185 C   0  0  0  0  0  0  0  0  0  0  0  0
  -29.2048  -18.7756   18.4237 C   0  0  0  0  0  0  0  0  0  0  0  0
  -25.7627  -27.9244   18.9607 C   0  0  0  0  0  0  0  0  0  0  0  0
  -26.9692  -28.6014   19.1384 C   0  0  0  0  0  0  0  0  0  0  0  0
  -30.5490  -19.3843   20.3321 C   0  0  0  0  0  0  0  0  0  0  0  0
  -26.7840  -14.0993   20.9976 C   0  0  0  0  0  0  0  0  0  0  0  0
  -26.3272  -29.1514   21.4017 C   0  0  0  0  0  0  0  0  0  0  0  0
  -23.8214  -23.1470   18.8935 C   0  0  0  0  0  0  0  0  0  0  0  0
  -24.7275  -21.1255   17.6285 C   0  0  0  0  0  0  0  0  0  0  0  0
  -30.2553  -25.9837   14.9547 C   0  0  0  0  0  0  0  0  0  0  0  0
  -28.9071  -20.9433   19.4758 C   0  0  0  0  0  0  0  0  0  0  0  0
  -30.1054  -24.9198   15.8674 C   0  0  0  0  0  0  0  0  0  0  0  0
  -29.9014  -20.6266   20.4123 C   0  0  0  0  0  0  0  0  0  0  0  0
  -27.5703  -12.9526   20.9987 C   0  0  0  0  0  0  0  0  0  0  0  0
  -23.7001  -25.8627   19.5200 C   0  0  0  0  0  0  0  0  0  0  0  0
  -30.2035  -18.4648   19.3420 C   0  0  0  0  0  0  0  0  0  0  0  0
  -24.8384  -27.8609   20.0035 C   0  0  0  0  0  0  0  0  0  0  0  0
  -27.2515  -29.2149   20.3589 C   0  0  0  0  0  0  0  0  0  0  0  0
  -25.1207  -28.4744   21.2240 C   0  0  0  0  0  0  0  0  0  0  0  0
  -26.9762  -11.7088   20.8161 C   0  0  0  0  0  0  0  0  0  0  0  0
  -23.8841  -21.7441   18.5707 C   0  0  0  0  0  0  0  0  0  0  0  0
  -25.4191  -13.9496   20.8115 C   0  0  0  0  0  0  0  0  0  0  0  0
  -25.6027  -11.6661   20.6383 C   0  0  0  0  0  0  0  0  0  0  0  0
  -24.4023  -19.7929   17.6993 C   0  0  0  0  0  0  0  0  0  0  0  0
  -25.7166  -21.7036   16.7665 C   0  0  0  0  0  0  0  0  0  0  0  0
  -30.0966  -23.8909   19.4457 C   0  0  0  0  0  0  0  0  0  0  0  0
  -30.5821  -14.8563   19.3667 C   0  0  0  0  0  0  0  0  0  0  0  0
  -29.5719  -23.7166   22.6420 C   0  0  0  0  0  0  0  0  0  0  0  0
  -29.1829  -21.7611   25.4118 C   0  0  0  0  0  0  0  0  0  0  0  0
  -23.2451  -15.2113   20.6443 C   0  0  0  0  0  0  0  0  0  0  0  0
  -30.8562  -27.3045   15.3668 C   0  0  0  0  0  0  0  0  0  0  0  0
  -28.1792  -22.2574   19.5526 C   0  0  0  0  0  0  0  0  0  0  0  0
  -30.3012  -21.5882   21.5004 C   0  0  0  0  0  0  0  0  0  0  0  0
  -31.6917  -27.2063   16.6391 C   0  0  0  0  0  0  0  0  0  0  0  0
  -20.5560  -17.4598   20.0197 C   0  0  0  0  0  0  0  0  0  0  0  0
  -30.9083  -26.4770   17.7203 C   0  0  0  0  0  0  0  0  0  0  0  0
  -21.2515  -18.7240   19.5095 C   0  0  0  0  0  0  0  0  0  0  0  0
  -21.3669  -16.7689   21.1146 C   0  0  0  0  0  0  0  0  0  0  0  0
  -23.4590  -17.7446   20.2543 C   0  0  0  0  0  0  0  0  0  0  0  0
  -30.6054  -25.0343   17.2961 C   0  0  1  0  0  0  0  0  0  0  0  0
  -28.9738  -23.3391   20.2779 C   0  0  1  0  0  0  0  0  0  0  0  0
  -22.7113  -18.4397   19.1048 C   0  0  2  0  0  0  0  0  0  0  0  0
  -29.5541  -12.2754   22.4124 C   0  0  0  0  0  0  0  0  0  0  0  0
  -30.5763  -12.9441   17.7113 C   0  0  0  0  0  0  0  0  0  0  0  0
  -28.8060  -21.9063   27.8885 C   0  0  0  0  0  0  0  0  0  0  0  0
  -32.4931  -24.5040   23.0380 C   0  0  0  0  0  0  0  0  0  0  0  0
  -32.3115  -23.7170   25.4077 C   0  0  0  0  0  0  0  0  0  0  0  0
  -30.8927  -25.6077   24.6112 C   0  0  0  0  0  0  0  0  0  0  0  0
  -26.6193  -20.2943   25.2248 C   0  0  0  0  0  0  0  0  0  0  0  0
  -30.0915  -16.1602   18.7656 C   0  0  0  0  0  0  0  0  0  1  0  0
  -29.0644  -13.0609   21.1984 C   0  0  1  0  0  0  0  0  0  0  0  0
  -29.8806  -13.5919   18.8983 C   0  0  1  0  0  0  0  0  0  0  0  0
  -30.3766  -23.2579   23.8341 C   0  0  1  0  0  0  0  0  0  0  0  0
  -28.1486  -21.7825   26.5228 C   0  0  2  0  0  0  0  0  0  0  0  0
  -31.5125  -24.2541   24.2011 C   0  0  0  0  0  0  0  0  0  0  0  0
  -23.0831  -20.8759   19.1941 N   0  0  0  0  0  0  0  0  0  0  0  0
  -24.8061  -12.7583   20.6312 N   0  0  0  0  0  0  0  0  0  0  0  0
  -23.4217  -19.6981   18.6426 N   0  0  0  0  0  0  0  0  0  0  0  0
  -29.5647  -22.8626   21.5301 N   0  0  0  0  0  0  0  0  0  0  0  0
  -22.7375  -16.5277   20.6585 N   0  0  0  0  0  0  0  0  0  0  0  0
  -24.8622  -18.7047   17.0461 N   0  0  0  0  0  0  0  0  0  0  0  0
  -25.9235  -23.0887   16.8216 N   0  0  0  0  0  0  0  0  0  0  0  0
  -24.6267  -15.1243   20.8122 N   0  0  0  0  0  0  0  0  0  0  0  0
  -29.6889  -24.4451   18.2473 N   0  0  0  0  0  0  0  0  0  0  0  0
  -29.4176  -23.0230   24.9081 N   0  0  0  0  0  0  0  0  0  0  0  0
  -27.3402  -20.5308   26.5020 N   0  3  0  0  0  0  0  0  0  0  0  0
  -29.8363  -12.6063   20.0121 N   0  3  0  0  0  0  0  0  0  0  0  0
  -26.3852  -21.0147   15.9592 O   0  0  0  0  0  0  0  0  0  0  0  0
  -31.2474  -23.8204   19.8607 O   0  0  0  0  0  0  0  0  0  0  0  0
  -31.4877  -14.8307   20.2001 O   0  0  0  0  0  0  0  0  0  0  0  0
  -28.9660  -24.7896   22.6981 O   0  0  0  0  0  0  0  0  0  0  0  0
  -29.7308  -20.7287   25.0315 O   0  0  0  0  0  0  0  0  0  0  0  0
  -22.5120  -14.2350   20.4671 O   0  0  0  0  0  0  0  0  0  0  0  0
  -23.6414  -27.1877   19.8258 O   0  0  0  0  0  0  0  0  0  0  0  0
  -30.8387  -17.2631   19.2771 O   0  0  0  0  0  0  0  0  0  1  0  0
  -28.4108  -29.8637   20.5299 F   0  0  0  0  0  0  0  0  0  0  0  0
  -24.2372  -28.4157   22.2299 F   0  0  0  0  0  0  0  0  0  0  0  0
  -27.7005  -10.5833   20.8114 F   0  0  0  0  0  0  0  0  0  0  0  0
  -25.0169  -10.4718   20.4614 F   0  0  0  0  0  0  0  0  0  0  0  0
  1  2  1  0  0  0  0
  1  5  2  0  0  0  0
  2  6  2  0  0  0  0
  3  8  2  0  0  0  0
  3 16  1  0  0  0  0
  4  9  1  0  0  0  0
  4 16  2  0  0  0  0
  5 18  1  0  0  0  0
  6 20  1  0  0  0  0
  7 10  2  0  0  0  0
  7 19  1  0  0  0  0
  8 23  1  0  0  0  0
  9 23  2  0  0  0  0
 10 24  1  0  0  0  0
 11 12  2  0  0  0  0
 11 25  1  0  0  0  0
 12 26  1  0  0  0  0
 13 21  1  0  0  0  0
 13 24  2  0  0  0  0
 14 22  1  0  0  0  0
 14 30  2  0  0  0  0
 15 26  2  0  0  0  0
 15 27  1  0  0  0  0
 16 29  1  0  0  0  0
 17 29  1  0  0  0  0
 17 32  2  0  0  0  0
 17 33  1  0  0  0  0
 18 20  2  0  0  0  0
 18 39  1  0  0  0  0
 19 21  2  0  0  0  0
 19 40  1  0  0  0  0
 20 48  1  0  0  0  0
 21 41  1  0  0  0  0
 22 28  2  0  0  0  0
 22 59  1  0  0  0  0
 23 82  1  0  0  0  0
 24 83  1  0  0  0  0
 25 27  2  0  0  0  0
 25 82  1  0  0  0  0
 26 84  1  0  0  0  0
 27 85  1  0  0  0  0
 28 31  1  0  0  0  0
 28 86  1  0  0  0  0
 29 64  2  0  0  0  0
 30 65  1  0  0  0  0
 30 71  1  0  0  0  0
 31 65  2  0  0  0  0
 31 87  1  0  0  0  0
 32 66  1  0  0  0  0
 32 69  1  0  0  0  0
 33 70  1  0  0  0  0
 33 76  2  0  0  0  0
 34 49  1  0  0  0  0
 34 72  1  0  0  0  0
 34 77  2  0  0  0  0
 35 58  1  0  0  0  0
 35 60  1  0  0  0  0
 35 78  2  0  0  0  0
 36 61  1  0  0  0  0
 36 67  1  0  0  0  0
 36 79  2  0  0  0  0
 37 62  1  0  0  0  0
 37 73  1  0  0  0  0
 37 80  2  0  0  0  0
 38 68  1  0  0  0  0
 38 71  1  0  0  0  0
 38 81  2  0  0  0  0
 39 42  1  0  0  0  0
 40 49  1  0  0  0  0
 41 67  1  0  0  0  0
 42 44  1  0  0  0  0
 43 45  1  0  0  0  0
 43 46  1  0  0  0  0
 44 48  1  0  0  0  0
 45 50  1  0  0  0  0
 46 68  1  0  0  0  0
 47 50  1  0  0  0  0
 47 68  1  0  0  0  0
 48 72  1  0  0  0  0
 49 67  1  0  0  0  0
 50 66  1  0  0  0  0
 51 59  1  0  0  0  0
 52 60  1  0  0  0  0
 53 62  1  0  0  0  0
 54 63  1  0  0  0  0
 55 63  1  0  0  0  0
 56 63  1  0  0  0  0
 57 74  1  0  0  0  0
 58 83  1  0  0  0  0
 59 75  1  0  0  0  0
 60 75  1  0  0  0  0
 61 63  1  0  0  0  0
 61 73  1  0  0  0  0
 62 74  1  0  0  0  0
 64 66  1  0  0  0  0
M  CHG  2  74   1  75   1
M  ISO  4  38 100  58 101  71 100  83 101
M  END
> <Batch ID>
0175

> <Smiles>
CNC(C)C(=O)NC(C(=O)N1Cc2cc([101O:1][101CH2:1]C(=O)C(C)NC(C)c3cc([100NH:0][100C:0](=O)N4CCCC(n5nc(-c6ccc(Oc7ccc(F)cc7F)cc6)c(C(N)=O)c5N)C4)nc(F)c3F)ccc2CC1C(=O)NC1CCCc2ccccc21)C(C)(C)C

> <Shape>
0.192

> <Color>
0.075

> <Negative vol penalty>
0.000

$$$$

  -OEChem-04052304353D

 86 94  0     1  0  0  0  0  0999 V2000
  -28.3706  -37.5089   22.2581 C   0  0  0  0  0  0  0  0  0  0  0  0
  -28.8050  -36.2648   21.8121 C   0  0  0  0  0  0  0  0  0  0  0  0
  -21.6924   -6.7459   22.2165 C   0  0  0  0  0  0  0  0  0  0  0  0
  -21.2031   -7.3833   19.9381 C   0  0  0  0  0  0  0  0  0  0  0  0
  -27.3610  -37.5912   23.2162 C   0  0  0  0  0  0  0  0  0  0  0  0
  -28.2306  -35.1021   22.3246 C   0  0  0  0  0  0  0  0  0  0  0  0
  -27.2174  -29.8627   19.3200 C   0  0  0  0  0  0  0  0  0  0  0  0
  -20.7988   -5.6803   22.1104 C   0  0  0  0  0  0  0  0  0  0  0  0
  -20.3094   -6.3176   19.8319 C   0  0  0  0  0  0  0  0  0  0  0  0
  -27.9254  -28.6631   19.2612 C   0  0  0  0  0  0  0  0  0  0  0  0
  -18.9164   -2.5775   22.3213 C   0  0  0  0  0  0  0  0  0  0  0  0
  -19.3239   -1.3379   22.8141 C   0  0  0  0  0  0  0  0  0  0  0  0
  -26.4988  -27.7441   20.9757 C   0  0  0  0  0  0  0  0  0  0  0  0
  -25.9965  -17.3489   19.6186 C   0  0  0  0  0  0  0  0  0  0  0  0
  -21.1803   -1.3334   21.2678 C   0  0  0  0  0  0  0  0  0  0  0  0
  -21.8945   -7.5975   21.1304 C   0  0  0  0  0  0  0  0  0  0  0  0
  -24.1928   -8.6883   20.9410 C   0  0  0  0  0  0  0  0  0  0  0  0
  -26.7673  -36.4291   23.7337 C   0  0  0  0  0  0  0  0  0  0  0  0
  -26.1499  -30.0160   20.2163 C   0  0  0  0  0  0  0  0  0  0  0  0
  -27.2131  -35.1689   23.2915 C   0  0  0  0  0  0  0  0  0  0  0  0
  -25.7772  -28.9458   21.0421 C   0  0  0  0  0  0  0  0  0  0  0  0
  -25.8673  -15.9522   19.3678 C   0  0  0  0  0  0  0  0  0  0  0  0
  -20.1073   -5.4660   20.9180 C   0  0  0  0  0  0  0  0  0  0  0  0
  -27.5680  -27.6046   20.0912 C   0  0  0  0  0  0  0  0  0  0  0  0
  -19.6408   -3.1950   21.3017 C   0  0  0  0  0  0  0  0  0  0  0  0
  -20.4558   -0.7158   22.2874 C   0  0  0  0  0  0  0  0  0  0  0  0
  -20.7727   -2.5730   20.7750 C   0  0  0  0  0  0  0  0  0  0  0  0
  -22.8171   -8.6989   21.2396 C   0  0  0  0  0  0  0  0  0  0  0  0
  -26.8002  -15.5010   18.4602 C   0  0  0  0  0  0  0  0  0  0  0  0
  -24.6120   -9.9686   21.2082 C   0  0  0  0  0  0  0  0  0  0  0  0
  -27.0234  -17.9119   18.8931 C   0  0  0  0  0  0  0  0  0  0  0  0
  -27.4160  -22.7410   19.8065 C   0  0  0  0  0  0  0  0  0  0  0  0
  -25.0179   -7.6169   20.4645 C   0  0  0  0  0  0  0  0  0  0  0  0
  -27.7807  -21.5970   19.2019 C   0  0  0  0  0  0  0  0  0  0  0  0
  -28.0864  -24.0576   19.5788 C   0  0  0  0  0  0  0  0  0  0  0  0
  -27.0109  -20.3463   19.5320 C   0  0  0  0  0  0  0  0  0  0  0  0
  -25.5517  -31.9243   22.6869 C   0  0  0  0  0  0  0  0  0  0  0  0
  -22.6402  -30.4978   22.5843 C   0  0  0  0  0  0  0  0  0  0  0  0
  -20.7679  -27.7974   21.6627 C   0  0  0  0  0  0  0  0  0  0  0  0
  -23.9213  -15.4849   20.8978 C   0  0  0  0  0  0  0  0  0  0  0  0
  -25.7122  -36.5672   24.8024 C   0  0  0  0  0  0  0  0  0  0  0  0
  -25.3792  -31.3073   20.2486 C   0  0  0  0  0  0  0  0  0  0  0  0
  -24.6260  -29.0524   22.0074 C   0  0  0  0  0  0  0  0  0  0  0  0
  -24.8955  -35.2960   25.0200 C   0  0  0  0  0  0  0  0  0  0  0  0
  -22.2504  -13.7879   23.5445 C   0  0  0  0  0  0  0  0  0  0  0  0
  -25.8131  -34.0807   25.1085 C   0  0  0  0  0  0  0  0  0  0  0  0
  -22.3620  -12.3117   23.1563 C   0  0  0  0  0  0  0  0  0  0  0  0
  -22.0501  -14.6822   22.3223 C   0  0  0  0  0  0  0  0  0  0  0  0
  -23.1546  -13.0300   20.8665 C   0  0  0  0  0  0  0  0  0  0  0  0
  -26.5975  -33.8855   23.8054 C   0  0  1  0  0  0  0  0  0  0  0  0
  -24.6368  -31.5273   21.5631 C   0  0  1  0  0  0  0  0  0  0  0  0
  -23.4222  -12.0964   22.0584 C   0  0  2  0  0  0  0  0  0  0  0  0
  -27.0036  -14.1317   17.9343 C   0  0  0  0  0  0  0  0  0  0  0  0
  -18.4243  -26.9041   21.7468 C   0  0  0  0  0  0  0  0  0  0  0  0
  -23.0066  -29.8209   25.5369 C   0  0  0  0  0  0  0  0  0  0  0  0
  -21.1473  -28.1591   25.3150 C   0  0  0  0  0  0  0  0  0  0  0  0
  -20.7060  -30.5821   24.9189 C   0  0  0  0  0  0  0  0  0  0  0  0
  -20.5761  -27.6980   18.7111 C   0  0  0  0  0  0  0  0  0  0  0  0
  -27.5387  -25.2405   20.3485 C   0  0  0  0  0  0  0  0  0  1  0  0
  -22.0295  -29.2681   23.2119 C   0  0  1  0  0  0  0  0  0  0  0  0
  -19.4395  -27.6937   20.9352 C   0  0  2  0  0  0  0  0  0  0  0  0
  -21.7453  -29.4559   24.7290 C   0  0  0  0  0  0  0  0  0  0  0  0
  -22.3908   -9.8914   21.6643 N   0  0  0  0  0  0  0  0  0  0  0  0
  -23.5052  -10.6420   21.6344 N   0  0  0  0  0  0  0  0  0  0  0  0
  -23.9075  -30.3374   22.0063 N   0  0  0  0  0  0  0  0  0  0  0  0
  -23.0933  -14.4261   21.3269 N   0  0  0  0  0  0  0  0  0  0  0  0
  -25.8158  -10.5729   21.1180 N   0  0  0  0  0  0  0  0  0  0  0  0
  -24.4263   -6.3659   20.2424 N   0  0  0  0  0  0  0  0  0  0  0  0
  -24.8981  -15.1150   19.9739 N   0  0  0  0  0  0  0  0  0  0  0  0
  -27.4949  -19.2456   18.8374 N   0  0  0  0  0  0  0  0  0  0  0  0
  -25.7543  -33.2871   22.7927 N   0  0  0  0  0  0  0  0  0  0  0  0
  -20.8481  -28.9484   22.4178 N   0  0  0  0  0  0  0  0  0  0  0  0
  -19.6205  -27.0152   19.6208 N   0  3  0  0  0  0  0  0  0  0  0  0
  -26.2469   -7.7602   20.2580 O   0  0  0  0  0  0  0  0  0  0  0  0
  -29.0569  -24.1800   18.8359 O   0  0  0  0  0  0  0  0  0  0  0  0
  -26.0786  -20.3666   20.3285 O   0  0  0  0  0  0  0  0  0  0  0  0
  -26.0366  -31.0585   23.4059 O   0  0  0  0  0  0  0  0  0  0  0  0
  -22.0128  -31.5597   22.5999 O   0  0  0  0  0  0  0  0  0  0  0  0
  -21.6449  -26.9411   21.5733 O   0  0  0  0  0  0  0  0  0  0  0  0
  -23.7921  -16.6296   21.3394 O   0  0  0  0  0  0  0  0  0  0  0  0
  -28.8113  -21.4826   18.2931 O   0  0  0  0  0  0  0  0  0  0  0  0
  -19.2354   -4.4261   20.8140 O   0  0  0  0  0  0  0  0  0  0  0  0
  -28.2579  -26.4328   20.0363 O   0  0  0  0  0  0  0  0  0  1  0  0
  -20.8479    0.4739   22.7618 F   0  0  0  0  0  0  0  0  0  0  0  0
  -21.4734   -3.1620   19.7962 F   0  0  0  0  0  0  0  0  0  0  0  0
  -27.8262  -16.7587   17.9144 S   0  0  0  0  0  0  0  0  0  0  0  0
  1  2  1  0  0  0  0
  1  5  2  0  0  0  0
  2  6  2  0  0  0  0
  3  8  2  0  0  0  0
  3 16  1  0  0  0  0
  4  9  1  0  0  0  0
  4 16  2  0  0  0  0
  5 18  1  0  0  0  0
  6 20  1  0  0  0  0
  7 10  2  0  0  0  0
  7 19  1  0  0  0  0
  8 23  1  0  0  0  0
  9 23  2  0  0  0  0
 10 24  1  0  0  0  0
 11 12  2  0  0  0  0
 11 25  1  0  0  0  0
 12 26  1  0  0  0  0
 13 21  1  0  0  0  0
 13 24  2  0  0  0  0
 14 22  1  0  0  0  0
 14 31  2  0  0  0  0
 15 26  2  0  0  0  0
 15 27  1  0  0  0  0
 16 28  1  0  0  0  0
 17 28  1  0  0  0  0
 17 30  2  0  0  0  0
 17 33  1  0  0  0  0
 18 20  2  0  0  0  0
 18 41  1  0  0  0  0
 19 21  2  0  0  0  0
 19 42  1  0  0  0  0
 20 50  1  0  0  0  0
 21 43  1  0  0  0  0
 22 29  2  0  0  0  0
 22 69  1  0  0  0  0
 23 82  1  0  0  0  0
 24 83  1  0  0  0  0
 25 27  2  0  0  0  0
 25 82  1  0  0  0  0
 26 84  1  0  0  0  0
 27 85  1  0  0  0  0
 28 63  2  0  0  0  0
 29 53  1  0  0  0  0
 29 86  1  0  0  0  0
 30 64  1  0  0  0  0
 30 67  1  0  0  0  0
 31 70  1  0  0  0  0
 31 86  1  0  0  0  0
 32 34  2  0  0  0  0
 32 35  1  0  0  0  0
 33 68  1  0  0  0  0
 33 74  2  0  0  0  0
 34 36  1  0  0  0  0
 34 81  1  0  0  0  0
 35 59  1  0  0  0  0
 35 75  2  0  0  0  0
 36 70  1  0  0  0  0
 36 76  2  0  0  0  0
 37 51  1  0  0  0  0
 37 71  1  0  0  0  0
 37 77  2  0  0  0  0
 38 60  1  0  0  0  0
 38 65  1  0  0  0  0
 38 78  2  0  0  0  0
 39 61  1  0  0  0  0
 39 72  1  0  0  0  0
 39 79  2  0  0  0  0
 40 66  1  0  0  0  0
 40 69  1  0  0  0  0
 40 80  2  0  0  0  0
 41 44  1  0  0  0  0
 42 51  1  0  0  0  0
 43 65  1  0  0  0  0
 44 46  1  0  0  0  0
 45 47  1  0  0  0  0
 45 48  1  0  0  0  0
 46 50  1  0  0  0  0
 47 52  1  0  0  0  0
 48 66  1  0  0  0  0
 49 52  1  0  0  0  0
 49 66  1  0  0  0  0
 50 71  1  0  0  0  0
 51 65  1  0  0  0  0
 52 64  1  0  0  0  0
 54 61  1  0  0  0  0
 55 62  1  0  0  0  0
 56 62  1  0  0  0  0
 57 62  1  0  0  0  0
 58 73  1  0  0  0  0
 59 83  1  0  0  0  0
 60 62  1  0  0  0  0
 60 72  1  0  0  0  0
 61 73  1  0  0  0  0
 63 64  1  0  0  0  0
M  CHG  1  73   1
M  ISO  4  40 100  59 101  69 100  83 101
M  END
> <Batch ID>
0175

> <Smiles>
CNC(C)C(=O)NC(C(=O)N1Cc2cc([101O:1][101CH2:1]C(=O)CC(=O)C(=O)Nc3cc([100NH:0][100C:0](=O)N4CCCC(n5nc(-c6ccc(Oc7ccc(F)cc7F)cc6)c(C(N)=O)c5N)C4)c(C)s3)ccc2CC1C(=O)NC1CCCc2ccccc21)C(C)(C)C

> <Shape>
0.276

> <Color>
0.089

> <Negative vol penalty>
0.000

$$$$

  -OEChem-04052304353D

 88 96  0     1  0  0  0  0  0999 V2000
  -27.5786  -23.5994   18.2267 C   0  0  0  0  0  0  0  0  0  0  0  0
  -26.3841  -24.0504   18.7791 C   0  0  0  0  0  0  0  0  0  0  0  0
  -27.8335  -14.4452   20.0685 C   0  0  0  0  0  0  0  0  0  0  0  0
  -25.5234  -14.9039   19.5297 C   0  0  0  0  0  0  0  0  0  0  0  0
  -28.7954  -24.0331   18.7513 C   0  0  0  0  0  0  0  0  0  0  0  0
  -26.4057  -24.9345   19.8572 C   0  0  0  0  0  0  0  0  0  0  0  0
  -23.1083  -28.7396   19.3155 C   0  0  0  0  0  0  0  0  0  0  0  0
  -22.8531  -23.0611   23.5428 C   0  0  0  0  0  0  0  0  0  0  0  0
  -27.5110  -13.1107   20.3151 C   0  0  0  0  0  0  0  0  0  0  0  0
  -25.2009  -13.5694   19.7763 C   0  0  0  0  0  0  0  0  0  0  0  0
  -21.7676  -28.4626   19.5789 C   0  0  0  0  0  0  0  0  0  0  0  0
  -24.6494  -11.5956   22.4653 C   0  0  0  0  0  0  0  0  0  0  0  0
  -23.5085  -11.3341   23.2238 C   0  0  0  0  0  0  0  0  0  0  0  0
  -21.5581  -23.4152   23.9209 C   0  0  0  0  0  0  0  0  0  0  0  0
  -21.9963  -29.4620   21.7625 C   0  0  0  0  0  0  0  0  0  0  0  0
  -22.5605  -10.1032   21.3736 C   0  0  0  0  0  0  0  0  0  0  0  0
  -26.8397  -15.3418   19.6759 C   0  0  0  0  0  0  0  0  0  0  0  0
  -27.5702  -17.2868   18.1957 C   0  0  0  0  0  0  0  0  0  0  0  0
  -28.8320  -24.9305   19.8301 C   0  0  0  0  0  0  0  0  0  0  0  0
  -23.9073  -29.3712   20.2795 C   0  0  0  0  0  0  0  0  0  0  0  0
  -27.6242  -25.3796   20.3975 C   0  0  0  0  0  0  0  0  0  0  0  0
  -23.3463  -29.7482   21.5079 C   0  0  0  0  0  0  0  0  0  0  0  0
  -23.0618  -22.3175   22.3812 C   0  0  0  0  0  0  0  0  0  0  0  0
  -26.1947  -12.6728   20.1690 C   0  0  0  0  0  0  0  0  0  0  0  0
  -21.2121  -28.8212   20.8036 C   0  0  0  0  0  0  0  0  0  0  0  0
  -24.7460  -11.1109   21.1609 C   0  0  0  0  0  0  0  0  0  0  0  0
  -22.4640  -10.5879   22.6780 C   0  0  0  0  0  0  0  0  0  0  0  0
  -23.7015  -10.3647   20.6151 C   0  0  0  0  0  0  0  0  0  0  0  0
  -21.9754  -21.9280   21.5978 C   0  0  0  0  0  0  0  0  0  0  0  0
  -20.6803  -22.2821   21.9760 C   0  0  0  0  0  0  0  0  0  0  0  0
  -20.4717  -23.0257   23.1376 C   0  0  0  0  0  0  0  0  0  0  0  0
  -27.1721  -16.7205   19.4215 C   0  0  0  0  0  0  0  0  0  0  0  0
  -27.7671  -18.6162   18.4794 C   0  0  0  0  0  0  0  0  0  0  0  0
  -27.7462  -16.6666   16.9150 C   0  0  0  0  0  0  0  0  0  0  0  0
  -26.5225  -28.5708   21.8993 C   0  0  0  0  0  0  0  0  0  0  0  0
  -26.3485  -31.6400   22.9348 C   0  0  0  0  0  0  0  0  0  0  0  0
  -24.4238  -34.3989   23.5099 C   0  0  0  0  0  0  0  0  0  0  0  0
  -18.8158  -26.0071   22.4506 C   0  0  0  0  0  0  0  0  0  0  0  0
  -25.5644  -22.2665   22.6660 C   0  0  0  0  0  0  0  0  0  0  0  0
  -30.1715  -25.3343   20.3935 C   0  0  0  0  0  0  0  0  0  0  0  0
  -25.3450  -29.6870   19.9697 C   0  0  0  0  0  0  0  0  0  0  0  0
  -24.1561  -30.4465   22.5686 C   0  0  0  0  0  0  0  0  0  0  0  0
  -30.1072  -26.5638   21.2959 C   0  0  0  0  0  0  0  0  0  0  0  0
  -28.9978  -21.5366   22.0698 C   0  0  0  0  0  0  0  0  0  0  0  0
  -28.9513  -26.4412   22.2837 C   0  0  0  0  0  0  0  0  0  0  0  0
  -28.9554  -20.2737   21.2064 C   0  0  0  0  0  0  0  0  0  0  0  0
  -27.8950  -21.5382   23.1270 C   0  0  0  0  0  0  0  0  0  0  0  0
  -26.4964  -20.0527   21.7463 C   0  0  0  0  0  0  0  0  0  0  0  0
  -27.6064  -26.3583   21.5516 C   0  0  1  0  0  0  0  0  0  0  0  0
  -26.1990  -29.8715   21.2202 C   0  0  1  0  0  0  0  0  0  0  0  0
  -27.5480  -20.0357   20.6249 C   0  0  2  0  0  0  0  0  0  0  0  0
  -24.5557  -36.7429   24.3963 C   0  0  0  0  0  0  0  0  0  0  0  0
  -26.4630  -30.5535   25.7838 C   0  0  0  0  0  0  0  0  0  0  0  0
  -25.6472  -32.7787   26.5908 C   0  0  0  0  0  0  0  0  0  0  0  0
  -27.8306  -32.6111   25.3962 C   0  0  0  0  0  0  0  0  0  0  0  0
  -23.5609  -35.5495   20.9233 C   0  0  0  0  0  0  0  0  0  0  0  0
  -19.3391  -27.4040   20.4304 C   0  0  0  0  0  0  0  0  0  1  0  0
  -25.6810  -32.3413   24.0931 C   0  0  1  0  0  0  0  0  0  0  0  0
  -24.6295  -35.8615   23.1592 C   0  0  2  0  0  0  0  0  0  0  0  0
  -18.2462  -26.8216   21.3121 C   0  0  1  0  0  0  0  0  0  0  0  0
  -26.3904  -32.0563   25.4469 C   0  0  0  0  0  0  0  0  0  0  0  0
  -27.1189  -17.6168   20.4104 N   0  0  0  0  0  0  0  0  0  0  0  0
  -27.4863  -18.7597   19.8064 N   0  0  0  0  0  0  0  0  0  0  0  0
  -25.5587  -30.7278   22.2207 N   0  0  0  0  0  0  0  0  0  0  0  0
  -26.5899  -21.3114   22.5024 N   0  0  0  0  0  0  0  0  0  0  0  0
  -28.1515  -19.6646   17.7209 N   0  0  0  0  0  0  0  0  0  0  0  0
  -27.5009  -15.2916   16.7992 N   0  0  0  0  0  0  0  0  0  0  0  0
  -24.3786  -21.9593   21.9996 N   0  0  0  0  0  0  0  0  0  0  0  0
  -27.1967  -27.6699   21.0973 N   0  0  0  0  0  0  0  0  0  0  0  0
  -25.6218  -33.7544   23.7354 N   0  0  0  0  0  0  0  0  0  0  0  0
  -18.4427  -24.6250   22.4172 N   0  0  0  0  0  0  0  0  0  0  0  0
  -23.5865  -36.3149   22.1962 N   0  3  0  0  0  0  0  0  0  0  0  0
  -28.1260  -17.3096   15.9071 O   0  0  0  0  0  0  0  0  0  0  0  0
  -26.1868  -28.3980   23.0651 O   0  0  0  0  0  0  0  0  0  0  0  0
  -27.5252  -31.8975   22.6689 O   0  0  0  0  0  0  0  0  0  0  0  0
  -23.3115  -33.8809   23.5806 O   0  0  0  0  0  0  0  0  0  0  0  0
  -19.5325  -26.4998   23.3151 O   0  0  0  0  0  0  0  0  0  0  0  0
  -25.7350  -23.2955   23.3249 O   0  0  0  0  0  0  0  0  0  0  0  0
  -17.9797  -22.3132   23.4671 O   0  0  0  0  0  0  0  0  0  0  0  0
  -18.9451  -24.1437   24.9041 O   0  0  0  0  0  0  0  0  0  0  0  0
  -25.8797  -11.3707   20.4094 O   0  0  0  0  0  0  0  0  0  0  0  0
  -19.9038  -28.5514   21.0636 O   0  0  0  0  0  0  0  0  0  1  0  0
  -21.3690  -10.3356   23.4071 F   0  0  0  0  0  0  0  0  0  0  0  0
  -23.7890   -9.8954   19.3629 F   0  0  0  0  0  0  0  0  0  0  0  0
  -22.1640  -21.2138   20.4793 F   0  0  0  0  0  0  0  0  0  0  0  0
  -19.6441  -21.9023   21.2153 F   0  0  0  0  0  0  0  0  0  0  0  0
  -17.4353  -26.0506   20.5326 F   0  0  0  0  0  0  0  0  0  0  0  0
  -18.8327  -23.4756   23.6220 S   0  0  0  0  0  0  0  0  0  0  0  0
  1  2  1  0  0  0  0
  1  5  2  0  0  0  0
  2  6  2  0  0  0  0
  3  9  2  0  0  0  0
  3 17  1  0  0  0  0
  4 10  1  0  0  0  0
  4 17  2  0  0  0  0
  5 19  1  0  0  0  0
  6 21  1  0  0  0  0
  7 11  2  0  0  0  0
  7 20  1  0  0  0  0
  8 14  2  0  0  0  0
  8 23  1  0  0  0  0
  9 24  1  0  0  0  0
 10 24  2  0  0  0  0
 11 25  1  0  0  0  0
 12 13  2  0  0  0  0
 12 26  1  0  0  0  0
 13 27  1  0  0  0  0
 14 31  1  0  0  0  0
 15 22  1  0  0  0  0
 15 25  2  0  0  0  0
 16 27  2  0  0  0  0
 16 28  1  0  0  0  0
 17 32  1  0  0  0  0
 18 32  1  0  0  0  0
 18 33  2  0  0  0  0
 18 34  1  0  0  0  0
 19 21  2  0  0  0  0
 19 40  1  0  0  0  0
 20 22  2  0  0  0  0
 20 41  1  0  0  0  0
 21 49  1  0  0  0  0
 22 42  1  0  0  0  0
 23 29  2  0  0  0  0
 23 68  1  0  0  0  0
 24 81  1  0  0  0  0
 25 82  1  0  0  0  0
 26 28  2  0  0  0  0
 26 81  1  0  0  0  0
 27 83  1  0  0  0  0
 28 84  1  0  0  0  0
 29 30  1  0  0  0  0
 29 85  1  0  0  0  0
 30 31  2  0  0  0  0
 30 86  1  0  0  0  0
 31 88  1  0  0  0  0
 32 62  2  0  0  0  0
 33 63  1  0  0  0  0
 33 66  1  0  0  0  0
 34 67  1  0  0  0  0
 34 73  2  0  0  0  0
 35 50  1  0  0  0  0
 35 69  1  0  0  0  0
 35 74  2  0  0  0  0
 36 58  1  0  0  0  0
 36 64  1  0  0  0  0
 36 75  2  0  0  0  0
 37 59  1  0  0  0  0
 37 70  1  0  0  0  0
 37 76  2  0  0  0  0
 38 60  1  0  0  0  0
 38 71  1  0  0  0  0
 38 77  2  0  0  0  0
 39 65  1  0  0  0  0
 39 68  1  0  0  0  0
 39 78  2  0  0  0  0
 40 43  1  0  0  0  0
 41 50  1  0  0  0  0
 42 64  1  0  0  0  0
 43 45  1  0  0  0  0
 44 46  1  0  0  0  0
 44 47  1  0  0  0  0
 45 49  1  0  0  0  0
 46 51  1  0  0  0  0
 47 65  1  0  0  0  0
 48 51  1  0  0  0  0
 48 65  1  0  0  0  0
 49 69  1  0  0  0  0
 50 64  1  0  0  0  0
 51 63  1  0  0  0  0
 52 59  1  0  0  0  0
 53 61  1  0  0  0  0
 54 61  1  0  0  0  0
 55 61  1  0  0  0  0
 56 72  1  0  0  0  0
 57 60  1  0  0  0  0
 57 82  1  0  0  0  0
 58 61  1  0  0  0  0
 58 70  1  0  0  0  0
 59 72  1  0  0  0  0
 60 87  1  0  0  0  0
 62 63  1  0  0  0  0
 71 88  1  0  0  0  0
 79 88  2  0  0  0  0
 80 88  2  0  0  0  0
M  CHG  1  72   1
M  ISO  4  39 100  57 101  68 100  82 101
M  END
> <Batch ID>
0175

> <Smiles>
CNC(C)C(=O)NC(C(=O)N1Cc2cc([101O:1][101CH2:1]C(F)C(=O)NS(=O)(=O)c3ccc([100NH:0][100C:0](=O)N4CCCC(n5nc(-c6ccc(Oc7ccc(F)cc7F)cc6)c(C(N)=O)c5N)C4)c(F)c3F)ccc2CC1C(=O)NC1CCCc2ccccc21)C(C)(C)C

> <Shape>
0.284

> <Color>
0.060

> <Negative vol penalty>
0.000

$$$$

  -OEChem-04052304353D

 84 92  0     1  0  0  0  0  0999 V2000
  -27.0757  -38.3571   21.1613 C   0  0  0  0  0  0  0  0  0  0  0  0
  -27.7252  -37.1379   20.9960 C   0  0  0  0  0  0  0  0  0  0  0  0
  -24.1684   -9.3353   21.5830 C   0  0  0  0  0  0  0  0  0  0  0  0
  -24.8252  -10.6884   23.4736 C   0  0  0  0  0  0  0  0  0  0  0  0
  -25.9529  -38.4416   21.9834 C   0  0  0  0  0  0  0  0  0  0  0  0
  -27.2528  -36.0028   21.6537 C   0  0  0  0  0  0  0  0  0  0  0  0
  -27.3337  -30.2426   19.5754 C   0  0  0  0  0  0  0  0  0  0  0  0
  -23.9098   -8.2647   22.4390 C   0  0  0  0  0  0  0  0  0  0  0  0
  -24.5666   -9.6179   24.3297 C   0  0  0  0  0  0  0  0  0  0  0  0
  -28.1981  -29.1736   19.8079 C   0  0  0  0  0  0  0  0  0  0  0  0
  -21.4526   -7.3032   24.5533 C   0  0  0  0  0  0  0  0  0  0  0  0
  -20.2693   -6.5903   24.3606 C   0  0  0  0  0  0  0  0  0  0  0  0
  -26.7054  -28.3451   21.5122 C   0  0  0  0  0  0  0  0  0  0  0  0
  -21.5460   -4.5762   23.9725 C   0  0  0  0  0  0  0  0  0  0  0  0
  -27.7887  -20.6887   20.1965 C   0  0  0  0  0  0  0  0  0  0  0  0
  -29.8792  -19.1217   19.4090 C   0  0  0  0  0  0  0  0  0  0  0  0
  -24.6261  -10.5471   22.1003 C   0  0  0  0  0  0  0  0  0  0  0  0
  -23.9923  -12.6559   20.8123 C   0  0  0  0  0  0  0  0  0  0  0  0
  -25.4607  -37.3049   22.6439 C   0  0  0  0  0  0  0  0  0  0  0  0
  -26.1521  -30.3770   20.3185 C   0  0  0  0  0  0  0  0  0  0  0  0
  -26.1230  -36.0725   22.4866 C   0  0  0  0  0  0  0  0  0  0  0  0
  -25.8265  -29.4153   21.2855 C   0  0  0  0  0  0  0  0  0  0  0  0
  -28.6229  -18.5440   19.4973 C   0  0  0  0  0  0  0  0  0  0  0  0
  -24.1089   -8.4060   23.8123 C   0  0  0  0  0  0  0  0  0  0  0  0
  -27.8854  -28.2262   20.7783 C   0  0  0  0  0  0  0  0  0  0  0  0
  -22.6827   -6.6527   24.4555 C   0  0  0  0  0  0  0  0  0  0  0  0
  -20.3160   -5.2268   24.0702 C   0  0  0  0  0  0  0  0  0  0  0  0
  -22.7293   -5.2892   24.1651 C   0  0  0  0  0  0  0  0  0  0  0  0
  -27.5630  -19.3493   19.8993 C   0  0  0  0  0  0  0  0  0  0  0  0
  -24.8939  -11.6532   21.2166 C   0  0  0  0  0  0  0  0  0  0  0  0
  -29.0824  -21.1703   20.0771 C   0  0  0  0  0  0  0  0  0  0  0  0
  -24.7278  -13.4636   19.9798 C   0  0  0  0  0  0  0  0  0  0  0  0
  -28.2466  -25.9159   20.8269 C   0  0  0  0  0  0  0  0  0  1  0  0
  -22.6133  -12.8408   21.1586 C   0  0  0  0  0  0  0  0  0  0  0  0
  -28.9861  -24.8176   21.0234 C   0  0  0  0  0  0  0  0  0  0  0  0
  -28.3646  -23.4720   20.7964 C   0  0  0  0  0  0  0  0  0  0  0  0
  -25.0003  -32.5558   22.3259 C   0  0  0  0  0  0  0  0  0  0  0  0
  -22.3422  -30.7009   22.1993 C   0  0  0  0  0  0  0  0  0  0  0  0
  -20.9786  -27.6289   21.6079 C   0  0  0  0  0  0  0  0  0  0  0  0
  -29.3911  -16.2566   18.7735 C   0  0  0  0  0  0  0  0  0  0  0  0
  -24.2718  -37.4553   23.5596 C   0  0  0  0  0  0  0  0  0  0  0  0
  -25.2172  -31.5212   20.0371 C   0  0  0  0  0  0  0  0  0  0  0  0
  -24.5603  -29.5030   22.0963 C   0  0  0  0  0  0  0  0  0  0  0  0
  -23.6124  -36.1278   23.9248 C   0  0  0  0  0  0  0  0  0  0  0  0
  -29.3155  -12.7938   17.9486 C   0  0  0  0  0  0  0  0  0  0  0  0
  -24.6665  -35.1004   24.3249 C   0  0  0  0  0  0  0  0  0  0  0  0
  -28.0842  -12.2709   18.6920 C   0  0  0  0  0  0  0  0  0  0  0  0
  -30.0534  -13.8616   18.7543 C   0  0  0  0  0  0  0  0  0  0  0  0
  -27.9878  -14.4559   19.9582 C   0  0  0  0  0  0  0  0  0  0  0  0
  -25.6261  -34.8136   23.1636 C   0  0  1  0  0  0  0  0  0  0  0  0
  -24.2941  -31.8406   21.2090 C   0  0  1  0  0  0  0  0  0  0  0  0
  -27.1751  -13.4249   19.1582 C   0  0  2  0  0  0  0  0  0  0  0  0
  -18.7840  -26.4119   21.6222 C   0  0  0  0  0  0  0  0  0  0  0  0
  -22.4257  -30.5912   25.2474 C   0  0  0  0  0  0  0  0  0  0  0  0
  -20.8483  -28.6494   25.1513 C   0  0  0  0  0  0  0  0  0  0  0  0
  -20.1387  -30.8749   24.2760 C   0  0  0  0  0  0  0  0  0  0  0  0
  -21.1709  -27.0097   18.7203 C   0  0  0  0  0  0  0  0  0  0  0  0
  -21.8287  -29.5141   22.9782 C   0  0  1  0  0  0  0  0  0  0  0  0
  -19.7772  -27.2017   20.7841 C   0  0  2  0  0  0  0  0  0  0  0  0
  -21.3352  -29.9065   24.3995 C   0  0  0  0  0  0  0  0  0  0  0  0
  -30.1372  -20.4187   19.6896 N   0  0  0  0  0  0  0  0  0  0  0  0
  -26.1092  -11.8075   20.6845 N   0  0  0  0  0  0  0  0  0  0  0  0
  -25.9765  -12.9167   19.9373 N   0  0  0  0  0  0  0  0  0  0  0  0
  -23.6816  -30.6435   21.7886 N   0  0  0  0  0  0  0  0  0  0  0  0
  -29.1300  -14.9244   19.1578 N   0  0  0  0  0  0  0  0  0  0  0  0
  -24.4217  -14.5812   19.2872 N   0  0  0  0  0  0  0  0  0  0  0  0
  -22.0128  -11.9184   22.0264 N   0  0  0  0  0  0  0  0  0  0  0  0
  -28.4270  -17.1754   19.1868 N   0  0  0  0  0  0  0  0  0  0  0  0
  -29.3019  -22.5350   20.3836 N   0  0  0  0  0  0  0  0  0  0  0  0
  -25.0035  -33.9319   22.1996 N   0  0  0  0  0  0  0  0  0  0  0  0
  -20.8090  -28.8882   22.1434 N   0  0  0  0  0  0  0  0  0  0  0  0
  -20.2098  -26.3494   19.6407 N   0  3  0  0  0  0  0  0  0  0  0  0
  -21.9292  -13.7863   20.6987 O   0  0  0  0  0  0  0  0  0  0  0  0
  -27.1644  -23.2943   20.9745 O   0  0  0  0  0  0  0  0  0  0  0  0
  -25.5037  -31.9074   23.2357 O   0  0  0  0  0  0  0  0  0  0  0  0
  -21.5810  -31.6410   21.9578 O   0  0  0  0  0  0  0  0  0  0  0  0
  -21.9669  -26.9151   21.7641 O   0  0  0  0  0  0  0  0  0  0  0  0
  -30.3819  -16.5561   18.1021 O   0  0  0  0  0  0  0  0  0  0  0  0
  -30.3046  -24.8730   21.4272 O   0  0  0  0  0  0  0  0  0  0  0  0
  -23.8565   -7.3617   24.6479 O   0  0  0  0  0  0  0  0  0  0  0  0
  -28.7276  -27.1822   21.0077 O   0  0  0  0  0  0  0  0  0  1  0  0
  -19.1796   -4.5420   23.8867 F   0  0  0  0  0  0  0  0  0  0  0  0
  -23.9080   -4.6585   24.0711 F   0  0  0  0  0  0  0  0  0  0  0  0
  -26.3250  -18.8463   20.0034 F   0  0  0  0  0  0  0  0  0  0  0  0
  1  2  1  0  0  0  0
  1  5  2  0  0  0  0
  2  6  2  0  0  0  0
  3  8  2  0  0  0  0
  3 17  1  0  0  0  0
  4  9  1  0  0  0  0
  4 17  2  0  0  0  0
  5 19  1  0  0  0  0
  6 21  1  0  0  0  0
  7 10  2  0  0  0  0
  7 20  1  0  0  0  0
  8 24  1  0  0  0  0
  9 24  2  0  0  0  0
 10 25  1  0  0  0  0
 11 12  2  0  0  0  0
 11 26  1  0  0  0  0
 12 27  1  0  0  0  0
 13 22  1  0  0  0  0
 13 25  2  0  0  0  0
 14 27  2  0  0  0  0
 14 28  1  0  0  0  0
 15 29  2  0  0  0  0
 15 31  1  0  0  0  0
 16 23  2  0  0  0  0
 16 61  1  0  0  0  0
 17 30  1  0  0  0  0
 18 30  1  0  0  0  0
 18 32  2  0  0  0  0
 18 34  1  0  0  0  0
 19 21  2  0  0  0  0
 19 41  1  0  0  0  0
 20 22  2  0  0  0  0
 20 42  1  0  0  0  0
 21 50  1  0  0  0  0
 22 43  1  0  0  0  0
 23 29  1  0  0  0  0
 23 68  1  0  0  0  0
 24 80  1  0  0  0  0
 25 81  1  0  0  0  0
 26 28  2  0  0  0  0
 26 80  1  0  0  0  0
 27 82  1  0  0  0  0
 28 83  1  0  0  0  0
 29 84  1  0  0  0  0
 30 62  2  0  0  0  0
 31 61  2  0  0  0  0
 31 69  1  0  0  0  0
 32 63  1  0  0  0  0
 32 66  1  0  0  0  0
 33 35  2  0  0  0  0
 33 81  1  0  0  0  0
 34 67  1  0  0  0  0
 34 73  2  0  0  0  0
 35 36  1  0  0  0  0
 35 79  1  0  0  0  0
 36 69  1  0  0  0  0
 36 74  2  0  0  0  0
 37 51  1  0  0  0  0
 37 70  1  0  0  0  0
 37 75  2  0  0  0  0
 38 58  1  0  0  0  0
 38 64  1  0  0  0  0
 38 76  2  0  0  0  0
 39 59  1  0  0  0  0
 39 71  1  0  0  0  0
 39 77  2  0  0  0  0
 40 65  1  0  0  0  0
 40 68  1  0  0  0  0
 40 78  2  0  0  0  0
 41 44  1  0  0  0  0
 42 51  1  0  0  0  0
 43 64  1  0  0  0  0
 44 46  1  0  0  0  0
 45 47  1  0  0  0  0
 45 48  1  0  0  0  0
 46 50  1  0  0  0  0
 47 52  1  0  0  0  0
 48 65  1  0  0  0  0
 49 52  1  0  0  0  0
 49 65  1  0  0  0  0
 50 70  1  0  0  0  0
 51 64  1  0  0  0  0
 52 63  1  0  0  0  0
 53 59  1  0  0  0  0
 54 60  1  0  0  0  0
 55 60  1  0  0  0  0
 56 60  1  0  0  0  0
 57 72  1  0  0  0  0
 58 60  1  0  0  0  0
 58 71  1  0  0  0  0
 59 72  1  0  0  0  0
 62 63  1  0  0  0  0
M  CHG  1  72   1
M  ISO  4  33 101  40 100  68 100  81 101
M  END
> <Batch ID>
0175

> <Smiles>
CNC(C)C(=O)NC(C(=O)N1Cc2cc([101O:1][101CH2:1]C(=O)C(=O)Nc3cc(F)c([100NH:0][100C:0](=O)N4CCCC(n5nc(-c6ccc(Oc7ccc(F)cc7F)cc6)c(C(N)=O)c5N)C4)cn3)ccc2CC1C(=O)NC1CCCc2ccccc21)C(C)(C)C

> <Shape>
0.361

> <Color>
0.112

> <Negative vol penalty>
0.000

$$$$

  -OEChem-04052304353D

 87 95  0     1  0  0  0  0  0999 V2000
  -23.8632  -24.5248   19.6346 C   0  0  0  0  0  0  0  0  0  0  0  0
  -24.7584  -23.4780   19.4389 C   0  0  0  0  0  0  0  0  0  0  0  0
  -26.4861  -28.5217   19.1394 C   0  0  0  0  0  0  0  0  0  0  0  0
  -26.1475  -27.0872   21.0537 C   0  0  0  0  0  0  0  0  0  0  0  0
  -22.9143  -24.4477   20.6532 C   0  0  0  0  0  0  0  0  0  0  0  0
  -24.7059  -22.3539   20.2624 C   0  0  0  0  0  0  0  0  0  0  0  0
  -25.8652  -16.5582   18.6590 C   0  0  0  0  0  0  0  0  0  0  0  0
  -25.3515  -29.2544   19.4877 C   0  0  0  0  0  0  0  0  0  0  0  0
  -25.0128  -27.8199   21.4021 C   0  0  0  0  0  0  0  0  0  0  0  0
  -26.9962  -15.7548   18.7979 C   0  0  0  0  0  0  0  0  0  0  0  0
  -21.7836  -28.0278   20.4222 C   0  0  0  0  0  0  0  0  0  0  0  0
  -20.6405  -27.3173   20.7883 C   0  0  0  0  0  0  0  0  0  0  0  0
  -26.0758  -14.8194   20.8219 C   0  0  0  0  0  0  0  0  0  0  0  0
  -20.6766  -28.3775   22.9589 C   0  0  0  0  0  0  0  0  0  0  0  0
  -29.8542  -18.2943   19.0782 C   0  0  0  0  0  0  0  0  0  0  0  0
  -26.8841  -27.4380   19.9224 C   0  0  0  0  0  0  0  0  0  0  0  0
  -29.3808  -26.9173   19.9749 C   0  0  0  0  0  0  0  0  0  0  0  0
  -22.8438  -23.3179   21.4835 C   0  0  0  0  0  0  0  0  0  0  0  0
  -24.8342  -16.5060   19.6080 C   0  0  0  0  0  0  0  0  0  0  0  0
  -23.7560  -22.2622   21.2939 C   0  0  0  0  0  0  0  0  0  0  0  0
  -24.9316  -15.6212   20.6914 C   0  0  0  0  0  0  0  0  0  0  0  0
  -28.9880  -19.2549   19.5750 C   0  0  0  0  0  0  0  0  0  0  0  0
  -24.6148  -28.9035   20.6190 C   0  0  0  0  0  0  0  0  0  0  0  0
  -27.1030  -14.8874   19.8810 C   0  0  0  0  0  0  0  0  0  0  0  0
  -22.3733  -28.9131   21.3245 C   0  0  0  0  0  0  0  0  0  0  0  0
  -20.0870  -27.4921   22.0566 C   0  0  0  0  0  0  0  0  0  0  0  0
  -21.8198  -29.0880   22.5929 C   0  0  0  0  0  0  0  0  0  0  0  0
  -28.6414  -19.1856   20.9198 C   0  0  0  0  0  0  0  0  0  0  0  0
  -29.1642  -18.1723   21.7154 C   0  0  0  0  0  0  0  0  0  0  0  0
  -28.0558  -26.6804   19.5628 C   0  0  0  0  0  0  0  0  0  0  0  0
  -30.0224  -17.2601   21.1228 C   0  0  0  0  0  0  0  0  0  0  0  0
  -30.1124  -25.9282   19.3642 C   0  0  0  0  0  0  0  0  0  0  0  0
  -29.9037  -27.9399   20.8332 C   0  0  0  0  0  0  0  0  0  0  0  0
  -23.5385  -18.5890   21.6293 C   0  0  0  0  0  0  0  0  0  0  0  0
  -30.8649  -14.8873   21.1080 C   0  0  0  0  0  0  0  0  0  0  0  0
  -21.4483  -16.1686   22.1731 C   0  0  0  0  0  0  0  0  0  0  0  0
  -20.8157  -12.8158   22.1009 C   0  0  0  0  0  0  0  0  0  0  0  0
  -28.7317  -20.4637   17.3797 C   0  0  0  0  0  0  0  0  0  0  0  0
  -21.8317  -23.3006   22.6014 C   0  0  0  0  0  0  0  0  0  0  0  0
  -23.6087  -17.3596   19.4294 C   0  0  0  0  0  0  0  0  0  0  0  0
  -23.8433  -15.5126   21.7269 C   0  0  0  0  0  0  0  0  0  0  0  0
  -21.5986  -21.9118   23.1907 C   0  0  0  0  0  0  0  0  0  0  0  0
  -30.1180  -23.1336   15.4752 C   0  0  0  0  0  0  0  0  0  0  0  0
  -22.9290  -21.2130   23.4528 C   0  0  0  0  0  0  0  0  0  0  0  0
  -29.8725  -24.3668   16.3476 C   0  0  0  0  0  0  0  0  0  0  0  0
  -28.9609  -22.1398   15.5595 C   0  0  0  0  0  0  0  0  0  0  0  0
  -28.3395  -22.9718   17.7935 C   0  0  0  0  0  0  0  0  0  0  0  0
  -23.7144  -21.0155   22.1506 C   0  0  1  0  0  0  0  0  0  0  0  0
  -22.8518  -17.5983   20.7323 C   0  0  1  0  0  0  0  0  0  0  0  0
  -29.5073  -23.9717   17.7919 C   0  0  2  0  0  0  0  0  0  0  0  0
  -31.9078  -16.5386   22.6714 C   0  0  0  0  0  0  0  0  0  0  0  0
  -19.0319  -11.1356   22.6418 C   0  0  0  0  0  0  0  0  0  0  0  0
  -30.4882  -13.1597   22.8993 C   0  0  0  0  0  0  0  0  0  0  0  0
  -30.5809  -12.4576   20.5102 C   0  0  0  0  0  0  0  0  0  0  0  0
  -22.0816  -16.4562   25.1440 C   0  0  0  0  0  0  0  0  0  0  0  0
  -21.0481  -14.2056   25.5109 C   0  0  0  0  0  0  0  0  0  0  0  0
  -19.6642  -16.0820   24.6241 C   0  0  0  0  0  0  0  0  0  0  0  0
  -20.6552  -11.9082   19.2886 C   0  0  0  0  0  0  0  0  0  0  0  0
  -28.5970  -13.7601   21.3483 C   0  0  0  0  0  0  0  0  0  1  0  0
  -30.6133  -16.1377   21.9588 C   0  0  1  0  0  0  0  0  0  0  0  0
  -21.3905  -15.0001   23.1271 C   0  0  1  0  0  0  0  0  0  0  0  0
  -19.6357  -12.0247   21.5658 C   0  0  2  0  0  0  0  0  0  0  0  0
  -30.1222  -13.5775   21.4666 C   0  0  0  0  0  0  0  0  0  0  0  0
  -21.0677  -15.4392   24.5833 C   0  0  0  0  0  0  0  0  0  0  0  0
  -30.3822  -17.2951   19.8201 N   0  0  0  0  0  0  0  0  0  0  0  0
  -27.9488  -25.6238   18.7527 N   0  0  0  0  0  0  0  0  0  0  0  0
  -29.2160  -25.1880   18.6509 N   0  0  0  0  0  0  0  0  0  0  0  0
  -22.6677  -16.3724   21.5118 N   0  0  0  0  0  0  0  0  0  0  0  0
  -28.6742  -21.8086   16.9570 N   0  0  0  0  0  0  0  0  0  0  0  0
  -31.4286  -25.6281   19.3731 N   0  0  0  0  0  0  0  0  0  0  0  0
  -29.0132  -28.8761   21.3763 N   0  0  0  0  0  0  0  0  0  0  0  0
  -28.4724  -20.2743   18.7367 N   0  0  0  0  0  0  0  0  0  0  0  0
  -23.1754  -19.9022   21.3992 N   0  0  0  0  0  0  0  0  0  0  0  0
  -20.4316  -14.0577   22.5607 N   0  0  0  0  0  0  0  0  0  0  0  0
  -20.0637  -11.1617   20.4287 N   0  3  0  0  0  0  0  0  0  0  0  0
  -31.1266  -28.0309   21.0971 O   0  0  0  0  0  0  0  0  0  0  0  0
  -24.3373  -18.1912   22.4691 O   0  0  0  0  0  0  0  0  0  0  0  0
  -31.6526  -14.9323   20.1580 O   0  0  0  0  0  0  0  0  0  0  0  0
  -20.4462  -16.8703   22.0150 O   0  0  0  0  0  0  0  0  0  0  0  0
  -21.9627  -12.3746   22.1135 O   0  0  0  0  0  0  0  0  0  0  0  0
  -29.0186  -19.5505   16.6014 O   0  0  0  0  0  0  0  0  0  0  0  0
  -23.5077  -29.6184   20.9593 O   0  0  0  0  0  0  0  0  0  0  0  0
  -28.2061  -14.1027   20.0193 O   0  0  0  0  0  0  0  0  0  1  0  0
  -18.9883  -26.8109   22.4074 F   0  0  0  0  0  0  0  0  0  0  0  0
  -22.3811  -29.9381   23.4636 F   0  0  0  0  0  0  0  0  0  0  0  0
  -27.8076  -20.0869   21.4572 F   0  0  0  0  0  0  0  0  0  0  0  0
  -28.8411  -18.0893   23.0117 F   0  0  0  0  0  0  0  0  0  0  0  0
  1  2  1  0  0  0  0
  1  5  2  0  0  0  0
  2  6  2  0  0  0  0
  3  8  2  0  0  0  0
  3 16  1  0  0  0  0
  4  9  1  0  0  0  0
  4 16  2  0  0  0  0
  5 18  1  0  0  0  0
  6 20  1  0  0  0  0
  7 10  2  0  0  0  0
  7 19  1  0  0  0  0
  8 23  1  0  0  0  0
  9 23  2  0  0  0  0
 10 24  1  0  0  0  0
 11 12  2  0  0  0  0
 11 25  1  0  0  0  0
 12 26  1  0  0  0  0
 13 21  1  0  0  0  0
 13 24  2  0  0  0  0
 14 26  2  0  0  0  0
 14 27  1  0  0  0  0
 15 22  1  0  0  0  0
 15 65  2  0  0  0  0
 16 30  1  0  0  0  0
 17 30  1  0  0  0  0
 17 32  2  0  0  0  0
 17 33  1  0  0  0  0
 18 20  2  0  0  0  0
 18 39  1  0  0  0  0
 19 21  2  0  0  0  0
 19 40  1  0  0  0  0
 20 48  1  0  0  0  0
 21 41  1  0  0  0  0
 22 28  2  0  0  0  0
 22 72  1  0  0  0  0
 23 82  1  0  0  0  0
 24 83  1  0  0  0  0
 25 27  2  0  0  0  0
 25 82  1  0  0  0  0
 26 84  1  0  0  0  0
 27 85  1  0  0  0  0
 28 29  1  0  0  0  0
 28 86  1  0  0  0  0
 29 31  2  0  0  0  0
 29 87  1  0  0  0  0
 30 66  2  0  0  0  0
 31 60  1  0  0  0  0
 31 65  1  0  0  0  0
 32 67  1  0  0  0  0
 32 70  1  0  0  0  0
 33 71  1  0  0  0  0
 33 76  2  0  0  0  0
 34 49  1  0  0  0  0
 34 73  1  0  0  0  0
 34 77  2  0  0  0  0
 35 60  1  0  0  0  0
 35 63  1  0  0  0  0
 35 78  2  0  0  0  0
 36 61  1  0  0  0  0
 36 68  1  0  0  0  0
 36 79  2  0  0  0  0
 37 62  1  0  0  0  0
 37 74  1  0  0  0  0
 37 80  2  0  0  0  0
 38 69  1  0  0  0  0
 38 72  1  0  0  0  0
 38 81  2  0  0  0  0
 39 42  1  0  0  0  0
 40 49  1  0  0  0  0
 41 68  1  0  0  0  0
 42 44  1  0  0  0  0
 43 45  1  0  0  0  0
 43 46  1  0  0  0  0
 44 48  1  0  0  0  0
 45 50  1  0  0  0  0
 46 69  1  0  0  0  0
 47 50  1  0  0  0  0
 47 69  1  0  0  0  0
 48 73  1  0  0  0  0
 49 68  1  0  0  0  0
 50 67  1  0  0  0  0
 51 60  1  0  0  0  0
 52 62  1  0  0  0  0
 53 63  1  0  0  0  0
 54 63  1  0  0  0  0
 55 64  1  0  0  0  0
 56 64  1  0  0  0  0
 57 64  1  0  0  0  0
 58 75  1  0  0  0  0
 59 63  1  0  0  0  0
 59 83  1  0  0  0  0
 61 64  1  0  0  0  0
 61 74  1  0  0  0  0
 62 75  1  0  0  0  0
 66 67  1  0  0  0  0
M  CHG  1  75   1
M  ISO  4  38 100  59 101  72 100  83 101
M  END
> <Batch ID>
0175

> <Smiles>
CNC(C)C(=O)NC(C(=O)N1Cc2cc([101O:1][101CH2:1]C(C)(C)C(=O)C(C)c3ncc([100NH:0][100C:0](=O)N4CCCC(n5nc(-c6ccc(Oc7ccc(F)cc7F)cc6)c(C(N)=O)c5N)C4)c(F)c3F)ccc2CC1C(=O)NC1CCCc2ccccc21)C(C)(C)C

> <Shape>
0.254

> <Color>
0.061

> <Negative vol penalty>
0.000

$$$$

  -OEChem-04052304353D

 84 92  0     1  0  0  0  0  0999 V2000
  -19.6486  -25.6557   17.7346 C   0  0  0  0  0  0  0  0  0  0  0  0
  -21.0241  -25.5977   17.9350 C   0  0  0  0  0  0  0  0  0  0  0  0
  -24.7319   -9.4990   21.8797 C   0  0  0  0  0  0  0  0  0  0  0  0
  -23.4051  -11.3136   22.7649 C   0  0  0  0  0  0  0  0  0  0  0  0
  -18.9652  -26.8534   17.9407 C   0  0  0  0  0  0  0  0  0  0  0  0
  -21.7171  -26.7377   18.3406 C   0  0  0  0  0  0  0  0  0  0  0  0
  -25.0302  -25.7807   22.0490 C   0  0  0  0  0  0  0  0  0  0  0  0
  -24.1353   -8.6212   22.7847 C   0  0  0  0  0  0  0  0  0  0  0  0
  -22.8084  -10.4358   23.6700 C   0  0  0  0  0  0  0  0  0  0  0  0
  -26.2372  -25.1847   21.6863 C   0  0  0  0  0  0  0  0  0  0  0  0
  -21.2140   -6.9425   23.0698 C   0  0  0  0  0  0  0  0  0  0  0  0
  -20.7875   -5.7052   22.5875 C   0  0  0  0  0  0  0  0  0  0  0  0
  -27.3208  -27.3380   21.7772 C   0  0  0  0  0  0  0  0  0  0  0  0
  -22.2708   -4.5907   24.1350 C   0  0  0  0  0  0  0  0  0  0  0  0
  -24.3669  -10.8452   21.8698 C   0  0  0  0  0  0  0  0  0  0  0  0
  -24.5417  -12.0641   19.6357 C   0  0  0  0  0  0  0  0  0  0  0  0
  -19.6487  -28.0062   18.3583 C   0  0  0  0  0  0  0  0  0  0  0  0
  -24.9568  -27.1638   22.2683 C   0  0  0  0  0  0  0  0  0  0  0  0
  -21.0424  -27.9523   18.5511 C   0  0  0  0  0  0  0  0  0  0  0  0
  -26.1121  -27.9487   22.1451 C   0  0  0  0  0  0  0  0  0  0  0  0
  -23.1735   -9.0895   23.6798 C   0  0  0  0  0  0  0  0  0  0  0  0
  -27.3821  -25.9638   21.5475 C   0  0  0  0  0  0  0  0  0  0  0  0
  -22.1691   -7.0040   24.0846 C   0  0  0  0  0  0  0  0  0  0  0  0
  -21.3158   -4.5293   23.1201 C   0  0  0  0  0  0  0  0  0  0  0  0
  -22.6974   -5.8281   24.6172 C   0  0  0  0  0  0  0  0  0  0  0  0
  -24.9833  -11.7526   20.9356 C   0  0  0  0  0  0  0  0  0  0  0  0
  -27.8739  -20.7634   17.0465 C   0  0  0  0  0  0  0  0  0  0  0  0
  -25.4636  -12.9679   19.1672 C   0  0  0  0  0  0  0  0  0  0  0  0
  -26.5902  -20.5199   16.6051 C   0  0  0  0  0  0  0  0  0  0  0  0
  -27.4678  -18.9436   18.2012 C   0  0  0  0  0  0  0  0  0  0  0  0
  -23.4000  -11.5798   18.9161 C   0  0  0  0  0  0  0  0  0  0  0  0
  -29.7329  -24.1211   19.5231 C   0  0  0  0  0  0  0  0  0  0  0  0
  -29.8254  -22.9432   18.5979 C   0  0  0  0  0  0  0  0  0  0  0  0
  -23.3713  -29.5674   20.9220 C   0  0  0  0  0  0  0  0  0  0  0  0
  -24.6609  -31.2715   23.3623 C   0  0  0  0  0  0  0  0  0  0  0  0
  -27.1429  -31.5838   25.6837 C   0  0  0  0  0  0  0  0  0  0  0  0
  -28.6570  -17.4752   19.8674 C   0  0  0  0  0  0  0  0  0  0  0  0
  -18.8743  -29.2899   18.5225 C   0  0  0  0  0  0  0  0  0  0  0  0
  -23.6531  -27.7874   22.6850 C   0  0  0  0  0  0  0  0  0  0  0  0
  -26.0909  -29.4348   22.3891 C   0  0  0  0  0  0  0  0  0  0  0  0
  -19.6254  -30.3575   19.3139 C   0  0  0  0  0  0  0  0  0  0  0  0
  -29.9478  -14.3740   21.0478 C   0  0  0  0  0  0  0  0  0  0  0  0
  -21.0630  -30.4770   18.8181 C   0  0  0  0  0  0  0  0  0  0  0  0
  -28.7350  -13.4412   21.0169 C   0  0  0  0  0  0  0  0  0  0  0  0
  -29.5610  -15.7938   21.4581 C   0  0  0  0  0  0  0  0  0  0  0  0
  -27.2605  -15.4593   20.6429 C   0  0  0  0  0  0  0  0  0  0  0  0
  -21.8256  -29.1613   19.0149 C   0  0  1  0  0  0  0  0  0  0  0  0
  -23.5812  -29.2808   22.3819 C   0  0  1  0  0  0  0  0  0  0  0  0
  -27.5900  -14.0333   20.1720 C   0  0  2  0  0  0  0  0  0  0  0  0
  -27.9505  -33.1011   27.5121 C   0  0  0  0  0  0  0  0  0  0  0  0
  -25.7361  -33.2156   21.2707 C   0  0  0  0  0  0  0  0  0  0  0  0
  -27.2826  -34.1282   23.0153 C   0  0  0  0  0  0  0  0  0  0  0  0
  -24.8136  -34.3003   23.3266 C   0  0  0  0  0  0  0  0  0  0  0  0
  -26.8432  -29.4676   27.7308 C   0  0  0  0  0  0  0  0  0  0  0  0
  -28.7463  -21.9092   16.6221 C   0  0  0  0  0  0  0  0  0  0  0  0
  -28.4920  -24.2197   20.3717 C   0  0  0  0  0  0  0  0  0  1  0  0
  -25.9390  -32.0489   23.5650 C   0  0  1  0  0  0  0  0  0  0  0  0
  -27.0992  -31.8881   27.1703 C   0  0  2  0  0  0  0  0  0  0  0  0
  -25.9431  -33.3956   22.7879 C   0  0  0  0  0  0  0  0  0  0  0  0
  -26.0991  -12.4054   21.2713 N   0  0  0  0  0  0  0  0  0  0  0  0
  -28.3787  -19.8607   17.9621 N   0  0  0  0  0  0  0  0  0  0  0  0
  -26.3665  -13.1360   20.1755 N   0  0  0  0  0  0  0  0  0  0  0  0
  -24.7909  -29.9989   22.7883 N   0  0  0  0  0  0  0  0  0  0  0  0
  -28.4740  -16.2907   20.6118 N   0  0  0  0  0  0  0  0  0  0  0  0
  -25.5821  -13.6273   17.9952 N   0  0  0  0  0  0  0  0  0  0  0  0
  -22.5564  -10.6547   19.5459 N   0  0  0  0  0  0  0  0  0  0  0  0
  -27.5669  -17.8320   19.0743 N   0  0  0  0  0  0  0  0  0  0  0  0
  -28.8354  -22.9276   17.6425 N   0  0  0  0  0  0  0  0  0  0  0  0
  -22.2210  -29.0084   20.3987 N   0  0  0  0  0  0  0  0  0  0  0  0
  -26.1059  -32.1909   25.0074 N   0  0  0  0  0  0  0  0  0  0  0  0
  -27.6040  -30.7243   27.9523 N   0  3  0  0  0  0  0  0  0  0  0  0
  -23.1450  -11.9439   17.7430 O   0  0  0  0  0  0  0  0  0  0  0  0
  -30.6734  -24.9010   19.5394 O   0  0  0  0  0  0  0  0  0  0  0  0
  -30.7505  -22.1632   18.7604 O   0  0  0  0  0  0  0  0  0  0  0  0
  -24.1914  -30.2465   20.3155 O   0  0  0  0  0  0  0  0  0  0  0  0
  -23.5875  -31.7719   23.7072 O   0  0  0  0  0  0  0  0  0  0  0  0
  -28.0123  -30.8811   25.1729 O   0  0  0  0  0  0  0  0  0  0  0  0
  -29.7137  -18.1105   19.9081 O   0  0  0  0  0  0  0  0  0  0  0  0
  -22.5909   -8.2332   24.5629 O   0  0  0  0  0  0  0  0  0  0  0  0
  -28.5615  -25.3847   21.1930 O   0  0  0  0  0  0  0  0  0  1  0  0
  -20.9050   -3.3411   22.6580 F   0  0  0  0  0  0  0  0  0  0  0  0
  -23.6143   -5.8808   25.5932 F   0  0  0  0  0  0  0  0  0  0  0  0
  -25.9206  -21.2672   15.7238 F   0  0  0  0  0  0  0  0  0  0  0  0
  -25.9813  -19.1049   17.3591 S   0  0  0  0  0  0  0  0  0  0  0  0
  1  2  1  0  0  0  0
  1  5  2  0  0  0  0
  2  6  2  0  0  0  0
  3  8  2  0  0  0  0
  3 15  1  0  0  0  0
  4  9  1  0  0  0  0
  4 15  2  0  0  0  0
  5 17  1  0  0  0  0
  6 19  1  0  0  0  0
  7 10  2  0  0  0  0
  7 18  1  0  0  0  0
  8 21  1  0  0  0  0
  9 21  2  0  0  0  0
 10 22  1  0  0  0  0
 11 12  2  0  0  0  0
 11 23  1  0  0  0  0
 12 24  1  0  0  0  0
 13 20  1  0  0  0  0
 13 22  2  0  0  0  0
 14 24  2  0  0  0  0
 14 25  1  0  0  0  0
 15 26  1  0  0  0  0
 16 26  1  0  0  0  0
 16 28  2  0  0  0  0
 16 31  1  0  0  0  0
 17 19  2  0  0  0  0
 17 38  1  0  0  0  0
 18 20  2  0  0  0  0
 18 39  1  0  0  0  0
 19 47  1  0  0  0  0
 20 40  1  0  0  0  0
 21 79  1  0  0  0  0
 22 80  1  0  0  0  0
 23 25  2  0  0  0  0
 23 79  1  0  0  0  0
 24 81  1  0  0  0  0
 25 82  1  0  0  0  0
 26 60  2  0  0  0  0
 27 29  2  0  0  0  0
 27 55  1  0  0  0  0
 27 61  1  0  0  0  0
 28 62  1  0  0  0  0
 28 65  1  0  0  0  0
 29 83  1  0  0  0  0
 29 84  1  0  0  0  0
 30 61  2  0  0  0  0
 30 67  1  0  0  0  0
 30 84  1  0  0  0  0
 31 66  1  0  0  0  0
 31 72  2  0  0  0  0
 32 33  1  0  0  0  0
 32 56  1  0  0  0  0
 32 73  2  0  0  0  0
 33 68  1  0  0  0  0
 33 74  2  0  0  0  0
 34 48  1  0  0  0  0
 34 69  1  0  0  0  0
 34 75  2  0  0  0  0
 35 57  1  0  0  0  0
 35 63  1  0  0  0  0
 35 76  2  0  0  0  0
 36 58  1  0  0  0  0
 36 70  1  0  0  0  0
 36 77  2  0  0  0  0
 37 64  1  0  0  0  0
 37 67  1  0  0  0  0
 37 78  2  0  0  0  0
 38 41  1  0  0  0  0
 39 48  1  0  0  0  0
 40 63  1  0  0  0  0
 41 43  1  0  0  0  0
 42 44  1  0  0  0  0
 42 45  1  0  0  0  0
 43 47  1  0  0  0  0
 44 49  1  0  0  0  0
 45 64  1  0  0  0  0
 46 49  1  0  0  0  0
 46 64  1  0  0  0  0
 47 69  1  0  0  0  0
 48 63  1  0  0  0  0
 49 62  1  0  0  0  0
 50 58  1  0  0  0  0
 51 59  1  0  0  0  0
 52 59  1  0  0  0  0
 53 59  1  0  0  0  0
 54 71  1  0  0  0  0
 55 68  1  0  0  0  0
 56 80  1  0  0  0  0
 57 59  1  0  0  0  0
 57 70  1  0  0  0  0
 58 71  1  0  0  0  0
 60 62  1  0  0  0  0
M  CHG  1  71   1
M  ISO  4  37 100  56 101  67 100  80 101
M  END
> <Batch ID>
0175

> <Smiles>
CNC(C)C(=O)NC(C(=O)N1Cc2cc([101O:1][101CH2:1]C(=O)C(=O)NCc3nc([100NH:0][100C:0](=O)N4CCCC(n5nc(-c6ccc(Oc7ccc(F)cc7F)cc6)c(C(N)=O)c5N)C4)sc3F)ccc2CC1C(=O)NC1CCCc2ccccc21)C(C)(C)C

> <Shape>
0.270

> <Color>
0.079

> <Negative vol penalty>
0.000

$$$$

  -OEChem-04052304353D

 85 93  0     1  0  0  0  0  0999 V2000
  -21.8957  -31.5758   22.1808 C   0  0  0  0  0  0  0  0  0  0  0  0
  -21.5769  -30.2230   22.1181 C   0  0  0  0  0  0  0  0  0  0  0  0
  -23.0735   -9.8871   19.8772 C   0  0  0  0  0  0  0  0  0  0  0  0
  -23.9535   -9.7002   22.1195 C   0  0  0  0  0  0  0  0  0  0  0  0
  -23.1457  -32.0170   21.7486 C   0  0  0  0  0  0  0  0  0  0  0  0
  -22.5076  -29.3108   21.6220 C   0  0  0  0  0  0  0  0  0  0  0  0
  -24.8219  -23.8097   25.6560 C   0  0  0  0  0  0  0  0  0  0  0  0
  -22.3659   -8.6984   20.0558 C   0  0  0  0  0  0  0  0  0  0  0  0
  -23.2458   -8.5115   22.2981 C   0  0  0  0  0  0  0  0  0  0  0  0
  -25.1547  -22.6122   26.2895 C   0  0  0  0  0  0  0  0  0  0  0  0
  -20.0697   -7.5849   22.9870 C   0  0  0  0  0  0  0  0  0  0  0  0
  -19.3767   -7.4190   24.1861 C   0  0  0  0  0  0  0  0  0  0  0  0
  -26.6260  -22.0396   24.4577 C   0  0  0  0  0  0  0  0  0  0  0  0
  -31.7285  -17.5815   21.9087 C   0  0  0  0  0  0  0  0  0  0  0  0
  -20.6918   -5.4519   24.6740 C   0  0  0  0  0  0  0  0  0  0  0  0
  -23.8674  -10.3880   20.9090 C   0  0  0  0  0  0  0  0  0  0  0  0
  -24.1545  -12.9208   21.0083 C   0  0  0  0  0  0  0  0  0  0  0  0
  -24.0957  -31.1084   21.2559 C   0  0  0  0  0  0  0  0  0  0  0  0
  -25.4024  -24.1342   24.4267 C   0  0  0  0  0  0  0  0  0  0  0  0
  -23.7709  -29.7405   21.1815 C   0  0  0  0  0  0  0  0  0  0  0  0
  -26.3060  -23.2435   23.8243 C   0  0  0  0  0  0  0  0  0  0  0  0
  -31.8270  -18.7760   22.6791 C   0  0  0  0  0  0  0  0  0  0  0  0
  -22.4520   -8.0106   21.2662 C   0  0  0  0  0  0  0  0  0  0  0  0
  -26.0543  -21.7292   25.6916 C   0  0  0  0  0  0  0  0  0  0  0  0
  -21.0738   -6.6843   22.6314 C   0  0  0  0  0  0  0  0  0  0  0  0
  -19.6878   -6.3525   25.0296 C   0  0  0  0  0  0  0  0  0  0  0  0
  -21.3848   -5.6178   23.4749 C   0  0  0  0  0  0  0  0  0  0  0  0
  -24.5991  -11.6155   20.7249 C   0  0  0  0  0  0  0  0  0  0  0  0
  -30.7126  -18.9796   23.4629 C   0  0  0  0  0  0  0  0  0  0  0  0
  -25.2115  -13.7264   20.6616 C   0  0  0  0  0  0  0  0  0  0  0  0
  -30.5425  -16.9174   22.1331 C   0  0  0  0  0  0  0  0  0  0  0  0
  -22.8984  -13.3654   21.5378 C   0  0  0  0  0  0  0  0  0  0  0  0
  -30.4150  -20.0897   24.4034 C   0  0  0  0  0  0  0  0  0  0  0  0
  -25.6932  -26.6167   21.6288 C   0  0  0  0  0  0  0  0  0  0  0  0
  -28.5150  -25.5361   22.1581 C   0  0  0  0  0  0  0  0  0  0  0  0
  -29.2356  -20.6491   26.4973 C   0  0  0  0  0  0  0  0  0  0  0  0
  -31.2131  -24.8499   23.6251 C   0  0  0  0  0  0  0  0  0  0  0  0
  -30.6586  -14.8809   20.6547 C   0  0  0  0  0  0  0  0  0  0  0  0
  -25.4162  -31.6386   20.7562 C   0  0  0  0  0  0  0  0  0  0  0  0
  -25.0264  -25.3847   23.6791 C   0  0  0  0  0  0  0  0  0  0  0  0
  -26.8793  -23.6183   22.4850 C   0  0  0  0  0  0  0  0  0  0  0  0
  -26.4835  -30.5594   20.5933 C   0  0  0  0  0  0  0  0  0  0  0  0
  -29.4662  -12.6706   18.1308 C   0  0  0  0  0  0  0  0  0  0  0  0
  -25.9089  -29.3452   19.8706 C   0  0  0  0  0  0  0  0  0  0  0  0
  -28.0571  -12.3064   18.6040 C   0  0  0  0  0  0  0  0  0  0  0  0
  -30.4391  -12.8090   19.3004 C   0  0  0  0  0  0  0  0  0  0  0  0
  -28.5946  -13.3572   20.8388 C   0  0  0  0  0  0  0  0  0  0  0  0
  -24.7629  -28.7170   20.6728 C   0  0  1  0  0  0  0  0  0  0  0  0
  -26.2022  -25.9966   22.8967 C   0  0  1  0  0  0  0  0  0  0  0  0
  -27.5643  -13.2705   19.7010 C   0  0  2  0  0  0  0  0  0  0  0  0
  -32.9988  -19.6839   22.6327 C   0  0  0  0  0  0  0  0  0  0  0  0
  -33.6926  -24.4765   23.7267 C   0  0  0  0  0  0  0  0  0  0  0  0
  -26.0799  -19.9785   28.6229 C   0  0  0  0  0  0  0  0  0  0  0  0
  -28.2319  -23.6801   19.7541 C   0  0  0  0  0  0  0  0  0  0  0  0
  -30.6657  -23.1366   19.9768 C   0  0  0  0  0  0  0  0  0  0  0  0
  -29.9516  -25.4764   19.4889 C   0  0  0  0  0  0  0  0  0  0  0  0
  -31.5717  -26.9989   25.6281 C   0  0  0  0  0  0  0  0  0  0  0  0
  -28.3562  -20.0020   27.5515 C   0  0  0  0  0  0  0  0  0  0  0  0
  -29.5685  -24.5194   21.7975 C   0  0  1  0  0  0  0  0  0  0  0  0
  -32.5644  -25.4792   23.9123 C   0  0  2  0  0  0  0  0  0  0  0  0
  -26.9814  -20.6663   27.6069 C   0  0  1  0  0  0  0  0  0  1  0  0
  -29.5866  -24.1990   20.2761 C   0  0  0  0  0  0  0  0  0  0  0  0
  -25.8416  -11.5888   20.2356 N   0  0  0  0  0  0  0  0  0  0  0  0
  -26.1868  -12.8874   20.2088 N   0  0  0  0  0  0  0  0  0  0  0  0
  -27.2432  -25.0438   22.4754 N   0  0  0  0  0  0  0  0  0  0  0  0
  -29.9080  -13.7407   20.2977 N   0  0  0  0  0  0  0  0  0  0  0  0
  -25.3925  -15.0635   20.7027 N   0  0  0  0  0  0  0  0  0  0  0  0
  -21.9232  -12.4051   21.8397 N   0  0  0  0  0  0  0  0  0  0  0  0
  -30.0380  -15.7107   21.5880 N   0  0  0  0  0  0  0  0  0  0  0  0
  -29.6046  -19.7602   25.4882 N   0  0  0  0  0  0  0  0  0  0  0  0
  -25.2854  -27.9296   21.7688 N   0  0  0  0  0  0  0  0  0  0  0  0
  -30.8303  -25.0384   22.3139 N   0  0  0  0  0  0  0  0  0  0  0  0
  -32.6123  -25.9866   25.3128 N   0  3  0  0  0  0  0  0  0  0  0  0
  -22.6423  -14.5795   21.7219 O   0  0  0  0  0  0  0  0  0  0  0  0
  -30.9055  -21.1963   24.1966 O   0  0  0  0  0  0  0  0  0  0  0  0
  -25.6729  -25.9543   20.5980 O   0  0  0  0  0  0  0  0  0  0  0  0
  -28.8074  -26.7352   22.1538 O   0  0  0  0  0  0  0  0  0  0  0  0
  -29.5678  -21.8299   26.5713 O   0  0  0  0  0  0  0  0  0  0  0  0
  -30.5640  -24.2479   24.4775 O   0  0  0  0  0  0  0  0  0  0  0  0
  -31.7579  -15.1189   20.1480 O   0  0  0  0  0  0  0  0  0  0  0  0
  -21.7614   -6.8508   21.4410 O   0  0  0  0  0  0  0  0  0  0  0  0
  -26.3782  -20.5639   26.3177 O   0  0  0  0  0  0  0  0  0  1  0  0
  -19.0232   -6.1942   26.1818 F   0  0  0  0  0  0  0  0  0  0  0  0
  -22.3492   -4.7500   23.1391 F   0  0  0  0  0  0  0  0  0  0  0  0
  -29.5540  -17.7337   23.2683 S   0  0  0  0  0  0  0  0  0  0  0  0
  1  2  1  0  0  0  0
  1  5  2  0  0  0  0
  2  6  2  0  0  0  0
  3  8  2  0  0  0  0
  3 16  1  0  0  0  0
  4  9  1  0  0  0  0
  4 16  2  0  0  0  0
  5 18  1  0  0  0  0
  6 20  1  0  0  0  0
  7 10  2  0  0  0  0
  7 19  1  0  0  0  0
  8 23  1  0  0  0  0
  9 23  2  0  0  0  0
 10 24  1  0  0  0  0
 11 12  2  0  0  0  0
 11 25  1  0  0  0  0
 12 26  1  0  0  0  0
 13 21  1  0  0  0  0
 13 24  2  0  0  0  0
 14 22  1  0  0  0  0
 14 31  2  0  0  0  0
 15 26  2  0  0  0  0
 15 27  1  0  0  0  0
 16 28  1  0  0  0  0
 17 28  1  0  0  0  0
 17 30  2  0  0  0  0
 17 32  1  0  0  0  0
 18 20  2  0  0  0  0
 18 39  1  0  0  0  0
 19 21  2  0  0  0  0
 19 40  1  0  0  0  0
 20 48  1  0  0  0  0
 21 41  1  0  0  0  0
 22 29  2  0  0  0  0
 22 51  1  0  0  0  0
 23 81  1  0  0  0  0
 24 82  1  0  0  0  0
 25 27  2  0  0  0  0
 25 81  1  0  0  0  0
 26 83  1  0  0  0  0
 27 84  1  0  0  0  0
 28 63  2  0  0  0  0
 29 33  1  0  0  0  0
 29 85  1  0  0  0  0
 30 64  1  0  0  0  0
 30 67  1  0  0  0  0
 31 69  1  0  0  0  0
 31 85  1  0  0  0  0
 32 68  1  0  0  0  0
 32 74  2  0  0  0  0
 33 70  1  0  0  0  0
 33 75  2  0  0  0  0
 34 49  1  0  0  0  0
 34 71  1  0  0  0  0
 34 76  2  0  0  0  0
 35 59  1  0  0  0  0
 35 65  1  0  0  0  0
 35 77  2  0  0  0  0
 36 58  1  0  0  0  0
 36 70  1  0  0  0  0
 36 78  2  0  0  0  0
 37 60  1  0  0  0  0
 37 72  1  0  0  0  0
 37 79  2  0  0  0  0
 38 66  1  0  0  0  0
 38 69  1  0  0  0  0
 38 80  2  0  0  0  0
 39 42  1  0  0  0  0
 40 49  1  0  0  0  0
 41 65  1  0  0  0  0
 42 44  1  0  0  0  0
 43 45  1  0  0  0  0
 43 46  1  0  0  0  0
 44 48  1  0  0  0  0
 45 50  1  0  0  0  0
 46 66  1  0  0  0  0
 47 50  1  0  0  0  0
 47 66  1  0  0  0  0
 48 71  1  0  0  0  0
 49 65  1  0  0  0  0
 50 64  1  0  0  0  0
 52 60  1  0  0  0  0
 53 61  1  0  0  0  0
 54 62  1  0  0  0  0
 55 62  1  0  0  0  0
 56 62  1  0  0  0  0
 57 73  1  0  0  0  0
 58 61  1  0  0  0  0
 59 62  1  0  0  0  0
 59 72  1  0  0  0  0
 60 73  1  0  0  0  0
 61 82  1  0  0  0  0
 63 64  1  0  0  0  0
M  CHG  1  73   1
M  ISO  4  38 100  61 101  69 100  82 101
M  END
> <Batch ID>
0175

> <Smiles>
CNC(C)C(=O)NC(C(=O)N1Cc2cc([101O:1][101CH:1](C)CC(=O)NC(=O)c3sc([100NH:0][100C:0](=O)N4CCCC(n5nc(-c6ccc(Oc7ccc(F)cc7F)cc6)c(C(N)=O)c5N)C4)cc3C)ccc2CC1C(=O)NC1CCCc2ccccc21)C(C)(C)C

> <Shape>
0.266

> <Color>
0.197

> <Negative vol penalty>
0.000

$$$$

  -OEChem-04052304353D

 87 95  0     1  0  0  0  0  0999 V2000
  -17.6541  -30.5615   23.9648 C   0  0  0  0  0  0  0  0  0  0  0  0
  -18.9258  -30.0022   24.0377 C   0  0  0  0  0  0  0  0  0  0  0  0
  -26.8886  -12.8394   21.0722 C   0  0  0  0  0  0  0  0  0  0  0  0
  -26.8180  -13.1761   18.6808 C   0  0  0  0  0  0  0  0  0  0  0  0
  -16.6005  -29.8263   23.4231 C   0  0  0  0  0  0  0  0  0  0  0  0
  -19.1445  -28.7070   23.5698 C   0  0  0  0  0  0  0  0  0  0  0  0
  -23.3521  -28.3349   20.7764 C   0  0  0  0  0  0  0  0  0  0  0  0
  -26.2626  -11.6027   20.9166 C   0  0  0  0  0  0  0  0  0  0  0  0
  -26.1920  -11.9393   18.5252 C   0  0  0  0  0  0  0  0  0  0  0  0
  -24.5670  -28.2859   21.4586 C   0  0  0  0  0  0  0  0  0  0  0  0
  -23.1300  -10.4453   20.3950 C   0  0  0  0  0  0  0  0  0  0  0  0
  -22.0841  -10.1353   21.2641 C   0  0  0  0  0  0  0  0  0  0  0  0
  -24.6170  -25.8897   21.1851 C   0  0  0  0  0  0  0  0  0  0  0  0
  -23.3093   -8.2074   22.0510 C   0  0  0  0  0  0  0  0  0  0  0  0
  -31.5731  -24.3170   17.1473 C   0  0  0  0  0  0  0  0  0  0  0  0
  -30.9341  -22.0161   17.4339 C   0  0  0  0  0  0  0  0  0  0  0  0
  -27.1663  -13.6261   19.9543 C   0  0  0  0  0  0  0  0  0  0  0  0
  -29.1961  -15.1634   20.1099 C   0  0  0  0  0  0  0  0  0  0  0  0
  -16.8085  -28.5249   22.9396 C   0  0  0  0  0  0  0  0  0  0  0  0
  -22.7541  -27.1585   20.3022 C   0  0  0  0  0  0  0  0  0  0  0  0
  -18.0925  -27.9532   23.0224 C   0  0  0  0  0  0  0  0  0  0  0  0
  -23.3957  -25.9267   20.4950 C   0  0  0  0  0  0  0  0  0  0  0  0
  -25.9143  -11.1526   19.6431 C   0  0  0  0  0  0  0  0  0  0  0  0
  -25.1982  -27.0628   21.6656 C   0  0  0  0  0  0  0  0  0  0  0  0
  -24.2656   -9.6363   20.3537 C   0  0  0  0  0  0  0  0  0  0  0  0
  -22.1737   -9.0164   22.0922 C   0  0  0  0  0  0  0  0  0  0  0  0
  -24.3553   -8.5174   21.1818 C   0  0  0  0  0  0  0  0  0  0  0  0
  -31.8417  -22.9638   16.9739 C   0  0  0  0  0  0  0  0  0  0  0  0
  -27.8125  -14.9039   20.1145 C   0  0  0  0  0  0  0  0  0  0  0  0
  -30.3924  -24.6677   17.7819 C   0  0  0  0  0  0  0  0  0  0  0  0
  -29.7821  -22.4699   18.0559 C   0  0  0  0  0  0  0  0  0  0  0  0
  -29.2916  -16.5207   20.2974 C   0  0  0  0  0  0  0  0  0  0  0  0
  -30.2967  -14.2584   19.9505 C   0  0  0  0  0  0  0  0  0  0  0  0
  -29.0906  -27.6056   21.3226 C   0  0  0  0  0  0  0  0  0  0  0  0
  -29.0497  -27.4197   19.8325 C   0  0  0  0  0  0  0  0  0  0  0  0
  -20.0188  -25.6441   20.8752 C   0  0  0  0  0  0  0  0  0  0  0  0
  -21.0194  -23.7346   18.4514 C   0  0  0  0  0  0  0  0  0  0  0  0
  -23.6210  -22.5075   16.6148 C   0  0  0  0  0  0  0  0  0  0  0  0
  -27.6507  -21.7207   19.1704 C   0  0  0  0  0  0  0  0  0  0  0  0
  -15.6287  -27.7516   22.4059 C   0  0  0  0  0  0  0  0  0  0  0  0
  -21.4566  -27.2312   19.5448 C   0  0  0  0  0  0  0  0  0  0  0  0
  -22.8054  -24.6372   19.9880 C   0  0  0  0  0  0  0  0  0  0  0  0
  -16.0241  -26.5241   21.5892 C   0  0  0  0  0  0  0  0  0  0  0  0
  -25.7769  -19.9206   21.6046 C   0  0  0  0  0  0  0  0  0  0  0  0
  -17.1025  -25.7252   22.3142 C   0  0  0  0  0  0  0  0  0  0  0  0
  -26.2533  -18.4763   21.4336 C   0  0  0  0  0  0  0  0  0  0  0  0
  -25.6930  -20.6524   20.2663 C   0  0  0  0  0  0  0  0  0  0  0  0
  -27.3938  -19.1641   19.2857 C   0  0  0  0  0  0  0  0  0  0  0  0
  -18.3747  -26.5602   22.5027 C   0  0  1  0  0  0  0  0  0  0  0  0
  -20.6840  -25.9158   19.5555 C   0  0  1  0  0  0  0  0  0  0  0  0
  -27.5563  -18.4061   20.6134 C   0  0  2  0  0  0  0  0  0  0  0  0
  -24.1303  -20.9357   14.7260 C   0  0  0  0  0  0  0  0  0  0  0  0
  -20.6122  -21.3586   20.3220 C   0  0  0  0  0  0  0  0  0  0  0  0
  -22.0014  -19.9802   18.7605 C   0  0  0  0  0  0  0  0  0  0  0  0
  -19.8553  -20.9758   17.9693 C   0  0  0  0  0  0  0  0  0  0  0  0
  -24.7657  -24.6795   14.9623 C   0  0  0  0  0  0  0  0  0  0  0  0
  -30.0696  -26.1196   17.9869 C   0  0  0  0  0  0  0  0  0  0  0  0
  -27.2833  -25.9624   21.9776 C   0  0  0  0  0  0  0  0  0  1  0  0
  -28.7213  -26.4163   22.1888 C   0  0  2  0  0  0  0  0  0  0  0  0
  -21.8517  -22.4788   18.3535 C   0  0  1  0  0  0  0  0  0  0  0  0
  -23.8206  -22.3726   15.1160 C   0  0  2  0  0  0  0  0  0  0  0  0
  -21.0906  -21.2223   18.8627 C   0  0  0  0  0  0  0  0  0  0  0  0
  -27.0815  -16.0078   20.2910 N   0  0  0  0  0  0  0  0  0  0  0  0
  -29.4868  -23.7759   18.2423 N   0  0  0  0  0  0  0  0  0  0  0  0
  -28.0093  -16.9740   20.3992 N   0  0  0  0  0  0  0  0  0  0  0  0
  -21.5322  -24.7596   19.2589 N   0  0  0  0  0  0  0  0  0  0  0  0
  -26.9644  -20.5469   19.5471 N   0  0  0  0  0  0  0  0  0  0  0  0
  -30.3465  -17.3586   20.3835 N   0  0  0  0  0  0  0  0  0  0  0  0
  -30.0208  -12.8965   19.7676 N   0  0  0  0  0  0  0  0  0  0  0  0
  -28.8642  -21.4959   18.5211 N   0  0  0  0  0  0  0  0  0  0  0  0
  -29.9129  -26.4462   19.3851 N   0  0  0  0  0  0  0  0  0  0  0  0
  -19.1257  -26.6230   21.2671 N   0  0  0  0  0  0  0  0  0  0  0  0
  -22.2928  -22.3887   16.9658 N   0  0  0  0  0  0  0  0  0  0  0  0
  -24.9483  -23.2357   14.6639 N   0  3  0  0  0  0  0  0  0  0  0  0
  -31.4900  -14.6436   19.9860 O   0  0  0  0  0  0  0  0  0  0  0  0
  -29.4337  -28.7039   21.7369 O   0  0  0  0  0  0  0  0  0  0  0  0
  -28.3051  -28.1425   19.1893 O   0  0  0  0  0  0  0  0  0  0  0  0
  -20.2942  -24.6213   21.4914 O   0  0  0  0  0  0  0  0  0  0  0  0
  -19.9572  -23.8061   17.8285 O   0  0  0  0  0  0  0  0  0  0  0  0
  -24.5507  -22.6954   17.3964 O   0  0  0  0  0  0  0  0  0  0  0  0
  -27.2087  -22.8427   19.4306 O   0  0  0  0  0  0  0  0  0  0  0  0
  -28.8900  -26.7777   23.5515 O   0  0  0  0  0  0  0  0  0  0  0  0
  -25.3036   -9.9458   19.4909 O   0  0  0  0  0  0  0  0  0  0  0  0
  -26.3838  -27.0121   22.3317 O   0  0  0  0  0  0  0  0  0  1  0  0
  -21.1698   -8.7198   22.9279 F   0  0  0  0  0  0  0  0  0  0  0  0
  -25.4442   -7.7371   21.1475 F   0  0  0  0  0  0  0  0  0  0  0  0
  -32.9698  -22.5754   16.3656 F   0  0  0  0  0  0  0  0  0  0  0  0
  1  2  1  0  0  0  0
  1  5  2  0  0  0  0
  2  6  2  0  0  0  0
  3  8  2  0  0  0  0
  3 17  1  0  0  0  0
  4  9  1  0  0  0  0
  4 17  2  0  0  0  0
  5 19  1  0  0  0  0
  6 21  1  0  0  0  0
  7 10  2  0  0  0  0
  7 20  1  0  0  0  0
  8 23  1  0  0  0  0
  9 23  2  0  0  0  0
 10 24  1  0  0  0  0
 11 12  2  0  0  0  0
 11 25  1  0  0  0  0
 12 26  1  0  0  0  0
 13 22  1  0  0  0  0
 13 24  2  0  0  0  0
 14 26  2  0  0  0  0
 14 27  1  0  0  0  0
 15 28  2  0  0  0  0
 15 30  1  0  0  0  0
 16 28  1  0  0  0  0
 16 31  2  0  0  0  0
 17 29  1  0  0  0  0
 18 29  1  0  0  0  0
 18 32  2  0  0  0  0
 18 33  1  0  0  0  0
 19 21  2  0  0  0  0
 19 40  1  0  0  0  0
 20 22  2  0  0  0  0
 20 41  1  0  0  0  0
 21 49  1  0  0  0  0
 22 42  1  0  0  0  0
 23 83  1  0  0  0  0
 24 84  1  0  0  0  0
 25 27  2  0  0  0  0
 25 83  1  0  0  0  0
 26 85  1  0  0  0  0
 27 86  1  0  0  0  0
 28 87  1  0  0  0  0
 29 63  2  0  0  0  0
 30 57  1  0  0  0  0
 30 64  2  0  0  0  0
 31 64  1  0  0  0  0
 31 70  1  0  0  0  0
 32 65  1  0  0  0  0
 32 68  1  0  0  0  0
 33 69  1  0  0  0  0
 33 75  2  0  0  0  0
 34 35  1  0  0  0  0
 34 59  1  0  0  0  0
 34 76  2  0  0  0  0
 35 71  1  0  0  0  0
 35 77  2  0  0  0  0
 36 50  1  0  0  0  0
 36 72  1  0  0  0  0
 36 78  2  0  0  0  0
 37 60  1  0  0  0  0
 37 66  1  0  0  0  0
 37 79  2  0  0  0  0
 38 61  1  0  0  0  0
 38 73  1  0  0  0  0
 38 80  2  0  0  0  0
 39 67  1  0  0  0  0
 39 70  1  0  0  0  0
 39 81  2  0  0  0  0
 40 43  1  0  0  0  0
 41 50  1  0  0  0  0
 42 66  1  0  0  0  0
 43 45  1  0  0  0  0
 44 46  1  0  0  0  0
 44 47  1  0  0  0  0
 45 49  1  0  0  0  0
 46 51  1  0  0  0  0
 47 67  1  0  0  0  0
 48 51  1  0  0  0  0
 48 67  1  0  0  0  0
 49 72  1  0  0  0  0
 50 66  1  0  0  0  0
 51 65  1  0  0  0  0
 52 61  1  0  0  0  0
 53 62  1  0  0  0  0
 54 62  1  0  0  0  0
 55 62  1  0  0  0  0
 56 74  1  0  0  0  0
 57 71  1  0  0  0  0
 58 59  1  0  0  0  0
 58 84  1  0  0  0  0
 59 82  1  0  0  0  0
 60 62  1  0  0  0  0
 60 73  1  0  0  0  0
 61 74  1  0  0  0  0
 63 65  1  0  0  0  0
M  CHG  1  74   1
M  ISO  4  39 100  58 101  70 100  84 101
M  END
> <Batch ID>
0175

> <Smiles>
CNC(C)C(=O)NC(C(=O)N1Cc2cc([101O:1][101CH2:1]C(O)C(=O)C(=O)NCc3cc(F)cc([100NH:0][100C:0](=O)N4CCCC(n5nc(-c6ccc(Oc7ccc(F)cc7F)cc6)c(C(N)=O)c5N)C4)n3)ccc2CC1C(=O)NC1CCCc2ccccc21)C(C)(C)C

> <Shape>
0.247

> <Color>
0.074

> <Negative vol penalty>
0.000

$$$$

  -OEChem-04052304353D

 86 94  0     1  0  0  0  0  0999 V2000
  -27.8409  -31.6829   27.9198 C   0  0  0  0  0  0  0  0  0  0  0  0
  -28.0186  -30.7960   26.8628 C   0  0  0  0  0  0  0  0  0  0  0  0
  -24.5582   -8.2429   21.3674 C   0  0  0  0  0  0  0  0  0  0  0  0
  -22.7182   -9.8011   21.2155 C   0  0  0  0  0  0  0  0  0  0  0  0
  -26.5595  -32.1190   28.2543 C   0  0  0  0  0  0  0  0  0  0  0  0
  -26.9149  -30.3439   26.1404 C   0  0  0  0  0  0  0  0  0  0  0  0
  -27.7015  -30.4242   21.1384 C   0  0  0  0  0  0  0  0  0  0  0  0
  -23.8634   -7.5166   22.3345 C   0  0  0  0  0  0  0  0  0  0  0  0
  -22.0233   -9.0749   22.1826 C   0  0  0  0  0  0  0  0  0  0  0  0
  -28.4686  -29.3932   20.5979 C   0  0  0  0  0  0  0  0  0  0  0  0
  -22.4231   -5.0486   24.5816 C   0  0  0  0  0  0  0  0  0  0  0  0
  -22.4045   -3.6592   24.4602 C   0  0  0  0  0  0  0  0  0  0  0  0
  -26.4529  -28.2729   19.8899 C   0  0  0  0  0  0  0  0  0  0  0  0
  -21.3349   -3.8620   22.3034 C   0  0  0  0  0  0  0  0  0  0  0  0
  -23.9857   -9.3852   20.8079 C   0  0  0  0  0  0  0  0  0  0  0  0
  -24.6618   -9.9516   18.4142 C   0  0  0  0  0  0  0  0  0  0  0  0
  -25.4406  -31.6796   27.5295 C   0  0  0  0  0  0  0  0  0  0  0  0
  -26.3016  -30.3820   21.0683 C   0  0  0  0  0  0  0  0  0  0  0  0
  -25.6173  -30.7735   26.4664 C   0  0  0  0  0  0  0  0  0  0  0  0
  -25.6704  -29.3059   20.4280 C   0  0  0  0  0  0  0  0  0  0  0  0
  -22.5959   -7.9326   22.7421 C   0  0  0  0  0  0  0  0  0  0  0  0
  -27.8443  -28.3159   19.9760 C   0  0  0  0  0  0  0  0  0  0  0  0
  -21.8976   -5.8447   23.5639 C   0  0  0  0  0  0  0  0  0  0  0  0
  -21.8604   -3.0659   23.3211 C   0  0  0  0  0  0  0  0  0  0  0  0
  -21.3535   -5.2514   22.4248 C   0  0  0  0  0  0  0  0  0  0  0  0
  -24.7032  -10.1361   19.8092 C   0  0  0  0  0  0  0  0  0  0  0  0
  -25.0384  -19.8950   19.4605 C   0  0  0  0  0  0  0  0  0  0  0  0
  -25.5121  -10.9083   17.9159 C   0  0  0  0  0  0  0  0  0  0  0  0
  -23.7316  -19.4563   19.4186 C   0  0  0  0  0  0  0  0  0  0  0  0
  -25.4043  -17.7459   19.7002 C   0  0  0  0  0  0  0  0  0  0  0  0
  -23.9210   -9.0004   17.6382 C   0  0  0  0  0  0  0  0  0  0  0  0
  -25.4533  -21.3244   19.3449 C   0  0  0  0  0  0  0  0  0  0  0  0
  -28.6827  -23.4997   19.4811 C   0  0  0  0  0  0  0  0  0  0  0  0
  -29.0866  -24.9605   19.5217 C   0  0  0  0  0  0  0  0  0  0  0  0
  -23.9505  -30.2844   23.2052 C   0  0  0  0  0  0  0  0  0  0  0  0
  -22.0743  -30.5997   20.5779 C   0  0  0  0  0  0  0  0  0  0  0  0
  -21.7135  -30.1887   17.2092 C   0  0  0  0  0  0  0  0  0  0  0  0
  -27.3698  -16.1964   19.9871 C   0  0  0  0  0  0  0  0  0  0  0  0
  -24.0705  -32.1419   27.9584 C   0  0  0  0  0  0  0  0  0  0  0  0
  -25.4894  -31.5152   21.6326 C   0  0  0  0  0  0  0  0  0  0  0  0
  -24.1714  -29.2230   20.3085 C   0  0  0  0  0  0  0  0  0  0  0  0
  -22.9910  -31.9073   26.9049 C   0  0  0  0  0  0  0  0  0  0  0  0
  -29.4150  -13.4249   19.0854 C   0  0  0  0  0  0  0  0  0  0  0  0
  -23.0970  -30.4954   26.3372 C   0  0  0  0  0  0  0  0  0  0  0  0
  -28.4340  -12.2514   19.0358 C   0  0  0  0  0  0  0  0  0  0  0  0
  -29.0742  -14.4019   20.2093 C   0  0  0  0  0  0  0  0  0  0  0  0
  -26.7084  -13.7168   20.1591 C   0  0  0  0  0  0  0  0  0  0  0  0
  -24.4474  -30.2798   25.6432 C   0  0  1  0  0  0  0  0  0  0  0  0
  -24.0533  -31.1167   21.9585 C   0  0  1  0  0  0  0  0  0  0  0  0
  -26.9724  -12.7397   19.0019 C   0  0  2  0  0  0  0  0  0  0  0  0
  -20.0539  -30.5019   15.3531 C   0  0  0  0  0  0  0  0  0  0  0  0
  -20.5656  -28.1172   21.5112 C   0  0  0  0  0  0  0  0  0  0  0  0
  -19.5926  -27.9294   19.2120 C   0  0  0  0  0  0  0  0  0  0  0  0
  -19.1139  -29.9415   20.6065 C   0  0  0  0  0  0  0  0  0  0  0  0
  -23.4814  -32.0939   15.7937 C   0  0  0  0  0  0  0  0  0  0  0  0
  -26.9374  -21.6624   19.4085 C   0  0  0  0  0  0  0  0  0  0  0  0
  -27.2109  -23.1668   19.3549 C   0  0  0  0  0  0  0  0  0  0  0  0
  -28.0050  -26.0066   19.4306 C   0  0  0  0  0  0  0  0  0  1  0  0
  -21.4187  -29.6432   19.6113 C   0  0  1  0  0  0  0  0  0  0  0  0
  -21.2035  -31.1256   16.1291 C   0  0  2  0  0  0  0  0  0  0  0  0
  -20.2009  -28.9081   20.2391 C   0  0  0  0  0  0  0  0  0  0  0  0
  -25.5155  -11.1317   20.1738 N   0  0  0  0  0  0  0  0  0  0  0  0
  -25.9989  -18.9158   19.6223 N   0  0  0  0  0  0  0  0  0  0  0  0
  -25.9925  -11.5813   19.0006 N   0  0  0  0  0  0  0  0  0  0  0  0
  -23.4206  -30.3524   20.8815 N   0  0  0  0  0  0  0  0  0  0  0  0
  -27.6755  -14.8246   20.1106 N   0  0  0  0  0  0  0  0  0  0  0  0
  -25.8881  -11.2310   16.6602 N   0  0  0  0  0  0  0  0  0  0  0  0
  -22.6026  -20.1923   19.2712 N   0  0  0  0  0  0  0  0  0  0  0  0
  -23.0947   -8.0890   18.3096 N   0  0  0  0  0  0  0  0  0  0  0  0
  -26.0087  -16.4754   19.8682 N   0  0  0  0  0  0  0  0  0  0  0  0
  -24.4491  -30.9017   24.3365 N   0  0  0  0  0  0  0  0  0  0  0  0
  -21.0975  -30.4224   18.4205 N   0  0  0  0  0  0  0  0  0  0  0  0
  -22.2956  -31.4528   15.1693 N   0  3  0  0  0  0  0  0  0  0  0  0
  -24.0024   -8.9493   16.3875 O   0  0  0  0  0  0  0  0  0  0  0  0
  -24.5916  -22.1877   19.1961 O   0  0  0  0  0  0  0  0  0  0  0  0
  -29.5815  -22.6716   19.5528 O   0  0  0  0  0  0  0  0  0  0  0  0
  -30.2805  -25.2122   19.6233 O   0  0  0  0  0  0  0  0  0  0  0  0
  -23.4542  -29.1655   23.1455 O   0  0  0  0  0  0  0  0  0  0  0  0
  -21.4182  -31.5361   21.0408 O   0  0  0  0  0  0  0  0  0  0  0  0
  -22.5697  -29.3326   16.9986 O   0  0  0  0  0  0  0  0  0  0  0  0
  -28.2523  -17.0581   19.9594 O   0  0  0  0  0  0  0  0  0  0  0  0
  -21.9175   -7.2240   23.6856 O   0  0  0  0  0  0  0  0  0  0  0  0
  -28.5906  -27.3078   19.4481 O   0  0  0  0  0  0  0  0  0  1  0  0
  -21.8440   -1.7316   23.2040 F   0  0  0  0  0  0  0  0  0  0  0  0
  -20.8482   -6.0111   21.4433 F   0  0  0  0  0  0  0  0  0  0  0  0
  -23.6920  -17.7498   19.5858 S   0  0  0  0  0  0  0  0  0  0  0  0
  1  2  1  0  0  0  0
  1  5  2  0  0  0  0
  2  6  2  0  0  0  0
  3  8  2  0  0  0  0
  3 15  1  0  0  0  0
  4  9  1  0  0  0  0
  4 15  2  0  0  0  0
  5 17  1  0  0  0  0
  6 19  1  0  0  0  0
  7 10  2  0  0  0  0
  7 18  1  0  0  0  0
  8 21  1  0  0  0  0
  9 21  2  0  0  0  0
 10 22  1  0  0  0  0
 11 12  2  0  0  0  0
 11 23  1  0  0  0  0
 12 24  1  0  0  0  0
 13 20  1  0  0  0  0
 13 22  2  0  0  0  0
 14 24  2  0  0  0  0
 14 25  1  0  0  0  0
 15 26  1  0  0  0  0
 16 26  1  0  0  0  0
 16 28  2  0  0  0  0
 16 31  1  0  0  0  0
 17 19  2  0  0  0  0
 17 39  1  0  0  0  0
 18 20  2  0  0  0  0
 18 40  1  0  0  0  0
 19 48  1  0  0  0  0
 20 41  1  0  0  0  0
 21 82  1  0  0  0  0
 22 83  1  0  0  0  0
 23 25  2  0  0  0  0
 23 82  1  0  0  0  0
 24 84  1  0  0  0  0
 25 85  1  0  0  0  0
 26 62  2  0  0  0  0
 27 29  2  0  0  0  0
 27 32  1  0  0  0  0
 27 63  1  0  0  0  0
 28 64  1  0  0  0  0
 28 67  1  0  0  0  0
 29 68  1  0  0  0  0
 29 86  1  0  0  0  0
 30 63  2  0  0  0  0
 30 70  1  0  0  0  0
 30 86  1  0  0  0  0
 31 69  1  0  0  0  0
 31 74  2  0  0  0  0
 32 56  1  0  0  0  0
 32 75  2  0  0  0  0
 33 34  1  0  0  0  0
 33 57  1  0  0  0  0
 33 76  2  0  0  0  0
 34 58  1  0  0  0  0
 34 77  2  0  0  0  0
 35 49  1  0  0  0  0
 35 71  1  0  0  0  0
 35 78  2  0  0  0  0
 36 59  1  0  0  0  0
 36 65  1  0  0  0  0
 36 79  2  0  0  0  0
 37 60  1  0  0  0  0
 37 72  1  0  0  0  0
 37 80  2  0  0  0  0
 38 66  1  0  0  0  0
 38 70  1  0  0  0  0
 38 81  2  0  0  0  0
 39 42  1  0  0  0  0
 40 49  1  0  0  0  0
 41 65  1  0  0  0  0
 42 44  1  0  0  0  0
 43 45  1  0  0  0  0
 43 46  1  0  0  0  0
 44 48  1  0  0  0  0
 45 50  1  0  0  0  0
 46 66  1  0  0  0  0
 47 50  1  0  0  0  0
 47 66  1  0  0  0  0
 48 71  1  0  0  0  0
 49 65  1  0  0  0  0
 50 64  1  0  0  0  0
 51 60  1  0  0  0  0
 52 61  1  0  0  0  0
 53 61  1  0  0  0  0
 54 61  1  0  0  0  0
 55 73  1  0  0  0  0
 56 57  1  0  0  0  0
 58 83  1  0  0  0  0
 59 61  1  0  0  0  0
 59 72  1  0  0  0  0
 60 73  1  0  0  0  0
 62 64  1  0  0  0  0
M  CHG  1  73   1
M  ISO  4  38 100  58 101  70 100  83 101
M  END
> <Batch ID>
0175

> <Smiles>
CNC(C)C(=O)NC(C(=O)N1Cc2cc([101O:1][101CH2:1]C(=O)C(=O)CCC(=O)c3nc([100NH:0][100C:0](=O)N4CCCC(n5nc(-c6ccc(Oc7ccc(F)cc7F)cc6)c(C(N)=O)c5N)C4)sc3N)ccc2CC1C(=O)NC1CCCc2ccccc21)C(C)(C)C

> <Shape>
0.268

> <Color>
0.100

> <Negative vol penalty>
0.000

$$$$

  -OEChem-04052304353D

 87 95  0     1  0  0  0  0  0999 V2000
  -25.9101  -32.6146   14.3210 C   0  0  0  0  0  0  0  0  0  0  0  0
  -26.5307  -31.6833   15.1474 C   0  0  0  0  0  0  0  0  0  0  0  0
  -23.2842   -9.7068   20.4197 C   0  0  0  0  0  0  0  0  0  0  0  0
  -23.9650  -10.1792   22.6891 C   0  0  0  0  0  0  0  0  0  0  0  0
  -25.3884  -33.7882   14.8638 C   0  0  0  0  0  0  0  0  0  0  0  0
  -26.6310  -31.9255   16.5169 C   0  0  0  0  0  0  0  0  0  0  0  0
  -25.4557  -27.8612   19.3000 C   0  0  0  0  0  0  0  0  0  0  0  0
  -31.2855  -19.4629   23.2607 C   0  0  0  0  0  0  0  0  0  0  0  0
  -22.6167   -8.5632   20.8579 C   0  0  0  0  0  0  0  0  0  0  0  0
  -23.2974   -9.0356   23.1274 C   0  0  0  0  0  0  0  0  0  0  0  0
  -26.4244  -26.8649   19.4126 C   0  0  0  0  0  0  0  0  0  0  0  0
  -20.1162   -8.1141   23.7990 C   0  0  0  0  0  0  0  0  0  0  0  0
  -31.9879  -18.2584   23.2243 C   0  0  0  0  0  0  0  0  0  0  0  0
  -19.3255   -8.2253   24.9427 C   0  0  0  0  0  0  0  0  0  0  0  0
  -27.0383  -27.7157   21.5848 C   0  0  0  0  0  0  0  0  0  0  0  0
  -20.6768   -6.5499   26.0400 C   0  0  0  0  0  0  0  0  0  0  0  0
  -23.9585  -10.5148   21.3353 C   0  0  0  0  0  0  0  0  0  0  0  0
  -24.1230  -12.9970   20.7702 C   0  0  0  0  0  0  0  0  0  0  0  0
  -25.4739  -34.0405   16.2420 C   0  0  0  0  0  0  0  0  0  0  0  0
  -25.2782  -28.8006   20.3259 C   0  0  0  0  0  0  0  0  0  0  0  0
  -26.1112  -33.1042   17.0784 C   0  0  0  0  0  0  0  0  0  0  0  0
  -26.0650  -28.7214   21.4838 C   0  0  0  0  0  0  0  0  0  0  0  0
  -30.0905  -19.5950   22.5533 C   0  0  0  0  0  0  0  0  0  0  0  0
  -30.3006  -17.3181   21.7731 C   0  0  0  0  0  0  0  0  0  0  0  0
  -22.6232   -8.2276   22.2118 C   0  0  0  0  0  0  0  0  0  0  0  0
  -27.2179  -26.7937   20.5538 C   0  0  0  0  0  0  0  0  0  0  0  0
  -21.1872   -7.2206   23.7758 C   0  0  0  0  0  0  0  0  0  0  0  0
  -19.6058   -7.4433   26.0632 C   0  0  0  0  0  0  0  0  0  0  0  0
  -31.4955  -17.1860   22.4805 C   0  0  0  0  0  0  0  0  0  0  0  0
  -21.4675   -6.4386   24.8963 C   0  0  0  0  0  0  0  0  0  0  0  0
  -29.5981  -18.5226   21.8095 C   0  0  0  0  0  0  0  0  0  0  0  0
  -24.6487  -11.6960   20.8831 C   0  0  0  0  0  0  0  0  0  0  0  0
  -25.1704  -13.7509   20.3000 C   0  0  0  0  0  0  0  0  0  0  0  0
  -28.0658  -24.9453   21.7092 C   0  0  0  0  0  0  0  0  0  1  0  0
  -22.8057  -13.4808   21.0641 C   0  0  0  0  0  0  0  0  0  0  0  0
  -28.9393  -23.9536   21.9159 C   0  0  0  0  0  0  0  0  0  0  0  0
  -28.7365  -23.0580   23.0808 C   0  0  0  0  0  0  0  0  0  0  0  0
  -29.7369  -21.9599   23.2769 C   0  0  0  0  0  0  0  0  0  0  0  0
  -25.5514  -31.9597   20.5468 C   0  0  0  0  0  0  0  0  0  0  0  0
  -24.3432  -31.4659   23.5164 C   0  0  0  0  0  0  0  0  0  0  0  0
  -23.8699  -29.3265   26.1329 C   0  0  0  0  0  0  0  0  0  0  0  0
  -30.5391  -15.2242   20.3929 C   0  0  0  0  0  0  0  0  0  0  0  0
  -24.9373  -35.3450   16.7759 C   0  0  0  0  0  0  0  0  0  0  0  0
  -24.2107  -29.8529   20.2007 C   0  0  0  0  0  0  0  0  0  0  0  0
  -25.9002  -29.6934   22.6225 C   0  0  0  0  0  0  0  0  0  0  0  0
  -24.7522  -35.3530   18.2911 C   0  0  0  0  0  0  0  0  0  0  0  0
  -29.6792  -12.3501   18.4753 C   0  0  0  0  0  0  0  0  0  0  0  0
  -25.9847  -34.7788   18.9825 C   0  0  0  0  0  0  0  0  0  0  0  0
  -28.2506  -12.0307   18.9214 C   0  0  0  0  0  0  0  0  0  0  0  0
  -30.5352  -12.8579   19.6342 C   0  0  0  0  0  0  0  0  0  0  0  0
  -28.5365  -13.6690   20.8245 C   0  0  0  0  0  0  0  0  0  0  0  0
  -26.2176  -33.3196   18.5726 C   0  0  1  0  0  0  0  0  0  0  0  0
  -24.4657  -31.0706   21.0837 C   0  0  1  0  0  0  0  0  0  0  0  0
  -27.6183  -13.2155   19.6778 C   0  0  2  0  0  0  0  0  0  0  0  0
  -22.8815  -29.2208   28.4371 C   0  0  0  0  0  0  0  0  0  0  0  0
  -26.7344  -33.0134   24.6105 C   0  0  0  0  0  0  0  0  0  0  0  0
  -26.2181  -32.0745   26.8733 C   0  0  0  0  0  0  0  0  0  0  0  0
  -24.5562  -33.5362   25.7225 C   0  0  0  0  0  0  0  0  0  0  0  0
  -21.9531  -27.2157   25.3397 C   0  0  0  0  0  0  0  0  0  0  0  0
  -24.9327  -31.1834   24.8771 C   0  0  1  0  0  0  0  0  0  0  0  0
  -22.6362  -28.9958   26.9532 C   0  0  2  0  0  0  0  0  0  0  0  0
  -25.6151  -32.4346   25.4988 C   0  0  0  0  0  0  0  0  0  0  0  0
  -25.9304  -11.6239   20.5141 N   0  0  0  0  0  0  0  0  0  0  0  0
  -26.2188  -12.8892   20.1647 N   0  0  0  0  0  0  0  0  0  0  0  0
  -24.8474  -30.7080   22.4501 N   0  0  0  0  0  0  0  0  0  0  0  0
  -29.8752  -13.9827   20.3007 N   0  0  0  0  0  0  0  0  0  0  0  0
  -25.2875  -15.0603   19.9930 N   0  0  0  0  0  0  0  0  0  0  0  0
  -21.8506  -12.5716   21.5391 N   0  0  0  0  0  0  0  0  0  0  0  0
  -29.3811  -20.8176   22.5923 N   0  0  0  0  0  0  0  0  0  0  0  0
  -29.8005  -16.2280   21.0186 N   0  0  0  0  0  0  0  0  0  0  0  0
  -25.3046  -32.4449   19.2767 N   0  0  0  0  0  0  0  0  0  0  0  0
  -23.8505  -30.6302   25.6840 N   0  0  0  0  0  0  0  0  0  0  0  0
  -22.2467  -27.5715   26.7518 N   0  3  0  0  0  0  0  0  0  0  0  0
  -22.4805  -14.6803   20.8946 O   0  0  0  0  0  0  0  0  0  0  0  0
  -27.8169  -23.1313   23.8808 O   0  0  0  0  0  0  0  0  0  0  0  0
  -30.7026  -22.2146   23.9769 O   0  0  0  0  0  0  0  0  0  0  0  0
  -26.5393  -32.1898   21.2346 O   0  0  0  0  0  0  0  0  0  0  0  0
  -23.4624  -32.3224   23.4049 O   0  0  0  0  0  0  0  0  0  0  0  0
  -24.7635  -28.5112   25.9154 O   0  0  0  0  0  0  0  0  0  0  0  0
  -31.6682  -15.3926   19.9252 O   0  0  0  0  0  0  0  0  0  0  0  0
  -30.0219  -23.7210   21.0970 O   0  0  0  0  0  0  0  0  0  0  0  0
  -21.9717   -7.1119   22.6399 O   0  0  0  0  0  0  0  0  0  0  0  0
  -28.1645  -25.8226   20.6660 O   0  0  0  0  0  0  0  0  0  1  0  0
  -18.8474   -7.5514   27.1620 F   0  0  0  0  0  0  0  0  0  0  0  0
  -32.1791  -16.0327   22.4543 F   0  0  0  0  0  0  0  0  0  0  0  0
  -22.4958   -5.5794   24.8803 F   0  0  0  0  0  0  0  0  0  0  0  0
  -28.4480  -18.6496   21.1296 F   0  0  0  0  0  0  0  0  0  0  0  0
  1  2  1  0  0  0  0
  1  5  2  0  0  0  0
  2  6  2  0  0  0  0
  3  9  2  0  0  0  0
  3 17  1  0  0  0  0
  4 10  1  0  0  0  0
  4 17  2  0  0  0  0
  5 19  1  0  0  0  0
  6 21  1  0  0  0  0
  7 11  2  0  0  0  0
  7 20  1  0  0  0  0
  8 13  2  0  0  0  0
  8 23  1  0  0  0  0
  9 25  1  0  0  0  0
 10 25  2  0  0  0  0
 11 26  1  0  0  0  0
 12 14  2  0  0  0  0
 12 27  1  0  0  0  0
 13 29  1  0  0  0  0
 14 28  1  0  0  0  0
 15 22  1  0  0  0  0
 15 26  2  0  0  0  0
 16 28  2  0  0  0  0
 16 30  1  0  0  0  0
 17 32  1  0  0  0  0
 18 32  1  0  0  0  0
 18 33  2  0  0  0  0
 18 35  1  0  0  0  0
 19 21  2  0  0  0  0
 19 43  1  0  0  0  0
 20 22  2  0  0  0  0
 20 44  1  0  0  0  0
 21 52  1  0  0  0  0
 22 45  1  0  0  0  0
 23 31  2  0  0  0  0
 23 69  1  0  0  0  0
 24 29  2  0  0  0  0
 24 31  1  0  0  0  0
 24 70  1  0  0  0  0
 25 82  1  0  0  0  0
 26 83  1  0  0  0  0
 27 30  2  0  0  0  0
 27 82  1  0  0  0  0
 28 84  1  0  0  0  0
 29 85  1  0  0  0  0
 30 86  1  0  0  0  0
 31 87  1  0  0  0  0
 32 63  2  0  0  0  0
 33 64  1  0  0  0  0
 33 67  1  0  0  0  0
 34 36  2  0  0  0  0
 34 83  1  0  0  0  0
 35 68  1  0  0  0  0
 35 74  2  0  0  0  0
 36 37  1  0  0  0  0
 36 81  1  0  0  0  0
 37 38  1  0  0  0  0
 37 75  2  0  0  0  0
 38 69  1  0  0  0  0
 38 76  2  0  0  0  0
 39 53  1  0  0  0  0
 39 71  1  0  0  0  0
 39 77  2  0  0  0  0
 40 60  1  0  0  0  0
 40 65  1  0  0  0  0
 40 78  2  0  0  0  0
 41 61  1  0  0  0  0
 41 72  1  0  0  0  0
 41 79  2  0  0  0  0
 42 66  1  0  0  0  0
 42 70  1  0  0  0  0
 42 80  2  0  0  0  0
 43 46  1  0  0  0  0
 44 53  1  0  0  0  0
 45 65  1  0  0  0  0
 46 48  1  0  0  0  0
 47 49  1  0  0  0  0
 47 50  1  0  0  0  0
 48 52  1  0  0  0  0
 49 54  1  0  0  0  0
 50 66  1  0  0  0  0
 51 54  1  0  0  0  0
 51 66  1  0  0  0  0
 52 71  1  0  0  0  0
 53 65  1  0  0  0  0
 54 64  1  0  0  0  0
 55 61  1  0  0  0  0
 56 62  1  0  0  0  0
 57 62  1  0  0  0  0
 58 62  1  0  0  0  0
 59 73  1  0  0  0  0
 60 62  1  0  0  0  0
 60 72  1  0  0  0  0
 61 73  1  0  0  0  0
 63 64  1  0  0  0  0
M  CHG  1  73   1
M  ISO  4  34 101  42 100  70 100  83 101
M  END
> <Batch ID>
0175

> <Smiles>
CNC(C)C(=O)NC(C(=O)N1Cc2cc([101O:1][101CH2:1]C(=O)C(=O)C(=O)Nc3ccc(F)c([100NH:0][100C:0](=O)N4CCCC(n5nc(-c6ccc(Oc7ccc(F)cc7F)cc6)c(C(N)=O)c5N)C4)c3F)ccc2CC1C(=O)NC1CCCc2ccccc21)C(C)(C)C

> <Shape>
0.307

> <Color>
0.215

> <Negative vol penalty>
0.000

$$$$

  -OEChem-04052304353D

 85 93  0     1  0  0  0  0  0999 V2000
  -27.8725  -18.7449   39.2439 C   0  0  0  0  0  0  0  0  0  0  0  0
  -27.8972  -19.3028   37.9697 C   0  0  0  0  0  0  0  0  0  0  0  0
  -23.0753   -9.8687   19.9405 C   0  0  0  0  0  0  0  0  0  0  0  0
  -23.8351   -9.8746   22.2339 C   0  0  0  0  0  0  0  0  0  0  0  0
  -27.6744  -17.3736   39.3995 C   0  0  0  0  0  0  0  0  0  0  0  0
  -27.7248  -18.4895   36.8502 C   0  0  0  0  0  0  0  0  0  0  0  0
  -24.9003  -19.9719   31.6224 C   0  0  0  0  0  0  0  0  0  0  0  0
  -22.3310   -8.7157   20.1901 C   0  0  0  0  0  0  0  0  0  0  0  0
  -23.0908   -8.7217   22.4835 C   0  0  0  0  0  0  0  0  0  0  0  0
  -25.3807  -20.3963   30.3843 C   0  0  0  0  0  0  0  0  0  0  0  0
  -21.1048   -5.9848   23.8191 C   0  0  0  0  0  0  0  0  0  0  0  0
  -20.3485   -5.9411   24.9903 C   0  0  0  0  0  0  0  0  0  0  0  0
  -31.8610  -18.3535   24.2025 C   0  0  0  0  0  0  0  0  0  0  0  0
  -25.2899  -18.1249   29.5772 C   0  0  0  0  0  0  0  0  0  0  0  0
  -32.0650  -16.6035   22.5493 C   0  0  0  0  0  0  0  0  0  0  0  0
  -19.1046   -7.8791   24.2593 C   0  0  0  0  0  0  0  0  0  0  0  0
  -23.8274  -10.4481   20.9625 C   0  0  0  0  0  0  0  0  0  0  0  0
  -30.4749  -18.3388   24.0470 C   0  0  0  0  0  0  0  0  0  0  0  0
  -24.1701  -12.9732   20.8433 C   0  0  0  0  0  0  0  0  0  0  0  0
  -27.4899  -16.5445   38.2818 C   0  0  0  0  0  0  0  0  0  0  0  0
  -24.6209  -18.6168   31.8510 C   0  0  0  0  0  0  0  0  0  0  0  0
  -27.5254  -17.1056   36.9909 C   0  0  0  0  0  0  0  0  0  0  0  0
  -24.8035  -17.6862   30.8182 C   0  0  0  0  0  0  0  0  0  0  0  0
  -30.6789  -16.5888   22.3938 C   0  0  0  0  0  0  0  0  0  0  0  0
  -22.3387   -8.1422   21.4616 C   0  0  0  0  0  0  0  0  0  0  0  0
  -25.5784  -19.4724   29.3624 C   0  0  0  0  0  0  0  0  0  0  0  0
  -20.8611   -6.9757   22.8680 C   0  0  0  0  0  0  0  0  0  0  0  0
  -19.3484   -6.8882   25.2104 C   0  0  0  0  0  0  0  0  0  0  0  0
  -32.6561  -17.4859   23.4536 C   0  0  0  0  0  0  0  0  0  0  0  0
  -19.8610   -7.9228   23.0881 C   0  0  0  0  0  0  0  0  0  0  0  0
  -29.8839  -17.4564   23.1427 C   0  0  0  0  0  0  0  0  0  0  0  0
  -24.5969  -11.6388   20.7052 C   0  0  0  0  0  0  0  0  0  0  0  0
  -25.2626  -13.7224   20.4803 C   0  0  0  0  0  0  0  0  0  0  0  0
  -28.6976  -18.8028   25.6876 C   0  0  0  0  0  0  0  0  0  0  0  0
  -29.6395  -19.2598   24.8428 C   0  0  0  0  0  0  0  0  0  0  0  0
  -22.8998  -13.4893   21.2623 C   0  0  0  0  0  0  0  0  0  0  0  0
  -27.8231  -19.6774   26.5262 C   0  0  0  0  0  0  0  0  0  0  0  0
  -25.7406  -16.3990   33.8337 C   0  0  0  0  0  0  0  0  0  0  0  0
  -23.3437  -14.6156   32.5700 C   0  0  0  0  0  0  0  0  0  0  0  0
  -21.2151  -14.0547   29.9622 C   0  0  0  0  0  0  0  0  0  0  0  0
  -30.7291  -14.7660   20.6556 C   0  0  0  0  0  0  0  0  0  0  0  0
  -27.3263  -15.0608   38.4976 C   0  0  0  0  0  0  0  0  0  0  0  0
  -24.0778  -18.1791   33.1836 C   0  0  0  0  0  0  0  0  0  0  0  0
  -24.4995  -16.2231   31.0061 C   0  0  0  0  0  0  0  0  0  0  0  0
  -26.7777  -14.3247   37.2780 C   0  0  0  0  0  0  0  0  0  0  0  0
  -29.6140  -12.3534   18.2865 C   0  0  0  0  0  0  0  0  0  0  0  0
  -27.5133  -14.7618   36.0152 C   0  0  0  0  0  0  0  0  0  0  0  0
  -28.1742  -12.0622   18.7159 C   0  0  0  0  0  0  0  0  0  0  0  0
  -30.5291  -12.5814   19.4883 C   0  0  0  0  0  0  0  0  0  0  0  0
  -28.6224  -13.3061   20.8697 C   0  0  0  0  0  0  0  0  0  0  0  0
  -27.3175  -16.2599   35.7533 C   0  0  1  0  0  0  0  0  0  0  0  0
  -24.3144  -16.6991   33.4682 C   0  0  1  0  0  0  0  0  0  0  0  0
  -27.6495  -13.1336   19.6917 C   0  0  2  0  0  0  0  0  0  0  0  0
  -19.3971  -12.5006   29.2025 C   0  0  0  0  0  0  0  0  0  0  0  0
  -25.4343  -12.4883   31.9269 C   0  0  0  0  0  0  0  0  0  0  0  0
  -23.7824  -11.4358   30.3676 C   0  0  0  0  0  0  0  0  0  0  0  0
  -23.2703  -11.5927   32.8039 C   0  0  0  0  0  0  0  0  0  0  0  0
  -19.2368  -16.2513   29.8207 C   0  0  0  0  0  0  0  0  0  0  0  0
  -26.8287  -18.9506   27.4079 C   0  0  0  0  0  0  0  0  0  1  0  0
  -23.2117  -13.6863   31.3877 C   0  0  1  0  0  0  0  0  0  0  0  0
  -19.7187  -13.8025   29.9196 C   0  0  2  0  0  0  0  0  0  0  0  0
  -23.9323  -12.3280   31.6183 C   0  0  0  0  0  0  0  0  0  0  0  0
  -25.8618  -11.5427   20.2869 N   0  0  0  0  0  0  0  0  0  0  0  0
  -26.2391  -12.8262   20.1590 N   0  0  0  0  0  0  0  0  0  0  0  0
  -23.9765  -15.8434   32.3290 N   0  0  0  0  0  0  0  0  0  0  0  0
  -29.9705  -13.6122   20.3660 N   0  0  0  0  0  0  0  0  0  0  0  0
  -25.4735  -15.0538   20.4078 N   0  0  0  0  0  0  0  0  0  0  0  0
  -21.8876  -12.5804   21.5992 N   0  0  0  0  0  0  0  0  0  0  0  0
  -30.0821  -15.6910   21.4743 N   0  0  0  0  0  0  0  0  0  0  0  0
  -26.0098  -16.5070   35.1847 N   0  0  0  0  0  0  0  0  0  0  0  0
  -21.7825  -13.5666   31.1202 N   0  0  0  0  0  0  0  0  0  0  0  0
  -19.0261  -14.9142   29.2086 N   0  3  0  0  0  0  0  0  0  0  0  0
  -22.6640  -14.7200   21.3201 O   0  0  0  0  0  0  0  0  0  0  0  0
  -27.9045  -20.9019   26.5017 O   0  0  0  0  0  0  0  0  0  0  0  0
  -26.5375  -16.0909   32.9552 O   0  0  0  0  0  0  0  0  0  0  0  0
  -22.8954  -14.2682   33.6654 O   0  0  0  0  0  0  0  0  0  0  0  0
  -21.8206  -14.6241   29.0568 O   0  0  0  0  0  0  0  0  0  0  0  0
  -31.8583  -14.9345   20.1881 O   0  0  0  0  0  0  0  0  0  0  0  0
  -29.9381  -20.5918   24.6465 O   0  0  0  0  0  0  0  0  0  0  0  0
  -21.6124   -7.0173   21.7055 O   0  0  0  0  0  0  0  0  0  0  0  0
  -26.0479  -19.8839   28.1532 O   0  0  0  0  0  0  0  0  0  1  0  0
  -18.6211   -6.8452   26.3344 F   0  0  0  0  0  0  0  0  0  0  0  0
  -33.9872  -17.4999   23.6029 F   0  0  0  0  0  0  0  0  0  0  0  0
  -19.6215   -8.8764   22.1776 F   0  0  0  0  0  0  0  0  0  0  0  0
  -28.5503  -17.4390   22.9902 F   0  0  0  0  0  0  0  0  0  0  0  0
  1  2  1  0  0  0  0
  1  5  2  0  0  0  0
  2  6  2  0  0  0  0
  3  8  2  0  0  0  0
  3 17  1  0  0  0  0
  4  9  1  0  0  0  0
  4 17  2  0  0  0  0
  5 20  1  0  0  0  0
  6 22  1  0  0  0  0
  7 10  2  0  0  0  0
  7 21  1  0  0  0  0
  8 25  1  0  0  0  0
  9 25  2  0  0  0  0
 10 26  1  0  0  0  0
 11 12  2  0  0  0  0
 11 27  1  0  0  0  0
 12 28  1  0  0  0  0
 13 18  1  0  0  0  0
 13 29  2  0  0  0  0
 14 23  1  0  0  0  0
 14 26  2  0  0  0  0
 15 24  2  0  0  0  0
 15 29  1  0  0  0  0
 16 28  2  0  0  0  0
 16 30  1  0  0  0  0
 17 32  1  0  0  0  0
 18 31  2  0  0  0  0
 18 35  1  0  0  0  0
 19 32  1  0  0  0  0
 19 33  2  0  0  0  0
 19 36  1  0  0  0  0
 20 22  2  0  0  0  0
 20 42  1  0  0  0  0
 21 23  2  0  0  0  0
 21 43  1  0  0  0  0
 22 51  1  0  0  0  0
 23 44  1  0  0  0  0
 24 31  1  0  0  0  0
 24 69  1  0  0  0  0
 25 80  1  0  0  0  0
 26 81  1  0  0  0  0
 27 30  2  0  0  0  0
 27 80  1  0  0  0  0
 28 82  1  0  0  0  0
 29 83  1  0  0  0  0
 30 84  1  0  0  0  0
 31 85  1  0  0  0  0
 32 63  2  0  0  0  0
 33 64  1  0  0  0  0
 33 67  1  0  0  0  0
 34 35  2  0  0  0  0
 34 37  1  0  0  0  0
 35 79  1  0  0  0  0
 36 68  1  0  0  0  0
 36 73  2  0  0  0  0
 37 59  1  0  0  0  0
 37 74  2  0  0  0  0
 38 52  1  0  0  0  0
 38 70  1  0  0  0  0
 38 75  2  0  0  0  0
 39 60  1  0  0  0  0
 39 65  1  0  0  0  0
 39 76  2  0  0  0  0
 40 61  1  0  0  0  0
 40 71  1  0  0  0  0
 40 77  2  0  0  0  0
 41 66  1  0  0  0  0
 41 69  1  0  0  0  0
 41 78  2  0  0  0  0
 42 45  1  0  0  0  0
 43 52  1  0  0  0  0
 44 65  1  0  0  0  0
 45 47  1  0  0  0  0
 46 48  1  0  0  0  0
 46 49  1  0  0  0  0
 47 51  1  0  0  0  0
 48 53  1  0  0  0  0
 49 66  1  0  0  0  0
 50 53  1  0  0  0  0
 50 66  1  0  0  0  0
 51 70  1  0  0  0  0
 52 65  1  0  0  0  0
 53 64  1  0  0  0  0
 54 61  1  0  0  0  0
 55 62  1  0  0  0  0
 56 62  1  0  0  0  0
 57 62  1  0  0  0  0
 58 72  1  0  0  0  0
 59 81  1  0  0  0  0
 60 62  1  0  0  0  0
 60 71  1  0  0  0  0
 61 72  1  0  0  0  0
 63 64  1  0  0  0  0
M  CHG  1  72   1
M  ISO  4  41 100  59 101  69 100  81 101
M  END
> <Batch ID>
0175

> <Smiles>
CNC(C)C(=O)NC(C(=O)N1Cc2cc([101O:1][101CH2:1]C(=O)CC(=O)c3cc(F)cc([100NH:0][100C:0](=O)N4CCCC(n5nc(-c6ccc(Oc7ccc(F)cc7F)cc6)c(C(N)=O)c5N)C4)c3F)ccc2CC1C(=O)NC1CCCc2ccccc21)C(C)(C)C

> <Shape>
0.161

> <Color>
0.192

> <Negative vol penalty>
0.000

$$$$

  -OEChem-04052304353D

 88 96  0     1  0  0  0  0  0999 V2000
  -22.9219  -31.0712   14.1730 C   0  0  0  0  0  0  0  0  0  0  0  0
  -23.8726  -30.3579   14.8961 C   0  0  0  0  0  0  0  0  0  0  0  0
  -23.1336   -9.9473   21.5512 C   0  0  0  0  0  0  0  0  0  0  0  0
  -23.8058  -11.0668   23.5839 C   0  0  0  0  0  0  0  0  0  0  0  0
  -22.4864  -32.3136   14.6320 C   0  0  0  0  0  0  0  0  0  0  0  0
  -24.3891  -30.8873   16.0783 C   0  0  0  0  0  0  0  0  0  0  0  0
  -24.6211  -27.4629   19.8018 C   0  0  0  0  0  0  0  0  0  0  0  0
  -31.9186  -17.3704   20.8665 C   0  0  0  0  0  0  0  0  0  0  0  0
  -22.3978   -9.0292   22.3002 C   0  0  0  0  0  0  0  0  0  0  0  0
  -23.0699  -10.1487   24.3330 C   0  0  0  0  0  0  0  0  0  0  0  0
  -25.6722  -26.5478   19.7607 C   0  0  0  0  0  0  0  0  0  0  0  0
  -23.0071   -6.2671   24.1507 C   0  0  0  0  0  0  0  0  0  0  0  0
  -32.4795  -18.5867   21.2558 C   0  0  0  0  0  0  0  0  0  0  0  0
  -23.1245   -4.9178   23.8174 C   0  0  0  0  0  0  0  0  0  0  0  0
  -26.8697  -27.8592   21.3933 C   0  0  0  0  0  0  0  0  0  0  0  0
  -20.7529   -4.8227   23.3664 C   0  0  0  0  0  0  0  0  0  0  0  0
  -23.8377  -10.9662   22.1931 C   0  0  0  0  0  0  0  0  0  0  0  0
  -24.1469  -13.1401   20.8946 C   0  0  0  0  0  0  0  0  0  0  0  0
  -22.9908  -32.8540   15.8254 C   0  0  0  0  0  0  0  0  0  0  0  0
  -24.6913  -28.5907   20.6322 C   0  0  0  0  0  0  0  0  0  0  0  0
  -23.9610  -32.1387   16.5530 C   0  0  0  0  0  0  0  0  0  0  0  0
  -25.8171  -28.7858   21.4450 C   0  0  0  0  0  0  0  0  0  0  0  0
  -29.7174  -18.3639   20.9340 C   0  0  0  0  0  0  0  0  0  0  0  0
  -30.5375  -17.2590   20.7056 C   0  0  0  0  0  0  0  0  0  0  0  0
  -30.2783  -19.5803   21.3234 C   0  0  0  0  0  0  0  0  0  0  0  0
  -22.3659   -9.1298   23.6911 C   0  0  0  0  0  0  0  0  0  0  0  0
  -26.7980  -26.7474   20.5544 C   0  0  0  0  0  0  0  0  0  0  0  0
  -21.7625   -6.8943   24.0919 C   0  0  0  0  0  0  0  0  0  0  0  0
  -21.9974   -4.1956   23.4253 C   0  0  0  0  0  0  0  0  0  0  0  0
  -31.6594  -19.6917   21.4842 C   0  0  0  0  0  0  0  0  0  0  0  0
  -20.6354   -6.1721   23.6997 C   0  0  0  0  0  0  0  0  0  0  0  0
  -24.5985  -11.9146   21.4199 C   0  0  0  0  0  0  0  0  0  0  0  0
  -25.2410  -13.6602   20.2473 C   0  0  0  0  0  0  0  0  0  0  0  0
  -27.7969  -24.8030   21.3862 C   0  0  0  0  0  0  0  0  0  1  0  0
  -22.8541  -13.7535   20.9838 C   0  0  0  0  0  0  0  0  0  0  0  0
  -28.7527  -23.8685   21.4353 C   0  0  0  0  0  0  0  0  0  0  0  0
  -28.6211  -22.7670   22.4199 C   0  0  0  0  0  0  0  0  0  0  0  0
  -29.7128  -21.7409   22.4428 C   0  0  0  0  0  0  0  0  0  0  0  0
  -24.6891  -31.7329   20.1528 C   0  0  0  0  0  0  0  0  0  0  0  0
  -24.5768  -31.8345   23.3930 C   0  0  0  0  0  0  0  0  0  0  0  0
  -25.2119  -30.2802   26.3641 C   0  0  0  0  0  0  0  0  0  0  0  0
  -30.6808  -14.8315   20.0474 C   0  0  0  0  0  0  0  0  0  0  0  0
  -22.5246  -34.2219   16.2569 C   0  0  0  0  0  0  0  0  0  0  0  0
  -23.5375  -29.5542   20.6850 C   0  0  0  0  0  0  0  0  0  0  0  0
  -25.9328  -29.9697   22.3687 C   0  0  0  0  0  0  0  0  0  0  0  0
  -22.8453  -34.5430   17.7144 C   0  0  0  0  0  0  0  0  0  0  0  0
  -29.6923  -11.5491   19.0852 C   0  0  0  0  0  0  0  0  0  0  0  0
  -24.2891  -34.1719   18.0376 C   0  0  0  0  0  0  0  0  0  0  0  0
  -28.2418  -11.4524   19.5636 C   0  0  0  0  0  0  0  0  0  0  0  0
  -30.5578  -12.3497   20.0567 C   0  0  0  0  0  0  0  0  0  0  0  0
  -28.5895  -13.5842   20.8758 C   0  0  0  0  0  0  0  0  0  0  0  0
  -24.5268  -32.6683   17.8528 C   0  0  1  0  0  0  0  0  0  0  0  0
  -23.9380  -30.9392   21.1840 C   0  0  1  0  0  0  0  0  0  0  0  0
  -27.6646  -12.8421   19.8972 C   0  0  2  0  0  0  0  0  0  0  0  0
  -27.8233  -18.2576   19.2946 C   0  0  0  0  0  0  0  0  0  0  0  0
  -25.0480  -30.6282   28.8439 C   0  0  0  0  0  0  0  0  0  0  0  0
  -27.0182  -33.6620   23.2955 C   0  0  0  0  0  0  0  0  0  0  0  0
  -27.3714  -33.2042   25.7315 C   0  0  0  0  0  0  0  0  0  0  0  0
  -25.2812  -34.3301   24.9661 C   0  0  0  0  0  0  0  0  0  0  0  0
  -23.3735  -27.9828   26.6820 C   0  0  0  0  0  0  0  0  0  0  0  0
  -28.2344  -18.2443   20.7622 C   0  0  0  0  0  0  0  0  0  0  0  0
  -25.6050  -31.8667   24.4979 C   0  0  1  0  0  0  0  0  0  0  0  0
  -24.3560  -30.0865   27.6028 C   0  0  2  0  0  0  0  0  0  0  0  0
  -26.3179  -33.2444   24.6040 C   0  0  0  0  0  0  0  0  0  0  0  0
  -25.8796  -11.6706   21.1312 N   0  0  0  0  0  0  0  0  0  0  0  0
  -26.2423  -12.7500   20.4174 N   0  0  0  0  0  0  0  0  0  0  0  0
  -24.7812  -30.8870   22.3800 N   0  0  0  0  0  0  0  0  0  0  0  0
  -29.9509  -13.6558   20.3226 N   0  0  0  0  0  0  0  0  0  0  0  0
  -25.4345  -14.8028   19.5549 N   0  0  0  0  0  0  0  0  0  0  0  0
  -21.8435  -13.0831   21.6863 N   0  0  0  0  0  0  0  0  0  0  0  0
  -29.4638  -20.7117   21.5603 N   0  0  0  0  0  0  0  0  0  0  0  0
  -29.9894  -16.0139   20.3094 N   0  0  0  0  0  0  0  0  0  0  0  0
  -23.9912  -31.9300   18.9765 N   0  0  0  0  0  0  0  0  0  0  0  0
  -24.9103  -31.4582   25.7140 N   0  0  0  0  0  0  0  0  0  0  0  0
  -24.0737  -28.6388   27.8162 N   0  3  0  0  0  0  0  0  0  0  0  0
  -22.5978  -14.8556   20.4422 O   0  0  0  0  0  0  0  0  0  0  0  0
  -27.6929  -22.6189   23.1993 O   0  0  0  0  0  0  0  0  0  0  0  0
  -30.6472  -21.9493   23.1982 O   0  0  0  0  0  0  0  0  0  0  0  0
  -25.8176  -32.1379   20.4060 O   0  0  0  0  0  0  0  0  0  0  0  0
  -23.6234  -32.6163   23.4312 O   0  0  0  0  0  0  0  0  0  0  0  0
  -26.0655  -29.4696   26.0109 O   0  0  0  0  0  0  0  0  0  0  0  0
  -31.8242  -14.7926   19.5858 O   0  0  0  0  0  0  0  0  0  0  0  0
  -29.8574  -23.8776   20.6129 O   0  0  0  0  0  0  0  0  0  0  0  0
  -21.6477   -8.2342   24.4223 O   0  0  0  0  0  0  0  0  0  0  0  0
  -27.8256  -25.8561   20.5157 O   0  0  0  0  0  0  0  0  0  1  0  0
  -22.1106   -2.9002   23.1038 F   0  0  0  0  0  0  0  0  0  0  0  0
  -32.2104  -20.8550   21.8593 F   0  0  0  0  0  0  0  0  0  0  0  0
  -19.4373   -6.7695   23.6402 F   0  0  0  0  0  0  0  0  0  0  0  0
  1  2  1  0  0  0  0
  1  5  2  0  0  0  0
  2  6  2  0  0  0  0
  3  9  2  0  0  0  0
  3 17  1  0  0  0  0
  4 10  1  0  0  0  0
  4 17  2  0  0  0  0
  5 19  1  0  0  0  0
  6 21  1  0  0  0  0
  7 11  2  0  0  0  0
  7 20  1  0  0  0  0
  8 13  1  0  0  0  0
  8 24  2  0  0  0  0
  9 26  1  0  0  0  0
 10 26  2  0  0  0  0
 11 27  1  0  0  0  0
 12 14  2  0  0  0  0
 12 28  1  0  0  0  0
 13 30  2  0  0  0  0
 14 29  1  0  0  0  0
 15 22  1  0  0  0  0
 15 27  2  0  0  0  0
 16 29  2  0  0  0  0
 16 31  1  0  0  0  0
 17 32  1  0  0  0  0
 18 32  1  0  0  0  0
 18 33  2  0  0  0  0
 18 35  1  0  0  0  0
 19 21  2  0  0  0  0
 19 43  1  0  0  0  0
 20 22  2  0  0  0  0
 20 44  1  0  0  0  0
 21 52  1  0  0  0  0
 22 45  1  0  0  0  0
 23 24  1  0  0  0  0
 23 25  2  0  0  0  0
 23 61  1  0  0  0  0
 24 72  1  0  0  0  0
 25 30  1  0  0  0  0
 25 71  1  0  0  0  0
 26 84  1  0  0  0  0
 27 85  1  0  0  0  0
 28 31  2  0  0  0  0
 28 84  1  0  0  0  0
 29 86  1  0  0  0  0
 30 87  1  0  0  0  0
 31 88  1  0  0  0  0
 32 65  2  0  0  0  0
 33 66  1  0  0  0  0
 33 69  1  0  0  0  0
 34 36  2  0  0  0  0
 34 85  1  0  0  0  0
 35 70  1  0  0  0  0
 35 76  2  0  0  0  0
 36 37  1  0  0  0  0
 36 83  1  0  0  0  0
 37 38  1  0  0  0  0
 37 77  2  0  0  0  0
 38 71  1  0  0  0  0
 38 78  2  0  0  0  0
 39 53  1  0  0  0  0
 39 73  1  0  0  0  0
 39 79  2  0  0  0  0
 40 62  1  0  0  0  0
 40 67  1  0  0  0  0
 40 80  2  0  0  0  0
 41 63  1  0  0  0  0
 41 74  1  0  0  0  0
 41 81  2  0  0  0  0
 42 68  1  0  0  0  0
 42 72  1  0  0  0  0
 42 82  2  0  0  0  0
 43 46  1  0  0  0  0
 44 53  1  0  0  0  0
 45 67  1  0  0  0  0
 46 48  1  0  0  0  0
 47 49  1  0  0  0  0
 47 50  1  0  0  0  0
 48 52  1  0  0  0  0
 49 54  1  0  0  0  0
 50 68  1  0  0  0  0
 51 54  1  0  0  0  0
 51 68  1  0  0  0  0
 52 73  1  0  0  0  0
 53 67  1  0  0  0  0
 54 66  1  0  0  0  0
 55 61  1  0  0  0  0
 56 63  1  0  0  0  0
 57 64  1  0  0  0  0
 58 64  1  0  0  0  0
 59 64  1  0  0  0  0
 60 75  1  0  0  0  0
 62 64  1  0  0  0  0
 62 74  1  0  0  0  0
 63 75  1  0  0  0  0
 65 66  1  0  0  0  0
M  CHG  1  75   1
M  ISO  4  34 101  42 100  72 100  85 101
M  END
> <Batch ID>
0175

> <Smiles>
CCc1c([100NH:0][100C:0](=O)N2CCCC(n3nc(-c4ccc(Oc5ccc(F)cc5F)cc4)c(C(N)=O)c3N)C2)ccc(F)c1NC(=O)C(=O)C(=O)[101CH2:1][101O:1]c1ccc2c(c1)CN(C(=O)C(NC(=O)C(C)NC)C(C)(C)C)C(C(=O)NC1CCCc3ccccc31)C2

> <Shape>
0.318

> <Color>
0.177

> <Negative vol penalty>
0.000

$$$$

  -OEChem-04052304353D

 85 93  0     1  0  0  0  0  0999 V2000
  -22.6827  -21.7716   16.9522 C   0  0  0  0  0  0  0  0  0  0  0  0
  -23.9356  -21.1670   16.9407 C   0  0  0  0  0  0  0  0  0  0  0  0
  -25.9843  -28.2219   19.2681 C   0  0  0  0  0  0  0  0  0  0  0  0
  -25.8872  -26.8122   21.2278 C   0  0  0  0  0  0  0  0  0  0  0  0
  -21.8363  -21.5982   18.0464 C   0  0  0  0  0  0  0  0  0  0  0  0
  -24.3432  -20.3894   18.0240 C   0  0  0  0  0  0  0  0  0  0  0  0
  -28.2897  -14.6175   19.5819 C   0  0  0  0  0  0  0  0  0  0  0  0
  -24.8046  -28.8526   19.6632 C   0  0  0  0  0  0  0  0  0  0  0  0
  -24.7075  -27.4429   21.6230 C   0  0  0  0  0  0  0  0  0  0  0  0
  -29.3283  -14.2176   20.4217 C   0  0  0  0  0  0  0  0  0  0  0  0
  -21.4259  -27.3179   20.8192 C   0  0  0  0  0  0  0  0  0  0  0  0
  -20.3774  -26.5120   21.2627 C   0  0  0  0  0  0  0  0  0  0  0  0
  -27.7506  -13.9231   22.2227 C   0  0  0  0  0  0  0  0  0  0  0  0
  -20.4265  -27.6272   23.4054 C   0  0  0  0  0  0  0  0  0  0  0  0
  -29.7794  -18.2452   21.9081 C   0  0  0  0  0  0  0  0  0  0  0  0
  -30.3118  -18.3621   19.2344 C   0  0  0  0  0  0  0  0  0  0  0  0
  -26.5256  -27.2017   20.0503 C   0  0  0  0  0  0  0  0  0  0  0  0
  -29.0601  -26.9217   19.9755 C   0  0  0  0  0  0  0  0  0  0  0  0
  -22.2299  -20.8101   19.1395 C   0  0  0  0  0  0  0  0  0  0  0  0
  -26.9732  -14.6839   20.0601 C   0  0  0  0  0  0  0  0  0  0  0  0
  -23.5018  -20.2063   19.1345 C   0  0  0  0  0  0  0  0  0  0  0  0
  -26.6968  -14.3218   21.3862 C   0  0  0  0  0  0  0  0  0  0  0  0
  -29.3849  -19.2487   19.7582 C   0  0  0  0  0  0  0  0  0  0  0  0
  -24.1662  -28.4631   20.8407 C   0  0  0  0  0  0  0  0  0  0  0  0
  -29.0593  -13.8731   21.7431 C   0  0  0  0  0  0  0  0  0  0  0  0
  -21.9748  -28.2785   21.6688 C   0  0  0  0  0  0  0  0  0  0  0  0
  -19.8777  -26.6666   22.5558 C   0  0  0  0  0  0  0  0  0  0  0  0
  -21.4751  -28.4331   22.9619 C   0  0  0  0  0  0  0  0  0  0  0  0
  -29.1193  -19.1827   21.1215 C   0  0  0  0  0  0  0  0  0  0  0  0
  -27.7440  -26.5495   19.6424 C   0  0  0  0  0  0  0  0  0  0  0  0
  -30.6885  -17.4033   21.2879 C   0  0  0  0  0  0  0  0  0  0  0  0
  -29.8499  -25.9908   19.3461 C   0  0  0  0  0  0  0  0  0  0  0  0
  -29.5271  -28.0113   20.7820 C   0  0  0  0  0  0  0  0  0  0  0  0
  -32.0416  -15.1349   23.9674 C   0  0  0  0  0  0  0  0  0  0  0  0
  -31.1980  -16.2655   23.4531 C   0  0  0  0  0  0  0  0  0  0  0  0
  -24.8292  -17.0038   20.4132 C   0  0  0  0  0  0  0  0  0  0  0  0
  -22.8814  -14.5457   21.2416 C   0  0  0  0  0  0  0  0  0  0  0  0
  -22.5807  -11.3653   22.4420 C   0  0  0  0  0  0  0  0  0  0  0  0
  -28.8975  -20.3701   17.5557 C   0  0  0  0  0  0  0  0  0  0  0  0
  -21.2995  -20.6904   20.3204 C   0  0  0  0  0  0  0  0  0  0  0  0
  -25.8602  -15.0916   19.1341 C   0  0  0  0  0  0  0  0  0  0  0  0
  -25.2976  -14.3566   21.9426 C   0  0  0  0  0  0  0  0  0  0  0  0
  -21.6570  -19.5447   21.2638 C   0  0  0  0  0  0  0  0  0  0  0  0
  -29.9177  -23.1088   15.5220 C   0  0  0  0  0  0  0  0  0  0  0  0
  -23.1532  -19.5448   21.5607 C   0  0  0  0  0  0  0  0  0  0  0  0
  -29.6015  -24.3355   16.3806 C   0  0  0  0  0  0  0  0  0  0  0  0
  -28.8675  -22.0123   15.6909 C   0  0  0  0  0  0  0  0  0  0  0  0
  -28.2885  -22.8396   17.9380 C   0  0  0  0  0  0  0  0  0  0  0  0
  -23.9699  -19.3351   20.2799 C   0  0  1  0  0  0  0  0  0  0  0  0
  -24.6319  -15.6165   19.8710 C   0  0  1  0  0  0  0  0  0  0  0  0
  -29.3531  -23.9455   17.8509 C   0  0  2  0  0  0  0  0  0  0  0  0
  -20.8592   -9.6416   23.0444 C   0  0  0  0  0  0  0  0  0  0  0  0
  -22.2567  -16.0706   23.8096 C   0  0  0  0  0  0  0  0  0  0  0  0
  -21.3329  -13.9479   24.7629 C   0  0  0  0  0  0  0  0  0  0  0  0
  -20.2809  -14.9681   22.7442 C   0  0  0  0  0  0  0  0  0  0  0  0
  -23.6207   -9.4564   20.4337 C   0  0  0  0  0  0  0  0  0  0  0  0
  -31.2990  -13.9667   24.5780 C   0  0  0  0  0  0  0  0  0  0  0  0
  -29.9252  -13.7684   23.9556 C   0  0  0  0  0  0  0  0  0  1  0  0
  -22.5357  -13.8440   22.5328 C   0  0  1  0  0  0  0  0  0  0  0  0
  -21.7736  -10.1762   21.9531 C   0  0  2  0  0  0  0  0  0  0  0  0
  -21.6283  -14.7087   23.4527 C   0  0  0  0  0  0  0  0  0  0  0  0
  -30.9728  -17.4378   19.9667 N   0  0  0  0  0  0  0  0  0  0  0  0
  -27.6962  -25.4668   18.8617 N   0  0  0  0  0  0  0  0  0  0  0  0
  -28.9922  -25.1506   18.6991 N   0  0  0  0  0  0  0  0  0  0  0  0
  -24.2444  -14.7680   20.9997 N   0  0  0  0  0  0  0  0  0  0  0  0
  -28.6886  -21.6920   17.1087 N   0  0  0  0  0  0  0  0  0  0  0  0
  -31.1874  -25.8173   19.2884 N   0  0  0  0  0  0  0  0  0  0  0  0
  -28.5808  -28.8727   21.3538 N   0  0  0  0  0  0  0  0  0  0  0  0
  -28.7299  -20.1924   18.9286 N   0  0  0  0  0  0  0  0  0  0  0  0
  -31.3534  -16.4523   22.0965 N   0  0  0  0  0  0  0  0  0  0  0  0
  -23.9556  -17.9403   19.8941 N   0  0  0  0  0  0  0  0  0  0  0  0
  -21.9543  -12.5599   22.1565 N   0  0  0  0  0  0  0  0  0  0  0  0
  -22.6815   -9.0765   21.5202 N   0  3  0  0  0  0  0  0  0  0  0  0
  -30.7479  -28.2247   20.9759 O   0  0  0  0  0  0  0  0  0  0  0  0
  -33.2526  -15.2393   23.8440 O   0  0  0  0  0  0  0  0  0  0  0  0
  -30.4907  -16.8339   24.2683 O   0  0  0  0  0  0  0  0  0  0  0  0
  -25.7078  -17.2092   21.2424 O   0  0  0  0  0  0  0  0  0  0  0  0
  -21.9759  -14.8779   20.4726 O   0  0  0  0  0  0  0  0  0  0  0  0
  -23.6573  -11.2460   23.0227 O   0  0  0  0  0  0  0  0  0  0  0  0
  -29.2291  -19.4682   16.7819 O   0  0  0  0  0  0  0  0  0  0  0  0
  -23.0152  -29.0784   21.2267 O   0  0  0  0  0  0  0  0  0  0  0  0
  -30.0712  -13.4830   22.5650 O   0  0  0  0  0  0  0  0  0  1  0  0
  -18.8698  -25.8937   22.9811 F   0  0  0  0  0  0  0  0  0  0  0  0
  -21.9975  -29.3550   23.7822 F   0  0  0  0  0  0  0  0  0  0  0  0
  -28.2321  -20.0145   21.6850 F   0  0  0  0  0  0  0  0  0  0  0  0
  1  2  1  0  0  0  0
  1  5  2  0  0  0  0
  2  6  2  0  0  0  0
  3  8  2  0  0  0  0
  3 17  1  0  0  0  0
  4  9  1  0  0  0  0
  4 17  2  0  0  0  0
  5 19  1  0  0  0  0
  6 21  1  0  0  0  0
  7 10  2  0  0  0  0
  7 20  1  0  0  0  0
  8 24  1  0  0  0  0
  9 24  2  0  0  0  0
 10 25  1  0  0  0  0
 11 12  2  0  0  0  0
 11 26  1  0  0  0  0
 12 27  1  0  0  0  0
 13 22  1  0  0  0  0
 13 25  2  0  0  0  0
 14 27  2  0  0  0  0
 14 28  1  0  0  0  0
 15 29  2  0  0  0  0
 15 31  1  0  0  0  0
 16 23  2  0  0  0  0
 16 62  1  0  0  0  0
 17 30  1  0  0  0  0
 18 30  1  0  0  0  0
 18 32  2  0  0  0  0
 18 33  1  0  0  0  0
 19 21  2  0  0  0  0
 19 40  1  0  0  0  0
 20 22  2  0  0  0  0
 20 41  1  0  0  0  0
 21 49  1  0  0  0  0
 22 42  1  0  0  0  0
 23 29  1  0  0  0  0
 23 69  1  0  0  0  0
 24 81  1  0  0  0  0
 25 82  1  0  0  0  0
 26 28  2  0  0  0  0
 26 81  1  0  0  0  0
 27 83  1  0  0  0  0
 28 84  1  0  0  0  0
 29 85  1  0  0  0  0
 30 63  2  0  0  0  0
 31 62  2  0  0  0  0
 31 70  1  0  0  0  0
 32 64  1  0  0  0  0
 32 67  1  0  0  0  0
 33 68  1  0  0  0  0
 33 74  2  0  0  0  0
 34 35  1  0  0  0  0
 34 57  1  0  0  0  0
 34 75  2  0  0  0  0
 35 70  1  0  0  0  0
 35 76  2  0  0  0  0
 36 50  1  0  0  0  0
 36 71  1  0  0  0  0
 36 77  2  0  0  0  0
 37 59  1  0  0  0  0
 37 65  1  0  0  0  0
 37 78  2  0  0  0  0
 38 60  1  0  0  0  0
 38 72  1  0  0  0  0
 38 79  2  0  0  0  0
 39 66  1  0  0  0  0
 39 69  1  0  0  0  0
 39 80  2  0  0  0  0
 40 43  1  0  0  0  0
 41 50  1  0  0  0  0
 42 65  1  0  0  0  0
 43 45  1  0  0  0  0
 44 46  1  0  0  0  0
 44 47  1  0  0  0  0
 45 49  1  0  0  0  0
 46 51  1  0  0  0  0
 47 66  1  0  0  0  0
 48 51  1  0  0  0  0
 48 66  1  0  0  0  0
 49 71  1  0  0  0  0
 50 65  1  0  0  0  0
 51 64  1  0  0  0  0
 52 60  1  0  0  0  0
 53 61  1  0  0  0  0
 54 61  1  0  0  0  0
 55 61  1  0  0  0  0
 56 73  1  0  0  0  0
 57 58  1  0  0  0  0
 58 82  1  0  0  0  0
 59 61  1  0  0  0  0
 59 72  1  0  0  0  0
 60 73  1  0  0  0  0
 63 64  1  0  0  0  0
M  CHG  1  73   1
M  ISO  4  39 100  58 101  69 100  82 101
M  END
> <Batch ID>
0175

> <Smiles>
CNC(C)C(=O)NC(C(=O)N1Cc2cc([101O:1][101CH2:1]CC(=O)C(=O)Nc3cc(F)c([100NH:0][100C:0](=O)N4CCCC(n5nc(-c6ccc(Oc7ccc(F)cc7F)cc6)c(C(N)=O)c5N)C4)cn3)ccc2CC1C(=O)NC1CCCc2ccccc21)C(C)(C)C

> <Shape>
0.265

> <Color>
0.065

> <Negative vol penalty>
0.000

$$$$

  -OEChem-04052304353D

 90 98  0     1  0  0  0  0  0999 V2000
  -18.1409  -28.1326   26.0288 C   0  0  0  0  0  0  0  0  0  0  0  0
  -19.0378  -27.1069   26.3096 C   0  0  0  0  0  0  0  0  0  0  0  0
  -28.3149  -16.8860   19.3472 C   0  0  0  0  0  0  0  0  0  0  0  0
  -26.8955  -17.7479   21.1020 C   0  0  0  0  0  0  0  0  0  0  0  0
  -17.9842  -28.5806   24.7178 C   0  0  0  0  0  0  0  0  0  0  0  0
  -19.7778  -26.5277   25.2793 C   0  0  0  0  0  0  0  0  0  0  0  0
  -25.5104  -24.3986   25.6108 C   0  0  0  0  0  0  0  0  0  0  0  0
  -20.0052  -17.5657   22.7517 C   0  0  0  0  0  0  0  0  0  0  0  0
  -28.9666  -18.1167   19.2698 C   0  0  0  0  0  0  0  0  0  0  0  0
  -27.5473  -18.9786   21.0247 C   0  0  0  0  0  0  0  0  0  0  0  0
  -26.0257  -23.1134   25.7735 C   0  0  0  0  0  0  0  0  0  0  0  0
  -30.4534  -20.3281   22.0989 C   0  0  0  0  0  0  0  0  0  0  0  0
  -20.6489  -18.7956   22.6150 C   0  0  0  0  0  0  0  0  0  0  0  0
  -30.8203  -20.9417   23.2966 C   0  0  0  0  0  0  0  0  0  0  0  0
  -26.2862  -22.9217   23.3830 C   0  0  0  0  0  0  0  0  0  0  0  0
  -29.4458  -22.8492   22.7403 C   0  0  0  0  0  0  0  0  0  0  0  0
  -27.2792  -16.7015   20.2632 C   0  0  0  0  0  0  0  0  0  0  0  0
  -27.1789  -14.1818   20.6484 C   0  0  0  0  0  0  0  0  0  0  0  0
  -18.7297  -28.0132   23.6723 C   0  0  0  0  0  0  0  0  0  0  0  0
  -25.3687  -24.9517   24.3300 C   0  0  0  0  0  0  0  0  0  0  0  0
  -19.6299  -26.9676   23.9529 C   0  0  0  0  0  0  0  0  0  0  0  0
  -25.7712  -24.2150   23.2069 C   0  0  0  0  0  0  0  0  0  0  0  0
  -20.6270  -16.5262   23.4436 C   0  0  0  0  0  0  0  0  0  0  0  0
  -22.5360  -17.9466   23.8619 C   0  0  0  0  0  0  0  0  0  0  0  0
  -28.5829  -19.1631   20.1086 C   0  0  0  0  0  0  0  0  0  0  0  0
  -26.4110  -22.3736   24.6594 C   0  0  0  0  0  0  0  0  0  0  0  0
  -29.5828  -20.9750   21.2219 C   0  0  0  0  0  0  0  0  0  0  0  0
  -30.3165  -22.2023   23.6173 C   0  0  0  0  0  0  0  0  0  0  0  0
  -21.9143  -18.9860   23.1701 C   0  0  0  0  0  0  0  0  0  0  0  0
  -29.0790  -22.2355   21.5426 C   0  0  0  0  0  0  0  0  0  0  0  0
  -21.8924  -16.7167   23.9987 C   0  0  0  0  0  0  0  0  0  0  0  0
  -26.6052  -15.4306   20.3432 C   0  0  0  0  0  0  0  0  0  0  0  0
  -26.1277  -13.2993   20.5972 C   0  0  0  0  0  0  0  0  0  0  0  0
  -28.5402  -13.8492   20.9513 C   0  0  0  0  0  0  0  0  0  0  0  0
  -22.9147  -25.9707   22.5856 C   0  0  0  0  0  0  0  0  0  0  0  0
  -25.2571  -26.9202   20.5524 C   0  0  0  0  0  0  0  0  0  0  0  0
  -24.3658  -19.3279   24.9051 C   0  0  0  0  0  0  0  0  0  0  0  0
  -28.4593  -26.5318   19.4380 C   0  0  0  0  0  0  0  0  0  0  0  0
  -20.1418  -14.4699   21.1784 C   0  0  0  0  0  0  0  0  0  0  0  0
  -18.4915  -28.4985   22.2643 C   0  0  0  0  0  0  0  0  0  0  0  0
  -24.8361  -26.3496   24.1732 C   0  0  0  0  0  0  0  0  0  0  0  0
  -25.6585  -24.7711   21.8117 C   0  0  0  0  0  0  0  0  0  0  0  0
  -19.5875  -28.0872   21.2847 C   0  0  0  0  0  0  0  0  0  0  0  0
  -21.8920  -12.6208   18.4915 C   0  0  0  0  0  0  0  0  0  0  0  0
  -19.9315  -26.6112   21.4574 C   0  0  0  0  0  0  0  0  0  0  0  0
  -23.3374  -13.0890   18.6519 C   0  0  0  0  0  0  0  0  0  0  0  0
  -20.8979  -13.6759   18.9672 C   0  0  0  0  0  0  0  0  0  0  0  0
  -22.5794  -14.6092   20.5214 C   0  0  0  0  0  0  0  0  0  0  0  0
  -20.4688  -26.3311   22.8661 C   0  0  1  0  0  0  0  0  0  0  0  0
  -24.2564  -26.6162   22.7875 C   0  0  1  0  0  0  0  0  0  0  0  0
  -23.6075  -13.5508   20.0945 C   0  0  2  0  0  0  0  0  0  0  0  0
  -30.0763  -27.4263   17.7402 C   0  0  0  0  0  0  0  0  0  0  0  0
  -27.6412  -20.0440   26.8293 C   0  0  0  0  0  0  0  0  0  0  0  0
  -23.8125  -25.3648   18.3606 C   0  0  0  0  0  0  0  0  0  0  0  0
  -25.9030  -25.4924   16.9888 C   0  0  0  0  0  0  0  0  0  0  0  0
  -24.7133  -27.5849   17.6436 C   0  0  0  0  0  0  0  0  0  0  0  0
  -21.2178  -13.1916   22.9916 C   0  0  0  0  0  0  0  0  0  0  0  0
  -30.3437  -27.4308   21.5356 C   0  0  0  0  0  0  0  0  0  0  0  0
  -25.7800  -19.0925   25.4268 C   0  0  0  0  0  0  0  0  0  0  0  0
  -19.9354  -15.2127   23.5884 C   0  0  1  0  0  0  0  0  0  0  0  0
  -25.9911  -26.2854   19.3960 C   0  0  1  0  0  0  0  0  0  0  0  0
  -29.5606  -27.5407   19.1663 C   0  0  2  0  0  0  0  0  0  0  0  0
  -26.4502  -20.3681   25.9371 C   0  0  2  0  0  0  0  0  0  1  0  0
  -18.4090  -15.3453   23.6277 C   0  0  0  0  0  0  0  0  0  0  0  0
  -25.1054  -26.1704   18.1233 C   0  0  0  0  0  0  0  0  0  0  0  0
  -25.2915  -15.3525   20.1147 N   0  0  0  0  0  0  0  0  0  0  0  0
  -25.0310  -14.0440   20.2765 N   0  0  0  0  0  0  0  0  0  0  0  0
  -25.1259  -26.1399   21.7099 N   0  0  0  0  0  0  0  0  0  0  0  0
  -21.2037  -14.1284   20.3247 N   0  0  0  0  0  0  0  0  0  0  0  0
  -26.0437  -11.9666   20.7955 N   0  0  0  0  0  0  0  0  0  0  0  0
  -28.9551  -13.8860   22.2896 N   0  0  0  0  0  0  0  0  0  0  0  0
  -23.8200  -18.1405   24.4246 N   0  0  0  0  0  0  0  0  0  0  0  0
  -21.8475  -26.7573   22.9752 N   0  0  0  0  0  0  0  0  0  0  0  0
  -27.2091  -27.0660   19.2078 N   0  0  0  0  0  0  0  0  0  0  0  0
  -20.3338  -14.2620   22.5527 N   0  0  0  0  0  0  0  0  0  0  0  0
  -30.7032  -27.3237   20.0981 N   0  3  0  0  0  0  0  0  0  0  0  0
  -29.3686  -13.5449   20.0599 O   0  0  0  0  0  0  0  0  0  0  0  0
  -22.8522  -24.8430   22.1101 O   0  0  0  0  0  0  0  0  0  0  0  0
  -24.8225  -28.0687   20.4356 O   0  0  0  0  0  0  0  0  0  0  0  0
  -23.8350  -20.4332   24.9317 O   0  0  0  0  0  0  0  0  0  0  0  0
  -28.6856  -25.3835   19.8131 O   0  0  0  0  0  0  0  0  0  0  0  0
  -19.0791  -14.9252   20.7365 O   0  0  0  0  0  0  0  0  0  0  0  0
  -29.2188  -20.3641   20.0336 O   0  0  0  0  0  0  0  0  0  0  0  0
  -26.9137  -21.1186   24.8153 O   0  0  0  0  0  0  0  0  0  1  0  0
  -30.6677  -22.7908   24.7681 F   0  0  0  0  0  0  0  0  0  0  0  0
  -22.5238  -20.1721   23.0323 F   0  0  0  0  0  0  0  0  0  0  0  0
  -28.2412  -22.8614   20.7046 F   0  0  0  0  0  0  0  0  0  0  0  0
  -22.4883  -15.7157   24.6640 F   0  0  0  0  0  0  0  0  0  0  0  0
  -18.0314  -16.1061   24.6874 F   0  0  0  0  0  0  0  0  0  0  0  0
  -17.8278  -14.1318   23.7961 F   0  0  0  0  0  0  0  0  0  0  0  0
  1  2  1  0  0  0  0
  1  5  2  0  0  0  0
  2  6  2  0  0  0  0
  3  9  2  0  0  0  0
  3 17  1  0  0  0  0
  4 10  1  0  0  0  0
  4 17  2  0  0  0  0
  5 19  1  0  0  0  0
  6 21  1  0  0  0  0
  7 11  2  0  0  0  0
  7 20  1  0  0  0  0
  8 13  1  0  0  0  0
  8 23  2  0  0  0  0
  9 25  1  0  0  0  0
 10 25  2  0  0  0  0
 11 26  1  0  0  0  0
 12 14  2  0  0  0  0
 12 27  1  0  0  0  0
 13 29  2  0  0  0  0
 14 28  1  0  0  0  0
 15 22  1  0  0  0  0
 15 26  2  0  0  0  0
 16 28  2  0  0  0  0
 16 30  1  0  0  0  0
 17 32  1  0  0  0  0
 18 32  1  0  0  0  0
 18 33  2  0  0  0  0
 18 34  1  0  0  0  0
 19 21  2  0  0  0  0
 19 40  1  0  0  0  0
 20 22  2  0  0  0  0
 20 41  1  0  0  0  0
 21 49  1  0  0  0  0
 22 42  1  0  0  0  0
 23 31  1  0  0  0  0
 23 60  1  0  0  0  0
 24 29  1  0  0  0  0
 24 31  2  0  0  0  0
 24 72  1  0  0  0  0
 25 83  1  0  0  0  0
 26 84  1  0  0  0  0
 27 30  2  0  0  0  0
 27 83  1  0  0  0  0
 28 85  1  0  0  0  0
 29 86  1  0  0  0  0
 30 87  1  0  0  0  0
 31 88  1  0  0  0  0
 32 66  2  0  0  0  0
 33 67  1  0  0  0  0
 33 70  1  0  0  0  0
 34 71  1  0  0  0  0
 34 77  2  0  0  0  0
 35 50  1  0  0  0  0
 35 73  1  0  0  0  0
 35 78  2  0  0  0  0
 36 61  1  0  0  0  0
 36 68  1  0  0  0  0
 36 79  2  0  0  0  0
 37 59  1  0  0  0  0
 37 72  1  0  0  0  0
 37 80  2  0  0  0  0
 38 62  1  0  0  0  0
 38 74  1  0  0  0  0
 38 81  2  0  0  0  0
 39 69  1  0  0  0  0
 39 75  1  0  0  0  0
 39 82  2  0  0  0  0
 40 43  1  0  0  0  0
 41 50  1  0  0  0  0
 42 68  1  0  0  0  0
 43 45  1  0  0  0  0
 44 46  1  0  0  0  0
 44 47  1  0  0  0  0
 45 49  1  0  0  0  0
 46 51  1  0  0  0  0
 47 69  1  0  0  0  0
 48 51  1  0  0  0  0
 48 69  1  0  0  0  0
 49 73  1  0  0  0  0
 50 68  1  0  0  0  0
 51 67  1  0  0  0  0
 52 62  1  0  0  0  0
 53 63  1  0  0  0  0
 54 65  1  0  0  0  0
 55 65  1  0  0  0  0
 56 65  1  0  0  0  0
 57 75  1  0  0  0  0
 58 76  1  0  0  0  0
 59 63  1  0  0  0  0
 60 64  1  0  0  0  0
 60 75  1  0  0  0  0
 61 65  1  0  0  0  0
 61 74  1  0  0  0  0
 62 76  1  0  0  0  0
 63 84  1  0  0  0  0
 64 89  1  0  0  0  0
 64 90  1  0  0  0  0
 66 67  1  0  0  0  0
M  CHG  1  76   1
M  ISO  4  39 100  63 101  75 100  84 101
M  END
> <Batch ID>
0175

> <Smiles>
CNC(C)C(=O)NC(C(=O)N1Cc2cc([101O:1][101CH:1](C)CC(=O)Nc3c(F)ccc(C(C(F)F)[100N:0](C)[100C:0](=O)N4CCCC(n5nc(-c6ccc(Oc7ccc(F)cc7F)cc6)c(C(N)=O)c5N)C4)c3F)ccc2CC1C(=O)NC1CCCc2ccccc21)C(C)(C)C

> <Shape>
0.187

> <Color>
0.075

> <Negative vol penalty>
0.000

$$$$

  -OEChem-04052304353D

 89 97  0     1  0  0  0  0  0999 V2000
  -25.3865  -37.3139   24.3193 C   0  0  0  0  0  0  0  0  0  0  0  0
  -26.2430  -36.3225   23.8515 C   0  0  0  0  0  0  0  0  0  0  0  0
  -24.6482   -8.1892   21.2470 C   0  0  0  0  0  0  0  0  0  0  0  0
  -24.5800   -9.5459   23.2449 C   0  0  0  0  0  0  0  0  0  0  0  0
  -24.1435  -36.9674   24.8475 C   0  0  0  0  0  0  0  0  0  0  0  0
  -25.8575  -34.9838   23.9126 C   0  0  0  0  0  0  0  0  0  0  0  0
  -27.2153  -30.5742   19.8854 C   0  0  0  0  0  0  0  0  0  0  0  0
  -24.6414   -7.0352   22.0304 C   0  0  0  0  0  0  0  0  0  0  0  0
  -24.5731   -8.3919   24.0283 C   0  0  0  0  0  0  0  0  0  0  0  0
  -28.1902  -29.5776   19.8790 C   0  0  0  0  0  0  0  0  0  0  0  0
  -22.3754   -5.1993   23.7415 C   0  0  0  0  0  0  0  0  0  0  0  0
  -21.5224   -4.1631   23.3618 C   0  0  0  0  0  0  0  0  0  0  0  0
  -26.5882  -28.0131   20.7764 C   0  0  0  0  0  0  0  0  0  0  0  0
  -23.4216   -2.6901   23.1152 C   0  0  0  0  0  0  0  0  0  0  0  0
  -24.5568  -20.4625   19.4471 C   0  0  0  0  0  0  0  0  0  0  0  0
  -24.6175   -9.4446   21.8542 C   0  0  0  0  0  0  0  0  0  0  0  0
  -25.8171  -20.7130   18.9506 C   0  0  0  0  0  0  0  0  0  0  0  0
  -23.5079  -11.3276   20.5387 C   0  0  0  0  0  0  0  0  0  0  0  0
  -23.7386  -35.6245   24.9062 C   0  0  0  0  0  0  0  0  0  0  0  0
  -25.9203  -30.3002   20.3484 C   0  0  0  0  0  0  0  0  0  0  0  0
  -24.6086  -34.6189   24.4433 C   0  0  0  0  0  0  0  0  0  0  0  0
  -25.5980  -29.0074   20.7853 C   0  0  0  0  0  0  0  0  0  0  0  0
  -24.6039   -7.1365   23.4211 C   0  0  0  0  0  0  0  0  0  0  0  0
  -27.8775  -28.2976   20.3272 C   0  0  0  0  0  0  0  0  0  0  0  0
  -23.7515   -4.9810   23.8079 C   0  0  0  0  0  0  0  0  0  0  0  0
  -22.0455   -2.9085   23.0487 C   0  0  0  0  0  0  0  0  0  0  0  0
  -24.2746   -3.7264   23.4948 C   0  0  0  0  0  0  0  0  0  0  0  0
  -26.6414  -19.5510   18.9718 C   0  0  0  0  0  0  0  0  0  0  0  0
  -24.6251  -10.6371   21.0455 C   0  0  0  0  0  0  0  0  0  0  0  0
  -24.0437  -12.3827   19.8415 C   0  0  0  0  0  0  0  0  0  0  0  0
  -25.9797  -18.4566   19.4839 C   0  0  0  0  0  0  0  0  0  0  0  0
  -26.2262  -22.0441   18.4642 C   0  0  0  0  0  0  0  0  0  0  0  0
  -22.1107  -11.0409   20.6851 C   0  0  0  0  0  0  0  0  0  0  0  0
  -29.4606  -25.1681   19.4785 C   0  0  0  0  0  0  0  0  0  0  0  0
  -29.1543  -23.7223   19.2179 C   0  0  0  0  0  0  0  0  0  0  0  0
  -24.1125  -31.3841   22.7277 C   0  0  0  0  0  0  0  0  0  0  0  0
  -21.8486  -29.5238   21.3364 C   0  0  0  0  0  0  0  0  0  0  0  0
  -21.1181  -26.8477   19.3484 C   0  0  0  0  0  0  0  0  0  0  0  0
  -27.6662  -16.5874   19.3932 C   0  0  0  0  0  0  0  0  0  0  0  0
  -22.4052  -35.2950   25.5291 C   0  0  0  0  0  0  0  0  0  0  0  0
  -24.8727  -31.3792   20.3239 C   0  0  0  0  0  0  0  0  0  0  0  0
  -24.2169  -28.6565   21.2733 C   0  0  0  0  0  0  0  0  0  0  0  0
  -21.9178  -33.8832   25.2136 C   0  0  0  0  0  0  0  0  0  0  0  0
  -28.8238  -13.3457   18.4831 C   0  0  0  0  0  0  0  0  0  0  0  0
  -23.0426  -32.8727   25.4150 C   0  0  0  0  0  0  0  0  0  0  0  0
  -27.7427  -12.4088   19.0269 C   0  0  0  0  0  0  0  0  0  0  0  0
  -29.0649  -14.5336   19.4129 C   0  0  0  0  0  0  0  0  0  0  0  0
  -26.7804  -14.3568   20.3178 C   0  0  0  0  0  0  0  0  0  0  0  0
  -24.2160  -33.1576   24.4698 C   0  0  1  0  0  0  0  0  0  0  0  0
  -23.7278  -31.1227   21.2989 C   0  0  1  0  0  0  0  0  0  0  0  0
  -26.4565  -13.1795   19.3836 C   0  0  2  0  0  0  0  0  0  0  0  0
  -19.1782  -25.5507   18.4254 C   0  0  0  0  0  0  0  0  0  0  0  0
  -26.8272  -22.9947   15.6108 C   0  0  0  0  0  0  0  0  0  0  0  0
  -29.1759  -22.1721   15.9064 C   0  0  0  0  0  0  0  0  0  0  0  0
  -21.4390  -28.2047   24.0571 C   0  0  0  0  0  0  0  0  0  0  0  0
  -20.2352  -26.3423   22.8951 C   0  0  0  0  0  0  0  0  0  0  0  0
  -19.3308  -28.6648   22.7929 C   0  0  0  0  0  0  0  0  0  0  0  0
  -21.8871  -27.4604   16.5570 C   0  0  0  0  0  0  0  0  0  0  0  0
  -28.3794  -25.9802   20.1427 C   0  0  0  0  0  0  0  0  0  1  0  0
  -27.6511  -22.2356   17.9267 C   0  0  1  0  0  0  0  0  0  0  0  0
  -21.4112  -28.0859   21.4781 C   0  0  1  0  0  0  0  0  0  0  0  0
  -20.1562  -26.6902   18.1847 C   0  0  2  0  0  0  0  0  0  0  0  0
  -27.7310  -22.0398   16.3981 C   0  0  0  0  0  0  0  0  0  0  0  0
  -20.6307  -27.8312   22.7985 C   0  0  0  0  0  0  0  0  0  0  0  0
  -25.7831  -11.2056   20.6996 N   0  0  0  0  0  0  0  0  0  0  0  0
  -25.3965  -12.2645   19.9679 N   0  0  0  0  0  0  0  0  0  0  0  0
  -23.2290  -29.7474   21.2358 N   0  0  0  0  0  0  0  0  0  0  0  0
  -27.8030  -15.2178   19.7034 N   0  0  0  0  0  0  0  0  0  0  0  0
  -23.4849  -13.3908   19.1387 N   0  0  0  0  0  0  0  0  0  0  0  0
  -21.7340   -9.9178   21.4340 N   0  0  0  0  0  0  0  0  0  0  0  0
  -26.4115  -17.1219   19.6839 N   0  0  0  0  0  0  0  0  0  0  0  0
  -28.1009  -23.5408   18.3517 N   0  0  0  0  0  0  0  0  0  0  0  0
  -23.9140  -32.6899   23.1339 N   0  0  0  0  0  0  0  0  0  0  0  0
  -20.6601  -27.7665   20.2689 N   0  0  0  0  0  0  0  0  0  0  0  0
  -20.9056  -26.4087   16.9277 N   0  3  0  0  0  0  0  0  0  0  0  0
  -25.4475  -23.0018   18.4622 O   0  0  0  0  0  0  0  0  0  0  0  0
  -21.2231  -11.7502   20.1534 O   0  0  0  0  0  0  0  0  0  0  0  0
  -30.5655  -25.5780   19.1557 O   0  0  0  0  0  0  0  0  0  0  0  0
  -29.8613  -22.8850   19.7561 O   0  0  0  0  0  0  0  0  0  0  0  0
  -24.5553  -30.4686   23.4113 O   0  0  0  0  0  0  0  0  0  0  0  0
  -20.9963  -30.4151   21.3084 O   0  0  0  0  0  0  0  0  0  0  0  0
  -22.1688  -26.2159   19.4344 O   0  0  0  0  0  0  0  0  0  0  0  0
  -28.5849  -17.2316   18.8804 O   0  0  0  0  0  0  0  0  0  0  0  0
  -24.5970   -6.0106   24.1858 O   0  0  0  0  0  0  0  0  0  0  0  0
  -28.8274  -27.3231   20.3226 O   0  0  0  0  0  0  0  0  0  1  0  0
  -21.2261   -1.9130   22.6856 F   0  0  0  0  0  0  0  0  0  0  0  0
  -25.5956   -3.5103   23.5580 F   0  0  0  0  0  0  0  0  0  0  0  0
  -27.9062  -19.5243   18.5453 F   0  0  0  0  0  0  0  0  0  0  0  0
  -24.3713  -18.8319   19.9361 S   0  0  0  0  0  0  0  0  0  0  0  0
  1  2  1  0  0  0  0
  1  5  2  0  0  0  0
  2  6  2  0  0  0  0
  3  8  2  0  0  0  0
  3 16  1  0  0  0  0
  4  9  1  0  0  0  0
  4 16  2  0  0  0  0
  5 19  1  0  0  0  0
  6 21  1  0  0  0  0
  7 10  2  0  0  0  0
  7 20  1  0  0  0  0
  8 23  1  0  0  0  0
  9 23  2  0  0  0  0
 10 24  1  0  0  0  0
 11 12  2  0  0  0  0
 11 25  1  0  0  0  0
 12 26  1  0  0  0  0
 13 22  1  0  0  0  0
 13 24  2  0  0  0  0
 14 26  2  0  0  0  0
 14 27  1  0  0  0  0
 15 17  2  0  0  0  0
 15 89  1  0  0  0  0
 16 29  1  0  0  0  0
 17 28  1  0  0  0  0
 17 32  1  0  0  0  0
 18 29  1  0  0  0  0
 18 30  2  0  0  0  0
 18 33  1  0  0  0  0
 19 21  2  0  0  0  0
 19 40  1  0  0  0  0
 20 22  2  0  0  0  0
 20 41  1  0  0  0  0
 21 49  1  0  0  0  0
 22 42  1  0  0  0  0
 23 84  1  0  0  0  0
 24 85  1  0  0  0  0
 25 27  2  0  0  0  0
 25 84  1  0  0  0  0
 26 86  1  0  0  0  0
 27 87  1  0  0  0  0
 28 31  2  0  0  0  0
 28 88  1  0  0  0  0
 29 65  2  0  0  0  0
 30 66  1  0  0  0  0
 30 69  1  0  0  0  0
 31 71  1  0  0  0  0
 31 89  1  0  0  0  0
 32 60  1  0  0  0  0
 32 76  2  0  0  0  0
 33 70  1  0  0  0  0
 33 77  2  0  0  0  0
 34 35  1  0  0  0  0
 34 59  1  0  0  0  0
 34 78  2  0  0  0  0
 35 72  1  0  0  0  0
 35 79  2  0  0  0  0
 36 50  1  0  0  0  0
 36 73  1  0  0  0  0
 36 80  2  0  0  0  0
 37 61  1  0  0  0  0
 37 67  1  0  0  0  0
 37 81  2  0  0  0  0
 38 62  1  0  0  0  0
 38 74  1  0  0  0  0
 38 82  2  0  0  0  0
 39 68  1  0  0  0  0
 39 71  1  0  0  0  0
 39 83  2  0  0  0  0
 40 43  1  0  0  0  0
 41 50  1  0  0  0  0
 42 67  1  0  0  0  0
 43 45  1  0  0  0  0
 44 46  1  0  0  0  0
 44 47  1  0  0  0  0
 45 49  1  0  0  0  0
 46 51  1  0  0  0  0
 47 68  1  0  0  0  0
 48 51  1  0  0  0  0
 48 68  1  0  0  0  0
 49 73  1  0  0  0  0
 50 67  1  0  0  0  0
 51 66  1  0  0  0  0
 52 62  1  0  0  0  0
 53 63  1  0  0  0  0
 54 63  1  0  0  0  0
 55 64  1  0  0  0  0
 56 64  1  0  0  0  0
 57 64  1  0  0  0  0
 58 75  1  0  0  0  0
 59 85  1  0  0  0  0
 60 63  1  0  0  0  0
 60 72  1  0  0  0  0
 61 64  1  0  0  0  0
 61 74  1  0  0  0  0
 62 75  1  0  0  0  0
 65 66  1  0  0  0  0
M  CHG  1  75   1
M  ISO  4  39 100  59 101  71 100  85 101
M  END
> <Batch ID>
0175

> <Smiles>
CNC(C)C(=O)NC(C(=O)N1Cc2cc([101O:1][101CH2:1]C(=O)C(=O)NC(C(=O)c3csc([100NH:0][100C:0](=O)N4CCCC(n5nc(-c6ccc(Oc7ccc(F)cc7F)cc6)c(C(N)=O)c5N)C4)c3F)C(C)C)ccc2CC1C(=O)NC1CCCc2ccccc21)C(C)(C)C

> <Shape>
0.306

> <Color>
0.070

> <Negative vol penalty>
0.000

$$$$

  -OEChem-04052304353D

 87 95  0     1  0  0  0  0  0999 V2000
  -24.5367  -21.0404   24.3786 C   0  0  0  0  0  0  0  0  0  0  0  0
  -25.4672  -21.7918   23.6680 C   0  0  0  0  0  0  0  0  0  0  0  0
  -24.5660  -10.6084   23.3031 C   0  0  0  0  0  0  0  0  0  0  0  0
  -24.2404  -12.3631   24.9317 C   0  0  0  0  0  0  0  0  0  0  0  0
  -23.2862  -21.5809   24.6753 C   0  0  0  0  0  0  0  0  0  0  0  0
  -25.1474  -23.0840   23.2528 C   0  0  0  0  0  0  0  0  0  0  0  0
  -28.8929  -26.3828   24.1094 C   0  0  0  0  0  0  0  0  0  0  0  0
  -24.1061   -9.6677   24.2247 C   0  0  0  0  0  0  0  0  0  0  0  0
  -23.7805  -11.4224   25.8533 C   0  0  0  0  0  0  0  0  0  0  0  0
  -29.9673  -26.3710   23.2210 C   0  0  0  0  0  0  0  0  0  0  0  0
  -25.3192   -8.0140   26.9113 C   0  0  0  0  0  0  0  0  0  0  0  0
  -26.0405   -6.8270   27.0394 C   0  0  0  0  0  0  0  0  0  0  0  0
  -29.0397  -28.2853   22.0833 C   0  0  0  0  0  0  0  0  0  0  0  0
  -28.2475  -22.4075   19.2608 C   0  0  0  0  0  0  0  0  0  0  0  0
  -27.1765  -20.4908   20.2426 C   0  0  0  0  0  0  0  0  0  0  0  0
  -24.0812   -5.5673   26.3977 C   0  0  0  0  0  0  0  0  0  0  0  0
  -24.6332  -11.9561   23.6567 C   0  0  0  0  0  0  0  0  0  0  0  0
  -24.3408  -13.6514   21.7730 C   0  0  0  0  0  0  0  0  0  0  0  0
  -22.9544  -22.8839   24.2718 C   0  0  0  0  0  0  0  0  0  0  0  0
  -27.8765  -27.3408   23.9845 C   0  0  0  0  0  0  0  0  0  0  0  0
  -23.8908  -23.6420   23.5432 C   0  0  0  0  0  0  0  0  0  0  0  0
  -27.9548  -28.3086   22.9729 C   0  0  0  0  0  0  0  0  0  0  0  0
  -27.0918  -21.7629   19.6876 C   0  0  0  0  0  0  0  0  0  0  0  0
  -23.7134  -10.0747   25.4997 C   0  0  0  0  0  0  0  0  0  0  0  0
  -30.0394  -27.3206   22.2059 C   0  0  0  0  0  0  0  0  0  0  0  0
  -23.9789   -7.9777   26.5265 C   0  0  0  0  0  0  0  0  0  0  0  0
  -25.4215   -5.6037   26.7825 C   0  0  0  0  0  0  0  0  0  0  0  0
  -23.3599   -6.7543   26.2697 C   0  0  0  0  0  0  0  0  0  0  0  0
  -25.1086  -12.9283   22.7054 C   0  0  0  0  0  0  0  0  0  0  0  0
  -29.4538  -21.7424   19.4099 C   0  0  0  0  0  0  0  0  0  0  0  0
  -28.4308  -19.9114   20.3476 C   0  0  0  0  0  0  0  0  0  0  0  0
  -25.2536  -14.4360   21.1115 C   0  0  0  0  0  0  0  0  0  0  0  0
  -22.9287  -13.6171   21.5271 C   0  0  0  0  0  0  0  0  0  0  0  0
  -24.7499  -27.2337   23.4218 C   0  0  0  0  0  0  0  0  0  0  0  0
  -32.2410  -26.0145   19.6464 C   0  0  0  0  0  0  0  0  0  0  0  0
  -24.9334  -30.4223   23.9887 C   0  0  0  0  0  0  0  0  0  0  0  0
  -30.7180  -23.6721   18.4000 C   0  0  0  0  0  0  0  0  0  0  0  0
  -26.8442  -33.2493   24.0471 C   0  0  0  0  0  0  0  0  0  0  0  0
  -29.6540  -17.8477   21.1165 C   0  0  0  0  0  0  0  0  0  0  0  0
  -21.5730  -23.4080   24.5747 C   0  0  0  0  0  0  0  0  0  0  0  0
  -26.7380  -27.3565   24.9673 C   0  0  0  0  0  0  0  0  0  0  0  0
  -26.8999  -29.3709   22.8084 C   0  0  0  0  0  0  0  0  0  0  0  0
  -21.4493  -24.9220   24.4238 C   0  0  0  0  0  0  0  0  0  0  0  0
  -30.3144  -14.3492   21.1525 C   0  0  0  0  0  0  0  0  0  0  0  0
  -22.0920  -25.3828   23.1194 C   0  0  0  0  0  0  0  0  0  0  0  0
  -28.9558  -13.7271   21.4830 C   0  0  0  0  0  0  0  0  0  0  0  0
  -30.5351  -15.6614   21.9030 C   0  0  0  0  0  0  0  0  0  0  0  0
  -28.1057  -16.0320   22.0765 C   0  0  0  0  0  0  0  0  0  0  0  0
  -23.5901  -25.0564   23.0971 C   0  0  1  0  0  0  0  0  0  0  0  0
  -25.4953  -28.0605   24.4309 C   0  0  1  0  0  0  0  0  0  0  0  0
  -27.8107  -14.7415   21.2946 C   0  0  2  0  0  0  0  0  0  0  0  0
  -25.0950  -22.1241   18.2149 C   0  0  0  0  0  0  0  0  0  0  0  0
  -26.7061  -35.7110   24.5146 C   0  0  0  0  0  0  0  0  0  0  0  0
  -23.5523  -30.8526   21.3021 C   0  0  0  0  0  0  0  0  0  0  0  0
  -24.2893  -33.2438   21.3850 C   0  0  0  0  0  0  0  0  0  0  0  0
  -22.7541  -32.3522   23.1374 C   0  0  0  0  0  0  0  0  0  0  0  0
  -28.8104  -33.0590   26.2508 C   0  0  0  0  0  0  0  0  0  0  0  0
  -25.7670  -22.4328   19.5506 C   0  0  0  0  0  0  0  0  0  0  0  0
  -32.8962  -24.7068   19.2268 C   0  0  0  0  0  0  0  0  0  0  0  0
  -31.6870  -26.0469   21.0574 C   0  0  0  0  0  0  0  0  0  1  0  0
  -32.1706  -24.0078   18.0813 C   0  0  0  0  0  0  0  0  0  0  0  0
  -25.1818  -31.6463   23.1407 C   0  0  1  0  0  0  0  0  0  0  0  0
  -27.0024  -34.3367   25.0945 C   0  0  2  0  0  0  0  0  0  0  0  0
  -23.9634  -32.0027   22.2430 C   0  0  0  0  0  0  0  0  0  0  0  0
  -26.4091  -13.2268   22.6445 N   0  0  0  0  0  0  0  0  0  0  0  0
  -29.5757  -20.5065   19.9442 N   0  0  0  0  0  0  0  0  0  0  0  0
  -26.4655  -14.1462   21.6659 N   0  0  0  0  0  0  0  0  0  0  0  0
  -25.8032  -29.3407   23.7903 N   0  0  0  0  0  0  0  0  0  0  0  0
  -29.4130  -16.5743   21.6742 N   0  0  0  0  0  0  0  0  0  0  0  0
  -25.1297  -15.3387   20.1153 N   0  0  0  0  0  0  0  0  0  0  0  0
  -22.1371  -12.7543   22.2973 N   0  0  0  0  0  0  0  0  0  0  0  0
  -30.6245  -22.4069   18.9733 N   0  0  0  0  0  0  0  0  0  0  0  0
  -28.5073  -18.6152   20.9148 N   0  0  0  0  0  0  0  0  0  0  0  0
  -24.3268  -26.0084   23.9005 N   0  0  0  0  0  0  0  0  0  0  0  0
  -25.5764  -32.7073   24.0612 N   0  0  0  0  0  0  0  0  0  0  0  0
  -28.3934  -34.3422   25.6293 N   0  3  0  0  0  0  0  0  0  0  0  0
  -22.3872  -14.3184   20.6391 O   0  0  0  0  0  0  0  0  0  0  0  0
  -24.5706  -27.6753   22.2928 O   0  0  0  0  0  0  0  0  0  0  0  0
  -32.1644  -26.9881   18.8986 O   0  0  0  0  0  0  0  0  0  0  0  0
  -24.0062  -30.4283   24.8023 O   0  0  0  0  0  0  0  0  0  0  0  0
  -29.8011  -24.4517   18.1644 O   0  0  0  0  0  0  0  0  0  0  0  0
  -27.7531  -32.9169   23.2895 O   0  0  0  0  0  0  0  0  0  0  0  0
  -30.7907  -18.2187   20.8131 O   0  0  0  0  0  0  0  0  0  0  0  0
  -23.2644   -9.1571   26.3991 O   0  0  0  0  0  0  0  0  0  0  0  0
  -31.0866  -27.3109   21.3370 O   0  0  0  0  0  0  0  0  0  1  0  0
  -26.1147   -4.4640   26.9040 F   0  0  0  0  0  0  0  0  0  0  0  0
  -22.0729   -6.7132   25.8986 F   0  0  0  0  0  0  0  0  0  0  0  0
  1  2  1  0  0  0  0
  1  5  2  0  0  0  0
  2  6  2  0  0  0  0
  3  8  2  0  0  0  0
  3 17  1  0  0  0  0
  4  9  1  0  0  0  0
  4 17  2  0  0  0  0
  5 19  1  0  0  0  0
  6 21  1  0  0  0  0
  7 10  2  0  0  0  0
  7 20  1  0  0  0  0
  8 24  1  0  0  0  0
  9 24  2  0  0  0  0
 10 25  1  0  0  0  0
 11 12  2  0  0  0  0
 11 26  1  0  0  0  0
 12 27  1  0  0  0  0
 13 22  1  0  0  0  0
 13 25  2  0  0  0  0
 14 23  1  0  0  0  0
 14 30  2  0  0  0  0
 15 23  2  0  0  0  0
 15 31  1  0  0  0  0
 16 27  2  0  0  0  0
 16 28  1  0  0  0  0
 17 29  1  0  0  0  0
 18 29  1  0  0  0  0
 18 32  2  0  0  0  0
 18 33  1  0  0  0  0
 19 21  2  0  0  0  0
 19 40  1  0  0  0  0
 20 22  2  0  0  0  0
 20 41  1  0  0  0  0
 21 49  1  0  0  0  0
 22 42  1  0  0  0  0
 23 58  1  0  0  0  0
 24 84  1  0  0  0  0
 25 85  1  0  0  0  0
 26 28  2  0  0  0  0
 26 84  1  0  0  0  0
 27 86  1  0  0  0  0
 28 87  1  0  0  0  0
 29 65  2  0  0  0  0
 30 66  1  0  0  0  0
 30 72  1  0  0  0  0
 31 66  2  0  0  0  0
 31 73  1  0  0  0  0
 32 67  1  0  0  0  0
 32 70  1  0  0  0  0
 33 71  1  0  0  0  0
 33 77  2  0  0  0  0
 34 50  1  0  0  0  0
 34 74  1  0  0  0  0
 34 78  2  0  0  0  0
 35 59  1  0  0  0  0
 35 60  1  0  0  0  0
 35 79  2  0  0  0  0
 36 62  1  0  0  0  0
 36 68  1  0  0  0  0
 36 80  2  0  0  0  0
 37 61  1  0  0  0  0
 37 72  1  0  0  0  0
 37 81  2  0  0  0  0
 38 63  1  0  0  0  0
 38 75  1  0  0  0  0
 38 82  2  0  0  0  0
 39 69  1  0  0  0  0
 39 73  1  0  0  0  0
 39 83  2  0  0  0  0
 40 43  1  0  0  0  0
 41 50  1  0  0  0  0
 42 68  1  0  0  0  0
 43 45  1  0  0  0  0
 44 46  1  0  0  0  0
 44 47  1  0  0  0  0
 45 49  1  0  0  0  0
 46 51  1  0  0  0  0
 47 69  1  0  0  0  0
 48 51  1  0  0  0  0
 48 69  1  0  0  0  0
 49 74  1  0  0  0  0
 50 68  1  0  0  0  0
 51 67  1  0  0  0  0
 52 58  1  0  0  0  0
 53 63  1  0  0  0  0
 54 64  1  0  0  0  0
 55 64  1  0  0  0  0
 56 64  1  0  0  0  0
 57 76  1  0  0  0  0
 59 61  1  0  0  0  0
 60 85  1  0  0  0  0
 62 64  1  0  0  0  0
 62 75  1  0  0  0  0
 63 76  1  0  0  0  0
 65 67  1  0  0  0  0
M  CHG  1  76   1
M  ISO  4  39 100  60 101  73 100  85 101
M  END
> <Batch ID>
0175

> <Smiles>
CCc1cc(NC(=O)CCC(=O)[101CH2:1][101O:1]c2ccc3c(c2)CN(C(=O)C(NC(=O)C(C)NC)C(C)(C)C)C(C(=O)NC2CCCc4ccccc42)C3)nc([100NH:0][100C:0](=O)N2CCCC(n3nc(-c4ccc(Oc5ccc(F)cc5F)cc4)c(C(N)=O)c3N)C2)c1

> <Shape>
0.216

> <Color>
0.096

> <Negative vol penalty>
0.000

$$$$

  -OEChem-04052304353D

 85 93  0     1  0  0  0  0  0999 V2000
  -17.2828  -25.3814   24.8165 C   0  0  0  0  0  0  0  0  0  0  0  0
  -18.2829  -24.4744   24.4810 C   0  0  0  0  0  0  0  0  0  0  0  0
  -30.3442  -20.0776   20.0467 C   0  0  0  0  0  0  0  0  0  0  0  0
  -28.1154  -20.4522   20.9004 C   0  0  0  0  0  0  0  0  0  0  0  0
  -17.3225  -26.6799   24.3104 C   0  0  0  0  0  0  0  0  0  0  0  0
  -19.3227  -24.8651   23.6381 C   0  0  0  0  0  0  0  0  0  0  0  0
  -23.8539  -23.3392   25.3069 C   0  0  0  0  0  0  0  0  0  0  0  0
  -30.2782  -21.2818   19.3459 C   0  0  0  0  0  0  0  0  0  0  0  0
  -28.0493  -21.6564   20.1997 C   0  0  0  0  0  0  0  0  0  0  0  0
  -24.1937  -22.0038   25.0952 C   0  0  0  0  0  0  0  0  0  0  0  0
  -28.8900  -22.4248   16.4839 C   0  0  0  0  0  0  0  0  0  0  0  0
  -29.3298  -22.4284   15.1603 C   0  0  0  0  0  0  0  0  0  0  0  0
  -25.5249  -22.6508   23.1904 C   0  0  0  0  0  0  0  0  0  0  0  0
  -30.9965  -24.0859   15.7186 C   0  0  0  0  0  0  0  0  0  0  0  0
  -22.0703  -11.7849   22.5065 C   0  0  0  0  0  0  0  0  0  0  0  0
  -29.2628  -19.6627   20.8239 C   0  0  0  0  0  0  0  0  0  0  0  0
  -29.7999  -18.2230   22.8602 C   0  0  0  0  0  0  0  0  0  0  0  0
  -18.3685  -27.0896   23.4686 C   0  0  0  0  0  0  0  0  0  0  0  0
  -24.3391  -24.3410   24.4540 C   0  0  0  0  0  0  0  0  0  0  0  0
  -19.3757  -26.1700   23.1191 C   0  0  0  0  0  0  0  0  0  0  0  0
  -25.1918  -23.9985   23.3949 C   0  0  0  0  0  0  0  0  0  0  0  0
  -23.7740  -13.1713   21.7464 C   0  0  0  0  0  0  0  0  0  0  0  0
  -29.1308  -22.0712   19.4224 C   0  0  0  0  0  0  0  0  0  0  0  0
  -25.0270  -21.6590   24.0351 C   0  0  0  0  0  0  0  0  0  0  0  0
  -29.5034  -23.2518   17.4250 C   0  0  0  0  0  0  0  0  0  0  0  0
  -30.3830  -23.2589   14.7776 C   0  0  0  0  0  0  0  0  0  0  0  0
  -30.5566  -24.0823   17.0423 C   0  0  0  0  0  0  0  0  0  0  0  0
  -23.4054  -11.8640   22.1767 C   0  0  0  0  0  0  0  0  0  0  0  0
  -29.3302  -18.4186   21.5476 C   0  0  0  0  0  0  0  0  0  0  0  0
  -22.7063  -14.0418   21.7635 C   0  0  0  0  0  0  0  0  0  0  0  0
  -29.6562  -16.8747   23.0790 C   0  0  0  0  0  0  0  0  0  0  0  0
  -24.5544  -19.6090   23.0129 C   0  0  0  0  0  0  0  0  0  1  0  0
  -30.3195  -19.1751   23.7979 C   0  0  0  0  0  0  0  0  0  0  0  0
  -22.7666  -15.4644   21.3685 C   0  0  0  0  0  0  0  0  0  0  0  0
  -24.7705  -18.3165   22.7258 C   0  0  0  0  0  0  0  0  0  0  0  0
  -23.7744  -17.6864   21.8107 C   0  0  0  0  0  0  0  0  0  0  0  0
  -23.0055  -26.4533   22.4885 C   0  0  0  0  0  0  0  0  0  0  0  0
  -26.0521  -27.5308   22.2072 C   0  0  0  0  0  0  0  0  0  0  0  0
  -29.3921  -26.8701   22.4414 C   0  0  0  0  0  0  0  0  0  0  0  0
  -26.0441  -12.7234   20.7501 C   0  0  0  0  0  0  0  0  0  0  0  0
  -18.3434  -28.4896   22.9081 C   0  0  0  0  0  0  0  0  0  0  0  0
  -23.9847  -25.7798   24.7119 C   0  0  0  0  0  0  0  0  0  0  0  0
  -25.7557  -25.0384   22.4627 C   0  0  0  0  0  0  0  0  0  0  0  0
  -19.6807  -28.9352   22.3222 C   0  0  0  0  0  0  0  0  0  0  0  0
  -29.6044  -12.6884   20.7538 C   0  0  0  0  0  0  0  0  0  0  0  0
  -20.2623  -27.8441   21.4289 C   0  0  0  0  0  0  0  0  0  0  0  0
  -29.9808  -14.1347   21.0833 C   0  0  0  0  0  0  0  0  0  0  0  0
  -28.3637  -12.6135   19.8657 C   0  0  0  0  0  0  0  0  0  0  0  0
  -27.5712  -14.7924   20.6984 C   0  0  0  0  0  0  0  0  0  0  0  0
  -20.5335  -26.5635   22.2276 C   0  0  1  0  0  0  0  0  0  0  0  0
  -24.1213  -26.6600   23.4733 C   0  0  1  0  0  0  0  0  0  0  0  0
  -28.7768  -14.9166   21.6442 C   0  0  2  0  0  0  0  0  0  0  0  0
  -25.9341  -17.5391   23.2592 C   0  0  0  0  0  0  0  0  0  0  0  0
  -31.6392  -27.9378   22.1126 C   0  0  0  0  0  0  0  0  0  0  0  0
  -25.7371  -27.2575   19.1846 C   0  0  0  0  0  0  0  0  0  0  0  0
  -28.2280  -27.4068   18.9816 C   0  0  0  0  0  0  0  0  0  0  0  0
  -26.9383  -29.3220   19.9258 C   0  0  0  0  0  0  0  0  0  0  0  0
  -30.1193  -26.4869   25.2845 C   0  0  0  0  0  0  0  0  0  0  0  0
  -27.2173  -27.2180   21.2997 C   0  0  1  0  0  0  0  0  0  0  0  0
  -30.5259  -27.6328   23.1027 C   0  0  2  0  0  0  0  0  0  0  0  0
  -27.0181  -27.7810   19.8642 C   0  0  0  0  0  0  0  0  0  0  0  0
  -28.9190  -17.2852   20.9729 N   0  0  0  0  0  0  0  0  0  0  0  0
  -29.1300  -16.3645   21.9288 N   0  0  0  0  0  0  0  0  0  0  0  0
  -25.3750  -26.4308   22.7524 N   0  0  0  0  0  0  0  0  0  0  0  0
  -27.2630  -13.3732   20.4625 N   0  0  0  0  0  0  0  0  0  0  0  0
  -29.9300  -16.0877   24.1410 N   0  0  0  0  0  0  0  0  0  0  0  0
  -30.3980  -20.5198   23.4108 N   0  0  0  0  0  0  0  0  0  0  0  0
  -25.0825  -13.5389   21.3459 N   0  0  0  0  0  0  0  0  0  0  0  0
  -23.5956  -16.2728   22.0463 N   0  0  0  0  0  0  0  0  0  0  0  0
  -21.7472  -26.6995   23.0039 N   0  0  0  0  0  0  0  0  0  0  0  0
  -28.4084  -27.7178   21.9777 N   0  0  0  0  0  0  0  0  0  0  0  0
  -21.9932  -15.8584   20.3569 N   0  3  0  0  0  0  0  0  0  0  0  0
  -31.0997  -26.8377   24.2249 N   0  3  0  0  0  0  0  0  0  0  0  0
  -30.7182  -18.8405   24.9393 O   0  0  0  0  0  0  0  0  0  0  0  0
  -23.1543  -18.2733   20.9366 O   0  0  0  0  0  0  0  0  0  0  0  0
  -23.2668  -26.0982   21.3451 O   0  0  0  0  0  0  0  0  0  0  0  0
  -25.7582  -28.7079   22.4301 O   0  0  0  0  0  0  0  0  0  0  0  0
  -29.3820  -25.6451   22.3425 O   0  0  0  0  0  0  0  0  0  0  0  0
  -25.8758  -11.5246   20.5121 O   0  0  0  0  0  0  0  0  0  0  0  0
  -29.0661  -23.2465   18.7389 O   0  0  0  0  0  0  0  0  0  0  0  0
  -25.3598  -20.3562   23.8258 O   0  0  0  0  0  0  0  0  0  1  0  0
  -30.8063  -23.2612   13.5067 F   0  0  0  0  0  0  0  0  0  0  0  0
  -31.1506  -24.8782   17.9421 F   0  0  0  0  0  0  0  0  0  0  0  0
  -24.2506  -10.8337   22.2532 F   0  0  0  0  0  0  0  0  0  0  0  0
  -21.2670  -13.2827   22.2970 S   0  0  0  0  0  0  0  0  0  0  0  0
  1  2  1  0  0  0  0
  1  5  2  0  0  0  0
  2  6  2  0  0  0  0
  3  8  2  0  0  0  0
  3 16  1  0  0  0  0
  4  9  1  0  0  0  0
  4 16  2  0  0  0  0
  5 18  1  0  0  0  0
  6 20  1  0  0  0  0
  7 10  2  0  0  0  0
  7 19  1  0  0  0  0
  8 23  1  0  0  0  0
  9 23  2  0  0  0  0
 10 24  1  0  0  0  0
 11 12  2  0  0  0  0
 11 25  1  0  0  0  0
 12 26  1  0  0  0  0
 13 21  1  0  0  0  0
 13 24  2  0  0  0  0
 14 26  2  0  0  0  0
 14 27  1  0  0  0  0
 15 28  2  0  0  0  0
 15 85  1  0  0  0  0
 16 29  1  0  0  0  0
 17 29  1  0  0  0  0
 17 31  2  0  0  0  0
 17 33  1  0  0  0  0
 18 20  2  0  0  0  0
 18 41  1  0  0  0  0
 19 21  2  0  0  0  0
 19 42  1  0  0  0  0
 20 50  1  0  0  0  0
 21 43  1  0  0  0  0
 22 28  1  0  0  0  0
 22 30  2  0  0  0  0
 22 68  1  0  0  0  0
 23 80  1  0  0  0  0
 24 81  1  0  0  0  0
 25 27  2  0  0  0  0
 25 80  1  0  0  0  0
 26 82  1  0  0  0  0
 27 83  1  0  0  0  0
 28 84  1  0  0  0  0
 29 62  2  0  0  0  0
 30 34  1  0  0  0  0
 30 85  1  0  0  0  0
 31 63  1  0  0  0  0
 31 66  1  0  0  0  0
 32 35  2  0  0  0  0
 32 81  1  0  0  0  0
 33 67  1  0  0  0  0
 33 74  2  0  0  0  0
 34 69  1  0  0  0  0
 34 72  2  0  0  0  0
 35 36  1  0  0  0  0
 35 53  1  0  0  0  0
 36 69  1  0  0  0  0
 36 75  2  0  0  0  0
 37 51  1  0  0  0  0
 37 70  1  0  0  0  0
 37 76  2  0  0  0  0
 38 59  1  0  0  0  0
 38 64  1  0  0  0  0
 38 77  2  0  0  0  0
 39 60  1  0  0  0  0
 39 71  1  0  0  0  0
 39 78  2  0  0  0  0
 40 65  1  0  0  0  0
 40 68  1  0  0  0  0
 40 79  2  0  0  0  0
 41 44  1  0  0  0  0
 42 51  1  0  0  0  0
 43 64  1  0  0  0  0
 44 46  1  0  0  0  0
 45 47  1  0  0  0  0
 45 48  1  0  0  0  0
 46 50  1  0  0  0  0
 47 52  1  0  0  0  0
 48 65  1  0  0  0  0
 49 52  1  0  0  0  0
 49 65  1  0  0  0  0
 50 70  1  0  0  0  0
 51 64  1  0  0  0  0
 52 63  1  0  0  0  0
 54 60  1  0  0  0  0
 55 61  1  0  0  0  0
 56 61  1  0  0  0  0
 57 61  1  0  0  0  0
 58 73  1  0  0  0  0
 59 61  1  0  0  0  0
 59 71  1  0  0  0  0
 60 73  1  0  0  0  0
 62 63  1  0  0  0  0
M  CHG  2  72   1  73   1
M  ISO  4  32 101  40 100  68 100  81 101
M  END
> <Batch ID>
0175

> <Smiles>
CNC(C)C(=O)NC(C(=O)N1Cc2cc([101O:1][101CH:1]=C(C)C(=O)NC(=N)c3scc(F)c3[100NH:0][100C:0](=O)N3CCCC(n4nc(-c5ccc(Oc6ccc(F)cc6F)cc5)c(C(N)=O)c4N)C3)ccc2CC1C(=O)NC1CCCc2ccccc21)C(C)(C)C

> <Shape>
0.228

> <Color>
0.055

> <Negative vol penalty>
0.000

$$$$

  -OEChem-04052304353D

 88 96  0     1  0  0  0  0  0999 V2000
  -20.0832  -25.8515   18.7486 C   0  0  0  0  0  0  0  0  0  0  0  0
  -20.8827  -24.8917   18.1363 C   0  0  0  0  0  0  0  0  0  0  0  0
  -26.6298  -28.7336   18.9605 C   0  0  0  0  0  0  0  0  0  0  0  0
  -26.3759  -27.9657   21.2371 C   0  0  0  0  0  0  0  0  0  0  0  0
  -19.8812  -25.8123   20.1276 C   0  0  0  0  0  0  0  0  0  0  0  0
  -21.4818  -23.8928   18.9029 C   0  0  0  0  0  0  0  0  0  0  0  0
  -23.4875  -17.0253   18.5412 C   0  0  0  0  0  0  0  0  0  0  0  0
  -25.8839  -29.8731   19.2616 C   0  0  0  0  0  0  0  0  0  0  0  0
  -25.6299  -29.1052   21.5383 C   0  0  0  0  0  0  0  0  0  0  0  0
  -24.6010  -16.2154   18.7604 C   0  0  0  0  0  0  0  0  0  0  0  0
  -26.2252  -32.3593   22.2293 C   0  0  0  0  0  0  0  0  0  0  0  0
  -26.5209  -33.0308   23.4155 C   0  0  0  0  0  0  0  0  0  0  0  0
  -24.1171  -16.2002   21.1237 C   0  0  0  0  0  0  0  0  0  0  0  0
  -24.2622  -32.6596   24.1887 C   0  0  0  0  0  0  0  0  0  0  0  0
  -31.1411  -19.3671   21.3580 C   0  0  0  0  0  0  0  0  0  0  0  0
  -31.9543  -17.1042   21.3079 C   0  0  0  0  0  0  0  0  0  0  0  0
  -26.8758  -27.7799   19.9483 C   0  0  0  0  0  0  0  0  0  0  0  0
  -29.0412  -26.4473   19.7413 C   0  0  0  0  0  0  0  0  0  0  0  0
  -20.4702  -24.8066   20.9102 C   0  0  0  0  0  0  0  0  0  0  0  0
  -22.6854  -17.4383   19.6147 C   0  0  0  0  0  0  0  0  0  0  0  0
  -21.2886  -23.8408   20.2938 C   0  0  0  0  0  0  0  0  0  0  0  0
  -22.9926  -17.0132   20.9151 C   0  0  0  0  0  0  0  0  0  0  0  0
  -25.3839  -30.0589   20.5505 C   0  0  0  0  0  0  0  0  0  0  0  0
  -24.9177  -15.8052   20.0522 C   0  0  0  0  0  0  0  0  0  0  0  0
  -24.9479  -31.8380   22.0226 C   0  0  0  0  0  0  0  0  0  0  0  0
  -25.5394  -33.1810   24.3952 C   0  0  0  0  0  0  0  0  0  0  0  0
  -23.9665  -31.9881   23.0023 C   0  0  0  0  0  0  0  0  0  0  0  0
  -32.0844  -18.4195   21.7395 C   0  0  0  0  0  0  0  0  0  0  0  0
  -27.6459  -26.6023   19.6377 C   0  0  0  0  0  0  0  0  0  0  0  0
  -30.0945  -18.9517   20.5505 C   0  0  0  0  0  0  0  0  0  0  0  0
  -30.8712  -16.7901   20.5028 C   0  0  0  0  0  0  0  0  0  0  0  0
  -29.2746  -25.1568   19.3329 C   0  0  0  0  0  0  0  0  0  0  0  0
  -30.0374  -27.3858   20.1685 C   0  0  0  0  0  0  0  0  0  0  0  0
  -21.9112  -20.2471   20.8856 C   0  0  0  0  0  0  0  0  0  0  0  0
  -28.4132  -14.8606   20.0747 C   0  0  0  0  0  0  0  0  0  0  0  0
  -19.9276  -18.4374   22.7057 C   0  0  0  0  0  0  0  0  0  0  0  0
  -19.2096  -15.3842   24.0509 C   0  0  0  0  0  0  0  0  0  0  0  0
  -28.0129  -19.7337   19.3666 C   0  0  0  0  0  0  0  0  0  0  0  0
  -20.2613  -24.8330   22.4036 C   0  0  0  0  0  0  0  0  0  0  0  0
  -21.4723  -18.2899   19.3583 C   0  0  0  0  0  0  0  0  0  0  0  0
  -22.1518  -17.4124   22.0993 C   0  0  0  0  0  0  0  0  0  0  0  0
  -20.6281  -23.5215   23.0932 C   0  0  0  0  0  0  0  0  0  0  0  0
  -26.2106  -21.8039   17.0987 C   0  0  0  0  0  0  0  0  0  0  0  0
  -21.9773  -23.0148   22.5936 C   0  0  0  0  0  0  0  0  0  0  0  0
  -26.5381  -23.2240   17.5656 C   0  0  0  0  0  0  0  0  0  0  0  0
  -26.0732  -20.8379   18.2743 C   0  0  0  0  0  0  0  0  0  0  0  0
  -27.5388  -22.2436   19.6690 C   0  0  0  0  0  0  0  0  0  0  0  0
  -21.9354  -22.7268   21.0880 C   0  0  1  0  0  0  0  0  0  0  0  0
  -21.0217  -19.0734   20.5873 C   0  0  1  0  0  0  0  0  0  0  0  0
  -27.7509  -23.2390   18.5167 C   0  0  2  0  0  0  0  0  0  0  0  0
  -17.5431  -14.2238   25.5253 C   0  0  0  0  0  0  0  0  0  0  0  0
  -21.1961  -19.7367   25.1578 C   0  0  0  0  0  0  0  0  0  0  0  0
  -20.2098  -17.9058   26.5518 C   0  0  0  0  0  0  0  0  0  0  0  0
  -18.7147  -19.4554   25.2924 C   0  0  0  0  0  0  0  0  0  0  0  0
  -18.4211  -13.5214   21.8905 C   0  0  0  0  0  0  0  0  0  0  0  0
  -27.1029  -15.1608   19.3700 C   0  0  0  0  0  0  0  0  0  1  0  0
  -30.0814  -13.7045   18.5256 C   0  0  0  0  0  0  0  0  0  0  0  0
  -29.6797  -14.9990   19.2387 C   0  0  2  0  0  0  0  0  0  0  0  0
  -20.0481  -17.7189   24.0280 C   0  0  1  0  0  0  0  0  0  0  0  0
  -17.9221  -14.5812   24.0965 C   0  0  2  0  0  0  0  0  0  0  0  0
  -20.0594  -18.6981   25.2356 C   0  0  0  0  0  0  0  0  0  0  0  0
  -30.4145  -12.5328   19.4327 C   0  0  0  0  0  0  0  0  0  0  0  0
  -27.0357  -25.4986   19.1978 N   0  0  0  0  0  0  0  0  0  0  0  0
  -29.9347  -17.6832   20.1115 N   0  0  0  0  0  0  0  0  0  0  0  0
  -28.0524  -24.6377   19.0214 N   0  0  0  0  0  0  0  0  0  0  0  0
  -20.9797  -18.2508   21.7980 N   0  0  0  0  0  0  0  0  0  0  0  0
  -27.2604  -20.9034   19.1292 N   0  0  0  0  0  0  0  0  0  0  0  0
  -30.4039  -24.4269   19.2134 N   0  0  0  0  0  0  0  0  0  0  0  0
  -29.6250  -28.6685   20.5544 N   0  0  0  0  0  0  0  0  0  0  0  0
  -29.1382  -19.9247   20.1678 N   0  0  0  0  0  0  0  0  0  0  0  0
  -30.7558  -15.4776   20.0804 N   0  0  0  0  0  0  0  0  0  0  0  0
  -21.2675  -21.4687   20.8325 N   0  0  0  0  0  0  0  0  0  0  0  0
  -18.9657  -16.7413   24.0614 N   0  0  0  0  0  0  0  0  0  0  0  0
  -18.0717  -13.3180   23.3200 N   0  3  0  0  0  0  0  0  0  0  0  0
  -31.2588  -27.1008   20.1913 O   0  0  0  0  0  0  0  0  0  0  0  0
  -23.0936  -20.0582   21.1462 O   0  0  0  0  0  0  0  0  0  0  0  0
  -28.4416  -14.5290   21.2604 O   0  0  0  0  0  0  0  0  0  0  0  0
  -18.9332  -19.1326   22.4837 O   0  0  0  0  0  0  0  0  0  0  0  0
  -20.3206  -14.8600   24.0137 O   0  0  0  0  0  0  0  0  0  0  0  0
  -27.6985  -18.6483   18.8718 O   0  0  0  0  0  0  0  0  0  0  0  0
  -24.6562  -31.1708   20.8447 O   0  0  0  0  0  0  0  0  0  0  0  0
  -26.0043  -15.0152   20.2690 O   0  0  0  0  0  0  0  0  0  1  0  0
  -25.8239  -33.8245   25.5350 F   0  0  0  0  0  0  0  0  0  0  0  0
  -22.7380  -31.4884   22.8100 F   0  0  0  0  0  0  0  0  0  0  0  0
  -33.1138  -18.7723   22.5203 F   0  0  0  0  0  0  0  0  0  0  0  0
  -30.8160  -11.4523   18.7318 F   0  0  0  0  0  0  0  0  0  0  0  0
  -29.3212  -12.1707   20.1430 F   0  0  0  0  0  0  0  0  0  0  0  0
  -31.3844  -12.8417   20.3181 F   0  0  0  0  0  0  0  0  0  0  0  0
  1  2  1  0  0  0  0
  1  5  2  0  0  0  0
  2  6  2  0  0  0  0
  3  8  2  0  0  0  0
  3 17  1  0  0  0  0
  4  9  1  0  0  0  0
  4 17  2  0  0  0  0
  5 19  1  0  0  0  0
  6 21  1  0  0  0  0
  7 10  2  0  0  0  0
  7 20  1  0  0  0  0
  8 23  1  0  0  0  0
  9 23  2  0  0  0  0
 10 24  1  0  0  0  0
 11 12  2  0  0  0  0
 11 25  1  0  0  0  0
 12 26  1  0  0  0  0
 13 22  1  0  0  0  0
 13 24  2  0  0  0  0
 14 26  2  0  0  0  0
 14 27  1  0  0  0  0
 15 28  1  0  0  0  0
 15 30  2  0  0  0  0
 16 28  2  0  0  0  0
 16 31  1  0  0  0  0
 17 29  1  0  0  0  0
 18 29  1  0  0  0  0
 18 32  2  0  0  0  0
 18 33  1  0  0  0  0
 19 21  2  0  0  0  0
 19 39  1  0  0  0  0
 20 22  2  0  0  0  0
 20 40  1  0  0  0  0
 21 48  1  0  0  0  0
 22 41  1  0  0  0  0
 23 81  1  0  0  0  0
 24 82  1  0  0  0  0
 25 27  2  0  0  0  0
 25 81  1  0  0  0  0
 26 83  1  0  0  0  0
 27 84  1  0  0  0  0
 28 85  1  0  0  0  0
 29 63  2  0  0  0  0
 30 64  1  0  0  0  0
 30 70  1  0  0  0  0
 31 64  2  0  0  0  0
 31 71  1  0  0  0  0
 32 65  1  0  0  0  0
 32 68  1  0  0  0  0
 33 69  1  0  0  0  0
 33 75  2  0  0  0  0
 34 49  1  0  0  0  0
 34 72  1  0  0  0  0
 34 76  2  0  0  0  0
 35 56  1  0  0  0  0
 35 58  1  0  0  0  0
 35 77  2  0  0  0  0
 36 59  1  0  0  0  0
 36 66  1  0  0  0  0
 36 78  2  0  0  0  0
 37 60  1  0  0  0  0
 37 73  1  0  0  0  0
 37 79  2  0  0  0  0
 38 67  1  0  0  0  0
 38 70  1  0  0  0  0
 38 80  2  0  0  0  0
 39 42  1  0  0  0  0
 40 49  1  0  0  0  0
 41 66  1  0  0  0  0
 42 44  1  0  0  0  0
 43 45  1  0  0  0  0
 43 46  1  0  0  0  0
 44 48  1  0  0  0  0
 45 50  1  0  0  0  0
 46 67  1  0  0  0  0
 47 50  1  0  0  0  0
 47 67  1  0  0  0  0
 48 72  1  0  0  0  0
 49 66  1  0  0  0  0
 50 65  1  0  0  0  0
 51 60  1  0  0  0  0
 52 61  1  0  0  0  0
 53 61  1  0  0  0  0
 54 61  1  0  0  0  0
 55 74  1  0  0  0  0
 56 82  1  0  0  0  0
 57 58  1  0  0  0  0
 57 62  1  0  0  0  0
 58 71  1  0  0  0  0
 59 61  1  0  0  0  0
 59 73  1  0  0  0  0
 60 74  1  0  0  0  0
 62 86  1  0  0  0  0
 62 87  1  0  0  0  0
 62 88  1  0  0  0  0
 63 65  1  0  0  0  0
M  CHG  1  74   1
M  ISO  4  38 100  56 101  70 100  82 101
M  END
> <Batch ID>
0175

> <Smiles>
CNC(C)C(=O)NC(C(=O)N1Cc2cc([101O:1][101CH2:1]C(=O)C(CC(F)(F)F)Nc3cc(F)cc([100NH:0][100C:0](=O)N4CCCC(n5nc(-c6ccc(Oc7ccc(F)cc7F)cc6)c(C(N)=O)c5N)C4)n3)ccc2CC1C(=O)NC1CCCc2ccccc21)C(C)(C)C

> <Shape>
0.222

> <Color>
0.047

> <Negative vol penalty>
0.000

$$$$

  -OEChem-04052304353D

 84 92  0     1  0  0  0  0  0999 V2000
  -26.6772  -30.7422   23.3321 C   0  0  0  0  0  0  0  0  0  0  0  0
  -26.4046  -29.5170   23.9322 C   0  0  0  0  0  0  0  0  0  0  0  0
  -28.3578  -12.1804   19.0070 C   0  0  0  0  0  0  0  0  0  0  0  0
  -28.5756  -13.4263   21.0654 C   0  0  0  0  0  0  0  0  0  0  0  0
  -26.7099  -30.8442   21.9420 C   0  0  0  0  0  0  0  0  0  0  0  0
  -26.1635  -28.3934   23.1425 C   0  0  0  0  0  0  0  0  0  0  0  0
  -28.6209  -24.2885   24.8026 C   0  0  0  0  0  0  0  0  0  0  0  0
  -29.7327  -12.2861   18.7975 C   0  0  0  0  0  0  0  0  0  0  0  0
  -29.9506  -13.5320   20.8560 C   0  0  0  0  0  0  0  0  0  0  0  0
  -28.0793  -23.6233   25.9017 C   0  0  0  0  0  0  0  0  0  0  0  0
  -32.6824  -11.5775   21.2268 C   0  0  0  0  0  0  0  0  0  0  0  0
  -33.5227  -11.3304   22.3124 C   0  0  0  0  0  0  0  0  0  0  0  0
  -27.1035  -21.9864   24.4226 C   0  0  0  0  0  0  0  0  0  0  0  0
  -34.4106  -13.5704   22.1349 C   0  0  0  0  0  0  0  0  0  0  0  0
  -20.7739  -19.3104   22.5564 C   0  0  0  0  0  0  0  0  0  0  0  0
  -27.7792  -12.7505   20.1409 C   0  0  0  0  0  0  0  0  0  0  0  0
  -25.6797  -11.6205   21.0480 C   0  0  0  0  0  0  0  0  0  0  0  0
  -26.4786  -29.7192   21.1349 C   0  0  0  0  0  0  0  0  0  0  0  0
  -28.3983  -23.8130   23.5023 C   0  0  0  0  0  0  0  0  0  0  0  0
  -26.1918  -28.4807   21.7403 C   0  0  0  0  0  0  0  0  0  0  0  0
  -27.6454  -22.6459   23.3089 C   0  0  0  0  0  0  0  0  0  0  0  0
  -30.5291  -12.9618   19.7220 C   0  0  0  0  0  0  0  0  0  0  0  0
  -27.3181  -22.4737   25.7117 C   0  0  0  0  0  0  0  0  0  0  0  0
  -32.7063  -12.8210   20.5952 C   0  0  0  0  0  0  0  0  0  0  0  0
  -34.3867  -12.3269   22.7665 C   0  0  0  0  0  0  0  0  0  0  0  0
  -33.5703  -13.8174   21.0493 C   0  0  0  0  0  0  0  0  0  0  0  0
  -26.3588  -12.6422   20.3576 C   0  0  0  0  0  0  0  0  0  0  0  0
  -24.3554  -11.9771   20.9733 C   0  0  0  0  0  0  0  0  0  0  0  0
  -21.8118  -18.4043   22.4946 C   0  0  0  0  0  0  0  0  0  0  0  0
  -21.7063  -19.7445   24.4934 C   0  0  0  0  0  0  0  0  0  0  0  0
  -26.1995  -10.4535   21.6989 C   0  0  0  0  0  0  0  0  0  0  0  0
  -21.9384  -20.3790   25.8166 C   0  0  0  0  0  0  0  0  0  0  0  0
  -26.9803  -24.9693   20.9031 C   0  0  0  0  0  0  0  0  0  0  0  0
  -24.7324  -21.1137   27.8462 C   0  0  0  0  0  0  0  0  0  0  0  0
  -28.1556  -22.2722   19.5368 C   0  0  0  0  0  0  0  0  0  0  0  0
  -29.2640  -19.0691   19.9348 C   0  0  0  0  0  0  0  0  0  0  0  0
  -21.5723  -17.2197   20.2842 C   0  0  0  0  0  0  0  0  0  0  0  0
  -26.4777  -29.8886   19.6362 C   0  0  0  0  0  0  0  0  0  0  0  0
  -29.0117  -24.5269   22.3291 C   0  0  0  0  0  0  0  0  0  0  0  0
  -27.3942  -22.0830   21.9347 C   0  0  0  0  0  0  0  0  0  0  0  0
  -26.5812  -28.5701   18.8741 C   0  0  0  0  0  0  0  0  0  0  0  0
  -21.2693  -14.3565   18.1896 C   0  0  0  0  0  0  0  0  0  0  0  0
  -25.6151  -27.5415   19.4532 C   0  0  0  0  0  0  0  0  0  0  0  0
  -22.4749  -13.4962   18.5750 C   0  0  0  0  0  0  0  0  0  0  0  0
  -21.6052  -15.8466   18.2134 C   0  0  0  0  0  0  0  0  0  0  0  0
  -23.4059  -15.4687   19.8516 C   0  0  0  0  0  0  0  0  0  0  0  0
  -25.9495  -27.2338   20.9178 C   0  0  1  0  0  0  0  0  0  0  0  0
  -28.2915  -24.2440   21.0143 C   0  0  1  0  0  0  0  0  0  0  0  0
  -23.0985  -13.9633   19.9049 C   0  0  2  0  0  0  0  0  0  0  0  0
  -23.3400  -19.2858   28.8624 C   0  0  0  0  0  0  0  0  0  0  0  0
  -30.1218  -17.1050   18.6296 C   0  0  0  0  0  0  0  0  0  0  0  0
  -25.3192  -21.6661   18.5894 C   0  0  0  0  0  0  0  0  0  0  0  0
  -26.0443  -19.3106   18.1490 C   0  0  0  0  0  0  0  0  0  0  0  0
  -27.1054  -21.1938   16.9039 C   0  0  0  0  0  0  0  0  0  0  0  0
  -31.8520  -19.0979   21.3702 C   0  0  0  0  0  0  0  0  0  0  0  0
  -25.5624  -21.1217   26.5751 C   0  0  0  0  0  0  0  0  0  1  0  0
  -23.3747  -20.4111   27.8394 C   0  0  2  0  0  0  0  0  0  0  0  0
  -27.6516  -20.8615   19.3499 C   0  0  1  0  0  0  0  0  0  0  0  0
  -30.4965  -18.3569   19.4075 C   0  0  2  0  0  0  0  0  0  0  0  0
  -26.5331  -20.7694   18.2739 C   0  0  0  0  0  0  0  0  0  0  0  0
  -20.7115  -20.0795   23.7020 N   0  0  0  0  0  0  0  0  0  0  0  0
  -25.5340  -13.5776   19.8792 N   0  0  0  0  0  0  0  0  0  0  0  0
  -24.3230  -13.1451   20.2697 N   0  0  0  0  0  0  0  0  0  0  0  0
  -28.0098  -22.8204   20.8191 N   0  0  0  0  0  0  0  0  0  0  0  0
  -22.1876  -16.2173   19.5050 N   0  0  0  0  0  0  0  0  0  0  0  0
  -23.2271  -11.4024   21.4414 N   0  0  0  0  0  0  0  0  0  0  0  0
  -27.5844  -10.2395   21.6810 N   0  0  0  0  0  0  0  0  0  0  0  0
  -22.1967  -17.4640   21.5070 N   0  0  0  0  0  0  0  0  0  0  0  0
  -23.0337  -19.9133   26.5332 N   0  0  0  0  0  0  0  0  0  0  0  0
  -27.0875  -26.3435   21.0001 N   0  0  0  0  0  0  0  0  0  0  0  0
  -28.8251  -20.0434   19.0634 N   0  0  0  0  0  0  0  0  0  0  0  0
  -31.3878  -17.9609   20.5343 N   0  3  0  0  0  0  0  0  0  0  0  0
  -25.4562   -9.6165   22.2650 O   0  0  0  0  0  0  0  0  0  0  0  0
  -21.1619  -21.2449   26.2113 O   0  0  0  0  0  0  0  0  0  0  0  0
  -25.9479  -24.3296   20.7398 O   0  0  0  0  0  0  0  0  0  0  0  0
  -25.1188  -21.7078   28.8566 O   0  0  0  0  0  0  0  0  0  0  0  0
  -28.6664  -22.8633   18.5822 O   0  0  0  0  0  0  0  0  0  0  0  0
  -28.7405  -18.7867   21.0104 O   0  0  0  0  0  0  0  0  0  0  0  0
  -20.5499  -17.7984   19.9076 O   0  0  0  0  0  0  0  0  0  0  0  0
  -31.8709  -13.0650   19.5180 O   0  0  0  0  0  0  0  0  0  0  0  0
  -26.7878  -21.8229   26.7827 O   0  0  0  0  0  0  0  0  0  1  0  0
  -35.1925  -12.0900   23.8099 F   0  0  0  0  0  0  0  0  0  0  0  0
  -33.5969  -15.0144   20.4473 F   0  0  0  0  0  0  0  0  0  0  0  0
  -22.7555  -18.5123   23.9226 S   0  0  0  0  0  0  0  0  0  0  0  0
  1  2  1  0  0  0  0
  1  5  2  0  0  0  0
  2  6  2  0  0  0  0
  3  8  2  0  0  0  0
  3 16  1  0  0  0  0
  4  9  1  0  0  0  0
  4 16  2  0  0  0  0
  5 18  1  0  0  0  0
  6 20  1  0  0  0  0
  7 10  2  0  0  0  0
  7 19  1  0  0  0  0
  8 22  1  0  0  0  0
  9 22  2  0  0  0  0
 10 23  1  0  0  0  0
 11 12  2  0  0  0  0
 11 24  1  0  0  0  0
 12 25  1  0  0  0  0
 13 21  1  0  0  0  0
 13 23  2  0  0  0  0
 14 25  2  0  0  0  0
 14 26  1  0  0  0  0
 15 29  2  0  0  0  0
 15 61  1  0  0  0  0
 16 27  1  0  0  0  0
 17 27  1  0  0  0  0
 17 28  2  0  0  0  0
 17 31  1  0  0  0  0
 18 20  2  0  0  0  0
 18 38  1  0  0  0  0
 19 21  2  0  0  0  0
 19 39  1  0  0  0  0
 20 47  1  0  0  0  0
 21 40  1  0  0  0  0
 22 80  1  0  0  0  0
 23 81  1  0  0  0  0
 24 26  2  0  0  0  0
 24 80  1  0  0  0  0
 25 82  1  0  0  0  0
 26 83  1  0  0  0  0
 27 62  2  0  0  0  0
 28 63  1  0  0  0  0
 28 66  1  0  0  0  0
 29 68  1  0  0  0  0
 29 84  1  0  0  0  0
 30 32  1  0  0  0  0
 30 61  2  0  0  0  0
 30 84  1  0  0  0  0
 31 67  1  0  0  0  0
 31 73  2  0  0  0  0
 32 69  1  0  0  0  0
 32 74  2  0  0  0  0
 33 48  1  0  0  0  0
 33 70  1  0  0  0  0
 33 75  2  0  0  0  0
 34 56  1  0  0  0  0
 34 57  1  0  0  0  0
 34 76  2  0  0  0  0
 35 58  1  0  0  0  0
 35 64  1  0  0  0  0
 35 77  2  0  0  0  0
 36 59  1  0  0  0  0
 36 71  1  0  0  0  0
 36 78  2  0  0  0  0
 37 65  1  0  0  0  0
 37 68  1  0  0  0  0
 37 79  2  0  0  0  0
 38 41  1  0  0  0  0
 39 48  1  0  0  0  0
 40 64  1  0  0  0  0
 41 43  1  0  0  0  0
 42 44  1  0  0  0  0
 42 45  1  0  0  0  0
 43 47  1  0  0  0  0
 44 49  1  0  0  0  0
 45 65  1  0  0  0  0
 46 49  1  0  0  0  0
 46 65  1  0  0  0  0
 47 70  1  0  0  0  0
 48 64  1  0  0  0  0
 49 63  1  0  0  0  0
 50 57  1  0  0  0  0
 51 59  1  0  0  0  0
 52 60  1  0  0  0  0
 53 60  1  0  0  0  0
 54 60  1  0  0  0  0
 55 72  1  0  0  0  0
 56 81  1  0  0  0  0
 57 69  1  0  0  0  0
 58 60  1  0  0  0  0
 58 71  1  0  0  0  0
 59 72  1  0  0  0  0
 62 63  1  0  0  0  0
M  CHG  1  72   1
M  ISO  4  37 100  56 101  68 100  81 101
M  END
> <Batch ID>
0175

> <Smiles>
CNC(C)C(=O)NC(C(=O)N1Cc2cc([101O:1][101CH2:1]C(=O)C(C)NC(=O)c3ncc([100NH:0][100C:0](=O)N4CCCC(n5nc(-c6ccc(Oc7ccc(F)cc7F)cc6)c(C(N)=O)c5N)C4)s3)ccc2CC1C(=O)NC1CCCc2ccccc21)C(C)(C)C

> <Shape>
0.185

> <Color>
0.068

> <Negative vol penalty>
0.000

$$$$

  -OEChem-04052304353D

 84 92  0     1  0  0  0  0  0999 V2000
  -25.1132  -36.9304   22.2112 C   0  0  0  0  0  0  0  0  0  0  0  0
  -25.8757  -35.8915   21.6871 C   0  0  0  0  0  0  0  0  0  0  0  0
  -23.2260  -10.8776   21.8137 C   0  0  0  0  0  0  0  0  0  0  0  0
  -22.6633  -13.0815   20.9991 C   0  0  0  0  0  0  0  0  0  0  0  0
  -24.2876  -36.7015   23.3112 C   0  0  0  0  0  0  0  0  0  0  0  0
  -25.8138  -34.6232   22.2634 C   0  0  0  0  0  0  0  0  0  0  0  0
  -26.2209  -29.2410   19.3700 C   0  0  0  0  0  0  0  0  0  0  0  0
  -22.1466  -10.9280   22.6956 C   0  0  0  0  0  0  0  0  0  0  0  0
  -21.5838  -13.1318   21.8810 C   0  0  0  0  0  0  0  0  0  0  0  0
  -27.2789  -28.3514   19.1883 C   0  0  0  0  0  0  0  0  0  0  0  0
  -18.4410  -11.9000   22.0413 C   0  0  0  0  0  0  0  0  0  0  0  0
  -17.2221  -12.3629   21.5456 C   0  0  0  0  0  0  0  0  0  0  0  0
  -26.5181  -27.0685   21.0842 C   0  0  0  0  0  0  0  0  0  0  0  0
  -30.5224  -18.2975   20.0888 C   0  0  0  0  0  0  0  0  0  0  0  0
  -17.2442  -14.1555   23.1653 C   0  0  0  0  0  0  0  0  0  0  0  0
  -28.4269  -18.4873   18.9800 C   0  0  0  0  0  0  0  0  0  0  0  0
  -23.4844  -11.9544   20.9655 C   0  0  0  0  0  0  0  0  0  0  0  0
  -24.5973  -11.4148   18.7343 C   0  0  0  0  0  0  0  0  0  0  0  0
  -24.2082  -35.4274   23.8952 C   0  0  0  0  0  0  0  0  0  0  0  0
  -25.3083  -29.0568   20.4186 C   0  0  0  0  0  0  0  0  0  0  0  0
  -24.9874  -34.3774   23.3730 C   0  0  0  0  0  0  0  0  0  0  0  0
  -25.4479  -27.9557   21.2756 C   0  0  0  0  0  0  0  0  0  0  0  0
  -29.4273  -17.6792   19.4957 C   0  0  0  0  0  0  0  0  0  0  0  0
  -21.3254  -12.0550   22.7293 C   0  0  0  0  0  0  0  0  0  0  0  0
  -27.4294  -27.2666   20.0472 C   0  0  0  0  0  0  0  0  0  0  0  0
  -19.0614  -12.5647   23.0991 C   0  0  0  0  0  0  0  0  0  0  0  0
  -16.6238  -13.4906   22.1076 C   0  0  0  0  0  0  0  0  0  0  0  0
  -30.5827  -19.6854   20.1472 C   0  0  0  0  0  0  0  0  0  0  0  0
  -18.4631  -13.6925   23.6610 C   0  0  0  0  0  0  0  0  0  0  0  0
  -24.5997  -11.9033   20.0546 C   0  0  0  0  0  0  0  0  0  0  0  0
  -29.5306  -20.4037   19.6022 C   0  0  0  0  0  0  0  0  0  0  0  0
  -25.8898  -11.5862   18.3024 C   0  0  0  0  0  0  0  0  0  0  0  0
  -28.1640  -25.0847   19.6345 C   0  0  0  0  0  0  0  0  0  1  0  0
  -23.5227  -10.8563   17.9668 C   0  0  0  0  0  0  0  0  0  0  0  0
  -29.0987  -24.1449   19.4481 C   0  0  0  0  0  0  0  0  0  0  0  0
  -28.6684  -22.7316   19.1923 C   0  0  0  0  0  0  0  0  0  0  0  0
  -24.4629  -30.7411   22.9783 C   0  0  0  0  0  0  0  0  0  0  0  0
  -22.2308  -28.4087   23.2938 C   0  0  0  0  0  0  0  0  0  0  0  0
  -21.2784  -25.2004   22.6252 C   0  0  0  0  0  0  0  0  0  0  0  0
  -30.2620  -15.3357   19.8928 C   0  0  0  0  0  0  0  0  0  0  0  0
  -23.3375  -35.2397   25.1123 C   0  0  0  0  0  0  0  0  0  0  0  0
  -24.1569  -30.0103   20.5849 C   0  0  0  0  0  0  0  0  0  0  0  0
  -24.4835  -27.7020   22.4043 C   0  0  0  0  0  0  0  0  0  0  0  0
  -23.0445  -33.7761   25.4317 C   0  0  0  0  0  0  0  0  0  0  0  0
  -30.3885  -11.7777   19.9330 C   0  0  0  0  0  0  0  0  0  0  0  0
  -24.3240  -32.9484   25.3639 C   0  0  0  0  0  0  0  0  0  0  0  0
  -28.9186  -11.3616   19.8424 C   0  0  0  0  0  0  0  0  0  0  0  0
  -30.5708  -13.0354   20.7807 C   0  0  0  0  0  0  0  0  0  0  0  0
  -28.2677  -13.7616   20.2933 C   0  0  0  0  0  0  0  0  0  0  0  0
  -24.9285  -32.9817   23.9550 C   0  0  1  0  0  0  0  0  0  0  0  0
  -23.5845  -30.0150   21.9991 C   0  0  1  0  0  0  0  0  0  0  0  0
  -28.0267  -12.5367   19.3960 C   0  0  2  0  0  0  0  0  0  0  0  0
  -19.4191  -23.5689   23.0475 C   0  0  0  0  0  0  0  0  0  0  0  0
  -23.2333  -28.0086   26.1477 C   0  0  0  0  0  0  0  0  0  0  0  0
  -22.0410  -25.8074   26.1838 C   0  0  0  0  0  0  0  0  0  0  0  0
  -20.7469  -27.9202   25.8934 C   0  0  0  0  0  0  0  0  0  0  0  0
  -20.7030  -24.9301   19.7347 C   0  0  0  0  0  0  0  0  0  0  0  0
  -22.1747  -27.0694   23.9882 C   0  0  1  0  0  0  0  0  0  0  0  0
  -19.9740  -24.6247   22.1041 C   0  0  2  0  0  0  0  0  0  0  0  0
  -22.0685  -27.2070   25.5333 C   0  0  0  0  0  0  0  0  0  0  0  0
  -28.4504  -19.8384   19.0182 N   0  0  0  0  0  0  0  0  0  0  0  0
  -25.7987  -12.3511   20.4365 N   0  0  0  0  0  0  0  0  0  0  0  0
  -26.5617  -12.1447   19.3496 N   0  0  0  0  0  0  0  0  0  0  0  0
  -23.3778  -28.6660   22.5297 N   0  0  0  0  0  0  0  0  0  0  0  0
  -29.6978  -14.1072   20.2967 N   0  0  0  0  0  0  0  0  0  0  0  0
  -26.5057  -11.3119   17.1329 N   0  0  0  0  0  0  0  0  0  0  0  0
  -22.2587  -10.7532   18.5634 N   0  0  0  0  0  0  0  0  0  0  0  0
  -29.3378  -16.2671   19.4206 N   0  0  0  0  0  0  0  0  0  0  0  0
  -29.5984  -21.8164   19.6661 N   0  0  0  0  0  0  0  0  0  0  0  0
  -24.2017  -32.0948   23.0721 N   0  0  0  0  0  0  0  0  0  0  0  0
  -21.0707  -26.3381   23.3761 N   0  0  0  0  0  0  0  0  0  0  0  0
  -20.1814  -23.9986   20.7678 N   0  3  0  0  0  0  0  0  0  0  0  0
  -23.6827  -10.4452   16.7925 O   0  0  0  0  0  0  0  0  0  0  0  0
  -27.6079  -22.4885   18.6265 O   0  0  0  0  0  0  0  0  0  0  0  0
  -25.3135  -30.1190   23.6037 O   0  0  0  0  0  0  0  0  0  0  0  0
  -21.2882  -29.1945   23.4188 O   0  0  0  0  0  0  0  0  0  0  0  0
  -22.3719  -24.6897   22.3927 O   0  0  0  0  0  0  0  0  0  0  0  0
  -31.4786  -15.5363   19.9352 O   0  0  0  0  0  0  0  0  0  0  0  0
  -30.4497  -24.4251   19.4805 O   0  0  0  0  0  0  0  0  0  0  0  0
  -20.2718  -12.1044   23.5896 O   0  0  0  0  0  0  0  0  0  0  0  0
  -28.4616  -26.3972   19.8724 O   0  0  0  0  0  0  0  0  0  1  0  0
  -15.4541  -13.9360   21.6304 F   0  0  0  0  0  0  0  0  0  0  0  0
  -31.6299  -20.2945   20.7178 F   0  0  0  0  0  0  0  0  0  0  0  0
  -19.0549  -14.3360   24.6766 F   0  0  0  0  0  0  0  0  0  0  0  0
  1  2  1  0  0  0  0
  1  5  2  0  0  0  0
  2  6  2  0  0  0  0
  3  8  2  0  0  0  0
  3 17  1  0  0  0  0
  4  9  1  0  0  0  0
  4 17  2  0  0  0  0
  5 19  1  0  0  0  0
  6 21  1  0  0  0  0
  7 10  2  0  0  0  0
  7 20  1  0  0  0  0
  8 24  1  0  0  0  0
  9 24  2  0  0  0  0
 10 25  1  0  0  0  0
 11 12  2  0  0  0  0
 11 26  1  0  0  0  0
 12 27  1  0  0  0  0
 13 22  1  0  0  0  0
 13 25  2  0  0  0  0
 14 23  2  0  0  0  0
 14 28  1  0  0  0  0
 15 27  2  0  0  0  0
 15 29  1  0  0  0  0
 16 23  1  0  0  0  0
 16 61  2  0  0  0  0
 17 30  1  0  0  0  0
 18 30  1  0  0  0  0
 18 32  2  0  0  0  0
 18 34  1  0  0  0  0
 19 21  2  0  0  0  0
 19 41  1  0  0  0  0
 20 22  2  0  0  0  0
 20 42  1  0  0  0  0
 21 50  1  0  0  0  0
 22 43  1  0  0  0  0
 23 68  1  0  0  0  0
 24 80  1  0  0  0  0
 25 81  1  0  0  0  0
 26 29  2  0  0  0  0
 26 80  1  0  0  0  0
 27 82  1  0  0  0  0
 28 31  2  0  0  0  0
 28 83  1  0  0  0  0
 29 84  1  0  0  0  0
 30 62  2  0  0  0  0
 31 61  1  0  0  0  0
 31 69  1  0  0  0  0
 32 63  1  0  0  0  0
 32 66  1  0  0  0  0
 33 35  2  0  0  0  0
 33 81  1  0  0  0  0
 34 67  1  0  0  0  0
 34 73  2  0  0  0  0
 35 36  1  0  0  0  0
 35 79  1  0  0  0  0
 36 69  1  0  0  0  0
 36 74  2  0  0  0  0
 37 51  1  0  0  0  0
 37 70  1  0  0  0  0
 37 75  2  0  0  0  0
 38 58  1  0  0  0  0
 38 64  1  0  0  0  0
 38 76  2  0  0  0  0
 39 59  1  0  0  0  0
 39 71  1  0  0  0  0
 39 77  2  0  0  0  0
 40 65  1  0  0  0  0
 40 68  1  0  0  0  0
 40 78  2  0  0  0  0
 41 44  1  0  0  0  0
 42 51  1  0  0  0  0
 43 64  1  0  0  0  0
 44 46  1  0  0  0  0
 45 47  1  0  0  0  0
 45 48  1  0  0  0  0
 46 50  1  0  0  0  0
 47 52  1  0  0  0  0
 48 65  1  0  0  0  0
 49 52  1  0  0  0  0
 49 65  1  0  0  0  0
 50 70  1  0  0  0  0
 51 64  1  0  0  0  0
 52 63  1  0  0  0  0
 53 59  1  0  0  0  0
 54 60  1  0  0  0  0
 55 60  1  0  0  0  0
 56 60  1  0  0  0  0
 57 72  1  0  0  0  0
 58 60  1  0  0  0  0
 58 71  1  0  0  0  0
 59 72  1  0  0  0  0
 62 63  1  0  0  0  0
M  CHG  1  72   1
M  ISO  4  33 101  40 100  68 100  81 101
M  END
> <Batch ID>
0175

> <Smiles>
CNC(C)C(=O)NC(C(=O)N1Cc2cc([101O:1][101CH2:1]C(=O)C(=O)Nc3ncc([100NH:0][100C:0](=O)N4CCCC(n5nc(-c6ccc(Oc7ccc(F)cc7F)cc6)c(C(N)=O)c5N)C4)cc3F)ccc2CC1C(=O)NC1CCCc2ccccc21)C(C)(C)C

> <Shape>
0.287

> <Color>
0.075

> <Negative vol penalty>
0.000

$$$$

  -OEChem-04052304353D

 86 94  0     1  0  0  0  0  0999 V2000
  -25.9771  -37.5322   19.0273 C   0  0  0  0  0  0  0  0  0  0  0  0
  -26.6953  -36.3435   18.9453 C   0  0  0  0  0  0  0  0  0  0  0  0
  -23.7183   -9.0260   19.9673 C   0  0  0  0  0  0  0  0  0  0  0  0
  -23.2842  -10.6285   21.7225 C   0  0  0  0  0  0  0  0  0  0  0  0
  -25.0308  -37.7053   20.0365 C   0  0  0  0  0  0  0  0  0  0  0  0
  -26.4683  -35.3277   19.8732 C   0  0  0  0  0  0  0  0  0  0  0  0
  -26.6938  -29.2930   18.8544 C   0  0  0  0  0  0  0  0  0  0  0  0
  -22.9340   -8.0842   20.6332 C   0  0  0  0  0  0  0  0  0  0  0  0
  -22.4999   -9.6866   22.3884 C   0  0  0  0  0  0  0  0  0  0  0  0
  -27.6841  -28.3392   19.0848 C   0  0  0  0  0  0  0  0  0  0  0  0
  -19.6431   -7.4229   21.0398 C   0  0  0  0  0  0  0  0  0  0  0  0
  -18.7291   -6.6893   20.2836 C   0  0  0  0  0  0  0  0  0  0  0  0
  -26.6333  -27.7627   21.1783 C   0  0  0  0  0  0  0  0  0  0  0  0
  -28.7165  -20.1150   19.1345 C   0  0  0  0  0  0  0  0  0  0  0  0
  -19.8349   -4.6418   20.9333 C   0  0  0  0  0  0  0  0  0  0  0  0
  -23.8934  -10.2982   20.5120 C   0  0  0  0  0  0  0  0  0  0  0  0
  -24.2765  -12.2078   18.8645 C   0  0  0  0  0  0  0  0  0  0  0  0
  -24.7852  -36.6874   20.9714 C   0  0  0  0  0  0  0  0  0  0  0  0
  -25.6701  -29.4968   19.7908 C   0  0  0  0  0  0  0  0  0  0  0  0
  -25.5188  -35.4879   20.8967 C   0  0  0  0  0  0  0  0  0  0  0  0
  -25.6297  -28.7179   20.9561 C   0  0  0  0  0  0  0  0  0  0  0  0
  -29.4577  -20.6142   20.2055 C   0  0  0  0  0  0  0  0  0  0  0  0
  -29.2785  -17.8605   19.7964 C   0  0  0  0  0  0  0  0  0  0  0  0
  -22.3248   -8.4145   21.8438 C   0  0  0  0  0  0  0  0  0  0  0  0
  -27.6557  -27.5759   20.2483 C   0  0  0  0  0  0  0  0  0  0  0  0
  -20.6531   -6.7660   21.7428 C   0  0  0  0  0  0  0  0  0  0  0  0
  -18.8250   -5.2987   20.2303 C   0  0  0  0  0  0  0  0  0  0  0  0
  -28.6269  -18.7381   18.9299 C   0  0  0  0  0  0  0  0  0  0  0  0
  -20.7490   -5.3755   21.6895 C   0  0  0  0  0  0  0  0  0  0  0  0
  -30.1093  -19.7366   21.0719 C   0  0  0  0  0  0  0  0  0  0  0  0
  -30.0198  -18.3597   20.8674 C   0  0  0  0  0  0  0  0  0  0  0  0
  -24.7039  -11.2714   19.8248 C   0  0  0  0  0  0  0  0  0  0  0  0
  -25.4166  -12.8930   18.5220 C   0  0  0  0  0  0  0  0  0  0  0  0
  -28.4092  -25.3732   20.0220 C   0  0  0  0  0  0  0  0  0  1  0  0
  -22.9662  -12.4378   18.3299 C   0  0  0  0  0  0  0  0  0  0  0  0
  -29.2903  -24.3797   20.1903 C   0  0  0  0  0  0  0  0  0  0  0  0
  -28.9632  -23.0186   19.6531 C   0  0  0  0  0  0  0  0  0  0  0  0
  -24.7251  -31.9452   21.5841 C   0  0  0  0  0  0  0  0  0  0  0  0
  -22.2807  -29.9489   22.3335 C   0  0  0  0  0  0  0  0  0  0  0  0
  -21.1265  -26.7466   22.5789 C   0  0  0  0  0  0  0  0  0  0  0  0
  -30.1385  -15.4954   19.9126 C   0  0  0  0  0  0  0  0  0  0  0  0
  -23.7862  -36.9390   22.0729 C   0  0  0  0  0  0  0  0  0  0  0  0
  -24.5942  -30.5110   19.5148 C   0  0  0  0  0  0  0  0  0  0  0  0
  -24.5408  -28.8837   21.9834 C   0  0  0  0  0  0  0  0  0  0  0  0
  -23.3385  -35.6685   22.7911 C   0  0  0  0  0  0  0  0  0  0  0  0
  -30.2730  -11.9517   19.5948 C   0  0  0  0  0  0  0  0  0  0  0  0
  -24.5427  -34.7981   23.1365 C   0  0  0  0  0  0  0  0  0  0  0  0
  -28.8010  -11.5358   19.5473 C   0  0  0  0  0  0  0  0  0  0  0  0
  -30.5014  -13.1213   20.5506 C   0  0  0  0  0  0  0  0  0  0  0  0
  -28.1730  -13.8751   20.2687 C   0  0  0  0  0  0  0  0  0  0  0  0
  -25.2833  -34.3531   21.8697 C   0  0  1  0  0  0  0  0  0  0  0  0
  -23.8881  -30.9921   20.7787 C   0  0  1  0  0  0  0  0  0  0  0  0
  -27.8831  -12.7426   19.2701 C   0  0  2  0  0  0  0  0  0  0  0  0
  -19.1014  -25.4292   23.2576 C   0  0  0  0  0  0  0  0  0  0  0  0
  -22.9598  -30.4224   25.2703 C   0  0  0  0  0  0  0  0  0  0  0  0
  -21.5850  -28.4092   25.8407 C   0  0  0  0  0  0  0  0  0  0  0  0
  -20.5121  -30.3842   24.7586 C   0  0  0  0  0  0  0  0  0  0  0  0
  -20.8168  -25.6050   19.8660 C   0  0  0  0  0  0  0  0  0  0  0  0
  -22.0418  -28.9029   23.3956 C   0  0  1  0  0  0  0  0  0  0  0  0
  -19.8350  -26.1026   22.1081 C   0  0  2  0  0  0  0  0  0  0  0  0
  -21.7964  -29.5277   24.7980 C   0  0  0  0  0  0  0  0  0  0  0  0
  -26.0132  -11.3515   20.0762 N   0  0  0  0  0  0  0  0  0  0  0  0
  -26.4185  -12.3464   19.2687 N   0  0  0  0  0  0  0  0  0  0  0  0
  -23.5151  -29.8926   21.6711 N   0  0  0  0  0  0  0  0  0  0  0  0
  -29.6004  -14.2291   20.2249 N   0  0  0  0  0  0  0  0  0  0  0  0
  -25.6497  -13.9036   17.6579 N   0  0  0  0  0  0  0  0  0  0  0  0
  -21.9074  -11.6441   18.7917 N   0  0  0  0  0  0  0  0  0  0  0  0
  -29.5462  -22.0122   20.4109 N   0  0  0  0  0  0  0  0  0  0  0  0
  -29.1872  -16.4619   19.5877 N   0  0  0  0  0  0  0  0  0  0  0  0
  -24.5733  -33.2704   21.2231 N   0  0  0  0  0  0  0  0  0  0  0  0
  -20.9446  -28.0725   22.9111 N   0  0  0  0  0  0  0  0  0  0  0  0
  -20.1181  -25.0760   21.0656 N   0  3  0  0  0  0  0  0  0  0  0  0
  -22.7440  -13.3100   17.4561 O   0  0  0  0  0  0  0  0  0  0  0  0
  -28.2583  -22.8865   18.6584 O   0  0  0  0  0  0  0  0  0  0  0  0
  -25.4535  -31.5107   22.4685 O   0  0  0  0  0  0  0  0  0  0  0  0
  -21.4014  -30.7807   22.0954 O   0  0  0  0  0  0  0  0  0  0  0  0
  -22.1896  -26.1338   22.6487 O   0  0  0  0  0  0  0  0  0  0  0  0
  -31.3551  -15.6998   19.9054 O   0  0  0  0  0  0  0  0  0  0  0  0
  -30.4946  -24.5580   20.8404 O   0  0  0  0  0  0  0  0  0  0  0  0
  -21.5593   -7.4957   22.4937 O   0  0  0  0  0  0  0  0  0  0  0  0
  -28.6215  -26.6446   20.4760 O   0  0  0  0  0  0  0  0  0  1  0  0
  -17.9462   -4.5942   19.5053 F   0  0  0  0  0  0  0  0  0  0  0  0
  -27.9115  -18.2700   17.8972 F   0  0  0  0  0  0  0  0  0  0  0  0
  -21.7164   -4.7387   22.3636 F   0  0  0  0  0  0  0  0  0  0  0  0
  -30.8245  -20.2052   22.1045 F   0  0  0  0  0  0  0  0  0  0  0  0
  -30.6496  -17.5253   21.7066 F   0  0  0  0  0  0  0  0  0  0  0  0
  1  2  1  0  0  0  0
  1  5  2  0  0  0  0
  2  6  2  0  0  0  0
  3  8  2  0  0  0  0
  3 16  1  0  0  0  0
  4  9  1  0  0  0  0
  4 16  2  0  0  0  0
  5 18  1  0  0  0  0
  6 20  1  0  0  0  0
  7 10  2  0  0  0  0
  7 19  1  0  0  0  0
  8 24  1  0  0  0  0
  9 24  2  0  0  0  0
 10 25  1  0  0  0  0
 11 12  2  0  0  0  0
 11 26  1  0  0  0  0
 12 27  1  0  0  0  0
 13 21  1  0  0  0  0
 13 25  2  0  0  0  0
 14 22  1  0  0  0  0
 14 28  2  0  0  0  0
 15 27  2  0  0  0  0
 15 29  1  0  0  0  0
 16 32  1  0  0  0  0
 17 32  1  0  0  0  0
 17 33  2  0  0  0  0
 17 35  1  0  0  0  0
 18 20  2  0  0  0  0
 18 42  1  0  0  0  0
 19 21  2  0  0  0  0
 19 43  1  0  0  0  0
 20 51  1  0  0  0  0
 21 44  1  0  0  0  0
 22 30  2  0  0  0  0
 22 68  1  0  0  0  0
 23 28  1  0  0  0  0
 23 31  2  0  0  0  0
 23 69  1  0  0  0  0
 24 80  1  0  0  0  0
 25 81  1  0  0  0  0
 26 29  2  0  0  0  0
 26 80  1  0  0  0  0
 27 82  1  0  0  0  0
 28 83  1  0  0  0  0
 29 84  1  0  0  0  0
 30 31  1  0  0  0  0
 30 85  1  0  0  0  0
 31 86  1  0  0  0  0
 32 62  2  0  0  0  0
 33 63  1  0  0  0  0
 33 66  1  0  0  0  0
 34 36  2  0  0  0  0
 34 81  1  0  0  0  0
 35 67  1  0  0  0  0
 35 73  2  0  0  0  0
 36 37  1  0  0  0  0
 36 79  1  0  0  0  0
 37 68  1  0  0  0  0
 37 74  2  0  0  0  0
 38 52  1  0  0  0  0
 38 70  1  0  0  0  0
 38 75  2  0  0  0  0
 39 59  1  0  0  0  0
 39 64  1  0  0  0  0
 39 76  2  0  0  0  0
 40 60  1  0  0  0  0
 40 71  1  0  0  0  0
 40 77  2  0  0  0  0
 41 65  1  0  0  0  0
 41 69  1  0  0  0  0
 41 78  2  0  0  0  0
 42 45  1  0  0  0  0
 43 52  1  0  0  0  0
 44 64  1  0  0  0  0
 45 47  1  0  0  0  0
 46 48  1  0  0  0  0
 46 49  1  0  0  0  0
 47 51  1  0  0  0  0
 48 53  1  0  0  0  0
 49 65  1  0  0  0  0
 50 53  1  0  0  0  0
 50 65  1  0  0  0  0
 51 70  1  0  0  0  0
 52 64  1  0  0  0  0
 53 63  1  0  0  0  0
 54 60  1  0  0  0  0
 55 61  1  0  0  0  0
 56 61  1  0  0  0  0
 57 61  1  0  0  0  0
 58 72  1  0  0  0  0
 59 61  1  0  0  0  0
 59 71  1  0  0  0  0
 60 72  1  0  0  0  0
 62 63  1  0  0  0  0
M  CHG  1  72   1
M  ISO  4  34 101  41 100  69 100  81 101
M  END
> <Batch ID>
0175

> <Smiles>
CNC(C)C(=O)NC(C(=O)N1Cc2cc([101O:1][101CH2:1]C(=O)C(=O)Nc3cc(F)c([100NH:0][100C:0](=O)N4CCCC(n5nc(-c6ccc(Oc7ccc(F)cc7F)cc6)c(C(N)=O)c5N)C4)c(F)c3F)ccc2CC1C(=O)NC1CCCc2ccccc21)C(C)(C)C

> <Shape>
0.323

> <Color>
0.119

> <Negative vol penalty>
0.000

$$$$

  -OEChem-04052304353D

 84 92  0     1  0  0  0  0  0999 V2000
  -29.8277  -35.3709   19.1034 C   0  0  0  0  0  0  0  0  0  0  0  0
  -29.8143  -34.0553   19.5556 C   0  0  0  0  0  0  0  0  0  0  0  0
  -24.7172   -8.7064   21.4305 C   0  0  0  0  0  0  0  0  0  0  0  0
  -23.1595  -10.5085   21.0273 C   0  0  0  0  0  0  0  0  0  0  0  0
  -28.8425  -36.2622   19.5264 C   0  0  0  0  0  0  0  0  0  0  0  0
  -28.8164  -33.6306   20.4320 C   0  0  0  0  0  0  0  0  0  0  0  0
  -26.8788  -29.1344   19.1378 C   0  0  0  0  0  0  0  0  0  0  0  0
  -23.8683   -8.1917   22.4103 C   0  0  0  0  0  0  0  0  0  0  0  0
  -22.3104   -9.9939   22.0070 C   0  0  0  0  0  0  0  0  0  0  0  0
  -27.6289  -28.0028   19.4549 C   0  0  0  0  0  0  0  0  0  0  0  0
  -21.0266   -6.3636   22.5338 C   0  0  0  0  0  0  0  0  0  0  0  0
  -20.7897   -4.9890   22.5293 C   0  0  0  0  0  0  0  0  0  0  0  0
  -27.8976  -18.9168   18.9100 C   0  0  0  0  0  0  0  0  0  0  0  0
  -26.2376  -27.6303   21.3901 C   0  0  0  0  0  0  0  0  0  0  0  0
  -21.7039   -4.8242   24.7596 C   0  0  0  0  0  0  0  0  0  0  0  0
  -24.3629   -9.8649   20.7390 C   0  0  0  0  0  0  0  0  0  0  0  0
  -27.0899  -20.0525   18.6136 C   0  0  0  0  0  0  0  0  0  0  0  0
  -25.2386  -10.0893   18.3536 C   0  0  0  0  0  0  0  0  0  0  0  0
  -27.8264  -35.8457   20.4008 C   0  0  0  0  0  0  0  0  0  0  0  0
  -25.8075  -29.5294   19.9519 C   0  0  0  0  0  0  0  0  0  0  0  0
  -27.8175  -34.5176   20.8682 C   0  0  0  0  0  0  0  0  0  0  0  0
  -25.4740  -28.7659   21.0797 C   0  0  0  0  0  0  0  0  0  0  0  0
  -22.6649   -8.8354   22.6985 C   0  0  0  0  0  0  0  0  0  0  0  0
  -27.3102  -27.2522   20.5828 C   0  0  0  0  0  0  0  0  0  0  0  0
  -21.6022   -6.9685   23.6511 C   0  0  0  0  0  0  0  0  0  0  0  0
  -21.1283   -4.2193   23.6422 C   0  0  0  0  0  0  0  0  0  0  0  0
  -21.9409   -6.1987   24.7640 C   0  0  0  0  0  0  0  0  0  0  0  0
  -25.2397  -10.3973   19.7272 C   0  0  0  0  0  0  0  0  0  0  0  0
  -26.2543  -10.8513   17.8300 C   0  0  0  0  0  0  0  0  0  0  0  0
  -27.1483  -17.7678   19.0364 C   0  0  0  0  0  0  0  0  0  0  0  0
  -25.7539  -19.7282   18.5244 C   0  0  0  0  0  0  0  0  0  0  0  0
  -27.5932  -21.4365   18.4173 C   0  0  0  0  0  0  0  0  0  0  0  0
  -24.3948   -9.1944   17.6167 C   0  0  0  0  0  0  0  0  0  0  0  0
  -25.1447  -32.1038   21.6945 C   0  0  0  0  0  0  0  0  0  0  0  0
  -28.7420  -23.9556   20.1381 C   0  0  0  0  0  0  0  0  0  0  0  0
  -22.2855  -30.6227   22.0868 C   0  0  0  0  0  0  0  0  0  0  0  0
  -20.5091  -27.7088   22.0951 C   0  0  0  0  0  0  0  0  0  0  0  0
  -28.8276  -15.9620   19.5516 C   0  0  0  0  0  0  0  0  0  0  0  0
  -26.8103  -36.8577   20.8676 C   0  0  0  0  0  0  0  0  0  0  0  0
  -24.9916  -30.7374   19.5813 C   0  0  0  0  0  0  0  0  0  0  0  0
  -24.3207  -29.1359   21.9751 C   0  0  0  0  0  0  0  0  0  0  0  0
  -25.5722  -36.2296   21.5022 C   0  0  0  0  0  0  0  0  0  0  0  0
  -30.4462  -12.8347   19.0251 C   0  0  0  0  0  0  0  0  0  0  0  0
  -25.9740  -35.1453   22.4970 C   0  0  0  0  0  0  0  0  0  0  0  0
  -29.2940  -11.8274   19.0143 C   0  0  0  0  0  0  0  0  0  0  0  0
  -30.2105  -13.9551   20.0364 C   0  0  0  0  0  0  0  0  0  0  0  0
  -27.7711  -13.6421   19.8943 C   0  0  0  0  0  0  0  0  0  0  0  0
  -26.7373  -34.0126   21.8000 C   0  0  1  0  0  0  0  0  0  0  0  0
  -24.2432  -31.3395   20.7666 C   0  0  1  0  0  0  0  0  0  0  0  0
  -27.9328  -12.5301   18.8450 C   0  0  2  0  0  0  0  0  0  0  0  0
  -18.1988  -26.8112   22.4878 C   0  0  0  0  0  0  0  0  0  0  0  0
  -22.6790  -30.9335   25.0966 C   0  0  0  0  0  0  0  0  0  0  0  0
  -20.8795  -29.2265   25.4377 C   0  0  0  0  0  0  0  0  0  0  0  0
  -20.3521  -31.3814   24.2969 C   0  0  0  0  0  0  0  0  0  0  0  0
  -20.3178  -26.6687   19.3309 C   0  0  0  0  0  0  0  0  0  0  0  0
  -29.3374  -23.0821   19.0546 C   0  0  0  0  0  0  0  0  0  0  0  0
  -28.6308  -25.4313   19.8107 C   0  0  0  0  0  0  0  0  0  1  0  0
  -21.7195  -29.6371   23.0804 C   0  0  1  0  0  0  0  0  0  0  0  0
  -19.1845  -27.3347   21.4548 C   0  0  2  0  0  0  0  0  0  0  0  0
  -21.4305  -30.2885   24.4623 C   0  0  0  0  0  0  0  0  0  0  0  0
  -26.1815  -11.2856   20.0557 N   0  0  0  0  0  0  0  0  0  0  0  0
  -26.7818  -11.5422   18.8810 N   0  0  0  0  0  0  0  0  0  0  0  0
  -23.5570  -30.3290   21.5742 N   0  0  0  0  0  0  0  0  0  0  0  0
  -28.9039  -14.5774   19.8124 N   0  0  0  0  0  0  0  0  0  0  0  0
  -26.7389  -10.9909   16.5777 N   0  0  0  0  0  0  0  0  0  0  0  0
  -23.4013   -8.4898   18.3101 N   0  0  0  0  0  0  0  0  0  0  0  0
  -27.5361  -16.4352   19.3222 N   0  0  0  0  0  0  0  0  0  0  0  0
  -28.7451  -21.7793   19.1210 N   0  0  0  0  0  0  0  0  0  0  0  0
  -25.8200  -33.1470   21.0902 N   0  0  0  0  0  0  0  0  0  0  0  0
  -20.5494  -29.0422   22.4438 N   0  0  0  0  0  0  0  0  0  0  0  0
  -19.3880  -26.2796   20.4222 N   0  3  0  0  0  0  0  0  0  0  0  0
  -26.9760  -22.2005   17.6799 O   0  0  0  0  0  0  0  0  0  0  0  0
  -24.5289   -9.0124   16.3829 O   0  0  0  0  0  0  0  0  0  0  0  0
  -25.2207  -31.7726   22.8718 O   0  0  0  0  0  0  0  0  0  0  0  0
  -28.4163  -23.5092   21.2378 O   0  0  0  0  0  0  0  0  0  0  0  0
  -21.6208  -31.6129   21.7716 O   0  0  0  0  0  0  0  0  0  0  0  0
  -21.4160  -26.8982   22.2718 O   0  0  0  0  0  0  0  0  0  0  0  0
  -29.8367  -16.6703   19.5062 O   0  0  0  0  0  0  0  0  0  0  0  0
  -21.8361   -8.3334   23.6544 O   0  0  0  0  0  0  0  0  0  0  0  0
  -28.0411  -26.1475   20.8949 O   0  0  0  0  0  0  0  0  0  1  0  0
  -20.8993   -2.8996   23.6383 F   0  0  0  0  0  0  0  0  0  0  0  0
  -22.4931   -6.7744   25.8408 F   0  0  0  0  0  0  0  0  0  0  0  0
  -24.7807  -20.6063   18.2567 F   0  0  0  0  0  0  0  0  0  0  0  0
  -25.4781  -18.0604   18.7979 S   0  0  0  0  0  0  0  0  0  0  0  0
  1  2  1  0  0  0  0
  1  5  2  0  0  0  0
  2  6  2  0  0  0  0
  3  8  2  0  0  0  0
  3 16  1  0  0  0  0
  4  9  1  0  0  0  0
  4 16  2  0  0  0  0
  5 19  1  0  0  0  0
  6 21  1  0  0  0  0
  7 10  2  0  0  0  0
  7 20  1  0  0  0  0
  8 23  1  0  0  0  0
  9 23  2  0  0  0  0
 10 24  1  0  0  0  0
 11 12  2  0  0  0  0
 11 25  1  0  0  0  0
 12 26  1  0  0  0  0
 13 17  1  0  0  0  0
 13 30  2  0  0  0  0
 14 22  1  0  0  0  0
 14 24  2  0  0  0  0
 15 26  2  0  0  0  0
 15 27  1  0  0  0  0
 16 28  1  0  0  0  0
 17 31  2  0  0  0  0
 17 32  1  0  0  0  0
 18 28  1  0  0  0  0
 18 29  2  0  0  0  0
 18 33  1  0  0  0  0
 19 21  2  0  0  0  0
 19 39  1  0  0  0  0
 20 22  2  0  0  0  0
 20 40  1  0  0  0  0
 21 48  1  0  0  0  0
 22 41  1  0  0  0  0
 23 79  1  0  0  0  0
 24 80  1  0  0  0  0
 25 27  2  0  0  0  0
 25 79  1  0  0  0  0
 26 81  1  0  0  0  0
 27 82  1  0  0  0  0
 28 61  2  0  0  0  0
 29 62  1  0  0  0  0
 29 65  1  0  0  0  0
 30 67  1  0  0  0  0
 30 84  1  0  0  0  0
 31 83  1  0  0  0  0
 31 84  1  0  0  0  0
 32 68  1  0  0  0  0
 32 72  2  0  0  0  0
 33 66  1  0  0  0  0
 33 73  2  0  0  0  0
 34 49  1  0  0  0  0
 34 69  1  0  0  0  0
 34 74  2  0  0  0  0
 35 56  1  0  0  0  0
 35 57  1  0  0  0  0
 35 75  2  0  0  0  0
 36 58  1  0  0  0  0
 36 63  1  0  0  0  0
 36 76  2  0  0  0  0
 37 59  1  0  0  0  0
 37 70  1  0  0  0  0
 37 77  2  0  0  0  0
 38 64  1  0  0  0  0
 38 67  1  0  0  0  0
 38 78  2  0  0  0  0
 39 42  1  0  0  0  0
 40 49  1  0  0  0  0
 41 63  1  0  0  0  0
 42 44  1  0  0  0  0
 43 45  1  0  0  0  0
 43 46  1  0  0  0  0
 44 48  1  0  0  0  0
 45 50  1  0  0  0  0
 46 64  1  0  0  0  0
 47 50  1  0  0  0  0
 47 64  1  0  0  0  0
 48 69  1  0  0  0  0
 49 63  1  0  0  0  0
 50 62  1  0  0  0  0
 51 59  1  0  0  0  0
 52 60  1  0  0  0  0
 53 60  1  0  0  0  0
 54 60  1  0  0  0  0
 55 71  1  0  0  0  0
 56 68  1  0  0  0  0
 57 80  1  0  0  0  0
 58 60  1  0  0  0  0
 58 70  1  0  0  0  0
 59 71  1  0  0  0  0
 61 62  1  0  0  0  0
M  CHG  1  71   1
M  ISO  4  38 100  57 101  67 100  80 101
M  END
> <Batch ID>
0175

> <Smiles>
CNC(C)C(=O)NC(C(=O)N1Cc2cc([101O:1][101CH2:1]C(=O)CNC(=O)c3cc([100NH:0][100C:0](=O)N4CCCC(n5nc(-c6ccc(Oc7ccc(F)cc7F)cc6)c(C(N)=O)c5N)C4)sc3F)ccc2CC1C(=O)NC1CCCc2ccccc21)C(C)(C)C

> <Shape>
0.294

> <Color>
0.107

> <Negative vol penalty>
0.000

$$$$

  -OEChem-04052304353D

 88 96  0     1  0  0  0  0  0999 V2000
  -17.4152  -27.3365   24.0942 C   0  0  0  0  0  0  0  0  0  0  0  0
  -18.6249  -27.3607   23.4076 C   0  0  0  0  0  0  0  0  0  0  0  0
  -23.7594   -8.8403   20.1898 C   0  0  0  0  0  0  0  0  0  0  0  0
  -22.8029  -10.6697   21.4449 C   0  0  0  0  0  0  0  0  0  0  0  0
  -16.6720  -28.5076   24.2361 C   0  0  0  0  0  0  0  0  0  0  0  0
  -19.0915  -28.5558   22.8614 C   0  0  0  0  0  0  0  0  0  0  0  0
  -24.0165  -29.3125   23.7648 C   0  0  0  0  0  0  0  0  0  0  0  0
  -22.8916   -7.9514   20.8240 C   0  0  0  0  0  0  0  0  0  0  0  0
  -21.9350   -9.7808   22.0792 C   0  0  0  0  0  0  0  0  0  0  0  0
  -24.9243  -28.6063   22.9768 C   0  0  0  0  0  0  0  0  0  0  0  0
  -22.6791   -6.3815   23.8098 C   0  0  0  0  0  0  0  0  0  0  0  0
  -23.2125   -5.1828   24.2832 C   0  0  0  0  0  0  0  0  0  0  0  0
  -25.2528  -30.5663   21.6095 C   0  0  0  0  0  0  0  0  0  0  0  0
  -27.6846  -18.7060   18.8345 C   0  0  0  0  0  0  0  0  0  0  0  0
  -21.7084   -3.9480   22.8513 C   0  0  0  0  0  0  0  0  0  0  0  0
  -29.5429  -18.8242   20.3141 C   0  0  0  0  0  0  0  0  0  0  0  0
  -23.7151  -10.1995   20.5003 C   0  0  0  0  0  0  0  0  0  0  0  0
  -24.3831  -11.8210   18.6477 C   0  0  0  0  0  0  0  0  0  0  0  0
  -17.1344  -29.7196   23.6998 C   0  0  0  0  0  0  0  0  0  0  0  0
  -23.7114  -30.6499   23.4741 C   0  0  0  0  0  0  0  0  0  0  0  0
  -18.3531  -29.7439   22.9951 C   0  0  0  0  0  0  0  0  0  0  0  0
  -24.3428  -31.2880   22.3970 C   0  0  0  0  0  0  0  0  0  0  0  0
  -28.6403  -18.0503   19.6027 C   0  0  0  0  0  0  0  0  0  0  0  0
  -21.9794   -8.4216   21.7687 C   0  0  0  0  0  0  0  0  0  0  0  0
  -25.5404  -29.2323   21.8972 C   0  0  0  0  0  0  0  0  0  0  0  0
  -21.6602   -6.3635   22.8572 C   0  0  0  0  0  0  0  0  0  0  0  0
  -22.7272   -3.9660   23.8039 C   0  0  0  0  0  0  0  0  0  0  0  0
  -27.6612  -20.0959   18.8016 C   0  0  0  0  0  0  0  0  0  0  0  0
  -21.1749   -5.1468   22.3780 C   0  0  0  0  0  0  0  0  0  0  0  0
  -24.6116  -11.1181   19.8458 C   0  0  0  0  0  0  0  0  0  0  0  0
  -28.6076  -20.7782   19.5491 C   0  0  0  0  0  0  0  0  0  0  0  0
  -25.5290  -12.5533   18.4552 C   0  0  0  0  0  0  0  0  0  0  0  0
  -23.2373  -11.8127   17.7858 C   0  0  0  0  0  0  0  0  0  0  0  0
  -21.0731  -32.2214   22.6536 C   0  0  0  0  0  0  0  0  0  0  0  0
  -27.6990  -26.5667   20.5457 C   0  0  0  0  0  0  0  0  0  0  0  0
  -22.9898  -34.8192   22.9701 C   0  0  0  0  0  0  0  0  0  0  0  0
  -26.1507  -36.1058   22.9611 C   0  0  0  0  0  0  0  0  0  0  0  0
  -29.4206  -23.0749   20.1725 C   0  0  0  0  0  0  0  0  0  0  0  0
  -29.5849  -15.8477   20.3787 C   0  0  0  0  0  0  0  0  0  0  0  0
  -16.2732  -30.9501   23.8378 C   0  0  0  0  0  0  0  0  0  0  0  0
  -22.7502  -31.4057   24.3500 C   0  0  0  0  0  0  0  0  0  0  0  0
  -24.0649  -32.7283   22.0550 C   0  0  0  0  0  0  0  0  0  0  0  0
  -17.0194  -32.2509   23.5528 C   0  0  0  0  0  0  0  0  0  0  0  0
  -30.0088  -12.3379   20.8019 C   0  0  0  0  0  0  0  0  0  0  0  0
  -17.8436  -32.1248   22.2754 C   0  0  0  0  0  0  0  0  0  0  0  0
  -28.6236  -11.7655   20.4923 C   0  0  0  0  0  0  0  0  0  0  0  0
  -29.9189  -13.6744   21.5364 C   0  0  0  0  0  0  0  0  0  0  0  0
  -27.6945  -14.1144   20.5733 C   0  0  0  0  0  0  0  0  0  0  0  0
  -18.9046  -31.0259   22.4098 C   0  0  1  0  0  0  0  0  0  0  0  0
  -22.1264  -32.6103   23.6520 C   0  0  1  0  0  0  0  0  0  0  0  0
  -27.7334  -12.8002   19.7764 C   0  0  2  0  0  0  0  0  0  0  0  0
  -27.3977  -38.2692   23.2109 C   0  0  0  0  0  0  0  0  0  0  0  0
  -22.1545  -35.6237   20.1479 C   0  0  0  0  0  0  0  0  0  0  0  0
  -24.0981  -37.2012   20.0974 C   0  0  0  0  0  0  0  0  0  0  0  0
  -22.2815  -37.5164   21.7777 C   0  0  0  0  0  0  0  0  0  0  0  0
  -27.6178  -35.1202   25.3349 C   0  0  0  0  0  0  0  0  0  0  0  0
  -28.0599  -25.1174   20.8336 C   0  0  0  0  0  0  0  0  0  0  0  0
  -26.6778  -27.1858   21.4799 C   0  0  0  0  0  0  0  0  0  1  0  0
  -23.9010  -35.5940   22.0491 C   0  0  1  0  0  0  0  0  0  0  0  0
  -26.8614  -37.0384   23.9253 C   0  0  2  0  0  0  0  0  0  0  0  0
  -29.0758  -24.5223   19.8656 C   0  0  0  0  0  0  0  0  0  0  0  0
  -23.1128  -36.4561   21.0230 C   0  0  0  0  0  0  0  0  0  0  0  0
  -29.5513  -20.1760   20.3071 N   0  0  0  0  0  0  0  0  0  0  0  0
  -25.8088  -11.3802   20.3770 N   0  0  0  0  0  0  0  0  0  0  0  0
  -26.3427  -12.2559   19.5086 N   0  0  0  0  0  0  0  0  0  0  0  0
  -23.1129  -33.4229   22.9374 N   0  0  0  0  0  0  0  0  0  0  0  0
  -29.0632  -14.6055   20.7977 N   0  0  0  0  0  0  0  0  0  0  0  0
  -25.9099  -13.4160   17.4893 N   0  0  0  0  0  0  0  0  0  0  0  0
  -22.1465  -11.0037   18.1322 N   0  0  0  0  0  0  0  0  0  0  0  0
  -28.6889  -16.6353   19.6565 N   0  0  0  0  0  0  0  0  0  0  0  0
  -28.5783  -22.1920   19.5103 N   0  0  0  0  0  0  0  0  0  0  0  0
  -20.0259  -31.4990   23.1930 N   0  0  0  0  0  0  0  0  0  0  0  0
  -24.7963  -36.3595   22.9099 N   0  0  0  0  0  0  0  0  0  0  0  0
  -28.0042  -36.3376   24.5762 N   0  3  0  0  0  0  0  0  0  0  0  0
  -23.1891  -12.4897   16.7308 O   0  0  0  0  0  0  0  0  0  0  0  0
  -21.2002  -32.5535   21.4809 O   0  0  0  0  0  0  0  0  0  0  0  0
  -28.2123  -27.2104   19.6322 O   0  0  0  0  0  0  0  0  0  0  0  0
  -22.2029  -35.4306   23.6971 O   0  0  0  0  0  0  0  0  0  0  0  0
  -26.7388  -35.2414   22.3149 O   0  0  0  0  0  0  0  0  0  0  0  0
  -30.3548  -22.8023   20.9206 O   0  0  0  0  0  0  0  0  0  0  0  0
  -30.7498  -16.1762   20.6177 O   0  0  0  0  0  0  0  0  0  0  0  0
  -21.1322   -7.5545   22.3877 O   0  0  0  0  0  0  0  0  0  0  0  0
  -26.4263  -28.5451   21.1259 O   0  0  0  0  0  0  0  0  0  1  0  0
  -23.2406   -2.8150   24.2575 F   0  0  0  0  0  0  0  0  0  0  0  0
  -26.7483  -20.7407   18.0641 F   0  0  0  0  0  0  0  0  0  0  0  0
  -20.1971   -5.1232   21.4619 F   0  0  0  0  0  0  0  0  0  0  0  0
  -30.2003  -25.2942   19.9169 F   0  0  0  0  0  0  0  0  0  0  0  0
  -28.6060  -24.6533   18.5938 F   0  0  0  0  0  0  0  0  0  0  0  0
  1  2  1  0  0  0  0
  1  5  2  0  0  0  0
  2  6  2  0  0  0  0
  3  8  2  0  0  0  0
  3 17  1  0  0  0  0
  4  9  1  0  0  0  0
  4 17  2  0  0  0  0
  5 19  1  0  0  0  0
  6 21  1  0  0  0  0
  7 10  2  0  0  0  0
  7 20  1  0  0  0  0
  8 24  1  0  0  0  0
  9 24  2  0  0  0  0
 10 25  1  0  0  0  0
 11 12  2  0  0  0  0
 11 26  1  0  0  0  0
 12 27  1  0  0  0  0
 13 22  1  0  0  0  0
 13 25  2  0  0  0  0
 14 23  2  0  0  0  0
 14 28  1  0  0  0  0
 15 27  2  0  0  0  0
 15 29  1  0  0  0  0
 16 23  1  0  0  0  0
 16 63  2  0  0  0  0
 17 30  1  0  0  0  0
 18 30  1  0  0  0  0
 18 32  2  0  0  0  0
 18 33  1  0  0  0  0
 19 21  2  0  0  0  0
 19 40  1  0  0  0  0
 20 22  2  0  0  0  0
 20 41  1  0  0  0  0
 21 49  1  0  0  0  0
 22 42  1  0  0  0  0
 23 70  1  0  0  0  0
 24 82  1  0  0  0  0
 25 83  1  0  0  0  0
 26 29  2  0  0  0  0
 26 82  1  0  0  0  0
 27 84  1  0  0  0  0
 28 31  2  0  0  0  0
 28 85  1  0  0  0  0
 29 86  1  0  0  0  0
 30 64  2  0  0  0  0
 31 63  1  0  0  0  0
 31 71  1  0  0  0  0
 32 65  1  0  0  0  0
 32 68  1  0  0  0  0
 33 69  1  0  0  0  0
 33 75  2  0  0  0  0
 34 50  1  0  0  0  0
 34 72  1  0  0  0  0
 34 76  2  0  0  0  0
 35 57  1  0  0  0  0
 35 58  1  0  0  0  0
 35 77  2  0  0  0  0
 36 59  1  0  0  0  0
 36 66  1  0  0  0  0
 36 78  2  0  0  0  0
 37 60  1  0  0  0  0
 37 73  1  0  0  0  0
 37 79  2  0  0  0  0
 38 61  1  0  0  0  0
 38 71  1  0  0  0  0
 38 80  2  0  0  0  0
 39 67  1  0  0  0  0
 39 70  1  0  0  0  0
 39 81  2  0  0  0  0
 40 43  1  0  0  0  0
 41 50  1  0  0  0  0
 42 66  1  0  0  0  0
 43 45  1  0  0  0  0
 44 46  1  0  0  0  0
 44 47  1  0  0  0  0
 45 49  1  0  0  0  0
 46 51  1  0  0  0  0
 47 67  1  0  0  0  0
 48 51  1  0  0  0  0
 48 67  1  0  0  0  0
 49 72  1  0  0  0  0
 50 66  1  0  0  0  0
 51 65  1  0  0  0  0
 52 60  1  0  0  0  0
 53 62  1  0  0  0  0
 54 62  1  0  0  0  0
 55 62  1  0  0  0  0
 56 74  1  0  0  0  0
 57 61  1  0  0  0  0
 58 83  1  0  0  0  0
 59 62  1  0  0  0  0
 59 73  1  0  0  0  0
 60 74  1  0  0  0  0
 61 87  1  0  0  0  0
 61 88  1  0  0  0  0
 64 65  1  0  0  0  0
M  CHG  1  74   1
M  ISO  4  39 100  58 101  70 100  83 101
M  END
> <Batch ID>
0175

> <Smiles>
CNC(C)C(=O)NC(C(=O)N1Cc2cc([101O:1][101CH2:1]C(=O)CC(F)(F)C(=O)Nc3ncc([100NH:0][100C:0](=O)N4CCCC(n5nc(-c6ccc(Oc7ccc(F)cc7F)cc6)c(C(N)=O)c5N)C4)cc3F)ccc2CC1C(=O)NC1CCCc2ccccc21)C(C)(C)C

> <Shape>
0.333

> <Color>
0.117

> <Negative vol penalty>
0.000

$$$$

  -OEChem-04052304353D

 88 96  0     1  0  0  0  0  0999 V2000
  -16.1240  -27.7291   21.8164 C   0  0  0  0  0  0  0  0  0  0  0  0
  -17.3700  -27.1206   21.7040 C   0  0  0  0  0  0  0  0  0  0  0  0
  -23.6588   -9.6547   21.9230 C   0  0  0  0  0  0  0  0  0  0  0  0
  -24.2126  -11.0371   23.8255 C   0  0  0  0  0  0  0  0  0  0  0  0
  -16.0183  -29.1174   21.7418 C   0  0  0  0  0  0  0  0  0  0  0  0
  -18.5109  -27.8999   21.5159 C   0  0  0  0  0  0  0  0  0  0  0  0
  -22.3645  -26.4452   24.4618 C   0  0  0  0  0  0  0  0  0  0  0  0
  -23.1094   -8.6989   22.7774 C   0  0  0  0  0  0  0  0  0  0  0  0
  -23.6632  -10.0812   24.6799 C   0  0  0  0  0  0  0  0  0  0  0  0
  -23.0790  -25.3161   24.0641 C   0  0  0  0  0  0  0  0  0  0  0  0
  -24.2258   -6.2380   24.8077 C   0  0  0  0  0  0  0  0  0  0  0  0
  -24.5490   -4.9009   24.5766 C   0  0  0  0  0  0  0  0  0  0  0  0
  -24.8003  -26.7357   23.1469 C   0  0  0  0  0  0  0  0  0  0  0  0
  -22.2097   -4.3915   24.2518 C   0  0  0  0  0  0  0  0  0  0  0  0
  -24.2105  -10.8238   22.4470 C   0  0  0  0  0  0  0  0  0  0  0  0
  -24.1153  -12.8997   20.9674 C   0  0  0  0  0  0  0  0  0  0  0  0
  -17.1597  -29.9147   21.5624 C   0  0  0  0  0  0  0  0  0  0  0  0
  -22.8581  -27.7304   24.1949 C   0  0  0  0  0  0  0  0  0  0  0  0
  -18.4202  -29.3000   21.4375 C   0  0  0  0  0  0  0  0  0  0  0  0
  -24.0913  -27.8795   23.5445 C   0  0  0  0  0  0  0  0  0  0  0  0
  -23.1116   -8.9121   24.1559 C   0  0  0  0  0  0  0  0  0  0  0  0
  -24.2957  -25.4612   23.4040 C   0  0  0  0  0  0  0  0  0  0  0  0
  -22.8945   -6.6518   24.7610 C   0  0  0  0  0  0  0  0  0  0  0  0
  -23.5410   -3.9777   24.2986 C   0  0  0  0  0  0  0  0  0  0  0  0
  -21.8865   -5.7286   24.4830 C   0  0  0  0  0  0  0  0  0  0  0  0
  -24.7787  -11.8113   21.5649 C   0  0  0  0  0  0  0  0  0  0  0  0
  -29.2858  -20.3364   19.2845 C   0  0  0  0  0  0  0  0  0  0  0  0
  -30.4928  -19.8459   18.8324 C   0  0  0  0  0  0  0  0  0  0  0  0
  -25.0862  -13.5298   20.2280 C   0  0  0  0  0  0  0  0  0  0  0  0
  -29.6164  -17.9641   19.5399 C   0  0  0  0  0  0  0  0  0  0  0  0
  -22.7439  -13.3051   21.0715 C   0  0  0  0  0  0  0  0  0  0  0  0
  -28.7424  -21.7191   19.2905 C   0  0  0  0  0  0  0  0  0  0  0  0
  -21.8401  -30.2160   22.4951 C   0  0  0  0  0  0  0  0  0  0  0  0
  -25.9417  -23.1543   21.1393 C   0  0  0  0  0  0  0  0  0  0  0  0
  -24.4120  -31.6806   23.8226 C   0  0  0  0  0  0  0  0  0  0  0  0
  -27.4954  -31.3844   25.2551 C   0  0  0  0  0  0  0  0  0  0  0  0
  -30.2525  -15.5299   19.6688 C   0  0  0  0  0  0  0  0  0  0  0  0
  -16.9900  -31.4084   21.4406 C   0  0  0  0  0  0  0  0  0  0  0  0
  -22.0882  -28.9381   24.6542 C   0  0  0  0  0  0  0  0  0  0  0  0
  -24.6747  -29.2370   23.2523 C   0  0  0  0  0  0  0  0  0  0  0  0
  -18.2921  -32.1856   21.6152 C   0  0  0  0  0  0  0  0  0  0  0  0
  -29.7770  -12.0618   19.0181 C   0  0  0  0  0  0  0  0  0  0  0  0
  -19.4085  -31.5483   20.7939 C   0  0  0  0  0  0  0  0  0  0  0  0
  -28.3796  -11.7770   19.5735 C   0  0  0  0  0  0  0  0  0  0  0  0
  -30.5351  -13.0701   19.8797 C   0  0  0  0  0  0  0  0  0  0  0  0
  -28.4229  -14.0415   20.6948 C   0  0  0  0  0  0  0  0  0  0  0  0
  -19.6840  -30.1128   21.2577 C   0  0  1  0  0  0  0  0  0  0  0  0
  -22.4373  -30.2016   23.8738 C   0  0  1  0  0  0  0  0  0  0  0  0
  -27.5965  -13.0806   19.8246 C   0  0  2  0  0  0  0  0  0  0  0  0
  -29.3680  -32.7607   26.2020 C   0  0  0  0  0  0  0  0  0  0  0  0
  -25.2847  -32.4328   20.9972 C   0  0  0  0  0  0  0  0  0  0  0  0
  -27.5602  -32.9400   21.9100 C   0  0  0  0  0  0  0  0  0  0  0  0
  -25.5835  -34.2420   22.6978 C   0  0  0  0  0  0  0  0  0  0  0  0
  -27.2215  -30.1325   27.9228 C   0  0  0  0  0  0  0  0  0  0  0  0
  -25.8093  -24.4876   21.8493 C   0  0  0  0  0  0  0  0  0  1  0  0
  -26.8000  -23.1448   19.8828 C   0  0  2  0  0  0  0  0  0  0  0  0
  -25.8642  -31.8424   23.4429 C   0  0  1  0  0  0  0  0  0  0  0  0
  -28.0867  -32.0015   26.5097 C   0  0  2  0  0  0  0  0  0  0  0  0
  -26.0615  -32.8386   22.2656 C   0  0  0  0  0  0  0  0  0  0  0  0
  -25.9532  -23.3878   18.6533 C   0  0  0  0  0  0  0  0  0  0  0  0
  -26.0712  -11.7504   21.2336 N   0  0  0  0  0  0  0  0  0  0  0  0
  -30.6844  -18.4858   18.9783 N   0  0  0  0  0  0  0  0  0  0  0  0
  -26.2277  -12.8084   20.4199 N   0  0  0  0  0  0  0  0  0  0  0  0
  -23.8812  -30.3873   23.7156 N   0  0  0  0  0  0  0  0  0  0  0  0
  -29.7339  -14.2810   20.0713 N   0  0  0  0  0  0  0  0  0  0  0  0
  -31.4579  -20.6141   18.2724 N   0  0  0  0  0  0  0  0  0  0  0  0
  -25.0664  -14.6250   19.4390 N   0  0  0  0  0  0  0  0  0  0  0  0
  -21.8817  -12.5452   21.8737 N   0  0  0  0  0  0  0  0  0  0  0  0
  -29.3879  -16.6053   19.8705 N   0  0  0  0  0  0  0  0  0  0  0  0
  -27.4710  -21.8725   19.8285 N   0  0  0  0  0  0  0  0  0  0  0  0
  -20.4619  -30.1165   22.4780 N   0  0  0  0  0  0  0  0  0  0  0  0
  -26.5666  -32.2160   24.6658 N   0  0  0  0  0  0  0  0  0  0  0  0
  -28.3969  -30.9424   27.5112 N   0  3  0  0  0  0  0  0  0  0  0  0
  -22.2926  -14.3017   20.4580 O   0  0  0  0  0  0  0  0  0  0  0  0
  -29.4148  -22.6301   18.8147 O   0  0  0  0  0  0  0  0  0  0  0  0
  -22.5750  -30.3117   21.5193 O   0  0  0  0  0  0  0  0  0  0  0  0
  -25.3614  -22.1457   21.5419 O   0  0  0  0  0  0  0  0  0  0  0  0
  -23.7743  -32.6641   24.2069 O   0  0  0  0  0  0  0  0  0  0  0  0
  -27.8272  -30.2772   24.8373 O   0  0  0  0  0  0  0  0  0  0  0  0
  -31.3697  -15.6339   19.1559 O   0  0  0  0  0  0  0  0  0  0  0  0
  -22.5753   -7.9797   24.9899 O   0  0  0  0  0  0  0  0  0  0  0  0
  -24.9948  -24.3607   23.0142 O   0  0  0  0  0  0  0  0  0  1  0  0
  -23.8517   -2.6941   24.0751 F   0  0  0  0  0  0  0  0  0  0  0  0
  -20.6059   -6.1205   24.4356 F   0  0  0  0  0  0  0  0  0  0  0  0
  -26.7028  -23.3467   17.5297 F   0  0  0  0  0  0  0  0  0  0  0  0
  -25.3375  -24.5888   18.6953 F   0  0  0  0  0  0  0  0  0  0  0  0
  -24.9970  -22.4393   18.5326 F   0  0  0  0  0  0  0  0  0  0  0  0
  -28.3436  -19.0512   19.9185 S   0  0  0  0  0  0  0  0  0  0  0  0
  1  2  1  0  0  0  0
  1  5  2  0  0  0  0
  2  6  2  0  0  0  0
  3  8  2  0  0  0  0
  3 15  1  0  0  0  0
  4  9  1  0  0  0  0
  4 15  2  0  0  0  0
  5 17  1  0  0  0  0
  6 19  1  0  0  0  0
  7 10  2  0  0  0  0
  7 18  1  0  0  0  0
  8 21  1  0  0  0  0
  9 21  2  0  0  0  0
 10 22  1  0  0  0  0
 11 12  2  0  0  0  0
 11 23  1  0  0  0  0
 12 24  1  0  0  0  0
 13 20  1  0  0  0  0
 13 22  2  0  0  0  0
 14 24  2  0  0  0  0
 14 25  1  0  0  0  0
 15 26  1  0  0  0  0
 16 26  1  0  0  0  0
 16 29  2  0  0  0  0
 16 31  1  0  0  0  0
 17 19  2  0  0  0  0
 17 38  1  0  0  0  0
 18 20  2  0  0  0  0
 18 39  1  0  0  0  0
 19 47  1  0  0  0  0
 20 40  1  0  0  0  0
 21 81  1  0  0  0  0
 22 82  1  0  0  0  0
 23 25  2  0  0  0  0
 23 81  1  0  0  0  0
 24 83  1  0  0  0  0
 25 84  1  0  0  0  0
 26 61  2  0  0  0  0
 27 28  2  0  0  0  0
 27 32  1  0  0  0  0
 27 88  1  0  0  0  0
 28 62  1  0  0  0  0
 28 66  1  0  0  0  0
 29 63  1  0  0  0  0
 29 67  1  0  0  0  0
 30 62  2  0  0  0  0
 30 69  1  0  0  0  0
 30 88  1  0  0  0  0
 31 68  1  0  0  0  0
 31 74  2  0  0  0  0
 32 70  1  0  0  0  0
 32 75  2  0  0  0  0
 33 48  1  0  0  0  0
 33 71  1  0  0  0  0
 33 76  2  0  0  0  0
 34 55  1  0  0  0  0
 34 56  1  0  0  0  0
 34 77  2  0  0  0  0
 35 57  1  0  0  0  0
 35 64  1  0  0  0  0
 35 78  2  0  0  0  0
 36 58  1  0  0  0  0
 36 72  1  0  0  0  0
 36 79  2  0  0  0  0
 37 65  1  0  0  0  0
 37 69  1  0  0  0  0
 37 80  2  0  0  0  0
 38 41  1  0  0  0  0
 39 48  1  0  0  0  0
 40 64  1  0  0  0  0
 41 43  1  0  0  0  0
 42 44  1  0  0  0  0
 42 45  1  0  0  0  0
 43 47  1  0  0  0  0
 44 49  1  0  0  0  0
 45 65  1  0  0  0  0
 46 49  1  0  0  0  0
 46 65  1  0  0  0  0
 47 71  1  0  0  0  0
 48 64  1  0  0  0  0
 49 63  1  0  0  0  0
 50 58  1  0  0  0  0
 51 59  1  0  0  0  0
 52 59  1  0  0  0  0
 53 59  1  0  0  0  0
 54 73  1  0  0  0  0
 55 82  1  0  0  0  0
 56 60  1  0  0  0  0
 56 70  1  0  0  0  0
 57 59  1  0  0  0  0
 57 72  1  0  0  0  0
 58 73  1  0  0  0  0
 60 85  1  0  0  0  0
 60 86  1  0  0  0  0
 60 87  1  0  0  0  0
 61 63  1  0  0  0  0
M  CHG  1  73   1
M  ISO  4  37 100  55 101  69 100  82 101
M  END
> <Batch ID>
0175

> <Smiles>
CNC(C)C(=O)NC(C(=O)N1Cc2cc([101O:1][101CH2:1]C(=O)C(NC(=O)c3sc([100NH:0][100C:0](=O)N4CCCC(n5nc(-c6ccc(Oc7ccc(F)cc7F)cc6)c(C(N)=O)c5N)C4)nc3N)C(F)(F)F)ccc2CC1C(=O)NC1CCCc2ccccc21)C(C)(C)C

> <Shape>
0.287

> <Color>
0.126

> <Negative vol penalty>
0.000

$$$$

  -OEChem-04052304353D

 86 94  0     1  0  0  0  0  0999 V2000
  -26.3391  -36.0039   20.6998 C   0  0  0  0  0  0  0  0  0  0  0  0
  -26.8884  -34.7316   20.8225 C   0  0  0  0  0  0  0  0  0  0  0  0
  -24.4660   -8.9966   21.4866 C   0  0  0  0  0  0  0  0  0  0  0  0
  -24.2388  -10.5130   23.3537 C   0  0  0  0  0  0  0  0  0  0  0  0
  -25.1063  -36.2890   21.2853 C   0  0  0  0  0  0  0  0  0  0  0  0
  -26.2056  -33.7440   21.5316 C   0  0  0  0  0  0  0  0  0  0  0  0
  -26.1775  -29.2901   19.1218 C   0  0  0  0  0  0  0  0  0  0  0  0
  -24.1242   -7.9268   22.3138 C   0  0  0  0  0  0  0  0  0  0  0  0
  -23.8969   -9.4432   24.1809 C   0  0  0  0  0  0  0  0  0  0  0  0
  -27.3400  -28.5234   19.1874 C   0  0  0  0  0  0  0  0  0  0  0  0
  -21.3079   -6.5973   23.6306 C   0  0  0  0  0  0  0  0  0  0  0  0
  -20.3869   -5.6699   23.1436 C   0  0  0  0  0  0  0  0  0  0  0  0
  -26.3443  -27.1729   20.9207 C   0  0  0  0  0  0  0  0  0  0  0  0
  -22.0351   -3.9172   23.3640 C   0  0  0  0  0  0  0  0  0  0  0  0
  -29.5674  -19.9409   19.5886 C   0  0  0  0  0  0  0  0  0  0  0  0
  -24.5234  -10.2897   22.0066 C   0  0  0  0  0  0  0  0  0  0  0  0
  -24.0032  -12.1975   20.3950 C   0  0  0  0  0  0  0  0  0  0  0  0
  -24.4035  -35.3017   21.9938 C   0  0  0  0  0  0  0  0  0  0  0  0
  -25.0919  -29.0104   19.9642 C   0  0  0  0  0  0  0  0  0  0  0  0
  -24.9629  -34.0166   22.1282 C   0  0  0  0  0  0  0  0  0  0  0  0
  -25.1682  -27.9361   20.8620 C   0  0  0  0  0  0  0  0  0  0  0  0
  -23.8396   -8.1501   23.6609 C   0  0  0  0  0  0  0  0  0  0  0  0
  -27.4247  -27.4664   20.0889 C   0  0  0  0  0  0  0  0  0  0  0  0
  -22.5926   -6.1847   23.9843 C   0  0  0  0  0  0  0  0  0  0  0  0
  -20.7505   -4.3298   23.0103 C   0  0  0  0  0  0  0  0  0  0  0  0
  -22.9562   -4.8446   23.8510 C   0  0  0  0  0  0  0  0  0  0  0  0
  -30.0158  -18.6133   19.8467 C   0  0  0  0  0  0  0  0  0  0  0  0
  -24.8771  -11.3951   21.1527 C   0  0  0  0  0  0  0  0  0  0  0  0
  -24.8250  -13.0990   19.7639 C   0  0  0  0  0  0  0  0  0  0  0  0
  -30.3023  -20.8788   20.2799 C   0  0  0  0  0  0  0  0  0  0  0  0
  -31.0766  -18.5872   20.7254 C   0  0  0  0  0  0  0  0  0  0  0  0
  -28.4608  -25.3781   19.8981 C   0  0  0  0  0  0  0  0  0  1  0  0
  -22.5761  -12.1336   20.2726 C   0  0  0  0  0  0  0  0  0  0  0  0
  -29.5098  -24.5476   19.9352 C   0  0  0  0  0  0  0  0  0  0  0  0
  -29.2976  -23.0938   19.6358 C   0  0  0  0  0  0  0  0  0  0  0  0
  -23.5548  -30.6025   22.2460 C   0  0  0  0  0  0  0  0  0  0  0  0
  -21.5716  -28.0370   22.1592 C   0  0  0  0  0  0  0  0  0  0  0  0
  -21.1321  -24.7392   21.3986 C   0  0  0  0  0  0  0  0  0  0  0  0
  -30.1274  -15.2582   21.1634 C   0  0  0  0  0  0  0  0  0  0  0  0
  -23.0963  -35.6705   22.6495 C   0  0  0  0  0  0  0  0  0  0  0  0
  -23.8349  -29.8303   19.8625 C   0  0  0  0  0  0  0  0  0  0  0  0
  -24.0231  -27.5818   21.7740 C   0  0  0  0  0  0  0  0  0  0  0  0
  -22.2615  -34.4622   23.0658 C   0  0  0  0  0  0  0  0  0  0  0  0
  -29.2795  -13.5747   18.0877 C   0  0  0  0  0  0  0  0  0  0  0  0
  -23.1301  -33.4360   23.7865 C   0  0  0  0  0  0  0  0  0  0  0  0
  -27.9622  -12.8947   18.4640 C   0  0  0  0  0  0  0  0  0  0  0  0
  -30.2664  -13.5614   19.2524 C   0  0  0  0  0  0  0  0  0  0  0  0
  -28.4229  -13.4756   20.8874 C   0  0  0  0  0  0  0  0  0  0  0  0
  -24.2410  -32.9117   22.8686 C   0  0  1  0  0  0  0  0  0  0  0  0
  -22.9835  -29.7780   21.1272 C   0  0  1  0  0  0  0  0  0  0  0  0
  -27.3773  -13.4893   19.7584 C   0  0  2  0  0  0  0  0  0  0  0  0
  -19.4132  -22.9125   21.4736 C   0  0  0  0  0  0  0  0  0  0  0  0
  -21.9950  -27.7655   25.1686 C   0  0  0  0  0  0  0  0  0  0  0  0
  -21.0666  -25.4451   25.0195 C   0  0  0  0  0  0  0  0  0  0  0  0
  -19.6406  -27.3988   24.4091 C   0  0  0  0  0  0  0  0  0  0  0  0
  -21.2040  -24.3922   18.4604 C   0  0  0  0  0  0  0  0  0  0  0  0
  -21.5174  -26.7033   22.8644 C   0  0  1  0  0  0  0  0  0  0  0  0
  -20.0349  -24.0190   20.6358 C   0  0  2  0  0  0  0  0  0  0  0  0
  -21.0774  -26.8358   24.3497 C   0  0  0  0  0  0  0  0  0  0  0  0
  -26.1562  -11.7551   21.0167 N   0  0  0  0  0  0  0  0  0  0  0  0
  -26.0919  -12.7935   20.1660 N   0  0  0  0  0  0  0  0  0  0  0  0
  -22.8179  -28.4170   21.6414 N   0  0  0  0  0  0  0  0  0  0  0  0
  -29.6536  -14.1441   20.4518 N   0  0  0  0  0  0  0  0  0  0  0  0
  -24.5803  -14.1153   18.9096 N   0  0  0  0  0  0  0  0  0  0  0  0
  -21.8875  -11.1460   20.9900 N   0  0  0  0  0  0  0  0  0  0  0  0
  -30.2020  -22.2906   20.3168 N   0  0  0  0  0  0  0  0  0  0  0  0
  -23.7100  -31.9402   21.9365 N   0  0  0  0  0  0  0  0  0  0  0  0
  -20.6508  -25.8503   22.0583 N   0  0  0  0  0  0  0  0  0  0  0  0
  -31.3159  -15.9088   20.6825 N   0  0  0  0  0  0  0  0  0  0  0  0
  -20.5825  -23.4133   19.3892 N   0  3  0  0  0  0  0  0  0  0  0  0
  -21.9322  -12.9185   19.5357 O   0  0  0  0  0  0  0  0  0  0  0  0
  -28.4109  -22.7311   18.8703 O   0  0  0  0  0  0  0  0  0  0  0  0
  -23.8327  -30.0650   23.3116 O   0  0  0  0  0  0  0  0  0  0  0  0
  -20.5443  -28.7134   22.0648 O   0  0  0  0  0  0  0  0  0  0  0  0
  -22.2987  -24.3527   21.4113 O   0  0  0  0  0  0  0  0  0  0  0  0
  -29.5540  -15.6882   22.1650 O   0  0  0  0  0  0  0  0  0  0  0  0
  -33.3902  -17.4381   20.8912 O   0  0  0  0  0  0  0  0  0  0  0  0
  -31.8105  -17.2430   22.8432 O   0  0  0  0  0  0  0  0  0  0  0  0
  -30.7860  -24.9770   20.2379 O   0  0  0  0  0  0  0  0  0  0  0  0
  -23.5057   -7.1065   24.4683 O   0  0  0  0  0  0  0  0  0  0  0  0
  -28.5585  -26.7168   20.1554 O   0  0  0  0  0  0  0  0  0  1  0  0
  -19.8654   -3.4391   22.5441 F   0  0  0  0  0  0  0  0  0  0  0  0
  -24.1885   -4.4421   24.1902 F   0  0  0  0  0  0  0  0  0  0  0  0
  -29.4712  -17.5252   19.2995 F   0  0  0  0  0  0  0  0  0  0  0  0
  -31.5273  -20.1585   21.2353 S   0  0  0  0  0  0  0  0  0  0  0  0
  -32.0464  -17.2793   21.4128 S   0  0  0  0  0  0  0  0  0  0  0  0
  1  2  1  0  0  0  0
  1  5  2  0  0  0  0
  2  6  2  0  0  0  0
  3  8  2  0  0  0  0
  3 16  1  0  0  0  0
  4  9  1  0  0  0  0
  4 16  2  0  0  0  0
  5 18  1  0  0  0  0
  6 20  1  0  0  0  0
  7 10  2  0  0  0  0
  7 19  1  0  0  0  0
  8 22  1  0  0  0  0
  9 22  2  0  0  0  0
 10 23  1  0  0  0  0
 11 12  2  0  0  0  0
 11 24  1  0  0  0  0
 12 25  1  0  0  0  0
 13 21  1  0  0  0  0
 13 23  2  0  0  0  0
 14 25  2  0  0  0  0
 14 26  1  0  0  0  0
 15 27  1  0  0  0  0
 15 30  2  0  0  0  0
 16 28  1  0  0  0  0
 17 28  1  0  0  0  0
 17 29  2  0  0  0  0
 17 33  1  0  0  0  0
 18 20  2  0  0  0  0
 18 40  1  0  0  0  0
 19 21  2  0  0  0  0
 19 41  1  0  0  0  0
 20 49  1  0  0  0  0
 21 42  1  0  0  0  0
 22 80  1  0  0  0  0
 23 81  1  0  0  0  0
 24 26  2  0  0  0  0
 24 80  1  0  0  0  0
 25 82  1  0  0  0  0
 26 83  1  0  0  0  0
 27 31  2  0  0  0  0
 27 84  1  0  0  0  0
 28 60  2  0  0  0  0
 29 61  1  0  0  0  0
 29 64  1  0  0  0  0
 30 66  1  0  0  0  0
 30 85  1  0  0  0  0
 31 85  1  0  0  0  0
 31 86  1  0  0  0  0
 32 34  2  0  0  0  0
 32 81  1  0  0  0  0
 33 65  1  0  0  0  0
 33 71  2  0  0  0  0
 34 35  1  0  0  0  0
 34 79  1  0  0  0  0
 35 66  1  0  0  0  0
 35 72  2  0  0  0  0
 36 50  1  0  0  0  0
 36 67  1  0  0  0  0
 36 73  2  0  0  0  0
 37 57  1  0  0  0  0
 37 62  1  0  0  0  0
 37 74  2  0  0  0  0
 38 58  1  0  0  0  0
 38 68  1  0  0  0  0
 38 75  2  0  0  0  0
 39 63  1  0  0  0  0
 39 69  1  0  0  0  0
 39 76  2  0  0  0  0
 40 43  1  0  0  0  0
 41 50  1  0  0  0  0
 42 62  1  0  0  0  0
 43 45  1  0  0  0  0
 44 46  1  0  0  0  0
 44 47  1  0  0  0  0
 45 49  1  0  0  0  0
 46 51  1  0  0  0  0
 47 63  1  0  0  0  0
 48 51  1  0  0  0  0
 48 63  1  0  0  0  0
 49 67  1  0  0  0  0
 50 62  1  0  0  0  0
 51 61  1  0  0  0  0
 52 58  1  0  0  0  0
 53 59  1  0  0  0  0
 54 59  1  0  0  0  0
 55 59  1  0  0  0  0
 56 70  1  0  0  0  0
 57 59  1  0  0  0  0
 57 68  1  0  0  0  0
 58 70  1  0  0  0  0
 60 61  1  0  0  0  0
 69 86  1  0  0  0  0
 77 86  2  0  0  0  0
 78 86  2  0  0  0  0
M  CHG  1  70   1
M  ISO  4  32 101  39 100  69 100  81 101
M  END
> <Batch ID>
0175

> <Smiles>
CNC(C)C(=O)NC(C(=O)N1Cc2cc([101O:1][101CH2:1]C(=O)C(=O)Nc3cc(F)c(S(=O)(=O)[100NH:0][100C:0](=O)N4CCCC(n5nc(-c6ccc(Oc7ccc(F)cc7F)cc6)c(C(N)=O)c5N)C4)s3)ccc2CC1C(=O)NC1CCCc2ccccc21)C(C)(C)C

> <Shape>
0.325

> <Color>
0.115

> <Negative vol penalty>
0.000

$$$$

  -OEChem-04052304353D

 85 93  0     1  0  0  0  0  0999 V2000
  -29.0295  -17.1460   17.6284 C   0  0  0  0  0  0  0  0  0  0  0  0
  -29.0123  -17.9596   18.7568 C   0  0  0  0  0  0  0  0  0  0  0  0
  -23.4505   -9.7781   21.6520 C   0  0  0  0  0  0  0  0  0  0  0  0
  -24.0752  -10.9243   23.6850 C   0  0  0  0  0  0  0  0  0  0  0  0
  -29.5137  -17.6432   16.4192 C   0  0  0  0  0  0  0  0  0  0  0  0
  -29.4803  -19.2707   18.6767 C   0  0  0  0  0  0  0  0  0  0  0  0
  -26.4192  -22.5712   20.9965 C   0  0  0  0  0  0  0  0  0  0  0  0
  -22.8401   -8.7751   22.4050 C   0  0  0  0  0  0  0  0  0  0  0  0
  -23.4648   -9.9213   24.4380 C   0  0  0  0  0  0  0  0  0  0  0  0
  -26.4916  -22.6379   22.3872 C   0  0  0  0  0  0  0  0  0  0  0  0
  -21.4301   -5.7279   23.8014 C   0  0  0  0  0  0  0  0  0  0  0  0
  -21.6707   -4.4034   23.4362 C   0  0  0  0  0  0  0  0  0  0  0  0
  -27.8744  -24.6070   22.2147 C   0  0  0  0  0  0  0  0  0  0  0  0
  -24.0354   -4.7303   23.8084 C   0  0  0  0  0  0  0  0  0  0  0  0
  -24.0680  -10.8527   22.2920 C   0  0  0  0  0  0  0  0  0  0  0  0
  -24.1053  -13.0702   21.0314 C   0  0  0  0  0  0  0  0  0  0  0  0
  -29.9789  -18.9641   16.3219 C   0  0  0  0  0  0  0  0  0  0  0  0
  -27.0839  -23.5171   20.2029 C   0  0  0  0  0  0  0  0  0  0  0  0
  -29.9724  -19.7856   17.4653 C   0  0  0  0  0  0  0  0  0  0  0  0
  -27.8067  -24.5516   20.8142 C   0  0  0  0  0  0  0  0  0  0  0  0
  -22.8473   -8.8467   23.7980 C   0  0  0  0  0  0  0  0  0  0  0  0
  -27.2217  -23.6542   22.9965 C   0  0  0  0  0  0  0  0  0  0  0  0
  -22.4922   -6.5537   24.1700 C   0  0  0  0  0  0  0  0  0  0  0  0
  -22.9733   -3.9046   23.4398 C   0  0  0  0  0  0  0  0  0  0  0  0
  -23.7948   -6.0549   24.1736 C   0  0  0  0  0  0  0  0  0  0  0  0
  -24.6992  -11.8889   21.5147 C   0  0  0  0  0  0  0  0  0  0  0  0
  -32.1853  -18.5261   22.2075 C   0  0  0  0  0  0  0  0  0  0  0  0
  -25.1163  -13.7127   20.3595 C   0  0  0  0  0  0  0  0  0  0  0  0
  -31.1577  -18.9348   23.0316 C   0  0  0  0  0  0  0  0  0  0  0  0
  -30.8450  -16.8111   21.9386 C   0  0  0  0  0  0  0  0  0  0  0  0
  -22.7601  -13.5444   21.1769 C   0  0  0  0  0  0  0  0  0  0  0  0
  -30.0328  -21.7063   25.3189 C   0  0  0  0  0  0  0  0  0  0  0  0
  -29.8837  -20.3867   24.6168 C   0  0  0  0  0  0  0  0  0  0  0  0
  -29.4033  -23.3921   18.0330 C   0  0  0  0  0  0  0  0  0  0  0  0
  -28.7023  -26.5386   17.6712 C   0  0  0  0  0  0  0  0  0  0  0  0
  -27.3950  -29.3890   19.0176 C   0  0  0  0  0  0  0  0  0  0  0  0
  -30.8093  -14.6390   20.6631 C   0  0  0  0  0  0  0  0  0  0  0  0
  -30.5368  -19.4421   15.0048 C   0  0  0  0  0  0  0  0  0  0  0  0
  -26.9738  -23.4469   18.7045 C   0  0  0  0  0  0  0  0  0  0  0  0
  -28.5217  -25.6035   20.0075 C   0  0  0  0  0  0  0  0  0  0  0  0
  -30.6664  -20.9603   14.9133 C   0  0  0  0  0  0  0  0  0  0  0  0
  -29.4189  -12.3041   18.3627 C   0  0  0  0  0  0  0  0  0  0  0  0
  -31.3095  -21.5185   16.1789 C   0  0  0  0  0  0  0  0  0  0  0  0
  -28.0017  -12.0734   18.8923 C   0  0  0  0  0  0  0  0  0  0  0  0
  -30.4270  -12.4781   19.4972 C   0  0  0  0  0  0  0  0  0  0  0  0
  -28.6589  -13.2732   21.0173 C   0  0  0  0  0  0  0  0  0  0  0  0
  -30.4485  -21.2211   17.4124 C   0  0  1  0  0  0  0  0  0  0  0  0
  -28.1143  -24.1629   17.9874 C   0  0  1  0  0  0  0  0  0  0  0  0
  -27.5975  -13.1570   19.9112 C   0  0  2  0  0  0  0  0  0  0  0  0
  -33.4357  -19.2676   21.9443 C   0  0  0  0  0  0  0  0  0  0  0  0
  -26.9966  -31.8111   18.4961 C   0  0  0  0  0  0  0  0  0  0  0  0
  -31.6610  -27.1225   18.1346 C   0  0  0  0  0  0  0  0  0  0  0  0
  -31.0524  -29.5157   18.5478 C   0  0  0  0  0  0  0  0  0  0  0  0
  -30.6007  -28.4819   16.3229 C   0  0  0  0  0  0  0  0  0  0  0  0
  -24.4642  -29.0870   19.2977 C   0  0  0  0  0  0  0  0  0  0  0  0
  -28.8855  -22.1350   26.2051 C   0  0  0  0  0  0  0  0  0  0  0  0
  -28.7263  -23.6505   26.2781 C   0  0  0  0  0  0  0  0  0  0  0  0
  -28.4808  -24.2833   24.9134 C   0  0  0  0  0  0  0  0  0  1  0  0
  -29.1814  -27.8207   18.3080 C   0  0  1  0  0  0  0  0  0  0  0  0
  -26.4141  -30.4067   18.4639 C   0  0  2  0  0  0  0  0  0  0  0  0
  -30.6121  -28.2144   17.8438 C   0  0  0  0  0  0  0  0  0  0  0  0
  -25.9876  -11.7844   21.1783 N   0  0  0  0  0  0  0  0  0  0  0  0
  -32.0079  -17.3084   21.5802 N   0  0  0  0  0  0  0  0  0  0  0  0
  -26.2115  -12.9084   20.4763 N   0  0  0  0  0  0  0  0  0  0  0  0
  -28.3894  -25.4883   18.5458 N   0  0  0  0  0  0  0  0  0  0  0  0
  -29.9801  -13.5236   20.4203 N   0  0  0  0  0  0  0  0  0  0  0  0
  -25.1664  -14.8816   19.6860 N   0  0  0  0  0  0  0  0  0  0  0  0
  -21.8495  -12.7600   21.8980 N   0  0  0  0  0  0  0  0  0  0  0  0
  -30.9727  -20.0909   23.8252 N   0  0  0  0  0  0  0  0  0  0  0  0
  -30.2653  -15.5835   21.5329 N   0  0  0  0  0  0  0  0  0  0  0  0
  -29.3243  -22.1303   17.4752 N   0  0  0  0  0  0  0  0  0  0  0  0
  -28.1626  -28.8247   18.0208 N   0  0  0  0  0  0  0  0  0  0  0  0
  -25.1559  -30.4013   19.2626 N   0  3  0  0  0  0  0  0  0  0  0  0
  -22.3726  -14.6235   20.6682 O   0  0  0  0  0  0  0  0  0  0  0  0
  -31.0706  -22.3245   25.1350 O   0  0  0  0  0  0  0  0  0  0  0  0
  -28.8426  -19.7809   24.8098 O   0  0  0  0  0  0  0  0  0  0  0  0
  -30.3964  -23.9048   18.5356 O   0  0  0  0  0  0  0  0  0  0  0  0
  -28.6023  -26.4737   16.4434 O   0  0  0  0  0  0  0  0  0  0  0  0
  -27.4750  -29.1241   20.2151 O   0  0  0  0  0  0  0  0  0  0  0  0
  -31.9087  -14.7615   20.1169 O   0  0  0  0  0  0  0  0  0  0  0  0
  -22.2516   -7.8682   24.5331 O   0  0  0  0  0  0  0  0  0  0  0  0
  -27.2946  -23.7212   24.3537 O   0  0  0  0  0  0  0  0  0  1  0  0
  -23.2041   -2.6322   23.0906 F   0  0  0  0  0  0  0  0  0  0  0  0
  -24.8190   -6.8431   24.5279 F   0  0  0  0  0  0  0  0  0  0  0  0
  -29.9128  -17.7552   23.0271 S   0  0  0  0  0  0  0  0  0  0  0  0
  1  2  1  0  0  0  0
  1  5  2  0  0  0  0
  2  6  2  0  0  0  0
  3  8  2  0  0  0  0
  3 15  1  0  0  0  0
  4  9  1  0  0  0  0
  4 15  2  0  0  0  0
  5 17  1  0  0  0  0
  6 19  1  0  0  0  0
  7 10  2  0  0  0  0
  7 18  1  0  0  0  0
  8 21  1  0  0  0  0
  9 21  2  0  0  0  0
 10 22  1  0  0  0  0
 11 12  2  0  0  0  0
 11 23  1  0  0  0  0
 12 24  1  0  0  0  0
 13 20  1  0  0  0  0
 13 22  2  0  0  0  0
 14 24  2  0  0  0  0
 14 25  1  0  0  0  0
 15 26  1  0  0  0  0
 16 26  1  0  0  0  0
 16 28  2  0  0  0  0
 16 31  1  0  0  0  0
 17 19  2  0  0  0  0
 17 38  1  0  0  0  0
 18 20  2  0  0  0  0
 18 39  1  0  0  0  0
 19 47  1  0  0  0  0
 20 40  1  0  0  0  0
 21 81  1  0  0  0  0
 22 82  1  0  0  0  0
 23 25  2  0  0  0  0
 23 81  1  0  0  0  0
 24 83  1  0  0  0  0
 25 84  1  0  0  0  0
 26 62  2  0  0  0  0
 27 29  2  0  0  0  0
 27 50  1  0  0  0  0
 27 63  1  0  0  0  0
 28 64  1  0  0  0  0
 28 67  1  0  0  0  0
 29 69  1  0  0  0  0
 29 85  1  0  0  0  0
 30 63  2  0  0  0  0
 30 70  1  0  0  0  0
 30 85  1  0  0  0  0
 31 68  1  0  0  0  0
 31 74  2  0  0  0  0
 32 33  1  0  0  0  0
 32 56  1  0  0  0  0
 32 75  2  0  0  0  0
 33 69  1  0  0  0  0
 33 76  2  0  0  0  0
 34 48  1  0  0  0  0
 34 71  1  0  0  0  0
 34 77  2  0  0  0  0
 35 59  1  0  0  0  0
 35 65  1  0  0  0  0
 35 78  2  0  0  0  0
 36 60  1  0  0  0  0
 36 72  1  0  0  0  0
 36 79  2  0  0  0  0
 37 66  1  0  0  0  0
 37 70  1  0  0  0  0
 37 80  2  0  0  0  0
 38 41  1  0  0  0  0
 39 48  1  0  0  0  0
 40 65  1  0  0  0  0
 41 43  1  0  0  0  0
 42 44  1  0  0  0  0
 42 45  1  0  0  0  0
 43 47  1  0  0  0  0
 44 49  1  0  0  0  0
 45 66  1  0  0  0  0
 46 49  1  0  0  0  0
 46 66  1  0  0  0  0
 47 71  1  0  0  0  0
 48 65  1  0  0  0  0
 49 64  1  0  0  0  0
 51 60  1  0  0  0  0
 52 61  1  0  0  0  0
 53 61  1  0  0  0  0
 54 61  1  0  0  0  0
 55 73  1  0  0  0  0
 56 57  1  0  0  0  0
 57 58  1  0  0  0  0
 58 82  1  0  0  0  0
 59 61  1  0  0  0  0
 59 72  1  0  0  0  0
 60 73  1  0  0  0  0
 62 64  1  0  0  0  0
M  CHG  1  73   1
M  ISO  4  37 100  58 101  70 100  82 101
M  END
> <Batch ID>
0175

> <Smiles>
CNC(C)C(=O)NC(C(=O)N1Cc2cc([101O:1][101CH2:1]CCC(=O)C(=O)Nc3sc([100NH:0][100C:0](=O)N4CCCC(n5nc(-c6ccc(Oc7ccc(F)cc7F)cc6)c(C(N)=O)c5N)C4)nc3C)ccc2CC1C(=O)NC1CCCc2ccccc21)C(C)(C)C

> <Shape>
0.230

> <Color>
0.137

> <Negative vol penalty>
0.000

$$$$

  -OEChem-04052304353D

 86 94  0     1  0  0  0  0  0999 V2000
  -29.6160  -35.8043   20.9134 C   0  0  0  0  0  0  0  0  0  0  0  0
  -29.6541  -34.4148   20.9713 C   0  0  0  0  0  0  0  0  0  0  0  0
  -24.8565   -8.7247   21.0592 C   0  0  0  0  0  0  0  0  0  0  0  0
  -23.1627  -10.0643   19.9758 C   0  0  0  0  0  0  0  0  0  0  0  0
  -28.6135  -36.5017   21.5862 C   0  0  0  0  0  0  0  0  0  0  0  0
  -28.6903  -33.7219   21.7031 C   0  0  0  0  0  0  0  0  0  0  0  0
  -26.8646  -29.7132   19.2047 C   0  0  0  0  0  0  0  0  0  0  0  0
  -23.8785   -7.8171   21.4660 C   0  0  0  0  0  0  0  0  0  0  0  0
  -22.1847   -9.1568   20.3826 C   0  0  0  0  0  0  0  0  0  0  0  0
  -27.6567  -28.5663   19.1756 C   0  0  0  0  0  0  0  0  0  0  0  0
  -21.5278   -7.6074   23.8857 C   0  0  0  0  0  0  0  0  0  0  0  0
  -21.5722   -7.1559   25.2047 C   0  0  0  0  0  0  0  0  0  0  0  0
  -26.3226  -27.6075   20.9420 C   0  0  0  0  0  0  0  0  0  0  0  0
  -27.7292  -19.4594   17.9765 C   0  0  0  0  0  0  0  0  0  0  0  0
  -21.8242   -4.8852   24.4190 C   0  0  0  0  0  0  0  0  0  0  0  0
  -27.6419  -18.8221   15.2620 C   0  0  0  0  0  0  0  0  0  0  0  0
  -24.4986   -9.8483   20.3141 C   0  0  0  0  0  0  0  0  0  0  0  0
  -26.2504  -10.7578   18.6981 C   0  0  0  0  0  0  0  0  0  0  0  0
  -27.6313  -35.8165   22.3186 C   0  0  0  0  0  0  0  0  0  0  0  0
  -25.8005  -29.8206   20.1116 C   0  0  0  0  0  0  0  0  0  0  0  0
  -27.6745  -34.4109   22.3874 C   0  0  0  0  0  0  0  0  0  0  0  0
  -25.5170  -28.7558   20.9788 C   0  0  0  0  0  0  0  0  0  0  0  0
  -27.6490  -20.4752   17.0239 C   0  0  0  0  0  0  0  0  0  0  0  0
  -27.7659  -18.1250   17.5719 C   0  0  0  0  0  0  0  0  0  0  0  0
  -22.5426   -8.0332   21.1277 C   0  0  0  0  0  0  0  0  0  0  0  0
  -27.3876  -27.5144   20.0463 C   0  0  0  0  0  0  0  0  0  0  0  0
  -21.6315   -6.6978   22.8333 C   0  0  0  0  0  0  0  0  0  0  0  0
  -21.7204   -5.7948   25.4714 C   0  0  0  0  0  0  0  0  0  0  0  0
  -27.6053  -20.1565   15.6666 C   0  0  0  0  0  0  0  0  0  0  0  0
  -27.7222  -17.8064   16.2146 C   0  0  0  0  0  0  0  0  0  0  0  0
  -21.7797   -5.3367   23.0999 C   0  0  0  0  0  0  0  0  0  0  0  0
  -25.5083  -10.7864   19.8940 C   0  0  0  0  0  0  0  0  0  0  0  0
  -27.0694  -11.8577   18.7758 C   0  0  0  0  0  0  0  0  0  0  0  0
  -26.2036   -9.8209   17.6138 C   0  0  0  0  0  0  0  0  0  0  0  0
  -27.5929  -23.7986   18.7872 C   0  0  0  0  0  0  0  0  0  0  0  0
  -27.6536  -22.2994   18.7311 C   0  0  0  0  0  0  0  0  0  0  0  0
  -25.0980  -31.7660   22.5252 C   0  0  0  0  0  0  0  0  0  0  0  0
  -22.2962  -30.1314   22.5159 C   0  0  0  0  0  0  0  0  0  0  0  0
  -20.6122  -27.2730   21.7153 C   0  0  0  0  0  0  0  0  0  0  0  0
  -27.8982  -17.2419   19.9275 C   0  0  0  0  0  0  0  0  0  0  0  0
  -26.5951  -36.6159   23.0682 C   0  0  0  0  0  0  0  0  0  0  0  0
  -24.9390  -31.0535   20.1121 C   0  0  0  0  0  0  0  0  0  0  0  0
  -24.3737  -28.8131   21.9576 C   0  0  0  0  0  0  0  0  0  0  0  0
  -25.3921  -35.7883   23.5133 C   0  0  0  0  0  0  0  0  0  0  0  0
  -28.0641  -14.9565   22.6527 C   0  0  0  0  0  0  0  0  0  0  0  0
  -25.8502  -34.4809   24.1517 C   0  0  0  0  0  0  0  0  0  0  0  0
  -27.4750  -13.6655   22.0795 C   0  0  0  0  0  0  0  0  0  0  0  0
  -27.3497  -16.1943   22.1131 C   0  0  0  0  0  0  0  0  0  0  0  0
  -26.6769  -14.9831   20.0760 C   0  0  0  0  0  0  0  0  0  0  0  0
  -26.6323  -33.6224   23.1503 C   0  0  1  0  0  0  0  0  0  0  0  0
  -24.1997  -31.2654   21.4297 C   0  0  1  0  0  0  0  0  0  0  0  0
  -27.4065  -13.7120   20.5405 C   0  0  2  0  0  0  0  0  0  0  0  0
  -18.3407  -26.2172   21.8657 C   0  0  0  0  0  0  0  0  0  0  0  0
  -22.7488  -29.5860   25.4837 C   0  0  0  0  0  0  0  0  0  0  0  0
  -21.0118  -27.7881   25.3469 C   0  0  0  0  0  0  0  0  0  0  0  0
  -20.3913  -30.1579   24.8758 C   0  0  0  0  0  0  0  0  0  0  0  0
  -20.3899  -27.0572   18.7720 C   0  0  0  0  0  0  0  0  0  0  0  0
  -28.9156  -24.5280   18.7013 C   0  0  0  0  0  0  0  0  0  0  0  0
  -28.7463  -26.0382   18.7692 C   0  0  0  0  0  0  0  0  0  1  0  0
  -21.7842  -28.8836   23.1941 C   0  0  1  0  0  0  0  0  0  0  0  0
  -19.2855  -27.0489   21.0123 C   0  0  2  0  0  0  0  0  0  0  0  0
  -21.5068  -29.1033   24.7081 C   0  0  0  0  0  0  0  0  0  0  0  0
  -25.8278  -11.8223   20.6744 N   0  0  0  0  0  0  0  0  0  0  0  0
  -26.7797  -12.4547   19.9674 N   0  0  0  0  0  0  0  0  0  0  0  0
  -23.5641  -30.0424   21.9241 N   0  0  0  0  0  0  0  0  0  0  0  0
  -27.3272  -16.1721   20.6489 N   0  0  0  0  0  0  0  0  0  0  0  0
  -28.0021  -12.3626   17.9406 N   0  0  0  0  0  0  0  0  0  0  0  0
  -25.3044   -8.7489   17.6955 N   0  0  0  0  0  0  0  0  0  0  0  0
  -27.6116  -21.8273   17.4370 N   0  0  0  0  0  0  0  0  0  0  0  0
  -27.8470  -17.0952   18.5417 N   0  0  0  0  0  0  0  0  0  0  0  0
  -25.7264  -32.9620   22.2351 N   0  0  0  0  0  0  0  0  0  0  0  0
  -20.6188  -28.4524   22.4296 N   0  0  0  0  0  0  0  0  0  0  0  0
  -19.4980  -26.3397   19.7189 N   0  3  0  0  0  0  0  0  0  0  0  0
  -26.9489   -9.9219   16.6099 O   0  0  0  0  0  0  0  0  0  0  0  0
  -26.4880  -24.3105   18.8856 O   0  0  0  0  0  0  0  0  0  0  0  0
  -27.7552  -21.7166   19.7978 O   0  0  0  0  0  0  0  0  0  0  0  0
  -25.2113  -31.1162   23.5579 O   0  0  0  0  0  0  0  0  0  0  0  0
  -21.5939  -31.1454   22.5052 O   0  0  0  0  0  0  0  0  0  0  0  0
  -21.5477  -26.4793   21.6413 O   0  0  0  0  0  0  0  0  0  0  0  0
  -28.4202  -18.2035   20.4974 O   0  0  0  0  0  0  0  0  0  0  0  0
  -21.5880   -7.1477   21.5243 O   0  0  0  0  0  0  0  0  0  0  0  0
  -28.1596  -26.3940   20.0205 O   0  0  0  0  0  0  0  0  0  1  0  0
  -21.7646   -5.3616   26.7380 F   0  0  0  0  0  0  0  0  0  0  0  0
  -27.5281  -21.1242   14.7420 F   0  0  0  0  0  0  0  0  0  0  0  0
  -27.7568  -16.5275   15.8138 F   0  0  0  0  0  0  0  0  0  0  0  0
  -21.8810   -4.4582   22.0931 F   0  0  0  0  0  0  0  0  0  0  0  0
  1  2  1  0  0  0  0
  1  5  2  0  0  0  0
  2  6  2  0  0  0  0
  3  8  2  0  0  0  0
  3 17  1  0  0  0  0
  4  9  1  0  0  0  0
  4 17  2  0  0  0  0
  5 19  1  0  0  0  0
  6 21  1  0  0  0  0
  7 10  2  0  0  0  0
  7 20  1  0  0  0  0
  8 25  1  0  0  0  0
  9 25  2  0  0  0  0
 10 26  1  0  0  0  0
 11 12  2  0  0  0  0
 11 27  1  0  0  0  0
 12 28  1  0  0  0  0
 13 22  1  0  0  0  0
 13 26  2  0  0  0  0
 14 23  1  0  0  0  0
 14 24  2  0  0  0  0
 15 28  2  0  0  0  0
 15 31  1  0  0  0  0
 16 29  1  0  0  0  0
 16 30  2  0  0  0  0
 17 32  1  0  0  0  0
 18 32  1  0  0  0  0
 18 33  2  0  0  0  0
 18 34  1  0  0  0  0
 19 21  2  0  0  0  0
 19 41  1  0  0  0  0
 20 22  2  0  0  0  0
 20 42  1  0  0  0  0
 21 50  1  0  0  0  0
 22 43  1  0  0  0  0
 23 29  2  0  0  0  0
 23 69  1  0  0  0  0
 24 30  1  0  0  0  0
 24 70  1  0  0  0  0
 25 81  1  0  0  0  0
 26 82  1  0  0  0  0
 27 31  2  0  0  0  0
 27 81  1  0  0  0  0
 28 83  1  0  0  0  0
 29 84  1  0  0  0  0
 30 85  1  0  0  0  0
 31 86  1  0  0  0  0
 32 63  2  0  0  0  0
 33 64  1  0  0  0  0
 33 67  1  0  0  0  0
 34 68  1  0  0  0  0
 34 74  2  0  0  0  0
 35 36  1  0  0  0  0
 35 58  1  0  0  0  0
 35 75  2  0  0  0  0
 36 69  1  0  0  0  0
 36 76  2  0  0  0  0
 37 51  1  0  0  0  0
 37 71  1  0  0  0  0
 37 77  2  0  0  0  0
 38 60  1  0  0  0  0
 38 65  1  0  0  0  0
 38 78  2  0  0  0  0
 39 61  1  0  0  0  0
 39 72  1  0  0  0  0
 39 79  2  0  0  0  0
 40 66  1  0  0  0  0
 40 70  1  0  0  0  0
 40 80  2  0  0  0  0
 41 44  1  0  0  0  0
 42 51  1  0  0  0  0
 43 65  1  0  0  0  0
 44 46  1  0  0  0  0
 45 47  1  0  0  0  0
 45 48  1  0  0  0  0
 46 50  1  0  0  0  0
 47 52  1  0  0  0  0
 48 66  1  0  0  0  0
 49 52  1  0  0  0  0
 49 66  1  0  0  0  0
 50 71  1  0  0  0  0
 51 65  1  0  0  0  0
 52 64  1  0  0  0  0
 53 61  1  0  0  0  0
 54 62  1  0  0  0  0
 55 62  1  0  0  0  0
 56 62  1  0  0  0  0
 57 73  1  0  0  0  0
 58 59  1  0  0  0  0
 59 82  1  0  0  0  0
 60 62  1  0  0  0  0
 60 72  1  0  0  0  0
 61 73  1  0  0  0  0
 63 64  1  0  0  0  0
M  CHG  1  73   1
M  ISO  4  40 100  59 101  70 100  82 101
M  END
> <Batch ID>
0175

> <Smiles>
CNC(C)C(=O)NC(C(=O)N1Cc2cc([101O:1][101CH2:1]CC(=O)C(=O)Nc3cc([100NH:0][100C:0](=O)N4CCCC(n5nc(-c6ccc(Oc7ccc(F)cc7F)cc6)c(C(N)=O)c5N)C4)c(F)cc3F)ccc2CC1C(=O)NC1CCCc2ccccc21)C(C)(C)C

> <Shape>
0.309

> <Color>
0.109

> <Negative vol penalty>
0.000

$$$$

  -OEChem-04052304353D

 86 94  0     1  0  0  0  0  0999 V2000
  -29.5102  -34.2750   24.5732 C   0  0  0  0  0  0  0  0  0  0  0  0
  -29.3665  -32.9413   24.2048 C   0  0  0  0  0  0  0  0  0  0  0  0
  -24.8716   -8.6923   21.1339 C   0  0  0  0  0  0  0  0  0  0  0  0
  -23.1846   -9.8749   19.8720 C   0  0  0  0  0  0  0  0  0  0  0  0
  -28.3913  -35.0186   24.9460 C   0  0  0  0  0  0  0  0  0  0  0  0
  -28.1037  -32.3499   24.2099 C   0  0  0  0  0  0  0  0  0  0  0  0
  -27.2421  -29.5728   20.0638 C   0  0  0  0  0  0  0  0  0  0  0  0
  -24.3662  -20.0965   17.4589 C   0  0  0  0  0  0  0  0  0  0  0  0
  -23.9098   -7.7774   21.5623 C   0  0  0  0  0  0  0  0  0  0  0  0
  -22.2228   -8.9600   20.3004 C   0  0  0  0  0  0  0  0  0  0  0  0
  -27.8263  -28.3079   20.0119 C   0  0  0  0  0  0  0  0  0  0  0  0
  -21.4500   -7.6502   23.8768 C   0  0  0  0  0  0  0  0  0  0  0  0
  -23.3347  -19.3584   18.0392 C   0  0  0  0  0  0  0  0  0  0  0  0
  -21.4451   -7.3007   25.2272 C   0  0  0  0  0  0  0  0  0  0  0  0
  -25.7250  -27.3174   20.6620 C   0  0  0  0  0  0  0  0  0  0  0  0
  -21.8232   -4.9903   24.6305 C   0  0  0  0  0  0  0  0  0  0  0  0
  -24.5090   -9.7411   20.2888 C   0  0  0  0  0  0  0  0  0  0  0  0
  -26.3039  -10.6003   18.6926 C   0  0  0  0  0  0  0  0  0  0  0  0
  -27.1128  -34.4387   24.9464 C   0  0  0  0  0  0  0  0  0  0  0  0
  -25.8956  -29.7206   20.4264 C   0  0  0  0  0  0  0  0  0  0  0  0
  -26.9667  -33.0860   24.5843 C   0  0  0  0  0  0  0  0  0  0  0  0
  -25.1254  -28.5850   20.7153 C   0  0  0  0  0  0  0  0  0  0  0  0
  -25.6898  -19.8534   17.8260 C   0  0  0  0  0  0  0  0  0  0  0  0
  -24.9502  -18.1341   19.3538 C   0  0  0  0  0  0  0  0  0  0  0  0
  -22.5854   -7.9112   21.1455 C   0  0  0  0  0  0  0  0  0  0  0  0
  -27.0685  -27.1803   20.3139 C   0  0  0  0  0  0  0  0  0  0  0  0
  -21.6414   -6.6697   22.9033 C   0  0  0  0  0  0  0  0  0  0  0  0
  -21.6317   -5.9708   25.6040 C   0  0  0  0  0  0  0  0  0  0  0  0
  -23.6266  -18.3772   18.9866 C   0  0  0  0  0  0  0  0  0  0  0  0
  -21.8280   -5.3398   23.2801 C   0  0  0  0  0  0  0  0  0  0  0  0
  -25.9818  -18.8722   18.7735 C   0  0  0  0  0  0  0  0  0  0  0  0
  -25.5019  -10.6869   19.8464 C   0  0  0  0  0  0  0  0  0  0  0  0
  -27.0752  -11.7364   18.7246 C   0  0  0  0  0  0  0  0  0  0  0  0
  -27.1072  -25.0272   19.4008 C   0  0  0  0  0  0  0  0  0  1  0  0
  -26.3477   -9.5839   17.6823 C   0  0  0  0  0  0  0  0  0  0  0  0
  -27.5276  -23.7666   19.2123 C   0  0  0  0  0  0  0  0  0  0  0  0
  -26.8002  -22.9269   18.2074 C   0  0  0  0  0  0  0  0  0  0  0  0
  -24.3579  -31.1727   22.7993 C   0  0  0  0  0  0  0  0  0  0  0  0
  -21.7297  -30.3002   21.1100 C   0  0  0  0  0  0  0  0  0  0  0  0
  -20.3204  -28.1870   18.8307 C   0  0  0  0  0  0  0  0  0  0  0  0
  -26.3163  -17.1171   21.2101 C   0  0  0  0  0  0  0  0  0  0  0  0
  -25.9393  -35.2691   25.4025 C   0  0  0  0  0  0  0  0  0  0  0  0
  -25.2733  -31.0897   20.4517 C   0  0  0  0  0  0  0  0  0  0  0  0
  -23.6704  -28.6881   21.0903 C   0  0  0  0  0  0  0  0  0  0  0  0
  -24.5866  -34.6732   25.0210 C   0  0  0  0  0  0  0  0  0  0  0  0
  -29.0107  -14.8635   21.7920 C   0  0  0  0  0  0  0  0  0  0  0  0
  -24.5477  -33.1840   25.3490 C   0  0  0  0  0  0  0  0  0  0  0  0
  -28.4920  -13.5302   21.2486 C   0  0  0  0  0  0  0  0  0  0  0  0
  -27.9021  -15.6719   22.4638 C   0  0  0  0  0  0  0  0  0  0  0  0
  -26.1848  -14.5508   21.0989 C   0  0  0  0  0  0  0  0  0  0  0  0
  -25.6102  -32.4159   24.5534 C   0  0  1  0  0  0  0  0  0  0  0  0
  -24.0302  -31.1648   21.3329 C   0  0  1  0  0  0  0  0  0  0  0  0
  -27.2515  -13.7298   20.3560 C   0  0  2  0  0  0  0  0  0  0  0  0
  -18.1447  -27.6978   17.6800 C   0  0  0  0  0  0  0  0  0  0  0  0
  -20.6760  -28.9991   23.6608 C   0  0  0  0  0  0  0  0  0  0  0  0
  -19.0233  -27.7478   22.2568 C   0  0  0  0  0  0  0  0  0  0  0  0
  -18.9562  -30.2401   22.3355 C   0  0  0  0  0  0  0  0  0  0  0  0
  -21.4825  -28.7091   16.1594 C   0  0  0  0  0  0  0  0  0  0  0  0
  -26.7976  -20.6493   17.1988 C   0  0  0  0  0  0  0  0  0  0  0  0
  -20.8282  -29.0896   21.0850 C   0  0  1  0  0  0  0  0  0  0  0  0
  -19.4629  -28.4525   17.6065 C   0  0  2  0  0  0  0  0  0  0  0  0
  -19.8988  -29.0170   22.3294 C   0  0  0  0  0  0  0  0  0  0  0  0
  -25.7416  -11.7906   20.5594 N   0  0  0  0  0  0  0  0  0  0  0  0
  -26.7030  -12.4080   19.8518 N   0  0  0  0  0  0  0  0  0  0  0  0
  -23.1091  -30.0490   21.1072 N   0  0  0  0  0  0  0  0  0  0  0  0
  -26.7617  -15.8242   21.5576 N   0  0  0  0  0  0  0  0  0  0  0  0
  -28.0287  -12.2163   17.8982 N   0  0  0  0  0  0  0  0  0  0  0  0
  -25.4873   -8.4842   17.8032 N   0  0  0  0  0  0  0  0  0  0  0  0
  -25.2460  -17.1373   20.3165 N   0  0  0  0  0  0  0  0  0  0  0  0
  -27.3229  -21.6495   18.1008 N   0  0  0  0  0  0  0  0  0  0  0  0
  -25.1740  -32.2180   23.1878 N   0  0  0  0  0  0  0  0  0  0  0  0
  -20.1186  -29.1353   19.8111 N   0  0  0  0  0  0  0  0  0  0  0  0
  -20.1792  -28.0282   16.3705 N   0  3  0  0  0  0  0  0  0  0  0  0
  -27.1382   -9.6410   16.7101 O   0  0  0  0  0  0  0  0  0  0  0  0
  -25.8475  -23.3562   17.5627 O   0  0  0  0  0  0  0  0  0  0  0  0
  -23.9028  -30.2962   23.5248 O   0  0  0  0  0  0  0  0  0  0  0  0
  -21.2286  -31.4272   21.1240 O   0  0  0  0  0  0  0  0  0  0  0  0
  -21.0895  -27.2316   18.9108 O   0  0  0  0  0  0  0  0  0  0  0  0
  -26.8629  -18.1318   21.6499 O   0  0  0  0  0  0  0  0  0  0  0  0
  -28.5862  -23.1930   19.8818 O   0  0  0  0  0  0  0  0  0  0  0  0
  -21.6467   -7.0184   21.5631 O   0  0  0  0  0  0  0  0  0  0  0  0
  -27.6364  -25.9446   20.2646 O   0  0  0  0  0  0  0  0  0  1  0  0
  -21.6286   -5.6355   26.9009 F   0  0  0  0  0  0  0  0  0  0  0  0
  -22.6274  -17.6740   19.5381 F   0  0  0  0  0  0  0  0  0  0  0  0
  -22.0135   -4.3936   22.3495 F   0  0  0  0  0  0  0  0  0  0  0  0
  -27.2554  -18.6397   19.1248 F   0  0  0  0  0  0  0  0  0  0  0  0
  1  2  1  0  0  0  0
  1  5  2  0  0  0  0
  2  6  2  0  0  0  0
  3  9  2  0  0  0  0
  3 17  1  0  0  0  0
  4 10  1  0  0  0  0
  4 17  2  0  0  0  0
  5 19  1  0  0  0  0
  6 21  1  0  0  0  0
  7 11  2  0  0  0  0
  7 20  1  0  0  0  0
  8 13  2  0  0  0  0
  8 23  1  0  0  0  0
  9 25  1  0  0  0  0
 10 25  2  0  0  0  0
 11 26  1  0  0  0  0
 12 14  2  0  0  0  0
 12 27  1  0  0  0  0
 13 29  1  0  0  0  0
 14 28  1  0  0  0  0
 15 22  1  0  0  0  0
 15 26  2  0  0  0  0
 16 28  2  0  0  0  0
 16 30  1  0  0  0  0
 17 32  1  0  0  0  0
 18 32  1  0  0  0  0
 18 33  2  0  0  0  0
 18 35  1  0  0  0  0
 19 21  2  0  0  0  0
 19 42  1  0  0  0  0
 20 22  2  0  0  0  0
 20 43  1  0  0  0  0
 21 51  1  0  0  0  0
 22 44  1  0  0  0  0
 23 31  2  0  0  0  0
 23 59  1  0  0  0  0
 24 29  2  0  0  0  0
 24 31  1  0  0  0  0
 24 69  1  0  0  0  0
 25 81  1  0  0  0  0
 26 82  1  0  0  0  0
 27 30  2  0  0  0  0
 27 81  1  0  0  0  0
 28 83  1  0  0  0  0
 29 84  1  0  0  0  0
 30 85  1  0  0  0  0
 31 86  1  0  0  0  0
 32 63  2  0  0  0  0
 33 64  1  0  0  0  0
 33 67  1  0  0  0  0
 34 36  2  0  0  0  0
 34 82  1  0  0  0  0
 35 68  1  0  0  0  0
 35 74  2  0  0  0  0
 36 37  1  0  0  0  0
 36 80  1  0  0  0  0
 37 70  1  0  0  0  0
 37 75  2  0  0  0  0
 38 52  1  0  0  0  0
 38 71  1  0  0  0  0
 38 76  2  0  0  0  0
 39 60  1  0  0  0  0
 39 65  1  0  0  0  0
 39 77  2  0  0  0  0
 40 61  1  0  0  0  0
 40 72  1  0  0  0  0
 40 78  2  0  0  0  0
 41 66  1  0  0  0  0
 41 69  1  0  0  0  0
 41 79  2  0  0  0  0
 42 45  1  0  0  0  0
 43 52  1  0  0  0  0
 44 65  1  0  0  0  0
 45 47  1  0  0  0  0
 46 48  1  0  0  0  0
 46 49  1  0  0  0  0
 47 51  1  0  0  0  0
 48 53  1  0  0  0  0
 49 66  1  0  0  0  0
 50 53  1  0  0  0  0
 50 66  1  0  0  0  0
 51 71  1  0  0  0  0
 52 65  1  0  0  0  0
 53 64  1  0  0  0  0
 54 61  1  0  0  0  0
 55 62  1  0  0  0  0
 56 62  1  0  0  0  0
 57 62  1  0  0  0  0
 58 73  1  0  0  0  0
 59 70  1  0  0  0  0
 60 62  1  0  0  0  0
 60 72  1  0  0  0  0
 61 73  1  0  0  0  0
 63 64  1  0  0  0  0
M  CHG  1  73   1
M  ISO  4  34 101  41 100  69 100  82 101
M  END
> <Batch ID>
0175

> <Smiles>
CNC(C)C(=O)NC(C(=O)N1Cc2cc([101O:1][101CH2:1]C(=O)C(=O)NCc3ccc(F)c([100NH:0][100C:0](=O)N4CCCC(n5nc(-c6ccc(Oc7ccc(F)cc7F)cc6)c(C(N)=O)c5N)C4)c3F)ccc2CC1C(=O)NC1CCCc2ccccc21)C(C)(C)C

> <Shape>
0.285

> <Color>
0.092

> <Negative vol penalty>
0.000

$$$$

  -OEChem-04052304353D

 87 95  0     1  0  0  0  0  0999 V2000
  -17.2590  -30.3243   23.0973 C   0  0  0  0  0  0  0  0  0  0  0  0
  -18.5558  -30.6709   22.7318 C   0  0  0  0  0  0  0  0  0  0  0  0
  -26.0373  -12.9792   21.8263 C   0  0  0  0  0  0  0  0  0  0  0  0
  -25.3422  -14.1295   19.8186 C   0  0  0  0  0  0  0  0  0  0  0  0
  -17.0059  -29.0761   23.6646 C   0  0  0  0  0  0  0  0  0  0  0  0
  -19.6005  -29.7698   22.9344 C   0  0  0  0  0  0  0  0  0  0  0  0
  -24.5293  -28.9889   19.3844 C   0  0  0  0  0  0  0  0  0  0  0  0
  -24.9093  -12.1624   21.7489 C   0  0  0  0  0  0  0  0  0  0  0  0
  -24.2142  -13.3126   19.7411 C   0  0  0  0  0  0  0  0  0  0  0  0
  -25.8371  -29.4630   19.4777 C   0  0  0  0  0  0  0  0  0  0  0  0
  -23.9166   -9.4459   19.9972 C   0  0  0  0  0  0  0  0  0  0  0  0
  -24.0921   -8.0774   20.2014 C   0  0  0  0  0  0  0  0  0  0  0  0
  -26.5018  -27.4024   20.5414 C   0  0  0  0  0  0  0  0  0  0  0  0
  -22.5764   -8.1635   22.0809 C   0  0  0  0  0  0  0  0  0  0  0  0
  -30.5436  -24.0472   17.4972 C   0  0  0  0  0  0  0  0  0  0  0  0
  -29.6695  -21.8486   17.9288 C   0  0  0  0  0  0  0  0  0  0  0  0
  -26.2537  -13.9629   20.8612 C   0  0  0  0  0  0  0  0  0  0  0  0
  -28.6817  -14.5697   20.3671 C   0  0  0  0  0  0  0  0  0  0  0  0
  -18.0465  -28.1555   23.8654 C   0  0  0  0  0  0  0  0  0  0  0  0
  -24.1951  -27.7202   19.8796 C   0  0  0  0  0  0  0  0  0  0  0  0
  -19.3613  -28.5087   23.5062 C   0  0  0  0  0  0  0  0  0  0  0  0
  -25.1896  -26.9135   20.4508 C   0  0  0  0  0  0  0  0  0  0  0  0
  -23.9978  -12.3290   20.7063 C   0  0  0  0  0  0  0  0  0  0  0  0
  -26.8230  -28.6709   20.0589 C   0  0  0  0  0  0  0  0  0  0  0  0
  -23.0710  -10.1733   20.8348 C   0  0  0  0  0  0  0  0  0  0  0  0
  -23.4220   -7.4361   21.2432 C   0  0  0  0  0  0  0  0  0  0  0  0
  -22.4009   -9.5321   21.8766 C   0  0  0  0  0  0  0  0  0  0  0  0
  -30.1511  -22.7967   17.0330 C   0  0  0  0  0  0  0  0  0  0  0  0
  -27.4184  -14.8074   20.9410 C   0  0  0  0  0  0  0  0  0  0  0  0
  -30.4357  -24.2980   18.8556 C   0  0  0  0  0  0  0  0  0  0  0  0
  -29.6008  -22.1978   19.2679 C   0  0  0  0  0  0  0  0  0  0  0  0
  -29.4343  -15.6598   20.7301 C   0  0  0  0  0  0  0  0  0  0  0  0
  -29.1344  -13.4625   19.5766 C   0  0  0  0  0  0  0  0  0  0  0  0
  -22.2406  -26.6383   22.1408 C   0  0  0  0  0  0  0  0  0  0  0  0
  -30.4066  -28.7571   19.5260 C   0  0  0  0  0  0  0  0  0  0  0  0
  -23.1107  -23.7441   20.9623 C   0  0  0  0  0  0  0  0  0  0  0  0
  -25.4125  -21.8786   19.2687 C   0  0  0  0  0  0  0  0  0  0  0  0
  -31.3366  -26.6281   18.5655 C   0  0  0  0  0  0  0  0  0  0  0  0
  -28.9537  -21.3566   21.5526 C   0  0  0  0  0  0  0  0  0  0  0  0
  -17.7316  -26.8366   24.5256 C   0  0  0  0  0  0  0  0  0  0  0  0
  -22.7854  -27.2127   19.7472 C   0  0  0  0  0  0  0  0  0  0  0  0
  -24.8867  -25.5360   20.9792 C   0  0  0  0  0  0  0  0  0  0  0  0
  -18.8351  -25.7946   24.3618 C   0  0  0  0  0  0  0  0  0  0  0  0
  -29.1187  -19.0837   24.2883 C   0  0  0  0  0  0  0  0  0  0  0  0
  -20.1985  -26.4092   24.6626 C   0  0  0  0  0  0  0  0  0  0  0  0
  -28.8208  -17.7253   23.6495 C   0  0  0  0  0  0  0  0  0  0  0  0
  -28.2952  -20.2023   23.6524 C   0  0  0  0  0  0  0  0  0  0  0  0
  -28.0950  -18.9321   21.5510 C   0  0  0  0  0  0  0  0  0  0  0  0
  -20.5172  -27.5488   23.6873 C   0  0  1  0  0  0  0  0  0  0  0  0
  -22.4500  -26.1121   20.7490 C   0  0  1  0  0  0  0  0  0  0  0  0
  -28.9484  -17.7842   22.1147 C   0  0  2  0  0  0  0  0  0  0  0  0
  -25.8643  -19.5343   18.4955 C   0  0  0  0  0  0  0  0  0  0  0  0
  -23.8798  -22.9563   23.8080 C   0  0  0  0  0  0  0  0  0  0  0  0
  -25.1717  -21.0362   22.8528 C   0  0  0  0  0  0  0  0  0  0  0  0
  -22.7041  -21.1692   22.5124 C   0  0  0  0  0  0  0  0  0  0  0  0
  -25.4385  -22.6978   16.4249 C   0  0  0  0  0  0  0  0  0  0  0  0
  -29.1450  -28.1603   20.1155 C   0  0  0  0  0  0  0  0  0  1  0  0
  -24.2161  -22.7587   21.2558 C   0  0  1  0  0  0  0  0  0  0  0  0
  -25.2631  -20.8832   18.1323 C   0  0  2  0  0  0  0  0  0  0  0  0
  -31.6142  -27.8444   19.4300 C   0  0  0  0  0  0  0  0  0  0  0  0
  -23.9985  -22.0068   22.5991 C   0  0  0  0  0  0  0  0  0  0  0  0
  -27.3675  -15.9581   21.6172 N   0  0  0  0  0  0  0  0  0  0  0  0
  -29.9727  -23.4023   19.7561 N   0  0  0  0  0  0  0  0  0  0  0  0
  -28.6083  -16.4531   21.4707 N   0  0  0  0  0  0  0  0  0  0  0  0
  -23.4923  -25.0870   20.8325 N   0  0  0  0  0  0  0  0  0  0  0  0
  -28.4688  -20.1994   22.1982 N   0  0  0  0  0  0  0  0  0  0  0  0
  -30.7154  -16.0075   20.4849 N   0  0  0  0  0  0  0  0  0  0  0  0
  -28.2316  -12.4276   19.2972 N   0  0  0  0  0  0  0  0  0  0  0  0
  -30.8370  -25.5732   19.3177 N   0  0  0  0  0  0  0  0  0  0  0  0
  -29.1086  -21.2250   20.1730 N   0  0  0  0  0  0  0  0  0  0  0  0
  -20.9390  -27.0171   22.4091 N   0  0  0  0  0  0  0  0  0  0  0  0
  -24.3050  -21.8860   20.0901 N   0  0  0  0  0  0  0  0  0  0  0  0
  -25.9468  -21.3882   16.9082 N   0  3  0  0  0  0  0  0  0  0  0  0
  -30.3097  -13.3852   19.1450 O   0  0  0  0  0  0  0  0  0  0  0  0
  -23.1892  -26.6950   22.9144 O   0  0  0  0  0  0  0  0  0  0  0  0
  -30.4697  -29.9329   19.1681 O   0  0  0  0  0  0  0  0  0  0  0  0
  -21.9524  -23.3363   20.8453 O   0  0  0  0  0  0  0  0  0  0  0  0
  -26.4132  -22.5768   19.4154 O   0  0  0  0  0  0  0  0  0  0  0  0
  -31.5292  -26.6648   17.3541 O   0  0  0  0  0  0  0  0  0  0  0  0
  -29.2383  -22.3793   22.1812 O   0  0  0  0  0  0  0  0  0  0  0  0
  -22.8972  -11.5319   20.6302 O   0  0  0  0  0  0  0  0  0  0  0  0
  -28.1001  -29.1315   20.1518 O   0  0  0  0  0  0  0  0  0  1  0  0
  -23.5894   -6.1215   21.4383 F   0  0  0  0  0  0  0  0  0  0  0  0
  -21.5863  -10.2254   22.6839 F   0  0  0  0  0  0  0  0  0  0  0  0
  -30.2372  -22.5067   15.7283 F   0  0  0  0  0  0  0  0  0  0  0  0
  -32.6781  -28.5362   18.9269 F   0  0  0  0  0  0  0  0  0  0  0  0
  -32.0043  -27.4598   20.6811 F   0  0  0  0  0  0  0  0  0  0  0  0
  1  2  1  0  0  0  0
  1  5  2  0  0  0  0
  2  6  2  0  0  0  0
  3  8  2  0  0  0  0
  3 17  1  0  0  0  0
  4  9  1  0  0  0  0
  4 17  2  0  0  0  0
  5 19  1  0  0  0  0
  6 21  1  0  0  0  0
  7 10  2  0  0  0  0
  7 20  1  0  0  0  0
  8 23  1  0  0  0  0
  9 23  2  0  0  0  0
 10 24  1  0  0  0  0
 11 12  2  0  0  0  0
 11 25  1  0  0  0  0
 12 26  1  0  0  0  0
 13 22  1  0  0  0  0
 13 24  2  0  0  0  0
 14 26  2  0  0  0  0
 14 27  1  0  0  0  0
 15 28  2  0  0  0  0
 15 30  1  0  0  0  0
 16 28  1  0  0  0  0
 16 31  2  0  0  0  0
 17 29  1  0  0  0  0
 18 29  1  0  0  0  0
 18 32  2  0  0  0  0
 18 33  1  0  0  0  0
 19 21  2  0  0  0  0
 19 40  1  0  0  0  0
 20 22  2  0  0  0  0
 20 41  1  0  0  0  0
 21 49  1  0  0  0  0
 22 42  1  0  0  0  0
 23 81  1  0  0  0  0
 24 82  1  0  0  0  0
 25 27  2  0  0  0  0
 25 81  1  0  0  0  0
 26 83  1  0  0  0  0
 27 84  1  0  0  0  0
 28 85  1  0  0  0  0
 29 62  2  0  0  0  0
 30 63  2  0  0  0  0
 30 69  1  0  0  0  0
 31 63  1  0  0  0  0
 31 70  1  0  0  0  0
 32 64  1  0  0  0  0
 32 67  1  0  0  0  0
 33 68  1  0  0  0  0
 33 74  2  0  0  0  0
 34 50  1  0  0  0  0
 34 71  1  0  0  0  0
 34 75  2  0  0  0  0
 35 57  1  0  0  0  0
 35 60  1  0  0  0  0
 35 76  2  0  0  0  0
 36 58  1  0  0  0  0
 36 65  1  0  0  0  0
 36 77  2  0  0  0  0
 37 59  1  0  0  0  0
 37 72  1  0  0  0  0
 37 78  2  0  0  0  0
 38 60  1  0  0  0  0
 38 69  1  0  0  0  0
 38 79  2  0  0  0  0
 39 66  1  0  0  0  0
 39 70  1  0  0  0  0
 39 80  2  0  0  0  0
 40 43  1  0  0  0  0
 41 50  1  0  0  0  0
 42 65  1  0  0  0  0
 43 45  1  0  0  0  0
 44 46  1  0  0  0  0
 44 47  1  0  0  0  0
 45 49  1  0  0  0  0
 46 51  1  0  0  0  0
 47 66  1  0  0  0  0
 48 51  1  0  0  0  0
 48 66  1  0  0  0  0
 49 71  1  0  0  0  0
 50 65  1  0  0  0  0
 51 64  1  0  0  0  0
 52 59  1  0  0  0  0
 53 61  1  0  0  0  0
 54 61  1  0  0  0  0
 55 61  1  0  0  0  0
 56 73  1  0  0  0  0
 57 82  1  0  0  0  0
 58 61  1  0  0  0  0
 58 72  1  0  0  0  0
 59 73  1  0  0  0  0
 60 86  1  0  0  0  0
 60 87  1  0  0  0  0
 62 64  1  0  0  0  0
M  CHG  1  73   1
M  ISO  4  39 100  57 101  70 100  82 101
M  END
> <Batch ID>
0175

> <Smiles>
CNC(C)C(=O)NC(C(=O)N1Cc2cc([101O:1][101CH2:1]C(=O)C(F)(F)C(=O)Nc3cc(F)cc([100NH:0][100C:0](=O)N4CCCC(n5nc(-c6ccc(Oc7ccc(F)cc7F)cc6)c(C(N)=O)c5N)C4)n3)ccc2CC1C(=O)NC1CCCc2ccccc21)C(C)(C)C

> <Shape>
0.277

> <Color>
0.063

> <Negative vol penalty>
0.000

$$$$

  -OEChem-04052304353D

 85 93  0     1  0  0  0  0  0999 V2000
  -18.4139  -32.1910   20.4176 C   0  0  0  0  0  0  0  0  0  0  0  0
  -19.5614  -31.6801   19.8196 C   0  0  0  0  0  0  0  0  0  0  0  0
  -26.5901  -12.7848   21.8110 C   0  0  0  0  0  0  0  0  0  0  0  0
  -25.9402  -14.2169   19.9769 C   0  0  0  0  0  0  0  0  0  0  0  0
  -18.2408  -32.0828   21.7968 C   0  0  0  0  0  0  0  0  0  0  0  0
  -20.5370  -31.0616   20.6007 C   0  0  0  0  0  0  0  0  0  0  0  0
  -22.2153  -26.7442   18.5541 C   0  0  0  0  0  0  0  0  0  0  0  0
  -25.3142  -12.2214   21.8233 C   0  0  0  0  0  0  0  0  0  0  0  0
  -24.6643  -13.6534   19.9891 C   0  0  0  0  0  0  0  0  0  0  0  0
  -23.1303  -26.8492   17.5073 C   0  0  0  0  0  0  0  0  0  0  0  0
  -23.5911   -9.9184   20.0456 C   0  0  0  0  0  0  0  0  0  0  0  0
  -23.4964   -8.5303   20.1437 C   0  0  0  0  0  0  0  0  0  0  0  0
  -24.9320  -26.3890   19.0440 C   0  0  0  0  0  0  0  0  0  0  0  0
  -22.2434   -8.7609   22.1965 C   0  0  0  0  0  0  0  0  0  0  0  0
  -26.9031  -13.7826   20.8879 C   0  0  0  0  0  0  0  0  0  0  0  0
  -29.3370  -13.9275   20.1375 C   0  0  0  0  0  0  0  0  0  0  0  0
  -19.2103  -31.4541   22.5940 C   0  0  0  0  0  0  0  0  0  0  0  0
  -22.6536  -26.4711   19.8578 C   0  0  0  0  0  0  0  0  0  0  0  0
  -20.3773  -30.9461   21.9920 C   0  0  0  0  0  0  0  0  0  0  0  0
  -24.0203  -26.2785   20.1051 C   0  0  0  0  0  0  0  0  0  0  0  0
  -24.3513  -12.6556   20.9123 C   0  0  0  0  0  0  0  0  0  0  0  0
  -24.4891  -26.6745   17.7527 C   0  0  0  0  0  0  0  0  0  0  0  0
  -23.0120  -10.7279   21.0230 C   0  0  0  0  0  0  0  0  0  0  0  0
  -22.8225   -7.9515   21.2192 C   0  0  0  0  0  0  0  0  0  0  0  0
  -22.3382  -10.1491   22.0984 C   0  0  0  0  0  0  0  0  0  0  0  0
  -28.2208  -14.3655   20.8752 C   0  0  0  0  0  0  0  0  0  0  0  0
  -30.0006  -23.9019   19.7076 C   0  0  0  0  0  0  0  0  0  0  0  0
  -30.3361  -14.8091   20.4706 C   0  0  0  0  0  0  0  0  0  0  0  0
  -29.2768  -23.4135   18.6401 C   0  0  0  0  0  0  0  0  0  0  0  0
  -29.7079  -21.8484   20.4197 C   0  0  0  0  0  0  0  0  0  0  0  0
  -29.4596  -12.8227   19.2320 C   0  0  0  0  0  0  0  0  0  0  0  0
  -27.8246  -24.3504   15.3097 C   0  0  0  0  0  0  0  0  0  0  0  0
  -27.0746  -25.6493   15.4548 C   0  0  0  0  0  0  0  0  0  0  0  0
  -28.1078  -23.4028   16.4334 C   0  0  0  0  0  0  0  0  0  0  0  0
  -22.5301  -28.0126   22.6349 C   0  0  0  0  0  0  0  0  0  0  0  0
  -23.7821  -25.2482   23.7807 C   0  0  0  0  0  0  0  0  0  0  0  0
  -25.5596  -22.3999   23.1686 C   0  0  0  0  0  0  0  0  0  0  0  0
  -30.3136  -20.4545   22.4289 C   0  0  0  0  0  0  0  0  0  0  0  0
  -19.0008  -31.4030   24.0867 C   0  0  0  0  0  0  0  0  0  0  0  0
  -21.6515  -26.3346   20.9711 C   0  0  0  0  0  0  0  0  0  0  0  0
  -24.5403  -25.9635   21.4831 C   0  0  0  0  0  0  0  0  0  0  0  0
  -19.9081  -30.4003   24.7950 C   0  0  0  0  0  0  0  0  0  0  0  0
  -31.7891  -17.6459   24.0449 C   0  0  0  0  0  0  0  0  0  0  0  0
  -21.3454  -30.5411   24.3039 C   0  0  0  0  0  0  0  0  0  0  0  0
  -31.1476  -16.4460   23.3442 C   0  0  0  0  0  0  0  0  0  0  0  0
  -30.8006  -18.7979   24.2160 C   0  0  0  0  0  0  0  0  0  0  0  0
  -29.4834  -18.0244   22.2831 C   0  0  0  0  0  0  0  0  0  0  0  0
  -21.4467  -30.2462   22.8024 C   0  0  1  0  0  0  0  0  0  0  0  0
  -22.2581  -26.5622   22.3523 C   0  0  1  0  0  0  0  0  0  0  0  0
  -30.4586  -16.8631   22.0301 C   0  0  2  0  0  0  0  0  0  0  0  0
  -30.5233  -25.2767   19.8471 C   0  0  0  0  0  0  0  0  0  0  0  0
  -26.4537  -20.3521   24.3107 C   0  0  0  0  0  0  0  0  0  0  0  0
  -26.0052  -26.9207   25.0339 C   0  0  0  0  0  0  0  0  0  0  0  0
  -27.3307  -24.8164   25.3220 C   0  0  0  0  0  0  0  0  0  0  0  0
  -25.1405  -25.0782   26.4870 C   0  0  0  0  0  0  0  0  0  0  0  0
  -23.9646  -20.5999   21.4438 C   0  0  0  0  0  0  0  0  0  0  0  0
  -26.5746  -25.9964   16.8327 C   0  0  0  0  0  0  0  0  0  1  0  0
  -25.1779  -24.7109   23.9858 C   0  0  1  0  0  0  0  0  0  0  0  0
  -25.2937  -20.9496   23.5294 C   0  0  2  0  0  0  0  0  0  0  0  0
  -25.9043  -25.3894   25.1815 C   0  0  0  0  0  0  0  0  0  0  0  0
  -28.4855  -15.4415   21.6209 N   0  0  0  0  0  0  0  0  0  0  0  0
  -30.2485  -23.0060   20.7292 N   0  0  0  0  0  0  0  0  0  0  0  0
  -29.7795  -15.6871   21.3535 N   0  0  0  0  0  0  0  0  0  0  0  0
  -23.5217  -25.8464   22.5396 N   0  0  0  0  0  0  0  0  0  0  0  0
  -30.1904  -19.1411   22.9296 N   0  0  0  0  0  0  0  0  0  0  0  0
  -31.6278  -14.9111   20.0916 N   0  0  0  0  0  0  0  0  0  0  0  0
  -28.3349  -12.0182   19.0033 N   0  0  0  0  0  0  0  0  0  0  0  0
  -28.8348  -24.0070   17.4352 N   0  0  0  0  0  0  0  0  0  0  0  0
  -29.7211  -20.6542   21.1824 N   0  0  0  0  0  0  0  0  0  0  0  0
  -21.4104  -28.8192   22.5640 N   0  0  0  0  0  0  0  0  0  0  0  0
  -25.0438  -23.2637   24.1115 N   0  0  0  0  0  0  0  0  0  0  0  0
  -25.0901  -20.1379   22.2963 N   0  3  0  0  0  0  0  0  0  0  0  0
  -30.5391  -12.5469   18.6556 O   0  0  0  0  0  0  0  0  0  0  0  0
  -28.2452  -24.0410   14.2043 O   0  0  0  0  0  0  0  0  0  0  0  0
  -26.9199  -26.3380   14.4567 O   0  0  0  0  0  0  0  0  0  0  0  0
  -27.6678  -22.2712   16.3218 O   0  0  0  0  0  0  0  0  0  0  0  0
  -23.6711  -28.3730   22.8992 O   0  0  0  0  0  0  0  0  0  0  0  0
  -22.9514  -25.1348   24.6855 O   0  0  0  0  0  0  0  0  0  0  0  0
  -26.1675  -22.7332   22.1537 O   0  0  0  0  0  0  0  0  0  0  0  0
  -30.9249  -21.3299   23.0468 O   0  0  0  0  0  0  0  0  0  0  0  0
  -23.1062  -12.1059   20.9238 O   0  0  0  0  0  0  0  0  0  0  0  0
  -25.3843  -26.7771   16.7330 O   0  0  0  0  0  0  0  0  0  1  0  0
  -22.7303   -6.6185   21.3124 F   0  0  0  0  0  0  0  0  0  0  0  0
  -21.7788  -10.9215   23.0399 F   0  0  0  0  0  0  0  0  0  0  0  0
  -28.8870  -21.7661   18.9150 S   0  0  0  0  0  0  0  0  0  0  0  0
  1  2  1  0  0  0  0
  1  5  2  0  0  0  0
  2  6  2  0  0  0  0
  3  8  2  0  0  0  0
  3 15  1  0  0  0  0
  4  9  1  0  0  0  0
  4 15  2  0  0  0  0
  5 17  1  0  0  0  0
  6 19  1  0  0  0  0
  7 10  2  0  0  0  0
  7 18  1  0  0  0  0
  8 21  1  0  0  0  0
  9 21  2  0  0  0  0
 10 22  1  0  0  0  0
 11 12  2  0  0  0  0
 11 23  1  0  0  0  0
 12 24  1  0  0  0  0
 13 20  1  0  0  0  0
 13 22  2  0  0  0  0
 14 24  2  0  0  0  0
 14 25  1  0  0  0  0
 15 26  1  0  0  0  0
 16 26  1  0  0  0  0
 16 28  2  0  0  0  0
 16 31  1  0  0  0  0
 17 19  2  0  0  0  0
 17 39  1  0  0  0  0
 18 20  2  0  0  0  0
 18 40  1  0  0  0  0
 19 48  1  0  0  0  0
 20 41  1  0  0  0  0
 21 81  1  0  0  0  0
 22 82  1  0  0  0  0
 23 25  2  0  0  0  0
 23 81  1  0  0  0  0
 24 83  1  0  0  0  0
 25 84  1  0  0  0  0
 26 61  2  0  0  0  0
 27 29  2  0  0  0  0
 27 51  1  0  0  0  0
 27 62  1  0  0  0  0
 28 63  1  0  0  0  0
 28 66  1  0  0  0  0
 29 68  1  0  0  0  0
 29 85  1  0  0  0  0
 30 62  2  0  0  0  0
 30 69  1  0  0  0  0
 30 85  1  0  0  0  0
 31 67  1  0  0  0  0
 31 73  2  0  0  0  0
 32 33  1  0  0  0  0
 32 34  1  0  0  0  0
 32 74  2  0  0  0  0
 33 57  1  0  0  0  0
 33 75  2  0  0  0  0
 34 68  1  0  0  0  0
 34 76  2  0  0  0  0
 35 49  1  0  0  0  0
 35 70  1  0  0  0  0
 35 77  2  0  0  0  0
 36 58  1  0  0  0  0
 36 64  1  0  0  0  0
 36 78  2  0  0  0  0
 37 59  1  0  0  0  0
 37 71  1  0  0  0  0
 37 79  2  0  0  0  0
 38 65  1  0  0  0  0
 38 69  1  0  0  0  0
 38 80  2  0  0  0  0
 39 42  1  0  0  0  0
 40 49  1  0  0  0  0
 41 64  1  0  0  0  0
 42 44  1  0  0  0  0
 43 45  1  0  0  0  0
 43 46  1  0  0  0  0
 44 48  1  0  0  0  0
 45 50  1  0  0  0  0
 46 65  1  0  0  0  0
 47 50  1  0  0  0  0
 47 65  1  0  0  0  0
 48 70  1  0  0  0  0
 49 64  1  0  0  0  0
 50 63  1  0  0  0  0
 52 59  1  0  0  0  0
 53 60  1  0  0  0  0
 54 60  1  0  0  0  0
 55 60  1  0  0  0  0
 56 72  1  0  0  0  0
 57 82  1  0  0  0  0
 58 60  1  0  0  0  0
 58 71  1  0  0  0  0
 59 72  1  0  0  0  0
 61 63  1  0  0  0  0
M  CHG  1  72   1
M  ISO  4  38 100  57 101  69 100  82 101
M  END
> <Batch ID>
0175

> <Smiles>
CNC(C)C(=O)NC(C(=O)N1Cc2cc([101O:1][101CH2:1]C(=O)C(=O)C(=O)Nc3sc([100NH:0][100C:0](=O)N4CCCC(n5nc(-c6ccc(Oc7ccc(F)cc7F)cc6)c(C(N)=O)c5N)C4)nc3C)ccc2CC1C(=O)NC1CCCc2ccccc21)C(C)(C)C

> <Shape>
0.217

> <Color>
0.069

> <Negative vol penalty>
0.000

$$$$

  -OEChem-04052304353D

 88 96  0     1  0  0  0  0  0999 V2000
  -27.1443  -37.3152   22.4390 C   0  0  0  0  0  0  0  0  0  0  0  0
  -27.7118  -36.1204   22.0081 C   0  0  0  0  0  0  0  0  0  0  0  0
  -23.1865   -9.9206   21.3902 C   0  0  0  0  0  0  0  0  0  0  0  0
  -23.9201  -10.8432   23.4991 C   0  0  0  0  0  0  0  0  0  0  0  0
  -26.0828  -37.2955   23.3427 C   0  0  0  0  0  0  0  0  0  0  0  0
  -27.2188  -34.9050   22.4816 C   0  0  0  0  0  0  0  0  0  0  0  0
  -26.8406  -29.6308   19.3919 C   0  0  0  0  0  0  0  0  0  0  0  0
  -22.4782   -8.9298   22.0700 C   0  0  0  0  0  0  0  0  0  0  0  0
  -23.2118   -9.8523   24.1790 C   0  0  0  0  0  0  0  0  0  0  0  0
  -27.6561  -28.5004   19.3626 C   0  0  0  0  0  0  0  0  0  0  0  0
  -19.5418   -8.6569   23.7241 C   0  0  0  0  0  0  0  0  0  0  0  0
  -18.2427   -8.3807   23.2981 C   0  0  0  0  0  0  0  0  0  0  0  0
  -26.2307  -27.4373   20.9928 C   0  0  0  0  0  0  0  0  0  0  0  0
  -31.9094  -17.4761   21.1633 C   0  0  0  0  0  0  0  0  0  0  0  0
  -18.8808   -6.0975   22.8323 C   0  0  0  0  0  0  0  0  0  0  0  0
  -29.7261  -18.3948   21.3774 C   0  0  0  0  0  0  0  0  0  0  0  0
  -23.9075  -10.8774   22.1048 C   0  0  0  0  0  0  0  0  0  0  0  0
  -24.1672  -13.1684   21.0132 C   0  0  0  0  0  0  0  0  0  0  0  0
  -25.5702  -36.0790   23.8201 C   0  0  0  0  0  0  0  0  0  0  0  0
  -25.7183  -29.6773   20.2315 C   0  0  0  0  0  0  0  0  0  0  0  0
  -26.1503  -34.8690   23.3936 C   0  0  0  0  0  0  0  0  0  0  0  0
  -25.4012  -28.5685   21.0290 C   0  0  0  0  0  0  0  0  0  0  0  0
  -30.5344  -17.3277   21.0200 C   0  0  0  0  0  0  0  0  0  0  0  0
  -22.4909   -8.8956   23.4644 C   0  0  0  0  0  0  0  0  0  0  0  0
  -27.3529  -27.4045   20.1652 C   0  0  0  0  0  0  0  0  0  0  0  0
  -20.5106   -7.6534   23.7041 C   0  0  0  0  0  0  0  0  0  0  0  0
  -17.9121   -7.1011   22.8523 C   0  0  0  0  0  0  0  0  0  0  0  0
  -32.4269  -18.6703   21.6526 C   0  0  0  0  0  0  0  0  0  0  0  0
  -20.1800   -6.3737   23.2582 C   0  0  0  0  0  0  0  0  0  0  0  0
  -24.6397  -11.9009   21.4031 C   0  0  0  0  0  0  0  0  0  0  0  0
  -31.5339  -19.6774   21.9815 C   0  0  0  0  0  0  0  0  0  0  0  0
  -25.2381  -13.7556   20.3848 C   0  0  0  0  0  0  0  0  0  0  0  0
  -29.4891  -23.5845   21.7717 C   0  0  0  0  0  0  0  0  0  0  0  0
  -22.8759  -13.7619   21.2023 C   0  0  0  0  0  0  0  0  0  0  0  0
  -28.7345  -24.0775   20.7769 C   0  0  0  0  0  0  0  0  0  0  0  0
  -30.4494  -22.4458   21.6064 C   0  0  0  0  0  0  0  0  0  0  0  0
  -24.8223  -31.4956   22.6798 C   0  0  0  0  0  0  0  0  0  0  0  0
  -22.0607  -29.8148   22.4134 C   0  0  0  0  0  0  0  0  0  0  0  0
  -20.4903  -26.9681   21.3756 C   0  0  0  0  0  0  0  0  0  0  0  0
  -30.6646  -14.9760   20.1262 C   0  0  0  0  0  0  0  0  0  0  0  0
  -24.4527  -36.1095   24.8324 C   0  0  0  0  0  0  0  0  0  0  0  0
  -24.8336  -30.8938   20.2317 C   0  0  0  0  0  0  0  0  0  0  0  0
  -24.1963  -28.5603   21.9327 C   0  0  0  0  0  0  0  0  0  0  0  0
  -23.7438  -34.7676   24.9977 C   0  0  0  0  0  0  0  0  0  0  0  0
  -29.6568  -11.7953   18.8832 C   0  0  0  0  0  0  0  0  0  0  0  0
  -24.7614  -33.6386   25.1265 C   0  0  0  0  0  0  0  0  0  0  0  0
  -28.2228  -11.6435   19.3959 C   0  0  0  0  0  0  0  0  0  0  0  0
  -30.5504  -12.5040   19.8996 C   0  0  0  0  0  0  0  0  0  0  0  0
  -28.6053  -13.6410   20.8962 C   0  0  0  0  0  0  0  0  0  0  0  0
  -25.6271  -33.5297   23.8654 C   0  0  1  0  0  0  0  0  0  0  0  0
  -24.0069  -31.0311   21.5064 C   0  0  1  0  0  0  0  0  0  0  0  0
  -27.6519  -12.9907   19.8804 C   0  0  2  0  0  0  0  0  0  0  0  0
  -18.2358  -25.8672   21.3293 C   0  0  0  0  0  0  0  0  0  0  0  0
  -30.3036  -21.5426   23.9678 C   0  0  0  0  0  0  0  0  0  0  0  0
  -32.1759  -23.1140   23.3244 C   0  0  0  0  0  0  0  0  0  0  0  0
  -22.3323  -29.1395   25.3766 C   0  0  0  0  0  0  0  0  0  0  0  0
  -20.6446  -27.3202   25.0452 C   0  0  0  0  0  0  0  0  0  0  0  0
  -20.0077  -29.6982   24.6427 C   0  0  0  0  0  0  0  0  0  0  0  0
  -20.4626  -26.8860   18.4173 C   0  0  0  0  0  0  0  0  0  0  0  0
  -27.7778  -25.2137   20.9871 C   0  0  0  0  0  0  0  0  0  1  0  0
  -21.5316  -28.5281   22.9994 C   0  0  1  0  0  0  0  0  0  0  0  0
  -19.2166  -26.7540   20.5780 C   0  0  2  0  0  0  0  0  0  0  0  0
  -31.2417  -21.9988   22.8485 C   0  0  0  0  0  0  0  0  0  0  0  0
  -21.1529  -28.6721   24.5005 C   0  0  0  0  0  0  0  0  0  0  0  0
  -30.1921  -19.5700   21.8562 N   0  0  0  0  0  0  0  0  0  0  0  0
  -25.9116  -11.6942   21.0516 N   0  0  0  0  0  0  0  0  0  0  0  0
  -26.2474  -12.8396   20.4342 N   0  0  0  0  0  0  0  0  0  0  0  0
  -23.3657  -29.7755   21.9023 N   0  0  0  0  0  0  0  0  0  0  0  0
  -29.9480  -13.7744   20.3095 N   0  0  0  0  0  0  0  0  0  0  0  0
  -25.4053  -14.9608   19.8001 N   0  0  0  0  0  0  0  0  0  0  0  0
  -21.8907  -13.0203   21.8685 N   0  0  0  0  0  0  0  0  0  0  0  0
  -29.9780  -16.1230   20.5230 N   0  0  0  0  0  0  0  0  0  0  0  0
  -32.0596  -20.8571   22.4654 N   0  0  0  0  0  0  0  0  0  0  0  0
  -24.8953  -32.8698   22.8055 N   0  0  0  0  0  0  0  0  0  0  0  0
  -20.4269  -28.1128   22.1417 N   0  0  0  0  0  0  0  0  0  0  0  0
  -19.5263  -26.1097   19.2704 N   0  3  0  0  0  0  0  0  0  0  0  0
  -22.5986  -14.9094   20.7781 O   0  0  0  0  0  0  0  0  0  0  0  0
  -30.5957  -21.8971   20.5145 O   0  0  0  0  0  0  0  0  0  0  0  0
  -25.3452  -30.6685   23.4176 O   0  0  0  0  0  0  0  0  0  0  0  0
  -21.3401  -30.8159   22.4030 O   0  0  0  0  0  0  0  0  0  0  0  0
  -21.4446  -26.1951   21.3269 O   0  0  0  0  0  0  0  0  0  0  0  0
  -31.7926  -14.9891   19.6269 O   0  0  0  0  0  0  0  0  0  0  0  0
  -28.7712  -23.5609   19.4969 O   0  0  0  0  0  0  0  0  0  0  0  0
  -21.7997   -7.9290   24.1281 O   0  0  0  0  0  0  0  0  0  0  0  0
  -28.1475  -26.3001   20.1390 O   0  0  0  0  0  0  0  0  0  1  0  0
  -16.6641   -6.8356   22.4447 F   0  0  0  0  0  0  0  0  0  0  0  0
  -33.7490  -18.8277   21.7957 F   0  0  0  0  0  0  0  0  0  0  0  0
  -21.1060   -5.4053   23.2379 F   0  0  0  0  0  0  0  0  0  0  0  0
  1  2  1  0  0  0  0
  1  5  2  0  0  0  0
  2  6  2  0  0  0  0
  3  8  2  0  0  0  0
  3 17  1  0  0  0  0
  4  9  1  0  0  0  0
  4 17  2  0  0  0  0
  5 19  1  0  0  0  0
  6 21  1  0  0  0  0
  7 10  2  0  0  0  0
  7 20  1  0  0  0  0
  8 24  1  0  0  0  0
  9 24  2  0  0  0  0
 10 25  1  0  0  0  0
 11 12  2  0  0  0  0
 11 26  1  0  0  0  0
 12 27  1  0  0  0  0
 13 22  1  0  0  0  0
 13 25  2  0  0  0  0
 14 23  2  0  0  0  0
 14 28  1  0  0  0  0
 15 27  2  0  0  0  0
 15 29  1  0  0  0  0
 16 23  1  0  0  0  0
 16 65  2  0  0  0  0
 17 30  1  0  0  0  0
 18 30  1  0  0  0  0
 18 32  2  0  0  0  0
 18 34  1  0  0  0  0
 19 21  2  0  0  0  0
 19 41  1  0  0  0  0
 20 22  2  0  0  0  0
 20 42  1  0  0  0  0
 21 50  1  0  0  0  0
 22 43  1  0  0  0  0
 23 72  1  0  0  0  0
 24 84  1  0  0  0  0
 25 85  1  0  0  0  0
 26 29  2  0  0  0  0
 26 84  1  0  0  0  0
 27 86  1  0  0  0  0
 28 31  2  0  0  0  0
 28 87  1  0  0  0  0
 29 88  1  0  0  0  0
 30 66  2  0  0  0  0
 31 65  1  0  0  0  0
 31 73  1  0  0  0  0
 32 67  1  0  0  0  0
 32 70  1  0  0  0  0
 33 35  2  0  0  0  0
 33 36  1  0  0  0  0
 34 71  1  0  0  0  0
 34 77  2  0  0  0  0
 35 60  1  0  0  0  0
 35 83  1  0  0  0  0
 36 63  1  0  0  0  0
 36 78  2  0  0  0  0
 37 51  1  0  0  0  0
 37 74  1  0  0  0  0
 37 79  2  0  0  0  0
 38 61  1  0  0  0  0
 38 68  1  0  0  0  0
 38 80  2  0  0  0  0
 39 62  1  0  0  0  0
 39 75  1  0  0  0  0
 39 81  2  0  0  0  0
 40 69  1  0  0  0  0
 40 72  1  0  0  0  0
 40 82  2  0  0  0  0
 41 44  1  0  0  0  0
 42 51  1  0  0  0  0
 43 68  1  0  0  0  0
 44 46  1  0  0  0  0
 45 47  1  0  0  0  0
 45 48  1  0  0  0  0
 46 50  1  0  0  0  0
 47 52  1  0  0  0  0
 48 69  1  0  0  0  0
 49 52  1  0  0  0  0
 49 69  1  0  0  0  0
 50 74  1  0  0  0  0
 51 68  1  0  0  0  0
 52 67  1  0  0  0  0
 53 62  1  0  0  0  0
 54 63  1  0  0  0  0
 55 63  1  0  0  0  0
 56 64  1  0  0  0  0
 57 64  1  0  0  0  0
 58 64  1  0  0  0  0
 59 76  1  0  0  0  0
 60 85  1  0  0  0  0
 61 64  1  0  0  0  0
 61 75  1  0  0  0  0
 62 76  1  0  0  0  0
 63 73  1  0  0  0  0
 66 67  1  0  0  0  0
M  CHG  1  76   1
M  ISO  4  40 100  60 101  72 100  85 101
M  END
> <Batch ID>
0175

> <Smiles>
CNC(C)C(=O)NC(C(=O)N1Cc2cc([101O:1][101CH2:1]C(=O)CC(=O)C(C)(C)Nc3ncc([100NH:0][100C:0](=O)N4CCCC(n5nc(-c6ccc(Oc7ccc(F)cc7F)cc6)c(C(N)=O)c5N)C4)cc3F)ccc2CC1C(=O)NC1CCCc2ccccc21)C(C)(C)C

> <Shape>
0.358

> <Color>
0.180

> <Negative vol penalty>
0.000

$$$$

  -OEChem-04052304353D

 86 94  0     1  0  0  0  0  0999 V2000
  -29.8928  -27.1881   15.8272 C   0  0  0  0  0  0  0  0  0  0  0  0
  -28.5580  -26.9656   16.1500 C   0  0  0  0  0  0  0  0  0  0  0  0
  -28.2067  -14.8908   19.1510 C   0  0  0  0  0  0  0  0  0  0  0  0
  -28.2690  -14.2783   21.4872 C   0  0  0  0  0  0  0  0  0  0  0  0
  -30.7769  -27.6493   16.8017 C   0  0  0  0  0  0  0  0  0  0  0  0
  -28.1067  -27.2033   17.4478 C   0  0  0  0  0  0  0  0  0  0  0  0
  -22.5986  -29.3074   19.1029 C   0  0  0  0  0  0  0  0  0  0  0  0
  -29.5952  -14.7762   19.0839 C   0  0  0  0  0  0  0  0  0  0  0  0
  -29.6575  -14.1637   21.4201 C   0  0  0  0  0  0  0  0  0  0  0  0
  -21.4475  -28.6660   19.5582 C   0  0  0  0  0  0  0  0  0  0  0  0
  -31.8810  -12.2969   18.8363 C   0  0  0  0  0  0  0  0  0  0  0  0
  -32.4236  -11.6215   17.7432 C   0  0  0  0  0  0  0  0  0  0  0  0
  -22.1032  -29.1186   21.8351 C   0  0  0  0  0  0  0  0  0  0  0  0
  -15.5672  -22.5848   20.4166 C   0  0  0  0  0  0  0  0  0  0  0  0
  -33.6334  -13.6152   17.1118 C   0  0  0  0  0  0  0  0  0  0  0  0
  -27.5436  -14.6419   20.3527 C   0  0  0  0  0  0  0  0  0  0  0  0
  -25.1599  -13.7492   20.1831 C   0  0  0  0  0  0  0  0  0  0  0  0
  -30.3342  -27.9019   18.1096 C   0  0  0  0  0  0  0  0  0  0  0  0
  -23.5177  -29.8506   20.0121 C   0  0  0  0  0  0  0  0  0  0  0  0
  -28.9860  -27.6670   18.4410 C   0  0  0  0  0  0  0  0  0  0  0  0
  -23.2639  -29.7687   21.3887 C   0  0  0  0  0  0  0  0  0  0  0  0
  -15.1034  -21.3253   20.0487 C   0  0  0  0  0  0  0  0  0  0  0  0
  -30.3206  -14.4127   20.2184 C   0  0  0  0  0  0  0  0  0  0  0  0
  -21.2011  -28.5690   20.9246 C   0  0  0  0  0  0  0  0  0  0  0  0
  -32.2145  -13.6315   19.0672 C   0  0  0  0  0  0  0  0  0  0  0  0
  -33.2998  -12.2806   16.8810 C   0  0  0  0  0  0  0  0  0  0  0  0
  -33.0907  -14.2906   18.2049 C   0  0  0  0  0  0  0  0  0  0  0  0
  -16.0096  -20.3055   19.7742 C   0  0  0  0  0  0  0  0  0  0  0  0
  -26.1093  -14.7606   20.4227 C   0  0  0  0  0  0  0  0  0  0  0  0
  -17.3674  -20.5729   19.8753 C   0  0  0  0  0  0  0  0  0  0  0  0
  -23.9470  -14.3638   20.3775 C   0  0  0  0  0  0  0  0  0  0  0  0
  -16.9363  -22.7944   20.5016 C   0  0  0  0  0  0  0  0  0  0  0  0
  -18.3802  -19.5702   19.6074 C   0  0  0  0  0  0  0  0  0  0  0  0
  -19.7165  -19.7544   19.7067 C   0  0  0  0  0  0  0  0  0  0  0  0
  -19.9009  -26.6283   21.0429 C   0  0  0  0  0  0  0  0  0  1  0  0
  -25.3566  -12.3769   19.8177 C   0  0  0  0  0  0  0  0  0  0  0  0
  -18.8355  -25.9155   21.4283 C   0  0  0  0  0  0  0  0  0  0  0  0
  -20.6230  -18.6274   19.4087 C   0  0  0  0  0  0  0  0  0  0  0  0
  -18.7344  -24.4775   21.0156 C   0  0  0  0  0  0  0  0  0  0  0  0
  -26.5733  -29.3137   20.7038 C   0  0  0  0  0  0  0  0  0  0  0  0
  -26.1897  -31.9008   22.6226 C   0  0  0  0  0  0  0  0  0  0  0  0
  -24.0722  -33.8978   24.4045 C   0  0  0  0  0  0  0  0  0  0  0  0
  -31.3373  -28.3546   19.1409 C   0  0  0  0  0  0  0  0  0  0  0  0
  -24.7412  -30.5628   19.5041 C   0  0  0  0  0  0  0  0  0  0  0  0
  -24.2090  -30.3532   22.4054 C   0  0  0  0  0  0  0  0  0  0  0  0
  -30.6974  -28.9390   20.3975 C   0  0  0  0  0  0  0  0  0  0  0  0
  -22.7982  -18.8609   22.3490 C   0  0  0  0  0  0  0  0  0  0  0  0
  -29.5627  -28.0435   20.8847 C   0  0  0  0  0  0  0  0  0  0  0  0
  -23.8067  -17.7531   22.0569 C   0  0  0  0  0  0  0  0  0  0  0  0
  -22.3235  -19.5531   21.0723 C   0  0  0  0  0  0  0  0  0  0  0  0
  -22.7880  -17.5037   19.7590 C   0  0  0  0  0  0  0  0  0  0  0  0
  -28.4532  -27.9367   19.8315 C   0  0  1  0  0  0  0  0  0  0  0  0
  -25.8652  -30.6279   20.5336 C   0  0  1  0  0  0  0  0  0  0  0  0
  -23.2436  -16.7624   21.0256 C   0  0  1  0  0  0  0  0  0  0  0  0
  -24.0564  -35.9123   25.9007 C   0  0  0  0  0  0  0  0  0  0  0  0
  -27.2644  -30.2015   24.9178 C   0  0  0  0  0  0  0  0  0  0  0  0
  -26.3488  -31.9008   26.5123 C   0  0  0  0  0  0  0  0  0  0  0  0
  -28.1136  -32.5535   24.8745 C   0  0  0  0  0  0  0  0  0  0  0  0
  -22.3508  -35.4160   22.5361 C   0  0  0  0  0  0  0  0  0  0  0  0
  -25.7624  -32.1159   24.0545 C   0  0  1  0  0  0  0  0  0  0  0  0
  -23.9293  -35.4076   24.4718 C   0  0  2  0  0  0  0  0  0  0  0  0
  -26.8552  -31.6801   25.0709 C   0  0  0  0  0  0  0  0  0  0  0  0
  -25.5479  -15.9291   20.7445 N   0  0  0  0  0  0  0  0  0  0  0  0
  -24.2326  -15.6558   20.7084 N   0  0  0  0  0  0  0  0  0  0  0  0
  -17.7868  -21.7947   20.2317 N   0  3  0  0  0  0  0  0  0  0  0  0
  -21.8440  -18.5803   20.0790 N   0  0  0  0  0  0  0  0  0  0  0  0
  -25.3946  -31.0342   21.8594 N   0  0  0  0  0  0  0  0  0  0  0  0
  -13.7170  -21.0854   19.9551 N   0  0  0  0  0  0  0  0  0  0  0  0
  -22.6748  -13.9198   20.2957 N   0  0  0  0  0  0  0  0  0  0  0  0
  -26.6683  -11.9091   19.6593 N   0  0  0  0  0  0  0  0  0  0  0  0
  -17.4137  -24.0736   20.8759 N   0  0  0  0  0  0  0  0  0  0  0  0
  -27.6341  -29.1298   19.8375 N   0  0  0  0  0  0  0  0  0  0  0  0
  -25.3749  -33.5185   24.1585 N   0  0  0  0  0  0  0  0  0  0  0  0
  -22.6009  -35.8263   23.9418 N   0  3  0  0  0  0  0  0  0  0  0  0
  -24.3973  -11.5930   19.6209 O   0  0  0  0  0  0  0  0  0  0  0  0
  -20.2451  -17.7977   18.5794 O   0  0  0  0  0  0  0  0  0  0  0  0
  -19.7414  -23.8000   20.8406 O   0  0  0  0  0  0  0  0  0  0  0  0
  -26.1869  -28.5254   21.5588 O   0  0  0  0  0  0  0  0  0  0  0  0
  -27.1879  -32.4858   22.1951 O   0  0  0  0  0  0  0  0  0  0  0  0
  -23.1238  -33.1314   24.5587 O   0  0  0  0  0  0  0  0  0  0  0  0
  -17.8214  -26.4522   22.1952 O   0  0  0  0  0  0  0  0  0  0  0  0
  -31.6755  -14.3005   20.1533 O   0  0  0  0  0  0  0  0  0  0  0  0
  -20.0786  -27.9429   21.3717 O   0  0  0  0  0  0  0  0  0  1  0  0
  -33.8221  -11.6313   15.8322 F   0  0  0  0  0  0  0  0  0  0  0  0
  -33.4158  -15.5724   18.4223 F   0  0  0  0  0  0  0  0  0  0  0  0
  -15.5758  -19.0876   19.4185 F   0  0  0  0  0  0  0  0  0  0  0  0
  1  2  1  0  0  0  0
  1  5  2  0  0  0  0
  2  6  2  0  0  0  0
  3  8  2  0  0  0  0
  3 16  1  0  0  0  0
  4  9  1  0  0  0  0
  4 16  2  0  0  0  0
  5 18  1  0  0  0  0
  6 20  1  0  0  0  0
  7 10  2  0  0  0  0
  7 19  1  0  0  0  0
  8 23  1  0  0  0  0
  9 23  2  0  0  0  0
 10 24  1  0  0  0  0
 11 12  2  0  0  0  0
 11 25  1  0  0  0  0
 12 26  1  0  0  0  0
 13 21  1  0  0  0  0
 13 24  2  0  0  0  0
 14 22  2  0  0  0  0
 14 32  1  0  0  0  0
 15 26  2  0  0  0  0
 15 27  1  0  0  0  0
 16 29  1  0  0  0  0
 17 29  1  0  0  0  0
 17 31  2  0  0  0  0
 17 36  1  0  0  0  0
 18 20  2  0  0  0  0
 18 43  1  0  0  0  0
 19 21  2  0  0  0  0
 19 44  1  0  0  0  0
 20 52  1  0  0  0  0
 21 45  1  0  0  0  0
 22 28  1  0  0  0  0
 22 68  1  0  0  0  0
 23 82  1  0  0  0  0
 24 83  1  0  0  0  0
 25 27  2  0  0  0  0
 25 82  1  0  0  0  0
 26 84  1  0  0  0  0
 27 85  1  0  0  0  0
 28 30  2  0  0  0  0
 28 86  1  0  0  0  0
 29 63  2  0  0  0  0
 30 33  1  0  0  0  0
 30 65  1  0  0  0  0
 31 64  1  0  0  0  0
 31 69  1  0  0  0  0
 32 65  2  0  0  0  0
 32 71  1  0  0  0  0
 33 34  2  0  0  0  0
 34 38  1  0  0  0  0
 35 37  2  0  0  0  0
 35 83  1  0  0  0  0
 36 70  1  0  0  0  0
 36 75  2  0  0  0  0
 37 39  1  0  0  0  0
 37 81  1  0  0  0  0
 38 66  1  0  0  0  0
 38 76  2  0  0  0  0
 39 71  1  0  0  0  0
 39 77  2  0  0  0  0
 40 53  1  0  0  0  0
 40 72  1  0  0  0  0
 40 78  2  0  0  0  0
 41 60  1  0  0  0  0
 41 67  1  0  0  0  0
 41 79  2  0  0  0  0
 42 61  1  0  0  0  0
 42 73  1  0  0  0  0
 42 80  2  0  0  0  0
 43 46  1  0  0  0  0
 44 53  1  0  0  0  0
 45 67  1  0  0  0  0
 46 48  1  0  0  0  0
 47 49  1  0  0  0  0
 47 50  1  0  0  0  0
 48 52  1  0  0  0  0
 49 54  1  0  0  0  0
 50 66  1  0  0  0  0
 51 54  1  0  0  0  0
 51 66  1  0  0  0  0
 52 72  1  0  0  0  0
 53 67  1  0  0  0  0
 54 64  1  0  0  0  0
 55 61  1  0  0  0  0
 56 62  1  0  0  0  0
 57 62  1  0  0  0  0
 58 62  1  0  0  0  0
 59 74  1  0  0  0  0
 60 62  1  0  0  0  0
 60 73  1  0  0  0  0
 61 74  1  0  0  0  0
 63 64  1  0  0  0  0
M  CHG  2  65   1  74   1
M  ISO  4  34 100  35 101  38 100  83 101
M  END
> <Batch ID>
0175

> <Smiles>
CNC(C)C(=O)NC(C(=O)N1Cc2cc([101O:1][101CH2:1]C(=O)C(=O)Nc3cc(N)c(F)c(C=[100CH:0][100C:0](=O)N4CCCC(n5nc(-c6ccc(Oc7ccc(F)cc7F)cc6)c(C(N)=O)c5N)C4)n3)ccc2CC1C(=O)NC1CCCc2ccccc21)C(C)(C)C

> <Shape>
0.248

> <Color>
0.085

> <Negative vol penalty>
0.000

$$$$

  -OEChem-04052304353D

 89 97  0     1  0  0  0  0  0999 V2000
  -26.5818  -21.1617   15.3495 C   0  0  0  0  0  0  0  0  0  0  0  0
  -26.2627  -21.9916   16.4195 C   0  0  0  0  0  0  0  0  0  0  0  0
  -27.6158  -14.7642   21.8999 C   0  0  0  0  0  0  0  0  0  0  0  0
  -26.1969  -15.3338   20.0293 C   0  0  0  0  0  0  0  0  0  0  0  0
  -27.9168  -20.8852   15.0573 C   0  0  0  0  0  0  0  0  0  0  0  0
  -27.2784  -22.5445   17.1986 C   0  0  0  0  0  0  0  0  0  0  0  0
  -26.5263  -27.4575   18.1692 C   0  0  0  0  0  0  0  0  0  0  0  0
  -27.2695  -13.4210   21.7536 C   0  0  0  0  0  0  0  0  0  0  0  0
  -25.8506  -13.9905   19.8829 C   0  0  0  0  0  0  0  0  0  0  0  0
  -25.6011  -27.7760   19.1622 C   0  0  0  0  0  0  0  0  0  0  0  0
  -23.7681  -11.7787   21.3666 C   0  0  0  0  0  0  0  0  0  0  0  0
  -22.4212  -11.4744   21.1692 C   0  0  0  0  0  0  0  0  0  0  0  0
  -27.4062  -28.1235   20.7242 C   0  0  0  0  0  0  0  0  0  0  0  0
  -22.1984  -22.5493   19.7567 C   0  0  0  0  0  0  0  0  0  0  0  0
  -22.9626  -10.4553   19.0465 C   0  0  0  0  0  0  0  0  0  0  0  0
  -27.0794  -15.7207   21.0378 C   0  0  0  0  0  0  0  0  0  0  0  0
  -28.5114  -17.7811   20.5778 C   0  0  0  0  0  0  0  0  0  0  0  0
  -28.9496  -21.4428   15.8273 C   0  0  0  0  0  0  0  0  0  0  0  0
  -27.9003  -27.4590   18.4496 C   0  0  0  0  0  0  0  0  0  0  0  0
  -28.6284  -22.2741   16.9172 C   0  0  0  0  0  0  0  0  0  0  0  0
  -28.3470  -27.8072   19.7323 C   0  0  0  0  0  0  0  0  0  0  0  0
  -21.3156  -23.3365   19.0259 C   0  0  0  0  0  0  0  0  0  0  0  0
  -26.3870  -13.0341   20.7451 C   0  0  0  0  0  0  0  0  0  0  0  0
  -26.0408  -28.1063   20.4408 C   0  0  0  0  0  0  0  0  0  0  0  0
  -24.7122  -11.4214   20.4040 C   0  0  0  0  0  0  0  0  0  0  0  0
  -22.0185  -10.8127   20.0092 C   0  0  0  0  0  0  0  0  0  0  0  0
  -24.3095  -10.7597   19.2440 C   0  0  0  0  0  0  0  0  0  0  0  0
  -20.7785  -24.4840   19.5987 C   0  0  0  0  0  0  0  0  0  0  0  0
  -27.4362  -17.1084   21.1888 C   0  0  0  0  0  0  0  0  0  0  0  0
  -22.5096  -22.9497   21.0462 C   0  0  0  0  0  0  0  0  0  0  0  0
  -21.1530  -24.7978   20.8953 C   0  0  0  0  0  0  0  0  0  0  0  0
  -28.4173  -19.0708   21.0408 C   0  0  0  0  0  0  0  0  0  0  0  0
  -29.5063  -17.2846   19.6726 C   0  0  0  0  0  0  0  0  0  0  0  0
  -30.1987  -25.2636   18.4172 C   0  0  0  0  0  0  0  0  0  0  0  0
  -22.8906  -28.7656   22.2333 C   0  0  0  0  0  0  0  0  0  0  0  0
  -20.6021  -27.8859   22.9055 C   0  0  0  0  0  0  0  0  0  0  0  0
  -32.1067  -27.8142   19.0305 C   0  0  0  0  0  0  0  0  0  0  0  0
  -32.4021  -30.9793   20.2722 C   0  0  0  0  0  0  0  0  0  0  0  0
  -23.8611  -22.3513   23.0862 C   0  0  0  0  0  0  0  0  0  0  0  0
  -30.3762  -21.0770   15.5020 C   0  0  0  0  0  0  0  0  0  0  0  0
  -28.8869  -27.1392   17.3602 C   0  0  0  0  0  0  0  0  0  0  0  0
  -29.8122  -27.8433   20.0791 C   0  0  0  0  0  0  0  0  0  0  0  0
  -31.4045  -22.0031   16.1464 C   0  0  0  0  0  0  0  0  0  0  0  0
  -26.8822  -21.5933   24.8111 C   0  0  0  0  0  0  0  0  0  0  0  0
  -31.0687  -22.2331   17.6164 C   0  0  0  0  0  0  0  0  0  0  0  0
  -27.4680  -20.4223   24.0187 C   0  0  0  0  0  0  0  0  0  0  0  0
  -25.3582  -21.5205   24.8872 C   0  0  0  0  0  0  0  0  0  0  0  0
  -25.2635  -20.2143   22.8006 C   0  0  0  0  0  0  0  0  0  0  0  0
  -29.7027  -22.9127   17.7705 C   0  0  1  0  0  0  0  0  0  0  0  0
  -30.2370  -26.6720   17.8951 C   0  0  1  0  0  0  0  0  0  0  0  0
  -26.7913  -20.2792   22.6413 C   0  0  2  0  0  0  0  0  0  0  0  0
  -22.0509  -23.2782   16.6295 C   0  0  0  0  0  0  0  0  0  0  0  0
  -34.0945  -32.7885   20.6720 C   0  0  0  0  0  0  0  0  0  0  0  0
  -33.1841  -26.2722   21.4328 C   0  0  0  0  0  0  0  0  0  0  0  0
  -34.1177  -28.4243   22.3074 C   0  0  0  0  0  0  0  0  0  0  0  0
  -34.9184  -27.5140   20.1273 C   0  0  0  0  0  0  0  0  0  0  0  0
  -30.9750  -32.8673   18.4951 C   0  0  0  0  0  0  0  0  0  0  0  0
  -20.9492  -22.9487   17.6337 C   0  0  0  0  0  0  0  0  0  0  0  0
  -21.3979  -28.7962   21.9951 C   0  0  0  0  0  0  0  0  0  0  0  0
  -23.7593  -28.3846   21.0519 C   0  0  0  0  0  0  0  0  0  1  0  0
  -20.9060  -26.4033   22.7970 C   0  0  2  0  0  0  0  0  0  0  0  0
  -32.5979  -28.5063   20.2790 C   0  0  1  0  0  0  0  0  0  0  0  0
  -33.0616  -32.2250   19.7085 C   0  0  2  0  0  0  0  0  0  0  0  0
  -33.6767  -27.6767   21.0309 C   0  0  0  0  0  0  0  0  0  0  0  0
  -26.7123  -17.9049   21.9798 N   0  0  0  0  0  0  0  0  0  0  0  0
  -22.0078  -24.0576   21.6364 N   0  0  0  0  0  0  0  0  0  0  0  0
  -27.3339  -19.0913   21.8690 N   0  0  0  0  0  0  0  0  0  0  0  0
  -30.7375  -27.5167   18.9815 N   0  0  0  0  0  0  0  0  0  0  0  0
  -24.7865  -21.3902   23.5451 N   0  0  0  0  0  0  0  0  0  0  0  0
  -29.1565  -20.1778   20.8163 N   0  0  0  0  0  0  0  0  0  0  0  0
  -29.4564  -15.9343   19.3002 N   0  0  0  0  0  0  0  0  0  0  0  0
  -23.4106  -22.1418   21.7832 N   0  0  0  0  0  0  0  0  0  0  0  0
  -20.6115  -25.9449   21.4555 N   0  0  0  0  0  0  0  0  0  0  0  0
  -29.8062  -24.3268   17.4803 N   0  0  0  0  0  0  0  0  0  0  0  0
  -33.0456  -29.8308   19.8623 N   0  0  0  0  0  0  0  0  0  0  0  0
  -32.0404  -33.2780   19.4456 N   0  3  0  0  0  0  0  0  0  0  0  0
  -30.4223  -18.0126   19.2205 O   0  0  0  0  0  0  0  0  0  0  0  0
  -30.5042  -25.0430   19.5832 O   0  0  0  0  0  0  0  0  0  0  0  0
  -23.3620  -29.0093   23.3438 O   0  0  0  0  0  0  0  0  0  0  0  0
  -19.7164  -28.3191   23.6426 O   0  0  0  0  0  0  0  0  0  0  0  0
  -32.9072  -27.5539   18.1287 O   0  0  0  0  0  0  0  0  0  0  0  0
  -31.4170  -31.0211   21.0059 O   0  0  0  0  0  0  0  0  0  0  0  0
  -23.5159  -23.3063   23.7869 O   0  0  0  0  0  0  0  0  0  0  0  0
  -26.0491  -11.7235   20.6018 O   0  0  0  0  0  0  0  0  0  0  0  0
  -25.1397  -28.4169   21.4121 O   0  0  0  0  0  0  0  0  0  1  0  0
  -20.7253  -10.5192   19.8204 F   0  0  0  0  0  0  0  0  0  0  0  0
  -25.2121  -10.4128   18.3162 F   0  0  0  0  0  0  0  0  0  0  0  0
  -19.9264  -25.2581   18.9128 F   0  0  0  0  0  0  0  0  0  0  0  0
  -20.1599  -25.6959   23.6895 F   0  0  0  0  0  0  0  0  0  0  0  0
  1  2  1  0  0  0  0
  1  5  2  0  0  0  0
  2  6  2  0  0  0  0
  3  8  2  0  0  0  0
  3 16  1  0  0  0  0
  4  9  1  0  0  0  0
  4 16  2  0  0  0  0
  5 18  1  0  0  0  0
  6 20  1  0  0  0  0
  7 10  2  0  0  0  0
  7 19  1  0  0  0  0
  8 23  1  0  0  0  0
  9 23  2  0  0  0  0
 10 24  1  0  0  0  0
 11 12  2  0  0  0  0
 11 25  1  0  0  0  0
 12 26  1  0  0  0  0
 13 21  1  0  0  0  0
 13 24  2  0  0  0  0
 14 22  1  0  0  0  0
 14 30  2  0  0  0  0
 15 26  2  0  0  0  0
 15 27  1  0  0  0  0
 16 29  1  0  0  0  0
 17 29  1  0  0  0  0
 17 32  2  0  0  0  0
 17 33  1  0  0  0  0
 18 20  2  0  0  0  0
 18 40  1  0  0  0  0
 19 21  2  0  0  0  0
 19 41  1  0  0  0  0
 20 49  1  0  0  0  0
 21 42  1  0  0  0  0
 22 28  2  0  0  0  0
 22 58  1  0  0  0  0
 23 84  1  0  0  0  0
 24 85  1  0  0  0  0
 25 27  2  0  0  0  0
 25 84  1  0  0  0  0
 26 86  1  0  0  0  0
 27 87  1  0  0  0  0
 28 31  1  0  0  0  0
 28 88  1  0  0  0  0
 29 65  2  0  0  0  0
 30 66  1  0  0  0  0
 30 72  1  0  0  0  0
 31 66  2  0  0  0  0
 31 73  1  0  0  0  0
 32 67  1  0  0  0  0
 32 70  1  0  0  0  0
 33 71  1  0  0  0  0
 33 77  2  0  0  0  0
 34 50  1  0  0  0  0
 34 74  1  0  0  0  0
 34 78  2  0  0  0  0
 35 59  1  0  0  0  0
 35 60  1  0  0  0  0
 35 79  2  0  0  0  0
 36 59  1  0  0  0  0
 36 61  1  0  0  0  0
 36 80  2  0  0  0  0
 37 62  1  0  0  0  0
 37 68  1  0  0  0  0
 37 81  2  0  0  0  0
 38 63  1  0  0  0  0
 38 75  1  0  0  0  0
 38 82  2  0  0  0  0
 39 69  1  0  0  0  0
 39 72  1  0  0  0  0
 39 83  2  0  0  0  0
 40 43  1  0  0  0  0
 41 50  1  0  0  0  0
 42 68  1  0  0  0  0
 43 45  1  0  0  0  0
 44 46  1  0  0  0  0
 44 47  1  0  0  0  0
 45 49  1  0  0  0  0
 46 51  1  0  0  0  0
 47 69  1  0  0  0  0
 48 51  1  0  0  0  0
 48 69  1  0  0  0  0
 49 74  1  0  0  0  0
 50 68  1  0  0  0  0
 51 67  1  0  0  0  0
 52 58  1  0  0  0  0
 53 63  1  0  0  0  0
 54 64  1  0  0  0  0
 55 64  1  0  0  0  0
 56 64  1  0  0  0  0
 57 76  1  0  0  0  0
 60 85  1  0  0  0  0
 61 73  1  0  0  0  0
 61 89  1  0  0  0  0
 62 64  1  0  0  0  0
 62 75  1  0  0  0  0
 63 76  1  0  0  0  0
 65 67  1  0  0  0  0
M  CHG  1  76   1
M  ISO  4  39 100  60 101  72 100  85 101
M  END
> <Batch ID>
0175

> <Smiles>
CCc1cc([100NH:0][100C:0](=O)N2CCCC(n3nc(-c4ccc(Oc5ccc(F)cc5F)cc4)c(C(N)=O)c3N)C2)nc(NC(F)C(=O)CC(=O)[101CH2:1][101O:1]c2ccc3c(c2)CN(C(=O)C(NC(=O)C(C)NC)C(C)(C)C)C(C(=O)NC2CCCc4ccccc42)C3)c1F

> <Shape>
0.204

> <Color>
0.071

> <Negative vol penalty>
0.000

$$$$

  -OEChem-04052304353D

 89 97  0     1  0  0  0  0  0999 V2000
  -29.1764  -37.1408   18.9175 C   0  0  0  0  0  0  0  0  0  0  0  0
  -29.2754  -35.7782   18.6547 C   0  0  0  0  0  0  0  0  0  0  0  0
  -23.4472   -9.4979   20.9314 C   0  0  0  0  0  0  0  0  0  0  0  0
  -24.0792  -10.2686   23.1323 C   0  0  0  0  0  0  0  0  0  0  0  0
  -28.7730  -37.5790   20.1781 C   0  0  0  0  0  0  0  0  0  0  0  0
  -28.9719  -34.8530   19.6529 C   0  0  0  0  0  0  0  0  0  0  0  0
  -26.3635  -29.3617   18.9128 C   0  0  0  0  0  0  0  0  0  0  0  0
  -22.8273   -8.3848   21.4992 C   0  0  0  0  0  0  0  0  0  0  0  0
  -23.4592   -9.1555   23.7001 C   0  0  0  0  0  0  0  0  0  0  0  0
  -26.8928  -28.0740   18.8398 C   0  0  0  0  0  0  0  0  0  0  0  0
  -23.7574   -5.3940   22.7697 C   0  0  0  0  0  0  0  0  0  0  0  0
  -23.9905   -4.1519   22.1794 C   0  0  0  0  0  0  0  0  0  0  0  0
  -26.4503  -27.7653   21.1910 C   0  0  0  0  0  0  0  0  0  0  0  0
  -21.6245   -3.9099   21.7543 C   0  0  0  0  0  0  0  0  0  0  0  0
  -24.0732  -10.4397   21.7480 C   0  0  0  0  0  0  0  0  0  0  0  0
  -24.1313  -12.8418   20.8911 C   0  0  0  0  0  0  0  0  0  0  0  0
  -28.4551  -36.6585   21.1892 C   0  0  0  0  0  0  0  0  0  0  0  0
  -25.8827  -29.8657   20.1299 C   0  0  0  0  0  0  0  0  0  0  0  0
  -28.5651  -35.2793   20.9286 C   0  0  0  0  0  0  0  0  0  0  0  0
  -25.9130  -29.0588   21.2762 C   0  0  0  0  0  0  0  0  0  0  0  0
  -22.8332   -8.2136   22.8835 C   0  0  0  0  0  0  0  0  0  0  0  0
  -26.9390  -27.2766   19.9796 C   0  0  0  0  0  0  0  0  0  0  0  0
  -22.4579   -5.8941   22.8523 C   0  0  0  0  0  0  0  0  0  0  0  0
  -22.9240   -3.4098   21.6717 C   0  0  0  0  0  0  0  0  0  0  0  0
  -21.3914   -5.1520   22.3446 C   0  0  0  0  0  0  0  0  0  0  0  0
  -31.0399  -19.7841   20.7491 C   0  0  0  0  0  0  0  0  0  0  0  0
  -31.1310  -18.3861   20.4892 C   0  0  0  0  0  0  0  0  0  0  0  0
  -24.7143  -11.5894   21.1620 C   0  0  0  0  0  0  0  0  0  0  0  0
  -29.8305  -20.1280   21.3118 C   0  0  0  0  0  0  0  0  0  0  0  0
  -25.1487  -13.5823   20.3406 C   0  0  0  0  0  0  0  0  0  0  0  0
  -29.9878  -17.7147   20.8636 C   0  0  0  0  0  0  0  0  0  0  0  0
  -22.7900  -13.2953   21.1170 C   0  0  0  0  0  0  0  0  0  0  0  0
  -29.3444  -21.4687   21.7283 C   0  0  0  0  0  0  0  0  0  0  0  0
  -26.6677  -32.3010   22.0159 C   0  0  0  0  0  0  0  0  0  0  0  0
  -29.1667  -24.5141   20.7319 C   0  0  0  0  0  0  0  0  0  0  0  0
  -24.0168  -31.3860   23.6462 C   0  0  0  0  0  0  0  0  0  0  0  0
  -21.8062  -28.9050   24.4240 C   0  0  0  0  0  0  0  0  0  0  0  0
  -30.4435  -15.3044   20.2898 C   0  0  0  0  0  0  0  0  0  0  0  0
  -28.0692  -37.1803   22.5507 C   0  0  0  0  0  0  0  0  0  0  0  0
  -25.2903  -31.2471   20.1862 C   0  0  0  0  0  0  0  0  0  0  0  0
  -25.3911  -29.5455   22.6026 C   0  0  0  0  0  0  0  0  0  0  0  0
  -27.4048  -36.1315   23.4390 C   0  0  0  0  0  0  0  0  0  0  0  0
  -29.7376  -12.1855   18.7243 C   0  0  0  0  0  0  0  0  0  0  0  0
  -28.1881  -34.8232   23.3975 C   0  0  0  0  0  0  0  0  0  0  0  0
  -28.3198  -11.8554   19.1966 C   0  0  0  0  0  0  0  0  0  0  0  0
  -30.5560  -12.8670   19.8195 C   0  0  0  0  0  0  0  0  0  0  0  0
  -28.5087  -13.7202   20.8919 C   0  0  0  0  0  0  0  0  0  0  0  0
  -28.2207  -34.2446   21.9778 C   0  0  1  0  0  0  0  0  0  0  0  0
  -25.3009  -31.8451   21.5896 C   0  0  1  0  0  0  0  0  0  0  0  0
  -27.6255  -13.0911   19.8020 C   0  0  2  0  0  0  0  0  0  0  0  0
  -19.7665  -28.4480   25.8125 C   0  0  0  0  0  0  0  0  0  0  0  0
  -25.7535  -31.2607   26.1519 C   0  0  0  0  0  0  0  0  0  0  0  0
  -23.9477  -29.9201   27.2519 C   0  0  0  0  0  0  0  0  0  0  0  0
  -23.4855  -32.2543   26.5032 C   0  0  0  0  0  0  0  0  0  0  0  0
  -20.1847  -28.2519   22.0359 C   0  0  0  0  0  0  0  0  0  0  0  0
  -28.0792  -25.5088   21.0889 C   0  0  0  0  0  0  0  0  0  1  0  0
  -29.9062  -23.8792   21.9004 C   0  0  2  0  0  0  0  0  0  0  0  0
  -23.7350  -30.4250   24.7759 C   0  0  1  0  0  0  0  0  0  0  0  0
  -20.2886  -28.8801   24.4511 C   0  0  2  0  0  0  0  0  0  0  0  0
  -24.2421  -30.9563   26.1463 C   0  0  0  0  0  0  0  0  0  0  0  0
  -31.1469  -24.6730   22.2445 C   0  0  0  0  0  0  0  0  0  0  0  0
  -26.0021  -11.5337   20.8123 N   0  0  0  0  0  0  0  0  0  0  0  0
  -26.2367  -12.7603   20.3158 N   0  0  0  0  0  0  0  0  0  0  0  0
  -24.8273  -30.9055   22.6079 N   0  0  0  0  0  0  0  0  0  0  0  0
  -29.8378  -14.0312   20.3427 N   0  0  0  0  0  0  0  0  0  0  0  0
  -25.2097  -14.8498   19.8800 N   0  0  0  0  0  0  0  0  0  0  0  0
  -21.8717  -12.4058   21.6913 N   0  0  0  0  0  0  0  0  0  0  0  0
  -29.6527  -16.3401   20.7865 N   0  0  0  0  0  0  0  0  0  0  0  0
  -30.2225  -22.5257   21.5265 N   0  0  0  0  0  0  0  0  0  0  0  0
  -26.9612  -33.6045   21.6638 N   0  0  0  0  0  0  0  0  0  0  0  0
  -22.3021  -30.1539   24.7333 N   0  0  0  0  0  0  0  0  0  0  0  0
  -19.7677  -27.9326   23.4256 N   0  3  0  0  0  0  0  0  0  0  0  0
  -22.4125  -14.4497   20.8032 O   0  0  0  0  0  0  0  0  0  0  0  0
  -28.2304  -21.5722   22.2352 O   0  0  0  0  0  0  0  0  0  0  0  0
  -27.4011  -31.5278   22.6209 O   0  0  0  0  0  0  0  0  0  0  0  0
  -29.4533  -24.2602   19.5616 O   0  0  0  0  0  0  0  0  0  0  0  0
  -23.5297  -32.5188   23.6803 O   0  0  0  0  0  0  0  0  0  0  0  0
  -22.4840  -27.9147   24.1589 O   0  0  0  0  0  0  0  0  0  0  0  0
  -31.5691  -15.4683   19.8123 O   0  0  0  0  0  0  0  0  0  0  0  0
  -22.2282   -7.1278   23.4379 O   0  0  0  0  0  0  0  0  0  0  0  0
  -27.4558  -26.0196   19.9113 O   0  0  0  0  0  0  0  0  0  1  0  0
  -23.1482   -2.2177   21.1035 F   0  0  0  0  0  0  0  0  0  0  0  0
  -20.1409   -5.6278   22.4200 F   0  0  0  0  0  0  0  0  0  0  0  0
  -32.0153  -20.6532   20.4767 F   0  0  0  0  0  0  0  0  0  0  0  0
  -32.2007  -17.8009   19.9469 F   0  0  0  0  0  0  0  0  0  0  0  0
  -31.8280  -24.0965   23.2594 F   0  0  0  0  0  0  0  0  0  0  0  0
  -30.8495  -25.9377   22.6128 F   0  0  0  0  0  0  0  0  0  0  0  0
  -31.9849  -24.7391   21.1854 F   0  0  0  0  0  0  0  0  0  0  0  0
  -28.8112  -18.7686   21.5249 S   0  0  0  0  0  0  0  0  0  0  0  0
  1  2  1  0  0  0  0
  1  5  2  0  0  0  0
  2  6  2  0  0  0  0
  3  8  2  0  0  0  0
  3 15  1  0  0  0  0
  4  9  1  0  0  0  0
  4 15  2  0  0  0  0
  5 17  1  0  0  0  0
  6 19  1  0  0  0  0
  7 10  2  0  0  0  0
  7 18  1  0  0  0  0
  8 21  1  0  0  0  0
  9 21  2  0  0  0  0
 10 22  1  0  0  0  0
 11 12  2  0  0  0  0
 11 23  1  0  0  0  0
 12 24  1  0  0  0  0
 13 20  1  0  0  0  0
 13 22  2  0  0  0  0
 14 24  2  0  0  0  0
 14 25  1  0  0  0  0
 15 28  1  0  0  0  0
 16 28  1  0  0  0  0
 16 30  2  0  0  0  0
 16 32  1  0  0  0  0
 17 19  2  0  0  0  0
 17 39  1  0  0  0  0
 18 20  2  0  0  0  0
 18 40  1  0  0  0  0
 19 48  1  0  0  0  0
 20 41  1  0  0  0  0
 21 80  1  0  0  0  0
 22 81  1  0  0  0  0
 23 25  2  0  0  0  0
 23 80  1  0  0  0  0
 24 82  1  0  0  0  0
 25 83  1  0  0  0  0
 26 27  1  0  0  0  0
 26 29  2  0  0  0  0
 26 84  1  0  0  0  0
 27 31  2  0  0  0  0
 27 85  1  0  0  0  0
 28 62  2  0  0  0  0
 29 33  1  0  0  0  0
 29 89  1  0  0  0  0
 30 63  1  0  0  0  0
 30 66  1  0  0  0  0
 31 68  1  0  0  0  0
 31 89  1  0  0  0  0
 32 67  1  0  0  0  0
 32 73  2  0  0  0  0
 33 69  1  0  0  0  0
 33 74  2  0  0  0  0
 34 49  1  0  0  0  0
 34 70  1  0  0  0  0
 34 75  2  0  0  0  0
 35 56  1  0  0  0  0
 35 57  1  0  0  0  0
 35 76  2  0  0  0  0
 36 58  1  0  0  0  0
 36 64  1  0  0  0  0
 36 77  2  0  0  0  0
 37 59  1  0  0  0  0
 37 71  1  0  0  0  0
 37 78  2  0  0  0  0
 38 65  1  0  0  0  0
 38 68  1  0  0  0  0
 38 79  2  0  0  0  0
 39 42  1  0  0  0  0
 40 49  1  0  0  0  0
 41 64  1  0  0  0  0
 42 44  1  0  0  0  0
 43 45  1  0  0  0  0
 43 46  1  0  0  0  0
 44 48  1  0  0  0  0
 45 50  1  0  0  0  0
 46 65  1  0  0  0  0
 47 50  1  0  0  0  0
 47 65  1  0  0  0  0
 48 70  1  0  0  0  0
 49 64  1  0  0  0  0
 50 63  1  0  0  0  0
 51 59  1  0  0  0  0
 52 60  1  0  0  0  0
 53 60  1  0  0  0  0
 54 60  1  0  0  0  0
 55 72  1  0  0  0  0
 56 81  1  0  0  0  0
 57 61  1  0  0  0  0
 57 69  1  0  0  0  0
 58 60  1  0  0  0  0
 58 71  1  0  0  0  0
 59 72  1  0  0  0  0
 61 86  1  0  0  0  0
 61 87  1  0  0  0  0
 61 88  1  0  0  0  0
 62 63  1  0  0  0  0
M  CHG  1  72   1
M  ISO  4  38 100  56 101  68 100  81 101
M  END
> <Batch ID>
0175

> <Smiles>
CNC(C)C(=O)NC(C(=O)N1Cc2cc([101O:1][101CH2:1]C(=O)C(NC(=O)c3sc([100NH:0][100C:0](=O)N4CCCC(n5nc(-c6ccc(Oc7ccc(F)cc7F)cc6)c(C(N)=O)c5N)C4)c(F)c3F)C(F)(F)F)ccc2CC1C(=O)NC1CCCc2ccccc21)C(C)(C)C

> <Shape>
0.328

> <Color>
0.193

> <Negative vol penalty>
0.000

$$$$

  -OEChem-04052304353D

 86 94  0     1  0  0  0  0  0999 V2000
  -18.4501  -19.8742   14.6285 C   0  0  0  0  0  0  0  0  0  0  0  0
  -19.2761  -18.8065   14.9649 C   0  0  0  0  0  0  0  0  0  0  0  0
  -25.9067  -27.8115   20.5920 C   0  0  0  0  0  0  0  0  0  0  0  0
  -26.4866  -26.5765   22.5859 C   0  0  0  0  0  0  0  0  0  0  0  0
  -18.7517  -21.1574   15.0826 C   0  0  0  0  0  0  0  0  0  0  0  0
  -20.4049  -19.0216   15.7548 C   0  0  0  0  0  0  0  0  0  0  0  0
  -22.7574  -15.2090   19.9303 C   0  0  0  0  0  0  0  0  0  0  0  0
  -24.8252  -28.3842   21.2613 C   0  0  0  0  0  0  0  0  0  0  0  0
  -25.4052  -27.1493   23.2552 C   0  0  0  0  0  0  0  0  0  0  0  0
  -23.8136  -14.3002   19.8812 C   0  0  0  0  0  0  0  0  0  0  0  0
  -24.3111  -30.8710   23.4939 C   0  0  0  0  0  0  0  0  0  0  0  0
  -24.1103  -32.2433   23.3460 C   0  0  0  0  0  0  0  0  0  0  0  0
  -25.2789  -15.9608   20.8376 C   0  0  0  0  0  0  0  0  0  0  0  0
  -21.9246  -31.8222   22.4066 C   0  0  0  0  0  0  0  0  0  0  0  0
  -30.4326  -16.7246   20.8135 C   0  0  0  0  0  0  0  0  0  0  0  0
  -26.7374  -26.9076   21.2543 C   0  0  0  0  0  0  0  0  0  0  0  0
  -29.1691  -26.8129   20.4893 C   0  0  0  0  0  0  0  0  0  0  0  0
  -19.8795  -21.3868   15.8865 C   0  0  0  0  0  0  0  0  0  0  0  0
  -22.9569  -16.5062   20.4242 C   0  0  0  0  0  0  0  0  0  0  0  0
  -20.7226  -20.3093   16.2190 C   0  0  0  0  0  0  0  0  0  0  0  0
  -24.2230  -16.8833   20.8943 C   0  0  0  0  0  0  0  0  0  0  0  0
  -30.6255  -16.7775   22.1845 C   0  0  0  0  0  0  0  0  0  0  0  0
  -24.5744  -28.0532   22.5929 C   0  0  0  0  0  0  0  0  0  0  0  0
  -25.0752  -14.6770   20.3322 C   0  0  0  0  0  0  0  0  0  0  0  0
  -23.3188  -29.9742   23.0981 C   0  0  0  0  0  0  0  0  0  0  0  0
  -22.9170  -32.7189   22.8023 C   0  0  0  0  0  0  0  0  0  0  0  0
  -22.1255  -30.4498   22.5545 C   0  0  0  0  0  0  0  0  0  0  0  0
  -30.3290  -17.9684   22.8380 C   0  0  0  0  0  0  0  0  0  0  0  0
  -29.8553  -19.0547   22.1108 C   0  0  0  0  0  0  0  0  0  0  0  0
  -27.8544  -26.3152   20.5633 C   0  0  0  0  0  0  0  0  0  0  0  0
  -29.6971  -18.9000   20.7430 C   0  0  0  0  0  0  0  0  0  0  0  0
  -29.8423  -25.8920   19.7242 C   0  0  0  0  0  0  0  0  0  0  0  0
  -29.7317  -28.0012   21.0612 C   0  0  0  0  0  0  0  0  0  0  0  0
  -22.7118  -19.4322   19.2067 C   0  0  0  0  0  0  0  0  0  0  0  0
  -23.3033  -20.3330   22.2663 C   0  0  0  0  0  0  0  0  0  0  0  0
  -29.9460  -13.5356   22.2082 C   0  0  0  0  0  0  0  0  0  0  0  0
  -24.6379  -19.5543   25.3092 C   0  0  0  0  0  0  0  0  0  0  0  0
  -28.9829  -20.0800   18.6350 C   0  0  0  0  0  0  0  0  0  0  0  0
  -20.1908  -22.7991   16.3143 C   0  0  0  0  0  0  0  0  0  0  0  0
  -21.8010  -17.4660   20.4953 C   0  0  0  0  0  0  0  0  0  0  0  0
  -24.4846  -18.2575   21.4525 C   0  0  0  0  0  0  0  0  0  0  0  0
  -21.1987  -22.8809   17.4579 C   0  0  0  0  0  0  0  0  0  0  0  0
  -29.1377  -22.6977   16.2265 C   0  0  0  0  0  0  0  0  0  0  0  0
  -22.3869  -21.9631   17.1890 C   0  0  0  0  0  0  0  0  0  0  0  0
  -28.9519  -23.9681   17.0594 C   0  0  0  0  0  0  0  0  0  0  0  0
  -28.2849  -21.5447   16.7528 C   0  0  0  0  0  0  0  0  0  0  0  0
  -28.2666  -22.5209   19.0146 C   0  0  0  0  0  0  0  0  0  0  0  0
  -21.9424  -20.4985   17.0944 C   0  0  1  0  0  0  0  0  0  0  0  0
  -22.2390  -18.9266   20.5403 C   0  0  1  0  0  0  0  0  0  0  0  0
  -29.1547  -23.6915   18.5620 C   0  0  2  0  0  0  0  0  0  0  0  0
  -25.0026  -20.5064   27.6022 C   0  0  0  0  0  0  0  0  0  0  0  0
  -25.5820  -22.0517   21.1876 C   0  0  0  0  0  0  0  0  0  0  0  0
  -26.4768  -22.2064   23.5207 C   0  0  0  0  0  0  0  0  0  0  0  0
  -24.2225  -23.1318   22.9876 C   0  0  0  0  0  0  0  0  0  0  0  0
  -23.0159  -17.4279   26.5766 C   0  0  0  0  0  0  0  0  0  0  0  0
  -31.1370  -15.5841   22.9385 C   0  0  0  0  0  0  0  0  0  0  0  0
  -28.8095  -12.6182   22.6227 C   0  0  0  0  0  0  0  0  0  0  0  0
  -27.7041  -12.5493   21.5751 C   0  0  0  0  0  0  0  0  0  0  0  0
  -27.1226  -13.9242   21.2797 C   0  0  0  0  0  0  0  0  0  1  0  0
  -24.5449  -20.6256   23.0736 C   0  0  1  0  0  0  0  0  0  0  0  0
  -24.0815  -19.6826   26.7158 C   0  0  2  0  0  0  0  0  0  0  0  0
  -25.2024  -21.9785   22.6801 C   0  0  0  0  0  0  0  0  0  0  0  0
  -29.9744  -17.7589   20.0732 N   0  0  0  0  0  0  0  0  0  0  0  0
  -27.6993  -25.1674   19.8981 N   0  0  0  0  0  0  0  0  0  0  0  0
  -28.9254  -24.9362   19.3988 N   0  0  0  0  0  0  0  0  0  0  0  0
  -23.3239  -19.1621   21.4953 N   0  0  0  0  0  0  0  0  0  0  0  0
  -28.5330  -21.3380   18.1813 N   0  0  0  0  0  0  0  0  0  0  0  0
  -31.1231  -25.8148   19.3047 N   0  0  0  0  0  0  0  0  0  0  0  0
  -28.8998  -28.8362   21.8195 N   0  0  0  0  0  0  0  0  0  0  0  0
  -29.2159  -20.0118   20.0082 N   0  0  0  0  0  0  0  0  0  0  0  0
  -21.7073  -19.9554   18.4151 N   0  0  0  0  0  0  0  0  0  0  0  0
  -30.1181  -14.5758   23.1097 N   0  0  0  0  0  0  0  0  0  0  0  0
  -24.1504  -20.5383   24.4754 N   0  0  0  0  0  0  0  0  0  0  0  0
  -23.9166  -18.3359   27.3324 N   0  3  0  0  0  0  0  0  0  0  0  0
  -30.9324  -28.3218   20.8907 O   0  0  0  0  0  0  0  0  0  0  0  0
  -23.9002  -19.3548   18.9179 O   0  0  0  0  0  0  0  0  0  0  0  0
  -22.3476  -21.1108   22.3234 O   0  0  0  0  0  0  0  0  0  0  0  0
  -30.6191  -13.3611   21.1960 O   0  0  0  0  0  0  0  0  0  0  0  0
  -25.4290  -18.6718   24.9837 O   0  0  0  0  0  0  0  0  0  0  0  0
  -29.1753  -19.1409   17.8584 O   0  0  0  0  0  0  0  0  0  0  0  0
  -23.5194  -28.6120   23.2464 O   0  0  0  0  0  0  0  0  0  0  0  0
  -26.1081  -13.7922   20.2848 O   0  0  0  0  0  0  0  0  0  1  0  0
  -22.7237  -34.0369   22.6617 F   0  0  0  0  0  0  0  0  0  0  0  0
  -21.1680  -29.5932   22.1735 F   0  0  0  0  0  0  0  0  0  0  0  0
  -30.4955  -18.0774   24.1631 F   0  0  0  0  0  0  0  0  0  0  0  0
  -29.5671  -20.2081   22.7270 F   0  0  0  0  0  0  0  0  0  0  0  0
  1  2  1  0  0  0  0
  1  5  2  0  0  0  0
  2  6  2  0  0  0  0
  3  8  2  0  0  0  0
  3 16  1  0  0  0  0
  4  9  1  0  0  0  0
  4 16  2  0  0  0  0
  5 18  1  0  0  0  0
  6 20  1  0  0  0  0
  7 10  2  0  0  0  0
  7 19  1  0  0  0  0
  8 23  1  0  0  0  0
  9 23  2  0  0  0  0
 10 24  1  0  0  0  0
 11 12  2  0  0  0  0
 11 25  1  0  0  0  0
 12 26  1  0  0  0  0
 13 21  1  0  0  0  0
 13 24  2  0  0  0  0
 14 26  2  0  0  0  0
 14 27  1  0  0  0  0
 15 22  1  0  0  0  0
 15 63  2  0  0  0  0
 16 30  1  0  0  0  0
 17 30  1  0  0  0  0
 17 32  2  0  0  0  0
 17 33  1  0  0  0  0
 18 20  2  0  0  0  0
 18 39  1  0  0  0  0
 19 21  2  0  0  0  0
 19 40  1  0  0  0  0
 20 48  1  0  0  0  0
 21 41  1  0  0  0  0
 22 28  2  0  0  0  0
 22 56  1  0  0  0  0
 23 81  1  0  0  0  0
 24 82  1  0  0  0  0
 25 27  2  0  0  0  0
 25 81  1  0  0  0  0
 26 83  1  0  0  0  0
 27 84  1  0  0  0  0
 28 29  1  0  0  0  0
 28 85  1  0  0  0  0
 29 31  2  0  0  0  0
 29 86  1  0  0  0  0
 30 64  2  0  0  0  0
 31 63  1  0  0  0  0
 31 70  1  0  0  0  0
 32 65  1  0  0  0  0
 32 68  1  0  0  0  0
 33 69  1  0  0  0  0
 33 75  2  0  0  0  0
 34 49  1  0  0  0  0
 34 71  1  0  0  0  0
 34 76  2  0  0  0  0
 35 60  1  0  0  0  0
 35 66  1  0  0  0  0
 35 77  2  0  0  0  0
 36 57  1  0  0  0  0
 36 72  1  0  0  0  0
 36 78  2  0  0  0  0
 37 61  1  0  0  0  0
 37 73  1  0  0  0  0
 37 79  2  0  0  0  0
 38 67  1  0  0  0  0
 38 70  1  0  0  0  0
 38 80  2  0  0  0  0
 39 42  1  0  0  0  0
 40 49  1  0  0  0  0
 41 66  1  0  0  0  0
 42 44  1  0  0  0  0
 43 45  1  0  0  0  0
 43 46  1  0  0  0  0
 44 48  1  0  0  0  0
 45 50  1  0  0  0  0
 46 67  1  0  0  0  0
 47 50  1  0  0  0  0
 47 67  1  0  0  0  0
 48 71  1  0  0  0  0
 49 66  1  0  0  0  0
 50 65  1  0  0  0  0
 51 61  1  0  0  0  0
 52 62  1  0  0  0  0
 53 62  1  0  0  0  0
 54 62  1  0  0  0  0
 55 74  1  0  0  0  0
 56 72  1  0  0  0  0
 57 58  1  0  0  0  0
 58 59  1  0  0  0  0
 59 82  1  0  0  0  0
 60 62  1  0  0  0  0
 60 73  1  0  0  0  0
 61 74  1  0  0  0  0
 64 65  1  0  0  0  0
M  CHG  1  74   1
M  ISO  4  38 100  59 101  70 100  82 101
M  END
> <Batch ID>
0175

> <Smiles>
CNC(C)C(=O)NC(C(=O)N1Cc2cc([101O:1][101CH2:1]CCC(=O)NCc3cnc([100NH:0][100C:0](=O)N4CCCC(n5nc(-c6ccc(Oc7ccc(F)cc7F)cc6)c(C(N)=O)c5N)C4)c(F)c3F)ccc2CC1C(=O)NC1CCCc2ccccc21)C(C)(C)C

> <Shape>
0.191

> <Color>
0.049

> <Negative vol penalty>
0.000

$$$$

  -OEChem-04052304353D

 87 95  0     1  0  0  0  0  0999 V2000
  -17.5082  -30.3678   22.9901 C   0  0  0  0  0  0  0  0  0  0  0  0
  -18.6738  -30.5067   23.7368 C   0  0  0  0  0  0  0  0  0  0  0  0
  -23.3713   -9.8059   21.7870 C   0  0  0  0  0  0  0  0  0  0  0  0
  -23.9490  -11.0536   23.7736 C   0  0  0  0  0  0  0  0  0  0  0  0
  -29.9300  -19.9559   18.2061 C   0  0  0  0  0  0  0  0  0  0  0  0
  -16.9401  -29.1067   22.8148 C   0  0  0  0  0  0  0  0  0  0  0  0
  -19.2713  -29.3845   24.3096 C   0  0  0  0  0  0  0  0  0  0  0  0
  -26.0533  -27.5664   22.7002 C   0  0  0  0  0  0  0  0  0  0  0  0
  -22.7034   -8.8657   22.5716 C   0  0  0  0  0  0  0  0  0  0  0  0
  -23.2810  -10.1135   24.5583 C   0  0  0  0  0  0  0  0  0  0  0  0
  -27.4139  -27.2729   22.6052 C   0  0  0  0  0  0  0  0  0  0  0  0
  -19.7238   -8.6025   24.1482 C   0  0  0  0  0  0  0  0  0  0  0  0
  -30.2592  -18.7626   17.5634 C   0  0  0  0  0  0  0  0  0  0  0  0
  -18.4660   -8.1775   23.7207 C   0  0  0  0  0  0  0  0  0  0  0  0
  -27.1041  -25.3309   24.0126 C   0  0  0  0  0  0  0  0  0  0  0  0
  -19.2773   -5.9054   23.5926 C   0  0  0  0  0  0  0  0  0  0  0  0
  -23.9941  -10.8998   22.3880 C   0  0  0  0  0  0  0  0  0  0  0  0
  -29.5433  -19.9427   19.5463 C   0  0  0  0  0  0  0  0  0  0  0  0
  -24.1444  -13.0369   21.0031 C   0  0  0  0  0  0  0  0  0  0  0  0
  -17.5363  -27.9672   23.3776 C   0  0  0  0  0  0  0  0  0  0  0  0
  -25.2093  -26.7335   23.4400 C   0  0  0  0  0  0  0  0  0  0  0  0
  -18.7099  -28.1071   24.1428 C   0  0  0  0  0  0  0  0  0  0  0  0
  -25.7383  -25.6128   24.1011 C   0  0  0  0  0  0  0  0  0  0  0  0
  -29.8148  -17.5427   19.6010 C   0  0  0  0  0  0  0  0  0  0  0  0
  -22.6583   -9.0195   23.9573 C   0  0  0  0  0  0  0  0  0  0  0  0
  -27.9380  -26.1581   23.2600 C   0  0  0  0  0  0  0  0  0  0  0  0
  -20.7585   -7.6790   24.2979 C   0  0  0  0  0  0  0  0  0  0  0  0
  -18.2427   -6.8289   23.4429 C   0  0  0  0  0  0  0  0  0  0  0  0
  -30.2015  -17.5559   18.2608 C   0  0  0  0  0  0  0  0  0  0  0  0
  -20.5352   -6.3305   24.0201 C   0  0  0  0  0  0  0  0  0  0  0  0
  -29.4856  -18.7361   20.2437 C   0  0  0  0  0  0  0  0  0  0  0  0
  -24.6847  -11.8710   21.5780 C   0  0  0  0  0  0  0  0  0  0  0  0
  -25.1989  -13.6115   20.3366 C   0  0  0  0  0  0  0  0  0  0  0  0
  -29.1932  -21.2162   20.2267 C   0  0  0  0  0  0  0  0  0  0  0  0
  -22.8087  -13.5543   21.0660 C   0  0  0  0  0  0  0  0  0  0  0  0
  -21.7223  -26.0233   24.6286 C   0  0  0  0  0  0  0  0  0  0  0  0
  -30.6200  -23.8744   21.4647 C   0  0  0  0  0  0  0  0  0  0  0  0
  -22.9761  -23.3250   23.8818 C   0  0  0  0  0  0  0  0  0  0  0  0
  -24.5710  -20.6165   22.5561 C   0  0  0  0  0  0  0  0  0  0  0  0
  -30.5360  -15.1802   20.0957 C   0  0  0  0  0  0  0  0  0  0  0  0
  -16.8594  -26.6312   23.2004 C   0  0  0  0  0  0  0  0  0  0  0  0
  -23.7485  -27.0455   23.6203 C   0  0  0  0  0  0  0  0  0  0  0  0
  -24.7988  -24.7646   24.9140 C   0  0  0  0  0  0  0  0  0  0  0  0
  -17.7611  -25.4435   23.5268 C   0  0  0  0  0  0  0  0  0  0  0  0
  -29.8012  -11.7966   19.2657 C   0  0  0  0  0  0  0  0  0  0  0  0
  -18.4950  -25.6764   24.8435 C   0  0  0  0  0  0  0  0  0  0  0  0
  -28.3601  -11.6103   19.7460 C   0  0  0  0  0  0  0  0  0  0  0  0
  -30.5999  -12.6985   20.2051 C   0  0  0  0  0  0  0  0  0  0  0  0
  -28.5410  -13.8132   20.9714 C   0  0  0  0  0  0  0  0  0  0  0  0
  -19.4014  -26.9104   24.7592 C   0  0  1  0  0  0  0  0  0  0  0  0
  -22.8662  -25.7860   23.6869 C   0  0  1  0  0  0  0  0  0  0  0  0
  -27.6786  -12.9648   20.0225 C   0  0  2  0  0  0  0  0  0  0  0  0
  -24.2732  -18.1576   22.1530 C   0  0  0  0  0  0  0  0  0  0  0  0
  -23.5098  -22.7799   26.8351 C   0  0  0  0  0  0  0  0  0  0  0  0
  -24.1386  -20.4369   26.2160 C   0  0  0  0  0  0  0  0  0  0  0  0
  -21.8248  -21.2616   25.7815 C   0  0  0  0  0  0  0  0  0  0  0  0
  -24.8029  -20.9511   19.6247 C   0  0  0  0  0  0  0  0  0  0  0  0
  -31.0736  -25.3125   21.6730 C   0  0  0  0  0  0  0  0  0  0  0  0
  -29.6299  -23.6560   20.3386 C   0  0  0  0  0  0  0  0  0  0  0  0
  -29.9236  -26.2671   21.9550 C   0  0  0  0  0  0  0  0  0  1  0  0
  -23.7309  -22.1075   24.3521 C   0  0  1  0  0  0  0  0  0  0  0  0
  -24.1074  -19.5546   21.5753 C   0  0  2  0  0  0  0  0  0  0  0  0
  -23.3144  -21.6687   25.7844 C   0  0  0  0  0  0  0  0  0  0  0  0
  -25.9816  -11.7128   21.3009 N   0  0  0  0  0  0  0  0  0  0  0  0
  -26.2651  -12.7868   20.5444 N   0  0  0  0  0  0  0  0  0  0  0  0
  -23.5362  -24.5723   24.1837 N   0  0  0  0  0  0  0  0  0  0  0  0
  -29.8955  -13.9648   20.4173 N   0  0  0  0  0  0  0  0  0  0  0  0
  -25.3088  -14.7367   19.5988 N   0  0  0  0  0  0  0  0  0  0  0  0
  -21.8485  -12.8384   21.7939 N   0  0  0  0  0  0  0  0  0  0  0  0
  -29.7565  -16.3167   20.3090 N   0  0  0  0  0  0  0  0  0  0  0  0
  -29.8431  -22.3593   19.7681 N   0  0  0  0  0  0  0  0  0  0  0  0
  -20.6147  -26.5978   24.0349 N   0  0  0  0  0  0  0  0  0  0  0  0
  -23.5313  -21.0841   23.3318 N   0  0  0  0  0  0  0  0  0  0  0  0
  -24.8940  -19.6373   20.3123 N   0  3  0  0  0  0  0  0  0  0  0  0
  -28.3844  -21.2000   21.1508 O   0  0  0  0  0  0  0  0  0  0  0  0
  -22.4726  -14.6113   20.4801 O   0  0  0  0  0  0  0  0  0  0  0  0
  -21.8346  -25.7074   25.8073 O   0  0  0  0  0  0  0  0  0  0  0  0
  -30.9872  -22.9555   22.1963 O   0  0  0  0  0  0  0  0  0  0  0  0
  -21.9155  -23.1773   23.2681 O   0  0  0  0  0  0  0  0  0  0  0  0
  -25.7393  -20.9909   22.6296 O   0  0  0  0  0  0  0  0  0  0  0  0
  -31.6810  -15.2089   19.6374 O   0  0  0  0  0  0  0  0  0  0  0  0
  -22.0065   -8.1025   24.7232 O   0  0  0  0  0  0  0  0  0  0  0  0
  -29.2663  -25.8749   23.1594 O   0  0  0  0  0  0  0  0  0  1  0  0
  -17.0344   -6.4207   23.0338 F   0  0  0  0  0  0  0  0  0  0  0  0
  -30.5201  -16.4152   17.6327 F   0  0  0  0  0  0  0  0  0  0  0  0
  -21.5249   -5.4384   24.1632 F   0  0  0  0  0  0  0  0  0  0  0  0
  -29.1135  -18.7237   21.5329 F   0  0  0  0  0  0  0  0  0  0  0  0
  1  2  1  0  0  0  0
  1  6  2  0  0  0  0
  2  7  2  0  0  0  0
  3  9  2  0  0  0  0
  3 17  1  0  0  0  0
  4 10  1  0  0  0  0
  4 17  2  0  0  0  0
  5 13  2  0  0  0  0
  5 18  1  0  0  0  0
  6 20  1  0  0  0  0
  7 22  1  0  0  0  0
  8 11  2  0  0  0  0
  8 21  1  0  0  0  0
  9 25  1  0  0  0  0
 10 25  2  0  0  0  0
 11 26  1  0  0  0  0
 12 14  2  0  0  0  0
 12 27  1  0  0  0  0
 13 29  1  0  0  0  0
 14 28  1  0  0  0  0
 15 23  1  0  0  0  0
 15 26  2  0  0  0  0
 16 28  2  0  0  0  0
 16 30  1  0  0  0  0
 17 32  1  0  0  0  0
 18 31  2  0  0  0  0
 18 34  1  0  0  0  0
 19 32  1  0  0  0  0
 19 33  2  0  0  0  0
 19 35  1  0  0  0  0
 20 22  2  0  0  0  0
 20 41  1  0  0  0  0
 21 23  2  0  0  0  0
 21 42  1  0  0  0  0
 22 50  1  0  0  0  0
 23 43  1  0  0  0  0
 24 29  2  0  0  0  0
 24 31  1  0  0  0  0
 24 70  1  0  0  0  0
 25 82  1  0  0  0  0
 26 83  1  0  0  0  0
 27 30  2  0  0  0  0
 27 82  1  0  0  0  0
 28 84  1  0  0  0  0
 29 85  1  0  0  0  0
 30 86  1  0  0  0  0
 31 87  1  0  0  0  0
 32 64  2  0  0  0  0
 33 65  1  0  0  0  0
 33 68  1  0  0  0  0
 34 71  1  0  0  0  0
 34 75  2  0  0  0  0
 35 69  1  0  0  0  0
 35 76  2  0  0  0  0
 36 51  1  0  0  0  0
 36 72  1  0  0  0  0
 36 77  2  0  0  0  0
 37 58  1  0  0  0  0
 37 59  1  0  0  0  0
 37 78  2  0  0  0  0
 38 61  1  0  0  0  0
 38 66  1  0  0  0  0
 38 79  2  0  0  0  0
 39 62  1  0  0  0  0
 39 73  1  0  0  0  0
 39 80  2  0  0  0  0
 40 67  1  0  0  0  0
 40 70  1  0  0  0  0
 40 81  2  0  0  0  0
 41 44  1  0  0  0  0
 42 51  1  0  0  0  0
 43 66  1  0  0  0  0
 44 46  1  0  0  0  0
 45 47  1  0  0  0  0
 45 48  1  0  0  0  0
 46 50  1  0  0  0  0
 47 52  1  0  0  0  0
 48 67  1  0  0  0  0
 49 52  1  0  0  0  0
 49 67  1  0  0  0  0
 50 72  1  0  0  0  0
 51 66  1  0  0  0  0
 52 65  1  0  0  0  0
 53 62  1  0  0  0  0
 54 63  1  0  0  0  0
 55 63  1  0  0  0  0
 56 63  1  0  0  0  0
 57 74  1  0  0  0  0
 58 60  1  0  0  0  0
 59 71  1  0  0  0  0
 60 83  1  0  0  0  0
 61 63  1  0  0  0  0
 61 73  1  0  0  0  0
 62 74  1  0  0  0  0
 64 65  1  0  0  0  0
M  CHG  1  74   1
M  ISO  4  40 100  60 101  70 100  83 101
M  END
> <Batch ID>
0175

> <Smiles>
CNC(C)C(=O)NC(C(=O)N1Cc2cc([101O:1][101CH2:1]CC(=O)CNC(=O)c3ccc(F)c([100NH:0][100C:0](=O)N4CCCC(n5nc(-c6ccc(Oc7ccc(F)cc7F)cc6)c(C(N)=O)c5N)C4)c3F)ccc2CC1C(=O)NC1CCCc2ccccc21)C(C)(C)C

> <Shape>
0.229

> <Color>
0.131

> <Negative vol penalty>
0.000

$$$$

  -OEChem-04052304353D

 85 93  0     1  0  0  0  0  0999 V2000
  -18.4906  -25.4974   19.4837 C   0  0  0  0  0  0  0  0  0  0  0  0
  -19.7111  -26.0349   19.0875 C   0  0  0  0  0  0  0  0  0  0  0  0
  -23.3085  -14.2145   20.9120 C   0  0  0  0  0  0  0  0  0  0  0  0
  -25.6600  -14.4950   21.3903 C   0  0  0  0  0  0  0  0  0  0  0  0
  -18.0207  -25.7170   20.7779 C   0  0  0  0  0  0  0  0  0  0  0  0
  -20.4620  -26.7932   19.9851 C   0  0  0  0  0  0  0  0  0  0  0  0
  -25.3743  -25.5638   19.9325 C   0  0  0  0  0  0  0  0  0  0  0  0
  -23.5369  -12.8815   20.5707 C   0  0  0  0  0  0  0  0  0  0  0  0
  -25.8884  -13.1619   21.0491 C   0  0  0  0  0  0  0  0  0  0  0  0
  -26.1436  -26.0600   18.8810 C   0  0  0  0  0  0  0  0  0  0  0  0
  -24.0203   -9.9464   22.1783 C   0  0  0  0  0  0  0  0  0  0  0  0
  -23.1373   -8.9890   22.6775 C   0  0  0  0  0  0  0  0  0  0  0  0
  -26.9759  -27.8065   20.3219 C   0  0  0  0  0  0  0  0  0  0  0  0
  -22.5584   -8.3466   20.4215 C   0  0  0  0  0  0  0  0  0  0  0  0
  -24.3700  -15.0213   21.3217 C   0  0  0  0  0  0  0  0  0  0  0  0
  -23.8153  -16.9079   22.9467 C   0  0  0  0  0  0  0  0  0  0  0  0
  -18.7707  -26.4703   21.6948 C   0  0  0  0  0  0  0  0  0  0  0  0
  -25.3917  -26.1928   21.1857 C   0  0  0  0  0  0  0  0  0  0  0  0
  -20.0010  -27.0241   21.2924 C   0  0  0  0  0  0  0  0  0  0  0  0
  -26.2079  -27.3148   21.3885 C   0  0  0  0  0  0  0  0  0  0  0  0
  -24.8268  -12.3552   20.6393 C   0  0  0  0  0  0  0  0  0  0  0  0
  -26.9423  -27.1832   19.0747 C   0  0  0  0  0  0  0  0  0  0  0  0
  -24.1724  -10.1040   20.8007 C   0  0  0  0  0  0  0  0  0  0  0  0
  -22.4063   -8.1891   21.7992 C   0  0  0  0  0  0  0  0  0  0  0  0
  -23.4414   -9.3041   19.9223 C   0  0  0  0  0  0  0  0  0  0  0  0
  -24.1348  -16.3985   21.6738 C   0  0  0  0  0  0  0  0  0  0  0  0
  -29.6590  -24.2764   19.6338 C   0  0  0  0  0  0  0  0  0  0  0  0
  -23.6938  -18.2624   22.7539 C   0  0  0  0  0  0  0  0  0  0  0  0
  -30.0763  -23.7476   20.8372 C   0  0  0  0  0  0  0  0  0  0  0  0
  -28.0544  -22.8097   19.9236 C   0  0  0  0  0  0  0  0  0  0  0  0
  -23.6438  -16.2185   24.1920 C   0  0  0  0  0  0  0  0  0  0  0  0
  -30.3681  -25.3556   18.8991 C   0  0  0  0  0  0  0  0  0  0  0  0
  -23.2198  -27.6420   22.9985 C   0  0  0  0  0  0  0  0  0  0  0  0
  -29.9308  -28.1768   17.2770 C   0  0  0  0  0  0  0  0  0  0  0  0
  -25.6473  -27.7400   25.1479 C   0  0  0  0  0  0  0  0  0  0  0  0
  -29.0111  -27.7084   25.7226 C   0  0  0  0  0  0  0  0  0  0  0  0
  -25.9809  -22.0331   18.7220 C   0  0  0  0  0  0  0  0  0  0  0  0
  -18.1995  -26.7203   23.0680 C   0  0  0  0  0  0  0  0  0  0  0  0
  -24.5766  -25.6293   22.3173 C   0  0  0  0  0  0  0  0  0  0  0  0
  -26.2776  -28.0145   22.7204 C   0  0  0  0  0  0  0  0  0  0  0  0
  -19.2316  -27.2209   24.0752 C   0  0  0  0  0  0  0  0  0  0  0  0
  -22.5302  -21.4782   19.4015 C   0  0  0  0  0  0  0  0  0  0  0  0
  -20.0759  -28.3353   23.4652 C   0  0  0  0  0  0  0  0  0  0  0  0
  -22.5215  -20.1621   20.1824 C   0  0  0  0  0  0  0  0  0  0  0  0
  -23.5943  -21.4803   18.3054 C   0  0  0  0  0  0  0  0  0  0  0  0
  -24.9417  -19.8260   19.5369 C   0  0  0  0  0  0  0  0  0  0  0  0
  -20.8561  -27.8314   22.2449 C   0  0  1  0  0  0  0  0  0  0  0  0
  -24.2767  -26.6549   23.4062 C   0  0  1  0  0  0  0  0  0  0  0  0
  -23.9299  -19.8012   20.6942 C   0  0  2  0  0  0  0  0  0  0  0  0
  -30.0465  -26.5091   15.4014 C   0  0  0  0  0  0  0  0  0  0  0  0
  -30.6936  -27.8412   27.5797 C   0  0  0  0  0  0  0  0  0  0  0  0
  -25.1693  -30.7459   25.3627 C   0  0  0  0  0  0  0  0  0  0  0  0
  -27.4155  -30.9550   26.4484 C   0  0  0  0  0  0  0  0  0  0  0  0
  -25.6253  -29.6038   27.5403 C   0  0  0  0  0  0  0  0  0  0  0  0
  -30.0884  -25.0243   25.0949 C   0  0  0  0  0  0  0  0  0  0  0  0
  -28.9131  -28.3268   18.3934 C   0  0  0  0  0  0  0  0  0  1  0  0
  -30.3742  -26.7735   16.8631 C   0  0  2  0  0  0  0  0  0  0  0  0
  -26.7577  -28.7129   25.4628 C   0  0  1  0  0  0  0  0  0  0  0  0
  -29.8578  -26.9196   26.7052 C   0  0  2  0  0  0  0  0  0  0  0  0
  -26.2394  -29.9926   26.1778 C   0  0  0  0  0  0  0  0  0  0  0  0
  -24.2113  -17.3517   20.7413 N   0  0  0  0  0  0  0  0  0  0  0  0
  -28.5000  -23.7396   19.1081 N   0  0  0  0  0  0  0  0  0  0  0  0
  -23.9381  -18.4737   21.4288 N   0  0  0  0  0  0  0  0  0  0  0  0
  -25.4574  -27.4293   23.7939 N   0  0  0  0  0  0  0  0  0  0  0  0
  -24.9028  -21.1342   18.8647 N   0  0  0  0  0  0  0  0  0  0  0  0
  -23.4029  -19.2814   23.5902 N   0  0  0  0  0  0  0  0  0  0  0  0
  -31.1673  -24.0828   21.5689 N   0  0  0  0  0  0  0  0  0  0  0  0
  -23.8049  -14.8264   24.2127 N   0  0  0  0  0  0  0  0  0  0  0  0
  -26.8969  -22.0065   19.7731 N   0  0  0  0  0  0  0  0  0  0  0  0
  -29.7931  -25.7576   17.7000 N   0  0  0  0  0  0  0  0  0  0  0  0
  -22.0097  -27.0647   22.6640 N   0  0  0  0  0  0  0  0  0  0  0  0
  -27.7524  -27.9647   26.2238 N   0  0  0  0  0  0  0  0  0  0  0  0
  -30.7778  -26.0017   25.9759 N   0  3  0  0  0  0  0  0  0  0  0  0
  -23.3400  -16.8171   25.2516 O   0  0  0  0  0  0  0  0  0  0  0  0
  -31.4094  -25.8131   19.3628 O   0  0  0  0  0  0  0  0  0  0  0  0
  -23.4822  -28.8390   22.9896 O   0  0  0  0  0  0  0  0  0  0  0  0
  -30.4345  -29.1694   16.7439 O   0  0  0  0  0  0  0  0  0  0  0  0
  -24.9778  -27.2673   26.0699 O   0  0  0  0  0  0  0  0  0  0  0  0
  -29.4262  -28.0649   24.6221 O   0  0  0  0  0  0  0  0  0  0  0  0
  -26.0696  -22.7914   17.7529 O   0  0  0  0  0  0  0  0  0  0  0  0
  -25.0501  -11.0544   20.3067 O   0  0  0  0  0  0  0  0  0  0  0  0
  -27.6937  -27.6699   18.0499 O   0  0  0  0  0  0  0  0  0  1  0  0
  -21.5595   -7.2687   22.2787 F   0  0  0  0  0  0  0  0  0  0  0  0
  -23.5841   -9.4501   18.5979 F   0  0  0  0  0  0  0  0  0  0  0  0
  -28.9796  -22.5293   21.3415 S   0  0  0  0  0  0  0  0  0  0  0  0
  1  2  1  0  0  0  0
  1  5  2  0  0  0  0
  2  6  2  0  0  0  0
  3  8  2  0  0  0  0
  3 15  1  0  0  0  0
  4  9  1  0  0  0  0
  4 15  2  0  0  0  0
  5 17  1  0  0  0  0
  6 19  1  0  0  0  0
  7 10  2  0  0  0  0
  7 18  1  0  0  0  0
  8 21  1  0  0  0  0
  9 21  2  0  0  0  0
 10 22  1  0  0  0  0
 11 12  2  0  0  0  0
 11 23  1  0  0  0  0
 12 24  1  0  0  0  0
 13 20  1  0  0  0  0
 13 22  2  0  0  0  0
 14 24  2  0  0  0  0
 14 25  1  0  0  0  0
 15 26  1  0  0  0  0
 16 26  1  0  0  0  0
 16 28  2  0  0  0  0
 16 31  1  0  0  0  0
 17 19  2  0  0  0  0
 17 38  1  0  0  0  0
 18 20  2  0  0  0  0
 18 39  1  0  0  0  0
 19 47  1  0  0  0  0
 20 40  1  0  0  0  0
 21 81  1  0  0  0  0
 22 82  1  0  0  0  0
 23 25  2  0  0  0  0
 23 81  1  0  0  0  0
 24 83  1  0  0  0  0
 25 84  1  0  0  0  0
 26 61  2  0  0  0  0
 27 29  2  0  0  0  0
 27 32  1  0  0  0  0
 27 62  1  0  0  0  0
 28 63  1  0  0  0  0
 28 66  1  0  0  0  0
 29 67  1  0  0  0  0
 29 85  1  0  0  0  0
 30 62  2  0  0  0  0
 30 69  1  0  0  0  0
 30 85  1  0  0  0  0
 31 68  1  0  0  0  0
 31 74  2  0  0  0  0
 32 70  1  0  0  0  0
 32 75  2  0  0  0  0
 33 48  1  0  0  0  0
 33 71  1  0  0  0  0
 33 76  2  0  0  0  0
 34 56  1  0  0  0  0
 34 57  1  0  0  0  0
 34 77  2  0  0  0  0
 35 58  1  0  0  0  0
 35 64  1  0  0  0  0
 35 78  2  0  0  0  0
 36 59  1  0  0  0  0
 36 72  1  0  0  0  0
 36 79  2  0  0  0  0
 37 65  1  0  0  0  0
 37 69  1  0  0  0  0
 37 80  2  0  0  0  0
 38 41  1  0  0  0  0
 39 48  1  0  0  0  0
 40 64  1  0  0  0  0
 41 43  1  0  0  0  0
 42 44  1  0  0  0  0
 42 45  1  0  0  0  0
 43 47  1  0  0  0  0
 44 49  1  0  0  0  0
 45 65  1  0  0  0  0
 46 49  1  0  0  0  0
 46 65  1  0  0  0  0
 47 71  1  0  0  0  0
 48 64  1  0  0  0  0
 49 63  1  0  0  0  0
 50 57  1  0  0  0  0
 51 59  1  0  0  0  0
 52 60  1  0  0  0  0
 53 60  1  0  0  0  0
 54 60  1  0  0  0  0
 55 73  1  0  0  0  0
 56 82  1  0  0  0  0
 57 70  1  0  0  0  0
 58 60  1  0  0  0  0
 58 72  1  0  0  0  0
 59 73  1  0  0  0  0
 61 63  1  0  0  0  0
M  CHG  1  73   1
M  ISO  4  37 100  56 101  69 100  82 101
M  END
> <Batch ID>
0175

> <Smiles>
CNC(C)C(=O)NC(C(=O)N1Cc2cc([101O:1][101CH2:1]C(=O)C(C)NC(=O)c3nc([100NH:0][100C:0](=O)N4CCCC(n5nc(-c6ccc(Oc7ccc(F)cc7F)cc6)c(C(N)=O)c5N)C4)sc3N)ccc2CC1C(=O)NC1CCCc2ccccc21)C(C)(C)C

> <Shape>
0.208

> <Color>
0.078

> <Negative vol penalty>
0.000

$$$$

  -OEChem-04052304353D

 89 97  0     1  0  0  0  0  0999 V2000
  -31.2175  -28.3456   18.6665 C   0  0  0  0  0  0  0  0  0  0  0  0
  -30.4849  -27.1932   18.9324 C   0  0  0  0  0  0  0  0  0  0  0  0
  -23.1072   -9.7718   20.8939 C   0  0  0  0  0  0  0  0  0  0  0  0
  -23.8106  -10.4499   23.1035 C   0  0  0  0  0  0  0  0  0  0  0  0
  -31.1131  -29.4477   19.5141 C   0  0  0  0  0  0  0  0  0  0  0  0
  -29.6483  -27.1419   20.0468 C   0  0  0  0  0  0  0  0  0  0  0  0
  -25.1248  -25.1260   18.9887 C   0  0  0  0  0  0  0  0  0  0  0  0
  -22.3692   -8.7267   21.4495 C   0  0  0  0  0  0  0  0  0  0  0  0
  -23.0726   -9.4048   23.6592 C   0  0  0  0  0  0  0  0  0  0  0  0
  -25.0557  -23.7377   18.8819 C   0  0  0  0  0  0  0  0  0  0  0  0
  -19.3946   -8.3310   23.0078 C   0  0  0  0  0  0  0  0  0  0  0  0
  -18.1006   -8.1254   22.5297 C   0  0  0  0  0  0  0  0  0  0  0  0
  -24.1735  -23.6151   21.1237 C   0  0  0  0  0  0  0  0  0  0  0  0
  -18.7122   -5.8942   21.8337 C   0  0  0  0  0  0  0  0  0  0  0  0
  -23.8279  -10.6334   21.7209 C   0  0  0  0  0  0  0  0  0  0  0  0
  -24.1468  -13.0231   20.8869 C   0  0  0  0  0  0  0  0  0  0  0  0
  -30.2674  -29.4133   20.6340 C   0  0  0  0  0  0  0  0  0  0  0  0
  -24.7283  -25.7696   20.1698 C   0  0  0  0  0  0  0  0  0  0  0  0
  -29.5335  -28.2441   20.9109 C   0  0  0  0  0  0  0  0  0  0  0  0
  -24.2361  -25.0120   21.2421 C   0  0  0  0  0  0  0  0  0  0  0  0
  -22.3519   -8.5432   22.8322 C   0  0  0  0  0  0  0  0  0  0  0  0
  -24.5827  -22.9818   19.9505 C   0  0  0  0  0  0  0  0  0  0  0  0
  -20.3476   -7.3183   22.8989 C   0  0  0  0  0  0  0  0  0  0  0  0
  -17.7593   -6.9070   21.9426 C   0  0  0  0  0  0  0  0  0  0  0  0
  -20.0064   -6.0998   22.3118 C   0  0  0  0  0  0  0  0  0  0  0  0
  -24.5909  -11.7128   21.1474 C   0  0  0  0  0  0  0  0  0  0  0  0
  -30.4816  -17.2441   20.8921 C   0  0  0  0  0  0  0  0  0  0  0  0
  -25.2398  -13.6549   20.3460 C   0  0  0  0  0  0  0  0  0  0  0  0
  -29.7501  -18.2934   21.4077 C   0  0  0  0  0  0  0  0  0  0  0  0
  -31.9450  -18.8485   20.5852 C   0  0  0  0  0  0  0  0  0  0  0  0
  -22.8613  -13.6160   21.1137 C   0  0  0  0  0  0  0  0  0  0  0  0
  -26.1855  -27.5894   22.3305 C   0  0  0  0  0  0  0  0  0  0  0  0
  -25.2896  -19.5245   20.7580 C   0  0  0  0  0  0  0  0  0  0  0  0
  -23.1854  -27.8946   23.5256 C   0  0  0  0  0  0  0  0  0  0  0  0
  -20.0355  -26.6122   23.8096 C   0  0  0  0  0  0  0  0  0  0  0  0
  -27.8148  -19.5010   22.4660 C   0  0  0  0  0  0  0  0  0  0  0  0
  -30.6891  -14.7984   20.3246 C   0  0  0  0  0  0  0  0  0  0  0  0
  -30.2236  -30.6125   21.5476 C   0  0  0  0  0  0  0  0  0  0  0  0
  -24.7839  -27.2701   20.2594 C   0  0  0  0  0  0  0  0  0  0  0  0
  -23.7790  -25.6562   22.5245 C   0  0  0  0  0  0  0  0  0  0  0  0
  -29.0289  -30.6108   22.4979 C   0  0  0  0  0  0  0  0  0  0  0  0
  -29.6578  -11.7876   18.7282 C   0  0  0  0  0  0  0  0  0  0  0  0
  -28.8662  -29.2408   23.1485 C   0  0  0  0  0  0  0  0  0  0  0  0
  -28.2111  -11.6075   19.1939 C   0  0  0  0  0  0  0  0  0  0  0  0
  -30.5408  -12.3673   19.8318 C   0  0  0  0  0  0  0  0  0  0  0  0
  -28.5933  -13.4259   20.9069 C   0  0  0  0  0  0  0  0  0  0  0  0
  -28.5963  -28.1587   22.0960 C   0  0  1  0  0  0  0  0  0  0  0  0
  -24.8372  -27.7813   21.6958 C   0  0  1  0  0  0  0  0  0  0  0  0
  -27.6514  -12.9052   19.8090 C   0  0  2  0  0  0  0  0  0  0  0  0
  -17.8126  -27.0672   24.8815 C   0  0  0  0  0  0  0  0  0  0  0  0
  -24.2996  -26.9854   26.2167 C   0  0  0  0  0  0  0  0  0  0  0  0
  -21.9502  -26.5479   26.9630 C   0  0  0  0  0  0  0  0  0  0  0  0
  -22.6518  -28.8620   26.3501 C   0  0  0  0  0  0  0  0  0  0  0  0
  -18.6726  -26.7687   21.1872 C   0  0  0  0  0  0  0  0  0  0  0  0
  -24.6731  -20.8763   21.0527 C   0  0  0  0  0  0  0  0  0  1  0  0
  -22.3517  -27.1345   24.5287 C   0  0  1  0  0  0  0  0  0  0  0  0
  -18.6689  -27.2504   23.6381 C   0  0  2  0  0  0  0  0  0  0  0  0
  -25.5049  -18.5906   21.9328 C   0  0  0  0  0  0  0  0  0  0  0  0
  -26.4272  -19.1767   22.9927 C   0  0  0  0  0  0  0  0  0  0  0  0
  -22.8237  -27.3699   25.9913 C   0  0  0  0  0  0  0  0  0  0  0  0
  -25.8665  -11.5222   20.8004 N   0  0  0  0  0  0  0  0  0  0  0  0
  -31.7403  -17.5606   20.4196 N   0  0  0  0  0  0  0  0  0  0  0  0
  -26.2333  -12.7209   20.3162 N   0  0  0  0  0  0  0  0  0  0  0  0
  -23.8586  -27.1257   22.5658 N   0  0  0  0  0  0  0  0  0  0  0  0
  -29.9500  -13.5972   20.3640 N   0  0  0  0  0  0  0  0  0  0  0  0
  -25.4384  -14.9126   19.8975 N   0  0  0  0  0  0  0  0  0  0  0  0
  -21.8507  -12.8252   21.6773 N   0  0  0  0  0  0  0  0  0  0  0  0
  -30.0124  -15.9086   20.8289 N   0  0  0  0  0  0  0  0  0  0  0  0
  -28.4562  -18.3731   21.9734 N   0  0  0  0  0  0  0  0  0  0  0  0
  -27.2183  -28.2133   21.6570 N   0  0  0  0  0  0  0  0  0  0  0  0
  -20.9656  -27.5152   24.2795 N   0  0  0  0  0  0  0  0  0  0  0  0
  -17.9540  -26.6408   22.4812 N   0  3  0  0  0  0  0  0  0  0  0  0
  -22.6111  -14.8071   20.8099 O   0  0  0  0  0  0  0  0  0  0  0  0
  -26.2816  -26.9258   23.3563 O   0  0  0  0  0  0  0  0  0  0  0  0
  -25.5890  -19.1797   19.6145 O   0  0  0  0  0  0  0  0  0  0  0  0
  -23.2317  -29.1258   23.5870 O   0  0  0  0  0  0  0  0  0  0  0  0
  -20.2551  -25.4299   23.5559 O   0  0  0  0  0  0  0  0  0  0  0  0
  -28.2494  -20.6476   22.5236 O   0  0  0  0  0  0  0  0  0  0  0  0
  -31.8275  -14.8447   19.8514 O   0  0  0  0  0  0  0  0  0  0  0  0
  -21.6317   -7.5236   23.3748 O   0  0  0  0  0  0  0  0  0  0  0  0
  -24.5148  -21.6264   19.8491 O   0  0  0  0  0  0  0  0  0  1  0  0
  -16.5162   -6.7091   21.4849 F   0  0  0  0  0  0  0  0  0  0  0  0
  -20.9172   -5.1227   22.2054 F   0  0  0  0  0  0  0  0  0  0  0  0
  -33.0922  -19.4345   20.2140 F   0  0  0  0  0  0  0  0  0  0  0  0
  -26.0328  -17.4063   21.5151 F   0  0  0  0  0  0  0  0  0  0  0  0
  -24.3115  -18.2757   22.5090 F   0  0  0  0  0  0  0  0  0  0  0  0
  -25.8334  -20.2957   23.4978 F   0  0  0  0  0  0  0  0  0  0  0  0
  -26.5092  -18.3058   24.0366 F   0  0  0  0  0  0  0  0  0  0  0  0
  -30.6663  -19.7394   21.3036 S   0  0  0  0  0  0  0  0  0  0  0  0
  1  2  1  0  0  0  0
  1  5  2  0  0  0  0
  2  6  2  0  0  0  0
  3  8  2  0  0  0  0
  3 15  1  0  0  0  0
  4  9  1  0  0  0  0
  4 15  2  0  0  0  0
  5 17  1  0  0  0  0
  6 19  1  0  0  0  0
  7 10  2  0  0  0  0
  7 18  1  0  0  0  0
  8 21  1  0  0  0  0
  9 21  2  0  0  0  0
 10 22  1  0  0  0  0
 11 12  2  0  0  0  0
 11 23  1  0  0  0  0
 12 24  1  0  0  0  0
 13 20  1  0  0  0  0
 13 22  2  0  0  0  0
 14 24  2  0  0  0  0
 14 25  1  0  0  0  0
 15 26  1  0  0  0  0
 16 26  1  0  0  0  0
 16 28  2  0  0  0  0
 16 31  1  0  0  0  0
 17 19  2  0  0  0  0
 17 38  1  0  0  0  0
 18 20  2  0  0  0  0
 18 39  1  0  0  0  0
 19 47  1  0  0  0  0
 20 40  1  0  0  0  0
 21 80  1  0  0  0  0
 22 81  1  0  0  0  0
 23 25  2  0  0  0  0
 23 80  1  0  0  0  0
 24 82  1  0  0  0  0
 25 83  1  0  0  0  0
 26 61  2  0  0  0  0
 27 29  2  0  0  0  0
 27 62  1  0  0  0  0
 27 68  1  0  0  0  0
 28 63  1  0  0  0  0
 28 66  1  0  0  0  0
 29 69  1  0  0  0  0
 29 89  1  0  0  0  0
 30 62  2  0  0  0  0
 30 84  1  0  0  0  0
 30 89  1  0  0  0  0
 31 67  1  0  0  0  0
 31 73  2  0  0  0  0
 32 48  1  0  0  0  0
 32 70  1  0  0  0  0
 32 74  2  0  0  0  0
 33 55  1  0  0  0  0
 33 58  1  0  0  0  0
 33 75  2  0  0  0  0
 34 56  1  0  0  0  0
 34 64  1  0  0  0  0
 34 76  2  0  0  0  0
 35 57  1  0  0  0  0
 35 71  1  0  0  0  0
 35 77  2  0  0  0  0
 36 59  1  0  0  0  0
 36 69  1  0  0  0  0
 36 78  2  0  0  0  0
 37 65  1  0  0  0  0
 37 68  1  0  0  0  0
 37 79  2  0  0  0  0
 38 41  1  0  0  0  0
 39 48  1  0  0  0  0
 40 64  1  0  0  0  0
 41 43  1  0  0  0  0
 42 44  1  0  0  0  0
 42 45  1  0  0  0  0
 43 47  1  0  0  0  0
 44 49  1  0  0  0  0
 45 65  1  0  0  0  0
 46 49  1  0  0  0  0
 46 65  1  0  0  0  0
 47 70  1  0  0  0  0
 48 64  1  0  0  0  0
 49 63  1  0  0  0  0
 50 57  1  0  0  0  0
 51 60  1  0  0  0  0
 52 60  1  0  0  0  0
 53 60  1  0  0  0  0
 54 72  1  0  0  0  0
 55 81  1  0  0  0  0
 56 60  1  0  0  0  0
 56 71  1  0  0  0  0
 57 72  1  0  0  0  0
 58 59  1  0  0  0  0
 58 85  1  0  0  0  0
 58 86  1  0  0  0  0
 59 87  1  0  0  0  0
 59 88  1  0  0  0  0
 61 63  1  0  0  0  0
M  CHG  1  72   1
M  ISO  4  37 100  55 101  68 100  81 101
M  END
> <Batch ID>
0175

> <Smiles>
CNC(C)C(=O)NC(C(=O)N1Cc2cc([101O:1][101CH2:1]C(=O)C(F)(F)C(F)(F)C(=O)Nc3sc(F)nc3[100NH:0][100C:0](=O)N3CCCC(n4nc(-c5ccc(Oc6ccc(F)cc6F)cc5)c(C(N)=O)c4N)C3)ccc2CC1C(=O)NC1CCCc2ccccc21)C(C)(C)C

> <Shape>
0.236

> <Color>
0.163

> <Negative vol penalty>
0.000

$$$$

  -OEChem-04052304353D

 86 94  0     1  0  0  0  0  0999 V2000
  -25.1063  -25.8242   12.0750 C   0  0  0  0  0  0  0  0  0  0  0  0
  -26.1851  -26.1677   12.8834 C   0  0  0  0  0  0  0  0  0  0  0  0
  -30.6038  -22.6496   28.9496 C   0  0  0  0  0  0  0  0  0  0  0  0
  -25.8673  -16.0036   20.0320 C   0  0  0  0  0  0  0  0  0  0  0  0
  -24.6436  -17.5560   21.4212 C   0  0  0  0  0  0  0  0  0  0  0  0
  -23.8589  -26.4071   12.2943 C   0  0  0  0  0  0  0  0  0  0  0  0
  -26.0174  -27.0953   13.9111 C   0  0  0  0  0  0  0  0  0  0  0  0
  -27.4263  -25.3429   20.7547 C   0  0  0  0  0  0  0  0  0  0  0  0
  -30.7675  -21.7256   27.9177 C   0  0  0  0  0  0  0  0  0  0  0  0
  -29.3862  -23.3120   29.1061 C   0  0  0  0  0  0  0  0  0  0  0  0
  -24.7608  -15.1547   20.0061 C   0  0  0  0  0  0  0  0  0  0  0  0
  -23.5371  -16.7071   21.3951 C   0  0  0  0  0  0  0  0  0  0  0  0
  -27.8752  -25.1493   22.0613 C   0  0  0  0  0  0  0  0  0  0  0  0
  -22.3796  -12.4096   19.8717 C   0  0  0  0  0  0  0  0  0  0  0  0
  -22.6010  -11.0469   20.0705 C   0  0  0  0  0  0  0  0  0  0  0  0
  -27.1087  -27.3624   22.6638 C   0  0  0  0  0  0  0  0  0  0  0  0
  -23.5368  -11.5167   22.2478 C   0  0  0  0  0  0  0  0  0  0  0  0
  -25.8087  -17.2042   20.7396 C   0  0  0  0  0  0  0  0  0  0  0  0
  -27.2471  -19.1213   19.8657 C   0  0  0  0  0  0  0  0  0  0  0  0
  -23.6734  -27.3350   13.3313 C   0  0  0  0  0  0  0  0  0  0  0  0
  -26.8023  -26.5424   20.4012 C   0  0  0  0  0  0  0  0  0  0  0  0
  -24.7666  -27.6921   14.1436 C   0  0  0  0  0  0  0  0  0  0  0  0
  -26.6458  -27.5571   21.3597 C   0  0  0  0  0  0  0  0  0  0  0  0
  -29.7137  -21.4640   27.0421 C   0  0  0  0  0  0  0  0  0  0  0  0
  -28.3324  -23.0505   28.2305 C   0  0  0  0  0  0  0  0  0  0  0  0
  -23.5957  -15.5064   20.6876 C   0  0  0  0  0  0  0  0  0  0  0  0
  -27.7170  -26.1567   23.0134 C   0  0  0  0  0  0  0  0  0  0  0  0
  -22.7369  -13.3259   20.8608 C   0  0  0  0  0  0  0  0  0  0  0  0
  -23.1795  -10.6004   21.2586 C   0  0  0  0  0  0  0  0  0  0  0  0
  -23.3155  -12.8794   22.0489 C   0  0  0  0  0  0  0  0  0  0  0  0
  -28.4961  -22.1265   27.1985 C   0  0  0  0  0  0  0  0  0  0  0  0
  -26.9516  -18.0813   20.7673 C   0  0  0  0  0  0  0  0  0  0  0  0
  -28.4309  -19.6463   20.3232 C   0  0  0  0  0  0  0  0  0  0  0  0
  -27.2819  -25.4145   25.1888 C   0  0  0  0  0  0  0  0  0  1  0  0
  -26.5167  -19.5724   18.7174 C   0  0  0  0  0  0  0  0  0  0  0  0
  -27.6020  -25.1765   26.4662 C   0  0  0  0  0  0  0  0  0  0  0  0
  -26.5746  -24.5472   27.3525 C   0  0  0  0  0  0  0  0  0  0  0  0
  -25.1353  -28.5633   17.7154 C   0  0  0  0  0  0  0  0  0  0  0  0
  -23.5438  -29.0268   20.2967 C   0  0  0  0  0  0  0  0  0  0  0  0
  -21.8225  -28.9396   23.2406 C   0  0  0  0  0  0  0  0  0  0  0  0
  -31.0275  -19.7824   25.7033 C   0  0  0  0  0  0  0  0  0  0  0  0
  -22.3177  -27.9740   13.4998 C   0  0  0  0  0  0  0  0  0  0  0  0
  -26.3585  -26.8182   18.9902 C   0  0  0  0  0  0  0  0  0  0  0  0
  -25.9998  -28.8444   20.9255 C   0  0  0  0  0  0  0  0  0  0  0  0
  -22.1344  -28.6672   14.8475 C   0  0  0  0  0  0  0  0  0  0  0  0
  -32.3963  -18.4200   22.7121 C   0  0  0  0  0  0  0  0  0  0  0  0
  -23.3495  -29.5296   15.1739 C   0  0  0  0  0  0  0  0  0  0  0  0
  -31.1832  -18.2788   21.7897 C   0  0  0  0  0  0  0  0  0  0  0  0
  -32.0417  -18.1140   24.1662 C   0  0  0  0  0  0  0  0  0  0  0  0
  -29.6880  -18.7285   23.7769 C   0  0  0  0  0  0  0  0  0  0  0  0
  -24.6185  -28.6756   15.2842 C   0  0  1  0  0  0  0  0  0  0  0  0
  -25.0753  -27.6650   18.9158 C   0  0  1  0  0  0  0  0  0  0  0  0
  -29.9810  -19.0899   22.3116 C   0  0  2  0  0  0  0  0  0  0  0  0
  -25.3747  -22.4380   29.5818 C   0  0  0  0  0  0  0  0  0  0  0  0
  -19.7750  -29.8705   24.3534 C   0  0  0  0  0  0  0  0  0  0  0  0
  -24.9652  -31.7000   20.6677 C   0  0  0  0  0  0  0  0  0  0  0  0
  -23.3622  -32.2145   22.5207 C   0  0  0  0  0  0  0  0  0  0  0  0
  -22.5151  -31.8771   20.1988 C   0  0  0  0  0  0  0  0  0  0  0  0
  -20.6614  -26.2439   23.6197 C   0  0  0  0  0  0  0  0  0  0  0  0
  -26.3178  -23.5904   29.6532 C   0  0  0  0  0  0  0  0  0  0  0  0
  -23.3388  -29.8847   21.5195 C   0  0  1  0  0  0  0  0  0  0  0  0
  -20.3506  -28.7210   23.5410 C   0  0  2  0  0  0  0  0  0  0  0  0
  -23.5613  -31.3956   21.2275 C   0  0  0  0  0  0  0  0  0  0  0  0
  -27.8735  -17.9517   21.7251 N   0  0  0  0  0  0  0  0  0  0  0  0
  -28.7599  -18.9171   21.4279 N   0  0  0  0  0  0  0  0  0  0  0  0
  -24.8428  -28.5597   20.0623 N   0  0  0  0  0  0  0  0  0  0  0  0
  -30.8971  -18.9220   24.5926 N   0  0  0  0  0  0  0  0  0  0  0  0
  -29.2122  -20.6560   19.8843 N   0  0  0  0  0  0  0  0  0  0  0  0
  -25.3197  -18.9217   18.3889 N   0  0  0  0  0  0  0  0  0  0  0  0
  -29.8835  -20.5246   25.9950 N   0  0  0  0  0  0  0  0  0  0  0  0
  -24.6544  -27.9858   16.5559 N   0  0  0  0  0  0  0  0  0  0  0  0
  -22.0085  -29.5635   22.0251 N   0  0  0  0  0  0  0  0  0  0  0  0
  -27.0673  -23.7416   28.3964 N   0  0  0  0  0  0  0  0  0  0  0  0
  -20.1611  -27.4596   24.3116 N   0  3  0  0  0  0  0  0  0  0  0  0
  -26.9223  -20.5138   17.9942 O   0  0  0  0  0  0  0  0  0  0  0  0
  -25.3843  -24.7535   27.1112 O   0  0  0  0  0  0  0  0  0  0  0  0
  -25.5834  -29.6980   17.8317 O   0  0  0  0  0  0  0  0  0  0  0  0
  -22.5814  -28.7806   19.5643 O   0  0  0  0  0  0  0  0  0  0  0  0
  -22.7176  -28.5951   24.0092 O   0  0  0  0  0  0  0  0  0  0  0  0
  -32.0852  -19.8756   26.3314 O   0  0  0  0  0  0  0  0  0  0  0  0
  -28.8507  -25.4325   26.9905 O   0  0  0  0  0  0  0  0  0  0  0  0
  -22.5158  -14.6784   20.6622 O   0  0  0  0  0  0  0  0  0  0  0  0
  -28.1535  -25.9594   24.2882 O   0  0  0  0  0  0  0  0  0  1  0  0
  -23.3906   -9.2916   21.4501 F   0  0  0  0  0  0  0  0  0  0  0  0
  -23.6598  -13.7548   23.0033 F   0  0  0  0  0  0  0  0  0  0  0  0
  -27.4826  -21.8754   26.3554 F   0  0  0  0  0  0  0  0  0  0  0  0
  1  2  1  0  0  0  0
  1  6  2  0  0  0  0
  2  7  2  0  0  0  0
  3  9  1  0  0  0  0
  3 10  2  0  0  0  0
  4 11  2  0  0  0  0
  4 18  1  0  0  0  0
  5 12  1  0  0  0  0
  5 18  2  0  0  0  0
  6 20  1  0  0  0  0
  7 22  1  0  0  0  0
  8 13  2  0  0  0  0
  8 21  1  0  0  0  0
  9 24  2  0  0  0  0
 10 25  1  0  0  0  0
 11 26  1  0  0  0  0
 12 26  2  0  0  0  0
 13 27  1  0  0  0  0
 14 15  2  0  0  0  0
 14 28  1  0  0  0  0
 15 29  1  0  0  0  0
 16 23  1  0  0  0  0
 16 27  2  0  0  0  0
 17 29  2  0  0  0  0
 17 30  1  0  0  0  0
 18 32  1  0  0  0  0
 19 32  1  0  0  0  0
 19 33  2  0  0  0  0
 19 35  1  0  0  0  0
 20 22  2  0  0  0  0
 20 42  1  0  0  0  0
 21 23  2  0  0  0  0
 21 43  1  0  0  0  0
 22 51  1  0  0  0  0
 23 44  1  0  0  0  0
 24 31  1  0  0  0  0
 24 70  1  0  0  0  0
 25 31  2  0  0  0  0
 25 73  1  0  0  0  0
 26 82  1  0  0  0  0
 27 83  1  0  0  0  0
 28 30  2  0  0  0  0
 28 82  1  0  0  0  0
 29 84  1  0  0  0  0
 30 85  1  0  0  0  0
 31 86  1  0  0  0  0
 32 64  2  0  0  0  0
 33 65  1  0  0  0  0
 33 68  1  0  0  0  0
 34 36  2  0  0  0  0
 34 83  1  0  0  0  0
 35 69  1  0  0  0  0
 35 75  2  0  0  0  0
 36 37  1  0  0  0  0
 36 81  1  0  0  0  0
 37 73  1  0  0  0  0
 37 76  2  0  0  0  0
 38 52  1  0  0  0  0
 38 71  1  0  0  0  0
 38 77  2  0  0  0  0
 39 61  1  0  0  0  0
 39 66  1  0  0  0  0
 39 78  2  0  0  0  0
 40 62  1  0  0  0  0
 40 72  1  0  0  0  0
 40 79  2  0  0  0  0
 41 67  1  0  0  0  0
 41 70  1  0  0  0  0
 41 80  2  0  0  0  0
 42 45  1  0  0  0  0
 43 52  1  0  0  0  0
 44 66  1  0  0  0  0
 45 47  1  0  0  0  0
 46 48  1  0  0  0  0
 46 49  1  0  0  0  0
 47 51  1  0  0  0  0
 48 53  1  0  0  0  0
 49 67  1  0  0  0  0
 50 53  1  0  0  0  0
 50 67  1  0  0  0  0
 51 71  1  0  0  0  0
 52 66  1  0  0  0  0
 53 65  1  0  0  0  0
 54 60  1  0  0  0  0
 55 62  1  0  0  0  0
 56 63  1  0  0  0  0
 57 63  1  0  0  0  0
 58 63  1  0  0  0  0
 59 74  1  0  0  0  0
 60 73  1  0  0  0  0
 61 63  1  0  0  0  0
 61 72  1  0  0  0  0
 62 74  1  0  0  0  0
 64 65  1  0  0  0  0
M  CHG  1  74   1
M  ISO  4  34 101  41 100  70 100  83 101
M  END
> <Batch ID>
0175

> <Smiles>
CCN(C(=O)C(=O)[101CH2:1][101O:1]c1ccc2c(c1)CN(C(=O)C(NC(=O)C(C)NC)C(C)(C)C)C(C(=O)NC1CCCc3ccccc31)C2)c1cccc([100NH:0][100C:0](=O)N2CCCC(n3nc(-c4ccc(Oc5ccc(F)cc5F)cc4)c(C(N)=O)c3N)C2)c1F

> <Shape>
0.176

> <Color>
0.068

> <Negative vol penalty>
0.000

$$$$

  -OEChem-04052304353D

 86 94  0     1  0  0  0  0  0999 V2000
  -27.2926  -37.3381   22.3196 C   0  0  0  0  0  0  0  0  0  0  0  0
  -27.8159  -36.0495   22.2875 C   0  0  0  0  0  0  0  0  0  0  0  0
  -25.0199   -9.2655   20.6980 C   0  0  0  0  0  0  0  0  0  0  0  0
  -25.4692  -10.0494   22.9386 C   0  0  0  0  0  0  0  0  0  0  0  0
  -25.9958  -37.5513   22.7851 C   0  0  0  0  0  0  0  0  0  0  0  0
  -27.0429  -34.9733   22.7219 C   0  0  0  0  0  0  0  0  0  0  0  0
  -27.3068  -31.0024   19.5902 C   0  0  0  0  0  0  0  0  0  0  0  0
  -24.9177   -7.9590   21.1755 C   0  0  0  0  0  0  0  0  0  0  0  0
  -25.3670   -8.7429   23.4162 C   0  0  0  0  0  0  0  0  0  0  0  0
  -28.4477  -30.2050   19.6679 C   0  0  0  0  0  0  0  0  0  0  0  0
  -24.1816   -4.4654   21.8593 C   0  0  0  0  0  0  0  0  0  0  0  0
  -23.1170   -3.6890   21.4017 C   0  0  0  0  0  0  0  0  0  0  0  0
  -27.2305  -28.6038   20.9997 C   0  0  0  0  0  0  0  0  0  0  0  0
  -21.5560   -5.2875   22.3212 C   0  0  0  0  0  0  0  0  0  0  0  0
  -26.7201  -19.7407   21.8258 C   0  0  0  0  0  0  0  0  0  0  0  0
  -25.2957  -10.3108   21.5795 C   0  0  0  0  0  0  0  0  0  0  0  0
  -24.3650  -12.6050   20.9645 C   0  0  0  0  0  0  0  0  0  0  0  0
  -25.2030  -36.4760   23.2163 C   0  0  0  0  0  0  0  0  0  0  0  0
  -26.1202  -30.6112   20.2269 C   0  0  0  0  0  0  0  0  0  0  0  0
  -25.7347  -35.1724   23.1948 C   0  0  0  0  0  0  0  0  0  0  0  0
  -26.0751  -29.3968   20.9265 C   0  0  0  0  0  0  0  0  0  0  0  0
  -25.0913   -7.6976   22.5346 C   0  0  0  0  0  0  0  0  0  0  0  0
  -28.4105  -29.0069   20.3752 C   0  0  0  0  0  0  0  0  0  0  0  0
  -23.9334   -5.6528   22.5480 C   0  0  0  0  0  0  0  0  0  0  0  0
  -21.8042   -4.1000   21.6326 C   0  0  0  0  0  0  0  0  0  0  0  0
  -22.6207   -6.0638   22.7788 C   0  0  0  0  0  0  0  0  0  0  0  0
  -25.4019  -11.6606   21.0867 C   0  0  0  0  0  0  0  0  0  0  0  0
  -26.5392  -21.1011   21.9704 C   0  0  0  0  0  0  0  0  0  0  0  0
  -27.8725  -19.3580   21.1703 C   0  0  0  0  0  0  0  0  0  0  0  0
  -24.9772  -13.7225   20.4517 C   0  0  0  0  0  0  0  0  0  0  0  0
  -28.4949  -21.5265   20.8928 C   0  0  0  0  0  0  0  0  0  0  0  0
  -25.3610  -21.6183   22.6442 C   0  0  0  0  0  0  0  0  0  0  0  0
  -22.9731  -12.4830   21.2858 C   0  0  0  0  0  0  0  0  0  0  0  0
  -30.4323  -24.5689   19.9027 C   0  0  0  0  0  0  0  0  0  0  0  0
  -30.4667  -26.0846   19.9214 C   0  0  0  0  0  0  0  0  0  0  0  0
  -24.3082  -31.8278   22.5378 C   0  0  0  0  0  0  0  0  0  0  0  0
  -22.3416  -29.3695   21.7559 C   0  0  0  0  0  0  0  0  0  0  0  0
  -21.9895  -26.2646   20.3839 C   0  0  0  0  0  0  0  0  0  0  0  0
  -29.1880  -17.3646   20.3689 C   0  0  0  0  0  0  0  0  0  0  0  0
  -23.8237  -36.7614   23.7555 C   0  0  0  0  0  0  0  0  0  0  0  0
  -24.8905  -31.4697   20.1112 C   0  0  0  0  0  0  0  0  0  0  0  0
  -24.8203  -28.9219   21.6106 C   0  0  0  0  0  0  0  0  0  0  0  0
  -22.9368  -35.5222   23.8463 C   0  0  0  0  0  0  0  0  0  0  0  0
  -29.6178  -14.3467   18.5291 C   0  0  0  0  0  0  0  0  0  0  0  0
  -23.7005  -34.3646   24.4814 C   0  0  0  0  0  0  0  0  0  0  0  0
  -28.4740  -13.4566   19.0204 C   0  0  0  0  0  0  0  0  0  0  0  0
  -30.1911  -15.2063   19.6544 C   0  0  0  0  0  0  0  0  0  0  0  0
  -28.0586  -15.1120   20.8843 C   0  0  0  0  0  0  0  0  0  0  0  0
  -24.9184  -33.9763   23.6343 C   0  0  1  0  0  0  0  0  0  0  0  0
  -23.8826  -31.2236   21.2296 C   0  0  1  0  0  0  0  0  0  0  0  0
  -27.4059  -14.2750   19.7720 C   0  0  2  0  0  0  0  0  0  0  0  0
  -20.2673  -24.4988   19.9219 C   0  0  0  0  0  0  0  0  0  0  0  0
  -22.3714  -28.5733   24.7013 C   0  0  0  0  0  0  0  0  0  0  0  0
  -21.4598  -26.3388   24.0346 C   0  0  0  0  0  0  0  0  0  0  0  0
  -20.1333  -28.4058   23.5979 C   0  0  0  0  0  0  0  0  0  0  0  0
  -22.4389  -26.4261   17.4631 C   0  0  0  0  0  0  0  0  0  0  0  0
  -29.2558  -23.8766   20.5407 C   0  0  0  0  0  0  0  0  0  0  0  0
  -29.3221  -26.8191   20.5722 C   0  0  0  0  0  0  0  0  0  1  0  0
  -22.1908  -27.9363   22.2057 C   0  0  1  0  0  0  0  0  0  0  0  0
  -20.9969  -25.7158   19.3749 C   0  0  2  0  0  0  0  0  0  0  0  0
  -21.5632  -27.8232   23.6237 C   0  0  0  0  0  0  0  0  0  0  0  0
  -26.5830  -12.1366   20.6839 N   0  0  0  0  0  0  0  0  0  0  0  0
  -27.4096  -22.0256   21.5144 N   0  0  0  0  0  0  0  0  0  0  0  0
  -28.7850  -20.2274   20.6888 N   0  0  0  0  0  0  0  0  0  0  0  0
  -25.1297  -22.8873   22.8139 N   0  0  0  0  0  0  0  0  0  0  0  0
  -26.2921  -13.3923   20.3034 N   0  0  0  0  0  0  0  0  0  0  0  0
  -23.6460  -29.7993   21.4739 N   0  0  0  0  0  0  0  0  0  0  0  0
  -29.1223  -15.9561   20.3181 N   0  0  0  0  0  0  0  0  0  0  0  0
  -24.5135  -14.9455   20.1176 N   0  0  0  0  0  0  0  0  0  0  0  0
  -22.5111  -11.2653   21.8036 N   0  0  0  0  0  0  0  0  0  0  0  0
  -28.0998  -17.9702   20.9963 N   0  0  0  0  0  0  0  0  0  0  0  0
  -29.4108  -22.4488   20.4098 N   0  0  0  0  0  0  0  0  0  0  0  0
  -24.5080  -33.1942   22.4879 N   0  0  0  0  0  0  0  0  0  0  0  0
  -21.4319  -27.2581   21.1605 N   0  0  0  0  0  0  0  0  0  0  0  0
  -21.6984  -25.3191   18.1213 N   0  3  0  0  0  0  0  0  0  0  0  0
  -22.1599  -13.4205   21.1033 O   0  0  0  0  0  0  0  0  0  0  0  0
  -31.3730  -23.9974   19.3659 O   0  0  0  0  0  0  0  0  0  0  0  0
  -31.4292  -26.6335   19.4005 O   0  0  0  0  0  0  0  0  0  0  0  0
  -24.4437  -31.1079   23.5201 O   0  0  0  0  0  0  0  0  0  0  0  0
  -21.3381  -30.0793   21.6515 O   0  0  0  0  0  0  0  0  0  0  0  0
  -23.1430  -25.8505   20.4765 O   0  0  0  0  0  0  0  0  0  0  0  0
  -30.1262  -17.9891   19.8671 O   0  0  0  0  0  0  0  0  0  0  0  0
  -24.9915   -6.4228   23.0010 O   0  0  0  0  0  0  0  0  0  0  0  0
  -29.5229  -28.2269   20.4531 O   0  0  0  0  0  0  0  0  0  1  0  0
  -20.7820   -3.3552   21.1917 F   0  0  0  0  0  0  0  0  0  0  0  0
  -22.3760   -7.2042   23.4388 F   0  0  0  0  0  0  0  0  0  0  0  0
  1  2  1  0  0  0  0
  1  5  2  0  0  0  0
  2  6  2  0  0  0  0
  3  8  2  0  0  0  0
  3 16  1  0  0  0  0
  4  9  1  0  0  0  0
  4 16  2  0  0  0  0
  5 18  1  0  0  0  0
  6 20  1  0  0  0  0
  7 10  2  0  0  0  0
  7 19  1  0  0  0  0
  8 22  1  0  0  0  0
  9 22  2  0  0  0  0
 10 23  1  0  0  0  0
 11 12  2  0  0  0  0
 11 24  1  0  0  0  0
 12 25  1  0  0  0  0
 13 21  1  0  0  0  0
 13 23  2  0  0  0  0
 14 25  2  0  0  0  0
 14 26  1  0  0  0  0
 15 28  1  0  0  0  0
 15 29  2  0  0  0  0
 16 27  1  0  0  0  0
 17 27  1  0  0  0  0
 17 30  2  0  0  0  0
 17 33  1  0  0  0  0
 18 20  2  0  0  0  0
 18 40  1  0  0  0  0
 19 21  2  0  0  0  0
 19 41  1  0  0  0  0
 20 49  1  0  0  0  0
 21 42  1  0  0  0  0
 22 83  1  0  0  0  0
 23 84  1  0  0  0  0
 24 26  2  0  0  0  0
 24 83  1  0  0  0  0
 25 85  1  0  0  0  0
 26 86  1  0  0  0  0
 27 62  2  0  0  0  0
 28 32  1  0  0  0  0
 28 63  2  0  0  0  0
 29 64  1  0  0  0  0
 29 71  1  0  0  0  0
 30 66  1  0  0  0  0
 30 69  1  0  0  0  0
 31 63  1  0  0  0  0
 31 64  2  0  0  0  0
 31 72  1  0  0  0  0
 32 65  2  0  0  0  0
 33 70  1  0  0  0  0
 33 76  2  0  0  0  0
 34 35  1  0  0  0  0
 34 57  1  0  0  0  0
 34 77  2  0  0  0  0
 35 58  1  0  0  0  0
 35 78  2  0  0  0  0
 36 50  1  0  0  0  0
 36 73  1  0  0  0  0
 36 79  2  0  0  0  0
 37 59  1  0  0  0  0
 37 67  1  0  0  0  0
 37 80  2  0  0  0  0
 38 60  1  0  0  0  0
 38 74  1  0  0  0  0
 38 81  2  0  0  0  0
 39 68  1  0  0  0  0
 39 71  1  0  0  0  0
 39 82  2  0  0  0  0
 40 43  1  0  0  0  0
 41 50  1  0  0  0  0
 42 67  1  0  0  0  0
 43 45  1  0  0  0  0
 44 46  1  0  0  0  0
 44 47  1  0  0  0  0
 45 49  1  0  0  0  0
 46 51  1  0  0  0  0
 47 68  1  0  0  0  0
 48 51  1  0  0  0  0
 48 68  1  0  0  0  0
 49 73  1  0  0  0  0
 50 67  1  0  0  0  0
 51 66  1  0  0  0  0
 52 60  1  0  0  0  0
 53 61  1  0  0  0  0
 54 61  1  0  0  0  0
 55 61  1  0  0  0  0
 56 75  1  0  0  0  0
 57 72  1  0  0  0  0
 58 84  1  0  0  0  0
 59 61  1  0  0  0  0
 59 74  1  0  0  0  0
 60 75  1  0  0  0  0
 62 66  1  0  0  0  0
M  CHG  1  75   1
M  ISO  4  39 100  58 101  71 100  84 101
M  END
> <Batch ID>
0175

> <Smiles>
CNC(C)C(=O)NC(C(=O)N1Cc2cc([101O:1][101CH2:1]C(=O)C(=O)CNc3nc(C=N)cc([100NH:0][100C:0](=O)N4CCCC(n5nc(-c6ccc(Oc7ccc(F)cc7F)cc6)c(C(N)=O)c5N)C4)n3)ccc2CC1C(=O)NC1CCCc2ccccc21)C(C)(C)C

> <Shape>
0.356

> <Color>
0.093

> <Negative vol penalty>
0.000

$$$$

  -OEChem-04052304353D

 86 94  0     1  0  0  0  0  0999 V2000
  -16.7878  -30.2039   24.1930 C   0  0  0  0  0  0  0  0  0  0  0  0
  -17.6059  -29.2258   24.7495 C   0  0  0  0  0  0  0  0  0  0  0  0
  -23.0516  -10.3283   20.9248 C   0  0  0  0  0  0  0  0  0  0  0  0
  -24.3679   -8.7233   22.1611 C   0  0  0  0  0  0  0  0  0  0  0  0
  -29.2511  -19.4623   21.8543 C   0  0  0  0  0  0  0  0  0  0  0  0
  -17.0094  -30.6355   22.8859 C   0  0  0  0  0  0  0  0  0  0  0  0
  -18.6454  -28.6780   23.9986 C   0  0  0  0  0  0  0  0  0  0  0  0
  -24.1086  -26.8392   26.0670 C   0  0  0  0  0  0  0  0  0  0  0  0
  -28.4279  -20.2568   22.6522 C   0  0  0  0  0  0  0  0  0  0  0  0
  -22.0602   -9.3664   20.7315 C   0  0  0  0  0  0  0  0  0  0  0  0
  -23.3764   -7.7613   21.9678 C   0  0  0  0  0  0  0  0  0  0  0  0
  -24.6100  -25.5823   26.4024 C   0  0  0  0  0  0  0  0  0  0  0  0
  -19.5361   -7.9970   22.5167 C   0  0  0  0  0  0  0  0  0  0  0  0
  -18.2112   -8.3812   22.7226 C   0  0  0  0  0  0  0  0  0  0  0  0
  -25.5810  -25.3893   24.2026 C   0  0  0  0  0  0  0  0  0  0  0  0
  -17.6931   -7.8231   20.4297 C   0  0  0  0  0  0  0  0  0  0  0  0
  -24.2055  -10.0067   21.6396 C   0  0  0  0  0  0  0  0  0  0  0  0
  -28.6936  -18.4708   21.0470 C   0  0  0  0  0  0  0  0  0  0  0  0
  -25.3357  -11.9095   22.9083 C   0  0  0  0  0  0  0  0  0  0  0  0
  -18.0582  -30.0997   22.1220 C   0  0  0  0  0  0  0  0  0  0  0  0
  -24.3307  -27.3768   24.7911 C   0  0  0  0  0  0  0  0  0  0  0  0
  -18.8804  -29.1020   22.6796 C   0  0  0  0  0  0  0  0  0  0  0  0
  -25.0835  -26.6543   23.8544 C   0  0  0  0  0  0  0  0  0  0  0  0
  -27.0470  -20.0598   22.6428 C   0  0  0  0  0  0  0  0  0  0  0  0
  -22.2226   -8.0829   21.2530 C   0  0  0  0  0  0  0  0  0  0  0  0
  -25.3439  -24.8559   25.4692 C   0  0  0  0  0  0  0  0  0  0  0  0
  -19.9396   -7.5259   21.2673 C   0  0  0  0  0  0  0  0  0  0  0  0
  -17.2896   -8.2943   21.6791 C   0  0  0  0  0  0  0  0  0  0  0  0
  -19.0181   -7.4389   20.2238 C   0  0  0  0  0  0  0  0  0  0  0  0
  -27.3127  -18.2738   21.0376 C   0  0  0  0  0  0  0  0  0  0  0  0
  -26.4894  -19.0683   21.8355 C   0  0  0  0  0  0  0  0  0  0  0  0
  -25.2302  -10.9998   21.8391 C   0  0  0  0  0  0  0  0  0  0  0  0
  -26.4726  -12.6301   22.6350 C   0  0  0  0  0  0  0  0  0  0  0  0
  -29.5741  -17.6277   20.1981 C   0  0  0  0  0  0  0  0  0  0  0  0
  -24.4824  -12.0872   24.0467 C   0  0  0  0  0  0  0  0  0  0  0  0
  -22.4656  -28.2616   22.3740 C   0  0  0  0  0  0  0  0  0  0  0  0
  -25.2623  -29.3143   21.1119 C   0  0  0  0  0  0  0  0  0  0  0  0
  -28.6654  -29.0793   21.0105 C   0  0  0  0  0  0  0  0  0  0  0  0
  -26.5992  -21.8977   24.3043 C   0  0  0  0  0  0  0  0  0  0  0  0
  -29.7692  -15.3967   19.1455 C   0  0  0  0  0  0  0  0  0  0  0  0
  -18.2293  -30.5639   20.6973 C   0  0  0  0  0  0  0  0  0  0  0  0
  -23.8058  -28.7455   24.4539 C   0  0  0  0  0  0  0  0  0  0  0  0
  -25.3672  -27.1956   22.4778 C   0  0  0  0  0  0  0  0  0  0  0  0
  -19.5855  -30.2018   20.0974 C   0  0  0  0  0  0  0  0  0  0  0  0
  -30.1036  -11.8776   19.1848 C   0  0  0  0  0  0  0  0  0  0  0  0
  -19.9294  -28.7458   20.3952 C   0  0  0  0  0  0  0  0  0  0  0  0
  -28.8786  -11.4073   19.9738 C   0  0  0  0  0  0  0  0  0  0  0  0
  -29.7769  -13.0707   18.2878 C   0  0  0  0  0  0  0  0  0  0  0  0
  -27.9104  -13.7303   19.7502 C   0  0  0  0  0  0  0  0  0  0  0  0
  -20.0337  -28.5014   21.9055 C   0  0  1  0  0  0  0  0  0  0  0  0
  -23.6548  -28.9744   22.9531 C   0  0  1  0  0  0  0  0  0  0  0  0
  -28.2044  -12.5754   20.7212 C   0  0  1  0  0  0  0  0  0  0  0  0
  -30.6729  -30.0429   19.8536 C   0  0  0  0  0  0  0  0  0  0  0  0
  -24.6786  -21.5208   25.8945 C   0  0  0  0  0  0  0  0  0  0  0  0
  -24.6108  -27.6757   18.6219 C   0  0  0  0  0  0  0  0  0  0  0  0
  -27.0074  -27.8989   17.9330 C   0  0  0  0  0  0  0  0  0  0  0  0
  -25.5821  -29.9335   18.1602 C   0  0  0  0  0  0  0  0  0  0  0  0
  -29.7943  -30.0838   23.5553 C   0  0  0  0  0  0  0  0  0  0  0  0
  -26.3363  -28.7099   20.2401 C   0  0  1  0  0  0  0  0  0  0  0  0
  -29.7502  -30.1401   21.0585 C   0  0  2  0  0  0  0  0  0  0  0  0
  -25.3954  -22.5243   25.0033 C   0  0  1  0  0  0  0  0  0  1  0  0
  -25.8773  -28.5432   18.7640 C   0  0  0  0  0  0  0  0  0  0  0  0
  -26.2210  -11.1288   20.9527 N   0  0  0  0  0  0  0  0  0  0  0  0
  -26.9598  -12.1280   21.4642 N   0  0  0  0  0  0  0  0  0  0  0  0
  -24.8272  -28.5355   22.1936 N   0  0  0  0  0  0  0  0  0  0  0  0
  -29.1507  -14.1363   19.0723 N   0  0  0  0  0  0  0  0  0  0  0  0
  -27.0930  -13.6380   23.2843 N   0  0  0  0  0  0  0  0  0  0  0  0
  -23.3565  -11.2622   24.1729 N   0  0  0  0  0  0  0  0  0  0  0  0
  -26.2137  -20.8673   23.4531 N   0  0  0  0  0  0  0  0  0  0  0  0
  -29.1152  -16.3331   19.9539 N   0  0  0  0  0  0  0  0  0  0  0  0
  -21.2960  -28.9965   22.4116 N   0  0  0  0  0  0  0  0  0  0  0  0
  -27.5179  -29.5491   20.4073 N   0  0  0  0  0  0  0  0  0  0  0  0
  -30.5711  -29.9860   22.2927 N   0  3  0  0  0  0  0  0  0  0  0  0
  -30.6048  -18.1126   19.7392 O   0  0  0  0  0  0  0  0  0  0  0  0
  -24.7026  -12.9630   24.9174 O   0  0  0  0  0  0  0  0  0  0  0  0
  -22.5996  -27.1294   21.9249 O   0  0  0  0  0  0  0  0  0  0  0  0
  -24.8304  -30.4391   20.8473 O   0  0  0  0  0  0  0  0  0  0  0  0
  -28.8216  -27.9460   21.4597 O   0  0  0  0  0  0  0  0  0  0  0  0
  -27.7374  -22.3127   24.5026 O   0  0  0  0  0  0  0  0  0  0  0  0
  -30.8319  -15.6547   18.5717 O   0  0  0  0  0  0  0  0  0  0  0  0
  -21.2552   -7.1441   21.0647 O   0  0  0  0  0  0  0  0  0  0  0  0
  -25.8339  -23.6285   25.7938 O   0  0  0  0  0  0  0  0  0  1  0  0
  -16.0169   -8.6619   21.8774 F   0  0  0  0  0  0  0  0  0  0  0  0
  -19.3995   -6.9860   19.0217 F   0  0  0  0  0  0  0  0  0  0  0  0
  -26.7654  -17.3238   20.2657 F   0  0  0  0  0  0  0  0  0  0  0  0
  -25.1637  -18.8697   21.8186 F   0  0  0  0  0  0  0  0  0  0  0  0
  1  2  1  0  0  0  0
  1  6  2  0  0  0  0
  2  7  2  0  0  0  0
  3 10  2  0  0  0  0
  3 17  1  0  0  0  0
  4 11  1  0  0  0  0
  4 17  2  0  0  0  0
  5  9  2  0  0  0  0
  5 18  1  0  0  0  0
  6 20  1  0  0  0  0
  7 22  1  0  0  0  0
  8 12  2  0  0  0  0
  8 21  1  0  0  0  0
  9 24  1  0  0  0  0
 10 25  1  0  0  0  0
 11 25  2  0  0  0  0
 12 26  1  0  0  0  0
 13 14  2  0  0  0  0
 13 27  1  0  0  0  0
 14 28  1  0  0  0  0
 15 23  1  0  0  0  0
 15 26  2  0  0  0  0
 16 28  2  0  0  0  0
 16 29  1  0  0  0  0
 17 32  1  0  0  0  0
 18 30  2  0  0  0  0
 18 34  1  0  0  0  0
 19 32  1  0  0  0  0
 19 33  2  0  0  0  0
 19 35  1  0  0  0  0
 20 22  2  0  0  0  0
 20 41  1  0  0  0  0
 21 23  2  0  0  0  0
 21 42  1  0  0  0  0
 22 50  1  0  0  0  0
 23 43  1  0  0  0  0
 24 31  2  0  0  0  0
 24 69  1  0  0  0  0
 25 81  1  0  0  0  0
 26 82  1  0  0  0  0
 27 29  2  0  0  0  0
 27 81  1  0  0  0  0
 28 83  1  0  0  0  0
 29 84  1  0  0  0  0
 30 31  1  0  0  0  0
 30 85  1  0  0  0  0
 31 86  1  0  0  0  0
 32 63  2  0  0  0  0
 33 64  1  0  0  0  0
 33 67  1  0  0  0  0
 34 70  1  0  0  0  0
 34 74  2  0  0  0  0
 35 68  1  0  0  0  0
 35 75  2  0  0  0  0
 36 51  1  0  0  0  0
 36 71  1  0  0  0  0
 36 76  2  0  0  0  0
 37 59  1  0  0  0  0
 37 65  1  0  0  0  0
 37 77  2  0  0  0  0
 38 60  1  0  0  0  0
 38 72  1  0  0  0  0
 38 78  2  0  0  0  0
 39 61  1  0  0  0  0
 39 69  1  0  0  0  0
 39 79  2  0  0  0  0
 40 66  1  0  0  0  0
 40 70  1  0  0  0  0
 40 80  2  0  0  0  0
 41 44  1  0  0  0  0
 42 51  1  0  0  0  0
 43 65  1  0  0  0  0
 44 46  1  0  0  0  0
 45 47  1  0  0  0  0
 45 48  1  0  0  0  0
 46 50  1  0  0  0  0
 47 52  1  0  0  0  0
 48 66  1  0  0  0  0
 49 52  1  0  0  0  0
 49 66  1  0  0  0  0
 50 71  1  0  0  0  0
 51 65  1  0  0  0  0
 52 64  1  0  0  0  0
 53 60  1  0  0  0  0
 54 61  1  0  0  0  0
 55 62  1  0  0  0  0
 56 62  1  0  0  0  0
 57 62  1  0  0  0  0
 58 73  1  0  0  0  0
 59 62  1  0  0  0  0
 59 72  1  0  0  0  0
 60 73  1  0  0  0  0
 61 82  1  0  0  0  0
 63 64  1  0  0  0  0
M  CHG  1  73   1
M  ISO  4  40 100  61 101  70 100  82 101
M  END
> <Batch ID>
0175

> <Smiles>
CNC(C)C(=O)NC(C(=O)N1Cc2cc([101O:1][101CH:1](C)C(=O)Nc3ccc(C(=O)[100NH:0][100C:0](=O)N4CCCC(n5nc(-c6ccc(Oc7ccc(F)cc7F)cc6)c(C(N)=O)c5N)C4)c(F)c3F)ccc2CC1C(=O)NC1CCCc2ccccc21)C(C)(C)C

> <Shape>
0.213

> <Color>
0.114

> <Negative vol penalty>
0.000

$$$$
