
  -OEChem-04052304383D

 83 91  0     1  0  0  0  0  0999 V2000
  -23.9779   -8.2701   22.9082 C   0  0  0  0  0  0  0  0  0  0  0  0
  -24.7489   -9.3841   22.5917 C   0  0  0  0  0  0  0  0  0  0  0  0
  -24.1359  -30.5527   21.2101 C   0  0  0  0  0  0  0  0  0  0  0  0
  -25.5146  -29.9944   23.1140 C   0  0  0  0  0  0  0  0  0  0  0  0
  -22.6253   -8.2413   22.5710 C   0  0  0  0  0  0  0  0  0  0  0  0
  -24.1679  -10.4695   21.9369 C   0  0  0  0  0  0  0  0  0  0  0  0
  -25.5265  -14.9105   23.9558 C   0  0  0  0  0  0  0  0  0  0  0  0
  -23.5616  -31.5985   21.9327 C   0  0  0  0  0  0  0  0  0  0  0  0
  -24.9403  -31.0402   23.8365 C   0  0  0  0  0  0  0  0  0  0  0  0
  -26.7907  -15.3988   23.6283 C   0  0  0  0  0  0  0  0  0  0  0  0
  -24.0963  -33.7889   26.0616 C   0  0  0  0  0  0  0  0  0  0  0  0
  -24.9473  -34.6145   26.7963 C   0  0  0  0  0  0  0  0  0  0  0  0
  -25.7937  -16.8667   21.9942 C   0  0  0  0  0  0  0  0  0  0  0  0
  -26.1054  -35.2272   24.7664 C   0  0  0  0  0  0  0  0  0  0  0  0
  -25.1124  -29.7506   21.8008 C   0  0  0  0  0  0  0  0  0  0  0  0
  -26.8529  -28.7275   20.2415 C   0  0  0  0  0  0  0  0  0  0  0  0
  -22.0253   -9.3309   21.9203 C   0  0  0  0  0  0  0  0  0  0  0  0
  -24.3855  -15.3897   23.2962 C   0  0  0  0  0  0  0  0  0  0  0  0
  -22.8064  -10.4546   21.5895 C   0  0  0  0  0  0  0  0  0  0  0  0
  -24.5159  -16.3848   22.3170 C   0  0  0  0  0  0  0  0  0  0  0  0
  -23.9638  -31.8423   23.2459 C   0  0  0  0  0  0  0  0  0  0  0  0
  -26.9247  -16.3749   22.6453 C   0  0  0  0  0  0  0  0  0  0  0  0
  -24.2499  -33.6823   24.6792 C   0  0  0  0  0  0  0  0  0  0  0  0
  -25.9518  -35.3336   26.1487 C   0  0  0  0  0  0  0  0  0  0  0  0
  -25.2545  -34.4015   24.0317 C   0  0  0  0  0  0  0  0  0  0  0  0
  -25.7056  -28.6698   21.0552 C   0  0  0  0  0  0  0  0  0  0  0  0
  -31.7544  -20.9512   19.6321 C   0  0  0  0  0  0  0  0  0  0  0  0
  -30.8218  -19.9381   19.5540 C   0  0  0  0  0  0  0  0  0  0  0  0
  -26.9986  -27.4487   19.7621 C   0  0  0  0  0  0  0  0  0  0  0  0
  -29.4769  -21.5832   20.0970 C   0  0  0  0  0  0  0  0  0  0  0  0
  -27.7104  -29.8379   19.9456 C   0  0  0  0  0  0  0  0  0  0  0  0
  -22.1491  -14.0880   21.4502 C   0  0  0  0  0  0  0  0  0  0  0  0
  -29.7985  -17.1116   20.5606 C   0  0  0  0  0  0  0  0  0  0  0  0
  -20.8003  -17.0292   21.6789 C   0  0  0  0  0  0  0  0  0  0  0  0
  -21.2126  -20.3698   22.2420 C   0  0  0  0  0  0  0  0  0  0  0  0
  -27.0193  -21.9333   20.5258 C   0  0  0  0  0  0  0  0  0  0  0  0
  -20.5707   -9.2343   21.5338 C   0  0  0  0  0  0  0  0  0  0  0  0
  -23.0264  -14.8720   23.6799 C   0  0  0  0  0  0  0  0  0  0  0  0
  -23.3205  -16.9470   21.5936 C   0  0  0  0  0  0  0  0  0  0  0  0
  -19.9450  -10.5798   21.1754 C   0  0  0  0  0  0  0  0  0  0  0  0
  -23.8629  -23.4801   19.9584 C   0  0  0  0  0  0  0  0  0  0  0  0
  -20.8587  -11.3600   20.2357 C   0  0  0  0  0  0  0  0  0  0  0  0
  -24.1553  -24.9729   20.1262 C   0  0  0  0  0  0  0  0  0  0  0  0
  -24.6700  -22.6304   20.9383 C   0  0  0  0  0  0  0  0  0  0  0  0
  -26.4104  -24.3671   21.0928 C   0  0  0  0  0  0  0  0  0  0  0  0
  -22.2067  -11.6618   20.9015 C   0  0  1  0  0  0  0  0  0  0  0  0
  -21.9834  -15.0613   22.5829 C   0  0  1  0  0  0  0  0  0  0  0  0
  -25.6692  -25.2589   20.0834 C   0  0  2  0  0  0  0  0  0  0  0  0
  -33.2152  -20.9254   19.4126 C   0  0  0  0  0  0  0  0  0  0  0  0
  -30.7223  -16.4153   18.3403 C   0  0  0  0  0  0  0  0  0  0  0  0
  -19.9322  -22.5265   22.3241 C   0  0  0  0  0  0  0  0  0  0  0  0
  -20.6998  -17.0828   18.6298 C   0  0  0  0  0  0  0  0  0  0  0  0
  -20.3234  -19.5548   18.7551 C   0  0  0  0  0  0  0  0  0  0  0  0
  -18.6596  -17.9893   19.7569 C   0  0  0  0  0  0  0  0  0  0  0  0
  -21.9049  -20.8071   25.0860 C   0  0  0  0  0  0  0  0  0  0  0  0
  -28.3519  -17.2960   20.9808 C   0  0  0  0  0  0  0  0  0  1  0  0
  -30.1552  -17.5674   19.1526 C   0  0  2  0  0  0  0  0  0  0  0  0
  -20.8958  -18.3134   20.8910 C   0  0  1  0  0  0  0  0  0  0  0  0
  -20.4537  -21.3437   23.1252 C   0  0  2  0  0  0  0  0  0  0  0  0
  -20.1676  -18.2233   19.5203 C   0  0  0  0  0  0  0  0  0  0  0  0
  -25.1609  -27.4507   21.0927 N   0  0  0  0  0  0  0  0  0  0  0  0
  -29.5154  -20.2986   19.8207 N   0  0  0  0  0  0  0  0  0  0  0  0
  -25.9696  -26.7307   20.2966 N   0  0  0  0  0  0  0  0  0  0  0  0
  -22.0136  -16.4042   21.9998 N   0  0  0  0  0  0  0  0  0  0  0  0
  -26.0952  -22.9527   20.8385 N   0  0  0  0  0  0  0  0  0  0  0  0
  -27.9053  -26.8796   18.9395 N   0  0  0  0  0  0  0  0  0  0  0  0
  -27.4166  -31.0812   20.5221 N   0  0  0  0  0  0  0  0  0  0  0  0
  -31.1351  -18.6283   19.2339 N   0  0  0  0  0  0  0  0  0  0  0  0
  -28.3416  -22.3647   20.4257 N   0  0  0  0  0  0  0  0  0  0  0  0
  -22.0755  -12.7621   21.8324 N   0  0  0  0  0  0  0  0  0  0  0  0
  -20.3941  -19.3674   21.7661 N   0  0  0  0  0  0  0  0  0  0  0  0
  -21.3398  -21.8619   24.2056 N   0  3  0  0  0  0  0  0  0  0  0  0
  -28.6982  -29.7345   19.1793 O   0  0  0  0  0  0  0  0  0  0  0  0
  -22.3289  -14.5088   20.3134 O   0  0  0  0  0  0  0  0  0  0  0  0
  -30.6293  -16.6110   21.3190 O   0  0  0  0  0  0  0  0  0  0  0  0
  -19.6903  -16.6004   22.0040 O   0  0  0  0  0  0  0  0  0  0  0  0
  -22.4109  -20.4887   21.9957 O   0  0  0  0  0  0  0  0  0  0  0  0
  -26.6603  -20.7690   20.3322 O   0  0  0  0  0  0  0  0  0  0  0  0
  -23.4038  -32.8629   23.9511 O   0  0  0  0  0  0  0  0  0  0  0  0
  -28.1575  -16.8527   22.3232 O   0  0  0  0  0  0  0  0  0  1  0  0
  -26.7679  -36.1276   26.8542 F   0  0  0  0  0  0  0  0  0  0  0  0
  -25.4062  -34.3041   22.7038 F   0  0  0  0  0  0  0  0  0  0  0  0
  -30.9748  -22.4194   20.0539 S   0  0  0  0  0  0  0  0  0  0  0  0
  1  2  1  0  0  0  0
  1  5  2  0  0  0  0
  2  6  2  0  0  0  0
  3  8  2  0  0  0  0
  3 15  1  0  0  0  0
  4  9  1  0  0  0  0
  4 15  2  0  0  0  0
  5 17  1  0  0  0  0
  6 19  1  0  0  0  0
  7 10  2  0  0  0  0
  7 18  1  0  0  0  0
  8 21  1  0  0  0  0
  9 21  2  0  0  0  0
 10 22  1  0  0  0  0
 11 12  2  0  0  0  0
 11 23  1  0  0  0  0
 12 24  1  0  0  0  0
 13 20  1  0  0  0  0
 13 22  2  0  0  0  0
 14 24  2  0  0  0  0
 14 25  1  0  0  0  0
 15 26  1  0  0  0  0
 16 26  1  0  0  0  0
 16 29  2  0  0  0  0
 16 31  1  0  0  0  0
 17 19  2  0  0  0  0
 17 37  1  0  0  0  0
 18 20  2  0  0  0  0
 18 38  1  0  0  0  0
 19 46  1  0  0  0  0
 20 39  1  0  0  0  0
 21 79  1  0  0  0  0
 22 80  1  0  0  0  0
 23 25  2  0  0  0  0
 23 79  1  0  0  0  0
 24 81  1  0  0  0  0
 25 82  1  0  0  0  0
 26 61  2  0  0  0  0
 27 28  2  0  0  0  0
 27 49  1  0  0  0  0
 27 83  1  0  0  0  0
 28 62  1  0  0  0  0
 28 68  1  0  0  0  0
 29 63  1  0  0  0  0
 29 66  1  0  0  0  0
 30 62  2  0  0  0  0
 30 69  1  0  0  0  0
 30 83  1  0  0  0  0
 31 67  1  0  0  0  0
 31 73  2  0  0  0  0
 32 47  1  0  0  0  0
 32 70  1  0  0  0  0
 32 74  2  0  0  0  0
 33 56  1  0  0  0  0
 33 57  1  0  0  0  0
 33 75  2  0  0  0  0
 34 58  1  0  0  0  0
 34 64  1  0  0  0  0
 34 76  2  0  0  0  0
 35 59  1  0  0  0  0
 35 71  1  0  0  0  0
 35 77  2  0  0  0  0
 36 65  1  0  0  0  0
 36 69  1  0  0  0  0
 36 78  2  0  0  0  0
 37 40  1  0  0  0  0
 38 47  1  0  0  0  0
 39 64  1  0  0  0  0
 40 42  1  0  0  0  0
 41 43  1  0  0  0  0
 41 44  1  0  0  0  0
 42 46  1  0  0  0  0
 43 48  1  0  0  0  0
 44 65  1  0  0  0  0
 45 48  1  0  0  0  0
 45 65  1  0  0  0  0
 46 70  1  0  0  0  0
 47 64  1  0  0  0  0
 48 63  1  0  0  0  0
 50 57  1  0  0  0  0
 51 59  1  0  0  0  0
 52 60  1  0  0  0  0
 53 60  1  0  0  0  0
 54 60  1  0  0  0  0
 55 72  1  0  0  0  0
 56 80  1  0  0  0  0
 57 68  1  0  0  0  0
 58 60  1  0  0  0  0
 58 71  1  0  0  0  0
 59 72  1  0  0  0  0
 61 63  1  0  0  0  0
M  CHG  1  72   1
M  ISO  4  36 100  56 101  69 100  80 101
M  END
> <Batch ID>
0176

> <Smiles>
CNC(C)C(=O)NC(C(=O)N1Cc2cc([101O:1][101CH2:1]C(=O)C(C)Nc3nc([100NH:0][100C:0](=O)N4CCCC(n5nc(-c6ccc(Oc7ccc(F)cc7F)cc6)c(C(N)=O)c5N)C4)sc3C)ccc2CC1C(=O)NC1CCCc2ccccc21)C(C)(C)C

> <Shape>
0.199

> <Color>
0.091

> <Negative vol penalty>
0.000

$$$$

  -OEChem-04052304383D

 83 91  0     1  0  0  0  0  0999 V2000
  -20.6970  -33.3417   23.7431 C   0  0  0  0  0  0  0  0  0  0  0  0
  -21.9169  -32.6748   23.6941 C   0  0  0  0  0  0  0  0  0  0  0  0
  -26.3532  -12.6736   21.5242 C   0  0  0  0  0  0  0  0  0  0  0  0
  -25.5255  -13.7491   19.5253 C   0  0  0  0  0  0  0  0  0  0  0  0
  -19.5068  -32.6247   23.6286 C   0  0  0  0  0  0  0  0  0  0  0  0
  -21.9473  -31.2902   23.5315 C   0  0  0  0  0  0  0  0  0  0  0  0
  -25.3907  -29.8090   20.1265 C   0  0  0  0  0  0  0  0  0  0  0  0
  -25.1409  -11.9978   21.6625 C   0  0  0  0  0  0  0  0  0  0  0  0
  -24.3132  -13.0731   19.6636 C   0  0  0  0  0  0  0  0  0  0  0  0
  -26.7226  -29.7827   20.5379 C   0  0  0  0  0  0  0  0  0  0  0  0
  -23.6223   -9.3017   20.2993 C   0  0  0  0  0  0  0  0  0  0  0  0
  -23.6697   -7.9408   20.6012 C   0  0  0  0  0  0  0  0  0  0  0  0
  -26.5667  -27.3984   20.8694 C   0  0  0  0  0  0  0  0  0  0  0  0
  -22.4418   -8.3506   22.6412 C   0  0  0  0  0  0  0  0  0  0  0  0
  -29.3141  -21.3998   17.1872 C   0  0  0  0  0  0  0  0  0  0  0  0
  -26.5455  -13.5493   20.4556 C   0  0  0  0  0  0  0  0  0  0  0  0
  -28.9367  -13.8157   19.6077 C   0  0  0  0  0  0  0  0  0  0  0  0
  -19.5228  -31.2318   23.4548 C   0  0  0  0  0  0  0  0  0  0  0  0
  -24.6324  -28.6299   20.0939 C   0  0  0  0  0  0  0  0  0  0  0  0
  -20.7561  -30.5537   23.4158 C   0  0  0  0  0  0  0  0  0  0  0  0
  -25.2262  -27.4120   20.4548 C   0  0  0  0  0  0  0  0  0  0  0  0
  -24.1209  -12.1975   20.7323 C   0  0  0  0  0  0  0  0  0  0  0  0
  -27.3099  -28.5777   20.9122 C   0  0  0  0  0  0  0  0  0  0  0  0
  -22.9848  -10.1872   21.1684 C   0  0  0  0  0  0  0  0  0  0  0  0
  -23.0794   -7.4652   21.7721 C   0  0  0  0  0  0  0  0  0  0  0  0
  -22.3945   -9.7116   22.3393 C   0  0  0  0  0  0  0  0  0  0  0  0
  -27.7973  -14.2482   20.3124 C   0  0  0  0  0  0  0  0  0  0  0  0
  -29.3136  -21.6055   18.5509 C   0  0  0  0  0  0  0  0  0  0  0  0
  -29.8487  -14.8291   19.7743 C   0  0  0  0  0  0  0  0  0  0  0  0
  -29.3394  -23.7001   17.9015 C   0  0  0  0  0  0  0  0  0  0  0  0
  -29.1514  -12.6061   18.8685 C   0  0  0  0  0  0  0  0  0  0  0  0
  -29.3597  -25.1830   17.9826 C   0  0  0  0  0  0  0  0  0  0  0  0
  -22.0100  -27.6079   21.5711 C   0  0  0  0  0  0  0  0  0  0  0  0
  -22.3253  -25.0885   19.5523 C   0  0  0  0  0  0  0  0  0  0  0  0
  -24.3702  -23.1839   17.5933 C   0  0  0  0  0  0  0  0  0  0  0  0
  -29.3560  -27.0824   19.5613 C   0  0  0  0  0  0  0  0  0  0  0  0
  -29.2986  -20.6733   20.8912 C   0  0  0  0  0  0  0  0  0  0  0  0
  -18.2093  -30.4940   23.3830 C   0  0  0  0  0  0  0  0  0  0  0  0
  -23.2047  -28.6711   19.6222 C   0  0  0  0  0  0  0  0  0  0  0  0
  -24.4612  -26.1151   20.4180 C   0  0  0  0  0  0  0  0  0  0  0  0
  -18.3373  -29.0741   22.8373 C   0  0  0  0  0  0  0  0  0  0  0  0
  -31.0811  -18.2903   22.8460 C   0  0  0  0  0  0  0  0  0  0  0  0
  -19.5012  -28.3485   23.5049 C   0  0  0  0  0  0  0  0  0  0  0  0
  -30.5494  -16.9438   22.3498 C   0  0  0  0  0  0  0  0  0  0  0  0
  -29.9855  -19.3543   22.8821 C   0  0  0  0  0  0  0  0  0  0  0  0
  -28.7139  -18.1799   21.1290 C   0  0  0  0  0  0  0  0  0  0  0  0
  -20.8308  -29.0555   23.2157 C   0  0  1  0  0  0  0  0  0  0  0  0
  -22.3770  -27.4897   20.1189 C   0  0  1  0  0  0  0  0  0  0  0  0
  -29.7956  -17.0934   21.0137 C   0  0  2  0  0  0  0  0  0  0  0  0
  -24.3479  -21.1702   16.0961 C   0  0  0  0  0  0  0  0  0  0  0  0
  -30.7530  -27.5337   21.5974 C   0  0  0  0  0  0  0  0  0  0  0  0
  -22.2071  -23.2720   22.0011 C   0  0  0  0  0  0  0  0  0  0  0  0
  -23.1256  -21.4218   20.5865 C   0  0  0  0  0  0  0  0  0  0  0  0
  -20.9201  -22.4425   20.0238 C   0  0  0  0  0  0  0  0  0  0  0  0
  -25.2426  -24.7707   15.2524 C   0  0  0  0  0  0  0  0  0  0  0  0
  -23.0378  -23.7586   19.6055 C   0  0  1  0  0  0  0  0  0  0  0  0
  -24.2200  -22.6839   16.1679 C   0  0  2  0  0  0  0  0  0  0  0  0
  -29.3423  -27.3515   21.0601 C   0  0  1  0  0  0  0  0  0  1  0  0
  -22.3368  -22.7483   20.5569 C   0  0  0  0  0  0  0  0  0  0  0  0
  -27.9676  -15.4432   20.8843 N   0  0  0  0  0  0  0  0  0  0  0  0
  -29.3285  -22.9239   18.9624 N   0  0  0  0  0  0  0  0  0  0  0  0
  -29.2246  -15.7702   20.5392 N   0  0  0  0  0  0  0  0  0  0  0  0
  -23.0665  -26.2082   19.9557 N   0  0  0  0  0  0  0  0  0  0  0  0
  -29.3181  -19.4429   21.5815 N   0  0  0  0  0  0  0  0  0  0  0  0
  -31.1156  -14.9980   19.3398 N   0  0  0  0  0  0  0  0  0  0  0  0
  -28.1089  -11.6719   18.7985 N   0  0  0  0  0  0  0  0  0  0  0  0
  -29.3001  -20.5550   19.5018 N   0  0  0  0  0  0  0  0  0  0  0  0
  -29.3667  -25.7171   19.2700 N   0  0  0  0  0  0  0  0  0  0  0  0
  -21.2878  -28.7453   21.8780 N   0  0  0  0  0  0  0  0  0  0  0  0
  -23.1501  -23.3002   18.2250 N   0  0  0  0  0  0  0  0  0  0  0  0
  -25.2669  -23.2859   15.2947 N   0  3  0  0  0  0  0  0  0  0  0  0
  -30.2412  -12.3535   18.3011 O   0  0  0  0  0  0  0  0  0  0  0  0
  -29.3432  -25.8388   16.9445 O   0  0  0  0  0  0  0  0  0  0  0  0
  -22.3551  -26.7313   22.3548 O   0  0  0  0  0  0  0  0  0  0  0  0
  -21.1565  -25.1331   19.1604 O   0  0  0  0  0  0  0  0  0  0  0  0
  -25.4611  -23.4417   18.0973 O   0  0  0  0  0  0  0  0  0  0  0  0
  -29.3390  -27.9864   18.7291 O   0  0  0  0  0  0  0  0  0  0  0  0
  -29.3094  -21.7527   21.4886 O   0  0  0  0  0  0  0  0  0  0  0  0
  -22.9379  -11.5379   20.8668 O   0  0  0  0  0  0  0  0  0  0  0  0
  -28.6095  -28.5493   21.3147 O   0  0  0  0  0  0  0  0  0  1  0  0
  -23.1236   -6.1581   22.0611 F   0  0  0  0  0  0  0  0  0  0  0  0
  -21.7796  -10.5572   23.1775 F   0  0  0  0  0  0  0  0  0  0  0  0
  -29.3319  -22.9115   16.3774 S   0  0  0  0  0  0  0  0  0  0  0  0
  1  2  1  0  0  0  0
  1  5  2  0  0  0  0
  2  6  2  0  0  0  0
  3  8  2  0  0  0  0
  3 16  1  0  0  0  0
  4  9  1  0  0  0  0
  4 16  2  0  0  0  0
  5 18  1  0  0  0  0
  6 20  1  0  0  0  0
  7 10  2  0  0  0  0
  7 19  1  0  0  0  0
  8 22  1  0  0  0  0
  9 22  2  0  0  0  0
 10 23  1  0  0  0  0
 11 12  2  0  0  0  0
 11 24  1  0  0  0  0
 12 25  1  0  0  0  0
 13 21  1  0  0  0  0
 13 23  2  0  0  0  0
 14 25  2  0  0  0  0
 14 26  1  0  0  0  0
 15 28  2  0  0  0  0
 15 83  1  0  0  0  0
 16 27  1  0  0  0  0
 17 27  1  0  0  0  0
 17 29  2  0  0  0  0
 17 31  1  0  0  0  0
 18 20  2  0  0  0  0
 18 38  1  0  0  0  0
 19 21  2  0  0  0  0
 19 39  1  0  0  0  0
 20 47  1  0  0  0  0
 21 40  1  0  0  0  0
 22 79  1  0  0  0  0
 23 80  1  0  0  0  0
 24 26  2  0  0  0  0
 24 79  1  0  0  0  0
 25 81  1  0  0  0  0
 26 82  1  0  0  0  0
 27 60  2  0  0  0  0
 28 61  1  0  0  0  0
 28 67  1  0  0  0  0
 29 62  1  0  0  0  0
 29 65  1  0  0  0  0
 30 32  1  0  0  0  0
 30 61  2  0  0  0  0
 30 83  1  0  0  0  0
 31 66  1  0  0  0  0
 31 72  2  0  0  0  0
 32 68  1  0  0  0  0
 32 73  2  0  0  0  0
 33 48  1  0  0  0  0
 33 69  1  0  0  0  0
 33 74  2  0  0  0  0
 34 56  1  0  0  0  0
 34 63  1  0  0  0  0
 34 75  2  0  0  0  0
 35 57  1  0  0  0  0
 35 70  1  0  0  0  0
 35 76  2  0  0  0  0
 36 58  1  0  0  0  0
 36 68  1  0  0  0  0
 36 77  2  0  0  0  0
 37 64  1  0  0  0  0
 37 67  1  0  0  0  0
 37 78  2  0  0  0  0
 38 41  1  0  0  0  0
 39 48  1  0  0  0  0
 40 63  1  0  0  0  0
 41 43  1  0  0  0  0
 42 44  1  0  0  0  0
 42 45  1  0  0  0  0
 43 47  1  0  0  0  0
 44 49  1  0  0  0  0
 45 64  1  0  0  0  0
 46 49  1  0  0  0  0
 46 64  1  0  0  0  0
 47 69  1  0  0  0  0
 48 63  1  0  0  0  0
 49 62  1  0  0  0  0
 50 57  1  0  0  0  0
 51 58  1  0  0  0  0
 52 59  1  0  0  0  0
 53 59  1  0  0  0  0
 54 59  1  0  0  0  0
 55 71  1  0  0  0  0
 56 59  1  0  0  0  0
 56 70  1  0  0  0  0
 57 71  1  0  0  0  0
 58 80  1  0  0  0  0
 60 62  1  0  0  0  0
M  CHG  1  71   1
M  ISO  4  37 100  58 101  67 100  80 101
M  END
> <Batch ID>
0176

> <Smiles>
CNC(C)C(=O)NC(C(=O)N1Cc2cc([101O:1][101CH:1](C)C(=O)NC(=O)c3nc([100NH:0][100C:0](=O)N4CCCC(n5nc(-c6ccc(Oc7ccc(F)cc7F)cc6)c(C(N)=O)c5N)C4)cs3)ccc2CC1C(=O)NC1CCCc2ccccc21)C(C)(C)C

> <Shape>
0.302

> <Color>
0.081

> <Negative vol penalty>
0.000

$$$$

  -OEChem-04052304383D

 85 93  0     1  0  0  0  0  0999 V2000
  -22.6827  -21.7716   16.9522 C   0  0  0  0  0  0  0  0  0  0  0  0
  -23.9356  -21.1670   16.9407 C   0  0  0  0  0  0  0  0  0  0  0  0
  -25.9843  -28.2219   19.2681 C   0  0  0  0  0  0  0  0  0  0  0  0
  -25.8872  -26.8122   21.2278 C   0  0  0  0  0  0  0  0  0  0  0  0
  -21.8363  -21.5982   18.0464 C   0  0  0  0  0  0  0  0  0  0  0  0
  -24.3432  -20.3894   18.0240 C   0  0  0  0  0  0  0  0  0  0  0  0
  -28.2897  -14.6175   19.5819 C   0  0  0  0  0  0  0  0  0  0  0  0
  -24.8046  -28.8526   19.6632 C   0  0  0  0  0  0  0  0  0  0  0  0
  -24.7075  -27.4429   21.6230 C   0  0  0  0  0  0  0  0  0  0  0  0
  -29.3283  -14.2176   20.4217 C   0  0  0  0  0  0  0  0  0  0  0  0
  -21.4259  -27.3179   20.8192 C   0  0  0  0  0  0  0  0  0  0  0  0
  -20.3774  -26.5120   21.2627 C   0  0  0  0  0  0  0  0  0  0  0  0
  -27.7506  -13.9231   22.2227 C   0  0  0  0  0  0  0  0  0  0  0  0
  -20.4265  -27.6272   23.4054 C   0  0  0  0  0  0  0  0  0  0  0  0
  -29.7794  -18.2452   21.9081 C   0  0  0  0  0  0  0  0  0  0  0  0
  -30.3118  -18.3621   19.2344 C   0  0  0  0  0  0  0  0  0  0  0  0
  -26.5256  -27.2017   20.0503 C   0  0  0  0  0  0  0  0  0  0  0  0
  -29.0601  -26.9217   19.9755 C   0  0  0  0  0  0  0  0  0  0  0  0
  -22.2299  -20.8101   19.1395 C   0  0  0  0  0  0  0  0  0  0  0  0
  -26.9732  -14.6839   20.0601 C   0  0  0  0  0  0  0  0  0  0  0  0
  -23.5018  -20.2063   19.1345 C   0  0  0  0  0  0  0  0  0  0  0  0
  -26.6968  -14.3218   21.3862 C   0  0  0  0  0  0  0  0  0  0  0  0
  -29.3849  -19.2487   19.7582 C   0  0  0  0  0  0  0  0  0  0  0  0
  -24.1662  -28.4631   20.8407 C   0  0  0  0  0  0  0  0  0  0  0  0
  -29.0593  -13.8731   21.7431 C   0  0  0  0  0  0  0  0  0  0  0  0
  -21.9748  -28.2785   21.6688 C   0  0  0  0  0  0  0  0  0  0  0  0
  -19.8777  -26.6666   22.5558 C   0  0  0  0  0  0  0  0  0  0  0  0
  -21.4751  -28.4331   22.9619 C   0  0  0  0  0  0  0  0  0  0  0  0
  -29.1193  -19.1827   21.1215 C   0  0  0  0  0  0  0  0  0  0  0  0
  -27.7440  -26.5495   19.6424 C   0  0  0  0  0  0  0  0  0  0  0  0
  -30.6885  -17.4033   21.2879 C   0  0  0  0  0  0  0  0  0  0  0  0
  -29.8499  -25.9908   19.3461 C   0  0  0  0  0  0  0  0  0  0  0  0
  -29.5271  -28.0113   20.7820 C   0  0  0  0  0  0  0  0  0  0  0  0
  -32.0416  -15.1349   23.9674 C   0  0  0  0  0  0  0  0  0  0  0  0
  -31.1980  -16.2655   23.4531 C   0  0  0  0  0  0  0  0  0  0  0  0
  -24.8292  -17.0038   20.4132 C   0  0  0  0  0  0  0  0  0  0  0  0
  -22.8814  -14.5457   21.2416 C   0  0  0  0  0  0  0  0  0  0  0  0
  -22.5807  -11.3653   22.4420 C   0  0  0  0  0  0  0  0  0  0  0  0
  -28.8975  -20.3701   17.5557 C   0  0  0  0  0  0  0  0  0  0  0  0
  -21.2995  -20.6904   20.3204 C   0  0  0  0  0  0  0  0  0  0  0  0
  -25.8602  -15.0916   19.1341 C   0  0  0  0  0  0  0  0  0  0  0  0
  -25.2976  -14.3566   21.9426 C   0  0  0  0  0  0  0  0  0  0  0  0
  -21.6570  -19.5447   21.2638 C   0  0  0  0  0  0  0  0  0  0  0  0
  -29.9177  -23.1088   15.5220 C   0  0  0  0  0  0  0  0  0  0  0  0
  -23.1532  -19.5448   21.5607 C   0  0  0  0  0  0  0  0  0  0  0  0
  -29.6015  -24.3355   16.3806 C   0  0  0  0  0  0  0  0  0  0  0  0
  -28.8675  -22.0123   15.6909 C   0  0  0  0  0  0  0  0  0  0  0  0
  -28.2885  -22.8396   17.9380 C   0  0  0  0  0  0  0  0  0  0  0  0
  -23.9699  -19.3351   20.2799 C   0  0  1  0  0  0  0  0  0  0  0  0
  -24.6319  -15.6165   19.8710 C   0  0  1  0  0  0  0  0  0  0  0  0
  -29.3531  -23.9455   17.8509 C   0  0  2  0  0  0  0  0  0  0  0  0
  -20.8592   -9.6416   23.0444 C   0  0  0  0  0  0  0  0  0  0  0  0
  -22.2567  -16.0706   23.8096 C   0  0  0  0  0  0  0  0  0  0  0  0
  -21.3329  -13.9479   24.7629 C   0  0  0  0  0  0  0  0  0  0  0  0
  -20.2809  -14.9681   22.7442 C   0  0  0  0  0  0  0  0  0  0  0  0
  -23.6207   -9.4564   20.4337 C   0  0  0  0  0  0  0  0  0  0  0  0
  -31.2990  -13.9667   24.5780 C   0  0  0  0  0  0  0  0  0  0  0  0
  -29.9252  -13.7684   23.9556 C   0  0  0  0  0  0  0  0  0  1  0  0
  -22.5357  -13.8440   22.5328 C   0  0  1  0  0  0  0  0  0  0  0  0
  -21.7736  -10.1762   21.9531 C   0  0  2  0  0  0  0  0  0  0  0  0
  -21.6283  -14.7087   23.4527 C   0  0  0  0  0  0  0  0  0  0  0  0
  -30.9728  -17.4378   19.9667 N   0  0  0  0  0  0  0  0  0  0  0  0
  -27.6962  -25.4668   18.8617 N   0  0  0  0  0  0  0  0  0  0  0  0
  -28.9922  -25.1506   18.6991 N   0  0  0  0  0  0  0  0  0  0  0  0
  -24.2444  -14.7680   20.9997 N   0  0  0  0  0  0  0  0  0  0  0  0
  -28.6886  -21.6920   17.1087 N   0  0  0  0  0  0  0  0  0  0  0  0
  -31.1874  -25.8173   19.2884 N   0  0  0  0  0  0  0  0  0  0  0  0
  -28.5808  -28.8727   21.3538 N   0  0  0  0  0  0  0  0  0  0  0  0
  -28.7299  -20.1924   18.9286 N   0  0  0  0  0  0  0  0  0  0  0  0
  -31.3534  -16.4523   22.0965 N   0  0  0  0  0  0  0  0  0  0  0  0
  -23.9556  -17.9403   19.8941 N   0  0  0  0  0  0  0  0  0  0  0  0
  -21.9543  -12.5599   22.1565 N   0  0  0  0  0  0  0  0  0  0  0  0
  -22.6815   -9.0765   21.5202 N   0  3  0  0  0  0  0  0  0  0  0  0
  -30.7479  -28.2247   20.9759 O   0  0  0  0  0  0  0  0  0  0  0  0
  -33.2526  -15.2393   23.8440 O   0  0  0  0  0  0  0  0  0  0  0  0
  -30.4907  -16.8339   24.2683 O   0  0  0  0  0  0  0  0  0  0  0  0
  -25.7078  -17.2092   21.2424 O   0  0  0  0  0  0  0  0  0  0  0  0
  -21.9759  -14.8779   20.4726 O   0  0  0  0  0  0  0  0  0  0  0  0
  -23.6573  -11.2460   23.0227 O   0  0  0  0  0  0  0  0  0  0  0  0
  -29.2291  -19.4682   16.7819 O   0  0  0  0  0  0  0  0  0  0  0  0
  -23.0152  -29.0784   21.2267 O   0  0  0  0  0  0  0  0  0  0  0  0
  -30.0712  -13.4830   22.5650 O   0  0  0  0  0  0  0  0  0  1  0  0
  -18.8698  -25.8937   22.9811 F   0  0  0  0  0  0  0  0  0  0  0  0
  -21.9975  -29.3550   23.7822 F   0  0  0  0  0  0  0  0  0  0  0  0
  -28.2321  -20.0145   21.6850 F   0  0  0  0  0  0  0  0  0  0  0  0
  1  2  1  0  0  0  0
  1  5  2  0  0  0  0
  2  6  2  0  0  0  0
  3  8  2  0  0  0  0
  3 17  1  0  0  0  0
  4  9  1  0  0  0  0
  4 17  2  0  0  0  0
  5 19  1  0  0  0  0
  6 21  1  0  0  0  0
  7 10  2  0  0  0  0
  7 20  1  0  0  0  0
  8 24  1  0  0  0  0
  9 24  2  0  0  0  0
 10 25  1  0  0  0  0
 11 12  2  0  0  0  0
 11 26  1  0  0  0  0
 12 27  1  0  0  0  0
 13 22  1  0  0  0  0
 13 25  2  0  0  0  0
 14 27  2  0  0  0  0
 14 28  1  0  0  0  0
 15 29  2  0  0  0  0
 15 31  1  0  0  0  0
 16 23  2  0  0  0  0
 16 62  1  0  0  0  0
 17 30  1  0  0  0  0
 18 30  1  0  0  0  0
 18 32  2  0  0  0  0
 18 33  1  0  0  0  0
 19 21  2  0  0  0  0
 19 40  1  0  0  0  0
 20 22  2  0  0  0  0
 20 41  1  0  0  0  0
 21 49  1  0  0  0  0
 22 42  1  0  0  0  0
 23 29  1  0  0  0  0
 23 69  1  0  0  0  0
 24 81  1  0  0  0  0
 25 82  1  0  0  0  0
 26 28  2  0  0  0  0
 26 81  1  0  0  0  0
 27 83  1  0  0  0  0
 28 84  1  0  0  0  0
 29 85  1  0  0  0  0
 30 63  2  0  0  0  0
 31 62  2  0  0  0  0
 31 70  1  0  0  0  0
 32 64  1  0  0  0  0
 32 67  1  0  0  0  0
 33 68  1  0  0  0  0
 33 74  2  0  0  0  0
 34 35  1  0  0  0  0
 34 57  1  0  0  0  0
 34 75  2  0  0  0  0
 35 70  1  0  0  0  0
 35 76  2  0  0  0  0
 36 50  1  0  0  0  0
 36 71  1  0  0  0  0
 36 77  2  0  0  0  0
 37 59  1  0  0  0  0
 37 65  1  0  0  0  0
 37 78  2  0  0  0  0
 38 60  1  0  0  0  0
 38 72  1  0  0  0  0
 38 79  2  0  0  0  0
 39 66  1  0  0  0  0
 39 69  1  0  0  0  0
 39 80  2  0  0  0  0
 40 43  1  0  0  0  0
 41 50  1  0  0  0  0
 42 65  1  0  0  0  0
 43 45  1  0  0  0  0
 44 46  1  0  0  0  0
 44 47  1  0  0  0  0
 45 49  1  0  0  0  0
 46 51  1  0  0  0  0
 47 66  1  0  0  0  0
 48 51  1  0  0  0  0
 48 66  1  0  0  0  0
 49 71  1  0  0  0  0
 50 65  1  0  0  0  0
 51 64  1  0  0  0  0
 52 60  1  0  0  0  0
 53 61  1  0  0  0  0
 54 61  1  0  0  0  0
 55 61  1  0  0  0  0
 56 73  1  0  0  0  0
 57 58  1  0  0  0  0
 58 82  1  0  0  0  0
 59 61  1  0  0  0  0
 59 72  1  0  0  0  0
 60 73  1  0  0  0  0
 63 64  1  0  0  0  0
M  CHG  1  73   1
M  ISO  4  39 100  58 101  69 100  82 101
M  END
> <Batch ID>
0176

> <Smiles>
CNC(C)C(=O)NC(C(=O)N1Cc2cc([101O:1][101CH2:1]CC(=O)C(=O)Nc3cc(F)c([100NH:0][100C:0](=O)N4CCCC(n5nc(-c6ccc(Oc7ccc(F)cc7F)cc6)c(C(N)=O)c5N)C4)cn3)ccc2CC1C(=O)NC1CCCc2ccccc21)C(C)(C)C

> <Shape>
0.265

> <Color>
0.065

> <Negative vol penalty>
0.000

$$$$

  -OEChem-04052304383D

 87 95  0     1  0  0  0  0  0999 V2000
  -29.6148  -35.8065   20.9052 C   0  0  0  0  0  0  0  0  0  0  0  0
  -29.6533  -34.4171   20.9639 C   0  0  0  0  0  0  0  0  0  0  0  0
  -24.8559   -8.7229   21.0580 C   0  0  0  0  0  0  0  0  0  0  0  0
  -23.1618  -10.0636   19.9765 C   0  0  0  0  0  0  0  0  0  0  0  0
  -28.6127  -36.5040   21.5784 C   0  0  0  0  0  0  0  0  0  0  0  0
  -28.6904  -33.7244   21.6969 C   0  0  0  0  0  0  0  0  0  0  0  0
  -26.8635  -29.7138   19.2024 C   0  0  0  0  0  0  0  0  0  0  0  0
  -23.8779   -7.8154   21.4650 C   0  0  0  0  0  0  0  0  0  0  0  0
  -22.1838   -9.1561   20.3834 C   0  0  0  0  0  0  0  0  0  0  0  0
  -27.6559  -28.5670   19.1734 C   0  0  0  0  0  0  0  0  0  0  0  0
  -21.5288   -7.6050   23.8861 C   0  0  0  0  0  0  0  0  0  0  0  0
  -21.5740   -7.1528   25.2048 C   0  0  0  0  0  0  0  0  0  0  0  0
  -26.3236  -27.6089   20.9415 C   0  0  0  0  0  0  0  0  0  0  0  0
  -27.7297  -19.4587   17.9789 C   0  0  0  0  0  0  0  0  0  0  0  0
  -21.8247   -4.8824   24.4176 C   0  0  0  0  0  0  0  0  0  0  0  0
  -24.4979   -9.8470   20.3138 C   0  0  0  0  0  0  0  0  0  0  0  0
  -26.2489  -10.7570   18.6971 C   0  0  0  0  0  0  0  0  0  0  0  0
  -27.6313  -35.8191   22.3121 C   0  0  0  0  0  0  0  0  0  0  0  0
  -25.8002  -29.8214   20.1103 C   0  0  0  0  0  0  0  0  0  0  0  0
  -27.6750  -34.4135   22.3817 C   0  0  0  0  0  0  0  0  0  0  0  0
  -25.5177  -28.7571   20.9783 C   0  0  0  0  0  0  0  0  0  0  0  0
  -27.6484  -20.4746   17.0266 C   0  0  0  0  0  0  0  0  0  0  0  0
  -27.7657  -18.1244   17.5740 C   0  0  0  0  0  0  0  0  0  0  0  0
  -22.5419   -8.0320   21.1277 C   0  0  0  0  0  0  0  0  0  0  0  0
  -27.3878  -27.5155   20.0450 C   0  0  0  0  0  0  0  0  0  0  0  0
  -21.6315   -6.6959   22.8331 C   0  0  0  0  0  0  0  0  0  0  0  0
  -21.7220   -5.7915   25.4706 C   0  0  0  0  0  0  0  0  0  0  0  0
  -21.7795   -5.3346   23.0989 C   0  0  0  0  0  0  0  0  0  0  0  0
  -27.6030  -20.1561   15.6693 C   0  0  0  0  0  0  0  0  0  0  0  0
  -27.7204  -17.8059   16.2168 C   0  0  0  0  0  0  0  0  0  0  0  0
  -27.6390  -18.8218   15.2644 C   0  0  0  0  0  0  0  0  0  0  0  0
  -25.5076  -10.7851   19.8935 C   0  0  0  0  0  0  0  0  0  0  0  0
  -27.0682  -11.8565   18.7749 C   0  0  0  0  0  0  0  0  0  0  0  0
  -26.2010   -9.8207   17.6123 C   0  0  0  0  0  0  0  0  0  0  0  0
  -27.5929  -23.7991   18.7879 C   0  0  0  0  0  0  0  0  0  0  0  0
  -27.6540  -22.2999   18.7326 C   0  0  0  0  0  0  0  0  0  0  0  0
  -25.0992  -31.7681   22.5233 C   0  0  0  0  0  0  0  0  0  0  0  0
  -22.2978  -30.1327   22.5174 C   0  0  0  0  0  0  0  0  0  0  0  0
  -20.6139  -27.2735   21.7199 C   0  0  0  0  0  0  0  0  0  0  0  0
  -27.8993  -17.2399   19.9290 C   0  0  0  0  0  0  0  0  0  0  0  0
  -26.5956  -36.6187   23.0621 C   0  0  0  0  0  0  0  0  0  0  0  0
  -24.9384  -31.0541   20.1108 C   0  0  0  0  0  0  0  0  0  0  0  0
  -24.3752  -28.8147   21.9581 C   0  0  0  0  0  0  0  0  0  0  0  0
  -25.3931  -35.7911   23.5087 C   0  0  0  0  0  0  0  0  0  0  0  0
  -28.0664  -14.9529   22.6528 C   0  0  0  0  0  0  0  0  0  0  0  0
  -25.8522  -34.4842   24.1475 C   0  0  0  0  0  0  0  0  0  0  0  0
  -27.4765  -13.6624   22.0793 C   0  0  0  0  0  0  0  0  0  0  0  0
  -27.3520  -16.1912   22.1144 C   0  0  0  0  0  0  0  0  0  0  0  0
  -26.6775  -14.9813   20.0771 C   0  0  0  0  0  0  0  0  0  0  0  0
  -26.6336  -33.6252   23.1460 C   0  0  1  0  0  0  0  0  0  0  0  0
  -24.2002  -31.2666   21.4288 C   0  0  1  0  0  0  0  0  0  0  0  0
  -27.4070  -13.7097   20.5404 C   0  0  2  0  0  0  0  0  0  0  0  0
  -18.3427  -26.2172   21.8729 C   0  0  0  0  0  0  0  0  0  0  0  0
  -22.7532  -29.5892   25.4851 C   0  0  0  0  0  0  0  0  0  0  0  0
  -21.0164  -27.7909   25.3508 C   0  0  0  0  0  0  0  0  0  0  0  0
  -20.3950  -30.1602   24.8789 C   0  0  0  0  0  0  0  0  0  0  0  0
  -20.3891  -27.0559   18.7769 C   0  0  0  0  0  0  0  0  0  0  0  0
  -28.9154  -24.5287   18.7005 C   0  0  0  0  0  0  0  0  0  0  0  0
  -28.7458  -26.0390   18.7676 C   0  0  0  0  0  0  0  0  0  1  0  0
  -21.7867  -28.8852   23.1968 C   0  0  1  0  0  0  0  0  0  0  0  0
  -19.2867  -27.0486   21.0182 C   0  0  2  0  0  0  0  0  0  0  0  0
  -21.5106  -29.1058   24.7109 C   0  0  0  0  0  0  0  0  0  0  0  0
  -25.8278  -11.8204   20.6743 N   0  0  0  0  0  0  0  0  0  0  0  0
  -26.7794  -12.4530   19.9670 N   0  0  0  0  0  0  0  0  0  0  0  0
  -23.5653  -30.0437   21.9245 N   0  0  0  0  0  0  0  0  0  0  0  0
  -27.3285  -16.1699   20.6502 N   0  0  0  0  0  0  0  0  0  0  0  0
  -28.0004  -12.3616   17.9393 N   0  0  0  0  0  0  0  0  0  0  0  0
  -25.3016   -8.7488   17.6940 N   0  0  0  0  0  0  0  0  0  0  0  0
  -27.6110  -21.8270   17.4388 N   0  0  0  0  0  0  0  0  0  0  0  0
  -27.8472  -17.0939   18.5432 N   0  0  0  0  0  0  0  0  0  0  0  0
  -25.7271  -32.9641   22.2319 N   0  0  0  0  0  0  0  0  0  0  0  0
  -20.6208  -28.4533   22.4335 N   0  0  0  0  0  0  0  0  0  0  0  0
  -19.4982  -26.3387   19.7250 N   0  3  0  0  0  0  0  0  0  0  0  0
  -26.9457   -9.9220   16.6080 O   0  0  0  0  0  0  0  0  0  0  0  0
  -26.4880  -24.3107   18.8870 O   0  0  0  0  0  0  0  0  0  0  0  0
  -27.7567  -21.7177   19.7996 O   0  0  0  0  0  0  0  0  0  0  0  0
  -25.2136  -31.1189   23.5563 O   0  0  0  0  0  0  0  0  0  0  0  0
  -21.5952  -31.1466   22.5067 O   0  0  0  0  0  0  0  0  0  0  0  0
  -21.5495  -26.4800   21.6456 O   0  0  0  0  0  0  0  0  0  0  0  0
  -28.4220  -18.2010   20.4991 O   0  0  0  0  0  0  0  0  0  0  0  0
  -21.5873   -7.1466   21.5244 O   0  0  0  0  0  0  0  0  0  0  0  0
  -28.1600  -26.3953   20.0191 O   0  0  0  0  0  0  0  0  0  1  0  0
  -21.7669   -5.3575   26.7370 F   0  0  0  0  0  0  0  0  0  0  0  0
  -21.8799   -4.4567   22.0914 F   0  0  0  0  0  0  0  0  0  0  0  0
  -27.5236  -21.1240   14.7451 F   0  0  0  0  0  0  0  0  0  0  0  0
  -27.7534  -16.5271   15.8160 F   0  0  0  0  0  0  0  0  0  0  0  0
  -27.5958  -18.5159   13.9612 F   0  0  0  0  0  0  0  0  0  0  0  0
  1  2  1  0  0  0  0
  1  5  2  0  0  0  0
  2  6  2  0  0  0  0
  3  8  2  0  0  0  0
  3 16  1  0  0  0  0
  4  9  1  0  0  0  0
  4 16  2  0  0  0  0
  5 18  1  0  0  0  0
  6 20  1  0  0  0  0
  7 10  2  0  0  0  0
  7 19  1  0  0  0  0
  8 24  1  0  0  0  0
  9 24  2  0  0  0  0
 10 25  1  0  0  0  0
 11 12  2  0  0  0  0
 11 26  1  0  0  0  0
 12 27  1  0  0  0  0
 13 21  1  0  0  0  0
 13 25  2  0  0  0  0
 14 22  1  0  0  0  0
 14 23  2  0  0  0  0
 15 27  2  0  0  0  0
 15 28  1  0  0  0  0
 16 32  1  0  0  0  0
 17 32  1  0  0  0  0
 17 33  2  0  0  0  0
 17 34  1  0  0  0  0
 18 20  2  0  0  0  0
 18 41  1  0  0  0  0
 19 21  2  0  0  0  0
 19 42  1  0  0  0  0
 20 50  1  0  0  0  0
 21 43  1  0  0  0  0
 22 29  2  0  0  0  0
 22 69  1  0  0  0  0
 23 30  1  0  0  0  0
 23 70  1  0  0  0  0
 24 81  1  0  0  0  0
 25 82  1  0  0  0  0
 26 28  2  0  0  0  0
 26 81  1  0  0  0  0
 27 83  1  0  0  0  0
 28 84  1  0  0  0  0
 29 31  1  0  0  0  0
 29 85  1  0  0  0  0
 30 31  2  0  0  0  0
 30 86  1  0  0  0  0
 31 87  1  0  0  0  0
 32 63  2  0  0  0  0
 33 64  1  0  0  0  0
 33 67  1  0  0  0  0
 34 68  1  0  0  0  0
 34 74  2  0  0  0  0
 35 36  1  0  0  0  0
 35 58  1  0  0  0  0
 35 75  2  0  0  0  0
 36 69  1  0  0  0  0
 36 76  2  0  0  0  0
 37 51  1  0  0  0  0
 37 71  1  0  0  0  0
 37 77  2  0  0  0  0
 38 60  1  0  0  0  0
 38 65  1  0  0  0  0
 38 78  2  0  0  0  0
 39 61  1  0  0  0  0
 39 72  1  0  0  0  0
 39 79  2  0  0  0  0
 40 66  1  0  0  0  0
 40 70  1  0  0  0  0
 40 80  2  0  0  0  0
 41 44  1  0  0  0  0
 42 51  1  0  0  0  0
 43 65  1  0  0  0  0
 44 46  1  0  0  0  0
 45 47  1  0  0  0  0
 45 48  1  0  0  0  0
 46 50  1  0  0  0  0
 47 52  1  0  0  0  0
 48 66  1  0  0  0  0
 49 52  1  0  0  0  0
 49 66  1  0  0  0  0
 50 71  1  0  0  0  0
 51 65  1  0  0  0  0
 52 64  1  0  0  0  0
 53 61  1  0  0  0  0
 54 62  1  0  0  0  0
 55 62  1  0  0  0  0
 56 62  1  0  0  0  0
 57 73  1  0  0  0  0
 58 59  1  0  0  0  0
 59 82  1  0  0  0  0
 60 62  1  0  0  0  0
 60 72  1  0  0  0  0
 61 73  1  0  0  0  0
 63 64  1  0  0  0  0
M  CHG  1  73   1
M  ISO  4  40 100  59 101  70 100  82 101
M  END
> <Batch ID>
0176

> <Smiles>
CNC(C)C(=O)NC(C(=O)N1Cc2cc([101O:1][101CH2:1]CC(=O)C(=O)Nc3cc([100NH:0][100C:0](=O)N4CCCC(n5nc(-c6ccc(Oc7ccc(F)cc7F)cc6)c(C(N)=O)c5N)C4)c(F)c(F)c3F)ccc2CC1C(=O)NC1CCCc2ccccc21)C(C)(C)C

> <Shape>
0.307

> <Color>
0.109

> <Negative vol penalty>
0.000

$$$$

  -OEChem-04052304383D

 87 95  0     1  0  0  0  0  0999 V2000
  -29.8926  -35.5585   18.8467 C   0  0  0  0  0  0  0  0  0  0  0  0
  -29.8910  -34.2194   19.2236 C   0  0  0  0  0  0  0  0  0  0  0  0
  -23.3673  -17.1114   21.4639 C   0  0  0  0  0  0  0  0  0  0  0  0
  -22.4139  -15.6506   19.7923 C   0  0  0  0  0  0  0  0  0  0  0  0
  -28.9761  -36.4425   19.4146 C   0  0  0  0  0  0  0  0  0  0  0  0
  -28.9734  -33.7636   20.1695 C   0  0  0  0  0  0  0  0  0  0  0  0
  -26.8072  -29.3884   18.8241 C   0  0  0  0  0  0  0  0  0  0  0  0
  -22.3588  -18.0445   21.2237 C   0  0  0  0  0  0  0  0  0  0  0  0
  -21.4053  -16.5837   19.5521 C   0  0  0  0  0  0  0  0  0  0  0  0
  -27.5564  -28.2260   19.0013 C   0  0  0  0  0  0  0  0  0  0  0  0
  -20.2399  -20.9686   20.7949 C   0  0  0  0  0  0  0  0  0  0  0  0
  -20.6089  -22.3084   20.6760 C   0  0  0  0  0  0  0  0  0  0  0  0
  -26.3525  -27.7684   21.0410 C   0  0  0  0  0  0  0  0  0  0  0  0
  -22.0208  -21.7526   18.7958 C   0  0  0  0  0  0  0  0  0  0  0  0
  -23.3949  -15.9144   20.7482 C   0  0  0  0  0  0  0  0  0  0  0  0
  -24.4156  -13.8962   21.9283 C   0  0  0  0  0  0  0  0  0  0  0  0
  -28.0405  -35.9953   20.3608 C   0  0  0  0  0  0  0  0  0  0  0  0
  -25.8310  -29.7558   19.7613 C   0  0  0  0  0  0  0  0  0  0  0  0
  -28.0444  -34.6427   20.7516 C   0  0  0  0  0  0  0  0  0  0  0  0
  -25.5906  -28.9345   20.8720 C   0  0  0  0  0  0  0  0  0  0  0  0
  -29.4508  -19.0061   18.2009 C   0  0  0  0  0  0  0  0  0  0  0  0
  -21.3778  -17.7807   20.2678 C   0  0  0  0  0  0  0  0  0  0  0  0
  -27.3311  -27.4173   20.1114 C   0  0  0  0  0  0  0  0  0  0  0  0
  -20.7614  -20.0207   19.9144 C   0  0  0  0  0  0  0  0  0  0  0  0
  -21.4993  -22.7005   19.6764 C   0  0  0  0  0  0  0  0  0  0  0  0
  -21.6518  -20.4127   18.9148 C   0  0  0  0  0  0  0  0  0  0  0  0
  -30.1306  -17.7850   18.4784 C   0  0  0  0  0  0  0  0  0  0  0  0
  -24.4367  -14.9503   20.9954 C   0  0  0  0  0  0  0  0  0  0  0  0
  -25.6319  -13.2771   21.7745 C   0  0  0  0  0  0  0  0  0  0  0  0
  -29.0168  -19.6294   19.3500 C   0  0  0  0  0  0  0  0  0  0  0  0
  -30.1905  -17.5217   19.8293 C   0  0  0  0  0  0  0  0  0  0  0  0
  -27.3950  -25.0906   20.3417 C   0  0  0  0  0  0  0  0  0  1  0  0
  -23.3883  -13.5112   22.8514 C   0  0  0  0  0  0  0  0  0  0  0  0
  -28.0110  -23.9154   20.5109 C   0  0  0  0  0  0  0  0  0  0  0  0
  -27.1896  -22.6812   20.5551 C   0  0  0  0  0  0  0  0  0  0  0  0
  -27.9179  -21.3857   20.7462 C   0  0  0  0  0  0  0  0  0  0  0  0
  -25.4062  -32.2368   21.7024 C   0  0  0  0  0  0  0  0  0  0  0  0
  -22.5632  -30.7906   22.2929 C   0  0  0  0  0  0  0  0  0  0  0  0
  -20.7243  -27.9157   22.3141 C   0  0  0  0  0  0  0  0  0  0  0  0
  -30.8535  -15.1281   19.9783 C   0  0  0  0  0  0  0  0  0  0  0  0
  -27.1005  -36.9978   20.9821 C   0  0  0  0  0  0  0  0  0  0  0  0
  -25.0129  -30.9988   19.5417 C   0  0  0  0  0  0  0  0  0  0  0  0
  -24.5401  -29.2739   21.8967 C   0  0  0  0  0  0  0  0  0  0  0  0
  -25.9152  -36.3578   21.7002 C   0  0  0  0  0  0  0  0  0  0  0  0
  -29.0328  -12.4414   18.5259 C   0  0  0  0  0  0  0  0  0  0  0  0
  -26.3854  -35.2098   22.5879 C   0  0  0  0  0  0  0  0  0  0  0  0
  -27.6314  -12.6882   19.0833 C   0  0  0  0  0  0  0  0  0  0  0  0
  -29.7385  -13.7456   18.1530 C   0  0  0  0  0  0  0  0  0  0  0  0
  -28.3801  -14.9874   19.8074 C   0  0  0  0  0  0  0  0  0  0  0  0
  -27.0484  -34.1052   21.7562 C   0  0  1  0  0  0  0  0  0  0  0  0
  -24.3995  -31.5452   20.8272 C   0  0  1  0  0  0  0  0  0  0  0  0
  -27.6687  -13.6973   20.2445 C   0  0  1  0  0  0  0  0  0  0  0  0
  -29.2409  -19.5342   16.8313 C   0  0  0  0  0  0  0  0  0  0  0  0
  -18.4420  -27.0413   22.8831 C   0  0  0  0  0  0  0  0  0  0  0  0
  -23.2572  -30.9180   25.2614 C   0  0  0  0  0  0  0  0  0  0  0  0
  -21.4579  -29.2289   25.6832 C   0  0  0  0  0  0  0  0  0  0  0  0
  -20.8750  -31.4562   24.7229 C   0  0  0  0  0  0  0  0  0  0  0  0
  -31.5058  -16.6976   21.7912 C   0  0  0  0  0  0  0  0  0  0  0  0
  -20.2374  -27.0422   19.5286 C   0  0  0  0  0  0  0  0  0  0  0  0
  -22.0729  -29.7599   23.2809 C   0  0  1  0  0  0  0  0  0  0  0  0
  -19.3345  -27.6051   21.7884 C   0  0  2  0  0  0  0  0  0  0  0  0
  -21.9369  -30.3351   24.7190 C   0  0  0  0  0  0  0  0  0  0  0  0
  -25.5762  -15.0010   20.3005 N   0  0  0  0  0  0  0  0  0  0  0  0
  -26.2825  -13.9711   20.7970 N   0  0  0  0  0  0  0  0  0  0  0  0
  -23.7707  -30.5028   21.6410 N   0  0  0  0  0  0  0  0  0  0  0  0
  -29.7134  -14.6916   19.2776 N   0  0  0  0  0  0  0  0  0  0  0  0
  -26.1978  -12.2122   22.3813 N   0  0  0  0  0  0  0  0  0  0  0  0
  -22.2013  -14.2559   22.8788 N   0  0  0  0  0  0  0  0  0  0  0  0
  -28.3113  -20.8397   19.5432 N   0  0  0  0  0  0  0  0  0  0  0  0
  -26.0448  -33.3002   21.0935 N   0  0  0  0  0  0  0  0  0  0  0  0
  -20.8316  -29.2255   22.7312 N   0  0  0  0  0  0  0  0  0  0  0  0
  -30.7748  -16.4158   20.5510 N   0  0  0  0  0  0  0  0  0  0  0  0
  -19.4096  -26.6081   20.6832 N   0  3  0  0  0  0  0  0  0  0  0  0
  -23.5257  -12.5457   23.6404 O   0  0  0  0  0  0  0  0  0  0  0  0
  -25.9756  -22.6319   20.4332 O   0  0  0  0  0  0  0  0  0  0  0  0
  -28.0728  -21.0065   21.8948 O   0  0  0  0  0  0  0  0  0  0  0  0
  -25.5888  -31.8362   22.8461 O   0  0  0  0  0  0  0  0  0  0  0  0
  -21.8957  -31.8100   22.1011 O   0  0  0  0  0  0  0  0  0  0  0  0
  -21.6237  -27.0790   22.3543 O   0  0  0  0  0  0  0  0  0  0  0  0
  -31.8546  -14.4128   20.1052 O   0  0  0  0  0  0  0  0  0  0  0  0
  -29.3762  -23.7936   20.6460 O   0  0  0  0  0  0  0  0  0  0  0  0
  -20.3934  -18.6910   20.0333 O   0  0  0  0  0  0  0  0  0  0  0  0
  -28.0613  -26.2825   20.2871 O   0  0  0  0  0  0  0  0  0  1  0  0
  -21.8524  -23.9874   19.5613 F   0  0  0  0  0  0  0  0  0  0  0  0
  -22.1551  -19.5068   18.0652 F   0  0  0  0  0  0  0  0  0  0  0  0
  -30.6490  -16.9893   17.5400 F   0  0  0  0  0  0  0  0  0  0  0  0
  -29.4289  -18.7436   20.7564 S   0  0  0  0  0  0  0  0  0  0  0  0
  1  2  1  0  0  0  0
  1  5  2  0  0  0  0
  2  6  2  0  0  0  0
  3  8  2  0  0  0  0
  3 15  1  0  0  0  0
  4  9  1  0  0  0  0
  4 15  2  0  0  0  0
  5 17  1  0  0  0  0
  6 19  1  0  0  0  0
  7 10  2  0  0  0  0
  7 18  1  0  0  0  0
  8 22  1  0  0  0  0
  9 22  2  0  0  0  0
 10 23  1  0  0  0  0
 11 12  2  0  0  0  0
 11 24  1  0  0  0  0
 12 25  1  0  0  0  0
 13 20  1  0  0  0  0
 13 23  2  0  0  0  0
 14 25  2  0  0  0  0
 14 26  1  0  0  0  0
 15 28  1  0  0  0  0
 16 28  1  0  0  0  0
 16 29  2  0  0  0  0
 16 33  1  0  0  0  0
 17 19  2  0  0  0  0
 17 41  1  0  0  0  0
 18 20  2  0  0  0  0
 18 42  1  0  0  0  0
 19 50  1  0  0  0  0
 20 43  1  0  0  0  0
 21 27  1  0  0  0  0
 21 30  2  0  0  0  0
 21 53  1  0  0  0  0
 22 82  1  0  0  0  0
 23 83  1  0  0  0  0
 24 26  2  0  0  0  0
 24 82  1  0  0  0  0
 25 84  1  0  0  0  0
 26 85  1  0  0  0  0
 27 31  2  0  0  0  0
 27 86  1  0  0  0  0
 28 63  2  0  0  0  0
 29 64  1  0  0  0  0
 29 67  1  0  0  0  0
 30 69  1  0  0  0  0
 30 87  1  0  0  0  0
 31 72  1  0  0  0  0
 31 87  1  0  0  0  0
 32 34  2  0  0  0  0
 32 83  1  0  0  0  0
 33 68  1  0  0  0  0
 33 74  2  0  0  0  0
 34 35  1  0  0  0  0
 34 81  1  0  0  0  0
 35 36  1  0  0  0  0
 35 75  2  0  0  0  0
 36 69  1  0  0  0  0
 36 76  2  0  0  0  0
 37 51  1  0  0  0  0
 37 70  1  0  0  0  0
 37 77  2  0  0  0  0
 38 60  1  0  0  0  0
 38 65  1  0  0  0  0
 38 78  2  0  0  0  0
 39 61  1  0  0  0  0
 39 71  1  0  0  0  0
 39 79  2  0  0  0  0
 40 66  1  0  0  0  0
 40 72  1  0  0  0  0
 40 80  2  0  0  0  0
 41 44  1  0  0  0  0
 42 51  1  0  0  0  0
 43 65  1  0  0  0  0
 44 46  1  0  0  0  0
 45 47  1  0  0  0  0
 45 48  1  0  0  0  0
 46 50  1  0  0  0  0
 47 52  1  0  0  0  0
 48 66  1  0  0  0  0
 49 52  1  0  0  0  0
 49 66  1  0  0  0  0
 50 70  1  0  0  0  0
 51 65  1  0  0  0  0
 52 64  1  0  0  0  0
 54 61  1  0  0  0  0
 55 62  1  0  0  0  0
 56 62  1  0  0  0  0
 57 62  1  0  0  0  0
 58 72  1  0  0  0  0
 59 73  1  0  0  0  0
 60 62  1  0  0  0  0
 60 71  1  0  0  0  0
 61 73  1  0  0  0  0
 63 64  1  0  0  0  0
M  CHG  1  73   1
M  ISO  4  32 101  40 100  72 100  83 101
M  END
> <Batch ID>
0176

> <Smiles>
CNC(C)C(=O)NC(C(=O)N1Cc2cc([101O:1][101CH2:1]C(=O)C(=O)C(=O)Nc3sc([100N:0](C)[100C:0](=O)N4CCCC(n5nc(-c6ccc(Oc7ccc(F)cc7F)cc6)c(C(N)=O)c5N)C4)c(F)c3C)ccc2CC1C(=O)NC1CCCc2ccccc21)C(C)(C)C

> <Shape>
0.266

> <Color>
0.100

> <Negative vol penalty>
0.000

$$$$

  -OEChem-04052304383D

 87 95  0     1  0  0  0  0  0999 V2000
  -31.8395  -28.3621   22.4349 C   0  0  0  0  0  0  0  0  0  0  0  0
  -32.2264  -27.0478   22.1933 C   0  0  0  0  0  0  0  0  0  0  0  0
  -23.0490   -9.8826   19.9297 C   0  0  0  0  0  0  0  0  0  0  0  0
  -23.8184   -9.8500   22.2197 C   0  0  0  0  0  0  0  0  0  0  0  0
  -30.5874  -28.8077   22.0134 C   0  0  0  0  0  0  0  0  0  0  0  0
  -31.3608  -26.1780   21.5309 C   0  0  0  0  0  0  0  0  0  0  0  0
  -33.7026  -23.4478   17.9662 C   0  0  0  0  0  0  0  0  0  0  0  0
  -22.2918   -8.7357   20.1678 C   0  0  0  0  0  0  0  0  0  0  0  0
  -23.0611   -8.7031   22.4578 C   0  0  0  0  0  0  0  0  0  0  0  0
  -34.4594  -22.3577   18.3937 C   0  0  0  0  0  0  0  0  0  0  0  0
  -21.0474   -5.9737   23.7670 C   0  0  0  0  0  0  0  0  0  0  0  0
  -20.2955   -5.9242   24.9408 C   0  0  0  0  0  0  0  0  0  0  0  0
  -32.6453  -20.8779   17.8120 C   0  0  0  0  0  0  0  0  0  0  0  0
  -19.0724   -7.8863   24.2399 C   0  0  0  0  0  0  0  0  0  0  0  0
  -29.8355  -17.6048   22.7837 C   0  0  0  0  0  0  0  0  0  0  0  0
  -23.8124  -10.4398   20.9556 C   0  0  0  0  0  0  0  0  0  0  0  0
  -24.1854  -12.9618   20.8671 C   0  0  0  0  0  0  0  0  0  0  0  0
  -29.7100  -27.9456   21.3370 C   0  0  0  0  0  0  0  0  0  0  0  0
  -32.4052  -23.2619   17.4677 C   0  0  0  0  0  0  0  0  0  0  0  0
  -30.0953  -26.6121   21.1012 C   0  0  0  0  0  0  0  0  0  0  0  0
  -31.8751  -21.9670   17.3764 C   0  0  0  0  0  0  0  0  0  0  0  0
  -22.2978   -8.1459   21.4318 C   0  0  0  0  0  0  0  0  0  0  0  0
  -33.9297  -21.0728   18.3194 C   0  0  0  0  0  0  0  0  0  0  0  0
  -20.8119   -6.9796   22.8297 C   0  0  0  0  0  0  0  0  0  0  0  0
  -19.3080   -6.8805   25.1772 C   0  0  0  0  0  0  0  0  0  0  0  0
  -19.8244   -7.9358   23.0661 C   0  0  0  0  0  0  0  0  0  0  0  0
  -30.3275  -18.8272   23.2275 C   0  0  0  0  0  0  0  0  0  0  0  0
  -31.5939  -19.2449   22.8338 C   0  0  0  0  0  0  0  0  0  0  0  0
  -24.5953  -11.6242   20.7102 C   0  0  0  0  0  0  0  0  0  0  0  0
  -30.6429  -16.8434   21.9541 C   0  0  0  0  0  0  0  0  0  0  0  0
  -32.3227  -18.4099   22.0022 C   0  0  0  0  0  0  0  0  0  0  0  0
  -25.2853  -13.7023   20.5090 C   0  0  0  0  0  0  0  0  0  0  0  0
  -22.9232  -13.4879   21.2982 C   0  0  0  0  0  0  0  0  0  0  0  0
  -29.5047  -24.2165   18.3507 C   0  0  0  0  0  0  0  0  0  0  0  0
  -28.6214  -22.8235   15.5575 C   0  0  0  0  0  0  0  0  0  0  0  0
  -29.3013  -20.5342   13.1196 C   0  0  0  0  0  0  0  0  0  0  0  0
  -34.5116  -18.1748   20.7835 C   0  0  0  0  0  0  0  0  0  0  0  0
  -30.7649  -14.6771   20.6740 C   0  0  0  0  0  0  0  0  0  0  0  0
  -28.3480  -28.4594   20.9425 C   0  0  0  0  0  0  0  0  0  0  0  0
  -31.6119  -24.4454   16.9857 C   0  0  0  0  0  0  0  0  0  0  0  0
  -30.4949  -21.7118   16.8301 C   0  0  0  0  0  0  0  0  0  0  0  0
  -27.6392  -27.5799   19.9156 C   0  0  0  0  0  0  0  0  0  0  0  0
  -29.6105  -12.3087   18.2792 C   0  0  0  0  0  0  0  0  0  0  0  0
  -27.7339  -26.1108   20.3149 C   0  0  0  0  0  0  0  0  0  0  0  0
  -28.1691  -12.0295   18.7111 C   0  0  0  0  0  0  0  0  0  0  0  0
  -30.5334  -12.5102   19.4798 C   0  0  0  0  0  0  0  0  0  0  0  0
  -28.6414  -13.2403   20.8785 C   0  0  0  0  0  0  0  0  0  0  0  0
  -29.1942  -25.6454   20.3638 C   0  0  1  0  0  0  0  0  0  0  0  0
  -30.1076  -24.1920   16.9746 C   0  0  1  0  0  0  0  0  0  0  0  0
  -27.6616  -13.0947   19.7027 C   0  0  2  0  0  0  0  0  0  0  0  0
  -36.8721  -17.8834   22.6587 C   0  0  0  0  0  0  0  0  0  0  0  0
  -28.3755  -19.5974   10.9835 C   0  0  0  0  0  0  0  0  0  0  0  0
  -26.5816  -21.2093   17.1524 C   0  0  0  0  0  0  0  0  0  0  0  0
  -26.3756  -19.6647   15.1928 C   0  0  0  0  0  0  0  0  0  0  0  0
  -25.7465  -22.0671   14.9566 C   0  0  0  0  0  0  0  0  0  0  0  0
  -31.6621  -21.4219   11.5713 C   0  0  0  0  0  0  0  0  0  0  0  0
  -36.5228  -19.1704   21.9229 C   0  0  0  0  0  0  0  0  0  0  0  0
  -35.6071  -20.2380   19.7841 C   0  0  0  0  0  0  0  0  0  1  0  0
  -28.1880  -21.4378   15.1441 C   0  0  1  0  0  0  0  0  0  0  0  0
  -29.2896  -20.6416   11.6054 C   0  0  2  0  0  0  0  0  0  0  0  0
  -35.8251  -18.9427   20.5702 C   0  0  2  0  0  0  0  0  0  0  0  0
  -26.7482  -21.0994   15.6236 C   0  0  0  0  0  0  0  0  0  0  0  0
  -25.8571  -11.5181   20.2853 N   0  0  0  0  0  0  0  0  0  0  0  0
  -31.8782  -17.2158   21.5505 N   0  0  0  0  0  0  0  0  0  0  0  0
  -26.2495  -12.7984   20.1721 N   0  0  0  0  0  0  0  0  0  0  0  0
  -29.7561  -22.9020   16.3774 N   0  0  0  0  0  0  0  0  0  0  0  0
  -29.9910  -13.5364   20.3729 N   0  0  0  0  0  0  0  0  0  0  0  0
  -25.5121  -15.0318   20.4525 N   0  0  0  0  0  0  0  0  0  0  0  0
  -21.9013  -12.5871   21.6279 N   0  0  0  0  0  0  0  0  0  0  0  0
  -33.6113  -18.8406   21.6050 N   0  0  0  0  0  0  0  0  0  0  0  0
  -30.1325  -15.5994   21.5071 N   0  0  0  0  0  0  0  0  0  0  0  0
  -29.6937  -25.4068   19.0266 N   0  0  0  0  0  0  0  0  0  0  0  0
  -28.3680  -21.3683   13.6980 N   0  0  0  0  0  0  0  0  0  0  0  0
  -30.6635  -20.4471   11.0617 N   0  3  0  0  0  0  0  0  0  0  0  0
  -22.7026  -14.7205   21.3726 O   0  0  0  0  0  0  0  0  0  0  0  0
  -28.9107  -23.2291   18.7678 O   0  0  0  0  0  0  0  0  0  0  0  0
  -27.9811  -23.8007   15.1617 O   0  0  0  0  0  0  0  0  0  0  0  0
  -30.0597  -19.7826   13.7282 O   0  0  0  0  0  0  0  0  0  0  0  0
  -34.3523  -17.0805   20.2466 O   0  0  0  0  0  0  0  0  0  0  0  0
  -31.8941  -14.8378   20.2038 O   0  0  0  0  0  0  0  0  0  0  0  0
  -21.5588   -7.0269   21.6645 O   0  0  0  0  0  0  0  0  0  0  0  0
  -34.6659  -20.0071   18.7366 O   0  0  0  0  0  0  0  0  0  1  0  0
  -18.5849   -6.8320   26.3037 F   0  0  0  0  0  0  0  0  0  0  0  0
  -19.5927   -8.9038   22.1688 F   0  0  0  0  0  0  0  0  0  0  0  0
  -29.5848  -19.5991   24.0315 F   0  0  0  0  0  0  0  0  0  0  0  0
  -32.0806  -20.4198   23.2537 F   0  0  0  0  0  0  0  0  0  0  0  0
  -36.6660  -18.1624   19.8176 F   0  0  0  0  0  0  0  0  0  0  0  0
  1  2  1  0  0  0  0
  1  5  2  0  0  0  0
  2  6  2  0  0  0  0
  3  8  2  0  0  0  0
  3 16  1  0  0  0  0
  4  9  1  0  0  0  0
  4 16  2  0  0  0  0
  5 18  1  0  0  0  0
  6 20  1  0  0  0  0
  7 10  2  0  0  0  0
  7 19  1  0  0  0  0
  8 22  1  0  0  0  0
  9 22  2  0  0  0  0
 10 23  1  0  0  0  0
 11 12  2  0  0  0  0
 11 24  1  0  0  0  0
 12 25  1  0  0  0  0
 13 21  1  0  0  0  0
 13 23  2  0  0  0  0
 14 25  2  0  0  0  0
 14 26  1  0  0  0  0
 15 27  2  0  0  0  0
 15 30  1  0  0  0  0
 16 29  1  0  0  0  0
 17 29  1  0  0  0  0
 17 32  2  0  0  0  0
 17 33  1  0  0  0  0
 18 20  2  0  0  0  0
 18 39  1  0  0  0  0
 19 21  2  0  0  0  0
 19 40  1  0  0  0  0
 20 48  1  0  0  0  0
 21 41  1  0  0  0  0
 22 81  1  0  0  0  0
 23 82  1  0  0  0  0
 24 26  2  0  0  0  0
 24 81  1  0  0  0  0
 25 83  1  0  0  0  0
 26 84  1  0  0  0  0
 27 28  1  0  0  0  0
 27 85  1  0  0  0  0
 28 31  2  0  0  0  0
 28 86  1  0  0  0  0
 29 63  2  0  0  0  0
 30 64  2  0  0  0  0
 30 71  1  0  0  0  0
 31 64  1  0  0  0  0
 31 70  1  0  0  0  0
 32 65  1  0  0  0  0
 32 68  1  0  0  0  0
 33 69  1  0  0  0  0
 33 75  2  0  0  0  0
 34 49  1  0  0  0  0
 34 72  1  0  0  0  0
 34 76  2  0  0  0  0
 35 59  1  0  0  0  0
 35 66  1  0  0  0  0
 35 77  2  0  0  0  0
 36 60  1  0  0  0  0
 36 73  1  0  0  0  0
 36 78  2  0  0  0  0
 37 61  1  0  0  0  0
 37 70  1  0  0  0  0
 37 79  2  0  0  0  0
 38 67  1  0  0  0  0
 38 71  1  0  0  0  0
 38 80  2  0  0  0  0
 39 42  1  0  0  0  0
 40 49  1  0  0  0  0
 41 66  1  0  0  0  0
 42 44  1  0  0  0  0
 43 45  1  0  0  0  0
 43 46  1  0  0  0  0
 44 48  1  0  0  0  0
 45 50  1  0  0  0  0
 46 67  1  0  0  0  0
 47 50  1  0  0  0  0
 47 67  1  0  0  0  0
 48 72  1  0  0  0  0
 49 66  1  0  0  0  0
 50 65  1  0  0  0  0
 51 57  1  0  0  0  0
 52 60  1  0  0  0  0
 53 62  1  0  0  0  0
 54 62  1  0  0  0  0
 55 62  1  0  0  0  0
 56 74  1  0  0  0  0
 57 61  1  0  0  0  0
 58 61  1  0  0  0  0
 58 82  1  0  0  0  0
 59 62  1  0  0  0  0
 59 73  1  0  0  0  0
 60 74  1  0  0  0  0
 61 87  1  0  0  0  0
 63 65  1  0  0  0  0
M  CHG  1  74   1
M  ISO  4  38 100  58 101  71 100  82 101
M  END
> <Batch ID>
0176

> <Smiles>
CCC(F)(C(=O)Nc1nc([100NH:0][100C:0](=O)N2CCCC(n3nc(-c4ccc(Oc5ccc(F)cc5F)cc4)c(C(N)=O)c3N)C2)cc(F)c1F)[101CH2:1][101O:1]c1ccc2c(c1)CN(C(=O)C(NC(=O)C(C)NC)C(C)(C)C)C(C(=O)NC1CCCc3ccccc31)C2

> <Shape>
0.237

> <Color>
0.206

> <Negative vol penalty>
0.000

$$$$

  -OEChem-04052304383D

 83 91  0     1  0  0  0  0  0999 V2000
  -24.5008  -20.8384   17.5249 C   0  0  0  0  0  0  0  0  0  0  0  0
  -23.9871  -22.0195   18.0509 C   0  0  0  0  0  0  0  0  0  0  0  0
  -23.0793  -13.7715   21.0806 C   0  0  0  0  0  0  0  0  0  0  0  0
  -24.8815  -14.7037   22.3921 C   0  0  0  0  0  0  0  0  0  0  0  0
  -25.7893  -20.4279   17.8642 C   0  0  0  0  0  0  0  0  0  0  0  0
  -24.7614  -22.7903   18.9174 C   0  0  0  0  0  0  0  0  0  0  0  0
  -24.8161  -28.8982   19.3597 C   0  0  0  0  0  0  0  0  0  0  0  0
  -23.9458  -12.7995   20.5806 C   0  0  0  0  0  0  0  0  0  0  0  0
  -25.7481  -13.7317   21.8921 C   0  0  0  0  0  0  0  0  0  0  0  0
  -24.1905  -29.7806   20.2394 C   0  0  0  0  0  0  0  0  0  0  0  0
  -27.5002  -13.1784   19.0540 C   0  0  0  0  0  0  0  0  0  0  0  0
  -28.7633  -13.5921   18.6309 C   0  0  0  0  0  0  0  0  0  0  0  0
  -26.1908  -29.8468   21.5861 C   0  0  0  0  0  0  0  0  0  0  0  0
  -29.7875  -12.1319   20.2606 C   0  0  0  0  0  0  0  0  0  0  0  0
  -23.5471  -14.7236   21.9863 C   0  0  0  0  0  0  0  0  0  0  0  0
  -21.8552  -15.6428   23.6596 C   0  0  0  0  0  0  0  0  0  0  0  0
  -26.5833  -21.1990   18.7277 C   0  0  0  0  0  0  0  0  0  0  0  0
  -26.1323  -28.4743   19.5930 C   0  0  0  0  0  0  0  0  0  0  0  0
  -26.0613  -22.3890   19.2696 C   0  0  0  0  0  0  0  0  0  0  0  0
  -26.8317  -28.9610   20.7065 C   0  0  0  0  0  0  0  0  0  0  0  0
  -25.2802  -12.7796   20.9864 C   0  0  0  0  0  0  0  0  0  0  0  0
  -24.8768  -30.2528   21.3543 C   0  0  0  0  0  0  0  0  0  0  0  0
  -27.3807  -12.2415   20.0805 C   0  0  0  0  0  0  0  0  0  0  0  0
  -29.9069  -13.0688   19.2341 C   0  0  0  0  0  0  0  0  0  0  0  0
  -28.5244  -11.7182   20.6838 C   0  0  0  0  0  0  0  0  0  0  0  0
  -22.6526  -15.7283   22.5027 C   0  0  0  0  0  0  0  0  0  0  0  0
  -20.1438  -25.8769   23.0574 C   0  0  0  0  0  0  0  0  0  0  0  0
  -19.0380  -26.1366   22.2752 C   0  0  0  0  0  0  0  0  0  0  0  0
  -21.1957  -16.8465   23.7118 C   0  0  0  0  0  0  0  0  0  0  0  0
  -20.6486  -27.9202   22.4409 C   0  0  0  0  0  0  0  0  0  0  0  0
  -21.7225  -14.5712   24.6029 C   0  0  0  0  0  0  0  0  0  0  0  0
  -27.5205  -25.6687   20.1455 C   0  0  0  0  0  0  0  0  0  0  0  0
  -30.2455  -27.4164   19.9393 C   0  0  0  0  0  0  0  0  0  0  0  0
  -31.7587  -30.4646   20.1949 C   0  0  0  0  0  0  0  0  0  0  0  0
  -22.4985  -29.5894   22.8020 C   0  0  0  0  0  0  0  0  0  0  0  0
  -21.2386  -22.3106   23.4136 C   0  0  0  0  0  0  0  0  0  0  0  0
  -27.9527  -20.6904   19.1028 C   0  0  0  0  0  0  0  0  0  0  0  0
  -26.8021  -27.5430   18.6201 C   0  0  0  0  0  0  0  0  0  0  0  0
  -28.2532  -28.5523   20.9909 C   0  0  0  0  0  0  0  0  0  0  0  0
  -28.8469  -21.7557   19.7319 C   0  0  0  0  0  0  0  0  0  0  0  0
  -20.8149  -20.5459   20.2824 C   0  0  0  0  0  0  0  0  0  0  0  0
  -28.0824  -22.5320   20.7995 C   0  0  0  0  0  0  0  0  0  0  0  0
  -21.1929  -19.1190   20.6839 C   0  0  0  0  0  0  0  0  0  0  0  0
  -21.6905  -21.5714   20.9965 C   0  0  0  0  0  0  0  0  0  0  0  0
  -22.0620  -20.0333   22.8859 C   0  0  0  0  0  0  0  0  0  0  0  0
  -26.8796  -23.2650   20.1933 C   0  0  1  0  0  0  0  0  0  0  0  0
  -27.9691  -26.7759   19.2341 C   0  0  1  0  0  0  0  0  0  0  0  0
  -21.1977  -18.9503   22.2149 C   0  0  2  0  0  0  0  0  0  0  0  0
  -17.8753  -25.2836   21.9582 C   0  0  0  0  0  0  0  0  0  0  0  0
  -34.0028  -31.5718   20.0065 C   0  0  0  0  0  0  0  0  0  0  0  0
  -22.3586  -32.0493   23.3395 C   0  0  0  0  0  0  0  0  0  0  0  0
  -31.0320  -26.2797   22.6595 C   0  0  0  0  0  0  0  0  0  0  0  0
  -32.7473  -28.0941   22.8439 C   0  0  0  0  0  0  0  0  0  0  0  0
  -32.9026  -26.4155   21.0052 C   0  0  0  0  0  0  0  0  0  0  0  0
  -30.8447  -32.2022   17.9803 C   0  0  0  0  0  0  0  0  0  0  0  0
  -20.4175  -24.6221   23.7871 C   0  0  0  0  0  0  0  0  0  0  0  0
  -31.0992  -28.1852   20.9186 C   0  0  1  0  0  0  0  0  0  0  0  0
  -32.7250  -31.1897   19.2757 C   0  0  2  0  0  0  0  0  0  0  0  0
  -22.8520  -31.0040   22.3500 C   0  0  1  0  0  0  0  0  0  1  0  0
  -31.9178  -27.2500   21.8528 C   0  0  0  0  0  0  0  0  0  0  0  0
  -22.5138  -16.8941   21.8657 N   0  0  0  0  0  0  0  0  0  0  0  0
  -21.0686  -26.8983   23.1533 N   0  0  0  0  0  0  0  0  0  0  0  0
  -21.6214  -17.5521   22.6251 N   0  0  0  0  0  0  0  0  0  0  0  0
  -28.8626  -27.6350   20.0137 N   0  0  0  0  0  0  0  0  0  0  0  0
  -21.6362  -21.3678   22.4511 N   0  0  0  0  0  0  0  0  0  0  0  0
  -20.2990  -17.3595   24.5807 N   0  0  0  0  0  0  0  0  0  0  0  0
  -22.4728  -13.4051   24.3992 N   0  0  0  0  0  0  0  0  0  0  0  0
  -21.2869  -29.1706   22.2620 N   0  0  0  0  0  0  0  0  0  0  0  0
  -27.3118  -24.4623   19.5048 N   0  0  0  0  0  0  0  0  0  0  0  0
  -31.9140  -29.0964   20.1223 N   0  0  0  0  0  0  0  0  0  0  0  0
  -20.8570  -23.5520   22.9196 N   0  0  0  0  0  0  0  0  0  0  0  0
  -32.0990  -32.4325   18.7425 N   0  3  0  0  0  0  0  0  0  0  0  0
  -20.9487  -14.6391   25.5878 O   0  0  0  0  0  0  0  0  0  0  0  0
  -27.3760  -25.8920   21.3417 O   0  0  0  0  0  0  0  0  0  0  0  0
  -30.7864  -26.6554   19.1331 O   0  0  0  0  0  0  0  0  0  0  0  0
  -30.9498  -31.0532   20.9088 O   0  0  0  0  0  0  0  0  0  0  0  0
  -23.2454  -28.9513   23.5383 O   0  0  0  0  0  0  0  0  0  0  0  0
  -21.2197  -22.0626   24.6241 O   0  0  0  0  0  0  0  0  0  0  0  0
  -26.1260  -11.8312   20.4989 O   0  0  0  0  0  0  0  0  0  0  0  0
  -24.2683  -31.1136   22.2149 O   0  0  0  0  0  0  0  0  0  1  0  0
  -31.1198  -13.4651   18.8267 F   0  0  0  0  0  0  0  0  0  0  0  0
  -28.4159  -10.8170   21.6696 F   0  0  0  0  0  0  0  0  0  0  0  0
  -19.1492  -27.7218   21.6300 S   0  0  0  0  0  0  0  0  0  0  0  0
  1  2  1  0  0  0  0
  1  5  2  0  0  0  0
  2  6  2  0  0  0  0
  3  8  2  0  0  0  0
  3 15  1  0  0  0  0
  4  9  1  0  0  0  0
  4 15  2  0  0  0  0
  5 17  1  0  0  0  0
  6 19  1  0  0  0  0
  7 10  2  0  0  0  0
  7 18  1  0  0  0  0
  8 21  1  0  0  0  0
  9 21  2  0  0  0  0
 10 22  1  0  0  0  0
 11 12  2  0  0  0  0
 11 23  1  0  0  0  0
 12 24  1  0  0  0  0
 13 20  1  0  0  0  0
 13 22  2  0  0  0  0
 14 24  2  0  0  0  0
 14 25  1  0  0  0  0
 15 26  1  0  0  0  0
 16 26  1  0  0  0  0
 16 29  2  0  0  0  0
 16 31  1  0  0  0  0
 17 19  2  0  0  0  0
 17 37  1  0  0  0  0
 18 20  2  0  0  0  0
 18 38  1  0  0  0  0
 19 46  1  0  0  0  0
 20 39  1  0  0  0  0
 21 79  1  0  0  0  0
 22 80  1  0  0  0  0
 23 25  2  0  0  0  0
 23 79  1  0  0  0  0
 24 81  1  0  0  0  0
 25 82  1  0  0  0  0
 26 61  2  0  0  0  0
 27 28  2  0  0  0  0
 27 56  1  0  0  0  0
 27 62  1  0  0  0  0
 28 49  1  0  0  0  0
 28 83  1  0  0  0  0
 29 63  1  0  0  0  0
 29 66  1  0  0  0  0
 30 62  2  0  0  0  0
 30 68  1  0  0  0  0
 30 83  1  0  0  0  0
 31 67  1  0  0  0  0
 31 73  2  0  0  0  0
 32 47  1  0  0  0  0
 32 69  1  0  0  0  0
 32 74  2  0  0  0  0
 33 57  1  0  0  0  0
 33 64  1  0  0  0  0
 33 75  2  0  0  0  0
 34 58  1  0  0  0  0
 34 70  1  0  0  0  0
 34 76  2  0  0  0  0
 35 59  1  0  0  0  0
 35 68  1  0  0  0  0
 35 77  2  0  0  0  0
 36 65  1  0  0  0  0
 36 71  1  0  0  0  0
 36 78  2  0  0  0  0
 37 40  1  0  0  0  0
 38 47  1  0  0  0  0
 39 64  1  0  0  0  0
 40 42  1  0  0  0  0
 41 43  1  0  0  0  0
 41 44  1  0  0  0  0
 42 46  1  0  0  0  0
 43 48  1  0  0  0  0
 44 65  1  0  0  0  0
 45 48  1  0  0  0  0
 45 65  1  0  0  0  0
 46 69  1  0  0  0  0
 47 64  1  0  0  0  0
 48 63  1  0  0  0  0
 50 58  1  0  0  0  0
 51 59  1  0  0  0  0
 52 60  1  0  0  0  0
 53 60  1  0  0  0  0
 54 60  1  0  0  0  0
 55 72  1  0  0  0  0
 56 71  1  0  0  0  0
 57 60  1  0  0  0  0
 57 70  1  0  0  0  0
 58 72  1  0  0  0  0
 59 80  1  0  0  0  0
 61 63  1  0  0  0  0
M  CHG  1  72   1
M  ISO  4  36 100  59 101  71 100  80 101
M  END
> <Batch ID>
0176

> <Smiles>
CNC(C)C(=O)NC(C(=O)N1Cc2cc([101O:1][101CH:1](C)C(=O)Nc3nc(C[100NH:0][100C:0](=O)N4CCCC(n5nc(-c6ccc(Oc7ccc(F)cc7F)cc6)c(C(N)=O)c5N)C4)c(C)s3)ccc2CC1C(=O)NC1CCCc2ccccc21)C(C)(C)C

> <Shape>
0.231

> <Color>
0.092

> <Negative vol penalty>
0.000

$$$$

  -OEChem-04052304383D

 88 96  0     1  0  0  0  0  0999 V2000
  -41.6611  -26.0036   25.1188 C   0  0  0  0  0  0  0  0  0  0  0  0
  -40.4258  -25.5485   25.5687 C   0  0  0  0  0  0  0  0  0  0  0  0
  -23.0029   -9.8857   19.9819 C   0  0  0  0  0  0  0  0  0  0  0  0
  -23.7272   -9.9428   22.2860 C   0  0  0  0  0  0  0  0  0  0  0  0
  -41.7651  -26.6138   23.8696 C   0  0  0  0  0  0  0  0  0  0  0  0
  -39.2935  -25.7044   24.7699 C   0  0  0  0  0  0  0  0  0  0  0  0
  -36.4392  -21.5245   24.6087 C   0  0  0  0  0  0  0  0  0  0  0  0
  -22.2390   -8.7499   20.2501 C   0  0  0  0  0  0  0  0  0  0  0  0
  -22.9633   -8.8070   22.5543 C   0  0  0  0  0  0  0  0  0  0  0  0
  -35.6199  -21.2702   25.7077 C   0  0  0  0  0  0  0  0  0  0  0  0
  -23.2157   -5.4677   22.0888 C   0  0  0  0  0  0  0  0  0  0  0  0
  -23.8054   -4.4534   22.8430 C   0  0  0  0  0  0  0  0  0  0  0  0
  -33.7317  -22.1599   24.4984 C   0  0  0  0  0  0  0  0  0  0  0  0
  -22.0804   -4.6954   24.5172 C   0  0  0  0  0  0  0  0  0  0  0  0
  -23.7471  -10.4821   20.9998 C   0  0  0  0  0  0  0  0  0  0  0  0
  -24.1265  -12.9983   20.8191 C   0  0  0  0  0  0  0  0  0  0  0  0
  -40.6353  -26.7686   23.0509 C   0  0  0  0  0  0  0  0  0  0  0  0
  -35.9121  -22.1095   23.4483 C   0  0  0  0  0  0  0  0  0  0  0  0
  -39.3823  -26.3185   23.5090 C   0  0  0  0  0  0  0  0  0  0  0  0
  -34.5458  -22.4183   23.3851 C   0  0  0  0  0  0  0  0  0  0  0  0
  -22.2191   -8.2105   21.5363 C   0  0  0  0  0  0  0  0  0  0  0  0
  -34.2665  -21.5905   25.6538 C   0  0  0  0  0  0  0  0  0  0  0  0
  -22.0583   -6.0960   22.5488 C   0  0  0  0  0  0  0  0  0  0  0  0
  -23.2377   -4.0671   24.0572 C   0  0  0  0  0  0  0  0  0  0  0  0
  -21.4907   -5.7098   23.7630 C   0  0  0  0  0  0  0  0  0  0  0  0
  -24.5369  -11.6551   20.7232 C   0  0  0  0  0  0  0  0  0  0  0  0
  -30.7198  -19.0823   22.9140 C   0  0  0  0  0  0  0  0  0  0  0  0
  -31.8272  -18.6803   22.1971 C   0  0  0  0  0  0  0  0  0  0  0  0
  -25.2346  -13.7228   20.4537 C   0  0  0  0  0  0  0  0  0  0  0  0
  -30.5688  -16.9125   21.8788 C   0  0  0  0  0  0  0  0  0  0  0  0
  -22.8571  -13.5424   21.2042 C   0  0  0  0  0  0  0  0  0  0  0  0
  -30.5655  -20.3555   23.6351 C   0  0  0  0  0  0  0  0  0  0  0  0
  -36.4352  -24.8149   21.8638 C   0  0  0  0  0  0  0  0  0  0  0  0
  -34.3874  -23.4990   19.7197 C   0  0  0  0  0  0  0  0  0  0  0  0
  -31.5250  -19.2396   25.6386 C   0  0  0  0  0  0  0  0  0  0  0  0
  -31.8499  -21.3000   19.1097 C   0  0  0  0  0  0  0  0  0  0  0  0
  -30.7118  -14.6972   20.6877 C   0  0  0  0  0  0  0  0  0  0  0  0
  -40.7887  -27.4770   21.7283 C   0  0  0  0  0  0  0  0  0  0  0  0
  -36.8037  -22.3528   22.2616 C   0  0  0  0  0  0  0  0  0  0  0  0
  -33.9269  -23.0290   22.1553 C   0  0  0  0  0  0  0  0  0  0  0  0
  -39.6077  -27.2668   20.7842 C   0  0  0  0  0  0  0  0  0  0  0  0
  -29.6000  -12.2374   18.3660 C   0  0  0  0  0  0  0  0  0  0  0  0
  -38.2896  -27.4662   21.5255 C   0  0  0  0  0  0  0  0  0  0  0  0
  -28.1499  -11.9772   18.7802 C   0  0  0  0  0  0  0  0  0  0  0  0
  -30.4996  -12.4852   19.5756 C   0  0  0  0  0  0  0  0  0  0  0  0
  -28.5819  -13.2720   20.9071 C   0  0  0  0  0  0  0  0  0  0  0  0
  -38.1356  -26.4472   22.6610 C   0  0  1  0  0  0  0  0  0  0  0  0
  -36.2650  -23.4249   21.3193 C   0  0  1  0  0  0  0  0  0  0  0  0
  -27.6251  -13.0812   19.7189 C   0  0  2  0  0  0  0  0  0  0  0  0
  -30.1863  -19.9757   17.7770 C   0  0  0  0  0  0  0  0  0  0  0  0
  -28.4595  -22.7724   24.2297 C   0  0  0  0  0  0  0  0  0  0  0  0
  -29.9970  -23.7900   22.5106 C   0  0  0  0  0  0  0  0  0  0  0  0
  -33.8686  -19.8946   28.5895 C   0  0  0  0  0  0  0  0  0  0  0  0
  -32.7436  -26.0629   19.9046 C   0  0  0  0  0  0  0  0  0  0  0  0
  -30.8418  -24.8384   18.8314 C   0  0  0  0  0  0  0  0  0  0  0  0
  -32.9849  -25.1429   17.5916 C   0  0  0  0  0  0  0  0  0  0  0  0
  -33.7830  -19.1045   18.6606 C   0  0  0  0  0  0  0  0  0  0  0  0
  -31.8967  -19.5582   27.0651 C   0  0  0  0  0  0  0  0  0  0  0  0
  -32.8908  -23.5137   19.5226 C   0  0  1  0  0  0  0  0  0  0  0  0
  -31.6604  -20.2567   18.0234 C   0  0  2  0  0  0  0  0  0  0  0  0
  -29.8428  -22.7453   23.6028 C   0  0  0  0  0  0  0  0  0  0  0  0
  -33.3578  -19.9884   27.1582 C   0  0  1  0  0  0  0  0  0  1  0  0
  -32.3770  -24.8798   18.9866 C   0  0  0  0  0  0  0  0  0  0  0  0
  -25.8066  -11.5308   20.3277 N   0  0  0  0  0  0  0  0  0  0  0  0
  -31.7426  -17.4361   21.6031 N   0  0  0  0  0  0  0  0  0  0  0  0
  -26.2036  -12.8053   20.1718 N   0  0  0  0  0  0  0  0  0  0  0  0
  -34.8411  -23.2536   21.0234 N   0  0  0  0  0  0  0  0  0  0  0  0
  -29.9418  -13.5464   20.4168 N   0  0  0  0  0  0  0  0  0  0  0  0
  -32.9507  -19.4247   22.0564 N   0  0  0  0  0  0  0  0  0  0  0  0
  -25.4650  -15.0489   20.3492 N   0  0  0  0  0  0  0  0  0  0  0  0
  -21.8273  -12.6565   21.5491 N   0  0  0  0  0  0  0  0  0  0  0  0
  -30.0650  -15.6524   21.4713 N   0  0  0  0  0  0  0  0  0  0  0  0
  -30.9633  -20.3549   24.9151 N   0  0  0  0  0  0  0  0  0  0  0  0
  -37.7467  -25.1570   22.1330 N   0  0  0  0  0  0  0  0  0  0  0  0
  -32.5815  -22.3787   18.6598 N   0  0  0  0  0  0  0  0  0  0  0  0
  -30.0516  -21.4205   23.0071 N   0  3  0  0  0  0  0  0  0  0  0  0
  -32.3239  -18.9796   18.4105 N   0  3  0  0  0  0  0  0  0  0  0  0
  -22.6374  -14.7772   21.2255 O   0  0  0  0  0  0  0  0  0  0  0  0
  -35.4498  -25.5251   22.0261 O   0  0  0  0  0  0  0  0  0  0  0  0
  -35.1268  -23.6908   18.7511 O   0  0  0  0  0  0  0  0  0  0  0  0
  -31.6919  -18.1473   25.1135 O   0  0  0  0  0  0  0  0  0  0  0  0
  -31.3913  -21.1727   20.2429 O   0  0  0  0  0  0  0  0  0  0  0  0
  -31.8503  -14.8380   20.2338 O   0  0  0  0  0  0  0  0  0  0  0  0
  -21.4736   -7.1024   21.7985 O   0  0  0  0  0  0  0  0  0  0  0  0
  -33.4648  -21.3439   26.7253 O   0  0  0  0  0  0  0  0  0  1  0  0
  -23.8033   -3.0920   24.7807 F   0  0  0  0  0  0  0  0  0  0  0  0
  -20.3782   -6.3088   24.2095 F   0  0  0  0  0  0  0  0  0  0  0  0
  -29.5169  -17.8617   22.8470 S   0  0  0  0  0  0  0  0  0  0  0  0
  1  2  1  0  0  0  0
  1  5  2  0  0  0  0
  2  6  2  0  0  0  0
  3  8  2  0  0  0  0
  3 15  1  0  0  0  0
  4  9  1  0  0  0  0
  4 15  2  0  0  0  0
  5 17  1  0  0  0  0
  6 19  1  0  0  0  0
  7 10  2  0  0  0  0
  7 18  1  0  0  0  0
  8 21  1  0  0  0  0
  9 21  2  0  0  0  0
 10 22  1  0  0  0  0
 11 12  2  0  0  0  0
 11 23  1  0  0  0  0
 12 24  1  0  0  0  0
 13 20  1  0  0  0  0
 13 22  2  0  0  0  0
 14 24  2  0  0  0  0
 14 25  1  0  0  0  0
 15 26  1  0  0  0  0
 16 26  1  0  0  0  0
 16 29  2  0  0  0  0
 16 31  1  0  0  0  0
 17 19  2  0  0  0  0
 17 38  1  0  0  0  0
 18 20  2  0  0  0  0
 18 39  1  0  0  0  0
 19 47  1  0  0  0  0
 20 40  1  0  0  0  0
 21 84  1  0  0  0  0
 22 85  1  0  0  0  0
 23 25  2  0  0  0  0
 23 84  1  0  0  0  0
 24 86  1  0  0  0  0
 25 87  1  0  0  0  0
 26 64  2  0  0  0  0
 27 28  2  0  0  0  0
 27 32  1  0  0  0  0
 27 88  1  0  0  0  0
 28 65  1  0  0  0  0
 28 69  1  0  0  0  0
 29 66  1  0  0  0  0
 29 70  1  0  0  0  0
 30 65  2  0  0  0  0
 30 72  1  0  0  0  0
 30 88  1  0  0  0  0
 31 71  1  0  0  0  0
 31 78  2  0  0  0  0
 32 73  1  0  0  0  0
 32 76  2  0  0  0  0
 33 48  1  0  0  0  0
 33 74  1  0  0  0  0
 33 79  2  0  0  0  0
 34 59  1  0  0  0  0
 34 67  1  0  0  0  0
 34 80  2  0  0  0  0
 35 58  1  0  0  0  0
 35 73  1  0  0  0  0
 35 81  2  0  0  0  0
 36 60  1  0  0  0  0
 36 75  1  0  0  0  0
 36 82  2  0  0  0  0
 37 68  1  0  0  0  0
 37 72  1  0  0  0  0
 37 83  2  0  0  0  0
 38 41  1  0  0  0  0
 39 48  1  0  0  0  0
 40 67  1  0  0  0  0
 41 43  1  0  0  0  0
 42 44  1  0  0  0  0
 42 45  1  0  0  0  0
 43 47  1  0  0  0  0
 44 49  1  0  0  0  0
 45 68  1  0  0  0  0
 46 49  1  0  0  0  0
 46 68  1  0  0  0  0
 47 74  1  0  0  0  0
 48 67  1  0  0  0  0
 49 66  1  0  0  0  0
 50 60  1  0  0  0  0
 51 61  1  0  0  0  0
 52 61  1  0  0  0  0
 53 62  1  0  0  0  0
 54 63  1  0  0  0  0
 55 63  1  0  0  0  0
 56 63  1  0  0  0  0
 57 77  1  0  0  0  0
 58 62  1  0  0  0  0
 59 63  1  0  0  0  0
 59 75  1  0  0  0  0
 60 77  1  0  0  0  0
 61 76  1  0  0  0  0
 62 85  1  0  0  0  0
 64 66  1  0  0  0  0
M  CHG  2  76   1  77   1
M  ISO  4  37 100  62 101  72 100  85 101
M  END
> <Batch ID>
0176

> <Smiles>
CNC(C)C(=O)NC(C(=O)N1Cc2cc([101O:1][101CH:1](C)CC(=O)NC(=NC(C)C)c3sc([100NH:0][100C:0](=O)N4CCCC(n5nc(-c6ccc(Oc7ccc(F)cc7F)cc6)c(C(N)=O)c5N)C4)nc3N)ccc2CC1C(=O)NC1CCCc2ccccc21)C(C)(C)C

> <Shape>
0.190

> <Color>
0.179

> <Negative vol penalty>
0.000

$$$$

  -OEChem-04052304383D

 86 94  0     1  0  0  0  0  0999 V2000
  -21.1030  -12.9013   21.0560 C   0  0  0  0  0  0  0  0  0  0  0  0
  -21.4896  -14.1013   21.6441 C   0  0  0  0  0  0  0  0  0  0  0  0
  -30.2675  -26.8335   22.1117 C   0  0  0  0  0  0  0  0  0  0  0  0
  -28.9357  -24.9769   21.3264 C   0  0  0  0  0  0  0  0  0  0  0  0
  -22.0688  -12.0250   20.5629 C   0  0  0  0  0  0  0  0  0  0  0  0
  -22.8424  -14.4253   21.7405 C   0  0  0  0  0  0  0  0  0  0  0  0
  -23.7889  -19.2248   20.4315 C   0  0  0  0  0  0  0  0  0  0  0  0
  -31.0244  -25.9602   22.8927 C   0  0  0  0  0  0  0  0  0  0  0  0
  -29.6927  -24.1036   22.1075 C   0  0  0  0  0  0  0  0  0  0  0  0
  -23.4932  -20.2113   21.3713 C   0  0  0  0  0  0  0  0  0  0  0  0
  -29.8705  -23.1840   25.3561 C   0  0  0  0  0  0  0  0  0  0  0  0
  -29.1871  -22.2237   26.1021 C   0  0  0  0  0  0  0  0  0  0  0  0
  -25.8223  -20.3099   21.9917 C   0  0  0  0  0  0  0  0  0  0  0  0
  -20.6254  -25.5621   21.9675 C   0  0  0  0  0  0  0  0  0  0  0  0
  -18.7665  -27.0979   21.8172 C   0  0  0  0  0  0  0  0  0  0  0  0
  -18.7767  -25.3758   23.5118 C   0  0  0  0  0  0  0  0  0  0  0  0
  -30.3575  -20.4720   24.9194 C   0  0  0  0  0  0  0  0  0  0  0  0
  -29.2231  -26.3418   21.3285 C   0  0  0  0  0  0  0  0  0  0  0  0
  -28.6898  -27.6275   19.1907 C   0  0  0  0  0  0  0  0  0  0  0  0
  -23.4337  -12.3428   20.6445 C   0  0  0  0  0  0  0  0  0  0  0  0
  -25.1040  -18.7650   20.2721 C   0  0  0  0  0  0  0  0  0  0  0  0
  -23.8275  -13.5518   21.2492 C   0  0  0  0  0  0  0  0  0  0  0  0
  -26.1324  -19.3194   21.0474 C   0  0  0  0  0  0  0  0  0  0  0  0
  -20.0023  -26.6480   21.3526 C   0  0  0  0  0  0  0  0  0  0  0  0
  -20.0126  -24.9259   23.0471 C   0  0  0  0  0  0  0  0  0  0  0  0
  -30.7370  -24.5953   22.8906 C   0  0  0  0  0  0  0  0  0  0  0  0
  -24.5095  -20.7519   22.1536 C   0  0  0  0  0  0  0  0  0  0  0  0
  -30.7973  -22.7882   24.3917 C   0  0  0  0  0  0  0  0  0  0  0  0
  -29.4306  -20.8677   25.8838 C   0  0  0  0  0  0  0  0  0  0  0  0
  -18.1536  -26.4618   22.8968 C   0  0  0  0  0  0  0  0  0  0  0  0
  -31.0409  -21.4323   24.1734 C   0  0  0  0  0  0  0  0  0  0  0  0
  -28.4405  -27.2435   20.5219 C   0  0  0  0  0  0  0  0  0  0  0  0
  -27.6659  -28.4903   18.8847 C   0  0  0  0  0  0  0  0  0  0  0  0
  -29.7519  -27.2389   18.3094 C   0  0  0  0  0  0  0  0  0  0  0  0
  -22.1980  -22.0954   24.2359 C   0  0  0  0  0  0  0  0  0  0  0  0
  -23.3432  -21.4085   24.0718 C   0  0  0  0  0  0  0  0  0  1  0  0
  -21.8655  -23.2516   23.3380 C   0  0  0  0  0  0  0  0  0  0  0  0
  -26.5592  -15.9619   20.6310 C   0  0  0  0  0  0  0  0  0  0  0  0
  -29.0938  -17.5586   19.3864 C   0  0  0  0  0  0  0  0  0  0  0  0
  -30.6484  -20.5460   18.8338 C   0  0  0  0  0  0  0  0  0  0  0  0
  -22.1160  -29.1561   21.0310 C   0  0  0  0  0  0  0  0  0  0  0  0
  -24.4434  -11.3424   20.1401 C   0  0  0  0  0  0  0  0  0  0  0  0
  -25.4107  -17.7194   19.2352 C   0  0  0  0  0  0  0  0  0  0  0  0
  -27.5639  -18.8747   20.9007 C   0  0  0  0  0  0  0  0  0  0  0  0
  -25.8382  -11.9309   19.9435 C   0  0  0  0  0  0  0  0  0  0  0  0
  -24.6780  -31.6259   20.9172 C   0  0  0  0  0  0  0  0  0  0  0  0
  -26.2402  -12.7671   21.1542 C   0  0  0  0  0  0  0  0  0  0  0  0
  -25.9553  -30.8175   20.6829 C   0  0  0  0  0  0  0  0  0  0  0  0
  -23.7005  -30.8856   21.8275 C   0  0  0  0  0  0  0  0  0  0  0  0
  -24.6419  -28.7085   21.1583 C   0  0  0  0  0  0  0  0  0  0  0  0
  -25.2840  -13.9499   21.3498 C   0  0  1  0  0  0  0  0  0  0  0  0
  -26.7034  -16.9597   19.5169 C   0  0  1  0  0  0  0  0  0  0  0  0
  -25.6348  -29.3898   20.2010 C   0  0  2  0  0  0  0  0  0  0  0  0
  -23.7546  -20.2508   24.9340 C   0  0  0  0  0  0  0  0  0  0  0  0
  -32.7252  -21.5290   17.8250 C   0  0  0  0  0  0  0  0  0  0  0  0
  -30.7028  -16.6410   21.8111 C   0  0  0  0  0  0  0  0  0  0  0  0
  -32.4093  -18.3854   21.2514 C   0  0  0  0  0  0  0  0  0  0  0  0
  -31.9394  -16.5404   19.6396 C   0  0  0  0  0  0  0  0  0  0  0  0
  -29.0901  -22.1134   16.8655 C   0  0  0  0  0  0  0  0  0  0  0  0
  -20.6574  -27.3289   20.1986 C   0  0  0  0  0  0  0  0  0  0  0  0
  -30.2284  -18.3745   19.9574 C   0  0  1  0  0  0  0  0  0  0  0  0
  -31.2748  -21.1397   17.5850 C   0  0  2  0  0  0  0  0  0  0  0  0
  -31.2928  -17.4926   20.6692 C   0  0  0  0  0  0  0  0  0  0  0  0
  -27.3443  -27.8157   21.0269 N   0  0  0  0  0  0  0  0  0  0  0  0
  -26.8957  -28.5680   20.0077 N   0  0  0  0  0  0  0  0  0  0  0  0
  -27.8123  -17.8454   19.8778 N   0  0  0  0  0  0  0  0  0  0  0  0
  -23.4375  -29.5392   21.3137 N   0  0  0  0  0  0  0  0  0  0  0  0
  -27.3583  -29.1826   17.7674 N   0  0  0  0  0  0  0  0  0  0  0  0
  -30.7205  -26.3441   18.7844 N   0  0  0  0  0  0  0  0  0  0  0  0
  -20.6449  -23.8231   23.6716 N   0  0  0  0  0  0  0  0  0  0  0  0
  -25.5869  -15.0058   20.4076 N   0  0  0  0  0  0  0  0  0  0  0  0
  -30.7537  -19.1713   18.8540 N   0  0  0  0  0  0  0  0  0  0  0  0
  -21.9555  -27.8655   20.5417 N   0  0  0  0  0  0  0  0  0  0  0  0
  -30.5264  -22.3556   17.1579 N   0  3  0  0  0  0  0  0  0  0  0  0
  -29.8486  -27.6850   17.1410 O   0  0  0  0  0  0  0  0  0  0  0  0
  -22.6284  -23.5890   22.4397 O   0  0  0  0  0  0  0  0  0  0  0  0
  -27.2780  -16.0518   21.6194 O   0  0  0  0  0  0  0  0  0  0  0  0
  -29.3346  -16.7035   18.5307 O   0  0  0  0  0  0  0  0  0  0  0  0
  -30.1217  -21.2333   19.7061 O   0  0  0  0  0  0  0  0  0  0  0  0
  -21.1513  -29.9102   21.1970 O   0  0  0  0  0  0  0  0  0  0  0  0
  -21.3021  -21.7659   25.2357 O   0  0  0  0  0  0  0  0  0  0  0  0
  -31.4756  -23.7428   23.6524 O   0  0  0  0  0  0  0  0  0  0  0  0
  -24.2235  -21.7144   23.0722 O   0  0  0  0  0  0  0  0  0  1  0  0
  -28.7754  -19.9458   26.6013 F   0  0  0  0  0  0  0  0  0  0  0  0
  -16.9669  -26.8939   23.3430 F   0  0  0  0  0  0  0  0  0  0  0  0
  -31.9311  -21.0460   23.2492 F   0  0  0  0  0  0  0  0  0  0  0  0
  1  2  1  0  0  0  0
  1  5  2  0  0  0  0
  2  6  2  0  0  0  0
  3  8  2  0  0  0  0
  3 18  1  0  0  0  0
  4  9  1  0  0  0  0
  4 18  2  0  0  0  0
  5 20  1  0  0  0  0
  6 22  1  0  0  0  0
  7 10  2  0  0  0  0
  7 21  1  0  0  0  0
  8 26  1  0  0  0  0
  9 26  2  0  0  0  0
 10 27  1  0  0  0  0
 11 12  2  0  0  0  0
 11 28  1  0  0  0  0
 12 29  1  0  0  0  0
 13 23  1  0  0  0  0
 13 27  2  0  0  0  0
 14 24  1  0  0  0  0
 14 25  2  0  0  0  0
 15 24  2  0  0  0  0
 15 30  1  0  0  0  0
 16 25  1  0  0  0  0
 16 30  2  0  0  0  0
 17 29  2  0  0  0  0
 17 31  1  0  0  0  0
 18 32  1  0  0  0  0
 19 32  1  0  0  0  0
 19 33  2  0  0  0  0
 19 34  1  0  0  0  0
 20 22  2  0  0  0  0
 20 42  1  0  0  0  0
 21 23  2  0  0  0  0
 21 43  1  0  0  0  0
 22 51  1  0  0  0  0
 23 44  1  0  0  0  0
 24 60  1  0  0  0  0
 25 70  1  0  0  0  0
 26 82  1  0  0  0  0
 27 83  1  0  0  0  0
 28 31  2  0  0  0  0
 28 82  1  0  0  0  0
 29 84  1  0  0  0  0
 30 85  1  0  0  0  0
 31 86  1  0  0  0  0
 32 64  2  0  0  0  0
 33 65  1  0  0  0  0
 33 68  1  0  0  0  0
 34 69  1  0  0  0  0
 34 75  2  0  0  0  0
 35 36  2  0  0  0  0
 35 37  1  0  0  0  0
 35 81  1  0  0  0  0
 36 54  1  0  0  0  0
 36 83  1  0  0  0  0
 37 70  1  0  0  0  0
 37 76  2  0  0  0  0
 38 52  1  0  0  0  0
 38 71  1  0  0  0  0
 38 77  2  0  0  0  0
 39 61  1  0  0  0  0
 39 66  1  0  0  0  0
 39 78  2  0  0  0  0
 40 62  1  0  0  0  0
 40 72  1  0  0  0  0
 40 79  2  0  0  0  0
 41 67  1  0  0  0  0
 41 73  1  0  0  0  0
 41 80  2  0  0  0  0
 42 45  1  0  0  0  0
 43 52  1  0  0  0  0
 44 66  1  0  0  0  0
 45 47  1  0  0  0  0
 46 48  1  0  0  0  0
 46 49  1  0  0  0  0
 47 51  1  0  0  0  0
 48 53  1  0  0  0  0
 49 67  1  0  0  0  0
 50 53  1  0  0  0  0
 50 67  1  0  0  0  0
 51 71  1  0  0  0  0
 52 66  1  0  0  0  0
 53 65  1  0  0  0  0
 55 62  1  0  0  0  0
 56 63  1  0  0  0  0
 57 63  1  0  0  0  0
 58 63  1  0  0  0  0
 59 74  1  0  0  0  0
 60 73  1  0  0  0  0
 61 63  1  0  0  0  0
 61 72  1  0  0  0  0
 62 74  1  0  0  0  0
 64 65  1  0  0  0  0
M  CHG  1  74   1
M  ISO  4  36 101  41 100  73 100  83 101
M  END
> <Batch ID>
0176

> <Smiles>
CNC(C)C(=O)NC(C(=O)N1Cc2cc([101O:1][101CH:1](C)C(=O)C(=O)Nc3cc(F)cc(C[100NH:0][100C:0](=O)N4CCCC(n5nc(-c6ccc(Oc7ccc(F)cc7F)cc6)c(C(N)=O)c5N)C4)c3)ccc2CC1C(=O)NC1CCCc2ccccc21)C(C)(C)C

> <Shape>
0.226

> <Color>
0.060

> <Negative vol penalty>
0.000

$$$$

  -OEChem-04052304383D

 87 95  0     1  0  0  0  0  0999 V2000
  -23.1457  -37.8666   18.7533 C   0  0  0  0  0  0  0  0  0  0  0  0
  -23.5014  -36.7169   18.0554 C   0  0  0  0  0  0  0  0  0  0  0  0
  -25.4921  -10.4217   18.0415 C   0  0  0  0  0  0  0  0  0  0  0  0
  -27.6793  -10.8703   18.9645 C   0  0  0  0  0  0  0  0  0  0  0  0
  -23.5987  -38.0568   20.0582 C   0  0  0  0  0  0  0  0  0  0  0  0
  -24.3112  -35.7572   18.6617 C   0  0  0  0  0  0  0  0  0  0  0  0
  -25.4179  -28.6814   18.8225 C   0  0  0  0  0  0  0  0  0  0  0  0
  -26.0715   -9.6197   17.0583 C   0  0  0  0  0  0  0  0  0  0  0  0
  -28.2588  -10.0682   17.9813 C   0  0  0  0  0  0  0  0  0  0  0  0
  -26.4449  -27.7485   18.6857 C   0  0  0  0  0  0  0  0  0  0  0  0
  -29.0879  -10.3388   14.7148 C   0  0  0  0  0  0  0  0  0  0  0  0
  -30.2243  -10.8250   14.0685 C   0  0  0  0  0  0  0  0  0  0  0  0
  -27.1030  -28.1467   20.9720 C   0  0  0  0  0  0  0  0  0  0  0  0
  -28.4367  -20.0718   21.0937 C   0  0  0  0  0  0  0  0  0  0  0  0
  -31.4846   -8.9175   14.8497 C   0  0  0  0  0  0  0  0  0  0  0  0
  -26.2961  -11.0470   18.9946 C   0  0  0  0  0  0  0  0  0  0  0  0
  -30.7884  -18.9139   22.0484 C   0  0  0  0  0  0  0  0  0  0  0  0
  -25.2454  -11.4713   21.2802 C   0  0  0  0  0  0  0  0  0  0  0  0
  -24.4065  -37.0944   20.6841 C   0  0  0  0  0  0  0  0  0  0  0  0
  -25.2322  -29.3631   20.0338 C   0  0  0  0  0  0  0  0  0  0  0  0
  -24.7764  -35.9353   19.9756 C   0  0  0  0  0  0  0  0  0  0  0  0
  -26.0714  -29.0859   21.1225 C   0  0  0  0  0  0  0  0  0  0  0  0
  -29.6135  -20.8191   21.1391 C   0  0  0  0  0  0  0  0  0  0  0  0
  -28.4356  -18.7455   21.5258 C   0  0  0  0  0  0  0  0  0  0  0  0
  -27.4548   -9.4429   17.0282 C   0  0  0  0  0  0  0  0  0  0  0  0
  -27.2895  -27.4831   19.7596 C   0  0  0  0  0  0  0  0  0  0  0  0
  -29.1498   -9.1420   15.4286 C   0  0  0  0  0  0  0  0  0  0  0  0
  -31.4227  -10.1143   14.1359 C   0  0  0  0  0  0  0  0  0  0  0  0
  -30.3482   -8.4313   15.4960 C   0  0  0  0  0  0  0  0  0  0  0  0
  -30.7894  -20.2402   21.6164 C   0  0  0  0  0  0  0  0  0  0  0  0
  -29.6114  -18.1665   22.0031 C   0  0  0  0  0  0  0  0  0  0  0  0
  -25.6982  -11.8761   20.0101 C   0  0  0  0  0  0  0  0  0  0  0  0
  -24.7669  -12.6223   21.8570 C   0  0  0  0  0  0  0  0  0  0  0  0
  -32.0152  -18.3106   22.5457 C   0  0  0  0  0  0  0  0  0  0  0  0
  -28.0236  -25.2694   19.9357 C   0  0  0  0  0  0  0  0  0  1  0  0
  -25.2565  -10.1712   21.8845 C   0  0  0  0  0  0  0  0  0  0  0  0
  -28.9343  -24.2928   19.8432 C   0  0  0  0  0  0  0  0  0  0  0  0
  -28.5381  -22.8922   20.2029 C   0  0  0  0  0  0  0  0  0  0  0  0
  -25.3371  -32.4105   20.9318 C   0  0  0  0  0  0  0  0  0  0  0  0
  -24.2874  -31.2093   23.7563 C   0  0  0  0  0  0  0  0  0  0  0  0
  -24.0479  -28.5286   25.8546 C   0  0  0  0  0  0  0  0  0  0  0  0
  -25.9873  -18.4135   21.0340 C   0  0  0  0  0  0  0  0  0  0  0  0
  -24.9107  -37.3662   22.0793 C   0  0  0  0  0  0  0  0  0  0  0  0
  -24.1031  -30.3469   20.1736 C   0  0  0  0  0  0  0  0  0  0  0  0
  -25.9015  -29.7758   22.4505 C   0  0  0  0  0  0  0  0  0  0  0  0
  -25.4568  -36.1259   22.7820 C   0  0  0  0  0  0  0  0  0  0  0  0
  -22.8068  -16.8429   20.7259 C   0  0  0  0  0  0  0  0  0  0  0  0
  -26.3838  -35.3499   21.8517 C   0  0  0  0  0  0  0  0  0  0  0  0
  -23.1458  -15.3536   20.6291 C   0  0  0  0  0  0  0  0  0  0  0  0
  -23.8388  -17.7075   20.0040 C   0  0  0  0  0  0  0  0  0  0  0  0
  -25.5719  -15.9824   20.3039 C   0  0  0  0  0  0  0  0  0  0  0  0
  -25.6329  -34.8596   20.6078 C   0  0  1  0  0  0  0  0  0  0  0  0
  -24.3271  -31.3585   21.2934 C   0  0  1  0  0  0  0  0  0  0  0  0
  -24.5959  -15.0758   21.0715 C   0  0  2  0  0  0  0  0  0  0  0  0
  -23.1671  -27.8636   28.1083 C   0  0  0  0  0  0  0  0  0  0  0  0
  -26.6330  -32.6334   25.0905 C   0  0  0  0  0  0  0  0  0  0  0  0
  -26.2680  -31.1960   27.1076 C   0  0  0  0  0  0  0  0  0  0  0  0
  -24.4788  -32.7624   26.3542 C   0  0  0  0  0  0  0  0  0  0  0  0
  -22.2202  -26.5210   24.6766 C   0  0  0  0  0  0  0  0  0  0  0  0
  -24.9499  -30.6774   25.0041 C   0  0  1  0  0  0  0  0  0  0  0  0
  -22.8711  -27.9498   26.6192 C   0  0  2  0  0  0  0  0  0  0  0  0
  -25.5871  -31.8056   25.8636 C   0  0  0  0  0  0  0  0  0  0  0  0
  -25.5228  -13.1821   19.7923 N   0  0  0  0  0  0  0  0  0  0  0  0
  -32.0906  -17.0824   22.9643 N   0  0  0  0  0  0  0  0  0  0  0  0
  -24.9544  -13.6080   20.9332 N   0  0  0  0  0  0  0  0  0  0  0  0
  -24.7870  -30.7340   22.5355 N   0  0  0  0  0  0  0  0  0  0  0  0
  -25.1885  -17.3923   20.4773 N   0  0  0  0  0  0  0  0  0  0  0  0
  -24.2080  -12.8772   23.0591 N   0  0  0  0  0  0  0  0  0  0  0  0
  -25.7845   -9.0987   21.1527 N   0  0  0  0  0  0  0  0  0  0  0  0
  -29.6109  -22.1652   20.7003 N   0  0  0  0  0  0  0  0  0  0  0  0
  -27.2386  -17.9886   21.4791 N   0  0  0  0  0  0  0  0  0  0  0  0
  -24.8324  -33.6968   20.9263 N   0  0  0  0  0  0  0  0  0  0  0  0
  -23.9361  -29.8945   25.7024 N   0  0  0  0  0  0  0  0  0  0  0  0
  -22.5539  -26.5808   26.1230 N   0  3  0  0  0  0  0  0  0  0  0  0
  -24.7965   -9.9634   23.0328 O   0  0  0  0  0  0  0  0  0  0  0  0
  -27.3849  -22.5044   20.0489 O   0  0  0  0  0  0  0  0  0  0  0  0
  -26.4895  -32.0798   20.6780 O   0  0  0  0  0  0  0  0  0  0  0  0
  -23.3560  -32.0114   23.8610 O   0  0  0  0  0  0  0  0  0  0  0  0
  -24.9756  -27.8386   25.4376 O   0  0  0  0  0  0  0  0  0  0  0  0
  -25.5800  -19.5737   21.1349 O   0  0  0  0  0  0  0  0  0  0  0  0
  -30.2298  -24.5232   19.4270 O   0  0  0  0  0  0  0  0  0  0  0  0
  -28.0205   -8.6602   16.0691 O   0  0  0  0  0  0  0  0  0  0  0  0
  -28.2931  -26.5735   19.6285 O   0  0  0  0  0  0  0  0  0  1  0  0
  -32.5135  -10.5806   13.5139 F   0  0  0  0  0  0  0  0  0  0  0  0
  -30.4136   -7.2804   16.1793 F   0  0  0  0  0  0  0  0  0  0  0  0
  -31.9213  -20.9594   21.6598 F   0  0  0  0  0  0  0  0  0  0  0  0
  -29.6106  -16.8907   22.4189 F   0  0  0  0  0  0  0  0  0  0  0  0
  1  2  1  0  0  0  0
  1  5  2  0  0  0  0
  2  6  2  0  0  0  0
  3  8  2  0  0  0  0
  3 16  1  0  0  0  0
  4  9  1  0  0  0  0
  4 16  2  0  0  0  0
  5 19  1  0  0  0  0
  6 21  1  0  0  0  0
  7 10  2  0  0  0  0
  7 20  1  0  0  0  0
  8 25  1  0  0  0  0
  9 25  2  0  0  0  0
 10 26  1  0  0  0  0
 11 12  2  0  0  0  0
 11 27  1  0  0  0  0
 12 28  1  0  0  0  0
 13 22  1  0  0  0  0
 13 26  2  0  0  0  0
 14 23  1  0  0  0  0
 14 24  2  0  0  0  0
 15 28  2  0  0  0  0
 15 29  1  0  0  0  0
 16 32  1  0  0  0  0
 17 30  1  0  0  0  0
 17 31  2  0  0  0  0
 17 34  1  0  0  0  0
 18 32  1  0  0  0  0
 18 33  2  0  0  0  0
 18 36  1  0  0  0  0
 19 21  2  0  0  0  0
 19 43  1  0  0  0  0
 20 22  2  0  0  0  0
 20 44  1  0  0  0  0
 21 52  1  0  0  0  0
 22 45  1  0  0  0  0
 23 30  2  0  0  0  0
 23 70  1  0  0  0  0
 24 31  1  0  0  0  0
 24 71  1  0  0  0  0
 25 82  1  0  0  0  0
 26 83  1  0  0  0  0
 27 29  2  0  0  0  0
 27 82  1  0  0  0  0
 28 84  1  0  0  0  0
 29 85  1  0  0  0  0
 30 86  1  0  0  0  0
 31 87  1  0  0  0  0
 32 63  2  0  0  0  0
 33 65  1  0  0  0  0
 33 68  1  0  0  0  0
 34 64  2  0  0  0  0
 35 37  2  0  0  0  0
 35 83  1  0  0  0  0
 36 69  1  0  0  0  0
 36 75  2  0  0  0  0
 37 38  1  0  0  0  0
 37 81  1  0  0  0  0
 38 70  1  0  0  0  0
 38 76  2  0  0  0  0
 39 53  1  0  0  0  0
 39 72  1  0  0  0  0
 39 77  2  0  0  0  0
 40 60  1  0  0  0  0
 40 66  1  0  0  0  0
 40 78  2  0  0  0  0
 41 61  1  0  0  0  0
 41 73  1  0  0  0  0
 41 79  2  0  0  0  0
 42 67  1  0  0  0  0
 42 71  1  0  0  0  0
 42 80  2  0  0  0  0
 43 46  1  0  0  0  0
 44 53  1  0  0  0  0
 45 66  1  0  0  0  0
 46 48  1  0  0  0  0
 47 49  1  0  0  0  0
 47 50  1  0  0  0  0
 48 52  1  0  0  0  0
 49 54  1  0  0  0  0
 50 67  1  0  0  0  0
 51 54  1  0  0  0  0
 51 67  1  0  0  0  0
 52 72  1  0  0  0  0
 53 66  1  0  0  0  0
 54 65  1  0  0  0  0
 55 61  1  0  0  0  0
 56 62  1  0  0  0  0
 57 62  1  0  0  0  0
 58 62  1  0  0  0  0
 59 74  1  0  0  0  0
 60 62  1  0  0  0  0
 60 73  1  0  0  0  0
 61 74  1  0  0  0  0
 63 65  1  0  0  0  0
M  CHG  1  74   1
M  ISO  4  35 101  42 100  71 100  83 101
M  END
> <Batch ID>
0176

> <Smiles>
CNC(C)C(=O)NC(C(=O)N1Cc2cc([101O:1][101CH2:1]C(=O)C(=O)Nc3cc([100NH:0][100C:0](=O)N4CCCC(n5nc(-c6ccc(Oc7ccc(F)cc7F)cc6)c(C(N)=O)c5N)C4)c(F)c(C=N)c3F)ccc2CC1C(=O)NC1CCCc2ccccc21)C(C)(C)C

> <Shape>
0.229

> <Color>
0.087

> <Negative vol penalty>
0.000

$$$$

  -OEChem-04052304383D

 87 95  0     1  0  0  0  0  0999 V2000
  -30.0337   -7.2160   15.9524 C   0  0  0  0  0  0  0  0  0  0  0  0
  -28.8509   -7.8772   16.2670 C   0  0  0  0  0  0  0  0  0  0  0  0
  -25.0980  -30.8267   21.1360 C   0  0  0  0  0  0  0  0  0  0  0  0
  -24.6469  -29.2133   22.8768 C   0  0  0  0  0  0  0  0  0  0  0  0
  -31.1541   -7.3677   16.7683 C   0  0  0  0  0  0  0  0  0  0  0  0
  -28.7874   -8.6897   17.3985 C   0  0  0  0  0  0  0  0  0  0  0  0
  -25.5801  -13.8676   18.0372 C   0  0  0  0  0  0  0  0  0  0  0  0
  -24.4878  -31.8216   21.8998 C   0  0  0  0  0  0  0  0  0  0  0  0
  -24.0367  -30.2082   23.6407 C   0  0  0  0  0  0  0  0  0  0  0  0
  -24.3427  -14.1388   18.6197 C   0  0  0  0  0  0  0  0  0  0  0  0
  -25.2866  -33.7765   24.5405 C   0  0  0  0  0  0  0  0  0  0  0  0
  -25.9353  -35.0073   24.6394 C   0  0  0  0  0  0  0  0  0  0  0  0
  -25.4527  -14.7888   20.6604 C   0  0  0  0  0  0  0  0  0  0  0  0
  -24.0205  -36.0963   23.6471 C   0  0  0  0  0  0  0  0  0  0  0  0
  -25.1775  -29.5226   21.6244 C   0  0  0  0  0  0  0  0  0  0  0  0
  -27.1660  -28.1265   20.8470 C   0  0  0  0  0  0  0  0  0  0  0  0
  -31.1072   -8.1901   17.9049 C   0  0  0  0  0  0  0  0  0  0  0  0
  -26.7644  -14.0450   18.7668 C   0  0  0  0  0  0  0  0  0  0  0  0
  -29.9077   -8.8515   18.2311 C   0  0  0  0  0  0  0  0  0  0  0  0
  -26.7039  -14.5217   20.0841 C   0  0  0  0  0  0  0  0  0  0  0  0
  -23.9571  -31.5123   23.1522 C   0  0  0  0  0  0  0  0  0  0  0  0
  -24.2788  -14.5967   19.9325 C   0  0  0  0  0  0  0  0  0  0  0  0
  -24.0049  -33.7055   23.9948 C   0  0  0  0  0  0  0  0  0  0  0  0
  -25.3023  -36.1672   24.1927 C   0  0  0  0  0  0  0  0  0  0  0  0
  -23.3718  -34.8654   23.5481 C   0  0  0  0  0  0  0  0  0  0  0  0
  -25.8072  -28.4943   20.8356 C   0  0  0  0  0  0  0  0  0  0  0  0
  -22.5861  -19.6958   21.2501 C   0  0  0  0  0  0  0  0  0  0  0  0
  -22.3730  -19.3926   19.9216 C   0  0  0  0  0  0  0  0  0  0  0  0
  -27.2541  -27.1093   19.9283 C   0  0  0  0  0  0  0  0  0  0  0  0
  -22.9772  -21.4880   19.6888 C   0  0  0  0  0  0  0  0  0  0  0  0
  -28.2515  -28.6568   21.6192 C   0  0  0  0  0  0  0  0  0  0  0  0
  -22.4444  -18.8419   22.4708 C   0  0  0  0  0  0  0  0  0  0  0  0
  -29.1106  -12.1313   19.7347 C   0  0  0  0  0  0  0  0  0  0  0  0
  -21.6752  -16.5589   21.5163 C   0  0  0  0  0  0  0  0  0  0  0  0
  -30.4568  -14.9180   20.7063 C   0  0  0  0  0  0  0  0  0  0  0  0
  -30.0257  -18.1673   21.6565 C   0  0  0  0  0  0  0  0  0  0  0  0
  -23.2998  -23.1533   17.8263 C   0  0  0  0  0  0  0  0  0  0  0  0
  -32.3298   -8.2857   18.7828 C   0  0  0  0  0  0  0  0  0  0  0  0
  -28.0926  -13.7735   18.1152 C   0  0  0  0  0  0  0  0  0  0  0  0
  -27.9473  -14.7480   20.9034 C   0  0  0  0  0  0  0  0  0  0  0  0
  -32.2907   -9.4613   19.7558 C   0  0  0  0  0  0  0  0  0  0  0  0
  -25.1893  -25.4935   15.9209 C   0  0  0  0  0  0  0  0  0  0  0  0
  -30.9346   -9.5345   20.4503 C   0  0  0  0  0  0  0  0  0  0  0  0
  -25.6909  -26.4917   16.9668 C   0  0  0  0  0  0  0  0  0  0  0  0
  -23.7775  -25.0025   16.2366 C   0  0  0  0  0  0  0  0  0  0  0  0
  -24.0979  -25.4605   18.6359 C   0  0  0  0  0  0  0  0  0  0  0  0
  -29.8069   -9.7612   19.4362 C   0  0  1  0  0  0  0  0  0  0  0  0
  -29.2066  -13.4993   19.1208 C   0  0  1  0  0  0  0  0  0  0  0  0
  -25.5408  -25.9338   18.3958 C   0  0  2  0  0  0  0  0  0  0  0  0
  -19.5636  -19.2887   23.4667 C   0  0  0  0  0  0  0  0  0  0  0  0
  -20.5825  -15.8280   24.2046 C   0  0  0  0  0  0  0  0  0  0  0  0
  -31.3092  -20.1809   22.4282 C   0  0  0  0  0  0  0  0  0  0  0  0
  -30.7579  -13.6634   23.4713 C   0  0  0  0  0  0  0  0  0  0  0  0
  -31.1382  -15.9591   24.3950 C   0  0  0  0  0  0  0  0  0  0  0  0
  -32.7243  -15.0128   22.7183 C   0  0  0  0  0  0  0  0  0  0  0  0
  -29.1502  -19.7637   19.3232 C   0  0  0  0  0  0  0  0  0  0  0  0
  -23.0357  -15.8818   21.5006 C   0  0  0  0  0  0  0  0  0  1  0  0
  -19.9805  -18.2648   22.4140 C   0  0  0  0  0  0  0  0  0  0  0  0
  -21.5340  -16.9993   23.9629 C   0  0  0  0  0  0  0  0  0  0  0  0
  -30.4200  -15.7386   21.9729 C   0  0  1  0  0  0  0  0  0  0  0  0
  -30.7300  -19.4431   21.2312 C   0  0  2  0  0  0  0  0  0  0  0  0
  -21.4186  -17.6784   22.5581 C   0  0  0  0  0  0  0  0  0  0  0  0
  -31.2364  -15.0874   23.1249 C   0  0  0  0  0  0  0  0  0  0  0  0
  -25.0841  -27.7699   19.9775 N   0  0  0  0  0  0  0  0  0  0  0  0
  -22.5964  -20.4192   19.0249 N   0  0  0  0  0  0  0  0  0  0  0  0
  -25.9920  -26.9367   19.4411 N   0  0  0  0  0  0  0  0  0  0  0  0
  -29.2217  -14.4622   20.2240 N   0  0  0  0  0  0  0  0  0  0  0  0
  -23.7122  -24.4843   17.6048 N   0  0  0  0  0  0  0  0  0  0  0  0
  -28.2874  -26.3547   19.4977 N   0  0  0  0  0  0  0  0  0  0  0  0
  -27.9860  -29.7002   22.5164 N   0  0  0  0  0  0  0  0  0  0  0  0
  -23.3083  -22.7622   19.1648 N   0  0  0  0  0  0  0  0  0  0  0  0
  -29.7702  -11.1476   19.0227 N   0  0  0  0  0  0  0  0  0  0  0  0
  -30.8685  -17.0772   21.6052 N   0  0  0  0  0  0  0  0  0  0  0  0
  -29.7775  -20.3529   20.5342 N   0  3  0  0  0  0  0  0  0  0  0  0
  -29.4253  -28.2294   21.5046 O   0  0  0  0  0  0  0  0  0  0  0  0
  -23.1594  -19.1281   23.4344 O   0  0  0  0  0  0  0  0  0  0  0  0
  -28.4857  -11.9796   20.7778 O   0  0  0  0  0  0  0  0  0  0  0  0
  -20.8233  -16.2627   20.6737 O   0  0  0  0  0  0  0  0  0  0  0  0
  -31.5407  -14.6958   20.1610 O   0  0  0  0  0  0  0  0  0  0  0  0
  -28.8469  -18.1411   22.0033 O   0  0  0  0  0  0  0  0  0  0  0  0
  -22.9900  -22.4064   16.8946 O   0  0  0  0  0  0  0  0  0  0  0  0
  -23.3618  -32.4829   23.8980 O   0  0  0  0  0  0  0  0  0  0  0  0
  -23.0723  -14.8615   20.5037 O   0  0  0  0  0  0  0  0  0  1  0  0
  -25.9248  -37.3493   24.2892 F   0  0  0  0  0  0  0  0  0  0  0  0
  -22.1400  -34.8037   23.0240 F   0  0  0  0  0  0  0  0  0  0  0  0
  -21.9731  -18.1813   19.5187 F   0  0  0  0  0  0  0  0  0  0  0  0
  -23.0886  -21.3292   21.3939 S   0  0  0  0  0  0  0  0  0  0  0  0
  1  2  1  0  0  0  0
  1  5  2  0  0  0  0
  2  6  2  0  0  0  0
  3  8  2  0  0  0  0
  3 15  1  0  0  0  0
  4  9  1  0  0  0  0
  4 15  2  0  0  0  0
  5 17  1  0  0  0  0
  6 19  1  0  0  0  0
  7 10  2  0  0  0  0
  7 18  1  0  0  0  0
  8 21  1  0  0  0  0
  9 21  2  0  0  0  0
 10 22  1  0  0  0  0
 11 12  2  0  0  0  0
 11 23  1  0  0  0  0
 12 24  1  0  0  0  0
 13 20  1  0  0  0  0
 13 22  2  0  0  0  0
 14 24  2  0  0  0  0
 14 25  1  0  0  0  0
 15 26  1  0  0  0  0
 16 26  1  0  0  0  0
 16 29  2  0  0  0  0
 16 31  1  0  0  0  0
 17 19  2  0  0  0  0
 17 38  1  0  0  0  0
 18 20  2  0  0  0  0
 18 39  1  0  0  0  0
 19 47  1  0  0  0  0
 20 40  1  0  0  0  0
 21 82  1  0  0  0  0
 22 83  1  0  0  0  0
 23 25  2  0  0  0  0
 23 82  1  0  0  0  0
 24 84  1  0  0  0  0
 25 85  1  0  0  0  0
 26 64  2  0  0  0  0
 27 28  2  0  0  0  0
 27 32  1  0  0  0  0
 27 87  1  0  0  0  0
 28 65  1  0  0  0  0
 28 86  1  0  0  0  0
 29 66  1  0  0  0  0
 29 69  1  0  0  0  0
 30 65  2  0  0  0  0
 30 71  1  0  0  0  0
 30 87  1  0  0  0  0
 31 70  1  0  0  0  0
 31 75  2  0  0  0  0
 32 62  1  0  0  0  0
 32 76  2  0  0  0  0
 33 48  1  0  0  0  0
 33 72  1  0  0  0  0
 33 77  2  0  0  0  0
 34 57  1  0  0  0  0
 34 62  1  0  0  0  0
 34 78  2  0  0  0  0
 35 60  1  0  0  0  0
 35 67  1  0  0  0  0
 35 79  2  0  0  0  0
 36 61  1  0  0  0  0
 36 73  1  0  0  0  0
 36 80  2  0  0  0  0
 37 68  1  0  0  0  0
 37 71  1  0  0  0  0
 37 81  2  0  0  0  0
 38 41  1  0  0  0  0
 39 48  1  0  0  0  0
 40 67  1  0  0  0  0
 41 43  1  0  0  0  0
 42 44  1  0  0  0  0
 42 45  1  0  0  0  0
 43 47  1  0  0  0  0
 44 49  1  0  0  0  0
 45 68  1  0  0  0  0
 46 49  1  0  0  0  0
 46 68  1  0  0  0  0
 47 72  1  0  0  0  0
 48 67  1  0  0  0  0
 49 66  1  0  0  0  0
 50 58  1  0  0  0  0
 51 59  1  0  0  0  0
 52 61  1  0  0  0  0
 53 63  1  0  0  0  0
 54 63  1  0  0  0  0
 55 63  1  0  0  0  0
 56 74  1  0  0  0  0
 57 83  1  0  0  0  0
 58 62  1  0  0  0  0
 59 62  1  0  0  0  0
 60 63  1  0  0  0  0
 60 73  1  0  0  0  0
 61 74  1  0  0  0  0
 64 66  1  0  0  0  0
M  CHG  1  74   1
M  ISO  4  37 100  57 101  71 100  83 101
M  END
> <Batch ID>
0176

> <Smiles>
CCC(CC)(C(=O)c1sc([100NH:0][100C:0](=O)N2CCCC(n3nc(-c4ccc(Oc5ccc(F)cc5F)cc4)c(C(N)=O)c3N)C2)nc1F)C(=O)[101CH2:1][101O:1]c1ccc2c(c1)CN(C(=O)C(NC(=O)C(C)NC)C(C)(C)C)C(C(=O)NC1CCCc3ccccc31)C2

> <Shape>
0.224

> <Color>
0.070

> <Negative vol penalty>
0.000

$$$$

  -OEChem-04052304383D

 85 93  0     1  0  0  0  0  0999 V2000
  -28.9828  -11.5251   18.8392 C   0  0  0  0  0  0  0  0  0  0  0  0
  -27.9711  -12.4785   18.7847 C   0  0  0  0  0  0  0  0  0  0  0  0
  -25.2674  -28.0091   19.2957 C   0  0  0  0  0  0  0  0  0  0  0  0
  -26.1361  -28.1057   21.5481 C   0  0  0  0  0  0  0  0  0  0  0  0
  -30.0899  -11.7315   19.6611 C   0  0  0  0  0  0  0  0  0  0  0  0
  -28.0655  -13.6384   19.5529 C   0  0  0  0  0  0  0  0  0  0  0  0
  -26.8354  -17.8014   16.9451 C   0  0  0  0  0  0  0  0  0  0  0  0
  -26.3348  -28.7889   18.8506 C   0  0  0  0  0  0  0  0  0  0  0  0
  -27.2036  -28.8854   21.1030 C   0  0  0  0  0  0  0  0  0  0  0  0
  -25.4781  -18.0513   16.7478 C   0  0  0  0  0  0  0  0  0  0  0  0
  -27.7526  -32.1166   20.2731 C   0  0  0  0  0  0  0  0  0  0  0  0
  -28.0952  -33.2381   21.0284 C   0  0  0  0  0  0  0  0  0  0  0  0
  -25.5141  -19.6445   18.5587 C   0  0  0  0  0  0  0  0  0  0  0  0
  -30.3050  -32.3267   21.3793 C   0  0  0  0  0  0  0  0  0  0  0  0
  -16.6113  -20.9660   18.7605 C   0  0  0  0  0  0  0  0  0  0  0  0
  -25.1680  -27.6675   20.6445 C   0  0  0  0  0  0  0  0  0  0  0  0
  -24.0133  -25.4581   21.1855 C   0  0  0  0  0  0  0  0  0  0  0  0
  -30.2025  -12.8989   20.4325 C   0  0  0  0  0  0  0  0  0  0  0  0
  -27.5410  -18.4644   17.9596 C   0  0  0  0  0  0  0  0  0  0  0  0
  -29.1745  -13.8599   20.3870 C   0  0  0  0  0  0  0  0  0  0  0  0
  -26.8810  -19.4032   18.7652 C   0  0  0  0  0  0  0  0  0  0  0  0
  -27.3029  -29.2270   19.7542 C   0  0  0  0  0  0  0  0  0  0  0  0
  -24.8165  -18.9708   17.5565 C   0  0  0  0  0  0  0  0  0  0  0  0
  -28.6862  -31.1001   20.0709 C   0  0  0  0  0  0  0  0  0  0  0  0
  -29.3714  -33.3431   21.5815 C   0  0  0  0  0  0  0  0  0  0  0  0
  -29.9624  -31.2052   20.6240 C   0  0  0  0  0  0  0  0  0  0  0  0
  -15.8542  -21.9099   19.4947 C   0  0  0  0  0  0  0  0  0  0  0  0
  -24.0652  -26.8626   21.1051 C   0  0  0  0  0  0  0  0  0  0  0  0
  -16.7319  -22.9053   19.8565 C   0  0  0  0  0  0  0  0  0  0  0  0
  -22.7610  -25.1886   21.6809 C   0  0  0  0  0  0  0  0  0  0  0  0
  -17.8976  -21.4520   18.7257 C   0  0  0  0  0  0  0  0  0  0  0  0
  -16.5366  -24.1470   20.6258 C   0  0  0  0  0  0  0  0  0  0  0  0
  -25.0082  -24.4841   20.8430 C   0  0  0  0  0  0  0  0  0  0  0  0
  -20.6135  -19.5545   16.9421 C   0  0  0  0  0  0  0  0  0  0  0  0
  -19.2056  -19.7744   17.4153 C   0  0  0  0  0  0  0  0  0  0  0  0
  -29.0978  -17.5493   20.5755 C   0  0  0  0  0  0  0  0  0  0  0  0
  -29.9079  -20.6870   20.7192 C   0  0  0  0  0  0  0  0  0  0  0  0
  -29.4303  -23.5361   19.4683 C   0  0  0  0  0  0  0  0  0  0  0  0
  -17.2563  -26.1066   21.5917 C   0  0  0  0  0  0  0  0  0  0  0  0
  -31.3954  -13.0558   21.3420 C   0  0  0  0  0  0  0  0  0  0  0  0
  -29.0110  -18.2034   18.1423 C   0  0  0  0  0  0  0  0  0  0  0  0
  -27.5977  -20.1564   19.8549 C   0  0  0  0  0  0  0  0  0  0  0  0
  -31.5983  -14.4847   21.8394 C   0  0  0  0  0  0  0  0  0  0  0  0
  -19.2719  -28.2421   23.6851 C   0  0  0  0  0  0  0  0  0  0  0  0
  -30.2777  -15.0736   22.3250 C   0  0  0  0  0  0  0  0  0  0  0  0
  -20.6914  -27.9824   23.1811 C   0  0  0  0  0  0  0  0  0  0  0  0
  -18.2548  -28.1825   22.5496 C   0  0  0  0  0  0  0  0  0  0  0  0
  -19.7143  -26.6439   21.2645 C   0  0  0  0  0  0  0  0  0  0  0  0
  -29.2525  -15.1423   21.1866 C   0  0  1  0  0  0  0  0  0  0  0  0
  -29.5114  -18.5561   19.5396 C   0  0  1  0  0  0  0  0  0  0  0  0
  -20.7644  -26.6652   22.3884 C   0  0  1  0  0  0  0  0  0  0  0  0
  -29.6011  -26.0395   19.4299 C   0  0  0  0  0  0  0  0  0  0  0  0
  -28.8343  -20.7045   23.5753 C   0  0  0  0  0  0  0  0  0  0  0  0
  -28.8011  -23.2058   23.4733 C   0  0  0  0  0  0  0  0  0  0  0  0
  -30.9618  -21.9789   23.2527 C   0  0  0  0  0  0  0  0  0  0  0  0
  -30.9111  -23.5116   16.9060 C   0  0  0  0  0  0  0  0  0  0  0  0
  -21.2783  -18.2701   17.3861 C   0  0  0  0  0  0  0  0  0  0  0  0
  -22.6991  -18.1440   16.8573 C   0  0  0  0  0  0  0  0  0  1  0  0
  -29.3026  -21.9198   21.3460 C   0  0  1  0  0  0  0  0  0  0  0  0
  -30.2282  -24.7303   18.9766 C   0  0  2  0  0  0  0  0  0  0  0  0
  -29.4608  -21.9368   22.8926 C   0  0  0  0  0  0  0  0  0  0  0  0
  -22.9356  -27.4447   21.5163 N   0  0  0  0  0  0  0  0  0  0  0  0
  -17.5124  -24.9614   20.8622 N   0  0  0  0  0  0  0  0  0  0  0  0
  -22.1621  -26.4008   21.8598 N   0  0  0  0  0  0  0  0  0  0  0  0
  -29.0331  -19.8618   19.9984 N   0  0  0  0  0  0  0  0  0  0  0  0
  -18.3768  -26.9320   21.7991 N   0  0  0  0  0  0  0  0  0  0  0  0
  -22.1246  -24.0353   21.9766 N   0  0  0  0  0  0  0  0  0  0  0  0
  -26.2401  -24.9330   20.3479 N   0  0  0  0  0  0  0  0  0  0  0  0
  -19.0778  -20.9419   18.1364 N   0  0  0  0  0  0  0  0  0  0  0  0
  -29.5365  -16.2645   20.3179 N   0  0  0  0  0  0  0  0  0  0  0  0
  -29.9102  -23.0613   20.6706 N   0  0  0  0  0  0  0  0  0  0  0  0
  -30.2943  -24.7315   17.4877 N   0  3  0  0  0  0  0  0  0  0  0  0
  -24.8047  -23.2516   20.9569 O   0  0  0  0  0  0  0  0  0  0  0  0
  -21.1060  -20.4175   16.2313 O   0  0  0  0  0  0  0  0  0  0  0  0
  -18.3825  -18.9353   17.0893 O   0  0  0  0  0  0  0  0  0  0  0  0
  -28.4314  -17.9116   21.5379 O   0  0  0  0  0  0  0  0  0  0  0  0
  -31.1139  -20.4681   20.8578 O   0  0  0  0  0  0  0  0  0  0  0  0
  -28.4744  -23.0733   18.8498 O   0  0  0  0  0  0  0  0  0  0  0  0
  -16.1440  -26.4071   22.0317 O   0  0  0  0  0  0  0  0  0  0  0  0
  -17.9795  -22.6338   19.3915 O   0  0  0  0  0  0  0  0  0  0  0  0
  -28.3448  -29.9877   19.3202 O   0  0  0  0  0  0  0  0  0  0  0  0
  -23.4916  -19.2160   17.3664 O   0  0  0  0  0  0  0  0  0  1  0  0
  -29.7007  -34.4209   22.3055 F   0  0  0  0  0  0  0  0  0  0  0  0
  -30.8639  -30.2324   20.4322 F   0  0  0  0  0  0  0  0  0  0  0  0
  -14.5562  -21.8450   19.7769 F   0  0  0  0  0  0  0  0  0  0  0  0
  1  2  1  0  0  0  0
  1  5  2  0  0  0  0
  2  6  2  0  0  0  0
  3  8  2  0  0  0  0
  3 16  1  0  0  0  0
  4  9  1  0  0  0  0
  4 16  2  0  0  0  0
  5 18  1  0  0  0  0
  6 20  1  0  0  0  0
  7 10  2  0  0  0  0
  7 19  1  0  0  0  0
  8 22  1  0  0  0  0
  9 22  2  0  0  0  0
 10 23  1  0  0  0  0
 11 12  2  0  0  0  0
 11 24  1  0  0  0  0
 12 25  1  0  0  0  0
 13 21  1  0  0  0  0
 13 23  2  0  0  0  0
 14 25  2  0  0  0  0
 14 26  1  0  0  0  0
 15 27  1  0  0  0  0
 15 31  2  0  0  0  0
 16 28  1  0  0  0  0
 17 28  1  0  0  0  0
 17 30  2  0  0  0  0
 17 33  1  0  0  0  0
 18 20  2  0  0  0  0
 18 40  1  0  0  0  0
 19 21  2  0  0  0  0
 19 41  1  0  0  0  0
 20 49  1  0  0  0  0
 21 42  1  0  0  0  0
 22 81  1  0  0  0  0
 23 82  1  0  0  0  0
 24 26  2  0  0  0  0
 24 81  1  0  0  0  0
 25 83  1  0  0  0  0
 26 84  1  0  0  0  0
 27 29  2  0  0  0  0
 27 85  1  0  0  0  0
 28 62  2  0  0  0  0
 29 32  1  0  0  0  0
 29 80  1  0  0  0  0
 30 64  1  0  0  0  0
 30 67  1  0  0  0  0
 31 69  1  0  0  0  0
 31 80  1  0  0  0  0
 32 63  2  0  0  0  0
 33 68  1  0  0  0  0
 33 73  2  0  0  0  0
 34 35  1  0  0  0  0
 34 57  1  0  0  0  0
 34 74  2  0  0  0  0
 35 69  1  0  0  0  0
 35 75  2  0  0  0  0
 36 50  1  0  0  0  0
 36 70  1  0  0  0  0
 36 76  2  0  0  0  0
 37 59  1  0  0  0  0
 37 65  1  0  0  0  0
 37 77  2  0  0  0  0
 38 60  1  0  0  0  0
 38 71  1  0  0  0  0
 38 78  2  0  0  0  0
 39 63  1  0  0  0  0
 39 66  1  0  0  0  0
 39 79  2  0  0  0  0
 40 43  1  0  0  0  0
 41 50  1  0  0  0  0
 42 65  1  0  0  0  0
 43 45  1  0  0  0  0
 44 46  1  0  0  0  0
 44 47  1  0  0  0  0
 45 49  1  0  0  0  0
 46 51  1  0  0  0  0
 47 66  1  0  0  0  0
 48 51  1  0  0  0  0
 48 66  1  0  0  0  0
 49 70  1  0  0  0  0
 50 65  1  0  0  0  0
 51 64  1  0  0  0  0
 52 60  1  0  0  0  0
 53 61  1  0  0  0  0
 54 61  1  0  0  0  0
 55 61  1  0  0  0  0
 56 72  1  0  0  0  0
 57 58  1  0  0  0  0
 58 82  1  0  0  0  0
 59 61  1  0  0  0  0
 59 71  1  0  0  0  0
 60 72  1  0  0  0  0
 62 64  1  0  0  0  0
M  CHG  1  72   1
M  ISO  4  39 100  58 101  63 100  82 101
M  END
> <Batch ID>
0176

> <Smiles>
CNC(C)C(=O)NC(C(=O)N1Cc2cc([101O:1][101CH2:1]CC(=O)C(=O)Nc3cc(F)c(C=[100N:0][100C:0](=O)N4CCCC(n5nc(-c6ccc(Oc7ccc(F)cc7F)cc6)c(C(N)=O)c5N)C4)o3)ccc2CC1C(=O)NC1CCCc2ccccc21)C(C)(C)C

> <Shape>
0.223

> <Color>
0.066

> <Negative vol penalty>
0.000

$$$$

  -OEChem-04052304383D

 87 95  0     1  0  0  0  0  0999 V2000
  -16.5419  -31.2619   21.1793 C   0  0  0  0  0  0  0  0  0  0  0  0
  -17.5535  -30.9235   20.2863 C   0  0  0  0  0  0  0  0  0  0  0  0
  -26.5878  -12.1777   21.7290 C   0  0  0  0  0  0  0  0  0  0  0  0
  -26.0058  -13.5597   19.8347 C   0  0  0  0  0  0  0  0  0  0  0  0
  -16.8608  -31.6262   22.4868 C   0  0  0  0  0  0  0  0  0  0  0  0
  -18.8849  -30.9503   20.7000 C   0  0  0  0  0  0  0  0  0  0  0  0
  -23.3748  -27.1930   18.9029 C   0  0  0  0  0  0  0  0  0  0  0  0
  -25.3056  -11.6286   21.7224 C   0  0  0  0  0  0  0  0  0  0  0  0
  -24.7236  -13.0106   19.8280 C   0  0  0  0  0  0  0  0  0  0  0  0
  -24.3867  -27.3275   17.9533 C   0  0  0  0  0  0  0  0  0  0  0  0
  -22.2993   -9.6009   21.9781 C   0  0  0  0  0  0  0  0  0  0  0  0
  -22.1852   -8.2180   22.1193 C   0  0  0  0  0  0  0  0  0  0  0  0
  -25.9121  -28.0261   19.6866 C   0  0  0  0  0  0  0  0  0  0  0  0
  -29.2464  -22.2486   18.1243 C   0  0  0  0  0  0  0  0  0  0  0  0
  -23.4915   -7.9053   20.1111 C   0  0  0  0  0  0  0  0  0  0  0  0
  -30.4629  -23.3525   19.8443 C   0  0  0  0  0  0  0  0  0  0  0  0
  -26.9379  -13.1432   20.7851 C   0  0  0  0  0  0  0  0  0  0  0  0
  -29.3932  -13.2388   20.0994 C   0  0  0  0  0  0  0  0  0  0  0  0
  -18.1961  -31.6482   22.9195 C   0  0  0  0  0  0  0  0  0  0  0  0
  -23.6214  -27.4850   20.2521 C   0  0  0  0  0  0  0  0  0  0  0  0
  -19.2221  -31.3165   22.0141 C   0  0  0  0  0  0  0  0  0  0  0  0
  -24.9023  -27.8920   20.6517 C   0  0  0  0  0  0  0  0  0  0  0  0
  -29.8728  -23.3987   18.5915 C   0  0  0  0  0  0  0  0  0  0  0  0
  -24.3735  -12.0451   20.7719 C   0  0  0  0  0  0  0  0  0  0  0  0
  -25.6548  -27.7469   18.3446 C   0  0  0  0  0  0  0  0  0  0  0  0
  -23.0093  -10.1361   20.9034 C   0  0  0  0  0  0  0  0  0  0  0  0
  -22.7814   -7.3701   21.1858 C   0  0  0  0  0  0  0  0  0  0  0  0
  -29.2294  -21.1037   18.9130 C   0  0  0  0  0  0  0  0  0  0  0  0
  -23.6055   -9.2883   19.9699 C   0  0  0  0  0  0  0  0  0  0  0  0
  -28.2621  -13.7112   20.7918 C   0  0  0  0  0  0  0  0  0  0  0  0
  -29.8484  -21.1601   20.1513 C   0  0  0  0  0  0  0  0  0  0  0  0
  -30.3929  -14.1194   20.4336 C   0  0  0  0  0  0  0  0  0  0  0  0
  -29.5281  -12.1055   19.2317 C   0  0  0  0  0  0  0  0  0  0  0  0
  -22.4738  -29.5917   22.3374 C   0  0  0  0  0  0  0  0  0  0  0  0
  -28.8415  -27.1447   16.7189 C   0  0  0  0  0  0  0  0  0  0  0  0
  -24.3187  -27.9383   24.4314 C   0  0  0  0  0  0  0  0  0  0  0  0
  -27.0122  -25.9056   24.9413 C   0  0  0  0  0  0  0  0  0  0  0  0
  -30.5039  -25.7957   18.1334 C   0  0  0  0  0  0  0  0  0  0  0  0
  -30.3817  -19.8221   22.2181 C   0  0  0  0  0  0  0  0  0  0  0  0
  -18.4952  -32.0943   24.3288 C   0  0  0  0  0  0  0  0  0  0  0  0
  -22.5264  -27.3091   21.2682 C   0  0  0  0  0  0  0  0  0  0  0  0
  -25.2241  -28.1984   22.0909 C   0  0  0  0  0  0  0  0  0  0  0  0
  -19.9037  -31.7353   24.7953 C   0  0  0  0  0  0  0  0  0  0  0  0
  -31.7788  -17.0486   23.9597 C   0  0  0  0  0  0  0  0  0  0  0  0
  -20.9287  -32.0958   23.7247 C   0  0  0  0  0  0  0  0  0  0  0  0
  -31.1431  -15.8349   23.2779 C   0  0  0  0  0  0  0  0  0  0  0  0
  -30.7994  -18.2160   24.0677 C   0  0  0  0  0  0  0  0  0  0  0  0
  -29.5275  -17.3978   22.1229 C   0  0  0  0  0  0  0  0  0  0  0  0
  -20.6765  -31.3097   22.4324 C   0  0  1  0  0  0  0  0  0  0  0  0
  -22.7503  -28.1282   22.5357 C   0  0  1  0  0  0  0  0  0  0  0  0
  -30.4958  -16.2188   21.9329 C   0  0  2  0  0  0  0  0  0  0  0  0
  -28.2920  -24.7518   26.7657 C   0  0  0  0  0  0  0  0  0  0  0  0
  -31.0451  -28.1436   17.4519 C   0  0  0  0  0  0  0  0  0  0  0  0
  -30.9827  -26.3608   15.7161 C   0  0  0  0  0  0  0  0  0  0  0  0
  -25.5905  -30.5979   25.2179 C   0  0  0  0  0  0  0  0  0  0  0  0
  -27.4508  -29.3113   26.2913 C   0  0  0  0  0  0  0  0  0  0  0  0
  -25.1160  -29.0616   27.1333 C   0  0  0  0  0  0  0  0  0  0  0  0
  -26.4532  -23.2321   23.8017 C   0  0  0  0  0  0  0  0  0  0  0  0
  -27.9822  -27.6594   17.8638 C   0  0  0  0  0  0  0  0  0  1  0  0
  -25.7472  -28.0394   24.9088 C   0  0  1  0  0  0  0  0  0  0  0  0
  -27.1718  -24.6275   25.7447 C   0  0  2  0  0  0  0  0  0  0  0  0
  -30.3263  -26.8508   17.0189 C   0  0  0  0  0  0  0  0  0  0  0  0
  -25.9699  -29.2487   25.8603 C   0  0  0  0  0  0  0  0  0  0  0  0
  -30.4668  -22.2589   20.6391 N   0  0  0  0  0  0  0  0  0  0  0  0
  -28.5185  -14.8067   21.5116 N   0  0  0  0  0  0  0  0  0  0  0  0
  -29.8222  -15.0300   21.2734 N   0  0  0  0  0  0  0  0  0  0  0  0
  -24.1184  -28.0175   23.0459 N   0  0  0  0  0  0  0  0  0  0  0  0
  -30.2292  -18.5261   22.7549 N   0  0  0  0  0  0  0  0  0  0  0  0
  -31.6957  -14.1958   20.0882 N   0  0  0  0  0  0  0  0  0  0  0  0
  -28.4010  -11.3065   18.9960 N   0  0  0  0  0  0  0  0  0  0  0  0
  -29.9070  -24.5792   17.8114 N   0  0  0  0  0  0  0  0  0  0  0  0
  -29.8265  -19.9899   20.9500 N   0  0  0  0  0  0  0  0  0  0  0  0
  -21.1592  -29.9517   22.5645 N   0  0  0  0  0  0  0  0  0  0  0  0
  -26.0726  -26.7460   25.5000 N   0  0  0  0  0  0  0  0  0  0  0  0
  -27.4837  -23.4837   24.8417 N   0  3  0  0  0  0  0  0  0  0  0  0
  -30.6199  -11.8005   18.6946 O   0  0  0  0  0  0  0  0  0  0  0  0
  -23.3860  -30.3392   22.0044 O   0  0  0  0  0  0  0  0  0  0  0  0
  -28.3565  -26.9544   15.6019 O   0  0  0  0  0  0  0  0  0  0  0  0
  -23.4145  -27.7871   25.2568 O   0  0  0  0  0  0  0  0  0  0  0  0
  -27.6591  -26.1370   23.9223 O   0  0  0  0  0  0  0  0  0  0  0  0
  -31.1035  -26.0609   19.1726 O   0  0  0  0  0  0  0  0  0  0  0  0
  -30.9857  -20.7094   22.8262 O   0  0  0  0  0  0  0  0  0  0  0  0
  -23.1223  -11.5094   20.7650 O   0  0  0  0  0  0  0  0  0  0  0  0
  -26.6441  -27.8796   17.4197 O   0  0  0  0  0  0  0  0  0  1  0  0
  -22.6731   -6.0420   21.3223 F   0  0  0  0  0  0  0  0  0  0  0  0
  -28.6276  -19.9897   18.4771 F   0  0  0  0  0  0  0  0  0  0  0  0
  -24.2899   -9.7966   18.9359 F   0  0  0  0  0  0  0  0  0  0  0  0
  1  2  1  0  0  0  0
  1  5  2  0  0  0  0
  2  6  2  0  0  0  0
  3  8  2  0  0  0  0
  3 17  1  0  0  0  0
  4  9  1  0  0  0  0
  4 17  2  0  0  0  0
  5 19  1  0  0  0  0
  6 21  1  0  0  0  0
  7 10  2  0  0  0  0
  7 20  1  0  0  0  0
  8 24  1  0  0  0  0
  9 24  2  0  0  0  0
 10 25  1  0  0  0  0
 11 12  2  0  0  0  0
 11 26  1  0  0  0  0
 12 27  1  0  0  0  0
 13 22  1  0  0  0  0
 13 25  2  0  0  0  0
 14 23  2  0  0  0  0
 14 28  1  0  0  0  0
 15 27  2  0  0  0  0
 15 29  1  0  0  0  0
 16 23  1  0  0  0  0
 16 64  2  0  0  0  0
 17 30  1  0  0  0  0
 18 30  1  0  0  0  0
 18 32  2  0  0  0  0
 18 33  1  0  0  0  0
 19 21  2  0  0  0  0
 19 40  1  0  0  0  0
 20 22  2  0  0  0  0
 20 41  1  0  0  0  0
 21 49  1  0  0  0  0
 22 42  1  0  0  0  0
 23 71  1  0  0  0  0
 24 83  1  0  0  0  0
 25 84  1  0  0  0  0
 26 29  2  0  0  0  0
 26 83  1  0  0  0  0
 27 85  1  0  0  0  0
 28 31  2  0  0  0  0
 28 86  1  0  0  0  0
 29 87  1  0  0  0  0
 30 65  2  0  0  0  0
 31 64  1  0  0  0  0
 31 72  1  0  0  0  0
 32 66  1  0  0  0  0
 32 69  1  0  0  0  0
 33 70  1  0  0  0  0
 33 76  2  0  0  0  0
 34 50  1  0  0  0  0
 34 73  1  0  0  0  0
 34 77  2  0  0  0  0
 35 59  1  0  0  0  0
 35 62  1  0  0  0  0
 35 78  2  0  0  0  0
 36 60  1  0  0  0  0
 36 67  1  0  0  0  0
 36 79  2  0  0  0  0
 37 61  1  0  0  0  0
 37 74  1  0  0  0  0
 37 80  2  0  0  0  0
 38 62  1  0  0  0  0
 38 71  1  0  0  0  0
 38 81  2  0  0  0  0
 39 68  1  0  0  0  0
 39 72  1  0  0  0  0
 39 82  2  0  0  0  0
 40 43  1  0  0  0  0
 41 50  1  0  0  0  0
 42 67  1  0  0  0  0
 43 45  1  0  0  0  0
 44 46  1  0  0  0  0
 44 47  1  0  0  0  0
 45 49  1  0  0  0  0
 46 51  1  0  0  0  0
 47 68  1  0  0  0  0
 48 51  1  0  0  0  0
 48 68  1  0  0  0  0
 49 73  1  0  0  0  0
 50 67  1  0  0  0  0
 51 66  1  0  0  0  0
 52 61  1  0  0  0  0
 53 62  1  0  0  0  0
 54 62  1  0  0  0  0
 55 63  1  0  0  0  0
 56 63  1  0  0  0  0
 57 63  1  0  0  0  0
 58 75  1  0  0  0  0
 59 84  1  0  0  0  0
 60 63  1  0  0  0  0
 60 74  1  0  0  0  0
 61 75  1  0  0  0  0
 65 66  1  0  0  0  0
M  CHG  1  75   1
M  ISO  4  39 100  59 101  72 100  84 101
M  END
> <Batch ID>
0176

> <Smiles>
CNC(C)C(=O)NC(C(=O)N1Cc2cc([101O:1][101CH2:1]C(=O)C(C)(C)C(=O)Nc3cnc([100NH:0][100C:0](=O)N4CCCC(n5nc(-c6ccc(Oc7ccc(F)cc7F)cc6)c(C(N)=O)c5N)C4)c(F)c3)ccc2CC1C(=O)NC1CCCc2ccccc21)C(C)(C)C

> <Shape>
0.275

> <Color>
0.065

> <Negative vol penalty>
0.000

$$$$

  -OEChem-04052304383D

 88 96  0     1  0  0  0  0  0999 V2000
  -28.2541  -37.7482   22.5372 C   0  0  0  0  0  0  0  0  0  0  0  0
  -28.6877  -36.5427   21.9948 C   0  0  0  0  0  0  0  0  0  0  0  0
  -24.2635   -9.3864   21.9950 C   0  0  0  0  0  0  0  0  0  0  0  0
  -23.4194  -10.2201   19.8904 C   0  0  0  0  0  0  0  0  0  0  0  0
  -27.3060  -37.7504   23.5595 C   0  0  0  0  0  0  0  0  0  0  0  0
  -28.1742  -35.3386   22.4751 C   0  0  0  0  0  0  0  0  0  0  0  0
  -27.0927  -30.2485   19.2459 C   0  0  0  0  0  0  0  0  0  0  0  0
  -22.9692   -9.0285   22.3723 C   0  0  0  0  0  0  0  0  0  0  0  0
  -22.1251   -9.8622   20.2677 C   0  0  0  0  0  0  0  0  0  0  0  0
  -27.8230  -29.0733   19.0749 C   0  0  0  0  0  0  0  0  0  0  0  0
  -20.7931   -6.5198   21.7369 C   0  0  0  0  0  0  0  0  0  0  0  0
  -20.6100   -5.2628   22.3131 C   0  0  0  0  0  0  0  0  0  0  0  0
  -26.5301  -28.0231   20.8198 C   0  0  0  0  0  0  0  0  0  0  0  0
  -19.7513   -6.3061   24.3160 C   0  0  0  0  0  0  0  0  0  0  0  0
  -29.3598  -18.4360   17.8192 C   0  0  0  0  0  0  0  0  0  0  0  0
  -24.4886   -9.9822   20.7541 C   0  0  0  0  0  0  0  0  0  0  0  0
  -26.7604   -9.5582   19.6740 C   0  0  0  0  0  0  0  0  0  0  0  0
  -26.7734  -36.5461   24.0459 C   0  0  0  0  0  0  0  0  0  0  0  0
  -26.0812  -30.3235   20.2143 C   0  0  0  0  0  0  0  0  0  0  0  0
  -27.2190  -35.3246   23.5058 C   0  0  0  0  0  0  0  0  0  0  0  0
  -25.7867  -29.1996   20.9993 C   0  0  0  0  0  0  0  0  0  0  0  0
  -21.9000   -9.2664   21.5087 C   0  0  0  0  0  0  0  0  0  0  0  0
  -27.5437  -27.9613   19.8638 C   0  0  0  0  0  0  0  0  0  0  0  0
  -20.4553   -7.6700   22.4502 C   0  0  0  0  0  0  0  0  0  0  0  0
  -20.0891   -5.1559   23.6026 C   0  0  0  0  0  0  0  0  0  0  0  0
  -19.9344   -7.5631   23.7397 C   0  0  0  0  0  0  0  0  0  0  0  0
  -25.8253  -10.3526   20.3640 C   0  0  0  0  0  0  0  0  0  0  0  0
  -29.0040  -18.6473   19.1348 C   0  0  0  0  0  0  0  0  0  0  0  0
  -27.8670  -10.3619   19.5477 C   0  0  0  0  0  0  0  0  0  0  0  0
  -29.4610  -20.7193   18.5799 C   0  0  0  0  0  0  0  0  0  0  0  0
  -26.6396   -8.2138   19.1904 C   0  0  0  0  0  0  0  0  0  0  0  0
  -29.7692  -24.3966   19.2815 C   0  0  0  0  0  0  0  0  0  0  0  0
  -29.4691  -22.9736   19.6549 C   0  0  0  0  0  0  0  0  0  0  0  0
  -25.5977  -32.0754   22.8221 C   0  0  0  0  0  0  0  0  0  0  0  0
  -22.7193  -30.5798   22.8200 C   0  0  0  0  0  0  0  0  0  0  0  0
  -28.2412  -17.8688   21.3712 C   0  0  0  0  0  0  0  0  0  0  0  0
  -20.8548  -27.8858   21.8645 C   0  0  0  0  0  0  0  0  0  0  0  0
  -28.3544  -16.3103   19.4934 C   0  0  0  0  0  0  0  0  0  0  0  0
  -25.7856  -36.5966   25.1845 C   0  0  0  0  0  0  0  0  0  0  0  0
  -25.2846  -31.5900   20.3680 C   0  0  0  0  0  0  0  0  0  0  0  0
  -24.6971  -29.2220   22.0390 C   0  0  0  0  0  0  0  0  0  0  0  0
  -25.0140  -35.2940   25.3797 C   0  0  0  0  0  0  0  0  0  0  0  0
  -30.1436  -13.9771   21.6868 C   0  0  0  0  0  0  0  0  0  0  0  0
  -25.9631  -34.1005   25.3415 C   0  0  0  0  0  0  0  0  0  0  0  0
  -29.2896  -12.7170   21.5483 C   0  0  0  0  0  0  0  0  0  0  0  0
  -29.2902  -15.2390   21.6133 C   0  0  0  0  0  0  0  0  0  0  0  0
  -27.5877  -14.0722   20.2472 C   0  0  0  0  0  0  0  0  0  0  0  0
  -26.6672  -33.9987   23.9831 C   0  0  1  0  0  0  0  0  0  0  0  0
  -24.6225  -31.7171   21.7366 C   0  0  1  0  0  0  0  0  0  0  0  0
  -28.4145  -12.7756   20.2835 C   0  0  2  0  0  0  0  0  0  0  0  0
  -29.2480  -18.5950   23.5775 C   0  0  0  0  0  0  0  0  0  0  0  0
  -18.5426  -26.9272   22.0434 C   0  0  0  0  0  0  0  0  0  0  0  0
  -23.2886  -29.7504   25.7006 C   0  0  0  0  0  0  0  0  0  0  0  0
  -21.4577  -28.0546   25.5007 C   0  0  0  0  0  0  0  0  0  0  0  0
  -20.9363  -30.4832   25.2715 C   0  0  0  0  0  0  0  0  0  0  0  0
  -20.4777  -27.9450   18.9297 C   0  0  0  0  0  0  0  0  0  0  0  0
  -28.9063  -25.0309   18.2155 C   0  0  0  0  0  0  0  0  0  0  0  0
  -29.1887  -18.8360   22.0782 C   0  0  0  0  0  0  0  0  0  0  0  0
  -22.1783  -29.3014   23.4133 C   0  0  1  0  0  0  0  0  0  0  0  0
  -19.4856  -27.7873   21.2165 C   0  0  2  0  0  0  0  0  0  0  0  0
  -28.7655  -26.5369   18.3919 C   0  0  1  0  0  0  0  0  0  1  0  0
  -21.9871  -29.3973   24.9533 C   0  0  0  0  0  0  0  0  0  0  0  0
  -26.2967  -11.5678   20.6557 N   0  0  0  0  0  0  0  0  0  0  0  0
  -29.0619  -19.9560   19.5729 N   0  0  0  0  0  0  0  0  0  0  0  0
  -27.5402  -11.5429   20.1467 N   0  0  0  0  0  0  0  0  0  0  0  0
  -23.9505  -30.4855   22.1559 N   0  0  0  0  0  0  0  0  0  0  0  0
  -28.4541  -15.2418   20.4055 N   0  0  0  0  0  0  0  0  0  0  0  0
  -29.0779  -10.1667   18.9839 N   0  0  0  0  0  0  0  0  0  0  0  0
  -25.4338   -7.5325   19.4049 N   0  0  0  0  0  0  0  0  0  0  0  0
  -29.6518  -22.0757   18.5903 N   0  0  0  0  0  0  0  0  0  0  0  0
  -25.7752  -33.4352   22.9925 N   0  0  0  0  0  0  0  0  0  0  0  0
  -20.9564  -28.9949   22.6774 N   0  0  0  0  0  0  0  0  0  0  0  0
  -28.5935  -17.5877   20.0343 N   0  0  0  0  0  0  0  0  0  0  0  0
  -19.5980  -27.1877   19.8567 N   0  3  0  0  0  0  0  0  0  0  0  0
  -27.5791   -7.6283   18.6004 O   0  0  0  0  0  0  0  0  0  0  0  0
  -30.6486  -24.9728   19.9049 O   0  0  0  0  0  0  0  0  0  0  0  0
  -29.1054  -22.7705   20.8007 O   0  0  0  0  0  0  0  0  0  0  0  0
  -26.1473  -31.1843   23.4589 O   0  0  0  0  0  0  0  0  0  0  0  0
  -22.0698  -31.6222   22.9351 O   0  0  0  0  0  0  0  0  0  0  0  0
  -27.3099  -17.3457   21.9851 O   0  0  0  0  0  0  0  0  0  0  0  0
  -21.7439  -27.0594   21.6720 O   0  0  0  0  0  0  0  0  0  0  0  0
  -28.1219  -16.1611   18.2891 O   0  0  0  0  0  0  0  0  0  0  0  0
  -20.6370   -8.9171   21.8764 O   0  0  0  0  0  0  0  0  0  0  0  0
  -28.2595  -26.8065   19.6984 O   0  0  0  0  0  0  0  0  0  1  0  0
  -19.9119   -3.9487   24.1553 F   0  0  0  0  0  0  0  0  0  0  0  0
  -19.6070   -8.6644   24.4294 F   0  0  0  0  0  0  0  0  0  0  0  0
  -30.0059  -27.0911   18.3117 F   0  0  0  0  0  0  0  0  0  0  0  0
  -29.7840  -19.9297   17.0909 S   0  0  0  0  0  0  0  0  0  0  0  0
  1  2  1  0  0  0  0
  1  5  2  0  0  0  0
  2  6  2  0  0  0  0
  3  8  2  0  0  0  0
  3 16  1  0  0  0  0
  4  9  1  0  0  0  0
  4 16  2  0  0  0  0
  5 18  1  0  0  0  0
  6 20  1  0  0  0  0
  7 10  2  0  0  0  0
  7 19  1  0  0  0  0
  8 22  1  0  0  0  0
  9 22  2  0  0  0  0
 10 23  1  0  0  0  0
 11 12  2  0  0  0  0
 11 24  1  0  0  0  0
 12 25  1  0  0  0  0
 13 21  1  0  0  0  0
 13 23  2  0  0  0  0
 14 25  2  0  0  0  0
 14 26  1  0  0  0  0
 15 28  2  0  0  0  0
 15 88  1  0  0  0  0
 16 27  1  0  0  0  0
 17 27  1  0  0  0  0
 17 29  2  0  0  0  0
 17 31  1  0  0  0  0
 18 20  2  0  0  0  0
 18 39  1  0  0  0  0
 19 21  2  0  0  0  0
 19 40  1  0  0  0  0
 20 48  1  0  0  0  0
 21 41  1  0  0  0  0
 22 83  1  0  0  0  0
 23 84  1  0  0  0  0
 24 26  2  0  0  0  0
 24 83  1  0  0  0  0
 25 85  1  0  0  0  0
 26 86  1  0  0  0  0
 27 63  2  0  0  0  0
 28 64  1  0  0  0  0
 28 73  1  0  0  0  0
 29 65  1  0  0  0  0
 29 68  1  0  0  0  0
 30 64  2  0  0  0  0
 30 70  1  0  0  0  0
 30 88  1  0  0  0  0
 31 69  1  0  0  0  0
 31 75  2  0  0  0  0
 32 33  1  0  0  0  0
 32 57  1  0  0  0  0
 32 76  2  0  0  0  0
 33 70  1  0  0  0  0
 33 77  2  0  0  0  0
 34 49  1  0  0  0  0
 34 71  1  0  0  0  0
 34 78  2  0  0  0  0
 35 59  1  0  0  0  0
 35 66  1  0  0  0  0
 35 79  2  0  0  0  0
 36 58  1  0  0  0  0
 36 73  1  0  0  0  0
 36 80  2  0  0  0  0
 37 60  1  0  0  0  0
 37 72  1  0  0  0  0
 37 81  2  0  0  0  0
 38 67  1  0  0  0  0
 38 73  1  0  0  0  0
 38 82  2  0  0  0  0
 39 42  1  0  0  0  0
 40 49  1  0  0  0  0
 41 66  1  0  0  0  0
 42 44  1  0  0  0  0
 43 45  1  0  0  0  0
 43 46  1  0  0  0  0
 44 48  1  0  0  0  0
 45 50  1  0  0  0  0
 46 67  1  0  0  0  0
 47 50  1  0  0  0  0
 47 67  1  0  0  0  0
 48 71  1  0  0  0  0
 49 66  1  0  0  0  0
 50 65  1  0  0  0  0
 51 58  1  0  0  0  0
 52 60  1  0  0  0  0
 53 62  1  0  0  0  0
 54 62  1  0  0  0  0
 55 62  1  0  0  0  0
 56 74  1  0  0  0  0
 57 61  1  0  0  0  0
 59 62  1  0  0  0  0
 59 72  1  0  0  0  0
 60 74  1  0  0  0  0
 61 84  1  0  0  0  0
 61 87  1  0  0  0  0
 63 65  1  0  0  0  0
M  CHG  1  74   1
M  ISO  4  38 100  61 101  73 100  84 101
M  END
> <Batch ID>
0176

> <Smiles>
CCC(=O)[100N:0](c1csc(NC(=O)C(=O)C[101CH:1](F)[101O:1]c2ccc3c(c2)CN(C(=O)C(NC(=O)C(C)NC)C(C)(C)C)C(C(=O)NC2CCCc4ccccc42)C3)n1)[100C:0](=O)N1CCCC(n2nc(-c3ccc(Oc4ccc(F)cc4F)cc3)c(C(N)=O)c2N)C1

> <Shape>
0.346

> <Color>
0.111

> <Negative vol penalty>
0.000

$$$$

  -OEChem-04052304383D

 87 95  0     1  0  0  0  0  0999 V2000
  -30.1288  -15.7416   14.1135 C   0  0  0  0  0  0  0  0  0  0  0  0
  -29.1589  -15.6615   15.1076 C   0  0  0  0  0  0  0  0  0  0  0  0
  -22.9518  -10.0853   19.9844 C   0  0  0  0  0  0  0  0  0  0  0  0
  -23.7229  -10.0226   22.2731 C   0  0  0  0  0  0  0  0  0  0  0  0
  -31.1638  -16.6692   14.2242 C   0  0  0  0  0  0  0  0  0  0  0  0
  -29.2240  -16.5083   16.2136 C   0  0  0  0  0  0  0  0  0  0  0  0
  -25.0012  -19.9839   20.8401 C   0  0  0  0  0  0  0  0  0  0  0  0
  -22.1480   -8.9710   20.2246 C   0  0  0  0  0  0  0  0  0  0  0  0
  -22.9191   -8.9082   22.5134 C   0  0  0  0  0  0  0  0  0  0  0  0
  -24.8124  -20.1487   22.2116 C   0  0  0  0  0  0  0  0  0  0  0  0
  -23.0272   -5.5826   21.9138 C   0  0  0  0  0  0  0  0  0  0  0  0
  -23.5902   -4.5167   22.6155 C   0  0  0  0  0  0  0  0  0  0  0  0
  -26.6015  -21.7662   22.2575 C   0  0  0  0  0  0  0  0  0  0  0  0
  -30.0574  -17.5214   22.8210 C   0  0  0  0  0  0  0  0  0  0  0  0
  -21.9096   -4.7604   24.3340 C   0  0  0  0  0  0  0  0  0  0  0  0
  -23.7393  -10.6111   21.0086 C   0  0  0  0  0  0  0  0  0  0  0  0
  -24.2164  -13.1155   20.9175 C   0  0  0  0  0  0  0  0  0  0  0  0
  -31.2363  -17.5344   15.3274 C   0  0  0  0  0  0  0  0  0  0  0  0
  -26.0006  -20.7021   20.1678 C   0  0  0  0  0  0  0  0  0  0  0  0
  -30.2617  -17.4474   16.3398 C   0  0  0  0  0  0  0  0  0  0  0  0
  -26.7993  -21.6106   20.8770 C   0  0  0  0  0  0  0  0  0  0  0  0
  -30.6003  -18.7226   23.2633 C   0  0  0  0  0  0  0  0  0  0  0  0
  -22.1317   -8.3824   21.4891 C   0  0  0  0  0  0  0  0  0  0  0  0
  -25.6144  -21.0378   22.9210 C   0  0  0  0  0  0  0  0  0  0  0  0
  -21.9055   -6.2376   22.4222 C   0  0  0  0  0  0  0  0  0  0  0  0
  -23.0313   -4.1055   23.8256 C   0  0  0  0  0  0  0  0  0  0  0  0
  -21.3466   -5.8264   23.6323 C   0  0  0  0  0  0  0  0  0  0  0  0
  -31.8824  -19.0871   22.8675 C   0  0  0  0  0  0  0  0  0  0  0  0
  -24.5702  -11.7619   20.7609 C   0  0  0  0  0  0  0  0  0  0  0  0
  -30.8312  -16.7267   21.9908 C   0  0  0  0  0  0  0  0  0  0  0  0
  -32.5746  -18.2222   22.0353 C   0  0  0  0  0  0  0  0  0  0  0  0
  -25.3456  -13.8094   20.5570 C   0  0  0  0  0  0  0  0  0  0  0  0
  -22.9779  -13.6938   21.3502 C   0  0  0  0  0  0  0  0  0  0  0  0
  -28.6148  -19.9188   18.5381 C   0  0  0  0  0  0  0  0  0  0  0  0
  -28.7096  -23.1014   17.9178 C   0  0  0  0  0  0  0  0  0  0  0  0
  -27.8247  -26.2626   18.8508 C   0  0  0  0  0  0  0  0  0  0  0  0
  -28.5696  -19.3530   24.6097 C   0  0  0  0  0  0  0  0  0  0  0  0
  -30.8611  -14.5562   20.7122 C   0  0  0  0  0  0  0  0  0  0  0  0
  -32.4002  -18.4883   15.4265 C   0  0  0  0  0  0  0  0  0  0  0  0
  -26.1739  -20.5328   18.6834 C   0  0  0  0  0  0  0  0  0  0  0  0
  -27.8726  -22.4206   20.1984 C   0  0  0  0  0  0  0  0  0  0  0  0
  -32.1875  -19.6049   16.4455 C   0  0  0  0  0  0  0  0  0  0  0  0
  -29.6055  -12.2359   18.3212 C   0  0  0  0  0  0  0  0  0  0  0  0
  -31.6464  -19.0375   17.7540 C   0  0  0  0  0  0  0  0  0  0  0  0
  -28.1545  -12.0171   18.7556 C   0  0  0  0  0  0  0  0  0  0  0  0
  -30.5379  -12.4000   19.5201 C   0  0  0  0  0  0  0  0  0  0  0  0
  -28.6802  -13.2089   20.9214 C   0  0  0  0  0  0  0  0  0  0  0  0
  -30.2843  -18.3656   17.5425 C   0  0  1  0  0  0  0  0  0  0  0  0
  -27.5620  -20.9343   18.1942 C   0  0  1  0  0  0  0  0  0  0  0  0
  -27.6933  -13.1032   19.7473 C   0  0  2  0  0  0  0  0  0  0  0  0
  -28.0802  -28.6631   18.1654 C   0  0  0  0  0  0  0  0  0  0  0  0
  -24.2703  -19.7617   25.7801 C   0  0  0  0  0  0  0  0  0  0  0  0
  -31.5744  -23.0937   18.9679 C   0  0  0  0  0  0  0  0  0  0  0  0
  -31.4393  -25.5869   19.1528 C   0  0  0  0  0  0  0  0  0  0  0  0
  -31.2163  -24.4894   16.9238 C   0  0  0  0  0  0  0  0  0  0  0  0
  -24.9029  -26.6007   18.5223 C   0  0  0  0  0  0  0  0  0  0  0  0
  -26.7133  -20.2948   26.1068 C   0  0  0  0  0  0  0  0  0  0  0  0
  -29.3251  -24.3040   18.5914 C   0  0  1  0  0  0  0  0  0  0  0  0
  -27.2204  -27.4127   18.0655 C   0  0  2  0  0  0  0  0  0  0  0  0
  -28.1085  -20.5078   25.4985 C   0  0  1  0  0  0  0  0  0  0  0  0
  -25.5954  -20.0453   25.0821 C   0  0  2  0  0  0  0  0  0  1  0  0
  -30.8699  -24.3520   18.4224 C   0  0  0  0  0  0  0  0  0  0  0  0
  -25.8259  -11.6032   20.3341 N   0  0  0  0  0  0  0  0  0  0  0  0
  -32.0803  -17.0472   21.5850 N   0  0  0  0  0  0  0  0  0  0  0  0
  -26.2709  -12.8661   20.2192 N   0  0  0  0  0  0  0  0  0  0  0  0
  -28.0075  -22.2151   18.7468 N   0  0  0  0  0  0  0  0  0  0  0  0
  -30.0401  -13.4484   20.4133 N   0  0  0  0  0  0  0  0  0  0  0  0
  -25.6272  -15.1284   20.4990 N   0  0  0  0  0  0  0  0  0  0  0  0
  -21.9201  -12.8364   21.6823 N   0  0  0  0  0  0  0  0  0  0  0  0
  -29.8507  -19.5691   24.1140 N   0  0  0  0  0  0  0  0  0  0  0  0
  -30.2690  -15.5045   21.5456 N   0  0  0  0  0  0  0  0  0  0  0  0
  -29.2399  -19.3621   17.4386 N   0  0  0  0  0  0  0  0  0  0  0  0
  -28.6293  -25.4706   18.0592 N   0  0  0  0  0  0  0  0  0  0  0  0
  -25.8604  -27.7349   18.5827 N   0  3  0  0  0  0  0  0  0  0  0  0
  -22.8088  -14.9345   21.4240 O   0  0  0  0  0  0  0  0  0  0  0  0
  -28.8441  -19.6607   19.7139 O   0  0  0  0  0  0  0  0  0  0  0  0
  -28.8406  -22.9575   16.6997 O   0  0  0  0  0  0  0  0  0  0  0  0
  -27.6078  -26.0867   20.0477 O   0  0  0  0  0  0  0  0  0  0  0  0
  -27.8536  -18.3740   24.4186 O   0  0  0  0  0  0  0  0  0  0  0  0
  -31.9952  -14.6696   20.2400 O   0  0  0  0  0  0  0  0  0  0  0  0
  -29.0478  -20.7127   26.5411 O   0  0  0  0  0  0  0  0  0  0  0  0
  -21.3473   -7.2952   21.7239 O   0  0  0  0  0  0  0  0  0  0  0  0
  -25.4326  -21.2001   24.2598 O   0  0  0  0  0  0  0  0  0  1  0  0
  -23.5711   -3.0809   24.4986 F   0  0  0  0  0  0  0  0  0  0  0  0
  -20.2683   -6.4510   24.1252 F   0  0  0  0  0  0  0  0  0  0  0  0
  -32.4401  -20.2347   23.2730 F   0  0  0  0  0  0  0  0  0  0  0  0
  -33.8133  -18.5616   21.6467 F   0  0  0  0  0  0  0  0  0  0  0  0
  1  2  1  0  0  0  0
  1  5  2  0  0  0  0
  2  6  2  0  0  0  0
  3  8  2  0  0  0  0
  3 16  1  0  0  0  0
  4  9  1  0  0  0  0
  4 16  2  0  0  0  0
  5 18  1  0  0  0  0
  6 20  1  0  0  0  0
  7 10  2  0  0  0  0
  7 19  1  0  0  0  0
  8 23  1  0  0  0  0
  9 23  2  0  0  0  0
 10 24  1  0  0  0  0
 11 12  2  0  0  0  0
 11 25  1  0  0  0  0
 12 26  1  0  0  0  0
 13 21  1  0  0  0  0
 13 24  2  0  0  0  0
 14 22  1  0  0  0  0
 14 30  2  0  0  0  0
 15 26  2  0  0  0  0
 15 27  1  0  0  0  0
 16 29  1  0  0  0  0
 17 29  1  0  0  0  0
 17 32  2  0  0  0  0
 17 33  1  0  0  0  0
 18 20  2  0  0  0  0
 18 39  1  0  0  0  0
 19 21  2  0  0  0  0
 19 40  1  0  0  0  0
 20 48  1  0  0  0  0
 21 41  1  0  0  0  0
 22 28  2  0  0  0  0
 22 70  1  0  0  0  0
 23 82  1  0  0  0  0
 24 83  1  0  0  0  0
 25 27  2  0  0  0  0
 25 82  1  0  0  0  0
 26 84  1  0  0  0  0
 27 85  1  0  0  0  0
 28 31  1  0  0  0  0
 28 86  1  0  0  0  0
 29 63  2  0  0  0  0
 30 64  1  0  0  0  0
 30 71  1  0  0  0  0
 31 64  2  0  0  0  0
 31 87  1  0  0  0  0
 32 65  1  0  0  0  0
 32 68  1  0  0  0  0
 33 69  1  0  0  0  0
 33 75  2  0  0  0  0
 34 49  1  0  0  0  0
 34 72  1  0  0  0  0
 34 76  2  0  0  0  0
 35 58  1  0  0  0  0
 35 66  1  0  0  0  0
 35 77  2  0  0  0  0
 36 59  1  0  0  0  0
 36 73  1  0  0  0  0
 36 78  2  0  0  0  0
 37 60  1  0  0  0  0
 37 70  1  0  0  0  0
 37 79  2  0  0  0  0
 38 67  1  0  0  0  0
 38 71  1  0  0  0  0
 38 80  2  0  0  0  0
 39 42  1  0  0  0  0
 40 49  1  0  0  0  0
 41 66  1  0  0  0  0
 42 44  1  0  0  0  0
 43 45  1  0  0  0  0
 43 46  1  0  0  0  0
 44 48  1  0  0  0  0
 45 50  1  0  0  0  0
 46 67  1  0  0  0  0
 47 50  1  0  0  0  0
 47 67  1  0  0  0  0
 48 72  1  0  0  0  0
 49 66  1  0  0  0  0
 50 65  1  0  0  0  0
 51 59  1  0  0  0  0
 52 61  1  0  0  0  0
 53 62  1  0  0  0  0
 54 62  1  0  0  0  0
 55 62  1  0  0  0  0
 56 74  1  0  0  0  0
 57 60  1  0  0  0  0
 57 61  1  0  0  0  0
 58 62  1  0  0  0  0
 58 73  1  0  0  0  0
 59 74  1  0  0  0  0
 60 81  1  0  0  0  0
 61 83  1  0  0  0  0
 63 65  1  0  0  0  0
M  CHG  1  74   1
M  ISO  4  38 100  61 101  71 100  83 101
M  END
> <Batch ID>
0176

> <Smiles>
CNC(C)C(=O)NC(C(=O)N1Cc2cc([101O:1][101CH:1](C)CC(O)C(=O)Nc3cc([100NH:0][100C:0](=O)N4CCCC(n5nc(-c6ccc(Oc7ccc(F)cc7F)cc6)c(C(N)=O)c5N)C4)nc(F)c3F)ccc2CC1C(=O)NC1CCCc2ccccc21)C(C)(C)C

> <Shape>
0.268

> <Color>
0.198

> <Negative vol penalty>
0.000

$$$$

  -OEChem-04052304383D

 90 98  0     1  0  0  0  0  0999 V2000
  -30.4306  -35.6360   23.5915 C   0  0  0  0  0  0  0  0  0  0  0  0
  -30.4735  -34.4247   22.9087 C   0  0  0  0  0  0  0  0  0  0  0  0
  -24.5212   -8.5213   21.4278 C   0  0  0  0  0  0  0  0  0  0  0  0
  -23.9650  -10.4785   22.7305 C   0  0  0  0  0  0  0  0  0  0  0  0
  -29.4852  -35.8351   24.5967 C   0  0  0  0  0  0  0  0  0  0  0  0
  -29.5717  -33.4113   23.2315 C   0  0  0  0  0  0  0  0  0  0  0  0
  -27.0511  -29.3643   19.3878 C   0  0  0  0  0  0  0  0  0  0  0  0
  -24.0087   -7.7047   22.4357 C   0  0  0  0  0  0  0  0  0  0  0  0
  -23.4524   -9.6618   23.7385 C   0  0  0  0  0  0  0  0  0  0  0  0
  -27.3653  -28.0413   19.0802 C   0  0  0  0  0  0  0  0  0  0  0  0
  -20.9698   -6.6805   23.5077 C   0  0  0  0  0  0  0  0  0  0  0  0
  -20.1441   -5.6225   23.1277 C   0  0  0  0  0  0  0  0  0  0  0  0
  -25.7148  -27.2861   20.6691 C   0  0  0  0  0  0  0  0  0  0  0  0
  -21.6894   -4.0573   24.1274 C   0  0  0  0  0  0  0  0  0  0  0  0
  -30.1645  -17.6379   20.4366 C   0  0  0  0  0  0  0  0  0  0  0  0
  -24.4994   -9.9082   21.5752 C   0  0  0  0  0  0  0  0  0  0  0  0
  -24.3309  -11.2860   19.4349 C   0  0  0  0  0  0  0  0  0  0  0  0
  -28.5650  -34.8272   24.9254 C   0  0  0  0  0  0  0  0  0  0  0  0
  -26.0723  -29.6586   20.3479 C   0  0  0  0  0  0  0  0  0  0  0  0
  -28.6140  -33.5966   24.2430 C   0  0  0  0  0  0  0  0  0  0  0  0
  -25.3882  -28.6137   20.9853 C   0  0  0  0  0  0  0  0  0  0  0  0
  -28.3117  -18.8237   22.0513 C   0  0  0  0  0  0  0  0  0  0  0  0
  -29.3509  -16.8248   21.2091 C   0  0  0  0  0  0  0  0  0  0  0  0
  -23.4743   -8.2749   23.5911 C   0  0  0  0  0  0  0  0  0  0  0  0
  -26.6992  -27.0019   19.7230 C   0  0  0  0  0  0  0  0  0  0  0  0
  -22.1554   -6.4269   24.1975 C   0  0  0  0  0  0  0  0  0  0  0  0
  -20.5038   -4.3110   23.4376 C   0  0  0  0  0  0  0  0  0  0  0  0
  -22.5152   -5.1153   24.5074 C   0  0  0  0  0  0  0  0  0  0  0  0
  -28.4094  -17.4369   22.0291 C   0  0  0  0  0  0  0  0  0  0  0  0
  -25.0292  -10.7523   20.5345 C   0  0  0  0  0  0  0  0  0  0  0  0
  -29.1719  -19.5473   21.2412 C   0  0  0  0  0  0  0  0  0  0  0  0
  -25.2738  -12.0118   18.7488 C   0  0  0  0  0  0  0  0  0  0  0  0
  -27.9874  -25.0971   20.1506 C   0  0  0  0  0  0  0  0  0  1  0  0
  -22.9531  -11.1390   19.0665 C   0  0  0  0  0  0  0  0  0  0  0  0
  -28.3683  -23.8317   19.9437 C   0  0  0  0  0  0  0  0  0  0  0  0
  -29.4466  -23.2655   20.7905 C   0  0  0  0  0  0  0  0  0  0  0  0
  -29.8437  -21.8450   20.5267 C   0  0  0  0  0  0  0  0  0  0  0  0
  -26.0573  -31.1644   23.1472 C   0  0  0  0  0  0  0  0  0  0  0  0
  -22.8522  -30.7132   22.9319 C   0  0  0  0  0  0  0  0  0  0  0  0
  -20.2608  -28.9123   21.6326 C   0  0  0  0  0  0  0  0  0  0  0  0
  -30.3674  -14.6706   20.3893 C   0  0  0  0  0  0  0  0  0  0  0  0
  -27.5921  -35.0716   26.0517 C   0  0  0  0  0  0  0  0  0  0  0  0
  -25.7261  -31.0911   20.6490 C   0  0  0  0  0  0  0  0  0  0  0  0
  -24.3150  -28.8764   22.0089 C   0  0  0  0  0  0  0  0  0  0  0  0
  -26.4289  -34.0835   26.0769 C   0  0  0  0  0  0  0  0  0  0  0  0
  -29.9821  -12.1670   17.8871 C   0  0  0  0  0  0  0  0  0  0  0  0
  -26.9371  -32.6560   25.9010 C   0  0  0  0  0  0  0  0  0  0  0  0
  -28.6021  -11.5729   18.1782 C   0  0  0  0  0  0  0  0  0  0  0  0
  -30.7238  -12.5342   19.1711 C   0  0  0  0  0  0  0  0  0  0  0  0
  -28.5972  -12.8046   20.3850 C   0  0  0  0  0  0  0  0  0  0  0  0
  -27.6364  -32.4823   24.5474 C   0  0  1  0  0  0  0  0  0  0  0  0
  -25.0742  -31.2735   22.0162 C   0  0  1  0  0  0  0  0  0  0  0  0
  -27.7857  -12.4791   19.1204 C   0  0  2  0  0  0  0  0  0  0  0  0
  -17.7565  -28.7569   21.6688 C   0  0  0  0  0  0  0  0  0  0  0  0
  -22.9747  -29.4216   25.6935 C   0  0  0  0  0  0  0  0  0  0  0  0
  -20.7030  -28.4593   25.2676 C   0  0  0  0  0  0  0  0  0  0  0  0
  -21.0150  -30.9334   25.3349 C   0  0  0  0  0  0  0  0  0  0  0  0
  -20.0712  -29.4249   18.7240 C   0  0  0  0  0  0  0  0  0  0  0  0
  -21.8946  -29.6265   23.3574 C   0  0  1  0  0  0  0  0  0  0  0  0
  -18.9687  -29.3454   20.9638 C   0  0  2  0  0  0  0  0  0  0  0  0
  -27.3021  -19.4797   22.9308 C   0  0  0  0  0  0  0  0  0  0  0  0
  -21.6684  -29.6049   24.8955 C   0  0  0  0  0  0  0  0  0  0  0  0
  -30.0990  -18.9882   20.4315 N   0  0  0  0  0  0  0  0  0  0  0  0
  -26.3165  -11.1085   20.5501 N   0  0  0  0  0  0  0  0  0  0  0  0
  -26.4345  -11.8737   19.4516 N   0  0  0  0  0  0  0  0  0  0  0  0
  -24.0169  -30.2937   22.2735 N   0  0  0  0  0  0  0  0  0  0  0  0
  -29.8912  -13.3972   20.0117 N   0  0  0  0  0  0  0  0  0  0  0  0
  -25.2151  -12.7481   17.6188 N   0  0  0  0  0  0  0  0  0  0  0  0
  -22.1229  -10.3588   19.8828 N   0  0  0  0  0  0  0  0  0  0  0  0
  -29.4754  -15.4142   21.1613 N   0  0  0  0  0  0  0  0  0  0  0  0
  -29.0811  -20.9584   21.2564 N   0  0  0  0  0  0  0  0  0  0  0  0
  -26.6601  -32.3608   23.4860 N   0  0  0  0  0  0  0  0  0  0  0  0
  -20.6781  -29.8260   22.5773 N   0  0  0  0  0  0  0  0  0  0  0  0
  -18.9471  -28.9005   19.5416 N   0  3  0  0  0  0  0  0  0  0  0  0
  -22.4762  -11.6700   18.0349 O   0  0  0  0  0  0  0  0  0  0  0  0
  -30.0239  -23.8535   21.6916 O   0  0  0  0  0  0  0  0  0  0  0  0
  -30.7437  -21.6661   19.7235 O   0  0  0  0  0  0  0  0  0  0  0  0
  -26.2533  -30.0757   23.6745 O   0  0  0  0  0  0  0  0  0  0  0  0
  -22.5737  -31.8914   23.1684 O   0  0  0  0  0  0  0  0  0  0  0  0
  -20.8400  -27.8662   21.3483 O   0  0  0  0  0  0  0  0  0  0  0  0
  -31.4733  -15.0826   20.0297 O   0  0  0  0  0  0  0  0  0  0  0  0
  -27.8063  -23.0243   18.9798 O   0  0  0  0  0  0  0  0  0  0  0  0
  -22.9738   -7.4784   24.5748 O   0  0  0  0  0  0  0  0  0  0  0  0
  -27.0045  -25.7097   19.4251 O   0  0  0  0  0  0  0  0  0  1  0  0
  -19.7099   -3.2952   23.0740 F   0  0  0  0  0  0  0  0  0  0  0  0
  -23.6523   -4.8655   25.1709 F   0  0  0  0  0  0  0  0  0  0  0  0
  -27.5986  -16.6925   22.7958 F   0  0  0  0  0  0  0  0  0  0  0  0
  -26.5487  -18.5978   23.6525 F   0  0  0  0  0  0  0  0  0  0  0  0
  -27.8485  -20.3219   23.8572 F   0  0  0  0  0  0  0  0  0  0  0  0
  -26.4079  -20.2369   22.2305 F   0  0  0  0  0  0  0  0  0  0  0  0
  1  2  1  0  0  0  0
  1  5  2  0  0  0  0
  2  6  2  0  0  0  0
  3  8  2  0  0  0  0
  3 16  1  0  0  0  0
  4  9  1  0  0  0  0
  4 16  2  0  0  0  0
  5 18  1  0  0  0  0
  6 20  1  0  0  0  0
  7 10  2  0  0  0  0
  7 19  1  0  0  0  0
  8 24  1  0  0  0  0
  9 24  2  0  0  0  0
 10 25  1  0  0  0  0
 11 12  2  0  0  0  0
 11 26  1  0  0  0  0
 12 27  1  0  0  0  0
 13 21  1  0  0  0  0
 13 25  2  0  0  0  0
 14 27  2  0  0  0  0
 14 28  1  0  0  0  0
 15 23  1  0  0  0  0
 15 63  2  0  0  0  0
 16 30  1  0  0  0  0
 17 30  1  0  0  0  0
 17 32  2  0  0  0  0
 17 34  1  0  0  0  0
 18 20  2  0  0  0  0
 18 42  1  0  0  0  0
 19 21  2  0  0  0  0
 19 43  1  0  0  0  0
 20 51  1  0  0  0  0
 21 44  1  0  0  0  0
 22 29  1  0  0  0  0
 22 31  2  0  0  0  0
 22 61  1  0  0  0  0
 23 29  2  0  0  0  0
 23 70  1  0  0  0  0
 24 83  1  0  0  0  0
 25 84  1  0  0  0  0
 26 28  2  0  0  0  0
 26 83  1  0  0  0  0
 27 85  1  0  0  0  0
 28 86  1  0  0  0  0
 29 87  1  0  0  0  0
 30 64  2  0  0  0  0
 31 63  1  0  0  0  0
 31 71  1  0  0  0  0
 32 65  1  0  0  0  0
 32 68  1  0  0  0  0
 33 35  2  0  0  0  0
 33 84  1  0  0  0  0
 34 69  1  0  0  0  0
 34 75  2  0  0  0  0
 35 36  1  0  0  0  0
 35 82  1  0  0  0  0
 36 37  1  0  0  0  0
 36 76  2  0  0  0  0
 37 71  1  0  0  0  0
 37 77  2  0  0  0  0
 38 52  1  0  0  0  0
 38 72  1  0  0  0  0
 38 78  2  0  0  0  0
 39 59  1  0  0  0  0
 39 66  1  0  0  0  0
 39 79  2  0  0  0  0
 40 60  1  0  0  0  0
 40 73  1  0  0  0  0
 40 80  2  0  0  0  0
 41 67  1  0  0  0  0
 41 70  1  0  0  0  0
 41 81  2  0  0  0  0
 42 45  1  0  0  0  0
 43 52  1  0  0  0  0
 44 66  1  0  0  0  0
 45 47  1  0  0  0  0
 46 48  1  0  0  0  0
 46 49  1  0  0  0  0
 47 51  1  0  0  0  0
 48 53  1  0  0  0  0
 49 67  1  0  0  0  0
 50 53  1  0  0  0  0
 50 67  1  0  0  0  0
 51 72  1  0  0  0  0
 52 66  1  0  0  0  0
 53 65  1  0  0  0  0
 54 60  1  0  0  0  0
 55 62  1  0  0  0  0
 56 62  1  0  0  0  0
 57 62  1  0  0  0  0
 58 74  1  0  0  0  0
 59 62  1  0  0  0  0
 59 73  1  0  0  0  0
 60 74  1  0  0  0  0
 61 88  1  0  0  0  0
 61 89  1  0  0  0  0
 61 90  1  0  0  0  0
 64 65  1  0  0  0  0
M  CHG  1  74   1
M  ISO  4  33 101  41 100  70 100  84 101
M  END
> <Batch ID>
0176

> <Smiles>
CNC(C)C(=O)NC(C(=O)N1Cc2cc([101O:1][101CH2:1]C(=O)C(=O)C(=O)Nc3ncc([100NH:0][100C:0](=O)N4CCCC(n5nc(-c6ccc(Oc7ccc(F)cc7F)cc6)c(C(N)=O)c5N)C4)c(F)c3C(F)(F)F)ccc2CC1C(=O)NC1CCCc2ccccc21)C(C)(C)C

> <Shape>
0.327

> <Color>
0.107

> <Negative vol penalty>
0.000

$$$$

  -OEChem-04052304383D

 84 92  0     1  0  0  0  0  0999 V2000
  -20.2167  -30.3637   26.7716 C   0  0  0  0  0  0  0  0  0  0  0  0
  -21.4465  -29.8552   26.3661 C   0  0  0  0  0  0  0  0  0  0  0  0
  -22.2851  -10.5673   21.1452 C   0  0  0  0  0  0  0  0  0  0  0  0
  -24.3628   -9.4457   21.6574 C   0  0  0  0  0  0  0  0  0  0  0  0
  -19.0929  -30.1937   25.9642 C   0  0  0  0  0  0  0  0  0  0  0  0
  -21.5529  -29.1754   25.1533 C   0  0  0  0  0  0  0  0  0  0  0  0
  -26.3336  -29.2007   21.3257 C   0  0  0  0  0  0  0  0  0  0  0  0
  -21.6327   -9.3355   21.0942 C   0  0  0  0  0  0  0  0  0  0  0  0
  -23.7103   -8.2139   21.6064 C   0  0  0  0  0  0  0  0  0  0  0  0
  -27.3835  -28.3044   21.1304 C   0  0  0  0  0  0  0  0  0  0  0  0
  -21.7050   -6.3744   23.6104 C   0  0  0  0  0  0  0  0  0  0  0  0
  -21.9750   -5.4573   24.6260 C   0  0  0  0  0  0  0  0  0  0  0  0
  -26.1669  -27.2843   19.3142 C   0  0  0  0  0  0  0  0  0  0  0  0
  -29.3256  -20.0750   22.2524 C   0  0  0  0  0  0  0  0  0  0  0  0
  -22.7887   -3.8807   22.9860 C   0  0  0  0  0  0  0  0  0  0  0  0
  -23.6502  -10.6224   21.4267 C   0  0  0  0  0  0  0  0  0  0  0  0
  -24.4937  -12.7215   22.6056 C   0  0  0  0  0  0  0  0  0  0  0  0
  -19.1875  -29.5198   24.7364 C   0  0  0  0  0  0  0  0  0  0  0  0
  -25.1858  -29.1383   20.5225 C   0  0  0  0  0  0  0  0  0  0  0  0
  -20.4290  -28.9949   24.3293 C   0  0  0  0  0  0  0  0  0  0  0  0
  -25.1049  -28.1826   19.4997 C   0  0  0  0  0  0  0  0  0  0  0  0
  -29.6268  -18.6830   22.2947 C   0  0  0  0  0  0  0  0  0  0  0  0
  -22.3453   -8.1588   21.3248 C   0  0  0  0  0  0  0  0  0  0  0  0
  -27.2990  -27.3442   20.1264 C   0  0  0  0  0  0  0  0  0  0  0  0
  -21.9768   -6.0447   22.2825 C   0  0  0  0  0  0  0  0  0  0  0  0
  -22.5169   -4.2105   24.3139 C   0  0  0  0  0  0  0  0  0  0  0  0
  -22.5186   -4.7979   21.9704 C   0  0  0  0  0  0  0  0  0  0  0  0
  -24.3248  -11.8945   21.4789 C   0  0  0  0  0  0  0  0  0  0  0  0
  -30.3137  -18.2679   21.1751 C   0  0  0  0  0  0  0  0  0  0  0  0
  -25.1953  -13.8043   22.1346 C   0  0  0  0  0  0  0  0  0  0  0  0
  -29.7941  -20.6709   21.1020 C   0  0  0  0  0  0  0  0  0  0  0  0
  -28.2946  -25.2861   20.6200 C   0  0  0  0  0  0  0  0  0  1  0  0
  -24.0557  -12.5282   23.9570 C   0  0  0  0  0  0  0  0  0  0  0  0
  -29.2472  -24.3525   20.5073 C   0  0  0  0  0  0  0  0  0  0  0  0
  -29.1239  -23.0877   21.3030 C   0  0  0  0  0  0  0  0  0  0  0  0
  -22.1000  -28.5955   21.0581 C   0  0  0  0  0  0  0  0  0  0  0  0
  -21.8231  -29.3405   17.9131 C   0  0  0  0  0  0  0  0  0  0  0  0
  -23.2994  -29.5435   14.8429 C   0  0  0  0  0  0  0  0  0  0  0  0
  -29.3333  -15.9665   19.0772 C   0  0  0  0  0  0  0  0  0  0  0  0
  -17.9354  -29.3194   23.9199 C   0  0  0  0  0  0  0  0  0  0  0  0
  -24.0734  -30.1295   20.7286 C   0  0  0  0  0  0  0  0  0  0  0  0
  -23.9030  -28.0870   18.5970 C   0  0  0  0  0  0  0  0  0  0  0  0
  -18.2095  -28.9136   22.4740 C   0  0  0  0  0  0  0  0  0  0  0  0
  -26.2830  -15.2165   17.4008 C   0  0  0  0  0  0  0  0  0  0  0  0
  -19.2541  -27.8032   22.4201 C   0  0  0  0  0  0  0  0  0  0  0  0
  -25.5189  -14.3489   18.4024 C   0  0  0  0  0  0  0  0  0  0  0  0
  -27.7838  -14.9369   17.4415 C   0  0  0  0  0  0  0  0  0  0  0  0
  -27.6331  -14.1745   19.7803 C   0  0  0  0  0  0  0  0  0  0  0  0
  -20.5897  -28.2732   23.0089 C   0  0  1  0  0  0  0  0  0  0  0  0
  -22.7324  -29.6439   20.1870 C   0  0  1  0  0  0  0  0  0  0  0  0
  -26.1220  -14.4606   19.8156 C   0  0  2  0  0  0  0  0  0  0  0  0
  -22.8095  -30.1507   12.4578 C   0  0  0  0  0  0  0  0  0  0  0  0
  -20.3503  -26.6938   17.5444 C   0  0  0  0  0  0  0  0  0  0  0  0
  -20.7300  -26.9060   15.0788 C   0  0  0  0  0  0  0  0  0  0  0  0
  -19.3708  -28.6174   16.2815 C   0  0  0  0  0  0  0  0  0  0  0  0
  -25.3079  -31.7171   14.8621 C   0  0  0  0  0  0  0  0  0  0  0  0
  -30.8086  -16.9145   20.8333 C   0  0  0  0  0  0  0  0  0  0  0  0
  -21.8755  -28.5613   16.6212 C   0  0  1  0  0  0  0  0  0  0  0  0
  -23.3135  -30.6495   13.8032 C   0  0  2  0  0  0  0  0  0  0  0  0
  -20.6036  -27.6949   16.3996 C   0  0  0  0  0  0  0  0  0  0  0  0
  -24.8746  -12.4080   20.3753 N   0  0  0  0  0  0  0  0  0  0  0  0
  -25.3959  -13.5693   20.8061 N   0  0  0  0  0  0  0  0  0  0  0  0
  -22.8388  -29.0743   18.8422 N   0  0  0  0  0  0  0  0  0  0  0  0
  -28.2935  -15.0609   18.8093 N   0  0  0  0  0  0  0  0  0  0  0  0
  -29.2756  -17.8690   23.3179 N   0  0  0  0  0  0  0  0  0  0  0  0
  -25.6540  -14.9250   22.7313 N   0  0  0  0  0  0  0  0  0  0  0  0
  -23.3472  -11.3599   24.2691 N   0  0  0  0  0  0  0  0  0  0  0  0
  -29.7159  -22.0121   20.6553 N   0  0  0  0  0  0  0  0  0  0  0  0
  -21.2957  -29.1061   22.0590 N   0  0  0  0  0  0  0  0  0  0  0  0
  -22.1252  -29.5371   15.5658 N   0  0  0  0  0  0  0  0  0  0  0  0
  -29.7528  -16.0264   20.4005 N   0  0  0  0  0  0  0  0  0  0  0  0
  -24.6971  -31.1726   13.6221 N   0  3  0  0  0  0  0  0  0  0  0  0
  -24.2715  -13.3744   24.8576 O   0  0  0  0  0  0  0  0  0  0  0  0
  -28.5545  -23.0796   22.3891 O   0  0  0  0  0  0  0  0  0  0  0  0
  -22.3239  -27.4111   20.8374 O   0  0  0  0  0  0  0  0  0  0  0  0
  -20.9184  -30.1606   18.0884 O   0  0  0  0  0  0  0  0  0  0  0  0
  -24.2347  -28.7611   14.9959 O   0  0  0  0  0  0  0  0  0  0  0  0
  -29.8458  -16.6736   18.2029 O   0  0  0  0  0  0  0  0  0  0  0  0
  -30.3435  -24.5065   19.6832 O   0  0  0  0  0  0  0  0  0  0  0  0
  -21.7089   -6.9566   21.2754 O   0  0  0  0  0  0  0  0  0  0  0  0
  -28.3221  -26.4678   19.9340 O   0  0  0  0  0  0  0  0  0  1  0  0
  -22.7776   -3.3304   25.2895 F   0  0  0  0  0  0  0  0  0  0  0  0
  -22.7830   -4.4759   20.6967 F   0  0  0  0  0  0  0  0  0  0  0  0
  -30.5929  -19.5538   20.0792 S   0  0  0  0  0  0  0  0  0  0  0  0
  1  2  1  0  0  0  0
  1  5  2  0  0  0  0
  2  6  2  0  0  0  0
  3  8  2  0  0  0  0
  3 16  1  0  0  0  0
  4  9  1  0  0  0  0
  4 16  2  0  0  0  0
  5 18  1  0  0  0  0
  6 20  1  0  0  0  0
  7 10  2  0  0  0  0
  7 19  1  0  0  0  0
  8 23  1  0  0  0  0
  9 23  2  0  0  0  0
 10 24  1  0  0  0  0
 11 12  2  0  0  0  0
 11 25  1  0  0  0  0
 12 26  1  0  0  0  0
 13 21  1  0  0  0  0
 13 24  2  0  0  0  0
 14 22  1  0  0  0  0
 14 31  2  0  0  0  0
 15 26  2  0  0  0  0
 15 27  1  0  0  0  0
 16 28  1  0  0  0  0
 17 28  1  0  0  0  0
 17 30  2  0  0  0  0
 17 33  1  0  0  0  0
 18 20  2  0  0  0  0
 18 40  1  0  0  0  0
 19 21  2  0  0  0  0
 19 41  1  0  0  0  0
 20 49  1  0  0  0  0
 21 42  1  0  0  0  0
 22 29  2  0  0  0  0
 22 65  1  0  0  0  0
 23 80  1  0  0  0  0
 24 81  1  0  0  0  0
 25 27  2  0  0  0  0
 25 80  1  0  0  0  0
 26 82  1  0  0  0  0
 27 83  1  0  0  0  0
 28 61  2  0  0  0  0
 29 57  1  0  0  0  0
 29 84  1  0  0  0  0
 30 62  1  0  0  0  0
 30 66  1  0  0  0  0
 31 68  1  0  0  0  0
 31 84  1  0  0  0  0
 32 34  2  0  0  0  0
 32 81  1  0  0  0  0
 33 67  1  0  0  0  0
 33 73  2  0  0  0  0
 34 35  1  0  0  0  0
 34 79  1  0  0  0  0
 35 68  1  0  0  0  0
 35 74  2  0  0  0  0
 36 50  1  0  0  0  0
 36 69  1  0  0  0  0
 36 75  2  0  0  0  0
 37 58  1  0  0  0  0
 37 63  1  0  0  0  0
 37 76  2  0  0  0  0
 38 59  1  0  0  0  0
 38 70  1  0  0  0  0
 38 77  2  0  0  0  0
 39 64  1  0  0  0  0
 39 71  1  0  0  0  0
 39 78  2  0  0  0  0
 40 43  1  0  0  0  0
 41 50  1  0  0  0  0
 42 63  1  0  0  0  0
 43 45  1  0  0  0  0
 44 46  1  0  0  0  0
 44 47  1  0  0  0  0
 45 49  1  0  0  0  0
 46 51  1  0  0  0  0
 47 64  1  0  0  0  0
 48 51  1  0  0  0  0
 48 64  1  0  0  0  0
 49 69  1  0  0  0  0
 50 63  1  0  0  0  0
 51 62  1  0  0  0  0
 52 59  1  0  0  0  0
 53 60  1  0  0  0  0
 54 60  1  0  0  0  0
 55 60  1  0  0  0  0
 56 72  1  0  0  0  0
 57 71  1  0  0  0  0
 58 60  1  0  0  0  0
 58 70  1  0  0  0  0
 59 72  1  0  0  0  0
 61 62  1  0  0  0  0
M  CHG  1  72   1
M  ISO  4  32 101  39 100  71 100  81 101
M  END
> <Batch ID>
0176

> <Smiles>
CNC(C)C(=O)NC(C(=O)N1Cc2cc([101O:1][101CH2:1]C(=O)C(=O)Nc3cc(N)c(C[100NH:0][100C:0](=O)N4CCCC(n5nc(-c6ccc(Oc7ccc(F)cc7F)cc6)c(C(N)=O)c5N)C4)s3)ccc2CC1C(=O)NC1CCCc2ccccc21)C(C)(C)C

> <Shape>
0.277

> <Color>
0.114

> <Negative vol penalty>
0.000

$$$$

  -OEChem-04052304383D

 84 92  0     1  0  0  0  0  0999 V2000
  -25.1980  -18.6615   25.7229 C   0  0  0  0  0  0  0  0  0  0  0  0
  -25.8992  -19.8270   25.4353 C   0  0  0  0  0  0  0  0  0  0  0  0
  -25.7174  -14.0655   21.2029 C   0  0  0  0  0  0  0  0  0  0  0  0
  -25.5642  -14.3885   18.8134 C   0  0  0  0  0  0  0  0  0  0  0  0
  -23.9551  -18.4372   25.1346 C   0  0  0  0  0  0  0  0  0  0  0  0
  -25.3525  -20.7742   24.5688 C   0  0  0  0  0  0  0  0  0  0  0  0
  -27.6799  -25.9727   22.4042 C   0  0  0  0  0  0  0  0  0  0  0  0
  -24.6511  -13.1678   21.1499 C   0  0  0  0  0  0  0  0  0  0  0  0
  -24.4980  -13.4908   18.7604 C   0  0  0  0  0  0  0  0  0  0  0  0
  -28.4081  -26.3892   21.2907 C   0  0  0  0  0  0  0  0  0  0  0  0
  -24.1570   -9.9349   20.2915 C   0  0  0  0  0  0  0  0  0  0  0  0
  -24.2780   -8.7419   21.0039 C   0  0  0  0  0  0  0  0  0  0  0  0
  -26.3598  -27.0682   20.2125 C   0  0  0  0  0  0  0  0  0  0  0  0
  -22.3255   -9.3203   22.3041 C   0  0  0  0  0  0  0  0  0  0  0  0
  -28.8571  -21.8972   14.9817 C   0  0  0  0  0  0  0  0  0  0  0  0
  -26.1740  -14.6759   20.0346 C   0  0  0  0  0  0  0  0  0  0  0  0
  -28.6449  -15.3057   19.9605 C   0  0  0  0  0  0  0  0  0  0  0  0
  -23.3992  -19.3769   24.2509 C   0  0  0  0  0  0  0  0  0  0  0  0
  -26.2828  -26.0910   22.4259 C   0  0  0  0  0  0  0  0  0  0  0  0
  -24.0886  -20.5772   23.9837 C   0  0  0  0  0  0  0  0  0  0  0  0
  -25.6164  -26.6549   21.3286 C   0  0  0  0  0  0  0  0  0  0  0  0
  -24.0414  -12.8804   19.9287 C   0  0  0  0  0  0  0  0  0  0  0  0
  -27.7479  -26.9344   20.1934 C   0  0  0  0  0  0  0  0  0  0  0  0
  -23.1203  -10.8207   20.5853 C   0  0  0  0  0  0  0  0  0  0  0  0
  -23.3623   -8.4345   22.0102 C   0  0  0  0  0  0  0  0  0  0  0  0
  -22.2046  -10.5133   21.5916 C   0  0  0  0  0  0  0  0  0  0  0  0
  -27.2750  -15.6037   20.0888 C   0  0  0  0  0  0  0  0  0  0  0  0
  -29.0589  -22.4255   16.2405 C   0  0  0  0  0  0  0  0  0  0  0  0
  -29.4206  -22.6050   13.9398 C   0  0  0  0  0  0  0  0  0  0  0  0
  -29.2736  -16.5206   20.0836 C   0  0  0  0  0  0  0  0  0  0  0  0
  -30.2553  -24.1550   15.3778 C   0  0  0  0  0  0  0  0  0  0  0  0
  -29.2913  -14.0435   19.7489 C   0  0  0  0  0  0  0  0  0  0  0  0
  -23.8614  -24.0433   22.6431 C   0  0  0  0  0  0  0  0  0  0  0  0
  -29.9466  -26.6316   17.3324 C   0  0  0  0  0  0  0  0  0  0  0  0
  -22.0914  -26.7566   22.8093 C   0  0  0  0  0  0  0  0  0  0  0  0
  -21.8192  -30.0856   22.1092 C   0  0  0  0  0  0  0  0  0  0  0  0
  -28.5765  -22.0821   18.6891 C   0  0  0  0  0  0  0  0  0  0  0  0
  -22.0471  -19.0871   23.6484 C   0  0  0  0  0  0  0  0  0  0  0  0
  -25.5142  -25.6618   23.6455 C   0  0  0  0  0  0  0  0  0  0  0  0
  -24.1197  -26.8224   21.3103 C   0  0  0  0  0  0  0  0  0  0  0  0
  -21.7544  -19.9299   22.4114 C   0  0  0  0  0  0  0  0  0  0  0  0
  -28.0323  -20.9078   22.0061 C   0  0  0  0  0  0  0  0  0  0  0  0
  -22.0422  -21.3954   22.7009 C   0  0  0  0  0  0  0  0  0  0  0  0
  -27.9153  -19.3910   21.8390 C   0  0  0  0  0  0  0  0  0  0  0  0
  -27.3987  -21.6578   20.8357 C   0  0  0  0  0  0  0  0  0  0  0  0
  -27.7559  -19.7330   19.3401 C   0  0  0  0  0  0  0  0  0  0  0  0
  -23.5275  -21.6075   23.0205 C   0  0  1  0  0  0  0  0  0  0  0  0
  -24.0490  -25.3552   23.3511 C   0  0  1  0  0  0  0  0  0  0  0  0
  -28.4373  -18.9337   20.4628 C   0  0  2  0  0  0  0  0  0  0  0  0
  -32.3861  -26.8543   16.8155 C   0  0  0  0  0  0  0  0  0  0  0  0
  -20.2401  -32.0231   22.3333 C   0  0  0  0  0  0  0  0  0  0  0  0
  -20.4228  -25.6604   20.5019 C   0  0  0  0  0  0  0  0  0  0  0  0
  -19.5167  -27.9681   20.1526 C   0  0  0  0  0  0  0  0  0  0  0  0
  -19.1007  -26.7793   22.3059 C   0  0  0  0  0  0  0  0  0  0  0  0
  -23.7315  -31.6000   23.7852 C   0  0  0  0  0  0  0  0  0  0  0  0
  -29.6716  -26.6478   18.8249 C   0  0  0  0  0  0  0  0  0  1  0  0
  -31.2053  -25.9007   16.8864 C   0  0  2  0  0  0  0  0  0  0  0  0
  -21.4176  -27.6569   21.8021 C   0  0  1  0  0  0  0  0  0  0  0  0
  -21.3955  -31.2640   22.9673 C   0  0  2  0  0  0  0  0  0  0  0  0
  -20.1425  -27.0114   21.1899 C   0  0  0  0  0  0  0  0  0  0  0  0
  -27.0462  -16.9058   20.2790 N   0  0  0  0  0  0  0  0  0  0  0  0
  -29.7555  -23.5567   16.4758 N   0  0  0  0  0  0  0  0  0  0  0  0
  -30.1285  -23.7421   14.1023 N   0  0  0  0  0  0  0  0  0  0  0  0
  -28.2807  -17.4368   20.2712 N   0  0  0  0  0  0  0  0  0  0  0  0
  -23.4119  -26.3818   22.5238 N   0  0  0  0  0  0  0  0  0  0  0  0
  -27.9444  -21.1747   19.5654 N   0  0  0  0  0  0  0  0  0  0  0  0
  -30.5732  -16.8840   20.0487 N   0  0  0  0  0  0  0  0  0  0  0  0
  -28.4956  -12.8944   19.6453 N   0  0  0  0  0  0  0  0  0  0  0  0
  -28.4980  -21.7321   17.3416 N   0  0  0  0  0  0  0  0  0  0  0  0
  -30.9762  -25.3189   15.5821 N   0  0  0  0  0  0  0  0  0  0  0  0
  -23.7204  -22.9614   23.4911 N   0  0  0  0  0  0  0  0  0  0  0  0
  -21.1774  -28.9242   22.4838 N   0  0  0  0  0  0  0  0  0  0  0  0
  -22.5342  -32.2080   23.1497 N   0  3  0  0  0  0  0  0  0  0  0  0
  -30.5386  -13.9356   19.6708 O   0  0  0  0  0  0  0  0  0  0  0  0
  -23.8442  -24.0149   21.4181 O   0  0  0  0  0  0  0  0  0  0  0  0
  -29.1936  -27.1898   16.5340 O   0  0  0  0  0  0  0  0  0  0  0  0
  -21.4713  -26.4047   23.8160 O   0  0  0  0  0  0  0  0  0  0  0  0
  -22.6350  -30.1862   21.1955 O   0  0  0  0  0  0  0  0  0  0  0  0
  -29.1690  -23.0808   19.1058 O   0  0  0  0  0  0  0  0  0  0  0  0
  -23.0011  -12.0044   19.8766 O   0  0  0  0  0  0  0  0  0  0  0  0
  -28.4562  -27.3411   19.1050 O   0  0  0  0  0  0  0  0  0  1  0  0
  -23.4777   -7.2881   22.6932 F   0  0  0  0  0  0  0  0  0  0  0  0
  -21.2058  -11.3598   21.8776 F   0  0  0  0  0  0  0  0  0  0  0  0
  -29.2619  -22.1458   12.6891 F   0  0  0  0  0  0  0  0  0  0  0  0
  1  2  1  0  0  0  0
  1  5  2  0  0  0  0
  2  6  2  0  0  0  0
  3  8  2  0  0  0  0
  3 16  1  0  0  0  0
  4  9  1  0  0  0  0
  4 16  2  0  0  0  0
  5 18  1  0  0  0  0
  6 20  1  0  0  0  0
  7 10  2  0  0  0  0
  7 19  1  0  0  0  0
  8 22  1  0  0  0  0
  9 22  2  0  0  0  0
 10 23  1  0  0  0  0
 11 12  2  0  0  0  0
 11 24  1  0  0  0  0
 12 25  1  0  0  0  0
 13 21  1  0  0  0  0
 13 23  2  0  0  0  0
 14 25  2  0  0  0  0
 14 26  1  0  0  0  0
 15 28  2  0  0  0  0
 15 29  1  0  0  0  0
 16 27  1  0  0  0  0
 17 27  1  0  0  0  0
 17 30  2  0  0  0  0
 17 32  1  0  0  0  0
 18 20  2  0  0  0  0
 18 38  1  0  0  0  0
 19 21  2  0  0  0  0
 19 39  1  0  0  0  0
 20 47  1  0  0  0  0
 21 40  1  0  0  0  0
 22 80  1  0  0  0  0
 23 81  1  0  0  0  0
 24 26  2  0  0  0  0
 24 80  1  0  0  0  0
 25 82  1  0  0  0  0
 26 83  1  0  0  0  0
 27 61  2  0  0  0  0
 28 62  1  0  0  0  0
 28 69  1  0  0  0  0
 29 63  2  0  0  0  0
 29 84  1  0  0  0  0
 30 64  1  0  0  0  0
 30 67  1  0  0  0  0
 31 62  2  0  0  0  0
 31 63  1  0  0  0  0
 31 70  1  0  0  0  0
 32 68  1  0  0  0  0
 32 74  2  0  0  0  0
 33 48  1  0  0  0  0
 33 71  1  0  0  0  0
 33 75  2  0  0  0  0
 34 56  1  0  0  0  0
 34 57  1  0  0  0  0
 34 76  2  0  0  0  0
 35 58  1  0  0  0  0
 35 65  1  0  0  0  0
 35 77  2  0  0  0  0
 36 59  1  0  0  0  0
 36 72  1  0  0  0  0
 36 78  2  0  0  0  0
 37 66  1  0  0  0  0
 37 69  1  0  0  0  0
 37 79  2  0  0  0  0
 38 41  1  0  0  0  0
 39 48  1  0  0  0  0
 40 65  1  0  0  0  0
 41 43  1  0  0  0  0
 42 44  1  0  0  0  0
 42 45  1  0  0  0  0
 43 47  1  0  0  0  0
 44 49  1  0  0  0  0
 45 66  1  0  0  0  0
 46 49  1  0  0  0  0
 46 66  1  0  0  0  0
 47 71  1  0  0  0  0
 48 65  1  0  0  0  0
 49 64  1  0  0  0  0
 50 57  1  0  0  0  0
 51 59  1  0  0  0  0
 52 60  1  0  0  0  0
 53 60  1  0  0  0  0
 54 60  1  0  0  0  0
 55 73  1  0  0  0  0
 56 81  1  0  0  0  0
 57 70  1  0  0  0  0
 58 60  1  0  0  0  0
 58 72  1  0  0  0  0
 59 73  1  0  0  0  0
 61 64  1  0  0  0  0
M  CHG  1  73   1
M  ISO  4  37 100  56 101  69 100  81 101
M  END
> <Batch ID>
0176

> <Smiles>
CNC(C)C(=O)NC(C(=O)N1Cc2cc([101O:1][101CH2:1]C(=O)C(C)Nc3nc(F)cc([100NH:0][100C:0](=O)N4CCCC(n5nc(-c6ccc(Oc7ccc(F)cc7F)cc6)c(C(N)=O)c5N)C4)n3)ccc2CC1C(=O)NC1CCCc2ccccc21)C(C)(C)C

> <Shape>
0.230

> <Color>
0.066

> <Negative vol penalty>
0.000

$$$$

  -OEChem-04052304383D

 88 96  0     1  0  0  0  0  0999 V2000
  -26.7136  -36.9431   25.4387 C   0  0  0  0  0  0  0  0  0  0  0  0
  -27.3867  -35.8626   24.8776 C   0  0  0  0  0  0  0  0  0  0  0  0
  -24.7145   -8.5831   21.9583 C   0  0  0  0  0  0  0  0  0  0  0  0
  -23.2167   -9.8085   20.5119 C   0  0  0  0  0  0  0  0  0  0  0  0
  -25.3945  -36.7957   25.8656 C   0  0  0  0  0  0  0  0  0  0  0  0
  -26.7414  -34.6337   24.7440 C   0  0  0  0  0  0  0  0  0  0  0  0
  -27.4660  -30.5675   20.2222 C   0  0  0  0  0  0  0  0  0  0  0  0
  -23.6201   -8.0138   22.6092 C   0  0  0  0  0  0  0  0  0  0  0  0
  -22.1223   -9.2392   21.1628 C   0  0  0  0  0  0  0  0  0  0  0  0
  -28.2233  -29.4012   20.1220 C   0  0  0  0  0  0  0  0  0  0  0  0
  -21.4051   -5.5224   22.0439 C   0  0  0  0  0  0  0  0  0  0  0  0
  -21.4436   -4.1517   22.2988 C   0  0  0  0  0  0  0  0  0  0  0  0
  -26.2883  -28.0990   20.7376 C   0  0  0  0  0  0  0  0  0  0  0  0
  -25.1967  -17.3127   17.7029 C   0  0  0  0  0  0  0  0  0  0  0  0
  -21.2615   -4.5872   24.6683 C   0  0  0  0  0  0  0  0  0  0  0  0
  -24.5128   -9.4805   20.9096 C   0  0  0  0  0  0  0  0  0  0  0  0
  -26.3187   -9.5652   19.1098 C   0  0  0  0  0  0  0  0  0  0  0  0
  -24.7296  -35.5670   25.7283 C   0  0  0  0  0  0  0  0  0  0  0  0
  -26.1147  -30.5090   20.5922 C   0  0  0  0  0  0  0  0  0  0  0  0
  -25.4127  -34.4694   25.1707 C   0  0  0  0  0  0  0  0  0  0  0  0
  -25.5154  -29.2657   20.8393 C   0  0  0  0  0  0  0  0  0  0  0  0
  -24.7692  -18.3937   16.9400 C   0  0  0  0  0  0  0  0  0  0  0  0
  -22.3240   -8.3418   22.2115 C   0  0  0  0  0  0  0  0  0  0  0  0
  -27.6352  -28.1669   20.3825 C   0  0  0  0  0  0  0  0  0  0  0  0
  -21.2948   -6.4257   23.1011 C   0  0  0  0  0  0  0  0  0  0  0  0
  -21.3718   -3.6840   23.6110 C   0  0  0  0  0  0  0  0  0  0  0  0
  -21.2230   -5.9580   24.4133 C   0  0  0  0  0  0  0  0  0  0  0  0
  -25.4830  -19.5865   16.9733 C   0  0  0  0  0  0  0  0  0  0  0  0
  -25.6429  -10.0694   20.2371 C   0  0  0  0  0  0  0  0  0  0  0  0
  -26.3350  -17.4744   18.4761 C   0  0  0  0  0  0  0  0  0  0  0  0
  -26.6084  -19.6464   17.7793 C   0  0  0  0  0  0  0  0  0  0  0  0
  -27.3083  -10.4850   18.8629 C   0  0  0  0  0  0  0  0  0  0  0  0
  -26.0737   -8.3721   18.3534 C   0  0  0  0  0  0  0  0  0  0  0  0
  -28.9370  -22.5464   18.3501 C   0  0  0  0  0  0  0  0  0  0  0  0
  -28.4683  -21.1323   18.5377 C   0  0  0  0  0  0  0  0  0  0  0  0
  -24.4028  -31.6393   23.0203 C   0  0  0  0  0  0  0  0  0  0  0  0
  -21.9135  -30.4655   21.3034 C   0  0  0  0  0  0  0  0  0  0  0  0
  -20.8026  -28.2593   18.9485 C   0  0  0  0  0  0  0  0  0  0  0  0
  -27.8716  -16.3050   20.0940 C   0  0  0  0  0  0  0  0  0  0  0  0
  -23.3190  -35.4429   26.2476 C   0  0  0  0  0  0  0  0  0  0  0  0
  -25.3046  -31.7740   20.6698 C   0  0  0  0  0  0  0  0  0  0  0  0
  -24.0630  -29.1472   21.2203 C   0  0  0  0  0  0  0  0  0  0  0  0
  -22.5846  -34.2099   25.7273 C   0  0  0  0  0  0  0  0  0  0  0  0
  -30.0783  -13.6944   21.0903 C   0  0  0  0  0  0  0  0  0  0  0  0
  -23.4720  -32.9741   25.8370 C   0  0  0  0  0  0  0  0  0  0  0  0
  -29.2549  -12.4222   20.8762 C   0  0  0  0  0  0  0  0  0  0  0  0
  -29.2158  -14.8501   21.5945 C   0  0  0  0  0  0  0  0  0  0  0  0
  -27.2041  -13.8665   20.5673 C   0  0  0  0  0  0  0  0  0  0  0  0
  -24.7386  -33.1271   24.9862 C   0  0  1  0  0  0  0  0  0  0  0  0
  -24.0695  -31.6392   21.5552 C   0  0  1  0  0  0  0  0  0  0  0  0
  -28.0177  -12.6929   19.9978 C   0  0  2  0  0  0  0  0  0  0  0  0
  -23.5497  -18.2711   16.0912 C   0  0  0  0  0  0  0  0  0  0  0  0
  -18.7104  -27.5090   17.7836 C   0  0  0  0  0  0  0  0  0  0  0  0
  -21.0724  -28.9345   23.8052 C   0  0  0  0  0  0  0  0  0  0  0  0
  -19.6044  -27.5140   22.3577 C   0  0  0  0  0  0  0  0  0  0  0  0
  -19.1849  -29.9669   22.5301 C   0  0  0  0  0  0  0  0  0  0  0  0
  -21.8605  -29.0396   16.2969 C   0  0  0  0  0  0  0  0  0  0  0  0
  -27.9511  -23.6352   18.7158 C   0  0  0  0  0  0  0  0  0  0  0  0
  -27.6810  -25.8364   19.9107 C   0  0  0  0  0  0  0  0  0  1  0  0
  -21.1926  -29.1409   21.2344 C   0  0  1  0  0  0  0  0  0  0  0  0
  -19.9077  -28.4455   17.7365 C   0  0  2  0  0  0  0  0  0  0  0  0
  -28.6480  -24.9171   19.1707 C   0  0  2  0  0  0  0  0  0  0  0  0
  -20.2915  -28.8911   22.4766 C   0  0  0  0  0  0  0  0  0  0  0  0
  -26.1597  -11.2202   20.6761 N   0  0  0  0  0  0  0  0  0  0  0  0
  -27.0544  -18.6174   18.5342 N   0  0  0  0  0  0  0  0  0  0  0  0
  -27.1707  -11.4466   19.8202 N   0  0  0  0  0  0  0  0  0  0  0  0
  -23.3145  -30.4131   21.2891 N   0  0  0  0  0  0  0  0  0  0  0  0
  -28.0653  -15.0508   20.7107 N   0  0  0  0  0  0  0  0  0  0  0  0
  -28.2742  -10.5569   17.9224 N   0  0  0  0  0  0  0  0  0  0  0  0
  -25.0164   -7.5389   18.7436 N   0  0  0  0  0  0  0  0  0  0  0  0
  -27.3300  -20.8624   17.8090 N   0  0  0  0  0  0  0  0  0  0  0  0
  -26.7632  -16.3674   19.2501 N   0  0  0  0  0  0  0  0  0  0  0  0
  -24.4394  -32.8983   23.5888 N   0  0  0  0  0  0  0  0  0  0  0  0
  -20.4750  -29.1324   19.9642 N   0  0  0  0  0  0  0  0  0  0  0  0
  -20.6684  -28.1731   16.4843 N   0  3  0  0  0  0  0  0  0  0  0  0
  -26.7819   -8.0458   17.3708 O   0  0  0  0  0  0  0  0  0  0  0  0
  -30.0667  -22.7082   17.9140 O   0  0  0  0  0  0  0  0  0  0  0  0
  -29.1171  -20.4391   19.3035 O   0  0  0  0  0  0  0  0  0  0  0  0
  -24.6099  -30.5759   23.5929 O   0  0  0  0  0  0  0  0  0  0  0  0
  -21.2576  -31.5087   21.3605 O   0  0  0  0  0  0  0  0  0  0  0  0
  -21.6999  -27.4206   18.9915 O   0  0  0  0  0  0  0  0  0  0  0  0
  -28.6483  -17.2456   20.2782 O   0  0  0  0  0  0  0  0  0  0  0  0
  -29.1267  -25.6009   18.0107 O   0  0  0  0  0  0  0  0  0  0  0  0
  -21.2559   -7.7863   22.8464 O   0  0  0  0  0  0  0  0  0  0  0  0
  -28.3723  -27.0271   20.2860 O   0  0  0  0  0  0  0  0  0  1  0  0
  -21.4073   -2.3675   23.8555 F   0  0  0  0  0  0  0  0  0  0  0  0
  -21.1158   -6.8208   25.4331 F   0  0  0  0  0  0  0  0  0  0  0  0
  -25.0898  -20.6415   16.2465 F   0  0  0  0  0  0  0  0  0  0  0  0
  1  2  1  0  0  0  0
  1  5  2  0  0  0  0
  2  6  2  0  0  0  0
  3  8  2  0  0  0  0
  3 16  1  0  0  0  0
  4  9  1  0  0  0  0
  4 16  2  0  0  0  0
  5 18  1  0  0  0  0
  6 20  1  0  0  0  0
  7 10  2  0  0  0  0
  7 19  1  0  0  0  0
  8 23  1  0  0  0  0
  9 23  2  0  0  0  0
 10 24  1  0  0  0  0
 11 12  2  0  0  0  0
 11 25  1  0  0  0  0
 12 26  1  0  0  0  0
 13 21  1  0  0  0  0
 13 24  2  0  0  0  0
 14 22  2  0  0  0  0
 14 30  1  0  0  0  0
 15 26  2  0  0  0  0
 15 27  1  0  0  0  0
 16 29  1  0  0  0  0
 17 29  1  0  0  0  0
 17 32  2  0  0  0  0
 17 33  1  0  0  0  0
 18 20  2  0  0  0  0
 18 40  1  0  0  0  0
 19 21  2  0  0  0  0
 19 41  1  0  0  0  0
 20 49  1  0  0  0  0
 21 42  1  0  0  0  0
 22 28  1  0  0  0  0
 22 52  1  0  0  0  0
 23 84  1  0  0  0  0
 24 85  1  0  0  0  0
 25 27  2  0  0  0  0
 25 84  1  0  0  0  0
 26 86  1  0  0  0  0
 27 87  1  0  0  0  0
 28 31  2  0  0  0  0
 28 88  1  0  0  0  0
 29 64  2  0  0  0  0
 30 65  2  0  0  0  0
 30 72  1  0  0  0  0
 31 65  1  0  0  0  0
 31 71  1  0  0  0  0
 32 66  1  0  0  0  0
 32 69  1  0  0  0  0
 33 70  1  0  0  0  0
 33 76  2  0  0  0  0
 34 35  1  0  0  0  0
 34 58  1  0  0  0  0
 34 77  2  0  0  0  0
 35 71  1  0  0  0  0
 35 78  2  0  0  0  0
 36 50  1  0  0  0  0
 36 73  1  0  0  0  0
 36 79  2  0  0  0  0
 37 60  1  0  0  0  0
 37 67  1  0  0  0  0
 37 80  2  0  0  0  0
 38 61  1  0  0  0  0
 38 74  1  0  0  0  0
 38 81  2  0  0  0  0
 39 68  1  0  0  0  0
 39 72  1  0  0  0  0
 39 82  2  0  0  0  0
 40 43  1  0  0  0  0
 41 50  1  0  0  0  0
 42 67  1  0  0  0  0
 43 45  1  0  0  0  0
 44 46  1  0  0  0  0
 44 47  1  0  0  0  0
 45 49  1  0  0  0  0
 46 51  1  0  0  0  0
 47 68  1  0  0  0  0
 48 51  1  0  0  0  0
 48 68  1  0  0  0  0
 49 73  1  0  0  0  0
 50 67  1  0  0  0  0
 51 66  1  0  0  0  0
 53 61  1  0  0  0  0
 54 63  1  0  0  0  0
 55 63  1  0  0  0  0
 56 63  1  0  0  0  0
 57 75  1  0  0  0  0
 58 62  1  0  0  0  0
 59 62  1  0  0  0  0
 59 85  1  0  0  0  0
 60 63  1  0  0  0  0
 60 74  1  0  0  0  0
 61 75  1  0  0  0  0
 62 83  1  0  0  0  0
 64 66  1  0  0  0  0
M  CHG  1  75   1
M  ISO  4  39 100  59 101  72 100  85 101
M  END
> <Batch ID>
0176

> <Smiles>
CNC(C)C(=O)NC(C(=O)N1Cc2cc([101O:1][101CH2:1]C(O)CC(=O)C(=O)Nc3nc([100NH:0][100C:0](=O)N4CCCC(n5nc(-c6ccc(Oc7ccc(F)cc7F)cc6)c(C(N)=O)c5N)C4)cc(C)c3F)ccc2CC1C(=O)NC1CCCc2ccccc21)C(C)(C)C

> <Shape>
0.316

> <Color>
0.096

> <Negative vol penalty>
0.000

$$$$

  -OEChem-04052304383D

 89 98  0     1  0  0  0  0  0999 V2000
  -28.3328  -19.2555   17.2873 C   0  0  0  0  0  0  0  0  0  0  0  0
  -27.2704  -19.9117   17.9006 C   0  0  0  0  0  0  0  0  0  0  0  0
  -23.0459  -16.6917   22.8919 C   0  0  0  0  0  0  0  0  0  0  0  0
  -24.1714  -18.4572   21.6865 C   0  0  0  0  0  0  0  0  0  0  0  0
  -29.6249  -19.4022   17.7900 C   0  0  0  0  0  0  0  0  0  0  0  0
  -27.4995  -20.7143   19.0176 C   0  0  0  0  0  0  0  0  0  0  0  0
  -25.7269  -27.6964   18.9937 C   0  0  0  0  0  0  0  0  0  0  0  0
  -23.7488  -15.7395   22.1538 C   0  0  0  0  0  0  0  0  0  0  0  0
  -24.8744  -17.5050   20.9484 C   0  0  0  0  0  0  0  0  0  0  0  0
  -25.2235  -28.9889   19.1422 C   0  0  0  0  0  0  0  0  0  0  0  0
  -27.2306  -15.5413   18.9964 C   0  0  0  0  0  0  0  0  0  0  0  0
  -28.5992  -15.7409   18.8154 C   0  0  0  0  0  0  0  0  0  0  0  0
  -26.1878  -29.1218   21.3558 C   0  0  0  0  0  0  0  0  0  0  0  0
  -28.9231  -15.6905   21.2091 C   0  0  0  0  0  0  0  0  0  0  0  0
  -23.2571  -18.0505   22.6582 C   0  0  0  0  0  0  0  0  0  0  0  0
  -22.9181  -19.6208   24.6399 C   0  0  0  0  0  0  0  0  0  0  0  0
  -29.8714  -20.2147   18.9079 C   0  0  0  0  0  0  0  0  0  0  0  0
  -26.4767  -27.1167   20.0210 C   0  0  0  0  0  0  0  0  0  0  0  0
  -28.7960  -20.8710   19.5365 C   0  0  0  0  0  0  0  0  0  0  0  0
  -26.7052  -27.8321   21.2079 C   0  0  0  0  0  0  0  0  0  0  0  0
  -24.6631  -16.1462   21.1821 C   0  0  0  0  0  0  0  0  0  0  0  0
  -25.4532  -29.6997   20.3204 C   0  0  0  0  0  0  0  0  0  0  0  0
  -26.7083  -15.4163   20.2838 C   0  0  0  0  0  0  0  0  0  0  0  0
  -29.4455  -15.8155   19.9217 C   0  0  0  0  0  0  0  0  0  0  0  0
  -27.5545  -15.4909   21.3901 C   0  0  0  0  0  0  0  0  0  0  0  0
  -22.5308  -19.0346   23.4200 C   0  0  0  0  0  0  0  0  0  0  0  0
  -19.0545  -28.3995   22.5315 C   0  0  0  0  0  0  0  0  0  0  0  0
  -21.8944  -20.4838   24.9463 C   0  0  0  0  0  0  0  0  0  0  0  0
  -20.4284  -28.4491   22.6410 C   0  0  0  0  0  0  0  0  0  0  0  0
  -19.4630  -26.2447   22.5356 C   0  0  0  0  0  0  0  0  0  0  0  0
  -24.0977  -19.4047   25.4257 C   0  0  0  0  0  0  0  0  0  0  0  0
  -28.4125  -24.1362   21.2231 C   0  0  0  0  0  0  0  0  0  0  0  0
  -29.9669  -26.6265   22.1134 C   0  0  0  0  0  0  0  0  0  0  0  0
  -22.7278  -29.4580   22.8333 C   0  0  0  0  0  0  0  0  0  0  0  0
  -31.5855  -29.5989   22.5401 C   0  0  0  0  0  0  0  0  0  0  0  0
  -18.1668  -24.0886   22.4025 C   0  0  0  0  0  0  0  0  0  0  0  0
  -31.2783  -20.3050   19.4436 C   0  0  0  0  0  0  0  0  0  0  0  0
  -26.9862  -25.7040   19.9291 C   0  0  0  0  0  0  0  0  0  0  0  0
  -27.4878  -27.1555   22.2999 C   0  0  0  0  0  0  0  0  0  0  0  0
  -31.4905  -21.4721   20.4045 C   0  0  0  0  0  0  0  0  0  0  0  0
  -16.6510  -31.1221   23.8048 C   0  0  0  0  0  0  0  0  0  0  0  0
  -17.1533  -20.8884   23.5894 C   0  0  0  0  0  0  0  0  0  0  0  0
  -15.4996  -30.8252   22.8480 C   0  0  0  0  0  0  0  0  0  0  0  0
  -30.3579  -21.5367   21.4242 C   0  0  0  0  0  0  0  0  0  0  0  0
  -17.6390  -29.9580   23.8702 C   0  0  0  0  0  0  0  0  0  0  0  0
  -18.4736  -20.1400   23.7866 C   0  0  0  0  0  0  0  0  0  0  0  0
  -17.1962  -21.8013   22.3653 C   0  0  0  0  0  0  0  0  0  0  0  0
  -19.6474  -21.9890   22.5254 C   0  0  0  0  0  0  0  0  0  0  0  0
  -16.0043  -30.4348   21.4685 C   0  0  0  0  0  0  0  0  0  0  0  0
  -29.0079  -21.7701   20.7352 C   0  0  1  0  0  0  0  0  0  0  0  0
  -18.1445  -29.5620   22.4753 C   0  0  2  0  0  0  0  0  0  0  0  0
  -28.3485  -25.5078   20.6180 C   0  0  1  0  0  0  0  0  0  0  0  0
  -19.6747  -21.1059   23.7836 C   0  0  2  0  0  0  0  0  0  0  0  0
  -33.6822  -30.5786   23.5103 C   0  0  0  0  0  0  0  0  0  0  0  0
  -23.2307  -32.0294   19.1842 C   0  0  0  0  0  0  0  0  0  0  0  0
  -28.8073  -26.3213   24.9180 C   0  0  0  0  0  0  0  0  0  0  0  0
  -30.3993  -28.0917   25.6921 C   0  0  0  0  0  0  0  0  0  0  0  0
  -31.2754  -25.9489   24.7630 C   0  0  0  0  0  0  0  0  0  0  0  0
  -32.4623  -30.6264   19.9068 C   0  0  0  0  0  0  0  0  0  0  0  0
  -23.3299  -30.8562   22.9031 C   0  0  0  0  0  0  0  0  0  0  0  0
  -23.0246  -31.7217   21.6776 C   0  0  0  0  0  0  0  0  0  0  0  0
  -30.2206  -27.6365   23.2037 C   0  0  1  0  0  0  0  0  0  0  0  0
  -33.0191  -30.0143   22.2634 C   0  0  2  0  0  0  0  0  0  0  0  0
  -23.5475  -31.1223   20.3663 C   0  0  2  0  0  0  0  0  0  1  0  0
  -30.1574  -27.0048   24.6230 C   0  0  0  0  0  0  0  0  0  0  0  0
  -21.3530  -19.4868   22.9815 N   0  0  0  0  0  0  0  0  0  0  0  0
  -18.4991  -27.1363   22.4705 N   0  0  0  0  0  0  0  0  0  0  0  0
  -20.9913  -20.3663   23.9311 N   0  0  0  0  0  0  0  0  0  0  0  0
  -28.6353  -26.4368   21.7243 N   0  0  0  0  0  0  0  0  0  0  0  0
  -18.3576  -22.6909   22.4334 N   0  0  0  0  0  0  0  0  0  0  0  0
  -21.6877  -21.3240   25.9825 N   0  0  0  0  0  0  0  0  0  0  0  0
  -25.0479  -18.4833   24.9649 N   0  0  0  0  0  0  0  0  0  0  0  0
  -21.3414  -29.5269   22.7289 N   0  0  0  0  0  0  0  0  0  0  0  0
  -19.3412  -24.8333   22.5067 N   0  0  0  0  0  0  0  0  0  0  0  0
  -28.8671  -23.1600   20.3571 N   0  0  0  0  0  0  0  0  0  0  0  0
  -31.4974  -28.2673   22.8868 N   0  0  0  0  0  0  0  0  0  0  0  0
  -16.9477  -29.2832   21.5973 N   0  3  0  0  0  0  0  0  0  0  0  0
  -33.0604  -31.0548   21.1974 N   0  3  0  0  0  0  0  0  0  0  0  0
  -24.2952  -19.9987   26.5128 O   0  0  0  0  0  0  0  0  0  0  0  0
  -28.0759  -23.9744   22.3902 O   0  0  0  0  0  0  0  0  0  0  0  0
  -30.9210  -26.0167   21.6221 O   0  0  0  0  0  0  0  0  0  0  0  0
  -23.4231  -28.4477   22.8472 O   0  0  0  0  0  0  0  0  0  0  0  0
  -30.6389  -30.3788   22.4605 O   0  0  0  0  0  0  0  0  0  0  0  0
  -17.0420  -24.5883   22.3192 O   0  0  0  0  0  0  0  0  0  0  0  0
  -25.3495  -15.2174   20.4618 O   0  0  0  0  0  0  0  0  0  0  0  0
  -24.9627  -30.9629   20.4569 O   0  0  0  0  0  0  0  0  0  1  0  0
  -30.7599  -16.0057   19.7477 F   0  0  0  0  0  0  0  0  0  0  0  0
  -27.0587  -15.3703   22.6292 F   0  0  0  0  0  0  0  0  0  0  0  0
  -21.0610  -26.8552   22.6716 S   0  0  0  0  0  0  0  0  0  0  0  0
  1  2  1  0  0  0  0
  1  5  2  0  0  0  0
  2  6  2  0  0  0  0
  3  8  2  0  0  0  0
  3 15  1  0  0  0  0
  4  9  1  0  0  0  0
  4 15  2  0  0  0  0
  5 17  1  0  0  0  0
  6 19  1  0  0  0  0
  7 10  2  0  0  0  0
  7 18  1  0  0  0  0
  8 21  1  0  0  0  0
  9 21  2  0  0  0  0
 10 22  1  0  0  0  0
 11 12  2  0  0  0  0
 11 23  1  0  0  0  0
 12 24  1  0  0  0  0
 13 20  1  0  0  0  0
 13 22  2  0  0  0  0
 14 24  2  0  0  0  0
 14 25  1  0  0  0  0
 15 26  1  0  0  0  0
 16 26  1  0  0  0  0
 16 28  2  0  0  0  0
 16 31  1  0  0  0  0
 17 19  2  0  0  0  0
 17 37  1  0  0  0  0
 18 20  2  0  0  0  0
 18 38  1  0  0  0  0
 19 50  1  0  0  0  0
 20 39  1  0  0  0  0
 21 85  1  0  0  0  0
 22 86  1  0  0  0  0
 23 25  2  0  0  0  0
 23 85  1  0  0  0  0
 24 87  1  0  0  0  0
 25 88  1  0  0  0  0
 26 66  2  0  0  0  0
 27 29  2  0  0  0  0
 27 51  1  0  0  0  0
 27 67  1  0  0  0  0
 28 68  1  0  0  0  0
 28 71  1  0  0  0  0
 29 73  1  0  0  0  0
 29 89  1  0  0  0  0
 30 67  2  0  0  0  0
 30 74  1  0  0  0  0
 30 89  1  0  0  0  0
 31 72  1  0  0  0  0
 31 79  2  0  0  0  0
 32 52  1  0  0  0  0
 32 75  1  0  0  0  0
 32 80  2  0  0  0  0
 33 62  1  0  0  0  0
 33 69  1  0  0  0  0
 33 81  2  0  0  0  0
 34 60  1  0  0  0  0
 34 73  1  0  0  0  0
 34 82  2  0  0  0  0
 35 63  1  0  0  0  0
 35 76  1  0  0  0  0
 35 83  2  0  0  0  0
 36 70  1  0  0  0  0
 36 74  1  0  0  0  0
 36 84  2  0  0  0  0
 37 40  1  0  0  0  0
 38 52  1  0  0  0  0
 39 69  1  0  0  0  0
 40 44  1  0  0  0  0
 41 43  1  0  0  0  0
 41 45  1  0  0  0  0
 42 46  1  0  0  0  0
 42 47  1  0  0  0  0
 43 49  1  0  0  0  0
 44 50  1  0  0  0  0
 45 51  1  0  0  0  0
 46 53  1  0  0  0  0
 47 70  1  0  0  0  0
 48 53  1  0  0  0  0
 48 70  1  0  0  0  0
 49 77  1  0  0  0  0
 50 75  1  0  0  0  0
 51 77  1  0  0  0  0
 52 69  1  0  0  0  0
 53 68  1  0  0  0  0
 54 63  1  0  0  0  0
 55 64  1  0  0  0  0
 56 65  1  0  0  0  0
 57 65  1  0  0  0  0
 58 65  1  0  0  0  0
 59 78  1  0  0  0  0
 60 61  1  0  0  0  0
 61 64  1  0  0  0  0
 62 65  1  0  0  0  0
 62 76  1  0  0  0  0
 63 78  1  0  0  0  0
 64 86  1  0  0  0  0
 66 68  1  0  0  0  0
M  CHG  2  77   1  78   1
M  ISO  4  36 100  64 101  74 100  86 101
M  END
> <Batch ID>
0176

> <Smiles>
CNC(C)C(=O)NC(C(=O)N1Cc2cc([101O:1][101CH:1](C)CCC(=O)Nc3sc([100NH:0][100C:0](=O)N4CCCC(n5nc(-c6ccc(Oc7ccc(F)cc7F)cc6)c(C(N)=O)c5N)C4)nc3C3CCCCN3)ccc2CC1C(=O)NC1CCCc2ccccc21)C(C)(C)C

> <Shape>
0.199

> <Color>
0.081

> <Negative vol penalty>
0.000

$$$$

  -OEChem-04052304383D

 85 93  0     1  0  0  0  0  0999 V2000
  -29.8434  -22.9735   17.5062 C   0  0  0  0  0  0  0  0  0  0  0  0
  -29.7851  -23.4592   18.8085 C   0  0  0  0  0  0  0  0  0  0  0  0
  -24.4735  -12.1798   20.2445 C   0  0  0  0  0  0  0  0  0  0  0  0
  -25.0212  -12.8399   22.5031 C   0  0  0  0  0  0  0  0  0  0  0  0
  -29.1651  -23.6373   16.4848 C   0  0  0  0  0  0  0  0  0  0  0  0
  -29.0492  -24.6097   19.0900 C   0  0  0  0  0  0  0  0  0  0  0  0
  -26.2084  -24.1284   23.2545 C   0  0  0  0  0  0  0  0  0  0  0  0
  -24.6164  -10.8391   20.6017 C   0  0  0  0  0  0  0  0  0  0  0  0
  -25.1640  -11.4992   22.8603 C   0  0  0  0  0  0  0  0  0  0  0  0
  -26.8549  -24.2498   24.4838 C   0  0  0  0  0  0  0  0  0  0  0  0
  -24.4838   -7.2291   21.0084 C   0  0  0  0  0  0  0  0  0  0  0  0
  -23.5074   -6.3339   20.5716 C   0  0  0  0  0  0  0  0  0  0  0  0
  -26.0745  -26.5254   24.6626 C   0  0  0  0  0  0  0  0  0  0  0  0
  -21.8239   -7.5853   21.7704 C   0  0  0  0  0  0  0  0  0  0  0  0
  -30.6397  -21.7224   23.8797 C   0  0  0  0  0  0  0  0  0  0  0  0
  -24.6759  -13.1803   21.1951 C   0  0  0  0  0  0  0  0  0  0  0  0
  -23.3554  -15.3407   20.8848 C   0  0  0  0  0  0  0  0  0  0  0  0
  -28.4127  -24.7910   16.7556 C   0  0  0  0  0  0  0  0  0  0  0  0
  -25.4981  -25.2099   22.7140 C   0  0  0  0  0  0  0  0  0  0  0  0
  -28.3613  -25.2903   18.0710 C   0  0  0  0  0  0  0  0  0  0  0  0
  -25.4178  -26.4143   23.4275 C   0  0  0  0  0  0  0  0  0  0  0  0
  -24.9616  -10.4987   21.9096 C   0  0  0  0  0  0  0  0  0  0  0  0
  -26.7904  -25.4493   25.1867 C   0  0  0  0  0  0  0  0  0  0  0  0
  -24.1304   -8.3023   21.8263 C   0  0  0  0  0  0  0  0  0  0  0  0
  -22.1774   -6.5120   20.9525 C   0  0  0  0  0  0  0  0  0  0  0  0
  -22.8004   -8.4804   22.2073 C   0  0  0  0  0  0  0  0  0  0  0  0
  -30.2837  -21.2022   22.6019 C   0  0  0  0  0  0  0  0  0  0  0  0
  -24.5290  -14.5654   20.8266 C   0  0  0  0  0  0  0  0  0  0  0  0
  -23.7391  -16.5789   20.4308 C   0  0  0  0  0  0  0  0  0  0  0  0
  -29.4254  -20.1293   22.7008 C   0  0  0  0  0  0  0  0  0  0  0  0
  -30.0397  -21.0273   24.9067 C   0  0  0  0  0  0  0  0  0  0  0  0
  -22.0365  -14.9744   21.3112 C   0  0  0  0  0  0  0  0  0  0  0  0
  -25.7548  -26.9706   20.0800 C   0  0  0  0  0  0  0  0  0  0  0  0
  -22.9709  -28.2569   21.1371 C   0  0  0  0  0  0  0  0  0  0  0  0
  -20.8942  -28.9083   23.7657 C   0  0  0  0  0  0  0  0  0  0  0  0
  -28.8474  -23.6883   26.8084 C   0  0  0  0  0  0  0  0  0  0  0  0
  -28.9832  -19.4411   20.3182 C   0  0  0  0  0  0  0  0  0  0  0  0
  -27.7351  -25.5011   15.6105 C   0  0  0  0  0  0  0  0  0  0  0  0
  -24.7839  -25.0542   21.3994 C   0  0  0  0  0  0  0  0  0  0  0  0
  -24.6512  -27.5987   22.9003 C   0  0  0  0  0  0  0  0  0  0  0  0
  -26.6715  -26.5007   16.0575 C   0  0  0  0  0  0  0  0  0  0  0  0
  -26.9096  -18.6849   17.5244 C   0  0  0  0  0  0  0  0  0  0  0  0
  -27.2003  -27.3707   17.1934 C   0  0  0  0  0  0  0  0  0  0  0  0
  -25.9530  -17.6176   18.0612 C   0  0  0  0  0  0  0  0  0  0  0  0
  -28.3143  -18.5310   18.1047 C   0  0  0  0  0  0  0  0  0  0  0  0
  -27.4212  -17.4085   20.1076 C   0  0  0  0  0  0  0  0  0  0  0  0
  -27.5533  -26.5213   18.4204 C   0  0  1  0  0  0  0  0  0  0  0  0
  -24.5188  -26.3850   20.7022 C   0  0  1  0  0  0  0  0  0  0  0  0
  -25.9777  -17.5620   19.6013 C   0  0  2  0  0  0  0  0  0  0  0  0
  -18.7089  -30.0084   24.3242 C   0  0  0  0  0  0  0  0  0  0  0  0
  -27.5578  -24.7898   28.6397 C   0  0  0  0  0  0  0  0  0  0  0  0
  -24.2928  -30.9969   20.9016 C   0  0  0  0  0  0  0  0  0  0  0  0
  -22.4618  -31.9261   22.3342 C   0  0  0  0  0  0  0  0  0  0  0  0
  -21.9186  -30.9134   20.1201 C   0  0  0  0  0  0  0  0  0  0  0  0
  -19.7360  -26.3701   24.7532 C   0  0  0  0  0  0  0  0  0  0  0  0
  -22.6001  -29.4115   22.0363 C   0  0  1  0  0  0  0  0  0  0  0  0
  -19.3997  -28.7085   23.9423 C   0  0  2  0  0  0  0  0  0  0  0  0
  -27.5512  -24.3882   27.1744 C   0  0  1  0  0  0  0  0  0  1  0  0
  -22.8345  -30.7904   21.3573 C   0  0  0  0  0  0  0  0  0  0  0  0
  -25.5795  -15.2534   20.3713 N   0  0  0  0  0  0  0  0  0  0  0  0
  -25.0673  -16.4740   20.1392 N   0  0  0  0  0  0  0  0  0  0  0  0
  -23.9751  -27.3991   21.6078 N   0  0  0  0  0  0  0  0  0  0  0  0
  -28.2597  -18.4902   19.5677 N   0  0  0  0  0  0  0  0  0  0  0  0
  -23.0664  -17.7363   20.2564 N   0  0  0  0  0  0  0  0  0  0  0  0
  -21.8161  -13.6610   21.7478 N   0  0  0  0  0  0  0  0  0  0  0  0
  -28.8289  -19.3240   21.6991 N   0  0  0  0  0  0  0  0  0  0  0  0
  -26.3541  -26.1522   19.1416 N   0  0  0  0  0  0  0  0  0  0  0  0
  -21.2219  -29.1775   22.4537 N   0  0  0  0  0  0  0  0  0  0  0  0
  -28.7774  -22.2617   26.9262 N   0  0  0  0  0  0  0  0  0  0  0  0
  -19.1341  -27.7037   25.0104 N   0  3  0  0  0  0  0  0  0  0  0  0
  -21.0779  -15.7832   21.2898 O   0  0  0  0  0  0  0  0  0  0  0  0
  -26.1357  -28.0831   20.4248 O   0  0  0  0  0  0  0  0  0  0  0  0
  -22.3859  -28.1171   20.0601 O   0  0  0  0  0  0  0  0  0  0  0  0
  -21.6906  -28.8367   24.6990 O   0  0  0  0  0  0  0  0  0  0  0  0
  -29.8504  -24.2884   26.4377 O   0  0  0  0  0  0  0  0  0  0  0  0
  -29.6661  -20.3132   19.7750 O   0  0  0  0  0  0  0  0  0  0  0  0
  -31.3271  -21.8617   26.9930 O   0  0  0  0  0  0  0  0  0  0  0  0
  -29.7692  -19.8993   27.2475 O   0  0  0  0  0  0  0  0  0  0  0  0
  -25.1009   -9.1905   22.2586 O   0  0  0  0  0  0  0  0  0  0  0  0
  -27.4211  -25.5708   26.3864 O   0  0  0  0  0  0  0  0  0  1  0  0
  -21.2396   -5.6533   20.5317 F   0  0  0  0  0  0  0  0  0  0  0  0
  -22.4546   -9.5102   22.9919 F   0  0  0  0  0  0  0  0  0  0  0  0
  -30.7316  -21.7000   21.4476 F   0  0  0  0  0  0  0  0  0  0  0  0
  -29.0522  -19.7531   24.3292 S   0  0  0  0  0  0  0  0  0  0  0  0
  -30.0844  -21.1898   26.6660 S   0  0  0  0  0  0  0  0  0  0  0  0
  1  2  1  0  0  0  0
  1  5  2  0  0  0  0
  2  6  2  0  0  0  0
  3  8  2  0  0  0  0
  3 16  1  0  0  0  0
  4  9  1  0  0  0  0
  4 16  2  0  0  0  0
  5 18  1  0  0  0  0
  6 20  1  0  0  0  0
  7 10  2  0  0  0  0
  7 19  1  0  0  0  0
  8 22  1  0  0  0  0
  9 22  2  0  0  0  0
 10 23  1  0  0  0  0
 11 12  2  0  0  0  0
 11 24  1  0  0  0  0
 12 25  1  0  0  0  0
 13 21  1  0  0  0  0
 13 23  2  0  0  0  0
 14 25  2  0  0  0  0
 14 26  1  0  0  0  0
 15 27  1  0  0  0  0
 15 31  2  0  0  0  0
 16 28  1  0  0  0  0
 17 28  1  0  0  0  0
 17 29  2  0  0  0  0
 17 32  1  0  0  0  0
 18 20  2  0  0  0  0
 18 38  1  0  0  0  0
 19 21  2  0  0  0  0
 19 39  1  0  0  0  0
 20 47  1  0  0  0  0
 21 40  1  0  0  0  0
 22 79  1  0  0  0  0
 23 80  1  0  0  0  0
 24 26  2  0  0  0  0
 24 79  1  0  0  0  0
 25 81  1  0  0  0  0
 26 82  1  0  0  0  0
 27 30  2  0  0  0  0
 27 83  1  0  0  0  0
 28 60  2  0  0  0  0
 29 61  1  0  0  0  0
 29 64  1  0  0  0  0
 30 66  1  0  0  0  0
 30 84  1  0  0  0  0
 31 84  1  0  0  0  0
 31 85  1  0  0  0  0
 32 65  1  0  0  0  0
 32 71  2  0  0  0  0
 33 48  1  0  0  0  0
 33 67  1  0  0  0  0
 33 72  2  0  0  0  0
 34 56  1  0  0  0  0
 34 62  1  0  0  0  0
 34 73  2  0  0  0  0
 35 57  1  0  0  0  0
 35 68  1  0  0  0  0
 35 74  2  0  0  0  0
 36 58  1  0  0  0  0
 36 69  1  0  0  0  0
 36 75  2  0  0  0  0
 37 63  1  0  0  0  0
 37 66  1  0  0  0  0
 37 76  2  0  0  0  0
 38 41  1  0  0  0  0
 39 48  1  0  0  0  0
 40 62  1  0  0  0  0
 41 43  1  0  0  0  0
 42 44  1  0  0  0  0
 42 45  1  0  0  0  0
 43 47  1  0  0  0  0
 44 49  1  0  0  0  0
 45 63  1  0  0  0  0
 46 49  1  0  0  0  0
 46 63  1  0  0  0  0
 47 67  1  0  0  0  0
 48 62  1  0  0  0  0
 49 61  1  0  0  0  0
 50 57  1  0  0  0  0
 51 58  1  0  0  0  0
 52 59  1  0  0  0  0
 53 59  1  0  0  0  0
 54 59  1  0  0  0  0
 55 70  1  0  0  0  0
 56 59  1  0  0  0  0
 56 68  1  0  0  0  0
 57 70  1  0  0  0  0
 58 80  1  0  0  0  0
 60 61  1  0  0  0  0
 69 85  1  0  0  0  0
 77 85  2  0  0  0  0
 78 85  2  0  0  0  0
M  CHG  1  70   1
M  ISO  4  37 100  58 101  66 100  80 101
M  END
> <Batch ID>
0176

> <Smiles>
CNC(C)C(=O)NC(C(=O)N1Cc2cc([101O:1][101CH:1](C)C(=O)NS(=O)(=O)c3cc(F)c([100NH:0][100C:0](=O)N4CCCC(n5nc(-c6ccc(Oc7ccc(F)cc7F)cc6)c(C(N)=O)c5N)C4)s3)ccc2CC1C(=O)NC1CCCc2ccccc21)C(C)(C)C

> <Shape>
0.212

> <Color>
0.063

> <Negative vol penalty>
0.000

$$$$

  -OEChem-04052304383D

 87 95  0     1  0  0  0  0  0999 V2000
  -21.7999   -8.1003   24.7136 C   0  0  0  0  0  0  0  0  0  0  0  0
  -23.1117   -8.5224   24.9048 C   0  0  0  0  0  0  0  0  0  0  0  0
  -23.5085  -28.5883   21.5820 C   0  0  0  0  0  0  0  0  0  0  0  0
  -25.7257  -29.5446   21.5012 C   0  0  0  0  0  0  0  0  0  0  0  0
  -21.1880   -8.2706   23.4725 C   0  0  0  0  0  0  0  0  0  0  0  0
  -23.8127   -9.1140   23.8545 C   0  0  0  0  0  0  0  0  0  0  0  0
  -28.8177  -14.0777   22.5786 C   0  0  0  0  0  0  0  0  0  0  0  0
  -23.0719  -29.6657   22.3528 C   0  0  0  0  0  0  0  0  0  0  0  0
  -25.2891  -30.6221   22.2720 C   0  0  0  0  0  0  0  0  0  0  0  0
  -30.0326  -14.2360   21.9133 C   0  0  0  0  0  0  0  0  0  0  0  0
  -24.6471  -31.2562   25.5303 C   0  0  0  0  0  0  0  0  0  0  0  0
  -25.4585  -31.6676   26.5876 C   0  0  0  0  0  0  0  0  0  0  0  0
  -28.8472  -14.5507   19.8361 C   0  0  0  0  0  0  0  0  0  0  0  0
  -25.6612  -33.8546   25.5811 C   0  0  0  0  0  0  0  0  0  0  0  0
  -30.8945  -23.0431   16.2406 C   0  0  0  0  0  0  0  0  0  0  0  0
  -24.8355  -28.5277   21.1563 C   0  0  0  0  0  0  0  0  0  0  0  0
  -25.2793  -27.3149   18.9563 C   0  0  0  0  0  0  0  0  0  0  0  0
  -21.8785   -8.8733   22.4092 C   0  0  0  0  0  0  0  0  0  0  0  0
  -27.6068  -14.1439   21.8746 C   0  0  0  0  0  0  0  0  0  0  0  0
  -23.2098   -9.2912   22.5976 C   0  0  0  0  0  0  0  0  0  0  0  0
  -27.6182  -14.3954   20.4952 C   0  0  0  0  0  0  0  0  0  0  0  0
  -32.2558  -21.2954   15.3042 C   0  0  0  0  0  0  0  0  0  0  0  0
  -23.9622  -30.6826   22.6978 C   0  0  0  0  0  0  0  0  0  0  0  0
  -30.0476  -14.4697   20.5413 C   0  0  0  0  0  0  0  0  0  0  0  0
  -24.3428  -32.1440   24.4983 C   0  0  0  0  0  0  0  0  0  0  0  0
  -25.9655  -32.9669   26.6130 C   0  0  0  0  0  0  0  0  0  0  0  0
  -24.8498  -33.4432   24.5237 C   0  0  0  0  0  0  0  0  0  0  0  0
  -31.6795  -22.5566   15.2012 C   0  0  0  0  0  0  0  0  0  0  0  0
  -25.2872  -27.4147   20.3605 C   0  0  0  0  0  0  0  0  0  0  0  0
  -30.7178  -22.2357   17.3526 C   0  0  0  0  0  0  0  0  0  0  0  0
  -32.0183  -20.5663   16.4582 C   0  0  0  0  0  0  0  0  0  0  0  0
  -25.8063  -26.0733   18.6973 C   0  0  0  0  0  0  0  0  0  0  0  0
  -24.8354  -28.2602   17.9739 C   0  0  0  0  0  0  0  0  0  0  0  0
  -25.2175  -12.1205   21.3259 C   0  0  0  0  0  0  0  0  0  0  0  0
  -32.5956  -16.1009   18.5449 C   0  0  0  0  0  0  0  0  0  0  0  0
  -23.8456  -14.7216   19.9569 C   0  0  0  0  0  0  0  0  0  0  0  0
  -24.2522  -17.7644   18.4658 C   0  0  0  0  0  0  0  0  0  0  0  0
  -29.6071  -22.1080   19.6102 C   0  0  0  0  0  0  0  0  0  0  0  0
  -21.1911   -8.9930   21.0721 C   0  0  0  0  0  0  0  0  0  0  0  0
  -26.3037  -13.9976   22.6115 C   0  0  0  0  0  0  0  0  0  0  0  0
  -26.3449  -14.4957   19.6969 C   0  0  0  0  0  0  0  0  0  0  0  0
  -21.8772   -9.9690   20.1197 C   0  0  0  0  0  0  0  0  0  0  0  0
  -26.8059  -22.2055   21.8058 C   0  0  0  0  0  0  0  0  0  0  0  0
  -23.3834   -9.7285   20.1027 C   0  0  0  0  0  0  0  0  0  0  0  0
  -26.1604  -23.5612   21.5100 C   0  0  0  0  0  0  0  0  0  0  0  0
  -28.3303  -22.2757   21.7354 C   0  0  0  0  0  0  0  0  0  0  0  0
  -28.2236  -24.1957   20.1955 C   0  0  0  0  0  0  0  0  0  0  0  0
  -23.9948   -9.9598   21.4898 C   0  0  1  0  0  0  0  0  0  0  0  0
  -25.1506  -13.5722   21.7076 C   0  0  1  0  0  0  0  0  0  0  0  0
  -26.6866  -24.1601   20.1909 C   0  0  2  0  0  0  0  0  0  0  0  0
  -23.6022  -19.9647   17.4493 C   0  0  0  0  0  0  0  0  0  0  0  0
  -23.4330  -13.0299   17.4513 C   0  0  0  0  0  0  0  0  0  0  0  0
  -23.0263  -15.1449   16.1748 C   0  0  0  0  0  0  0  0  0  0  0  0
  -21.5025  -14.5054   18.0434 C   0  0  0  0  0  0  0  0  0  0  0  0
  -24.2673  -19.1169   21.0982 C   0  0  0  0  0  0  0  0  0  0  0  0
  -31.2342  -15.4648   18.7364 C   0  0  0  0  0  0  0  0  0  1  0  0
  -32.4170  -18.4501   17.7185 C   0  0  0  0  0  0  0  0  0  0  0  0
  -23.8366  -15.3209   18.5713 C   0  0  1  0  0  0  0  0  0  0  0  0
  -23.5698  -19.1000   18.6999 C   0  0  2  0  0  0  0  0  0  0  0  0
  -32.7638  -17.0159   17.3505 C   0  0  0  0  0  0  0  0  0  0  0  0
  -22.9738  -14.4965   17.5746 C   0  0  0  0  0  0  0  0  0  0  0  0
  -25.7800  -26.3234   20.9522 N   0  0  0  0  0  0  0  0  0  0  0  0
  -31.2614  -21.0054   17.4887 N   0  0  0  0  0  0  0  0  0  0  0  0
  -26.0866  -25.5260   19.9148 N   0  0  0  0  0  0  0  0  0  0  0  0
  -25.0966  -14.3393   20.4615 N   0  0  0  0  0  0  0  0  0  0  0  0
  -28.7557  -22.8491   20.4567 N   0  0  0  0  0  0  0  0  0  0  0  0
  -33.0517  -20.7994   14.2545 N   0  0  0  0  0  0  0  0  0  0  0  0
  -26.0526  -25.4071   17.5493 N   0  0  0  0  0  0  0  0  0  0  0  0
  -24.3210  -29.4879   18.4125 N   0  0  0  0  0  0  0  0  0  0  0  0
  -29.9177  -22.7412   18.4072 N   0  0  0  0  0  0  0  0  0  0  0  0
  -32.5876  -19.3081   16.5694 N   0  0  0  0  0  0  0  0  0  0  0  0
  -24.1336  -11.3764   21.7512 N   0  0  0  0  0  0  0  0  0  0  0  0
  -23.4078  -16.7065   18.7286 N   0  0  0  0  0  0  0  0  0  0  0  0
  -24.2465  -19.8414   19.8015 N   0  3  0  0  0  0  0  0  0  0  0  0
  -24.8779  -28.0165   16.7441 O   0  0  0  0  0  0  0  0  0  0  0  0
  -26.1805  -11.7064   20.6911 O   0  0  0  0  0  0  0  0  0  0  0  0
  -33.5232  -15.9102   19.3314 O   0  0  0  0  0  0  0  0  0  0  0  0
  -22.7827  -14.6039   20.5717 O   0  0  0  0  0  0  0  0  0  0  0  0
  -25.4166  -17.6691   18.0842 O   0  0  0  0  0  0  0  0  0  0  0  0
  -30.0077  -20.9822   19.9170 O   0  0  0  0  0  0  0  0  0  0  0  0
  -23.5364  -31.7343   23.4497 O   0  0  0  0  0  0  0  0  0  0  0  0
  -31.2321  -14.6240   19.8894 O   0  0  0  0  0  0  0  0  0  1  0  0
  -26.7434  -33.3623   27.6292 F   0  0  0  0  0  0  0  0  0  0  0  0
  -24.5599  -34.3009   23.5357 F   0  0  0  0  0  0  0  0  0  0  0  0
  -31.8729  -23.3091   14.1089 F   0  0  0  0  0  0  0  0  0  0  0  0
  -34.0469  -16.9699   16.8980 F   0  0  0  0  0  0  0  0  0  0  0  0
  -31.9800  -16.6120   16.3152 F   0  0  0  0  0  0  0  0  0  0  0  0
  1  2  1  0  0  0  0
  1  5  2  0  0  0  0
  2  6  2  0  0  0  0
  3  8  2  0  0  0  0
  3 16  1  0  0  0  0
  4  9  1  0  0  0  0
  4 16  2  0  0  0  0
  5 18  1  0  0  0  0
  6 20  1  0  0  0  0
  7 10  2  0  0  0  0
  7 19  1  0  0  0  0
  8 23  1  0  0  0  0
  9 23  2  0  0  0  0
 10 24  1  0  0  0  0
 11 12  2  0  0  0  0
 11 25  1  0  0  0  0
 12 26  1  0  0  0  0
 13 21  1  0  0  0  0
 13 24  2  0  0  0  0
 14 26  2  0  0  0  0
 14 27  1  0  0  0  0
 15 28  2  0  0  0  0
 15 30  1  0  0  0  0
 16 29  1  0  0  0  0
 17 29  1  0  0  0  0
 17 32  2  0  0  0  0
 17 33  1  0  0  0  0
 18 20  2  0  0  0  0
 18 39  1  0  0  0  0
 19 21  2  0  0  0  0
 19 40  1  0  0  0  0
 20 48  1  0  0  0  0
 21 41  1  0  0  0  0
 22 28  1  0  0  0  0
 22 31  2  0  0  0  0
 22 67  1  0  0  0  0
 23 81  1  0  0  0  0
 24 82  1  0  0  0  0
 25 27  2  0  0  0  0
 25 81  1  0  0  0  0
 26 83  1  0  0  0  0
 27 84  1  0  0  0  0
 28 85  1  0  0  0  0
 29 62  2  0  0  0  0
 30 63  2  0  0  0  0
 30 70  1  0  0  0  0
 31 63  1  0  0  0  0
 31 71  1  0  0  0  0
 32 64  1  0  0  0  0
 32 68  1  0  0  0  0
 33 69  1  0  0  0  0
 33 75  2  0  0  0  0
 34 49  1  0  0  0  0
 34 72  1  0  0  0  0
 34 76  2  0  0  0  0
 35 56  1  0  0  0  0
 35 60  1  0  0  0  0
 35 77  2  0  0  0  0
 36 58  1  0  0  0  0
 36 65  1  0  0  0  0
 36 78  2  0  0  0  0
 37 59  1  0  0  0  0
 37 73  1  0  0  0  0
 37 79  2  0  0  0  0
 38 66  1  0  0  0  0
 38 70  1  0  0  0  0
 38 80  2  0  0  0  0
 39 42  1  0  0  0  0
 40 49  1  0  0  0  0
 41 65  1  0  0  0  0
 42 44  1  0  0  0  0
 43 45  1  0  0  0  0
 43 46  1  0  0  0  0
 44 48  1  0  0  0  0
 45 50  1  0  0  0  0
 46 66  1  0  0  0  0
 47 50  1  0  0  0  0
 47 66  1  0  0  0  0
 48 72  1  0  0  0  0
 49 65  1  0  0  0  0
 50 64  1  0  0  0  0
 51 59  1  0  0  0  0
 52 61  1  0  0  0  0
 53 61  1  0  0  0  0
 54 61  1  0  0  0  0
 55 74  1  0  0  0  0
 56 82  1  0  0  0  0
 57 60  1  0  0  0  0
 57 71  1  0  0  0  0
 58 61  1  0  0  0  0
 58 73  1  0  0  0  0
 59 74  1  0  0  0  0
 60 86  1  0  0  0  0
 60 87  1  0  0  0  0
 62 64  1  0  0  0  0
M  CHG  1  74   1
M  ISO  4  38 100  56 101  70 100  82 101
M  END
> <Batch ID>
0176

> <Smiles>
CNC(C)C(=O)NC(C(=O)N1Cc2cc([101O:1][101CH2:1]C(=O)C(F)(F)CNc3nc([100NH:0][100C:0](=O)N4CCCC(n5nc(-c6ccc(Oc7ccc(F)cc7F)cc6)c(C(N)=O)c5N)C4)cc(F)c3N)ccc2CC1C(=O)NC1CCCc2ccccc21)C(C)(C)C

> <Shape>
0.230

> <Color>
0.088

> <Negative vol penalty>
0.000

$$$$

  -OEChem-04052304383D

 87 95  0     1  0  0  0  0  0999 V2000
  -25.1976  -32.4478   20.9900 C   0  0  0  0  0  0  0  0  0  0  0  0
  -26.0182  -31.5819   21.7058 C   0  0  0  0  0  0  0  0  0  0  0  0
  -22.9694   -9.8768   20.0213 C   0  0  0  0  0  0  0  0  0  0  0  0
  -23.6754   -9.9908   22.3290 C   0  0  0  0  0  0  0  0  0  0  0  0
  -24.0165  -31.9750   20.4195 C   0  0  0  0  0  0  0  0  0  0  0  0
  -25.6575  -30.2429   21.8525 C   0  0  0  0  0  0  0  0  0  0  0  0
  -29.5400  -27.0879   21.0672 C   0  0  0  0  0  0  0  0  0  0  0  0
  -22.1788   -8.7666   20.3180 C   0  0  0  0  0  0  0  0  0  0  0  0
  -22.8848   -8.8805   22.6257 C   0  0  0  0  0  0  0  0  0  0  0  0
  -30.4636  -26.9449   22.1018 C   0  0  0  0  0  0  0  0  0  0  0  0
  -21.3335   -5.8580   23.9172 C   0  0  0  0  0  0  0  0  0  0  0  0
  -21.8933   -4.8570   24.7111 C   0  0  0  0  0  0  0  0  0  0  0  0
  -29.4001  -24.8815   22.7579 C   0  0  0  0  0  0  0  0  0  0  0  0
  -23.6290   -4.5215   23.0643 C   0  0  0  0  0  0  0  0  0  0  0  0
  -31.9178  -17.3454   21.5658 C   0  0  0  0  0  0  0  0  0  0  0  0
  -23.7177  -10.4889   21.0268 C   0  0  0  0  0  0  0  0  0  0  0  0
  -24.1530  -12.9894   20.7711 C   0  0  0  0  0  0  0  0  0  0  0  0
  -23.6460  -30.6274   20.5510 C   0  0  0  0  0  0  0  0  0  0  0  0
  -28.5312  -26.1327   20.8766 C   0  0  0  0  0  0  0  0  0  0  0  0
  -24.4696  -29.7520   21.2843 C   0  0  0  0  0  0  0  0  0  0  0  0
  -28.4665  -25.0133   21.7186 C   0  0  0  0  0  0  0  0  0  0  0  0
  -22.1365   -8.2684   21.6202 C   0  0  0  0  0  0  0  0  0  0  0  0
  -30.3919  -25.8431   22.9491 C   0  0  0  0  0  0  0  0  0  0  0  0
  -21.9215   -6.1907   22.6968 C   0  0  0  0  0  0  0  0  0  0  0  0
  -23.0410   -4.1888   24.2847 C   0  0  0  0  0  0  0  0  0  0  0  0
  -23.0692   -5.5225   22.2704 C   0  0  0  0  0  0  0  0  0  0  0  0
  -32.0353  -18.6369   22.1558 C   0  0  0  0  0  0  0  0  0  0  0  0
  -24.5350  -11.6354   20.7209 C   0  0  0  0  0  0  0  0  0  0  0  0
  -30.8831  -19.0137   22.8101 C   0  0  0  0  0  0  0  0  0  0  0  0
  -25.2796  -13.6783   20.3933 C   0  0  0  0  0  0  0  0  0  0  0  0
  -30.6801  -16.7841   21.7917 C   0  0  0  0  0  0  0  0  0  0  0  0
  -31.3850  -21.4335   22.9681 C   0  0  0  0  0  0  0  0  0  0  0  0
  -22.8925  -13.5724   21.1274 C   0  0  0  0  0  0  0  0  0  0  0  0
  -25.3539  -26.1794   20.9568 C   0  0  0  0  0  0  0  0  0  0  0  0
  -33.4323  -26.8002   24.1795 C   0  0  0  0  0  0  0  0  0  0  0  0
  -32.8720  -23.1470   23.0846 C   0  0  0  0  0  0  0  0  0  0  0  0
  -25.6712  -23.1226   19.9185 C   0  0  0  0  0  0  0  0  0  0  0  0
  -27.6106  -20.3229   19.7024 C   0  0  0  0  0  0  0  0  0  0  0  0
  -30.7744  -14.5423   20.6463 C   0  0  0  0  0  0  0  0  0  0  0  0
  -22.3363  -30.1733   19.9568 C   0  0  0  0  0  0  0  0  0  0  0  0
  -27.5589  -26.2877   19.7394 C   0  0  0  0  0  0  0  0  0  0  0  0
  -27.4150  -23.9492   21.5437 C   0  0  0  0  0  0  0  0  0  0  0  0
  -22.2137  -28.6562   19.8405 C   0  0  0  0  0  0  0  0  0  0  0  0
  -29.6292  -12.0350   18.3926 C   0  0  0  0  0  0  0  0  0  0  0  0
  -22.6534  -27.9841   21.1373 C   0  0  0  0  0  0  0  0  0  0  0  0
  -28.1703  -11.8189   18.8015 C   0  0  0  0  0  0  0  0  0  0  0  0
  -30.5237  -12.3014   19.6020 C   0  0  0  0  0  0  0  0  0  0  0  0
  -28.6124  -13.1705   20.8908 C   0  0  0  0  0  0  0  0  0  0  0  0
  -24.1250  -28.2872   21.4443 C   0  0  1  0  0  0  0  0  0  0  0  0
  -26.2591  -25.5190   19.9557 C   0  0  1  0  0  0  0  0  0  0  0  0
  -27.6617  -12.9629   19.7005 C   0  0  2  0  0  0  0  0  0  0  0  0
  -34.5855  -27.3377   23.3711 C   0  0  0  0  0  0  0  0  0  0  0  0
  -27.5840  -17.9707   18.8283 C   0  0  0  0  0  0  0  0  0  0  0  0
  -23.8974  -22.2778   22.2530 C   0  0  0  0  0  0  0  0  0  0  0  0
  -24.6745  -19.9240   21.9010 C   0  0  0  0  0  0  0  0  0  0  0  0
  -23.4160  -21.1028   20.0985 C   0  0  0  0  0  0  0  0  0  0  0  0
  -29.8914  -20.8469   17.8906 C   0  0  0  0  0  0  0  0  0  0  0  0
  -30.6041  -20.2912   23.5541 C   0  0  0  0  0  0  0  0  0  0  0  0
  -33.2266  -24.2690   24.0457 C   0  0  0  0  0  0  0  0  0  0  0  0
  -32.6690  -25.6163   23.5966 C   0  0  1  0  0  0  0  0  0  1  0  0
  -25.8039  -21.7751   20.5861 C   0  0  1  0  0  0  0  0  0  0  0  0
  -27.9457  -19.4176   18.5308 C   0  0  2  0  0  0  0  0  0  0  0  0
  -24.4667  -21.2908   21.2144 C   0  0  0  0  0  0  0  0  0  0  0  0
  -25.8050  -11.4717   20.3410 N   0  0  0  0  0  0  0  0  0  0  0  0
  -32.2188  -22.0995   23.6958 N   0  0  0  0  0  0  0  0  0  0  0  0
  -26.2307  -12.7318   20.1489 N   0  0  0  0  0  0  0  0  0  0  0  0
  -26.4834  -24.1490   20.4214 N   0  0  0  0  0  0  0  0  0  0  0  0
  -29.9819  -13.4002   20.4045 N   0  0  0  0  0  0  0  0  0  0  0  0
  -25.5394  -14.9951   20.2494 N   0  0  0  0  0  0  0  0  0  0  0  0
  -21.8409  -12.7199   21.4904 N   0  0  0  0  0  0  0  0  0  0  0  0
  -30.1419  -15.5352   21.3938 N   0  0  0  0  0  0  0  0  0  0  0  0
  -24.9915  -27.4701   20.6221 N   0  0  0  0  0  0  0  0  0  0  0  0
  -26.3523  -20.8730   19.5792 N   0  0  0  0  0  0  0  0  0  0  0  0
  -29.4026  -19.4844   18.2246 N   0  3  0  0  0  0  0  0  0  0  0  0
  -22.6994  -14.8117   21.1082 O   0  0  0  0  0  0  0  0  0  0  0  0
  -25.0086  -25.5629   21.9580 O   0  0  0  0  0  0  0  0  0  0  0  0
  -33.1274  -27.3064   25.2596 O   0  0  0  0  0  0  0  0  0  0  0  0
  -33.1611  -23.2237   21.8915 O   0  0  0  0  0  0  0  0  0  0  0  0
  -24.8814  -23.2577   18.9807 O   0  0  0  0  0  0  0  0  0  0  0  0
  -28.3861  -20.5192   20.6355 O   0  0  0  0  0  0  0  0  0  0  0  0
  -31.9194  -14.6444   20.1986 O   0  0  0  0  0  0  0  0  0  0  0  0
  -21.3650   -7.1853   21.9101 O   0  0  0  0  0  0  0  0  0  0  0  0
  -31.2917  -25.7014   23.9601 O   0  0  0  0  0  0  0  0  0  1  0  0
  -23.5793   -3.2287   25.0479 F   0  0  0  0  0  0  0  0  0  0  0  0
  -23.6392   -5.8385   21.0995 F   0  0  0  0  0  0  0  0  0  0  0  0
  -33.1346  -19.3898   22.0817 F   0  0  0  0  0  0  0  0  0  0  0  0
  -29.6663  -17.8129   22.7116 S   0  0  0  0  0  0  0  0  0  0  0  0
  1  2  1  0  0  0  0
  1  5  2  0  0  0  0
  2  6  2  0  0  0  0
  3  8  2  0  0  0  0
  3 16  1  0  0  0  0
  4  9  1  0  0  0  0
  4 16  2  0  0  0  0
  5 18  1  0  0  0  0
  6 20  1  0  0  0  0
  7 10  2  0  0  0  0
  7 19  1  0  0  0  0
  8 22  1  0  0  0  0
  9 22  2  0  0  0  0
 10 23  1  0  0  0  0
 11 12  2  0  0  0  0
 11 24  1  0  0  0  0
 12 25  1  0  0  0  0
 13 21  1  0  0  0  0
 13 23  2  0  0  0  0
 14 25  2  0  0  0  0
 14 26  1  0  0  0  0
 15 27  1  0  0  0  0
 15 31  2  0  0  0  0
 16 28  1  0  0  0  0
 17 28  1  0  0  0  0
 17 30  2  0  0  0  0
 17 33  1  0  0  0  0
 18 20  2  0  0  0  0
 18 40  1  0  0  0  0
 19 21  2  0  0  0  0
 19 41  1  0  0  0  0
 20 49  1  0  0  0  0
 21 42  1  0  0  0  0
 22 82  1  0  0  0  0
 23 83  1  0  0  0  0
 24 26  2  0  0  0  0
 24 82  1  0  0  0  0
 25 84  1  0  0  0  0
 26 85  1  0  0  0  0
 27 29  2  0  0  0  0
 27 86  1  0  0  0  0
 28 64  2  0  0  0  0
 29 58  1  0  0  0  0
 29 87  1  0  0  0  0
 30 66  1  0  0  0  0
 30 69  1  0  0  0  0
 31 71  1  0  0  0  0
 31 87  1  0  0  0  0
 32 58  1  0  0  0  0
 32 65  2  0  0  0  0
 33 70  1  0  0  0  0
 33 75  2  0  0  0  0
 34 50  1  0  0  0  0
 34 72  1  0  0  0  0
 34 76  2  0  0  0  0
 35 52  1  0  0  0  0
 35 60  1  0  0  0  0
 35 77  2  0  0  0  0
 36 59  1  0  0  0  0
 36 65  1  0  0  0  0
 36 78  2  0  0  0  0
 37 61  1  0  0  0  0
 37 67  1  0  0  0  0
 37 79  2  0  0  0  0
 38 62  1  0  0  0  0
 38 73  1  0  0  0  0
 38 80  2  0  0  0  0
 39 68  1  0  0  0  0
 39 71  1  0  0  0  0
 39 81  2  0  0  0  0
 40 43  1  0  0  0  0
 41 50  1  0  0  0  0
 42 67  1  0  0  0  0
 43 45  1  0  0  0  0
 44 46  1  0  0  0  0
 44 47  1  0  0  0  0
 45 49  1  0  0  0  0
 46 51  1  0  0  0  0
 47 68  1  0  0  0  0
 48 51  1  0  0  0  0
 48 68  1  0  0  0  0
 49 72  1  0  0  0  0
 50 67  1  0  0  0  0
 51 66  1  0  0  0  0
 53 62  1  0  0  0  0
 54 63  1  0  0  0  0
 55 63  1  0  0  0  0
 56 63  1  0  0  0  0
 57 74  1  0  0  0  0
 59 60  1  0  0  0  0
 60 83  1  0  0  0  0
 61 63  1  0  0  0  0
 61 73  1  0  0  0  0
 62 74  1  0  0  0  0
 64 66  1  0  0  0  0
M  CHG  1  74   1
M  ISO  4  39 100  60 101  71 100  83 101
M  END
> <Batch ID>
0176

> <Smiles>
CNC(C)C(=O)NC(C(=O)N1Cc2cc([101O:1][101CH:1](CC(=O)NC=Cc3sc([100NH:0][100C:0](=O)N4CCCC(n5nc(-c6ccc(Oc7ccc(F)cc7F)cc6)c(C(N)=O)c5N)C4)cc3F)C(C)=O)ccc2CC1C(=O)NC1CCCc2ccccc21)C(C)(C)C

> <Shape>
0.290

> <Color>
0.202

> <Negative vol penalty>
0.000

$$$$

  -OEChem-04052304383D

 85 93  0     1  0  0  0  0  0999 V2000
  -23.7169  -34.7661   13.7614 C   0  0  0  0  0  0  0  0  0  0  0  0
  -24.3784  -33.6064   14.1526 C   0  0  0  0  0  0  0  0  0  0  0  0
  -24.2939   -8.7778   21.4278 C   0  0  0  0  0  0  0  0  0  0  0  0
  -24.8398  -10.0295   23.4209 C   0  0  0  0  0  0  0  0  0  0  0  0
  -23.6289  -35.8465   14.6382 C   0  0  0  0  0  0  0  0  0  0  0  0
  -24.9533  -33.5269   15.4205 C   0  0  0  0  0  0  0  0  0  0  0  0
  -25.3526  -28.5571   18.9768 C   0  0  0  0  0  0  0  0  0  0  0  0
  -23.9992   -7.6611   22.2099 C   0  0  0  0  0  0  0  0  0  0  0  0
  -24.5450   -8.9128   24.2030 C   0  0  0  0  0  0  0  0  0  0  0  0
  -26.3851  -27.6491   19.2073 C   0  0  0  0  0  0  0  0  0  0  0  0
  -21.4419   -6.5738   24.1363 C   0  0  0  0  0  0  0  0  0  0  0  0
  -20.2760   -5.8665   23.8430 C   0  0  0  0  0  0  0  0  0  0  0  0
  -27.0256  -28.8866   21.1765 C   0  0  0  0  0  0  0  0  0  0  0  0
  -30.0510  -18.6812   20.0835 C   0  0  0  0  0  0  0  0  0  0  0  0
  -27.6725  -18.8657   20.4648 C   0  0  0  0  0  0  0  0  0  0  0  0
  -21.5872   -3.8829   23.4148 C   0  0  0  0  0  0  0  0  0  0  0  0
  -24.7143   -9.9620   22.0333 C   0  0  0  0  0  0  0  0  0  0  0  0
  -29.1094  -20.7685   20.8539 C   0  0  0  0  0  0  0  0  0  0  0  0
  -24.1325  -12.1345   20.8293 C   0  0  0  0  0  0  0  0  0  0  0  0
  -24.1947  -35.7767   15.9211 C   0  0  0  0  0  0  0  0  0  0  0  0
  -25.1552  -29.6447   19.8398 C   0  0  0  0  0  0  0  0  0  0  0  0
  -24.8740  -34.6080   16.3148 C   0  0  0  0  0  0  0  0  0  0  0  0
  -25.9883  -29.8055   20.9562 C   0  0  0  0  0  0  0  0  0  0  0  0
  -28.7792  -18.1084   20.0809 C   0  0  0  0  0  0  0  0  0  0  0  0
  -24.1247   -7.7286   23.5975 C   0  0  0  0  0  0  0  0  0  0  0  0
  -27.2237  -27.8154   20.3056 C   0  0  0  0  0  0  0  0  0  0  0  0
  -22.6805   -5.9357   24.0687 C   0  0  0  0  0  0  0  0  0  0  0  0
  -20.3487   -4.5210   23.4823 C   0  0  0  0  0  0  0  0  0  0  0  0
  -30.2161  -20.0113   20.4701 C   0  0  0  0  0  0  0  0  0  0  0  0
  -27.8375  -20.1957   20.8513 C   0  0  0  0  0  0  0  0  0  0  0  0
  -22.7531   -4.5903   23.7080 C   0  0  0  0  0  0  0  0  0  0  0  0
  -25.0195  -11.1158   21.2259 C   0  0  0  0  0  0  0  0  0  0  0  0
  -24.9043  -12.9899   20.0816 C   0  0  0  0  0  0  0  0  0  0  0  0
  -28.6750  -23.1802   20.6074 C   0  0  0  0  0  0  0  0  0  0  0  0
  -29.2844  -22.1761   21.2632 C   0  0  0  0  0  0  0  0  0  0  0  0
  -22.7358  -12.2933   21.1115 C   0  0  0  0  0  0  0  0  0  0  0  0
  -28.8032  -24.6238   20.9715 C   0  0  0  0  0  0  0  0  0  0  0  0
  -25.2387  -32.8061   19.5199 C   0  0  0  0  0  0  0  0  0  0  0  0
  -24.1757  -32.7538   22.5842 C   0  0  0  0  0  0  0  0  0  0  0  0
  -23.9354  -31.0632   25.5390 C   0  0  0  0  0  0  0  0  0  0  0  0
  -29.6025  -15.8676   19.2763 C   0  0  0  0  0  0  0  0  0  0  0  0
  -24.1150  -36.9877   16.8165 C   0  0  0  0  0  0  0  0  0  0  0  0
  -24.0202  -30.6002   19.5924 C   0  0  0  0  0  0  0  0  0  0  0  0
  -25.8059  -30.9449   21.9242 C   0  0  0  0  0  0  0  0  0  0  0  0
  -24.4264  -36.6847   18.2799 C   0  0  0  0  0  0  0  0  0  0  0  0
  -29.5976  -12.4544   18.2629 C   0  0  0  0  0  0  0  0  0  0  0  0
  -25.6814  -35.8248   18.3916 C   0  0  0  0  0  0  0  0  0  0  0  0
  -28.3331  -11.8857   18.9108 C   0  0  0  0  0  0  0  0  0  0  0  0
  -30.2837  -13.4806   19.1629 C   0  0  0  0  0  0  0  0  0  0  0  0
  -28.1531  -13.9982   20.2862 C   0  0  0  0  0  0  0  0  0  0  0  0
  -25.4890  -34.4744   17.6910 C   0  0  1  0  0  0  0  0  0  0  0  0
  -24.2315  -31.9615   20.2478 C   0  0  1  0  0  0  0  0  0  0  0  0
  -27.3917  -13.0081   19.3898 C   0  0  2  0  0  0  0  0  0  0  0  0
  -23.0425  -31.2929   27.8729 C   0  0  0  0  0  0  0  0  0  0  0  0
  -26.5050  -34.5934   23.2916 C   0  0  0  0  0  0  0  0  0  0  0  0
  -26.1334  -34.0223   25.7008 C   0  0  0  0  0  0  0  0  0  0  0  0
  -24.3415  -35.1749   24.4033 C   0  0  0  0  0  0  0  0  0  0  0  0
  -22.1258  -28.7462   25.1990 C   0  0  0  0  0  0  0  0  0  0  0  0
  -28.0293  -25.5876   20.0961 C   0  0  0  0  0  0  0  0  0  1  0  0
  -24.8323  -32.7378   23.9434 C   0  0  1  0  0  0  0  0  0  0  0  0
  -22.7562  -30.8078   26.4603 C   0  0  2  0  0  0  0  0  0  0  0  0
  -25.4579  -34.1116   24.3156 C   0  0  0  0  0  0  0  0  0  0  0  0
  -26.2598  -11.3049   20.7680 N   0  0  0  0  0  0  0  0  0  0  0  0
  -26.1578  -12.4523   20.0758 N   0  0  0  0  0  0  0  0  0  0  0  0
  -24.6860  -31.8560   21.6358 N   0  0  0  0  0  0  0  0  0  0  0  0
  -29.3321  -14.5152   19.5738 N   0  0  0  0  0  0  0  0  0  0  0  0
  -24.6263  -14.1419   19.4351 N   0  0  0  0  0  0  0  0  0  0  0  0
  -22.0978  -11.3222   21.8952 N   0  0  0  0  0  0  0  0  0  0  0  0
  -28.6108  -16.7578   19.6870 N   0  0  0  0  0  0  0  0  0  0  0  0
  -24.6982  -33.5856   18.5152 N   0  0  0  0  0  0  0  0  0  0  0  0
  -23.8177  -32.2694   24.8813 N   0  0  0  0  0  0  0  0  0  0  0  0
  -22.4493  -29.3506   26.5170 N   0  3  0  0  0  0  0  0  0  0  0  0
  -22.0693  -13.2590   20.6677 O   0  0  0  0  0  0  0  0  0  0  0  0
  -29.4898  -25.0029   21.9157 O   0  0  0  0  0  0  0  0  0  0  0  0
  -26.4187  -32.7554   19.8467 O   0  0  0  0  0  0  0  0  0  0  0  0
  -23.2397  -33.5292   22.3739 O   0  0  0  0  0  0  0  0  0  0  0  0
  -24.8693  -30.2735   25.4178 O   0  0  0  0  0  0  0  0  0  0  0  0
  -30.6248  -16.2081   18.6755 O   0  0  0  0  0  0  0  0  0  0  0  0
  -30.0952  -22.3377   22.3670 O   0  0  0  0  0  0  0  0  0  0  0  0
  -23.8369   -6.6391   24.3609 O   0  0  0  0  0  0  0  0  0  0  0  0
  -28.2327  -26.9309   20.5325 O   0  0  0  0  0  0  0  0  0  1  0  0
  -19.2289   -3.8414   23.2022 F   0  0  0  0  0  0  0  0  0  0  0  0
  -31.4451  -20.5481   20.4659 F   0  0  0  0  0  0  0  0  0  0  0  0
  -26.7637  -20.9099   21.2190 F   0  0  0  0  0  0  0  0  0  0  0  0
  -23.9400   -3.9715   23.6426 F   0  0  0  0  0  0  0  0  0  0  0  0
  1  2  1  0  0  0  0
  1  5  2  0  0  0  0
  2  6  2  0  0  0  0
  3  8  2  0  0  0  0
  3 17  1  0  0  0  0
  4  9  1  0  0  0  0
  4 17  2  0  0  0  0
  5 20  1  0  0  0  0
  6 22  1  0  0  0  0
  7 10  2  0  0  0  0
  7 21  1  0  0  0  0
  8 25  1  0  0  0  0
  9 25  2  0  0  0  0
 10 26  1  0  0  0  0
 11 12  2  0  0  0  0
 11 27  1  0  0  0  0
 12 28  1  0  0  0  0
 13 23  1  0  0  0  0
 13 26  2  0  0  0  0
 14 24  1  0  0  0  0
 14 29  2  0  0  0  0
 15 24  2  0  0  0  0
 15 30  1  0  0  0  0
 16 28  2  0  0  0  0
 16 31  1  0  0  0  0
 17 32  1  0  0  0  0
 18 29  1  0  0  0  0
 18 30  2  0  0  0  0
 18 35  1  0  0  0  0
 19 32  1  0  0  0  0
 19 33  2  0  0  0  0
 19 36  1  0  0  0  0
 20 22  2  0  0  0  0
 20 42  1  0  0  0  0
 21 23  2  0  0  0  0
 21 43  1  0  0  0  0
 22 51  1  0  0  0  0
 23 44  1  0  0  0  0
 24 69  1  0  0  0  0
 25 80  1  0  0  0  0
 26 81  1  0  0  0  0
 27 31  2  0  0  0  0
 27 80  1  0  0  0  0
 28 82  1  0  0  0  0
 29 83  1  0  0  0  0
 30 84  1  0  0  0  0
 31 85  1  0  0  0  0
 32 63  2  0  0  0  0
 33 64  1  0  0  0  0
 33 67  1  0  0  0  0
 34 35  2  0  0  0  0
 34 37  1  0  0  0  0
 35 79  1  0  0  0  0
 36 68  1  0  0  0  0
 36 73  2  0  0  0  0
 37 59  1  0  0  0  0
 37 74  2  0  0  0  0
 38 52  1  0  0  0  0
 38 70  1  0  0  0  0
 38 75  2  0  0  0  0
 39 60  1  0  0  0  0
 39 65  1  0  0  0  0
 39 76  2  0  0  0  0
 40 61  1  0  0  0  0
 40 71  1  0  0  0  0
 40 77  2  0  0  0  0
 41 66  1  0  0  0  0
 41 69  1  0  0  0  0
 41 78  2  0  0  0  0
 42 45  1  0  0  0  0
 43 52  1  0  0  0  0
 44 65  1  0  0  0  0
 45 47  1  0  0  0  0
 46 48  1  0  0  0  0
 46 49  1  0  0  0  0
 47 51  1  0  0  0  0
 48 53  1  0  0  0  0
 49 66  1  0  0  0  0
 50 53  1  0  0  0  0
 50 66  1  0  0  0  0
 51 70  1  0  0  0  0
 52 65  1  0  0  0  0
 53 64  1  0  0  0  0
 54 61  1  0  0  0  0
 55 62  1  0  0  0  0
 56 62  1  0  0  0  0
 57 62  1  0  0  0  0
 58 72  1  0  0  0  0
 59 81  1  0  0  0  0
 60 62  1  0  0  0  0
 60 71  1  0  0  0  0
 61 72  1  0  0  0  0
 63 64  1  0  0  0  0
M  CHG  1  72   1
M  ISO  4  41 100  59 101  69 100  81 101
M  END
> <Batch ID>
0176

> <Smiles>
CNC(C)C(=O)NC(C(=O)N1Cc2cc([101O:1][101CH2:1]C(=O)CC(=O)c3c(F)cc([100NH:0][100C:0](=O)N4CCCC(n5nc(-c6ccc(Oc7ccc(F)cc7F)cc6)c(C(N)=O)c5N)C4)cc3F)ccc2CC1C(=O)NC1CCCc2ccccc21)C(C)(C)C

> <Shape>
0.301

> <Color>
0.111

> <Negative vol penalty>
0.000

$$$$

  -OEChem-04052304383D

 88 96  0     1  0  0  0  0  0999 V2000
  -24.3288   -8.2194   21.8849 C   0  0  0  0  0  0  0  0  0  0  0  0
  -24.9140   -9.3623   21.3494 C   0  0  0  0  0  0  0  0  0  0  0  0
  -21.8479  -29.5990   21.2217 C   0  0  0  0  0  0  0  0  0  0  0  0
  -23.0721  -28.2401   22.8002 C   0  0  0  0  0  0  0  0  0  0  0  0
  -22.9491   -8.1697   22.0789 C   0  0  0  0  0  0  0  0  0  0  0  0
  -24.1196  -10.4558   21.0065 C   0  0  0  0  0  0  0  0  0  0  0  0
  -26.0964  -14.8541   22.5529 C   0  0  0  0  0  0  0  0  0  0  0  0
  -20.6475  -29.0758   21.7021 C   0  0  0  0  0  0  0  0  0  0  0  0
  -21.8717  -27.7169   23.2807 C   0  0  0  0  0  0  0  0  0  0  0  0
  -27.1402  -15.3843   21.7958 C   0  0  0  0  0  0  0  0  0  0  0  0
  -18.6158  -29.5414   24.3645 C   0  0  0  0  0  0  0  0  0  0  0  0
  -17.5712  -30.4332   24.6079 C   0  0  0  0  0  0  0  0  0  0  0  0
  -25.5887  -16.8846   20.7184 C   0  0  0  0  0  0  0  0  0  0  0  0
  -30.6594  -22.9029   19.0236 C   0  0  0  0  0  0  0  0  0  0  0  0
  -16.1962  -29.2604   23.0045 C   0  0  0  0  0  0  0  0  0  0  0  0
  -23.0602  -29.1811   21.7706 C   0  0  0  0  0  0  0  0  0  0  0  0
  -24.9751  -30.8664   21.7377 C   0  0  0  0  0  0  0  0  0  0  0  0
  -22.1384   -9.2667   21.7473 C   0  0  0  0  0  0  0  0  0  0  0  0
  -24.7869  -15.3285   22.3904 C   0  0  0  0  0  0  0  0  0  0  0  0
  -22.7275  -10.4202   21.1951 C   0  0  0  0  0  0  0  0  0  0  0  0
  -24.5305  -16.3606   21.4765 C   0  0  0  0  0  0  0  0  0  0  0  0
  -31.3411  -22.8089   20.2368 C   0  0  0  0  0  0  0  0  0  0  0  0
  -31.3937  -23.9078   21.0943 C   0  0  0  0  0  0  0  0  0  0  0  0
  -30.0830  -25.1949   19.5250 C   0  0  0  0  0  0  0  0  0  0  0  0
  -20.6594  -28.1347   22.7317 C   0  0  0  0  0  0  0  0  0  0  0  0
  -26.8860  -16.3977   20.8763 C   0  0  0  0  0  0  0  0  0  0  0  0
  -18.4506  -28.5092   23.4410 C   0  0  0  0  0  0  0  0  0  0  0  0
  -16.3615  -30.2927   23.9279 C   0  0  0  0  0  0  0  0  0  0  0  0
  -30.0304  -24.0960   18.6676 C   0  0  0  0  0  0  0  0  0  0  0  0
  -17.2408  -28.3686   22.7610 C   0  0  0  0  0  0  0  0  0  0  0  0
  -30.7646  -25.1009   20.7384 C   0  0  0  0  0  0  0  0  0  0  0  0
  -24.3006  -29.7208   21.2743 C   0  0  0  0  0  0  0  0  0  0  0  0
  -26.0932  -30.9508   20.9445 C   0  0  0  0  0  0  0  0  0  0  0  0
  -28.5849  -17.9879   20.6402 C   0  0  0  0  0  0  0  0  0  1  0  0
  -24.6225  -31.7730   22.7910 C   0  0  0  0  0  0  0  0  0  0  0  0
  -29.6100  -18.6318   20.0608 C   0  0  0  0  0  0  0  0  0  0  0  0
  -30.2174  -19.7881   20.7944 C   0  0  0  0  0  0  0  0  0  0  0  0
  -22.0327  -14.0391   21.4654 C   0  0  0  0  0  0  0  0  0  0  0  0
  -20.8417  -16.9367   22.3069 C   0  0  0  0  0  0  0  0  0  0  0  0
  -21.4047  -20.2643   22.8140 C   0  0  0  0  0  0  0  0  0  0  0  0
  -29.2364  -26.9003   17.8754 C   0  0  0  0  0  0  0  0  0  0  0  0
  -20.6461   -9.1485   21.9311 C   0  0  0  0  0  0  0  0  0  0  0  0
  -23.6765  -14.7646   23.2339 C   0  0  0  0  0  0  0  0  0  0  0  0
  -23.1456  -16.9189   21.2789 C   0  0  0  0  0  0  0  0  0  0  0  0
  -19.9193  -10.4903   21.8905 C   0  0  0  0  0  0  0  0  0  0  0  0
  -27.6737  -29.8200   16.5675 C   0  0  0  0  0  0  0  0  0  0  0  0
  -20.4056  -11.3254   20.7103 C   0  0  0  0  0  0  0  0  0  0  0  0
  -26.6971  -30.2336   17.6709 C   0  0  0  0  0  0  0  0  0  0  0  0
  -27.7719  -28.3011   16.4373 C   0  0  0  0  0  0  0  0  0  0  0  0
  -27.0996  -28.0030   18.7885 C   0  0  0  0  0  0  0  0  0  0  0  0
  -21.9022  -11.6361   20.8338 C   0  0  1  0  0  0  0  0  0  0  0  0
  -22.2958  -14.9673   22.6174 C   0  0  1  0  0  0  0  0  0  0  0  0
  -27.0159  -29.5233   19.0011 C   0  0  2  0  0  0  0  0  0  0  0  0
  -33.4625  -21.4388   20.1162 C   0  0  0  0  0  0  0  0  0  0  0  0
  -20.2292  -22.3849   23.4610 C   0  0  0  0  0  0  0  0  0  0  0  0
  -19.6020  -17.0959   19.5234 C   0  0  0  0  0  0  0  0  0  0  0  0
  -19.2775  -19.5521   19.8845 C   0  0  0  0  0  0  0  0  0  0  0  0
  -18.1268  -17.9120   21.3707 C   0  0  0  0  0  0  0  0  0  0  0  0
  -23.1111  -20.6171   25.2062 C   0  0  0  0  0  0  0  0  0  0  0  0
  -32.0142  -21.5020   20.5968 C   0  0  2  0  0  0  0  0  0  0  0  0
  -20.6223  -18.2500   21.5955 C   0  0  1  0  0  0  0  0  0  0  0  0
  -21.0244  -21.1874   23.9575 C   0  0  2  0  0  0  0  0  0  0  0  0
  -19.4330  -18.1908   20.5956 C   0  0  0  0  0  0  0  0  0  0  0  0
  -24.9370  -29.1207   20.2649 N   0  0  0  0  0  0  0  0  0  0  0  0
  -26.0230  -29.8922   20.0874 N   0  0  0  0  0  0  0  0  0  0  0  0
  -22.0924  -16.3304   22.1225 N   0  0  0  0  0  0  0  0  0  0  0  0
  -28.0804  -27.6971   17.7353 N   0  0  0  0  0  0  0  0  0  0  0  0
  -32.0799  -23.8277   22.3260 N   0  0  0  0  0  0  0  0  0  0  0  0
  -27.1197  -31.8266   20.9035 N   0  0  0  0  0  0  0  0  0  0  0  0
  -23.4398  -31.5392   23.5058 N   0  0  0  0  0  0  0  0  0  0  0  0
  -29.4438  -26.4066   19.1630 N   0  0  0  0  0  0  0  0  0  0  0  0
  -31.2635  -20.3708   20.0998 N   0  0  0  0  0  0  0  0  0  0  0  0
  -22.1203  -12.6991   21.7912 N   0  0  0  0  0  0  0  0  0  0  0  0
  -20.4766  -19.2598   22.6383 N   0  0  0  0  0  0  0  0  0  0  0  0
  -22.2468  -21.6883   24.6473 N   0  3  0  0  0  0  0  0  0  0  0  0
  -25.3266  -32.7705   23.0785 O   0  0  0  0  0  0  0  0  0  0  0  0
  -29.8090  -20.1534   21.8933 O   0  0  0  0  0  0  0  0  0  0  0  0
  -21.7681  -14.5043   20.3630 O   0  0  0  0  0  0  0  0  0  0  0  0
  -19.9393  -16.4697   23.0064 O   0  0  0  0  0  0  0  0  0  0  0  0
  -22.4213  -20.4209   22.1413 O   0  0  0  0  0  0  0  0  0  0  0  0
  -30.0017  -26.6952   16.9298 O   0  0  0  0  0  0  0  0  0  0  0  0
  -30.1426  -18.2988   18.8347 O   0  0  0  0  0  0  0  0  0  0  0  0
  -19.4883  -27.6241   23.2010 O   0  0  0  0  0  0  0  0  0  0  0  0
  -27.9028  -16.9165   20.1356 O   0  0  0  0  0  0  0  0  0  1  0  0
  -15.3580  -31.1482   24.1630 F   0  0  0  0  0  0  0  0  0  0  0  0
  -29.3783  -24.1748   17.4988 F   0  0  0  0  0  0  0  0  0  0  0  0
  -17.0758  -27.3782   21.8735 F   0  0  0  0  0  0  0  0  0  0  0  0
  -30.8149  -26.1583   21.5631 F   0  0  0  0  0  0  0  0  0  0  0  0
  1  2  1  0  0  0  0
  1  5  2  0  0  0  0
  2  6  2  0  0  0  0
  3  8  2  0  0  0  0
  3 16  1  0  0  0  0
  4  9  1  0  0  0  0
  4 16  2  0  0  0  0
  5 18  1  0  0  0  0
  6 20  1  0  0  0  0
  7 10  2  0  0  0  0
  7 19  1  0  0  0  0
  8 25  1  0  0  0  0
  9 25  2  0  0  0  0
 10 26  1  0  0  0  0
 11 12  2  0  0  0  0
 11 27  1  0  0  0  0
 12 28  1  0  0  0  0
 13 21  1  0  0  0  0
 13 26  2  0  0  0  0
 14 22  1  0  0  0  0
 14 29  2  0  0  0  0
 15 28  2  0  0  0  0
 15 30  1  0  0  0  0
 16 32  1  0  0  0  0
 17 32  1  0  0  0  0
 17 33  2  0  0  0  0
 17 35  1  0  0  0  0
 18 20  2  0  0  0  0
 18 42  1  0  0  0  0
 19 21  2  0  0  0  0
 19 43  1  0  0  0  0
 20 51  1  0  0  0  0
 21 44  1  0  0  0  0
 22 23  2  0  0  0  0
 22 60  1  0  0  0  0
 23 31  1  0  0  0  0
 23 68  1  0  0  0  0
 24 29  1  0  0  0  0
 24 31  2  0  0  0  0
 24 71  1  0  0  0  0
 25 83  1  0  0  0  0
 26 84  1  0  0  0  0
 27 30  2  0  0  0  0
 27 83  1  0  0  0  0
 28 85  1  0  0  0  0
 29 86  1  0  0  0  0
 30 87  1  0  0  0  0
 31 88  1  0  0  0  0
 32 64  2  0  0  0  0
 33 65  1  0  0  0  0
 33 69  1  0  0  0  0
 34 36  2  0  0  0  0
 34 84  1  0  0  0  0
 35 70  1  0  0  0  0
 35 76  2  0  0  0  0
 36 37  1  0  0  0  0
 36 82  1  0  0  0  0
 37 72  1  0  0  0  0
 37 77  2  0  0  0  0
 38 52  1  0  0  0  0
 38 73  1  0  0  0  0
 38 78  2  0  0  0  0
 39 61  1  0  0  0  0
 39 66  1  0  0  0  0
 39 79  2  0  0  0  0
 40 62  1  0  0  0  0
 40 74  1  0  0  0  0
 40 80  2  0  0  0  0
 41 67  1  0  0  0  0
 41 71  1  0  0  0  0
 41 81  2  0  0  0  0
 42 45  1  0  0  0  0
 43 52  1  0  0  0  0
 44 66  1  0  0  0  0
 45 47  1  0  0  0  0
 46 48  1  0  0  0  0
 46 49  1  0  0  0  0
 47 51  1  0  0  0  0
 48 53  1  0  0  0  0
 49 67  1  0  0  0  0
 50 53  1  0  0  0  0
 50 67  1  0  0  0  0
 51 73  1  0  0  0  0
 52 66  1  0  0  0  0
 53 65  1  0  0  0  0
 54 60  1  0  0  0  0
 55 62  1  0  0  0  0
 56 63  1  0  0  0  0
 57 63  1  0  0  0  0
 58 63  1  0  0  0  0
 59 75  1  0  0  0  0
 60 72  1  0  0  0  0
 61 63  1  0  0  0  0
 61 74  1  0  0  0  0
 62 75  1  0  0  0  0
 64 65  1  0  0  0  0
M  CHG  1  75   1
M  ISO  4  34 101  41 100  71 100  84 101
M  END
> <Batch ID>
0176

> <Smiles>
CNC(C)C(=O)NC(C(=O)N1Cc2cc([101O:1][101CH2:1]C(=O)C(=O)NC(C)c3cc(F)c([100NH:0][100C:0](=O)N4CCCC(n5nc(-c6ccc(Oc7ccc(F)cc7F)cc6)c(C(N)=O)c5N)C4)c(F)c3N)ccc2CC1C(=O)NC1CCCc2ccccc21)C(C)(C)C

> <Shape>
0.263

> <Color>
0.071

> <Negative vol penalty>
0.000

$$$$

  -OEChem-04052304383D

 83 91  0     1  0  0  0  0  0999 V2000
  -26.7416  -16.4610   16.5956 C   0  0  0  0  0  0  0  0  0  0  0  0
  -27.2411  -17.2227   17.6470 C   0  0  0  0  0  0  0  0  0  0  0  0
  -23.0023   -9.8926   19.9901 C   0  0  0  0  0  0  0  0  0  0  0  0
  -23.6957   -9.9869   22.3025 C   0  0  0  0  0  0  0  0  0  0  0  0
  -26.2361  -17.0905   15.4589 C   0  0  0  0  0  0  0  0  0  0  0  0
  -27.2365  -18.6145   17.5619 C   0  0  0  0  0  0  0  0  0  0  0  0
  -25.6224  -20.8163   21.8271 C   0  0  0  0  0  0  0  0  0  0  0  0
  -22.2338   -8.7619   20.2666 C   0  0  0  0  0  0  0  0  0  0  0  0
  -22.9271   -8.8562   22.5791 C   0  0  0  0  0  0  0  0  0  0  0  0
  -26.5259  -20.8913   22.8863 C   0  0  0  0  0  0  0  0  0  0  0  0
  -23.1826   -5.5096   22.1718 C   0  0  0  0  0  0  0  0  0  0  0  0
  -23.7611   -4.5073   22.9504 C   0  0  0  0  0  0  0  0  0  0  0  0
  -31.8756  -18.8053   22.2973 C   0  0  0  0  0  0  0  0  0  0  0  0
  -31.7866  -17.5212   21.6864 C   0  0  0  0  0  0  0  0  0  0  0  0
  -26.9949  -23.1878   22.3157 C   0  0  0  0  0  0  0  0  0  0  0  0
  -22.0140   -4.7780   24.5971 C   0  0  0  0  0  0  0  0  0  0  0  0
  -23.7334  -10.5050   21.0080 C   0  0  0  0  0  0  0  0  0  0  0  0
  -24.1176  -13.0176   20.7913 C   0  0  0  0  0  0  0  0  0  0  0  0
  -26.2164  -18.4909   15.3638 C   0  0  0  0  0  0  0  0  0  0  0  0
  -25.4061  -21.9250   20.9962 C   0  0  0  0  0  0  0  0  0  0  0  0
  -26.7315  -19.2634   16.4223 C   0  0  0  0  0  0  0  0  0  0  0  0
  -26.0862  -23.1250   21.2483 C   0  0  0  0  0  0  0  0  0  0  0  0
  -22.1962   -8.2437   21.5611 C   0  0  0  0  0  0  0  0  0  0  0  0
  -27.2145  -22.0762   23.1290 C   0  0  0  0  0  0  0  0  0  0  0  0
  -22.0198   -6.1462   22.6058 C   0  0  0  0  0  0  0  0  0  0  0  0
  -23.1769   -4.1414   24.1630 C   0  0  0  0  0  0  0  0  0  0  0  0
  -21.4355   -5.7803   23.8185 C   0  0  0  0  0  0  0  0  0  0  0  0
  -24.5279  -11.6727   20.7229 C   0  0  0  0  0  0  0  0  0  0  0  0
  -25.2312  -13.7352   20.4290 C   0  0  0  0  0  0  0  0  0  0  0  0
  -30.7135  -19.1482   22.9528 C   0  0  0  0  0  0  0  0  0  0  0  0
  -30.5597  -16.9313   21.8985 C   0  0  0  0  0  0  0  0  0  0  0  0
  -22.8437  -13.5689   21.1503 C   0  0  0  0  0  0  0  0  0  0  0  0
  -25.8203  -22.5241   17.9022 C   0  0  0  0  0  0  0  0  0  0  0  0
  -24.3395  -25.3136   18.6429 C   0  0  0  0  0  0  0  0  0  0  0  0
  -23.5364  -27.6245   21.0223 C   0  0  0  0  0  0  0  0  0  0  0  0
  -31.1618  -21.4328   23.9206 C   0  0  0  0  0  0  0  0  0  0  0  0
  -30.7057  -14.7093   20.7205 C   0  0  0  0  0  0  0  0  0  0  0  0
  -25.7034  -19.1253   14.0953 C   0  0  0  0  0  0  0  0  0  0  0  0
  -24.4083  -21.8361   19.8742 C   0  0  0  0  0  0  0  0  0  0  0  0
  -25.8747  -24.3501   20.3980 C   0  0  0  0  0  0  0  0  0  0  0  0
  -25.3904  -20.6122   14.2413 C   0  0  0  0  0  0  0  0  0  0  0  0
  -29.6228  -12.2126   18.4246 C   0  0  0  0  0  0  0  0  0  0  0  0
  -26.5285  -21.3293   14.9606 C   0  0  0  0  0  0  0  0  0  0  0  0
  -28.1670  -11.9602   18.8235 C   0  0  0  0  0  0  0  0  0  0  0  0
  -30.5063  -12.4795   19.6420 C   0  0  0  0  0  0  0  0  0  0  0  0
  -28.5717  -13.2894   20.9345 C   0  0  0  0  0  0  0  0  0  0  0  0
  -26.7209  -20.7760   16.3778 C   0  0  1  0  0  0  0  0  0  0  0  0
  -24.6488  -22.8690   18.7775 C   0  0  1  0  0  0  0  0  0  0  0  0
  -27.6307  -13.0799   19.7369 C   0  0  2  0  0  0  0  0  0  0  0  0
  -22.3509  -29.8163   21.3188 C   0  0  0  0  0  0  0  0  0  0  0  0
  -31.3991  -23.7060   24.9852 C   0  0  0  0  0  0  0  0  0  0  0  0
  -30.0107  -21.9358   26.1233 C   0  0  0  0  0  0  0  0  0  0  0  0
  -26.7045  -26.7620   17.3707 C   0  0  0  0  0  0  0  0  0  0  0  0
  -25.9499  -28.8555   18.5177 C   0  0  0  0  0  0  0  0  0  0  0  0
  -24.4689  -27.7504   16.8420 C   0  0  0  0  0  0  0  0  0  0  0  0
  -21.5891  -26.4477   22.9149 C   0  0  0  0  0  0  0  0  0  0  0  0
  -29.2018  -23.0424   24.0081 C   0  0  0  0  0  0  0  0  0  1  0  0
  -24.7957  -26.6757   19.1070 C   0  0  1  0  0  0  0  0  0  0  0  0
  -22.2219  -28.3018   21.3656 C   0  0  2  0  0  0  0  0  0  0  0  0
  -30.4446  -22.5188   24.7668 C   0  0  0  0  0  0  0  0  0  0  0  0
  -25.4854  -27.4874   17.9744 C   0  0  0  0  0  0  0  0  0  0  0  0
  -25.8027  -11.5411   20.3465 N   0  0  0  0  0  0  0  0  0  0  0  0
  -26.2030  -12.8125   20.1751 N   0  0  0  0  0  0  0  0  0  0  0  0
  -24.8936  -24.2113   19.3092 N   0  0  0  0  0  0  0  0  0  0  0  0
  -29.9383  -13.5547   20.4581 N   0  0  0  0  0  0  0  0  0  0  0  0
  -25.4643  -15.0592   20.3059 N   0  0  0  0  0  0  0  0  0  0  0  0
  -21.8085  -12.6895   21.4958 N   0  0  0  0  0  0  0  0  0  0  0  0
  -30.3707  -20.3123   23.6831 N   0  0  0  0  0  0  0  0  0  0  0  0
  -30.0494  -15.6776   21.4796 N   0  0  0  0  0  0  0  0  0  0  0  0
  -25.7078  -21.3019   17.2675 N   0  0  0  0  0  0  0  0  0  0  0  0
  -23.6218  -27.3265   19.6788 N   0  0  0  0  0  0  0  0  0  0  0  0
  -21.7789  -27.9098   22.7335 N   0  3  0  0  0  0  0  0  0  0  0  0
  -22.6249  -14.8041   21.1485 O   0  0  0  0  0  0  0  0  0  0  0  0
  -26.7563  -23.3095   17.8083 O   0  0  0  0  0  0  0  0  0  0  0  0
  -23.5163  -25.2307   17.7280 O   0  0  0  0  0  0  0  0  0  0  0  0
  -24.4024  -27.3871   21.8614 O   0  0  0  0  0  0  0  0  0  0  0  0
  -32.3176  -21.5923   23.5323 O   0  0  0  0  0  0  0  0  0  0  0  0
  -31.8503  -14.8417   20.2797 O   0  0  0  0  0  0  0  0  0  0  0  0
  -21.4461   -7.1405   21.8313 O   0  0  0  0  0  0  0  0  0  0  0  0
  -28.0974  -22.1519   24.1617 O   0  0  0  0  0  0  0  0  0  1  0  0
  -23.7317   -3.1778   24.9098 F   0  0  0  0  0  0  0  0  0  0  0  0
  -20.3177   -6.3875   24.2401 F   0  0  0  0  0  0  0  0  0  0  0  0
  -29.5218  -17.9245   22.8304 S   0  0  0  0  0  0  0  0  0  0  0  0
  1  2  1  0  0  0  0
  1  5  2  0  0  0  0
  2  6  2  0  0  0  0
  3  8  2  0  0  0  0
  3 17  1  0  0  0  0
  4  9  1  0  0  0  0
  4 17  2  0  0  0  0
  5 19  1  0  0  0  0
  6 21  1  0  0  0  0
  7 10  2  0  0  0  0
  7 20  1  0  0  0  0
  8 23  1  0  0  0  0
  9 23  2  0  0  0  0
 10 24  1  0  0  0  0
 11 12  2  0  0  0  0
 11 25  1  0  0  0  0
 12 26  1  0  0  0  0
 13 14  1  0  0  0  0
 13 30  2  0  0  0  0
 14 31  2  0  0  0  0
 15 22  1  0  0  0  0
 15 24  2  0  0  0  0
 16 26  2  0  0  0  0
 16 27  1  0  0  0  0
 17 28  1  0  0  0  0
 18 28  1  0  0  0  0
 18 29  2  0  0  0  0
 18 32  1  0  0  0  0
 19 21  2  0  0  0  0
 19 38  1  0  0  0  0
 20 22  2  0  0  0  0
 20 39  1  0  0  0  0
 21 47  1  0  0  0  0
 22 40  1  0  0  0  0
 23 79  1  0  0  0  0
 24 80  1  0  0  0  0
 25 27  2  0  0  0  0
 25 79  1  0  0  0  0
 26 81  1  0  0  0  0
 27 82  1  0  0  0  0
 28 62  2  0  0  0  0
 29 63  1  0  0  0  0
 29 66  1  0  0  0  0
 30 68  1  0  0  0  0
 30 83  1  0  0  0  0
 31 69  1  0  0  0  0
 31 83  1  0  0  0  0
 32 67  1  0  0  0  0
 32 73  2  0  0  0  0
 33 48  1  0  0  0  0
 33 70  1  0  0  0  0
 33 74  2  0  0  0  0
 34 58  1  0  0  0  0
 34 64  1  0  0  0  0
 34 75  2  0  0  0  0
 35 59  1  0  0  0  0
 35 71  1  0  0  0  0
 35 76  2  0  0  0  0
 36 60  1  0  0  0  0
 36 68  1  0  0  0  0
 36 77  2  0  0  0  0
 37 65  1  0  0  0  0
 37 69  1  0  0  0  0
 37 78  2  0  0  0  0
 38 41  1  0  0  0  0
 39 48  1  0  0  0  0
 40 64  1  0  0  0  0
 41 43  1  0  0  0  0
 42 44  1  0  0  0  0
 42 45  1  0  0  0  0
 43 47  1  0  0  0  0
 44 49  1  0  0  0  0
 45 65  1  0  0  0  0
 46 49  1  0  0  0  0
 46 65  1  0  0  0  0
 47 70  1  0  0  0  0
 48 64  1  0  0  0  0
 49 63  1  0  0  0  0
 50 59  1  0  0  0  0
 51 60  1  0  0  0  0
 52 60  1  0  0  0  0
 53 61  1  0  0  0  0
 54 61  1  0  0  0  0
 55 61  1  0  0  0  0
 56 72  1  0  0  0  0
 57 60  1  0  0  0  0
 57 80  1  0  0  0  0
 58 61  1  0  0  0  0
 58 71  1  0  0  0  0
 59 72  1  0  0  0  0
 62 63  1  0  0  0  0
M  CHG  1  72   1
M  ISO  4  37 100  57 101  69 100  80 101
M  END
> <Batch ID>
0176

> <Smiles>
CNC(C)C(=O)NC(C(=O)N1Cc2cc([101O:1][101CH2:1]C(C)(C)C(=O)Nc3ccc([100NH:0][100C:0](=O)N4CCCC(n5nc(-c6ccc(Oc7ccc(F)cc7F)cc6)c(C(N)=O)c5N)C4)s3)ccc2CC1C(=O)NC1CCCc2ccccc21)C(C)(C)C

> <Shape>
0.224

> <Color>
0.196

> <Negative vol penalty>
0.000

$$$$

  -OEChem-04052304383D

 84 92  0     1  0  0  0  0  0999 V2000
  -25.8792  -35.4991   22.9875 C   0  0  0  0  0  0  0  0  0  0  0  0
  -26.4344  -34.2304   22.8548 C   0  0  0  0  0  0  0  0  0  0  0  0
  -22.7772  -10.7037   21.8544 C   0  0  0  0  0  0  0  0  0  0  0  0
  -24.9416  -10.8737   22.9143 C   0  0  0  0  0  0  0  0  0  0  0  0
  -24.5536  -35.6394   23.3961 C   0  0  0  0  0  0  0  0  0  0  0  0
  -25.6646  -33.1012   23.1318 C   0  0  0  0  0  0  0  0  0  0  0  0
  -26.1989  -29.4796   19.6327 C   0  0  0  0  0  0  0  0  0  0  0  0
  -22.8660   -9.3124   21.8961 C   0  0  0  0  0  0  0  0  0  0  0  0
  -25.0304   -9.4823   22.9560 C   0  0  0  0  0  0  0  0  0  0  0  0
  -27.3526  -28.6994   19.6949 C   0  0  0  0  0  0  0  0  0  0  0  0
  -22.4401   -6.8566   24.1810 C   0  0  0  0  0  0  0  0  0  0  0  0
  -21.3157   -6.1476   24.6036 C   0  0  0  0  0  0  0  0  0  0  0  0
  -26.1019  -26.9475   20.7839 C   0  0  0  0  0  0  0  0  0  0  0  0
  -21.2363   -5.0052   22.4763 C   0  0  0  0  0  0  0  0  0  0  0  0
  -23.8150  -11.4844   22.3634 C   0  0  0  0  0  0  0  0  0  0  0  0
  -23.1769  -13.7690   23.3023 C   0  0  0  0  0  0  0  0  0  0  0  0
  -23.7642  -34.5111   23.6689 C   0  0  0  0  0  0  0  0  0  0  0  0
  -24.9884  -29.0032   20.1563 C   0  0  0  0  0  0  0  0  0  0  0  0
  -24.3276  -33.2266   23.5457 C   0  0  0  0  0  0  0  0  0  0  0  0
  -24.9337  -27.7226   20.7248 C   0  0  0  0  0  0  0  0  0  0  0  0
  -23.9926   -8.7016   22.4469 C   0  0  0  0  0  0  0  0  0  0  0  0
  -27.3049  -27.4343   20.2732 C   0  0  0  0  0  0  0  0  0  0  0  0
  -22.9626   -6.6399   22.9059 C   0  0  0  0  0  0  0  0  0  0  0  0
  -20.7138   -5.2219   23.7513 C   0  0  0  0  0  0  0  0  0  0  0  0
  -22.3607   -5.7142   22.0536 C   0  0  0  0  0  0  0  0  0  0  0  0
  -23.7241  -12.9218   22.3201 C   0  0  0  0  0  0  0  0  0  0  0  0
  -29.3578  -18.9039   20.6938 C   0  0  0  0  0  0  0  0  0  0  0  0
  -23.3299  -15.0336   22.7888 C   0  0  0  0  0  0  0  0  0  0  0  0
  -29.3060  -18.9572   22.0709 C   0  0  0  0  0  0  0  0  0  0  0  0
  -29.3550  -21.0832   20.9395 C   0  0  0  0  0  0  0  0  0  0  0  0
  -22.5833  -13.4420   24.5658 C   0  0  0  0  0  0  0  0  0  0  0  0
  -29.4498  -24.6133   19.6404 C   0  0  0  0  0  0  0  0  0  0  0  0
  -29.4127  -23.1197   19.4931 C   0  0  0  0  0  0  0  0  0  0  0  0
  -23.0212  -29.9419   22.4699 C   0  0  0  0  0  0  0  0  0  0  0  0
  -21.1613  -27.5416   21.3290 C   0  0  0  0  0  0  0  0  0  0  0  0
  -20.9616  -24.5887   19.6299 C   0  0  0  0  0  0  0  0  0  0  0  0
  -27.1502  -17.3908   18.8265 C   0  0  0  0  0  0  0  0  0  0  0  0
  -22.3504  -34.7141   24.1533 C   0  0  0  0  0  0  0  0  0  0  0  0
  -23.7467  -29.8464   20.0574 C   0  0  0  0  0  0  0  0  0  0  0  0
  -23.6543  -27.1568   21.2830 C   0  0  0  0  0  0  0  0  0  0  0  0
  -21.4900  -33.4562   24.0659 C   0  0  0  0  0  0  0  0  0  0  0  0
  -23.5954  -17.3783   18.6267 C   0  0  0  0  0  0  0  0  0  0  0  0
  -22.2448  -32.2534   24.6231 C   0  0  0  0  0  0  0  0  0  0  0  0
  -23.1759  -16.3112   19.6392 C   0  0  0  0  0  0  0  0  0  0  0  0
  -24.8853  -16.9951   17.9046 C   0  0  0  0  0  0  0  0  0  0  0  0
  -25.5963  -15.5945   19.8038 C   0  0  0  0  0  0  0  0  0  0  0  0
  -23.5171  -31.9768   23.8130 C   0  0  1  0  0  0  0  0  0  0  0  0
  -22.6841  -29.4680   21.0845 C   0  0  1  0  0  0  0  0  0  0  0  0
  -24.3308  -15.9624   20.5973 C   0  0  2  0  0  0  0  0  0  0  0  0
  -19.3110  -22.8487   18.8913 C   0  0  0  0  0  0  0  0  0  0  0  0
  -21.0457  -26.4470   24.1747 C   0  0  0  0  0  0  0  0  0  0  0  0
  -20.2270  -24.2768   23.2322 C   0  0  0  0  0  0  0  0  0  0  0  0
  -18.8775  -26.3531   22.9320 C   0  0  0  0  0  0  0  0  0  0  0  0
  -21.5695  -25.0584   16.7718 C   0  0  0  0  0  0  0  0  0  0  0  0
  -29.3849  -17.6786   19.8671 C   0  0  0  0  0  0  0  0  0  0  0  0
  -28.2566  -25.2549   20.2991 C   0  0  0  0  0  0  0  0  0  1  0  0
  -21.0203  -26.0673   21.6210 C   0  0  1  0  0  0  0  0  0  0  0  0
  -20.0405  -24.1287   18.5143 C   0  0  2  0  0  0  0  0  0  0  0  0
  -20.3173  -25.7972   22.9813 C   0  0  0  0  0  0  0  0  0  0  0  0
  -24.1899  -13.5918   21.2626 N   0  0  0  0  0  0  0  0  0  0  0  0
  -29.3855  -20.1220   20.0433 N   0  0  0  0  0  0  0  0  0  0  0  0
  -23.9356  -14.8733   21.5774 N   0  0  0  0  0  0  0  0  0  0  0  0
  -22.4687  -28.0221   21.1684 N   0  0  0  0  0  0  0  0  0  0  0  0
  -25.9408  -16.6778   18.8696 N   0  0  0  0  0  0  0  0  0  0  0  0
  -23.0040  -16.2561   23.2599 N   0  0  0  0  0  0  0  0  0  0  0  0
  -29.2694  -17.9236   22.9468 N   0  0  0  0  0  0  0  0  0  0  0  0
  -22.5059  -12.0931   24.9385 N   0  0  0  0  0  0  0  0  0  0  0  0
  -29.3666  -22.4792   20.7126 N   0  0  0  0  0  0  0  0  0  0  0  0
  -23.1904  -31.3096   22.5711 N   0  0  0  0  0  0  0  0  0  0  0  0
  -20.3376  -25.4866   20.4699 N   0  0  0  0  0  0  0  0  0  0  0  0
  -28.0946  -17.0317   19.7805 N   0  0  0  0  0  0  0  0  0  0  0  0
  -20.8202  -23.8762   17.2697 N   0  3  0  0  0  0  0  0  0  0  0  0
  -22.1201  -14.3187   25.3340 O   0  0  0  0  0  0  0  0  0  0  0  0
  -30.4271  -25.2006   19.2016 O   0  0  0  0  0  0  0  0  0  0  0  0
  -29.4532  -22.6816   18.3553 O   0  0  0  0  0  0  0  0  0  0  0  0
  -23.1190  -29.1272   23.3801 O   0  0  0  0  0  0  0  0  0  0  0  0
  -20.1484  -28.2399   21.2392 O   0  0  0  0  0  0  0  0  0  0  0  0
  -22.1177  -24.1884   19.7467 O   0  0  0  0  0  0  0  0  0  0  0  0
  -27.3701  -18.2851   18.0025 O   0  0  0  0  0  0  0  0  0  0  0  0
  -24.0795   -7.3439   22.4881 O   0  0  0  0  0  0  0  0  0  0  0  0
  -28.4297  -26.6709   20.3358 O   0  0  0  0  0  0  0  0  0  1  0  0
  -19.6349   -4.5401   24.1579 F   0  0  0  0  0  0  0  0  0  0  0  0
  -22.8589   -5.5008   20.8280 F   0  0  0  0  0  0  0  0  0  0  0  0
  -29.2930  -20.5938   22.5832 S   0  0  0  0  0  0  0  0  0  0  0  0
  1  2  1  0  0  0  0
  1  5  2  0  0  0  0
  2  6  2  0  0  0  0
  3  8  2  0  0  0  0
  3 15  1  0  0  0  0
  4  9  1  0  0  0  0
  4 15  2  0  0  0  0
  5 17  1  0  0  0  0
  6 19  1  0  0  0  0
  7 10  2  0  0  0  0
  7 18  1  0  0  0  0
  8 21  1  0  0  0  0
  9 21  2  0  0  0  0
 10 22  1  0  0  0  0
 11 12  2  0  0  0  0
 11 23  1  0  0  0  0
 12 24  1  0  0  0  0
 13 20  1  0  0  0  0
 13 22  2  0  0  0  0
 14 24  2  0  0  0  0
 14 25  1  0  0  0  0
 15 26  1  0  0  0  0
 16 26  1  0  0  0  0
 16 28  2  0  0  0  0
 16 31  1  0  0  0  0
 17 19  2  0  0  0  0
 17 38  1  0  0  0  0
 18 20  2  0  0  0  0
 18 39  1  0  0  0  0
 19 47  1  0  0  0  0
 20 40  1  0  0  0  0
 21 80  1  0  0  0  0
 22 81  1  0  0  0  0
 23 25  2  0  0  0  0
 23 80  1  0  0  0  0
 24 82  1  0  0  0  0
 25 83  1  0  0  0  0
 26 60  2  0  0  0  0
 27 29  2  0  0  0  0
 27 55  1  0  0  0  0
 27 61  1  0  0  0  0
 28 62  1  0  0  0  0
 28 65  1  0  0  0  0
 29 66  1  0  0  0  0
 29 84  1  0  0  0  0
 30 61  2  0  0  0  0
 30 68  1  0  0  0  0
 30 84  1  0  0  0  0
 31 67  1  0  0  0  0
 31 73  2  0  0  0  0
 32 33  1  0  0  0  0
 32 56  1  0  0  0  0
 32 74  2  0  0  0  0
 33 68  1  0  0  0  0
 33 75  2  0  0  0  0
 34 48  1  0  0  0  0
 34 69  1  0  0  0  0
 34 76  2  0  0  0  0
 35 57  1  0  0  0  0
 35 63  1  0  0  0  0
 35 77  2  0  0  0  0
 36 58  1  0  0  0  0
 36 70  1  0  0  0  0
 36 78  2  0  0  0  0
 37 64  1  0  0  0  0
 37 71  1  0  0  0  0
 37 79  2  0  0  0  0
 38 41  1  0  0  0  0
 39 48  1  0  0  0  0
 40 63  1  0  0  0  0
 41 43  1  0  0  0  0
 42 44  1  0  0  0  0
 42 45  1  0  0  0  0
 43 47  1  0  0  0  0
 44 49  1  0  0  0  0
 45 64  1  0  0  0  0
 46 49  1  0  0  0  0
 46 64  1  0  0  0  0
 47 69  1  0  0  0  0
 48 63  1  0  0  0  0
 49 62  1  0  0  0  0
 50 58  1  0  0  0  0
 51 59  1  0  0  0  0
 52 59  1  0  0  0  0
 53 59  1  0  0  0  0
 54 72  1  0  0  0  0
 55 71  1  0  0  0  0
 56 81  1  0  0  0  0
 57 59  1  0  0  0  0
 57 70  1  0  0  0  0
 58 72  1  0  0  0  0
 60 62  1  0  0  0  0
M  CHG  1  72   1
M  ISO  4  37 100  56 101  71 100  81 101
M  END
> <Batch ID>
0176

> <Smiles>
CNC(C)C(=O)NC(C(=O)N1Cc2cc([101O:1][101CH2:1]C(=O)C(=O)Nc3nc(C[100NH:0][100C:0](=O)N4CCCC(n5nc(-c6ccc(Oc7ccc(F)cc7F)cc6)c(C(N)=O)c5N)C4)c(N)s3)ccc2CC1C(=O)NC1CCCc2ccccc21)C(C)(C)C

> <Shape>
0.294

> <Color>
0.103

> <Negative vol penalty>
0.000

$$$$

  -OEChem-04052304383D

 86 94  0     1  0  0  0  0  0999 V2000
  -26.4283  -34.4174   27.4369 C   0  0  0  0  0  0  0  0  0  0  0  0
  -27.0576  -33.4516   26.6580 C   0  0  0  0  0  0  0  0  0  0  0  0
  -24.6321   -8.5169   21.3348 C   0  0  0  0  0  0  0  0  0  0  0  0
  -23.1171  -10.3695   21.6658 C   0  0  0  0  0  0  0  0  0  0  0  0
  -25.0437  -34.3876   27.5982 C   0  0  0  0  0  0  0  0  0  0  0  0
  -26.3027  -32.4548   26.0408 C   0  0  0  0  0  0  0  0  0  0  0  0
  -27.3758  -29.8632   20.5967 C   0  0  0  0  0  0  0  0  0  0  0  0
  -23.9314   -7.7741   22.2850 C   0  0  0  0  0  0  0  0  0  0  0  0
  -22.4163   -9.6267   22.6160 C   0  0  0  0  0  0  0  0  0  0  0  0
  -27.9874  -28.6643   20.2328 C   0  0  0  0  0  0  0  0  0  0  0  0
  -21.0643   -5.9877   22.4308 C   0  0  0  0  0  0  0  0  0  0  0  0
  -20.7645   -4.6605   22.1238 C   0  0  0  0  0  0  0  0  0  0  0  0
  -25.8234  -27.6058   20.1064 C   0  0  0  0  0  0  0  0  0  0  0  0
  -27.4270  -20.0667   22.3667 C   0  0  0  0  0  0  0  0  0  0  0  0
  -22.0227   -3.9301   24.0528 C   0  0  0  0  0  0  0  0  0  0  0  0
  -24.2250   -9.8147   21.0253 C   0  0  0  0  0  0  0  0  0  0  0  0
  -24.7080  -10.6338   18.6581 C   0  0  0  0  0  0  0  0  0  0  0  0
  -24.2704  -33.3957   26.9747 C   0  0  0  0  0  0  0  0  0  0  0  0
  -25.9818  -29.9397   20.7291 C   0  0  0  0  0  0  0  0  0  0  0  0
  -24.9066  -32.4110   26.1950 C   0  0  0  0  0  0  0  0  0  0  0  0
  -25.1964  -28.8074   20.4696 C   0  0  0  0  0  0  0  0  0  0  0  0
  -27.2824  -18.6553   22.4984 C   0  0  0  0  0  0  0  0  0  0  0  0
  -22.8235   -8.3290   22.9256 C   0  0  0  0  0  0  0  0  0  0  0  0
  -27.2114  -27.5346   19.9904 C   0  0  0  0  0  0  0  0  0  0  0  0
  -21.8433   -6.2861   23.5488 C   0  0  0  0  0  0  0  0  0  0  0  0
  -21.2437   -3.6317   22.9348 C   0  0  0  0  0  0  0  0  0  0  0  0
  -22.3225   -5.2574   24.3597 C   0  0  0  0  0  0  0  0  0  0  0  0
  -24.9487  -10.5827   20.0442 C   0  0  0  0  0  0  0  0  0  0  0  0
  -27.4399  -18.0045   21.2945 C   0  0  0  0  0  0  0  0  0  0  0  0
  -25.6595  -11.4991   18.1761 C   0  0  0  0  0  0  0  0  0  0  0  0
  -27.6897  -20.4408   21.0671 C   0  0  0  0  0  0  0  0  0  0  0  0
  -27.6207  -25.2769   20.4443 C   0  0  0  0  0  0  0  0  0  1  0  0
  -23.7133   -9.9594   17.8762 C   0  0  0  0  0  0  0  0  0  0  0  0
  -28.1576  -24.0771   20.1921 C   0  0  0  0  0  0  0  0  0  0  0  0
  -27.8932  -22.9475   21.1419 C   0  0  0  0  0  0  0  0  0  0  0  0
  -23.9874  -30.5805   23.1197 C   0  0  0  0  0  0  0  0  0  0  0  0
  -28.7322  -15.9492   20.7967 C   0  0  0  0  0  0  0  0  0  0  0  0
  -21.7501  -30.4378   20.7752 C   0  0  0  0  0  0  0  0  0  0  0  0
  -20.8495  -29.2713   17.6971 C   0  0  0  0  0  0  0  0  0  0  0  0
  -22.7819  -33.3765   27.2168 C   0  0  0  0  0  0  0  0  0  0  0  0
  -25.3355  -31.2472   21.0963 C   0  0  0  0  0  0  0  0  0  0  0  0
  -23.6946  -28.8423   20.5782 C   0  0  0  0  0  0  0  0  0  0  0  0
  -22.0145  -32.5074   26.2240 C   0  0  0  0  0  0  0  0  0  0  0  0
  -30.0677  -13.1066   19.0716 C   0  0  0  0  0  0  0  0  0  0  0  0
  -22.7035  -31.1573   26.0524 C   0  0  0  0  0  0  0  0  0  0  0  0
  -28.8929  -12.1305   19.0247 C   0  0  0  0  0  0  0  0  0  0  0  0
  -30.0705  -13.9152   20.3651 C   0  0  0  0  0  0  0  0  0  0  0  0
  -27.6177  -13.6727   20.5806 C   0  0  0  0  0  0  0  0  0  0  0  0
  -24.1195  -31.3282   25.4891 C   0  0  1  0  0  0  0  0  0  0  0  0
  -23.9458  -31.0774   21.7023 C   0  0  1  0  0  0  0  0  0  0  0  0
  -27.5600  -12.8574   19.2766 C   0  0  2  0  0  0  0  0  0  0  0  0
  -18.9448  -29.2899   16.0633 C   0  0  0  0  0  0  0  0  0  0  0  0
  -20.2585  -28.4060   22.4948 C   0  0  0  0  0  0  0  0  0  0  0  0
  -18.9326  -27.7690   20.4688 C   0  0  0  0  0  0  0  0  0  0  0  0
  -18.7957  -30.0922   21.3671 C   0  0  0  0  0  0  0  0  0  0  0  0
  -22.4879  -30.6052   15.6246 C   0  0  0  0  0  0  0  0  0  0  0  0
  -27.3668  -16.5543   21.0056 C   0  0  0  0  0  0  0  0  0  0  0  0
  -20.8973  -29.3456   20.1763 C   0  0  1  0  0  0  0  0  0  0  0  0
  -20.2356  -29.9677   16.4960 C   0  0  2  0  0  0  0  0  0  0  0  0
  -26.9961  -17.9783   23.7855 C   0  0  0  0  0  0  0  0  0  0  0  0
  -19.7494  -28.9017   21.1265 C   0  0  0  0  0  0  0  0  0  0  0  0
  -25.9729  -11.3540   20.4185 N   0  0  0  0  0  0  0  0  0  0  0  0
  -26.3843  -11.8979   19.2605 N   0  0  0  0  0  0  0  0  0  0  0  0
  -23.1100  -30.1424   20.9464 N   0  0  0  0  0  0  0  0  0  0  0  0
  -28.7798  -14.5720   20.5795 N   0  0  0  0  0  0  0  0  0  0  0  0
  -25.9386  -11.9501   16.9347 N   0  0  0  0  0  0  0  0  0  0  0  0
  -22.8142   -9.1063   18.5306 N   0  0  0  0  0  0  0  0  0  0  0  0
  -27.9005  -21.7189   20.4958 N   0  0  0  0  0  0  0  0  0  0  0  0
  -24.0696  -31.5844   24.0656 N   0  0  0  0  0  0  0  0  0  0  0  0
  -20.4430  -29.8452   18.8831 N   0  0  0  0  0  0  0  0  0  0  0  0
  -21.1839  -29.9502   15.3465 N   0  3  0  0  0  0  0  0  0  0  0  0
  -23.6347  -10.0962   16.6318 O   0  0  0  0  0  0  0  0  0  0  0  0
  -27.7020  -23.1589   22.3347 O   0  0  0  0  0  0  0  0  0  0  0  0
  -23.9464  -29.3755   23.3390 O   0  0  0  0  0  0  0  0  0  0  0  0
  -29.7253  -16.6808   20.8231 O   0  0  0  0  0  0  0  0  0  0  0  0
  -21.2303  -31.5160   21.0733 O   0  0  0  0  0  0  0  0  0  0  0  0
  -21.6104  -28.3117   17.5936 O   0  0  0  0  0  0  0  0  0  0  0  0
  -28.9479  -23.8352   19.0868 O   0  0  0  0  0  0  0  0  0  0  0  0
  -22.1394   -7.6043   23.8527 O   0  0  0  0  0  0  0  0  0  0  0  0
  -27.8059  -26.3630   19.6357 O   0  0  0  0  0  0  0  0  0  1  0  0
  -20.9545   -2.3573   22.6407 F   0  0  0  0  0  0  0  0  0  0  0  0
  -23.0704   -5.5380   25.4357 F   0  0  0  0  0  0  0  0  0  0  0  0
  -26.8808  -18.8324   24.8501 F   0  0  0  0  0  0  0  0  0  0  0  0
  -25.8301  -17.2598   23.7884 F   0  0  0  0  0  0  0  0  0  0  0  0
  -27.9678  -17.0851   24.1471 F   0  0  0  0  0  0  0  0  0  0  0  0
  -27.7607  -19.0935   20.0126 S   0  0  0  0  0  0  0  0  0  0  0  0
  1  2  1  0  0  0  0
  1  5  2  0  0  0  0
  2  6  2  0  0  0  0
  3  8  2  0  0  0  0
  3 16  1  0  0  0  0
  4  9  1  0  0  0  0
  4 16  2  0  0  0  0
  5 18  1  0  0  0  0
  6 20  1  0  0  0  0
  7 10  2  0  0  0  0
  7 19  1  0  0  0  0
  8 23  1  0  0  0  0
  9 23  2  0  0  0  0
 10 24  1  0  0  0  0
 11 12  2  0  0  0  0
 11 25  1  0  0  0  0
 12 26  1  0  0  0  0
 13 21  1  0  0  0  0
 13 24  2  0  0  0  0
 14 22  1  0  0  0  0
 14 31  2  0  0  0  0
 15 26  2  0  0  0  0
 15 27  1  0  0  0  0
 16 28  1  0  0  0  0
 17 28  1  0  0  0  0
 17 30  2  0  0  0  0
 17 33  1  0  0  0  0
 18 20  2  0  0  0  0
 18 40  1  0  0  0  0
 19 21  2  0  0  0  0
 19 41  1  0  0  0  0
 20 49  1  0  0  0  0
 21 42  1  0  0  0  0
 22 29  2  0  0  0  0
 22 60  1  0  0  0  0
 23 79  1  0  0  0  0
 24 80  1  0  0  0  0
 25 27  2  0  0  0  0
 25 79  1  0  0  0  0
 26 81  1  0  0  0  0
 27 82  1  0  0  0  0
 28 62  2  0  0  0  0
 29 57  1  0  0  0  0
 29 86  1  0  0  0  0
 30 63  1  0  0  0  0
 30 66  1  0  0  0  0
 31 68  1  0  0  0  0
 31 86  1  0  0  0  0
 32 34  2  0  0  0  0
 32 80  1  0  0  0  0
 33 67  1  0  0  0  0
 33 72  2  0  0  0  0
 34 35  1  0  0  0  0
 34 78  1  0  0  0  0
 35 68  1  0  0  0  0
 35 73  2  0  0  0  0
 36 50  1  0  0  0  0
 36 69  1  0  0  0  0
 36 74  2  0  0  0  0
 37 57  1  0  0  0  0
 37 65  1  0  0  0  0
 37 75  2  0  0  0  0
 38 58  1  0  0  0  0
 38 64  1  0  0  0  0
 38 76  2  0  0  0  0
 39 59  1  0  0  0  0
 39 70  1  0  0  0  0
 39 77  2  0  0  0  0
 40 43  1  0  0  0  0
 41 50  1  0  0  0  0
 42 64  1  0  0  0  0
 43 45  1  0  0  0  0
 44 46  1  0  0  0  0
 44 47  1  0  0  0  0
 45 49  1  0  0  0  0
 46 51  1  0  0  0  0
 47 65  1  0  0  0  0
 48 51  1  0  0  0  0
 48 65  1  0  0  0  0
 49 69  1  0  0  0  0
 50 64  1  0  0  0  0
 51 63  1  0  0  0  0
 52 59  1  0  0  0  0
 53 61  1  0  0  0  0
 54 61  1  0  0  0  0
 55 61  1  0  0  0  0
 56 71  1  0  0  0  0
 58 61  1  0  0  0  0
 58 70  1  0  0  0  0
 59 71  1  0  0  0  0
 60 83  1  0  0  0  0
 60 84  1  0  0  0  0
 60 85  1  0  0  0  0
 62 63  1  0  0  0  0
M  CHG  1  71   1
M  ISO  4  32 101  37 100  57 100  80 101
M  END
> <Batch ID>
0176

> <Smiles>
CNC(C)C(=O)NC(C(=O)N1Cc2cc([101O:1][101CH2:1]C(=O)C(=O)Nc3cc(C(F)(F)F)c([100CH2:0][100C:0](=O)N4CCCC(n5nc(-c6ccc(Oc7ccc(F)cc7F)cc6)c(C(N)=O)c5N)C4)s3)ccc2CC1C(=O)NC1CCCc2ccccc21)C(C)(C)C

> <Shape>
0.285

> <Color>
0.109

> <Negative vol penalty>
0.000

$$$$

  -OEChem-04052304383D

 84 92  0     1  0  0  0  0  0999 V2000
  -31.7230  -24.3372   10.7467 C   0  0  0  0  0  0  0  0  0  0  0  0
  -32.3960  -23.9104   11.8870 C   0  0  0  0  0  0  0  0  0  0  0  0
  -23.0040   -9.8872   19.9769 C   0  0  0  0  0  0  0  0  0  0  0  0
  -23.7321   -9.9340   22.2801 C   0  0  0  0  0  0  0  0  0  0  0  0
  -31.1721  -25.6173   10.7019 C   0  0  0  0  0  0  0  0  0  0  0  0
  -32.5196  -24.7639   12.9828 C   0  0  0  0  0  0  0  0  0  0  0  0
  -31.5575  -22.4365   17.3763 C   0  0  0  0  0  0  0  0  0  0  0  0
  -22.2406   -8.7502   20.2413 C   0  0  0  0  0  0  0  0  0  0  0  0
  -22.9686   -8.7970   22.5446 C   0  0  0  0  0  0  0  0  0  0  0  0
  -32.5639  -21.6275   17.9020 C   0  0  0  0  0  0  0  0  0  0  0  0
  -23.2203   -5.4599   22.0637 C   0  0  0  0  0  0  0  0  0  0  0  0
  -23.8113   -4.4421   22.8124 C   0  0  0  0  0  0  0  0  0  0  0  0
  -33.1974  -23.4037   19.4063 C   0  0  0  0  0  0  0  0  0  0  0  0
  -22.0890   -4.6766   24.4905 C   0  0  0  0  0  0  0  0  0  0  0  0
  -23.7499  -10.4791   20.9963 C   0  0  0  0  0  0  0  0  0  0  0  0
  -24.1289  -12.9961   20.8263 C   0  0  0  0  0  0  0  0  0  0  0  0
  -31.2807  -26.4834   11.8013 C   0  0  0  0  0  0  0  0  0  0  0  0
  -31.3702  -23.7412   17.8549 C   0  0  0  0  0  0  0  0  0  0  0  0
  -31.9709  -26.0572   12.9521 C   0  0  0  0  0  0  0  0  0  0  0  0
  -32.1863  -24.2263   18.8868 C   0  0  0  0  0  0  0  0  0  0  0  0
  -22.2228   -8.2051   21.5251 C   0  0  0  0  0  0  0  0  0  0  0  0
  -33.3860  -22.1121   18.9152 C   0  0  0  0  0  0  0  0  0  0  0  0
  -22.0637   -6.0860   22.5284 C   0  0  0  0  0  0  0  0  0  0  0  0
  -23.2456   -4.0505   24.0257 C   0  0  0  0  0  0  0  0  0  0  0  0
  -21.4981   -5.6944   23.7418 C   0  0  0  0  0  0  0  0  0  0  0  0
  -24.5392  -11.6533   20.7237 C   0  0  0  0  0  0  0  0  0  0  0  0
  -30.7254  -19.0720   22.9350 C   0  0  0  0  0  0  0  0  0  0  0  0
  -31.8319  -18.6723   22.2153 C   0  0  0  0  0  0  0  0  0  0  0  0
  -25.2365  -13.7222   20.4623 C   0  0  0  0  0  0  0  0  0  0  0  0
  -30.5730  -16.9056   21.8929 C   0  0  0  0  0  0  0  0  0  0  0  0
  -22.8602  -13.5384   21.2159 C   0  0  0  0  0  0  0  0  0  0  0  0
  -31.5342  -26.6456   16.5737 C   0  0  0  0  0  0  0  0  0  0  0  0
  -30.4145  -27.5642   19.4763 C   0  0  0  0  0  0  0  0  0  0  0  0
  -30.0803  -26.8777   22.8025 C   0  0  0  0  0  0  0  0  0  0  0  0
  -34.1613  -19.1296   21.3657 C   0  0  0  0  0  0  0  0  0  0  0  0
  -30.7140  -14.6957   20.6917 C   0  0  0  0  0  0  0  0  0  0  0  0
  -30.7099  -27.8749   11.6884 C   0  0  0  0  0  0  0  0  0  0  0  0
  -30.2628  -24.5918   17.2957 C   0  0  0  0  0  0  0  0  0  0  0  0
  -32.0132  -25.6126   19.4495 C   0  0  0  0  0  0  0  0  0  0  0  0
  -30.5602  -28.5828   13.0325 C   0  0  0  0  0  0  0  0  0  0  0  0
  -29.5984  -12.2464   18.3607 C   0  0  0  0  0  0  0  0  0  0  0  0
  -31.8285  -28.4221   13.8646 C   0  0  0  0  0  0  0  0  0  0  0  0
  -28.1490  -11.9842   18.7761 C   0  0  0  0  0  0  0  0  0  0  0  0
  -30.5000  -12.4887   19.5700 C   0  0  0  0  0  0  0  0  0  0  0  0
  -28.5845  -13.2695   20.9081 C   0  0  0  0  0  0  0  0  0  0  0  0
  -32.1044  -26.9450   14.1704 C   0  0  1  0  0  0  0  0  0  0  0  0
  -30.4942  -26.0855   17.5023 C   0  0  1  0  0  0  0  0  0  0  0  0
  -27.6257  -13.0840   19.7207 C   0  0  2  0  0  0  0  0  0  0  0  0
  -30.4759  -20.3163   23.6909 C   0  0  0  0  0  0  0  0  0  0  0  0
  -29.1507  -27.8349   24.9278 C   0  0  0  0  0  0  0  0  0  0  0  0
  -36.4885  -19.7805   20.6462 C   0  0  0  0  0  0  0  0  0  0  0  0
  -35.6348  -20.5031   22.9058 C   0  0  0  0  0  0  0  0  0  0  0  0
  -32.7733  -29.4930   19.6365 C   0  0  0  0  0  0  0  0  0  0  0  0
  -32.3444  -29.7036   22.0941 C   0  0  0  0  0  0  0  0  0  0  0  0
  -30.6043  -30.4269   20.4596 C   0  0  0  0  0  0  0  0  0  0  0  0
  -28.2230  -24.6002   23.1523 C   0  0  0  0  0  0  0  0  0  0  0  0
  -34.7240  -21.5375   20.7955 C   0  0  0  0  0  0  0  0  0  1  0  0
  -31.0456  -27.9595   20.7894 C   0  0  1  0  0  0  0  0  0  0  0  0
  -28.8789  -26.9405   23.7282 C   0  0  2  0  0  0  0  0  0  0  0  0
  -35.2504  -20.2332   21.4403 C   0  0  0  0  0  0  0  0  0  0  0  0
  -31.6967  -29.3703   20.7332 C   0  0  0  0  0  0  0  0  0  0  0  0
  -25.8082  -11.5309   20.3255 N   0  0  0  0  0  0  0  0  0  0  0  0
  -31.7464  -17.4301   21.6173 N   0  0  0  0  0  0  0  0  0  0  0  0
  -26.2049  -12.8060   20.1747 N   0  0  0  0  0  0  0  0  0  0  0  0
  -30.9207  -26.4081   18.8655 N   0  0  0  0  0  0  0  0  0  0  0  0
  -29.9435  -13.5461   20.4168 N   0  0  0  0  0  0  0  0  0  0  0  0
  -25.4666  -15.0488   20.3634 N   0  0  0  0  0  0  0  0  0  0  0  0
  -21.8310  -12.6509   21.5585 N   0  0  0  0  0  0  0  0  0  0  0  0
  -33.0047  -19.4529   22.0695 N   0  0  0  0  0  0  0  0  0  0  0  0
  -30.0685  -15.6473   21.4806 N   0  0  0  0  0  0  0  0  0  0  0  0
  -31.2404  -26.4791   15.2338 N   0  0  0  0  0  0  0  0  0  0  0  0
  -30.0033  -27.8223   21.8010 N   0  0  0  0  0  0  0  0  0  0  0  0
  -28.5366  -25.5781   24.2258 N   0  3  0  0  0  0  0  0  0  0  0  0
  -22.6405  -14.7731   21.2432 O   0  0  0  0  0  0  0  0  0  0  0  0
  -32.5289  -27.1899   17.0385 O   0  0  0  0  0  0  0  0  0  0  0  0
  -29.5010  -28.2518   19.0131 O   0  0  0  0  0  0  0  0  0  0  0  0
  -30.9974  -26.0738   22.9549 O   0  0  0  0  0  0  0  0  0  0  0  0
  -34.3555  -18.0881   20.7414 O   0  0  0  0  0  0  0  0  0  0  0  0
  -31.8517  -14.8385   20.2365 O   0  0  0  0  0  0  0  0  0  0  0  0
  -21.4778   -7.0958   21.7835 O   0  0  0  0  0  0  0  0  0  0  0  0
  -34.3695  -21.3248   19.4297 O   0  0  0  0  0  0  0  0  0  1  0  0
  -23.8124   -3.0720   24.7438 F   0  0  0  0  0  0  0  0  0  0  0  0
  -20.3863   -6.2914   24.1928 F   0  0  0  0  0  0  0  0  0  0  0  0
  -29.5224  -17.8516   22.8656 S   0  0  0  0  0  0  0  0  0  0  0  0
  1  2  1  0  0  0  0
  1  5  2  0  0  0  0
  2  6  2  0  0  0  0
  3  8  2  0  0  0  0
  3 15  1  0  0  0  0
  4  9  1  0  0  0  0
  4 15  2  0  0  0  0
  5 17  1  0  0  0  0
  6 19  1  0  0  0  0
  7 10  2  0  0  0  0
  7 18  1  0  0  0  0
  8 21  1  0  0  0  0
  9 21  2  0  0  0  0
 10 22  1  0  0  0  0
 11 12  2  0  0  0  0
 11 23  1  0  0  0  0
 12 24  1  0  0  0  0
 13 20  1  0  0  0  0
 13 22  2  0  0  0  0
 14 24  2  0  0  0  0
 14 25  1  0  0  0  0
 15 26  1  0  0  0  0
 16 26  1  0  0  0  0
 16 29  2  0  0  0  0
 16 31  1  0  0  0  0
 17 19  2  0  0  0  0
 17 37  1  0  0  0  0
 18 20  2  0  0  0  0
 18 38  1  0  0  0  0
 19 46  1  0  0  0  0
 20 39  1  0  0  0  0
 21 80  1  0  0  0  0
 22 81  1  0  0  0  0
 23 25  2  0  0  0  0
 23 80  1  0  0  0  0
 24 82  1  0  0  0  0
 25 83  1  0  0  0  0
 26 62  2  0  0  0  0
 27 28  2  0  0  0  0
 27 49  1  0  0  0  0
 27 84  1  0  0  0  0
 28 63  1  0  0  0  0
 28 69  1  0  0  0  0
 29 64  1  0  0  0  0
 29 67  1  0  0  0  0
 30 63  2  0  0  0  0
 30 70  1  0  0  0  0
 30 84  1  0  0  0  0
 31 68  1  0  0  0  0
 31 74  2  0  0  0  0
 32 47  1  0  0  0  0
 32 71  1  0  0  0  0
 32 75  2  0  0  0  0
 33 58  1  0  0  0  0
 33 65  1  0  0  0  0
 33 76  2  0  0  0  0
 34 59  1  0  0  0  0
 34 72  1  0  0  0  0
 34 77  2  0  0  0  0
 35 60  1  0  0  0  0
 35 69  1  0  0  0  0
 35 78  2  0  0  0  0
 36 66  1  0  0  0  0
 36 70  1  0  0  0  0
 36 79  2  0  0  0  0
 37 40  1  0  0  0  0
 38 47  1  0  0  0  0
 39 65  1  0  0  0  0
 40 42  1  0  0  0  0
 41 43  1  0  0  0  0
 41 44  1  0  0  0  0
 42 46  1  0  0  0  0
 43 48  1  0  0  0  0
 44 66  1  0  0  0  0
 45 48  1  0  0  0  0
 45 66  1  0  0  0  0
 46 71  1  0  0  0  0
 47 65  1  0  0  0  0
 48 64  1  0  0  0  0
 50 59  1  0  0  0  0
 51 60  1  0  0  0  0
 52 60  1  0  0  0  0
 53 61  1  0  0  0  0
 54 61  1  0  0  0  0
 55 61  1  0  0  0  0
 56 73  1  0  0  0  0
 57 60  1  0  0  0  0
 57 81  1  0  0  0  0
 58 61  1  0  0  0  0
 58 72  1  0  0  0  0
 59 73  1  0  0  0  0
 62 64  1  0  0  0  0
M  CHG  1  73   1
M  ISO  4  36 100  57 101  70 100  81 101
M  END
> <Batch ID>
0176

> <Smiles>
CNC(C)C(=O)NC(C(=O)N1Cc2cc([101O:1][101CH2:1]C(C)(C)C(=O)Nc3nc([100NH:0][100C:0](=O)N4CCCC(n5nc(-c6ccc(Oc7ccc(F)cc7F)cc6)c(C(N)=O)c5N)C4)sc3C)ccc2CC1C(=O)NC1CCCc2ccccc21)C(C)(C)C

> <Shape>
0.230

> <Color>
0.190

> <Negative vol penalty>
0.000

$$$$

  -OEChem-04052304383D

 85 93  0     1  0  0  0  0  0999 V2000
  -30.4520  -35.5905   23.8091 C   0  0  0  0  0  0  0  0  0  0  0  0
  -30.3753  -34.8392   22.6407 C   0  0  0  0  0  0  0  0  0  0  0  0
  -24.6945   -8.5560   21.5930 C   0  0  0  0  0  0  0  0  0  0  0  0
  -23.2092  -10.0629   20.4268 C   0  0  0  0  0  0  0  0  0  0  0  0
  -29.9029  -35.0965   24.9916 C   0  0  0  0  0  0  0  0  0  0  0  0
  -29.7503  -33.5928   22.6545 C   0  0  0  0  0  0  0  0  0  0  0  0
  -25.8491  -29.2577   18.4947 C   0  0  0  0  0  0  0  0  0  0  0  0
  -23.6347   -8.1315   22.3944 C   0  0  0  0  0  0  0  0  0  0  0  0
  -22.1493   -9.6385   21.2282 C   0  0  0  0  0  0  0  0  0  0  0  0
  -25.8283  -27.9439   18.0285 C   0  0  0  0  0  0  0  0  0  0  0  0
  -20.9924   -6.0387   22.1272 C   0  0  0  0  0  0  0  0  0  0  0  0
  -20.8508   -4.6679   22.3421 C   0  0  0  0  0  0  0  0  0  0  0  0
  -24.8455  -27.2266   20.1114 C   0  0  0  0  0  0  0  0  0  0  0  0
  -21.1004   -5.0149   24.7200 C   0  0  0  0  0  0  0  0  0  0  0  0
  -24.4817   -9.5217   20.6092 C   0  0  0  0  0  0  0  0  0  0  0  0
  -30.2814  -19.1695   19.4927 C   0  0  0  0  0  0  0  0  0  0  0  0
  -25.9851   -9.4123   18.5512 C   0  0  0  0  0  0  0  0  0  0  0  0
  -29.2623  -33.8476   25.0176 C   0  0  0  0  0  0  0  0  0  0  0  0
  -25.3774  -29.5647   19.7791 C   0  0  0  0  0  0  0  0  0  0  0  0
  -29.1932  -33.0810   23.8387 C   0  0  0  0  0  0  0  0  0  0  0  0
  -24.8590  -28.5455   20.5906 C   0  0  0  0  0  0  0  0  0  0  0  0
  -22.3621   -8.6727   22.2120 C   0  0  0  0  0  0  0  0  0  0  0  0
  -25.3292  -26.9277   18.8380 C   0  0  0  0  0  0  0  0  0  0  0  0
  -21.1880   -6.8978   23.2086 C   0  0  0  0  0  0  0  0  0  0  0  0
  -20.9048   -4.1559   23.6385 C   0  0  0  0  0  0  0  0  0  0  0  0
  -21.2420   -6.3859   24.5050 C   0  0  0  0  0  0  0  0  0  0  0  0
  -29.7455  -20.4607   19.2176 C   0  0  0  0  0  0  0  0  0  0  0  0
  -25.5762   -9.9610   19.7814 C   0  0  0  0  0  0  0  0  0  0  0  0
  -27.0595  -10.1799   18.1730 C   0  0  0  0  0  0  0  0  0  0  0  0
  -29.3111  -18.1919   19.4750 C   0  0  0  0  0  0  0  0  0  0  0  0
  -28.3857  -20.4207   18.9997 C   0  0  0  0  0  0  0  0  0  0  0  0
  -31.6692  -18.8916   19.7612 C   0  0  0  0  0  0  0  0  0  0  0  0
  -26.4005  -24.8593   18.6273 C   0  0  0  0  0  0  0  0  0  1  0  0
  -25.4423   -8.3076   17.8159 C   0  0  0  0  0  0  0  0  0  0  0  0
  -26.4877  -23.5845   18.2286 C   0  0  0  0  0  0  0  0  0  0  0  0
  -27.7300  -22.8067   18.5445 C   0  0  0  0  0  0  0  0  0  0  0  0
  -26.6737  -30.7852   22.4123 C   0  0  0  0  0  0  0  0  0  0  0  0
  -23.6124  -30.7156   23.4829 C   0  0  0  0  0  0  0  0  0  0  0  0
  -20.4941  -29.3476   23.2556 C   0  0  0  0  0  0  0  0  0  0  0  0
  -28.3436  -15.8646   19.6537 C   0  0  0  0  0  0  0  0  0  0  0  0
  -28.7253  -33.3345   26.3302 C   0  0  0  0  0  0  0  0  0  0  0  0
  -25.3820  -30.9908   20.2570 C   0  0  0  0  0  0  0  0  0  0  0  0
  -24.3220  -28.8256   21.9696 C   0  0  0  0  0  0  0  0  0  0  0  0
  -27.7501  -32.1702   26.1759 C   0  0  0  0  0  0  0  0  0  0  0  0
  -30.2471  -12.7269   20.7743 C   0  0  0  0  0  0  0  0  0  0  0  0
  -28.3057  -31.1336   25.2046 C   0  0  0  0  0  0  0  0  0  0  0  0
  -29.5826  -11.6910   19.8706 C   0  0  0  0  0  0  0  0  0  0  0  0
  -30.1351  -14.1390   20.2137 C   0  0  0  0  0  0  0  0  0  0  0  0
  -27.7442  -13.4654   19.9203 C   0  0  0  0  0  0  0  0  0  0  0  0
  -28.5014  -31.7354   23.8078 C   0  0  1  0  0  0  0  0  0  0  0  0
  -25.3515  -31.1116   21.7775 C   0  0  1  0  0  0  0  0  0  0  0  0
  -28.2742  -12.1977   19.2321 C   0  0  2  0  0  0  0  0  0  0  0  0
  -18.2100  -29.4684   24.2879 C   0  0  0  0  0  0  0  0  0  0  0  0
  -24.6261  -29.1575   25.9025 C   0  0  0  0  0  0  0  0  0  0  0  0
  -22.2588  -28.4992   26.3829 C   0  0  0  0  0  0  0  0  0  0  0  0
  -22.9162  -30.9051   26.4287 C   0  0  0  0  0  0  0  0  0  0  0  0
  -19.2522  -30.1567   20.6940 C   0  0  0  0  0  0  0  0  0  0  0  0
  -22.7563  -29.7059   24.2086 C   0  0  1  0  0  0  0  0  0  0  0  0
  -19.1179  -29.9840   23.1821 C   0  0  2  0  0  0  0  0  0  0  0  0
  -23.1512  -29.5610   25.7055 C   0  0  0  0  0  0  0  0  0  0  0  0
  -26.3296  -10.9971   20.1598 N   0  0  0  0  0  0  0  0  0  0  0  0
  -27.2227  -11.1055   19.1614 N   0  0  0  0  0  0  0  0  0  0  0  0
  -24.3538  -30.2350   22.3942 N   0  0  0  0  0  0  0  0  0  0  0  0
  -28.7508  -14.5332   19.9141 N   0  0  0  0  0  0  0  0  0  0  0  0
  -27.8711  -10.1467   17.0948 N   0  0  0  0  0  0  0  0  0  0  0  0
  -24.3374   -7.6292   18.3481 N   0  0  0  0  0  0  0  0  0  0  0  0
  -27.4647  -21.4530   18.6989 N   0  0  0  0  0  0  0  0  0  0  0  0
  -29.3872  -16.7931   19.6906 N   0  0  0  0  0  0  0  0  0  0  0  0
  -27.2331  -31.8336   23.1176 N   0  0  0  0  0  0  0  0  0  0  0  0
  -21.3724  -30.1137   23.9925 N   0  0  0  0  0  0  0  0  0  0  0  0
  -18.4778  -29.6838   21.8702 N   0  3  0  0  0  0  0  0  0  0  0  0
  -32.5538  -19.7629   19.7800 O   0  0  0  0  0  0  0  0  0  0  0  0
  -25.9330   -7.9228   16.7275 O   0  0  0  0  0  0  0  0  0  0  0  0
  -28.8168  -23.3668   18.6398 O   0  0  0  0  0  0  0  0  0  0  0  0
  -27.1502  -29.6648   22.2737 O   0  0  0  0  0  0  0  0  0  0  0  0
  -23.6174  -31.8890   23.8633 O   0  0  0  0  0  0  0  0  0  0  0  0
  -20.7621  -28.2761   22.7166 O   0  0  0  0  0  0  0  0  0  0  0  0
  -27.1690  -16.1462   19.4069 O   0  0  0  0  0  0  0  0  0  0  0  0
  -25.4749  -22.9527   17.5359 O   0  0  0  0  0  0  0  0  0  0  0  0
  -21.3276   -8.2586   22.9936 O   0  0  0  0  0  0  0  0  0  0  0  0
  -25.3084  -25.6444   18.3856 O   0  0  0  0  0  0  0  0  0  1  0  0
  -20.7672   -2.8396   23.8449 F   0  0  0  0  0  0  0  0  0  0  0  0
  -21.4285   -7.2063   25.5481 F   0  0  0  0  0  0  0  0  0  0  0  0
  -30.4737  -21.5790   19.1755 F   0  0  0  0  0  0  0  0  0  0  0  0
  -27.7611  -18.8314   19.1275 S   0  0  0  0  0  0  0  0  0  0  0  0
  1  2  1  0  0  0  0
  1  5  2  0  0  0  0
  2  6  2  0  0  0  0
  3  8  2  0  0  0  0
  3 15  1  0  0  0  0
  4  9  1  0  0  0  0
  4 15  2  0  0  0  0
  5 18  1  0  0  0  0
  6 20  1  0  0  0  0
  7 10  2  0  0  0  0
  7 19  1  0  0  0  0
  8 22  1  0  0  0  0
  9 22  2  0  0  0  0
 10 23  1  0  0  0  0
 11 12  2  0  0  0  0
 11 24  1  0  0  0  0
 12 25  1  0  0  0  0
 13 21  1  0  0  0  0
 13 23  2  0  0  0  0
 14 25  2  0  0  0  0
 14 26  1  0  0  0  0
 15 28  1  0  0  0  0
 16 27  1  0  0  0  0
 16 30  2  0  0  0  0
 16 32  1  0  0  0  0
 17 28  1  0  0  0  0
 17 29  2  0  0  0  0
 17 34  1  0  0  0  0
 18 20  2  0  0  0  0
 18 41  1  0  0  0  0
 19 21  2  0  0  0  0
 19 42  1  0  0  0  0
 20 50  1  0  0  0  0
 21 43  1  0  0  0  0
 22 80  1  0  0  0  0
 23 81  1  0  0  0  0
 24 26  2  0  0  0  0
 24 80  1  0  0  0  0
 25 82  1  0  0  0  0
 26 83  1  0  0  0  0
 27 31  2  0  0  0  0
 27 84  1  0  0  0  0
 28 61  2  0  0  0  0
 29 62  1  0  0  0  0
 29 65  1  0  0  0  0
 30 68  1  0  0  0  0
 30 85  1  0  0  0  0
 31 67  1  0  0  0  0
 31 85  1  0  0  0  0
 32 72  2  0  0  0  0
 33 35  2  0  0  0  0
 33 81  1  0  0  0  0
 34 66  1  0  0  0  0
 34 73  2  0  0  0  0
 35 36  1  0  0  0  0
 35 79  1  0  0  0  0
 36 67  1  0  0  0  0
 36 74  2  0  0  0  0
 37 51  1  0  0  0  0
 37 69  1  0  0  0  0
 37 75  2  0  0  0  0
 38 58  1  0  0  0  0
 38 63  1  0  0  0  0
 38 76  2  0  0  0  0
 39 59  1  0  0  0  0
 39 70  1  0  0  0  0
 39 77  2  0  0  0  0
 40 64  1  0  0  0  0
 40 68  1  0  0  0  0
 40 78  2  0  0  0  0
 41 44  1  0  0  0  0
 42 51  1  0  0  0  0
 43 63  1  0  0  0  0
 44 46  1  0  0  0  0
 45 47  1  0  0  0  0
 45 48  1  0  0  0  0
 46 50  1  0  0  0  0
 47 52  1  0  0  0  0
 48 64  1  0  0  0  0
 49 52  1  0  0  0  0
 49 64  1  0  0  0  0
 50 69  1  0  0  0  0
 51 63  1  0  0  0  0
 52 62  1  0  0  0  0
 53 59  1  0  0  0  0
 54 60  1  0  0  0  0
 55 60  1  0  0  0  0
 56 60  1  0  0  0  0
 57 71  1  0  0  0  0
 58 60  1  0  0  0  0
 58 70  1  0  0  0  0
 59 71  1  0  0  0  0
 61 62  1  0  0  0  0
M  CHG  1  71   1
M  ISO  4  33 101  40 100  68 100  81 101
M  END
> <Batch ID>
0176

> <Smiles>
CNC(C)C(=O)NC(C(=O)N1Cc2cc([101O:1][101CH2:1]C(=O)C(=O)Nc3sc([100NH:0][100C:0](=O)N4CCCC(n5nc(-c6ccc(Oc7ccc(F)cc7F)cc6)c(C(N)=O)c5N)C4)c(C=O)c3F)ccc2CC1C(=O)NC1CCCc2ccccc21)C(C)(C)C

> <Shape>
0.293

> <Color>
0.109

> <Negative vol penalty>
0.000

$$$$

  -OEChem-04052304383D

 83 91  0     1  0  0  0  0  0999 V2000
  -25.7956  -37.7718   26.8729 C   0  0  0  0  0  0  0  0  0  0  0  0
  -25.1262  -36.6388   27.3243 C   0  0  0  0  0  0  0  0  0  0  0  0
  -24.4728   -9.2720   21.5700 C   0  0  0  0  0  0  0  0  0  0  0  0
  -22.6360  -10.3388   20.4189 C   0  0  0  0  0  0  0  0  0  0  0  0
  -26.0642  -37.9260   25.5135 C   0  0  0  0  0  0  0  0  0  0  0  0
  -24.7242  -35.6598   26.4164 C   0  0  0  0  0  0  0  0  0  0  0  0
  -23.7864  -28.5772   25.8943 C   0  0  0  0  0  0  0  0  0  0  0  0
  -23.7086   -8.1144   21.7168 C   0  0  0  0  0  0  0  0  0  0  0  0
  -21.8717   -9.1812   20.5657 C   0  0  0  0  0  0  0  0  0  0  0  0
  -22.8223  -27.6432   25.5175 C   0  0  0  0  0  0  0  0  0  0  0  0
  -21.2226   -7.0093   23.7225 C   0  0  0  0  0  0  0  0  0  0  0  0
  -21.2265   -6.3849   24.9697 C   0  0  0  0  0  0  0  0  0  0  0  0
  -23.4107  -27.9790   23.2022 C   0  0  0  0  0  0  0  0  0  0  0  0
  -22.1172   -4.3778   23.9621 C   0  0  0  0  0  0  0  0  0  0  0  0
  -23.9365  -10.3842   20.9210 C   0  0  0  0  0  0  0  0  0  0  0  0
  -25.5825  -11.9038   19.7008 C   0  0  0  0  0  0  0  0  0  0  0  0
  -25.6738  -36.9439   24.5896 C   0  0  0  0  0  0  0  0  0  0  0  0
  -24.5637  -29.2281   24.9255 C   0  0  0  0  0  0  0  0  0  0  0  0
  -24.9867  -35.8017   25.0431 C   0  0  0  0  0  0  0  0  0  0  0  0
  -24.3857  -28.9189   23.5695 C   0  0  0  0  0  0  0  0  0  0  0  0
  -22.4080   -8.0690   21.2147 C   0  0  0  0  0  0  0  0  0  0  0  0
  -22.6323  -27.3461   24.1711 C   0  0  0  0  0  0  0  0  0  0  0  0
  -21.6659   -6.3180   22.5950 C   0  0  0  0  0  0  0  0  0  0  0  0
  -21.6738   -5.0692   25.0896 C   0  0  0  0  0  0  0  0  0  0  0  0
  -22.1132   -5.0022   22.7148 C   0  0  0  0  0  0  0  0  0  0  0  0
  -24.7253  -11.5804   20.7696 C   0  0  0  0  0  0  0  0  0  0  0  0
  -20.5372  -19.9705   21.0076 C   0  0  0  0  0  0  0  0  0  0  0  0
  -21.2617  -20.6377   21.9730 C   0  0  0  0  0  0  0  0  0  0  0  0
  -26.0913  -13.1365   20.0295 C   0  0  0  0  0  0  0  0  0  0  0  0
  -22.2388  -18.6799   22.1217 C   0  0  0  0  0  0  0  0  0  0  0  0
  -22.0674  -25.1251   23.7036 C   0  0  0  0  0  0  0  0  0  1  0  0
  -25.8913  -11.1567   18.5166 C   0  0  0  0  0  0  0  0  0  0  0  0
  -21.2257  -24.1469   23.3482 C   0  0  0  0  0  0  0  0  0  0  0  0
  -21.7367  -22.7393   23.2723 C   0  0  0  0  0  0  0  0  0  0  0  0
  -24.9533  -32.2507   24.0222 C   0  0  0  0  0  0  0  0  0  0  0  0
  -27.2734  -30.9819   22.1435 C   0  0  0  0  0  0  0  0  0  0  0  0
  -28.5145  -28.2490   20.5195 C   0  0  0  0  0  0  0  0  0  0  0  0
  -24.0822  -17.6001   23.4567 C   0  0  0  0  0  0  0  0  0  0  0  0
  -25.9445  -37.1771   23.1243 C   0  0  0  0  0  0  0  0  0  0  0  0
  -25.6180  -30.2134   25.3501 C   0  0  0  0  0  0  0  0  0  0  0  0
  -25.2083  -29.5750   22.4919 C   0  0  0  0  0  0  0  0  0  0  0  0
  -25.8162  -35.9164   22.2731 C   0  0  0  0  0  0  0  0  0  0  0  0
  -27.1637  -15.8544   23.8238 C   0  0  0  0  0  0  0  0  0  0  0  0
  -24.5397  -35.1604   22.6276 C   0  0  0  0  0  0  0  0  0  0  0  0
  -26.9683  -14.5927   22.9801 C   0  0  0  0  0  0  0  0  0  0  0  0
  -25.8768  -16.2640   24.5380 C   0  0  0  0  0  0  0  0  0  0  0  0
  -24.5067  -15.1432   22.8246 C   0  0  0  0  0  0  0  0  0  0  0  0
  -24.5564  -34.7060   24.0921 C   0  0  1  0  0  0  0  0  0  0  0  0
  -25.9984  -31.1945   24.2456 C   0  0  1  0  0  0  0  0  0  0  0  0
  -25.7587  -14.7287   22.0346 C   0  0  2  0  0  0  0  0  0  0  0  0
  -19.4372  -20.4426   20.1420 C   0  0  0  0  0  0  0  0  0  0  0  0
  -30.4057  -27.5301   19.0349 C   0  0  0  0  0  0  0  0  0  0  0  0
  -25.9337  -32.3599   19.7736 C   0  0  0  0  0  0  0  0  0  0  0  0
  -27.2533  -30.8725   18.2522 C   0  0  0  0  0  0  0  0  0  0  0  0
  -28.4323  -32.4664   19.7662 C   0  0  0  0  0  0  0  0  0  0  0  0
  -29.4806  -26.2812   22.5078 C   0  0  0  0  0  0  0  0  0  0  0  0
  -27.3259  -30.4148   20.7455 C   0  0  1  0  0  0  0  0  0  0  0  0
  -29.9110  -27.6563   20.4675 C   0  0  2  0  0  0  0  0  0  0  0  0
  -27.2193  -31.5173   19.6543 C   0  0  0  0  0  0  0  0  0  0  0  0
  -24.6891  -12.5310   21.7072 N   0  0  0  0  0  0  0  0  0  0  0  0
  -22.2377  -19.8991   22.6132 N   0  0  0  0  0  0  0  0  0  0  0  0
  -25.5300  -13.4636   21.2287 N   0  0  0  0  0  0  0  0  0  0  0  0
  -26.2221  -30.5360   22.9570 N   0  0  0  0  0  0  0  0  0  0  0  0
  -24.7757  -16.3774   23.5792 N   0  0  0  0  0  0  0  0  0  0  0  0
  -26.9597  -13.9616   19.4070 N   0  0  0  0  0  0  0  0  0  0  0  0
  -25.2804   -9.9083   18.3360 N   0  0  0  0  0  0  0  0  0  0  0  0
  -21.0546  -21.9946   22.3198 N   0  0  0  0  0  0  0  0  0  0  0  0
  -23.0770  -17.5985   22.4902 N   0  0  0  0  0  0  0  0  0  0  0  0
  -25.3978  -33.5391   24.2497 N   0  0  0  0  0  0  0  0  0  0  0  0
  -28.5465  -29.6189   20.6734 N   0  0  0  0  0  0  0  0  0  0  0  0
  -29.9225  -26.3021   21.0896 N   0  3  0  0  0  0  0  0  0  0  0  0
  -26.6979  -11.5762   17.6524 O   0  0  0  0  0  0  0  0  0  0  0  0
  -22.6513  -22.3612   23.9964 O   0  0  0  0  0  0  0  0  0  0  0  0
  -23.8273  -31.9212   23.6682 O   0  0  0  0  0  0  0  0  0  0  0  0
  -28.1376  -31.7854   22.5031 O   0  0  0  0  0  0  0  0  0  0  0  0
  -27.4970  -27.5656   20.4286 O   0  0  0  0  0  0  0  0  0  0  0  0
  -24.3778  -18.5848   24.1384 O   0  0  0  0  0  0  0  0  0  0  0  0
  -19.8992  -24.3818   23.0484 O   0  0  0  0  0  0  0  0  0  0  0  0
  -21.6621   -6.9395   21.3575 O   0  0  0  0  0  0  0  0  0  0  0  0
  -21.6915  -26.4354   23.8005 O   0  0  0  0  0  0  0  0  0  1  0  0
  -21.6790   -4.4702   26.2876 F   0  0  0  0  0  0  0  0  0  0  0  0
  -22.5414   -4.3334   21.6354 F   0  0  0  0  0  0  0  0  0  0  0  0
  -21.0931  -18.3526   20.8867 S   0  0  0  0  0  0  0  0  0  0  0  0
  1  2  1  0  0  0  0
  1  5  2  0  0  0  0
  2  6  2  0  0  0  0
  3  8  2  0  0  0  0
  3 15  1  0  0  0  0
  4  9  1  0  0  0  0
  4 15  2  0  0  0  0
  5 17  1  0  0  0  0
  6 19  1  0  0  0  0
  7 10  2  0  0  0  0
  7 18  1  0  0  0  0
  8 21  1  0  0  0  0
  9 21  2  0  0  0  0
 10 22  1  0  0  0  0
 11 12  2  0  0  0  0
 11 23  1  0  0  0  0
 12 24  1  0  0  0  0
 13 20  1  0  0  0  0
 13 22  2  0  0  0  0
 14 24  2  0  0  0  0
 14 25  1  0  0  0  0
 15 26  1  0  0  0  0
 16 26  1  0  0  0  0
 16 29  2  0  0  0  0
 16 32  1  0  0  0  0
 17 19  2  0  0  0  0
 17 39  1  0  0  0  0
 18 20  2  0  0  0  0
 18 40  1  0  0  0  0
 19 48  1  0  0  0  0
 20 41  1  0  0  0  0
 21 79  1  0  0  0  0
 22 80  1  0  0  0  0
 23 25  2  0  0  0  0
 23 79  1  0  0  0  0
 24 81  1  0  0  0  0
 25 82  1  0  0  0  0
 26 60  2  0  0  0  0
 27 28  2  0  0  0  0
 27 51  1  0  0  0  0
 27 83  1  0  0  0  0
 28 61  1  0  0  0  0
 28 67  1  0  0  0  0
 29 62  1  0  0  0  0
 29 65  1  0  0  0  0
 30 61  2  0  0  0  0
 30 68  1  0  0  0  0
 30 83  1  0  0  0  0
 31 33  2  0  0  0  0
 31 80  1  0  0  0  0
 32 66  1  0  0  0  0
 32 72  2  0  0  0  0
 33 34  1  0  0  0  0
 33 78  1  0  0  0  0
 34 67  1  0  0  0  0
 34 73  2  0  0  0  0
 35 49  1  0  0  0  0
 35 69  1  0  0  0  0
 35 74  2  0  0  0  0
 36 57  1  0  0  0  0
 36 63  1  0  0  0  0
 36 75  2  0  0  0  0
 37 58  1  0  0  0  0
 37 70  1  0  0  0  0
 37 76  2  0  0  0  0
 38 64  1  0  0  0  0
 38 68  1  0  0  0  0
 38 77  2  0  0  0  0
 39 42  1  0  0  0  0
 40 49  1  0  0  0  0
 41 63  1  0  0  0  0
 42 44  1  0  0  0  0
 43 45  1  0  0  0  0
 43 46  1  0  0  0  0
 44 48  1  0  0  0  0
 45 50  1  0  0  0  0
 46 64  1  0  0  0  0
 47 50  1  0  0  0  0
 47 64  1  0  0  0  0
 48 69  1  0  0  0  0
 49 63  1  0  0  0  0
 50 62  1  0  0  0  0
 52 58  1  0  0  0  0
 53 59  1  0  0  0  0
 54 59  1  0  0  0  0
 55 59  1  0  0  0  0
 56 71  1  0  0  0  0
 57 59  1  0  0  0  0
 57 70  1  0  0  0  0
 58 71  1  0  0  0  0
 60 62  1  0  0  0  0
M  CHG  1  71   1
M  ISO  4  31 101  38 100  68 100  80 101
M  END
> <Batch ID>
0176

> <Smiles>
CNC(C)C(=O)NC(C(=O)N1Cc2cc([101O:1][101CH2:1]C(=O)C(=O)Nc3nc([100NH:0][100C:0](=O)N4CCCC(n5nc(-c6ccc(Oc7ccc(F)cc7F)cc6)c(C(N)=O)c5N)C4)sc3C)ccc2CC1C(=O)NC1CCCc2ccccc21)C(C)(C)C

> <Shape>
0.253

> <Color>
0.108

> <Negative vol penalty>
0.000

$$$$

  -OEChem-04052304383D

 84 92  0     1  0  0  0  0  0999 V2000
  -29.5271  -17.7657   17.2031 C   0  0  0  0  0  0  0  0  0  0  0  0
  -29.9068  -18.0721   18.5060 C   0  0  0  0  0  0  0  0  0  0  0  0
  -23.1628   -9.9887   21.5777 C   0  0  0  0  0  0  0  0  0  0  0  0
  -23.9046  -11.0042   23.6406 C   0  0  0  0  0  0  0  0  0  0  0  0
  -29.4293  -18.7788   16.2503 C   0  0  0  0  0  0  0  0  0  0  0  0
  -30.1900  -19.3917   18.8564 C   0  0  0  0  0  0  0  0  0  0  0  0
  -28.0876  -20.7247   23.2664 C   0  0  0  0  0  0  0  0  0  0  0  0
  -22.4366   -9.0446   22.3035 C   0  0  0  0  0  0  0  0  0  0  0  0
  -23.1784  -10.0601   24.3665 C   0  0  0  0  0  0  0  0  0  0  0  0
  -28.7184  -20.2877   24.4304 C   0  0  0  0  0  0  0  0  0  0  0  0
  -23.0627   -6.1923   24.0055 C   0  0  0  0  0  0  0  0  0  0  0  0
  -23.1543   -4.8588   23.6066 C   0  0  0  0  0  0  0  0  0  0  0  0
  -29.7398  -22.4583   24.6843 C   0  0  0  0  0  0  0  0  0  0  0  0
  -20.7701   -4.8112   23.2186 C   0  0  0  0  0  0  0  0  0  0  0  0
  -23.8968  -10.9685   22.2462 C   0  0  0  0  0  0  0  0  0  0  0  0
  -24.1968  -13.1974   21.0421 C   0  0  0  0  0  0  0  0  0  0  0  0
  -29.7022  -20.1129   16.5916 C   0  0  0  0  0  0  0  0  0  0  0  0
  -28.2871  -22.0305   22.7959 C   0  0  0  0  0  0  0  0  0  0  0  0
  -30.0971  -20.4234   17.9069 C   0  0  0  0  0  0  0  0  0  0  0  0
  -29.1083  -22.9102   23.5155 C   0  0  0  0  0  0  0  0  0  0  0  0
  -22.4444   -9.0803   23.6979 C   0  0  0  0  0  0  0  0  0  0  0  0
  -29.5470  -21.1537   25.1380 C   0  0  0  0  0  0  0  0  0  0  0  0
  -21.8248   -6.8352   24.0110 C   0  0  0  0  0  0  0  0  0  0  0  0
  -22.0080   -4.1683   23.2131 C   0  0  0  0  0  0  0  0  0  0  0  0
  -20.6785   -6.1446   23.6175 C   0  0  0  0  0  0  0  0  0  0  0  0
  -24.6476  -11.9437   21.4969 C   0  0  0  0  0  0  0  0  0  0  0  0
  -33.1860  -14.3211   22.8886 C   0  0  0  0  0  0  0  0  0  0  0  0
  -25.2789  -13.7352   20.3892 C   0  0  0  0  0  0  0  0  0  0  0  0
  -31.8446  -14.0270   23.0159 C   0  0  0  0  0  0  0  0  0  0  0  0
  -32.8583  -15.1383   24.8973 C   0  0  0  0  0  0  0  0  0  0  0  0
  -22.9145  -13.8201   21.1961 C   0  0  0  0  0  0  0  0  0  0  0  0
  -31.7012  -19.1556   27.2325 C   0  0  0  0  0  0  0  0  0  0  0  0
  -32.1779  -17.7468   27.4326 C   0  0  0  0  0  0  0  0  0  0  0  0
  -29.5135  -23.2994   20.1521 C   0  0  0  0  0  0  0  0  0  0  0  0
  -28.4670  -26.0747   21.4654 C   0  0  0  0  0  0  0  0  0  0  0  0
  -27.5953  -27.8019   24.2768 C   0  0  0  0  0  0  0  0  0  0  0  0
  -31.1739  -12.8859   20.8724 C   0  0  0  0  0  0  0  0  0  0  0  0
  -29.6287  -21.1671   15.5156 C   0  0  0  0  0  0  0  0  0  0  0  0
  -27.5781  -22.4948   21.5532 C   0  0  0  0  0  0  0  0  0  0  0  0
  -29.3393  -24.3283   23.0637 C   0  0  0  0  0  0  0  0  0  0  0  0
  -29.5827  -22.5921   16.0611 C   0  0  0  0  0  0  0  0  0  0  0  0
  -29.1933  -12.4556   17.9450 C   0  0  0  0  0  0  0  0  0  0  0  0
  -30.6396  -22.7834   17.1442 C   0  0  0  0  0  0  0  0  0  0  0  0
  -27.7614  -12.3957   18.4817 C   0  0  0  0  0  0  0  0  0  0  0  0
  -30.1811  -11.7693   18.8868 C   0  0  0  0  0  0  0  0  0  0  0  0
  -28.7033  -12.1726   20.8162 C   0  0  0  0  0  0  0  0  0  0  0  0
  -30.3885  -21.8463   18.3317 C   0  0  1  0  0  0  0  0  0  0  0  0
  -28.2601  -23.6850   20.8856 C   0  0  1  0  0  0  0  0  0  0  0  0
  -27.6817  -12.9077   19.9333 C   0  0  2  0  0  0  0  0  0  0  0  0
  -26.8183  -30.0635   25.0377 C   0  0  0  0  0  0  0  0  0  0  0  0
  -31.2956  -27.1628   21.1121 C   0  0  0  0  0  0  0  0  0  0  0  0
  -30.7136  -29.0001   22.7101 C   0  0  0  0  0  0  0  0  0  0  0  0
  -29.4764  -28.7857   20.5546 C   0  0  0  0  0  0  0  0  0  0  0  0
  -25.0737  -26.6980   25.3640 C   0  0  0  0  0  0  0  0  0  0  0  0
  -33.1153  -15.8004   26.2201 C   0  0  0  0  0  0  0  0  0  0  0  0
  -30.4887  -19.3424   26.3580 C   0  0  0  0  0  0  0  0  0  1  0  0
  -29.0569  -27.1059   22.3969 C   0  0  1  0  0  0  0  0  0  0  0  0
  -26.3928  -28.6733   24.5913 C   0  0  2  0  0  0  0  0  0  0  0  0
  -30.1330  -27.9864   21.7012 C   0  0  0  0  0  0  0  0  0  0  0  0
  -25.9171  -11.6994   21.1612 N   0  0  0  0  0  0  0  0  0  0  0  0
  -33.7689  -14.9588   23.9663 N   0  0  0  0  0  0  0  0  0  0  0  0
  -26.2732  -12.8070   20.4885 N   0  0  0  0  0  0  0  0  0  0  0  0
  -28.6289  -24.7331   21.8394 N   0  0  0  0  0  0  0  0  0  0  0  0
  -30.0513  -12.3081   20.2424 N   0  0  0  0  0  0  0  0  0  0  0  0
  -25.4673  -14.9068   19.7456 N   0  0  0  0  0  0  0  0  0  0  0  0
  -21.9156  -13.1287   21.8949 N   0  0  0  0  0  0  0  0  0  0  0  0
  -30.9221  -13.3938   22.1465 N   0  0  0  0  0  0  0  0  0  0  0  0
  -32.5838  -17.1428   26.2650 N   0  0  0  0  0  0  0  0  0  0  0  0
  -29.3178  -22.3568   19.1608 N   0  0  0  0  0  0  0  0  0  0  0  0
  -27.9304  -27.8569   22.9404 N   0  0  0  0  0  0  0  0  0  0  0  0
  -25.5783  -28.0595   25.6780 N   0  3  0  0  0  0  0  0  0  0  0  0
  -22.6571  -14.9491   20.7138 O   0  0  0  0  0  0  0  0  0  0  0  0
  -32.3122  -20.0449   27.8060 O   0  0  0  0  0  0  0  0  0  0  0  0
  -32.1854  -17.3049   28.5708 O   0  0  0  0  0  0  0  0  0  0  0  0
  -30.5790  -23.8196   20.4616 O   0  0  0  0  0  0  0  0  0  0  0  0
  -27.8778  -26.4461   20.4473 O   0  0  0  0  0  0  0  0  0  0  0  0
  -28.1813  -27.1416   25.1318 O   0  0  0  0  0  0  0  0  0  0  0  0
  -32.2706  -12.9516   20.3114 O   0  0  0  0  0  0  0  0  0  0  0  0
  -21.7357   -8.1593   24.4065 O   0  0  0  0  0  0  0  0  0  0  0  0
  -30.1645  -20.7296   26.2741 O   0  0  0  0  0  0  0  0  0  1  0  0
  -22.0963   -2.8882   22.8286 F   0  0  0  0  0  0  0  0  0  0  0  0
  -19.4867   -6.7573   23.6196 F   0  0  0  0  0  0  0  0  0  0  0  0
  -33.8855  -14.0138   21.7907 F   0  0  0  0  0  0  0  0  0  0  0  0
  -31.2802  -14.5644   24.5436 S   0  0  0  0  0  0  0  0  0  0  0  0
  1  2  1  0  0  0  0
  1  5  2  0  0  0  0
  2  6  2  0  0  0  0
  3  8  2  0  0  0  0
  3 15  1  0  0  0  0
  4  9  1  0  0  0  0
  4 15  2  0  0  0  0
  5 17  1  0  0  0  0
  6 19  1  0  0  0  0
  7 10  2  0  0  0  0
  7 18  1  0  0  0  0
  8 21  1  0  0  0  0
  9 21  2  0  0  0  0
 10 22  1  0  0  0  0
 11 12  2  0  0  0  0
 11 23  1  0  0  0  0
 12 24  1  0  0  0  0
 13 20  1  0  0  0  0
 13 22  2  0  0  0  0
 14 24  2  0  0  0  0
 14 25  1  0  0  0  0
 15 26  1  0  0  0  0
 16 26  1  0  0  0  0
 16 28  2  0  0  0  0
 16 31  1  0  0  0  0
 17 19  2  0  0  0  0
 17 38  1  0  0  0  0
 18 20  2  0  0  0  0
 18 39  1  0  0  0  0
 19 47  1  0  0  0  0
 20 40  1  0  0  0  0
 21 79  1  0  0  0  0
 22 80  1  0  0  0  0
 23 25  2  0  0  0  0
 23 79  1  0  0  0  0
 24 81  1  0  0  0  0
 25 82  1  0  0  0  0
 26 60  2  0  0  0  0
 27 29  2  0  0  0  0
 27 61  1  0  0  0  0
 27 83  1  0  0  0  0
 28 62  1  0  0  0  0
 28 65  1  0  0  0  0
 29 67  1  0  0  0  0
 29 84  1  0  0  0  0
 30 55  1  0  0  0  0
 30 61  2  0  0  0  0
 30 84  1  0  0  0  0
 31 66  1  0  0  0  0
 31 72  2  0  0  0  0
 32 33  1  0  0  0  0
 32 56  1  0  0  0  0
 32 73  2  0  0  0  0
 33 68  1  0  0  0  0
 33 74  2  0  0  0  0
 34 48  1  0  0  0  0
 34 69  1  0  0  0  0
 34 75  2  0  0  0  0
 35 57  1  0  0  0  0
 35 63  1  0  0  0  0
 35 76  2  0  0  0  0
 36 58  1  0  0  0  0
 36 70  1  0  0  0  0
 36 77  2  0  0  0  0
 37 64  1  0  0  0  0
 37 67  1  0  0  0  0
 37 78  2  0  0  0  0
 38 41  1  0  0  0  0
 39 48  1  0  0  0  0
 40 63  1  0  0  0  0
 41 43  1  0  0  0  0
 42 44  1  0  0  0  0
 42 45  1  0  0  0  0
 43 47  1  0  0  0  0
 44 49  1  0  0  0  0
 45 64  1  0  0  0  0
 46 49  1  0  0  0  0
 46 64  1  0  0  0  0
 47 69  1  0  0  0  0
 48 63  1  0  0  0  0
 49 62  1  0  0  0  0
 50 58  1  0  0  0  0
 51 59  1  0  0  0  0
 52 59  1  0  0  0  0
 53 59  1  0  0  0  0
 54 71  1  0  0  0  0
 55 68  1  0  0  0  0
 56 80  1  0  0  0  0
 57 59  1  0  0  0  0
 57 70  1  0  0  0  0
 58 71  1  0  0  0  0
 60 62  1  0  0  0  0
M  CHG  1  71   1
M  ISO  4  37 100  56 101  67 100  80 101
M  END
> <Batch ID>
0176

> <Smiles>
CNC(C)C(=O)NC(C(=O)N1Cc2cc([101O:1][101CH2:1]C(=O)C(=O)NCc3nc(F)c([100NH:0][100C:0](=O)N4CCCC(n5nc(-c6ccc(Oc7ccc(F)cc7F)cc6)c(C(N)=O)c5N)C4)s3)ccc2CC1C(=O)NC1CCCc2ccccc21)C(C)(C)C

> <Shape>
0.219

> <Color>
0.133

> <Negative vol penalty>
0.000

$$$$

  -OEChem-04052304383D

 90 98  0     1  0  0  0  0  0999 V2000
  -28.6551  -32.0275   29.3982 C   0  0  0  0  0  0  0  0  0  0  0  0
  -29.3137  -30.8374   29.1063 C   0  0  0  0  0  0  0  0  0  0  0  0
  -23.0781   -9.8648   19.9406 C   0  0  0  0  0  0  0  0  0  0  0  0
  -23.8349   -9.8752   22.2350 C   0  0  0  0  0  0  0  0  0  0  0  0
  -28.4895  -32.9928   28.4059 C   0  0  0  0  0  0  0  0  0  0  0  0
  -29.8062  -30.6114   27.8215 C   0  0  0  0  0  0  0  0  0  0  0  0
  -34.4958  -28.7004   27.8468 C   0  0  0  0  0  0  0  0  0  0  0  0
  -22.3347   -8.7115   20.1910 C   0  0  0  0  0  0  0  0  0  0  0  0
  -23.0914   -8.7218   22.4854 C   0  0  0  0  0  0  0  0  0  0  0  0
  -34.6281  -27.3415   28.1287 C   0  0  0  0  0  0  0  0  0  0  0  0
  -19.8630   -7.9226   23.0845 C   0  0  0  0  0  0  0  0  0  0  0  0
  -19.1044   -7.8836   24.2544 C   0  0  0  0  0  0  0  0  0  0  0  0
  -32.0507  -16.6303   22.5664 C   0  0  0  0  0  0  0  0  0  0  0  0
  -34.8507  -26.8803   25.7713 C   0  0  0  0  0  0  0  0  0  0  0  0
  -20.3462   -5.9479   24.9949 C   0  0  0  0  0  0  0  0  0  0  0  0
  -23.8283  -10.4467   20.9626 C   0  0  0  0  0  0  0  0  0  0  0  0
  -32.6104  -17.5222   23.4744 C   0  0  0  0  0  0  0  0  0  0  0  0
  -24.1685  -12.9719   20.8399 C   0  0  0  0  0  0  0  0  0  0  0  0
  -28.9887  -32.7826   27.1108 C   0  0  0  0  0  0  0  0  0  0  0  0
  -34.5292  -29.1591   26.5220 C   0  0  0  0  0  0  0  0  0  0  0  0
  -29.6460  -31.5742   26.8105 C   0  0  0  0  0  0  0  0  0  0  0  0
  -34.7212  -28.2459   25.4755 C   0  0  0  0  0  0  0  0  0  0  0  0
  -30.6715  -16.5967   22.3934 C   0  0  0  0  0  0  0  0  0  0  0  0
  -22.3413   -8.1400   21.4634 C   0  0  0  0  0  0  0  0  0  0  0  0
  -34.8027  -26.4308   27.0907 C   0  0  0  0  0  0  0  0  0  0  0  0
  -20.8631   -6.9742   22.8697 C   0  0  0  0  0  0  0  0  0  0  0  0
  -19.3460   -6.8963   25.2096 C   0  0  0  0  0  0  0  0  0  0  0  0
  -21.1047   -5.9869   23.8250 C   0  0  0  0  0  0  0  0  0  0  0  0
  -24.5969  -11.6377   20.7045 C   0  0  0  0  0  0  0  0  0  0  0  0
  -31.7543  -18.3528   24.1793 C   0  0  0  0  0  0  0  0  0  0  0  0
  -29.9021  -17.4686   23.1468 C   0  0  0  0  0  0  0  0  0  0  0  0
  -25.2607  -13.7217   20.4772 C   0  0  0  0  0  0  0  0  0  0  0  0
  -34.0561  -17.5502   23.6484 C   0  0  0  0  0  0  0  0  0  0  0  0
  -22.8971  -13.4874   21.2564 C   0  0  0  0  0  0  0  0  0  0  0  0
  -32.4789  -30.6677   24.6183 C   0  0  0  0  0  0  0  0  0  0  0  0
  -33.9784  -22.9063   27.0188 C   0  0  0  0  0  0  0  0  0  0  0  0
  -35.0159  -30.7489   22.5985 C   0  0  0  0  0  0  0  0  0  0  0  0
  -37.9927  -29.3896   21.6300 C   0  0  0  0  0  0  0  0  0  0  0  0
  -30.7259  -14.7713   20.6582 C   0  0  0  0  0  0  0  0  0  0  0  0
  -28.7440  -33.8353   26.0588 C   0  0  0  0  0  0  0  0  0  0  0  0
  -34.4118  -30.6312   26.2365 C   0  0  0  0  0  0  0  0  0  0  0  0
  -34.7844  -28.6894   24.0375 C   0  0  0  0  0  0  0  0  0  0  0  0
  -29.6247  -33.6767   24.8221 C   0  0  0  0  0  0  0  0  0  0  0  0
  -29.6164  -12.3537   18.2914 C   0  0  0  0  0  0  0  0  0  0  0  0
  -29.6344  -32.2242   24.3563 C   0  0  0  0  0  0  0  0  0  0  0  0
  -28.1764  -12.0617   18.7193 C   0  0  0  0  0  0  0  0  0  0  0  0
  -30.5297  -12.5847   19.4940 C   0  0  0  0  0  0  0  0  0  0  0  0
  -28.6203  -13.3095   20.8717 C   0  0  0  0  0  0  0  0  0  0  0  0
  -30.2161  -31.3027   25.4352 C   0  0  1  0  0  0  0  0  0  0  0  0
  -33.9455  -30.9288   24.8147 C   0  0  1  0  0  0  0  0  0  0  0  0
  -27.6493  -13.1341   19.6928 C   0  0  2  0  0  0  0  0  0  0  0  0
  -39.8143  -29.6491   19.9237 C   0  0  0  0  0  0  0  0  0  0  0  0
  -33.2172  -29.4754   20.4883 C   0  0  0  0  0  0  0  0  0  0  0  0
  -35.2746  -28.8972   19.1840 C   0  0  0  0  0  0  0  0  0  0  0  0
  -34.7125  -31.2865   19.6292 C   0  0  0  0  0  0  0  0  0  0  0  0
  -36.2816  -16.9617   23.3142 C   0  0  0  0  0  0  0  0  0  0  0  0
  -40.0303  -29.9047   23.7137 C   0  0  0  0  0  0  0  0  0  0  0  0
  -33.4310  -21.8400   26.0912 C   0  0  0  0  0  0  0  0  0  0  0  0
  -34.4622  -24.1891   26.3733 C   0  0  0  0  0  0  0  0  0  1  0  0
  -31.5243  -20.1627   25.8813 C   0  0  0  0  0  0  0  0  0  0  0  0
  -35.5551  -29.8379   21.5222 C   0  0  1  0  0  0  0  0  0  0  0  0
  -39.3357  -30.0245   21.3175 C   0  0  2  0  0  0  0  0  0  0  0  0
  -32.4132  -20.9712   26.8194 C   0  0  1  0  0  0  0  0  0  0  0  0
  -34.6868  -29.8654   20.2328 C   0  0  0  0  0  0  0  0  0  0  0  0
  -25.8624  -11.5423   20.2880 N   0  0  0  0  0  0  0  0  0  0  0  0
  -30.4097  -18.3490   24.0384 N   0  0  0  0  0  0  0  0  0  0  0  0
  -34.8700  -16.7784   22.9949 N   0  0  0  0  0  0  0  0  0  0  0  0
  -26.2386  -12.8259   20.1586 N   0  0  0  0  0  0  0  0  0  0  0  0
  -34.6583  -30.1384   23.8090 N   0  0  0  0  0  0  0  0  0  0  0  0
  -29.9688  -13.6162   20.3693 N   0  0  0  0  0  0  0  0  0  0  0  0
  -25.4703  -15.0532   20.4028 N   0  0  0  0  0  0  0  0  0  0  0  0
  -21.8854  -12.5779   21.5935 N   0  0  0  0  0  0  0  0  0  0  0  0
  -30.0768  -15.6969   21.4745 N   0  0  0  0  0  0  0  0  0  0  0  0
  -32.3049  -19.2446   25.0854 N   0  0  0  0  0  0  0  0  0  0  0  0
  -31.6599  -31.3990   25.4574 N   0  0  0  0  0  0  0  0  0  0  0  0
  -36.9452  -30.2291   21.3150 N   0  0  0  0  0  0  0  0  0  0  0  0
  -40.3612  -29.5787   22.3026 N   0  3  0  0  0  0  0  0  0  0  0  0
  -22.6599  -14.7179   21.3119 O   0  0  0  0  0  0  0  0  0  0  0  0
  -32.1170  -29.8635   23.7674 O   0  0  0  0  0  0  0  0  0  0  0  0
  -34.0002  -22.7366   28.2377 O   0  0  0  0  0  0  0  0  0  0  0  0
  -34.9223  -31.9585   22.3760 O   0  0  0  0  0  0  0  0  0  0  0  0
  -37.8836  -28.2604   22.1027 O   0  0  0  0  0  0  0  0  0  0  0  0
  -31.8555  -14.9402   20.1919 O   0  0  0  0  0  0  0  0  0  0  0  0
  -21.6158   -7.0147   21.7081 O   0  0  0  0  0  0  0  0  0  0  0  0
  -34.9314  -25.1038   27.3630 O   0  0  0  0  0  0  0  0  0  1  0  0
  -18.6186   -6.8599   26.3337 F   0  0  0  0  0  0  0  0  0  0  0  0
  -22.0649   -5.0738   23.6248 F   0  0  0  0  0  0  0  0  0  0  0  0
  -28.5673  -17.4549   22.9977 F   0  0  0  0  0  0  0  0  0  0  0  0
  -34.5693  -18.4268   24.5368 F   0  0  0  0  0  0  0  0  0  0  0  0
  -33.0863  -20.1026   27.6280 F   0  0  0  0  0  0  0  0  0  0  0  0
  1  2  1  0  0  0  0
  1  5  2  0  0  0  0
  2  6  2  0  0  0  0
  3  8  2  0  0  0  0
  3 16  1  0  0  0  0
  4  9  1  0  0  0  0
  4 16  2  0  0  0  0
  5 19  1  0  0  0  0
  6 21  1  0  0  0  0
  7 10  2  0  0  0  0
  7 20  1  0  0  0  0
  8 24  1  0  0  0  0
  9 24  2  0  0  0  0
 10 25  1  0  0  0  0
 11 12  2  0  0  0  0
 11 26  1  0  0  0  0
 12 27  1  0  0  0  0
 13 17  1  0  0  0  0
 13 23  2  0  0  0  0
 14 22  1  0  0  0  0
 14 25  2  0  0  0  0
 15 27  2  0  0  0  0
 15 28  1  0  0  0  0
 16 29  1  0  0  0  0
 17 30  2  0  0  0  0
 17 33  1  0  0  0  0
 18 29  1  0  0  0  0
 18 32  2  0  0  0  0
 18 34  1  0  0  0  0
 19 21  2  0  0  0  0
 19 40  1  0  0  0  0
 20 22  2  0  0  0  0
 20 41  1  0  0  0  0
 21 49  1  0  0  0  0
 22 42  1  0  0  0  0
 23 31  1  0  0  0  0
 23 73  1  0  0  0  0
 24 84  1  0  0  0  0
 25 85  1  0  0  0  0
 26 28  2  0  0  0  0
 26 84  1  0  0  0  0
 27 86  1  0  0  0  0
 28 87  1  0  0  0  0
 29 65  2  0  0  0  0
 30 66  1  0  0  0  0
 30 74  1  0  0  0  0
 31 66  2  0  0  0  0
 31 88  1  0  0  0  0
 32 68  1  0  0  0  0
 32 71  1  0  0  0  0
 33 67  2  0  0  0  0
 33 89  1  0  0  0  0
 34 72  1  0  0  0  0
 34 78  2  0  0  0  0
 35 50  1  0  0  0  0
 35 75  1  0  0  0  0
 35 79  2  0  0  0  0
 36 58  1  0  0  0  0
 36 59  1  0  0  0  0
 36 80  2  0  0  0  0
 37 61  1  0  0  0  0
 37 69  1  0  0  0  0
 37 81  2  0  0  0  0
 38 62  1  0  0  0  0
 38 76  1  0  0  0  0
 38 82  2  0  0  0  0
 39 70  1  0  0  0  0
 39 73  1  0  0  0  0
 39 83  2  0  0  0  0
 40 43  1  0  0  0  0
 41 50  1  0  0  0  0
 42 69  1  0  0  0  0
 43 45  1  0  0  0  0
 44 46  1  0  0  0  0
 44 47  1  0  0  0  0
 45 49  1  0  0  0  0
 46 51  1  0  0  0  0
 47 70  1  0  0  0  0
 48 51  1  0  0  0  0
 48 70  1  0  0  0  0
 49 75  1  0  0  0  0
 50 69  1  0  0  0  0
 51 68  1  0  0  0  0
 52 62  1  0  0  0  0
 53 64  1  0  0  0  0
 54 64  1  0  0  0  0
 55 64  1  0  0  0  0
 56 67  1  0  0  0  0
 57 77  1  0  0  0  0
 58 63  1  0  0  0  0
 59 85  1  0  0  0  0
 60 63  1  0  0  0  0
 60 74  1  0  0  0  0
 61 64  1  0  0  0  0
 61 76  1  0  0  0  0
 62 77  1  0  0  0  0
 63 90  1  0  0  0  0
 65 68  1  0  0  0  0
M  CHG  1  77   1
M  ISO  4  39 100  59 101  73 100  85 101
M  END
> <Batch ID>
0176

> <Smiles>
CN=C(F)c1cc([100NH:0][100C:0](=O)N2CCCC(n3nc(-c4ccc(Oc5ccc(F)cc5F)cc4)c(C(N)=O)c3N)C2)c(F)nc1NCC(F)CC(=O)[101CH2:1][101O:1]c1ccc2c(c1)CN(C(=O)C(NC(=O)C(C)NC)C(C)(C)C)C(C(=O)NC1CCCc3ccccc31)C2

> <Shape>
0.173

> <Color>
0.184

> <Negative vol penalty>
0.000

$$$$

  -OEChem-04052304383D

 83 91  0     1  0  0  0  0  0999 V2000
  -29.8572  -34.5368   24.8848 C   0  0  0  0  0  0  0  0  0  0  0  0
  -29.9980  -33.5141   23.9522 C   0  0  0  0  0  0  0  0  0  0  0  0
  -24.6580   -8.8258   21.4259 C   0  0  0  0  0  0  0  0  0  0  0  0
  -23.0358  -10.6161   21.3989 C   0  0  0  0  0  0  0  0  0  0  0  0
  -28.9107  -34.4252   25.9024 C   0  0  0  0  0  0  0  0  0  0  0  0
  -29.1930  -32.3787   24.0373 C   0  0  0  0  0  0  0  0  0  0  0  0
  -26.9902  -29.0700   19.3783 C   0  0  0  0  0  0  0  0  0  0  0  0
  -23.9064   -8.1593   22.3935 C   0  0  0  0  0  0  0  0  0  0  0  0
  -22.2842   -9.9496   22.3666 C   0  0  0  0  0  0  0  0  0  0  0  0
  -27.4158  -27.8803   18.7890 C   0  0  0  0  0  0  0  0  0  0  0  0
  -21.1225   -6.2432   22.5020 C   0  0  0  0  0  0  0  0  0  0  0  0
  -20.9135   -4.8747   22.3315 C   0  0  0  0  0  0  0  0  0  0  0  0
  -25.8582  -26.6507   20.1606 C   0  0  0  0  0  0  0  0  0  0  0  0
  -22.0183   -4.4436   24.4364 C   0  0  0  0  0  0  0  0  0  0  0  0
  -25.3673  -18.5638   20.0039 C   0  0  0  0  0  0  0  0  0  0  0  0
  -24.2228  -10.0543   20.9286 C   0  0  0  0  0  0  0  0  0  0  0  0
  -24.8865  -10.6208   18.5315 C   0  0  0  0  0  0  0  0  0  0  0  0
  -28.0870  -33.2922   25.9943 C   0  0  0  0  0  0  0  0  0  0  0  0
  -26.0015  -29.0578   20.3727 C   0  0  0  0  0  0  0  0  0  0  0  0
  -28.2354  -32.2513   25.0578 C   0  0  0  0  0  0  0  0  0  0  0  0
  -25.4200  -27.8418   20.7591 C   0  0  0  0  0  0  0  0  0  0  0  0
  -22.7195   -8.7212   22.8639 C   0  0  0  0  0  0  0  0  0  0  0  0
  -26.8519  -26.6701   19.1822 C   0  0  0  0  0  0  0  0  0  0  0  0
  -21.7796   -6.7120   23.6397 C   0  0  0  0  0  0  0  0  0  0  0  0
  -21.3614   -3.9749   23.2986 C   0  0  0  0  0  0  0  0  0  0  0  0
  -22.2274   -5.8122   24.6069 C   0  0  0  0  0  0  0  0  0  0  0  0
  -24.9990  -10.7435   19.9294 C   0  0  0  0  0  0  0  0  0  0  0  0
  -26.6952  -18.1948   20.0547 C   0  0  0  0  0  0  0  0  0  0  0  0
  -25.8384  -11.4769   18.0339 C   0  0  0  0  0  0  0  0  0  0  0  0
  -26.9621  -20.3664   19.9038 C   0  0  0  0  0  0  0  0  0  0  0  0
  -24.0007   -9.8059   17.7524 C   0  0  0  0  0  0  0  0  0  0  0  0
  -29.0496  -23.4883   19.6749 C   0  0  0  0  0  0  0  0  0  0  0  0
  -28.8437  -22.0079   19.8175 C   0  0  0  0  0  0  0  0  0  0  0  0
  -25.8892  -29.9032   23.4348 C   0  0  0  0  0  0  0  0  0  0  0  0
  -22.7338  -29.2283   23.1023 C   0  0  0  0  0  0  0  0  0  0  0  0
  -20.2948  -27.5352   21.4196 C   0  0  0  0  0  0  0  0  0  0  0  0
  -28.4473  -16.3915   20.2123 C   0  0  0  0  0  0  0  0  0  0  0  0
  -27.1106  -33.1955   27.1397 C   0  0  0  0  0  0  0  0  0  0  0  0
  -25.5344  -30.3524   20.9795 C   0  0  0  0  0  0  0  0  0  0  0  0
  -24.3408  -27.7767   21.8078 C   0  0  0  0  0  0  0  0  0  0  0  0
  -26.0392  -32.1270   26.9382 C   0  0  0  0  0  0  0  0  0  0  0  0
  -30.0769  -13.4137   19.1378 C   0  0  0  0  0  0  0  0  0  0  0  0
  -26.6688  -30.8240   26.4558 C   0  0  0  0  0  0  0  0  0  0  0  0
  -28.9483  -12.3814   19.0858 C   0  0  0  0  0  0  0  0  0  0  0  0
  -29.9062  -14.3821   20.3069 C   0  0  0  0  0  0  0  0  0  0  0  0
  -27.4702  -14.0149   20.3244 C   0  0  0  0  0  0  0  0  0  0  0  0
  -27.3637  -31.0151   25.1022 C   0  0  1  0  0  0  0  0  0  0  0  0
  -24.8861  -30.1710   22.3485 C   0  0  1  0  0  0  0  0  0  0  0  0
  -27.5638  -13.0576   19.1250 C   0  0  2  0  0  0  0  0  0  0  0  0
  -17.8145  -27.1544   21.4027 C   0  0  0  0  0  0  0  0  0  0  0  0
  -23.0042  -27.3765   25.5123 C   0  0  0  0  0  0  0  0  0  0  0  0
  -20.8207  -26.3342   24.8685 C   0  0  0  0  0  0  0  0  0  0  0  0
  -20.9147  -28.7504   25.4816 C   0  0  0  0  0  0  0  0  0  0  0  0
  -20.0243  -28.6565   18.6941 C   0  0  0  0  0  0  0  0  0  0  0  0
  -29.1282  -24.0224   18.2616 C   0  0  0  0  0  0  0  0  0  0  0  0
  -28.6182  -25.4518   18.1566 C   0  0  0  0  0  0  0  0  0  1  0  0
  -21.8810  -27.9941   23.2711 C   0  0  1  0  0  0  0  0  0  0  0  0
  -18.9613  -27.9886   20.8534 C   0  0  2  0  0  0  0  0  0  0  0  0
  -21.6768  -27.6145   24.7650 C   0  0  0  0  0  0  0  0  0  0  0  0
  -25.9477  -11.6092   20.2963 N   0  0  0  0  0  0  0  0  0  0  0  0
  -27.6111  -19.2270   19.9970 N   0  0  0  0  0  0  0  0  0  0  0  0
  -26.4400  -12.0382   19.1217 N   0  0  0  0  0  0  0  0  0  0  0  0
  -23.9225  -29.0688   22.3760 N   0  0  0  0  0  0  0  0  0  0  0  0
  -28.5731  -14.9876   20.2768 N   0  0  0  0  0  0  0  0  0  0  0  0
  -26.2111  -11.7967   16.7765 N   0  0  0  0  0  0  0  0  0  0  0  0
  -23.0844   -8.9847   18.4235 N   0  0  0  0  0  0  0  0  0  0  0  0
  -27.1317  -16.8505   20.1556 N   0  0  0  0  0  0  0  0  0  0  0  0
  -27.5080  -21.6684   19.8192 N   0  0  0  0  0  0  0  0  0  0  0  0
  -26.3886  -31.0442   24.0332 N   0  0  0  0  0  0  0  0  0  0  0  0
  -20.6419  -28.2518   22.5453 N   0  0  0  0  0  0  0  0  0  0  0  0
  -18.9611  -27.8675   19.3681 N   0  3  0  0  0  0  0  0  0  0  0  0
  -24.0324   -9.7936   16.4984 O   0  0  0  0  0  0  0  0  0  0  0  0
  -29.1258  -24.1441   20.7029 O   0  0  0  0  0  0  0  0  0  0  0  0
  -29.8492  -21.3205   19.8841 O   0  0  0  0  0  0  0  0  0  0  0  0
  -26.1868  -28.7469   23.7106 O   0  0  0  0  0  0  0  0  0  0  0  0
  -22.3557  -30.2961   23.5907 O   0  0  0  0  0  0  0  0  0  0  0  0
  -20.9601  -26.6329   20.9160 O   0  0  0  0  0  0  0  0  0  0  0  0
  -29.4345  -17.1307   20.1802 O   0  0  0  0  0  0  0  0  0  0  0  0
  -21.9856   -8.0710   23.8080 O   0  0  0  0  0  0  0  0  0  0  0  0
  -27.2659  -25.5074   18.6090 O   0  0  0  0  0  0  0  0  0  1  0  0
  -21.1592   -2.6609   23.1355 F   0  0  0  0  0  0  0  0  0  0  0  0
  -22.8582   -6.2566   25.7026 F   0  0  0  0  0  0  0  0  0  0  0  0
  -25.2488  -20.2703   19.8808 S   0  0  0  0  0  0  0  0  0  0  0  0
  1  2  1  0  0  0  0
  1  5  2  0  0  0  0
  2  6  2  0  0  0  0
  3  8  2  0  0  0  0
  3 16  1  0  0  0  0
  4  9  1  0  0  0  0
  4 16  2  0  0  0  0
  5 18  1  0  0  0  0
  6 20  1  0  0  0  0
  7 10  2  0  0  0  0
  7 19  1  0  0  0  0
  8 22  1  0  0  0  0
  9 22  2  0  0  0  0
 10 23  1  0  0  0  0
 11 12  2  0  0  0  0
 11 24  1  0  0  0  0
 12 25  1  0  0  0  0
 13 21  1  0  0  0  0
 13 23  2  0  0  0  0
 14 25  2  0  0  0  0
 14 26  1  0  0  0  0
 15 28  2  0  0  0  0
 15 83  1  0  0  0  0
 16 27  1  0  0  0  0
 17 27  1  0  0  0  0
 17 29  2  0  0  0  0
 17 31  1  0  0  0  0
 18 20  2  0  0  0  0
 18 38  1  0  0  0  0
 19 21  2  0  0  0  0
 19 39  1  0  0  0  0
 20 47  1  0  0  0  0
 21 40  1  0  0  0  0
 22 79  1  0  0  0  0
 23 80  1  0  0  0  0
 24 26  2  0  0  0  0
 24 79  1  0  0  0  0
 25 81  1  0  0  0  0
 26 82  1  0  0  0  0
 27 60  2  0  0  0  0
 28 61  1  0  0  0  0
 28 67  1  0  0  0  0
 29 62  1  0  0  0  0
 29 65  1  0  0  0  0
 30 61  2  0  0  0  0
 30 68  1  0  0  0  0
 30 83  1  0  0  0  0
 31 66  1  0  0  0  0
 31 72  2  0  0  0  0
 32 33  1  0  0  0  0
 32 55  1  0  0  0  0
 32 73  2  0  0  0  0
 33 68  1  0  0  0  0
 33 74  2  0  0  0  0
 34 48  1  0  0  0  0
 34 69  1  0  0  0  0
 34 75  2  0  0  0  0
 35 57  1  0  0  0  0
 35 63  1  0  0  0  0
 35 76  2  0  0  0  0
 36 58  1  0  0  0  0
 36 70  1  0  0  0  0
 36 77  2  0  0  0  0
 37 64  1  0  0  0  0
 37 67  1  0  0  0  0
 37 78  2  0  0  0  0
 38 41  1  0  0  0  0
 39 48  1  0  0  0  0
 40 63  1  0  0  0  0
 41 43  1  0  0  0  0
 42 44  1  0  0  0  0
 42 45  1  0  0  0  0
 43 47  1  0  0  0  0
 44 49  1  0  0  0  0
 45 64  1  0  0  0  0
 46 49  1  0  0  0  0
 46 64  1  0  0  0  0
 47 69  1  0  0  0  0
 48 63  1  0  0  0  0
 49 62  1  0  0  0  0
 50 58  1  0  0  0  0
 51 59  1  0  0  0  0
 52 59  1  0  0  0  0
 53 59  1  0  0  0  0
 54 71  1  0  0  0  0
 55 56  1  0  0  0  0
 56 80  1  0  0  0  0
 57 59  1  0  0  0  0
 57 70  1  0  0  0  0
 58 71  1  0  0  0  0
 60 62  1  0  0  0  0
M  CHG  1  71   1
M  ISO  4  37 100  56 101  67 100  80 101
M  END
> <Batch ID>
0176

> <Smiles>
CNC(C)C(=O)NC(C(=O)N1Cc2cc([101O:1][101CH2:1]CC(=O)C(=O)Nc3nc([100NH:0][100C:0](=O)N4CCCC(n5nc(-c6ccc(Oc7ccc(F)cc7F)cc6)c(C(N)=O)c5N)C4)cs3)ccc2CC1C(=O)NC1CCCc2ccccc21)C(C)(C)C

> <Shape>
0.327

> <Color>
0.087

> <Negative vol penalty>
0.000

$$$$

  -OEChem-04052304383D

 84 92  0     1  0  0  0  0  0999 V2000
  -24.3546   -6.8268   24.3064 C   0  0  0  0  0  0  0  0  0  0  0  0
  -25.5316   -7.4860   23.9665 C   0  0  0  0  0  0  0  0  0  0  0  0
  -25.0921  -31.2463   21.0618 C   0  0  0  0  0  0  0  0  0  0  0  0
  -23.8536  -29.4466   22.0936 C   0  0  0  0  0  0  0  0  0  0  0  0
  -23.1889   -7.0647   23.5795 C   0  0  0  0  0  0  0  0  0  0  0  0
  -25.5438   -8.3828   22.8988 C   0  0  0  0  0  0  0  0  0  0  0  0
  -28.8356  -13.5276   22.4498 C   0  0  0  0  0  0  0  0  0  0  0  0
  -24.2723  -32.1767   21.7005 C   0  0  0  0  0  0  0  0  0  0  0  0
  -23.0339  -30.3770   22.7324 C   0  0  0  0  0  0  0  0  0  0  0  0
  -30.0398  -13.8178   21.8101 C   0  0  0  0  0  0  0  0  0  0  0  0
  -22.7341  -35.0313   23.3436 C   0  0  0  0  0  0  0  0  0  0  0  0
  -23.3470  -36.1293   23.9472 C   0  0  0  0  0  0  0  0  0  0  0  0
  -28.8193  -14.6478   19.9021 C   0  0  0  0  0  0  0  0  0  0  0  0
  -24.5964  -34.6421   25.3839 C   0  0  0  0  0  0  0  0  0  0  0  0
  -27.7062  -20.8924   16.3398 C   0  0  0  0  0  0  0  0  0  0  0  0
  -24.8827  -29.8813   21.2582 C   0  0  0  0  0  0  0  0  0  0  0  0
  -26.9308  -28.3705   21.0833 C   0  0  0  0  0  0  0  0  0  0  0  0
  -23.1845   -7.9722   22.5084 C   0  0  0  0  0  0  0  0  0  0  0  0
  -27.6121  -13.7857   21.8150 C   0  0  0  0  0  0  0  0  0  0  0  0
  -24.3773   -8.6321   22.1561 C   0  0  0  0  0  0  0  0  0  0  0  0
  -27.6009  -14.3623   20.5369 C   0  0  0  0  0  0  0  0  0  0  0  0
  -27.6015  -21.7121   17.4419 C   0  0  0  0  0  0  0  0  0  0  0  0
  -23.2433  -31.7420   22.5359 C   0  0  0  0  0  0  0  0  0  0  0  0
  -30.0319  -14.3753   20.5349 C   0  0  0  0  0  0  0  0  0  0  0  0
  -23.0522  -33.7387   23.7603 C   0  0  0  0  0  0  0  0  0  0  0  0
  -24.2782  -35.9347   24.9673 C   0  0  0  0  0  0  0  0  0  0  0  0
  -23.9834  -33.5441   24.7804 C   0  0  0  0  0  0  0  0  0  0  0  0
  -28.2423  -21.1550   18.5861 C   0  0  0  0  0  0  0  0  0  0  0  0
  -25.7288  -28.9197   20.5982 C   0  0  0  0  0  0  0  0  0  0  0  0
  -28.8122  -19.9305   18.3149 C   0  0  0  0  0  0  0  0  0  0  0  0
  -27.3433  -27.5161   20.0902 C   0  0  0  0  0  0  0  0  0  0  0  0
  -27.6133  -28.6111   22.3211 C   0  0  0  0  0  0  0  0  0  0  0  0
  -29.5440  -19.1163   19.3069 C   0  0  0  0  0  0  0  0  0  0  0  0
  -25.1609  -12.0021   20.8590 C   0  0  0  0  0  0  0  0  0  0  0  0
  -23.8274  -14.8833   20.1935 C   0  0  0  0  0  0  0  0  0  0  0  0
  -24.2802  -18.1873   19.4687 C   0  0  0  0  0  0  0  0  0  0  0  0
  -30.7920  -17.0087   19.7272 C   0  0  0  0  0  0  0  0  0  0  0  0
  -26.2880  -23.5502   16.3272 C   0  0  0  0  0  0  0  0  0  0  0  0
  -21.9113   -8.1612   21.7223 C   0  0  0  0  0  0  0  0  0  0  0  0
  -26.3215  -13.4916   22.5293 C   0  0  0  0  0  0  0  0  0  0  0  0
  -26.3141  -14.6774   19.8204 C   0  0  0  0  0  0  0  0  0  0  0  0
  -21.9186   -9.4080   20.8417 C   0  0  0  0  0  0  0  0  0  0  0  0
  -25.6651  -26.9175   15.3524 C   0  0  0  0  0  0  0  0  0  0  0  0
  -23.2292   -9.5072   20.0676 C   0  0  0  0  0  0  0  0  0  0  0  0
  -25.7250  -27.6934   16.6702 C   0  0  0  0  0  0  0  0  0  0  0  0
  -25.0293  -25.5404   15.5335 C   0  0  0  0  0  0  0  0  0  0  0  0
  -25.6886  -25.4896   17.9067 C   0  0  0  0  0  0  0  0  0  0  0  0
  -24.4246   -9.6308   21.0201 C   0  0  1  0  0  0  0  0  0  0  0  0
  -25.1392  -13.3198   21.5807 C   0  0  1  0  0  0  0  0  0  0  0  0
  -26.3802  -26.8575   17.7871 C   0  0  2  0  0  0  0  0  0  0  0  0
  -23.0022  -20.2809   18.9389 C   0  0  0  0  0  0  0  0  0  0  0  0
  -32.6038  -15.8982   18.4191 C   0  0  0  0  0  0  0  0  0  0  0  0
  -23.3190  -13.8546   17.3663 C   0  0  0  0  0  0  0  0  0  0  0  0
  -22.9397  -16.2228   16.6478 C   0  0  0  0  0  0  0  0  0  0  0  0
  -21.4398  -15.1814   18.3473 C   0  0  0  0  0  0  0  0  0  0  0  0
  -25.3430  -19.5784   21.8549 C   0  0  0  0  0  0  0  0  0  0  0  0
  -23.8046  -15.7992   18.9938 C   0  0  1  0  0  0  0  0  0  0  0  0
  -23.6373  -19.4402   20.0355 C   0  0  2  0  0  0  0  0  0  0  0  0
  -31.2052  -15.7529   18.9917 C   0  0  1  0  0  0  0  0  0  1  0  0
  -22.9002  -15.2569   17.8512 C   0  0  0  0  0  0  0  0  0  0  0  0
  -25.3992  -28.4535   19.3907 N   0  0  0  0  0  0  0  0  0  0  0  0
  -26.4003  -27.6024   19.1087 N   0  0  0  0  0  0  0  0  0  0  0  0
  -25.0786  -14.3659   20.5578 N   0  0  0  0  0  0  0  0  0  0  0  0
  -25.7041  -24.8043   16.6048 N   0  0  0  0  0  0  0  0  0  0  0  0
  -28.4172  -26.7070   19.9695 N   0  0  0  0  0  0  0  0  0  0  0  0
  -27.0511  -29.5192   23.2285 N   0  0  0  0  0  0  0  0  0  0  0  0
  -26.9297  -22.9594   17.4152 N   0  0  0  0  0  0  0  0  0  0  0  0
  -30.0498  -17.9408   18.9093 N   0  0  0  0  0  0  0  0  0  0  0  0
  -24.5229  -10.9797   21.5352 N   0  0  0  0  0  0  0  0  0  0  0  0
  -23.4148  -17.1141   19.4914 N   0  0  0  0  0  0  0  0  0  0  0  0
  -29.6576  -19.5998   20.5436 N   0  3  0  0  0  0  0  0  0  0  0  0
  -24.6553  -20.2731   20.7363 N   0  3  0  0  0  0  0  0  0  0  0  0
  -28.6983  -28.0500   22.6066 O   0  0  0  0  0  0  0  0  0  0  0  0
  -25.7141  -11.9194   19.7687 O   0  0  0  0  0  0  0  0  0  0  0  0
  -22.7750  -14.6416   20.7900 O   0  0  0  0  0  0  0  0  0  0  0  0
  -25.4335  -18.1639   19.0445 O   0  0  0  0  0  0  0  0  0  0  0  0
  -31.0254  -17.2369   20.9061 O   0  0  0  0  0  0  0  0  0  0  0  0
  -26.2471  -23.0506   15.1999 O   0  0  0  0  0  0  0  0  0  0  0  0
  -22.4433  -32.6496   23.1596 O   0  0  0  0  0  0  0  0  0  0  0  0
  -31.2060  -14.6589   19.9080 O   0  0  0  0  0  0  0  0  0  1  0  0
  -24.8679  -36.9891   25.5457 F   0  0  0  0  0  0  0  0  0  0  0  0
  -24.2939  -32.3046   25.1841 F   0  0  0  0  0  0  0  0  0  0  0  0
  -28.2845  -21.7508   19.7802 F   0  0  0  0  0  0  0  0  0  0  0  0
  -28.5741  -19.4575   16.6864 S   0  0  0  0  0  0  0  0  0  0  0  0
  1  2  1  0  0  0  0
  1  5  2  0  0  0  0
  2  6  2  0  0  0  0
  3  8  2  0  0  0  0
  3 16  1  0  0  0  0
  4  9  1  0  0  0  0
  4 16  2  0  0  0  0
  5 18  1  0  0  0  0
  6 20  1  0  0  0  0
  7 10  2  0  0  0  0
  7 19  1  0  0  0  0
  8 23  1  0  0  0  0
  9 23  2  0  0  0  0
 10 24  1  0  0  0  0
 11 12  2  0  0  0  0
 11 25  1  0  0  0  0
 12 26  1  0  0  0  0
 13 21  1  0  0  0  0
 13 24  2  0  0  0  0
 14 26  2  0  0  0  0
 14 27  1  0  0  0  0
 15 22  2  0  0  0  0
 15 84  1  0  0  0  0
 16 29  1  0  0  0  0
 17 29  1  0  0  0  0
 17 31  2  0  0  0  0
 17 32  1  0  0  0  0
 18 20  2  0  0  0  0
 18 39  1  0  0  0  0
 19 21  2  0  0  0  0
 19 40  1  0  0  0  0
 20 48  1  0  0  0  0
 21 41  1  0  0  0  0
 22 28  1  0  0  0  0
 22 67  1  0  0  0  0
 23 79  1  0  0  0  0
 24 80  1  0  0  0  0
 25 27  2  0  0  0  0
 25 79  1  0  0  0  0
 26 81  1  0  0  0  0
 27 82  1  0  0  0  0
 28 30  2  0  0  0  0
 28 83  1  0  0  0  0
 29 61  2  0  0  0  0
 30 33  1  0  0  0  0
 30 84  1  0  0  0  0
 31 62  1  0  0  0  0
 31 65  1  0  0  0  0
 32 66  1  0  0  0  0
 32 73  2  0  0  0  0
 33 68  1  0  0  0  0
 33 71  2  0  0  0  0
 34 49  1  0  0  0  0
 34 69  1  0  0  0  0
 34 74  2  0  0  0  0
 35 57  1  0  0  0  0
 35 63  1  0  0  0  0
 35 75  2  0  0  0  0
 36 58  1  0  0  0  0
 36 70  1  0  0  0  0
 36 76  2  0  0  0  0
 37 59  1  0  0  0  0
 37 68  1  0  0  0  0
 37 77  2  0  0  0  0
 38 64  1  0  0  0  0
 38 67  1  0  0  0  0
 38 78  2  0  0  0  0
 39 42  1  0  0  0  0
 40 49  1  0  0  0  0
 41 63  1  0  0  0  0
 42 44  1  0  0  0  0
 43 45  1  0  0  0  0
 43 46  1  0  0  0  0
 44 48  1  0  0  0  0
 45 50  1  0  0  0  0
 46 64  1  0  0  0  0
 47 50  1  0  0  0  0
 47 64  1  0  0  0  0
 48 69  1  0  0  0  0
 49 63  1  0  0  0  0
 50 62  1  0  0  0  0
 51 58  1  0  0  0  0
 52 59  1  0  0  0  0
 53 60  1  0  0  0  0
 54 60  1  0  0  0  0
 55 60  1  0  0  0  0
 56 72  1  0  0  0  0
 57 60  1  0  0  0  0
 57 70  1  0  0  0  0
 58 72  1  0  0  0  0
 59 80  1  0  0  0  0
 61 62  1  0  0  0  0
M  CHG  2  71   1  72   1
M  ISO  4  38 100  59 101  67 100  80 101
M  END
> <Batch ID>
0176

> <Smiles>
CNC(C)C(=O)NC(C(=O)N1Cc2cc([101O:1][101CH:1](C)C(=O)NC(=N)c3scc([100NH:0][100C:0](=O)N4CCCC(n5nc(-c6ccc(Oc7ccc(F)cc7F)cc6)c(C(N)=O)c5N)C4)c3F)ccc2CC1C(=O)NC1CCCc2ccccc21)C(C)(C)C

> <Shape>
0.255

> <Color>
0.104

> <Negative vol penalty>
0.000

$$$$

  -OEChem-04052304383D

 87 95  0     1  0  0  0  0  0999 V2000
  -28.1983  -22.4862   24.8412 C   0  0  0  0  0  0  0  0  0  0  0  0
  -28.8628  -21.4399   25.4730 C   0  0  0  0  0  0  0  0  0  0  0  0
  -23.2889   -9.8003   19.9133 C   0  0  0  0  0  0  0  0  0  0  0  0
  -23.7421   -9.9407   22.2823 C   0  0  0  0  0  0  0  0  0  0  0  0
  -27.0295  -23.0047   25.3969 C   0  0  0  0  0  0  0  0  0  0  0  0
  -28.3593  -20.9122   26.6614 C   0  0  0  0  0  0  0  0  0  0  0  0
  -28.5912  -15.0705   28.4853 C   0  0  0  0  0  0  0  0  0  0  0  0
  -22.5634   -8.6274   20.1216 C   0  0  0  0  0  0  0  0  0  0  0  0
  -23.0165   -8.7677   22.4906 C   0  0  0  0  0  0  0  0  0  0  0  0
  -29.4464  -14.3918   29.3523 C   0  0  0  0  0  0  0  0  0  0  0  0
  -20.9801   -6.0063   23.6929 C   0  0  0  0  0  0  0  0  0  0  0  0
  -20.0796   -5.9803   24.7578 C   0  0  0  0  0  0  0  0  0  0  0  0
  -27.8624  -14.6989   31.1455 C   0  0  0  0  0  0  0  0  0  0  0  0
  -33.0217  -11.9640   26.0641 C   0  0  0  0  0  0  0  0  0  0  0  0
  -32.8174  -12.2774   23.6772 C   0  0  0  0  0  0  0  0  0  0  0  0
  -18.8681   -7.8270   23.7784 C   0  0  0  0  0  0  0  0  0  0  0  0
  -23.8783  -10.4570   20.9936 C   0  0  0  0  0  0  0  0  0  0  0  0
  -24.1361  -12.9871   20.7953 C   0  0  0  0  0  0  0  0  0  0  0  0
  -26.5061  -22.4767   26.5876 C   0  0  0  0  0  0  0  0  0  0  0  0
  -27.3679  -15.5788   28.9453 C   0  0  0  0  0  0  0  0  0  0  0  0
  -27.1831  -21.4250   27.2343 C   0  0  0  0  0  0  0  0  0  0  0  0
  -26.9923  -15.3814   30.2817 C   0  0  0  0  0  0  0  0  0  0  0  0
  -31.6727  -12.2818   26.2213 C   0  0  0  0  0  0  0  0  0  0  0  0
  -31.4684  -12.5952   23.8344 C   0  0  0  0  0  0  0  0  0  0  0  0
  -22.4271   -8.1111   21.4102 C   0  0  0  0  0  0  0  0  0  0  0  0
  -29.0834  -14.2084   30.6833 C   0  0  0  0  0  0  0  0  0  0  0  0
  -20.8246   -6.9427   22.6708 C   0  0  0  0  0  0  0  0  0  0  0  0
  -19.0236   -6.8906   24.8006 C   0  0  0  0  0  0  0  0  0  0  0  0
  -33.5941  -11.9619   24.7921 C   0  0  0  0  0  0  0  0  0  0  0  0
  -19.7686   -7.8530   22.7135 C   0  0  0  0  0  0  0  0  0  0  0  0
  -30.8960  -12.5974   25.1065 C   0  0  0  0  0  0  0  0  0  0  0  0
  -24.6284  -11.6683   20.7791 C   0  0  0  0  0  0  0  0  0  0  0  0
  -25.2369  -13.7677   20.5393 C   0  0  0  0  0  0  0  0  0  0  0  0
  -22.8031  -13.4640   21.0216 C   0  0  0  0  0  0  0  0  0  0  0  0
  -30.7867  -12.1009   29.8705 C   0  0  0  0  0  0  0  0  0  0  0  0
  -31.7272  -11.9966   28.7026 C   0  0  0  0  0  0  0  0  0  0  0  0
  -26.0905  -18.4800   29.1800 C   0  0  0  0  0  0  0  0  0  0  0  0
  -23.4541  -16.8206   30.0847 C   0  0  0  0  0  0  0  0  0  0  0  0
  -22.1435  -13.9613   31.4089 C   0  0  0  0  0  0  0  0  0  0  0  0
  -31.0986  -12.9563   21.3688 C   0  0  0  0  0  0  0  0  0  0  0  0
  -25.2655  -23.1015   27.1753 C   0  0  0  0  0  0  0  0  0  0  0  0
  -26.4446  -16.2853   27.9909 C   0  0  0  0  0  0  0  0  0  0  0  0
  -25.6809  -15.8900   30.8203 C   0  0  0  0  0  0  0  0  0  0  0  0
  -24.5933  -22.2369   28.2387 C   0  0  0  0  0  0  0  0  0  0  0  0
  -29.4615  -13.6605   18.2864 C   0  0  0  0  0  0  0  0  0  0  0  0
  -25.6281  -21.6997   29.2223 C   0  0  0  0  0  0  0  0  0  0  0  0
  -27.9907  -13.3554   18.5791 C   0  0  0  0  0  0  0  0  0  0  0  0
  -30.3960  -12.6856   19.0007 C   0  0  0  0  0  0  0  0  0  0  0  0
  -28.7048  -12.2563   20.7399 C   0  0  0  0  0  0  0  0  0  0  0  0
  -26.6546  -20.8093   28.5117 C   0  0  1  0  0  0  0  0  0  0  0  0
  -25.4538  -17.2095   28.6920 C   0  0  1  0  0  0  0  0  0  0  0  0
  -27.7273  -13.2518   20.0942 C   0  0  2  0  0  0  0  0  0  0  0  0
  -19.9583  -12.9136   32.0607 C   0  0  0  0  0  0  0  0  0  0  0  0
  -31.9491  -14.2603   30.4813 C   0  0  0  0  0  0  0  0  0  0  0  0
  -31.8830  -12.3449   32.1148 C   0  0  0  0  0  0  0  0  0  0  0  0
  -23.3621  -18.5717   32.5817 C   0  0  0  0  0  0  0  0  0  0  0  0
  -21.8034  -16.9035   33.6093 C   0  0  0  0  0  0  0  0  0  0  0  0
  -21.1335  -18.1235   31.5392 C   0  0  0  0  0  0  0  0  0  0  0  0
  -22.5055  -11.7364   29.4912 C   0  0  0  0  0  0  0  0  0  0  0  0
  -22.9029  -16.3230   31.3990 C   0  0  1  0  0  0  0  0  0  0  0  0
  -20.9940  -13.0777   30.9592 C   0  0  2  0  0  0  0  0  0  0  0  0
  -31.1471  -13.0673   30.9913 C   0  0  0  0  0  0  0  0  0  1  0  0
  -22.3261  -17.4724   32.2729 C   0  0  0  0  0  0  0  0  0  0  0  0
  -25.9397  -11.6104   20.5322 N   0  0  0  0  0  0  0  0  0  0  0  0
  -26.2809  -12.9026   20.3908 N   0  0  0  0  0  0  0  0  0  0  0  0
  -24.8152  -16.5799   29.8496 N   0  0  0  0  0  0  0  0  0  0  0  0
  -30.0906  -12.6432   20.4324 N   0  0  0  0  0  0  0  0  0  0  0  0
  -25.4041  -15.1027   20.4290 N   0  0  0  0  0  0  0  0  0  0  0  0
  -21.7913  -12.5265   21.2699 N   0  0  0  0  0  0  0  0  0  0  0  0
  -31.0953  -12.2830   27.5119 N   0  0  0  0  0  0  0  0  0  0  0  0
  -30.6827  -12.9142   22.6992 N   0  0  0  0  0  0  0  0  0  0  0  0
  -26.0935  -19.5014   28.2493 N   0  0  0  0  0  0  0  0  0  0  0  0
  -21.9366  -15.2813   31.0682 N   0  0  0  0  0  0  0  0  0  0  0  0
  -21.4964  -11.7264   30.5814 N   0  3  0  0  0  0  0  0  0  0  0  0
  -22.5145  -14.6843   20.9878 O   0  0  0  0  0  0  0  0  0  0  0  0
  -29.7970  -11.3817   29.8448 O   0  0  0  0  0  0  0  0  0  0  0  0
  -32.8733  -11.6588   28.9457 O   0  0  0  0  0  0  0  0  0  0  0  0
  -26.5440  -18.5304   30.3174 O   0  0  0  0  0  0  0  0  0  0  0  0
  -22.7030  -17.3951   29.2926 O   0  0  0  0  0  0  0  0  0  0  0  0
  -23.1250  -13.5249   32.0062 O   0  0  0  0  0  0  0  0  0  0  0  0
  -32.2389  -13.2672   21.0153 O   0  0  0  0  0  0  0  0  0  0  0  0
  -21.7190   -6.9667   21.6138 O   0  0  0  0  0  0  0  0  0  0  0  0
  -29.9166  -13.5469   31.5319 O   0  0  0  0  0  0  0  0  0  1  0  0
  -18.1580   -6.8646   25.8225 F   0  0  0  0  0  0  0  0  0  0  0  0
  -34.8896  -11.6563   24.6409 F   0  0  0  0  0  0  0  0  0  0  0  0
  -19.6134   -8.7541   21.7339 F   0  0  0  0  0  0  0  0  0  0  0  0
  -29.5976  -12.9019   25.2573 F   0  0  0  0  0  0  0  0  0  0  0  0
  1  2  1  0  0  0  0
  1  5  2  0  0  0  0
  2  6  2  0  0  0  0
  3  8  2  0  0  0  0
  3 17  1  0  0  0  0
  4  9  1  0  0  0  0
  4 17  2  0  0  0  0
  5 19  1  0  0  0  0
  6 21  1  0  0  0  0
  7 10  2  0  0  0  0
  7 20  1  0  0  0  0
  8 25  1  0  0  0  0
  9 25  2  0  0  0  0
 10 26  1  0  0  0  0
 11 12  2  0  0  0  0
 11 27  1  0  0  0  0
 12 28  1  0  0  0  0
 13 22  1  0  0  0  0
 13 26  2  0  0  0  0
 14 23  1  0  0  0  0
 14 29  2  0  0  0  0
 15 24  2  0  0  0  0
 15 29  1  0  0  0  0
 16 28  2  0  0  0  0
 16 30  1  0  0  0  0
 17 32  1  0  0  0  0
 18 32  1  0  0  0  0
 18 33  2  0  0  0  0
 18 34  1  0  0  0  0
 19 21  2  0  0  0  0
 19 41  1  0  0  0  0
 20 22  2  0  0  0  0
 20 42  1  0  0  0  0
 21 50  1  0  0  0  0
 22 43  1  0  0  0  0
 23 31  2  0  0  0  0
 23 70  1  0  0  0  0
 24 31  1  0  0  0  0
 24 71  1  0  0  0  0
 25 82  1  0  0  0  0
 26 83  1  0  0  0  0
 27 30  2  0  0  0  0
 27 82  1  0  0  0  0
 28 84  1  0  0  0  0
 29 85  1  0  0  0  0
 30 86  1  0  0  0  0
 31 87  1  0  0  0  0
 32 64  2  0  0  0  0
 33 65  1  0  0  0  0
 33 68  1  0  0  0  0
 34 69  1  0  0  0  0
 34 75  2  0  0  0  0
 35 36  1  0  0  0  0
 35 62  1  0  0  0  0
 35 76  2  0  0  0  0
 36 70  1  0  0  0  0
 36 77  2  0  0  0  0
 37 51  1  0  0  0  0
 37 72  1  0  0  0  0
 37 78  2  0  0  0  0
 38 60  1  0  0  0  0
 38 66  1  0  0  0  0
 38 79  2  0  0  0  0
 39 61  1  0  0  0  0
 39 73  1  0  0  0  0
 39 80  2  0  0  0  0
 40 67  1  0  0  0  0
 40 71  1  0  0  0  0
 40 81  2  0  0  0  0
 41 44  1  0  0  0  0
 42 51  1  0  0  0  0
 43 66  1  0  0  0  0
 44 46  1  0  0  0  0
 45 47  1  0  0  0  0
 45 48  1  0  0  0  0
 46 50  1  0  0  0  0
 47 52  1  0  0  0  0
 48 67  1  0  0  0  0
 49 52  1  0  0  0  0
 49 67  1  0  0  0  0
 50 72  1  0  0  0  0
 51 66  1  0  0  0  0
 52 65  1  0  0  0  0
 53 61  1  0  0  0  0
 54 62  1  0  0  0  0
 55 62  1  0  0  0  0
 56 63  1  0  0  0  0
 57 63  1  0  0  0  0
 58 63  1  0  0  0  0
 59 74  1  0  0  0  0
 60 63  1  0  0  0  0
 60 73  1  0  0  0  0
 61 74  1  0  0  0  0
 62 83  1  0  0  0  0
 64 65  1  0  0  0  0
M  CHG  1  74   1
M  ISO  4  40 100  62 101  71 100  83 101
M  END
> <Batch ID>
0176

> <Smiles>
CNC(C)C(=O)NC(C(=O)N1Cc2cc([101O:1][101C:1](C)(C)C(=O)C(=O)Nc3cc(F)cc([100NH:0][100C:0](=O)N4CCCC(n5nc(-c6ccc(Oc7ccc(F)cc7F)cc6)c(C(N)=O)c5N)C4)c3F)ccc2CC1C(=O)NC1CCCc2ccccc21)C(C)(C)C

> <Shape>
0.126

> <Color>
0.167

> <Negative vol penalty>
0.000

$$$$

  -OEChem-04052304383D

 88 96  0     1  0  0  0  0  0999 V2000
  -30.8494  -32.1813   24.8738 C   0  0  0  0  0  0  0  0  0  0  0  0
  -30.2886  -31.0247   24.3418 C   0  0  0  0  0  0  0  0  0  0  0  0
  -23.6450   -9.9009   22.3013 C   0  0  0  0  0  0  0  0  0  0  0  0
  -23.2019  -12.2275   22.7781 C   0  0  0  0  0  0  0  0  0  0  0  0
  -30.0270  -33.1663   25.4192 C   0  0  0  0  0  0  0  0  0  0  0  0
  -28.9050  -30.8518   24.3559 C   0  0  0  0  0  0  0  0  0  0  0  0
  -27.1191  -29.1155   19.9467 C   0  0  0  0  0  0  0  0  0  0  0  0
  -22.9233   -9.5308   23.4360 C   0  0  0  0  0  0  0  0  0  0  0  0
  -22.4801  -11.8574   23.9129 C   0  0  0  0  0  0  0  0  0  0  0  0
  -27.2791  -27.7553   19.6862 C   0  0  0  0  0  0  0  0  0  0  0  0
  -19.6781   -9.1958   24.3246 C   0  0  0  0  0  0  0  0  0  0  0  0
  -18.7714   -8.1430   24.2014 C   0  0  0  0  0  0  0  0  0  0  0  0
  -24.9908  -27.3664   20.3431 C   0  0  0  0  0  0  0  0  0  0  0  0
  -19.9830   -6.9026   25.8838 C   0  0  0  0  0  0  0  0  0  0  0  0
  -23.7844  -11.2493   21.9723 C   0  0  0  0  0  0  0  0  0  0  0  0
  -24.0327  -11.8052   19.4951 C   0  0  0  0  0  0  0  0  0  0  0  0
  -28.6320  -33.0097   25.4313 C   0  0  0  0  0  0  0  0  0  0  0  0
  -25.8949  -29.6106   20.4185 C   0  0  0  0  0  0  0  0  0  0  0  0
  -28.0632  -31.8350   24.9032 C   0  0  0  0  0  0  0  0  0  0  0  0
  -24.8170  -28.7337   20.6063 C   0  0  0  0  0  0  0  0  0  0  0  0
  -22.3408  -10.5090   24.2418 C   0  0  0  0  0  0  0  0  0  0  0  0
  -26.2158  -26.8800   19.8872 C   0  0  0  0  0  0  0  0  0  0  0  0
  -20.7374   -9.1019   25.2274 C   0  0  0  0  0  0  0  0  0  0  0  0
  -18.9238   -6.9965   24.9810 C   0  0  0  0  0  0  0  0  0  0  0  0
  -20.8898   -7.9553   26.0070 C   0  0  0  0  0  0  0  0  0  0  0  0
  -24.5303  -11.6322   20.8006 C   0  0  0  0  0  0  0  0  0  0  0  0
  -30.7300  -19.1767   20.4553 C   0  0  0  0  0  0  0  0  0  0  0  0
  -25.1312  -12.1672   18.7541 C   0  0  0  0  0  0  0  0  0  0  0  0
  -29.4760  -19.6018   20.8413 C   0  0  0  0  0  0  0  0  0  0  0  0
  -29.7321  -17.2256   20.5407 C   0  0  0  0  0  0  0  0  0  0  0  0
  -26.8012  -24.7487   20.6524 C   0  0  0  0  0  0  0  0  0  1  0  0
  -22.6971  -11.6525   18.9967 C   0  0  0  0  0  0  0  0  0  0  0  0
  -26.9868  -23.4311   20.5162 C   0  0  0  0  0  0  0  0  0  0  0  0
  -27.4582  -22.6539   21.6883 C   0  0  0  0  0  0  0  0  0  0  0  0
  -27.6536  -21.1811   21.4940 C   0  0  0  0  0  0  0  0  0  0  0  0
  -24.9450  -31.0932   23.0649 C   0  0  0  0  0  0  0  0  0  0  0  0
  -22.1346  -31.3226   21.4613 C   0  0  0  0  0  0  0  0  0  0  0  0
  -20.0814  -30.1010   19.0244 C   0  0  0  0  0  0  0  0  0  0  0  0
  -30.3082  -14.8044   20.1502 C   0  0  0  0  0  0  0  0  0  0  0  0
  -27.7869  -34.0806   26.0744 C   0  0  0  0  0  0  0  0  0  0  0  0
  -25.7303  -31.0846   20.6692 C   0  0  0  0  0  0  0  0  0  0  0  0
  -23.4761  -29.2179   21.0921 C   0  0  0  0  0  0  0  0  0  0  0  0
  -26.3069  -33.9881   25.7120 C   0  0  0  0  0  0  0  0  0  0  0  0
  -29.8871  -11.6273   18.5991 C   0  0  0  0  0  0  0  0  0  0  0  0
  -25.8147  -32.5500   25.8404 C   0  0  0  0  0  0  0  0  0  0  0  0
  -28.4187  -11.2865   18.8636 C   0  0  0  0  0  0  0  0  0  0  0  0
  -30.5220  -12.3562   19.7820 C   0  0  0  0  0  0  0  0  0  0  0  0
  -28.3256  -13.2050   20.5061 C   0  0  0  0  0  0  0  0  0  0  0  0
  -26.5652  -31.6219   24.8777 C   0  0  1  0  0  0  0  0  0  0  0  0
  -24.5947  -31.4029   21.6369 C   0  0  1  0  0  0  0  0  0  0  0  0
  -27.6250  -12.5275   19.3170 C   0  0  2  0  0  0  0  0  0  0  0  0
  -17.8335  -30.4735   17.9729 C   0  0  0  0  0  0  0  0  0  0  0  0
  -20.7921  -30.0408   23.8831 C   0  0  0  0  0  0  0  0  0  0  0  0
  -18.7977  -29.5746   22.4432 C   0  0  0  0  0  0  0  0  0  0  0  0
  -19.5115  -31.9285   22.8579 C   0  0  0  0  0  0  0  0  0  0  0  0
  -21.2814  -30.6346   16.3721 C   0  0  0  0  0  0  0  0  0  0  0  0
  -20.9007  -30.4615   21.3380 C   0  0  1  0  0  0  0  0  0  0  0  0
  -19.3189  -30.7933   17.9091 C   0  0  2  0  0  0  0  0  0  0  0  0
  -31.9047  -20.0399   20.2152 C   0  0  0  0  0  0  0  0  0  0  0  0
  -20.0262  -30.4916   22.6232 C   0  0  0  0  0  0  0  0  0  0  0  0
  -25.8427  -11.8649   20.8872 N   0  0  0  0  0  0  0  0  0  0  0  0
  -30.8788  -17.8144   20.2829 N   0  0  0  0  0  0  0  0  0  0  0  0
  -26.1791  -12.1878   19.6268 N   0  0  0  0  0  0  0  0  0  0  0  0
  -23.3668  -30.6669   21.3292 N   0  0  0  0  0  0  0  0  0  0  0  0
  -29.7181  -13.5228   20.1530 N   0  0  0  0  0  0  0  0  0  0  0  0
  -25.2932  -12.4665   17.4478 N   0  0  0  0  0  0  0  0  0  0  0  0
  -21.6883  -11.2757   19.8937 N   0  0  0  0  0  0  0  0  0  0  0  0
  -28.9437  -20.8841   21.1102 N   0  0  0  0  0  0  0  0  0  0  0  0
  -29.4382  -15.8405   20.4883 N   0  0  0  0  0  0  0  0  0  0  0  0
  -26.0552  -31.7708   23.5315 N   0  0  0  0  0  0  0  0  0  0  0  0
  -20.2091  -30.9094   20.1341 N   0  0  0  0  0  0  0  0  0  0  0  0
  -19.8365  -30.3592   16.5807 N   0  3  0  0  0  0  0  0  0  0  0  0
  -22.4098  -11.8285   17.7884 O   0  0  0  0  0  0  0  0  0  0  0  0
  -27.6840  -23.1102   22.7982 O   0  0  0  0  0  0  0  0  0  0  0  0
  -26.6886  -20.4660   21.7055 O   0  0  0  0  0  0  0  0  0  0  0  0
  -24.2579  -30.2995   23.6970 O   0  0  0  0  0  0  0  0  0  0  0  0
  -22.0096  -32.5335   21.6602 O   0  0  0  0  0  0  0  0  0  0  0  0
  -20.5167  -28.9561   18.9227 O   0  0  0  0  0  0  0  0  0  0  0  0
  -31.4907  -14.9737   19.8421 O   0  0  0  0  0  0  0  0  0  0  0  0
  -26.7603  -22.7569   19.3368 O   0  0  0  0  0  0  0  0  0  0  0  0
  -21.6362  -10.1483   25.3491 O   0  0  0  0  0  0  0  0  0  0  0  0
  -26.3695  -25.5517   19.6343 O   0  0  0  0  0  0  0  0  0  1  0  0
  -18.0522   -5.9862   24.8637 F   0  0  0  0  0  0  0  0  0  0  0  0
  -21.9047   -7.8599   26.8768 F   0  0  0  0  0  0  0  0  0  0  0  0
  -31.6680  -21.3770   20.4091 F   0  0  0  0  0  0  0  0  0  0  0  0
  -32.9793  -19.7613   21.0207 F   0  0  0  0  0  0  0  0  0  0  0  0
  -32.3884  -19.9486   18.9363 F   0  0  0  0  0  0  0  0  0  0  0  0
  -28.4325  -18.2496   20.9958 S   0  0  0  0  0  0  0  0  0  0  0  0
  1  2  1  0  0  0  0
  1  5  2  0  0  0  0
  2  6  2  0  0  0  0
  3  8  2  0  0  0  0
  3 15  1  0  0  0  0
  4  9  1  0  0  0  0
  4 15  2  0  0  0  0
  5 17  1  0  0  0  0
  6 19  1  0  0  0  0
  7 10  2  0  0  0  0
  7 18  1  0  0  0  0
  8 21  1  0  0  0  0
  9 21  2  0  0  0  0
 10 22  1  0  0  0  0
 11 12  2  0  0  0  0
 11 23  1  0  0  0  0
 12 24  1  0  0  0  0
 13 20  1  0  0  0  0
 13 22  2  0  0  0  0
 14 24  2  0  0  0  0
 14 25  1  0  0  0  0
 15 26  1  0  0  0  0
 16 26  1  0  0  0  0
 16 28  2  0  0  0  0
 16 32  1  0  0  0  0
 17 19  2  0  0  0  0
 17 40  1  0  0  0  0
 18 20  2  0  0  0  0
 18 41  1  0  0  0  0
 19 49  1  0  0  0  0
 20 42  1  0  0  0  0
 21 81  1  0  0  0  0
 22 82  1  0  0  0  0
 23 25  2  0  0  0  0
 23 81  1  0  0  0  0
 24 83  1  0  0  0  0
 25 84  1  0  0  0  0
 26 61  2  0  0  0  0
 27 29  2  0  0  0  0
 27 59  1  0  0  0  0
 27 62  1  0  0  0  0
 28 63  1  0  0  0  0
 28 66  1  0  0  0  0
 29 68  1  0  0  0  0
 29 88  1  0  0  0  0
 30 62  2  0  0  0  0
 30 69  1  0  0  0  0
 30 88  1  0  0  0  0
 31 33  2  0  0  0  0
 31 82  1  0  0  0  0
 32 67  1  0  0  0  0
 32 73  2  0  0  0  0
 33 34  1  0  0  0  0
 33 80  1  0  0  0  0
 34 35  1  0  0  0  0
 34 74  2  0  0  0  0
 35 68  1  0  0  0  0
 35 75  2  0  0  0  0
 36 50  1  0  0  0  0
 36 70  1  0  0  0  0
 36 76  2  0  0  0  0
 37 57  1  0  0  0  0
 37 64  1  0  0  0  0
 37 77  2  0  0  0  0
 38 58  1  0  0  0  0
 38 71  1  0  0  0  0
 38 78  2  0  0  0  0
 39 65  1  0  0  0  0
 39 69  1  0  0  0  0
 39 79  2  0  0  0  0
 40 43  1  0  0  0  0
 41 50  1  0  0  0  0
 42 64  1  0  0  0  0
 43 45  1  0  0  0  0
 44 46  1  0  0  0  0
 44 47  1  0  0  0  0
 45 49  1  0  0  0  0
 46 51  1  0  0  0  0
 47 65  1  0  0  0  0
 48 51  1  0  0  0  0
 48 65  1  0  0  0  0
 49 70  1  0  0  0  0
 50 64  1  0  0  0  0
 51 63  1  0  0  0  0
 52 58  1  0  0  0  0
 53 60  1  0  0  0  0
 54 60  1  0  0  0  0
 55 60  1  0  0  0  0
 56 72  1  0  0  0  0
 57 60  1  0  0  0  0
 57 71  1  0  0  0  0
 58 72  1  0  0  0  0
 59 85  1  0  0  0  0
 59 86  1  0  0  0  0
 59 87  1  0  0  0  0
 61 63  1  0  0  0  0
M  CHG  1  72   1
M  ISO  4  31 101  39 100  69 100  82 101
M  END
> <Batch ID>
0176

> <Smiles>
CNC(C)C(=O)NC(C(=O)N1Cc2cc([101O:1][101CH2:1]C(=O)C(=O)C(=O)Nc3sc([100NH:0][100C:0](=O)N4CCCC(n5nc(-c6ccc(Oc7ccc(F)cc7F)cc6)c(C(N)=O)c5N)C4)nc3C(F)(F)F)ccc2CC1C(=O)NC1CCCc2ccccc21)C(C)(C)C

> <Shape>
0.270

> <Color>
0.106

> <Negative vol penalty>
0.000

$$$$

  -OEChem-04052304383D

 84 92  0     1  0  0  0  0  0999 V2000
  -21.5248  -33.6980   15.8531 C   0  0  0  0  0  0  0  0  0  0  0  0
  -21.7519  -32.3440   16.0780 C   0  0  0  0  0  0  0  0  0  0  0  0
  -23.3859   -9.7183   21.8858 C   0  0  0  0  0  0  0  0  0  0  0  0
  -23.9389  -11.0550   23.8210 C   0  0  0  0  0  0  0  0  0  0  0  0
  -22.1958  -34.6524   16.6165 C   0  0  0  0  0  0  0  0  0  0  0  0
  -22.6511  -31.9437   17.0657 C   0  0  0  0  0  0  0  0  0  0  0  0
  -22.2294  -26.9871   20.6379 C   0  0  0  0  0  0  0  0  0  0  0  0
  -22.7165   -8.8092   22.7050 C   0  0  0  0  0  0  0  0  0  0  0  0
  -23.2694  -10.1459   24.6402 C   0  0  0  0  0  0  0  0  0  0  0  0
  -22.8150  -25.7242   20.5627 C   0  0  0  0  0  0  0  0  0  0  0  0
  -19.7246   -8.5969   24.2659 C   0  0  0  0  0  0  0  0  0  0  0  0
  -18.4731   -8.1459   23.8465 C   0  0  0  0  0  0  0  0  0  0  0  0
  -24.5487  -26.4446   22.0775 C   0  0  0  0  0  0  0  0  0  0  0  0
  -19.2985   -5.8754   23.8248 C   0  0  0  0  0  0  0  0  0  0  0  0
  -31.2713  -18.0987   19.4088 C   0  0  0  0  0  0  0  0  0  0  0  0
  -23.9972  -10.8412   22.4438 C   0  0  0  0  0  0  0  0  0  0  0  0
  -24.1474  -12.9167   20.9683 C   0  0  0  0  0  0  0  0  0  0  0  0
  -23.0963  -34.2635   17.6207 C   0  0  0  0  0  0  0  0  0  0  0  0
  -22.8060  -27.9933   21.4263 C   0  0  0  0  0  0  0  0  0  0  0  0
  -23.3357  -32.8938   17.8424 C   0  0  0  0  0  0  0  0  0  0  0  0
  -23.9669  -27.7187   22.1631 C   0  0  0  0  0  0  0  0  0  0  0  0
  -22.6582   -9.0230   24.0821 C   0  0  0  0  0  0  0  0  0  0  0  0
  -23.9765  -25.4536   21.2803 C   0  0  0  0  0  0  0  0  0  0  0  0
  -20.7632   -7.6871   24.4646 C   0  0  0  0  0  0  0  0  0  0  0  0
  -18.2600   -6.7852   23.6260 C   0  0  0  0  0  0  0  0  0  0  0  0
  -20.5501   -6.3264   24.2441 C   0  0  0  0  0  0  0  0  0  0  0  0
  -24.6893  -11.7803   21.5982 C   0  0  0  0  0  0  0  0  0  0  0  0
  -25.2046  -13.4681   20.2865 C   0  0  0  0  0  0  0  0  0  0  0  0
  -30.1095  -17.5370   19.8955 C   0  0  0  0  0  0  0  0  0  0  0  0
  -30.0870  -19.9312   19.6309 C   0  0  0  0  0  0  0  0  0  0  0  0
  -25.8314  -24.1355   20.7395 C   0  0  0  0  0  0  0  0  0  1  0  0
  -22.8083  -13.4282   20.9971 C   0  0  0  0  0  0  0  0  0  0  0  0
  -29.7328  -21.3725   19.5953 C   0  0  0  0  0  0  0  0  0  0  0  0
  -26.4923  -22.9772   20.6264 C   0  0  0  0  0  0  0  0  0  0  0  0
  -27.8922  -22.9921   20.1007 C   0  0  0  0  0  0  0  0  0  0  0  0
  -24.0423  -30.8640   20.8480 C   0  0  0  0  0  0  0  0  0  0  0  0
  -24.2013  -31.0175   24.0843 C   0  0  0  0  0  0  0  0  0  0  0  0
  -24.3539  -29.3531   27.0597 C   0  0  0  0  0  0  0  0  0  0  0  0
  -30.5346  -15.0572   20.0233 C   0  0  0  0  0  0  0  0  0  0  0  0
  -23.8336  -35.3321   18.3882 C   0  0  0  0  0  0  0  0  0  0  0  0
  -22.1471  -29.3423   21.5177 C   0  0  0  0  0  0  0  0  0  0  0  0
  -24.6141  -28.7582   23.0400 C   0  0  0  0  0  0  0  0  0  0  0  0
  -24.4887  -34.8202   19.6685 C   0  0  0  0  0  0  0  0  0  0  0  0
  -29.8264  -11.6364   19.3353 C   0  0  0  0  0  0  0  0  0  0  0  0
  -25.2398  -33.5198   19.4007 C   0  0  0  0  0  0  0  0  0  0  0  0
  -28.3822  -11.4623   19.8109 C   0  0  0  0  0  0  0  0  0  0  0  0
  -30.6117  -12.5831   20.2414 C   0  0  0  0  0  0  0  0  0  0  0  0
  -28.5397  -13.7176   20.9406 C   0  0  0  0  0  0  0  0  0  0  0  0
  -24.2850  -32.4198   18.9215 C   0  0  1  0  0  0  0  0  0  0  0  0
  -23.1064  -30.4480   21.9474 C   0  0  1  0  0  0  0  0  0  0  0  0
  -27.6906  -12.8234   20.0223 C   0  0  2  0  0  0  0  0  0  0  0  0
  -24.5138  -29.7492   29.5325 C   0  0  0  0  0  0  0  0  0  0  0  0
  -27.1605  -31.6969   23.7817 C   0  0  0  0  0  0  0  0  0  0  0  0
  -27.4631  -31.1466   26.2053 C   0  0  0  0  0  0  0  0  0  0  0  0
  -25.9600  -33.0200   25.5317 C   0  0  0  0  0  0  0  0  0  0  0  0
  -21.7697  -28.0005   27.5607 C   0  0  0  0  0  0  0  0  0  0  0  0
  -25.2272  -30.6350   25.1236 C   0  0  1  0  0  0  0  0  0  0  0  0
  -23.5792  -29.5291   28.3532 C   0  0  2  0  0  0  0  0  0  0  0  0
  -26.4419  -31.6054   25.1426 C   0  0  0  0  0  0  0  0  0  0  0  0
  -31.2601  -19.4714   19.2560 N   0  0  0  0  0  0  0  0  0  0  0  0
  -25.9896  -11.6181   21.3394 N   0  0  0  0  0  0  0  0  0  0  0  0
  -30.5933  -22.2458   19.1820 N   0  0  0  0  0  0  0  0  0  0  0  0
  -26.2736  -12.6598   20.5392 N   0  0  0  0  0  0  0  0  0  0  0  0
  -23.9356  -30.0638   23.0915 N   0  0  0  0  0  0  0  0  0  0  0  0
  -29.8982  -13.8531   20.3921 N   0  0  0  0  0  0  0  0  0  0  0  0
  -25.3146  -14.5607   19.5012 N   0  0  0  0  0  0  0  0  0  0  0  0
  -21.8458  -12.7389   21.7473 N   0  0  0  0  0  0  0  0  0  0  0  0
  -29.7468  -16.1972   20.1801 N   0  0  0  0  0  0  0  0  0  0  0  0
  -28.4529  -21.7123   20.0392 N   0  0  0  0  0  0  0  0  0  0  0  0
  -23.5478  -31.8686   20.0383 N   0  0  0  0  0  0  0  0  0  0  0  0
  -24.5111  -30.5491   26.3917 N   0  0  0  0  0  0  0  0  0  0  0  0
  -22.7507  -28.3214   28.6292 N   0  3  0  0  0  0  0  0  0  0  0  0
  -22.4714  -14.4566   20.3627 O   0  0  0  0  0  0  0  0  0  0  0  0
  -28.4515  -24.0323   19.7668 O   0  0  0  0  0  0  0  0  0  0  0  0
  -25.1330  -30.3153   20.7431 O   0  0  0  0  0  0  0  0  0  0  0  0
  -23.6506  -32.1191   24.1549 O   0  0  0  0  0  0  0  0  0  0  0  0
  -24.7805  -28.2642   26.6816 O   0  0  0  0  0  0  0  0  0  0  0  0
  -31.6834  -15.0729   19.5740 O   0  0  0  0  0  0  0  0  0  0  0  0
  -25.9346  -21.7646   20.9752 O   0  0  0  0  0  0  0  0  0  0  0  0
  -22.0049   -8.1363   24.8818 O   0  0  0  0  0  0  0  0  0  0  0  0
  -24.5506  -24.2219   21.2082 O   0  0  0  0  0  0  0  0  0  1  0  0
  -17.0577   -6.3521   23.2247 F   0  0  0  0  0  0  0  0  0  0  0  0
  -21.5436   -5.4474   24.4345 F   0  0  0  0  0  0  0  0  0  0  0  0
  -28.9499  -18.7684   20.1787 S   0  0  0  0  0  0  0  0  0  0  0  0
  1  2  1  0  0  0  0
  1  5  2  0  0  0  0
  2  6  2  0  0  0  0
  3  8  2  0  0  0  0
  3 16  1  0  0  0  0
  4  9  1  0  0  0  0
  4 16  2  0  0  0  0
  5 18  1  0  0  0  0
  6 20  1  0  0  0  0
  7 10  2  0  0  0  0
  7 19  1  0  0  0  0
  8 22  1  0  0  0  0
  9 22  2  0  0  0  0
 10 23  1  0  0  0  0
 11 12  2  0  0  0  0
 11 24  1  0  0  0  0
 12 25  1  0  0  0  0
 13 21  1  0  0  0  0
 13 23  2  0  0  0  0
 14 25  2  0  0  0  0
 14 26  1  0  0  0  0
 15 29  2  0  0  0  0
 15 60  1  0  0  0  0
 16 27  1  0  0  0  0
 17 27  1  0  0  0  0
 17 28  2  0  0  0  0
 17 32  1  0  0  0  0
 18 20  2  0  0  0  0
 18 40  1  0  0  0  0
 19 21  2  0  0  0  0
 19 41  1  0  0  0  0
 20 49  1  0  0  0  0
 21 42  1  0  0  0  0
 22 80  1  0  0  0  0
 23 81  1  0  0  0  0
 24 26  2  0  0  0  0
 24 80  1  0  0  0  0
 25 82  1  0  0  0  0
 26 83  1  0  0  0  0
 27 61  2  0  0  0  0
 28 63  1  0  0  0  0
 28 66  1  0  0  0  0
 29 68  1  0  0  0  0
 29 84  1  0  0  0  0
 30 33  1  0  0  0  0
 30 60  2  0  0  0  0
 30 84  1  0  0  0  0
 31 34  2  0  0  0  0
 31 81  1  0  0  0  0
 32 67  1  0  0  0  0
 32 73  2  0  0  0  0
 33 62  2  0  0  0  0
 33 69  1  0  0  0  0
 34 35  1  0  0  0  0
 34 79  1  0  0  0  0
 35 69  1  0  0  0  0
 35 74  2  0  0  0  0
 36 50  1  0  0  0  0
 36 70  1  0  0  0  0
 36 75  2  0  0  0  0
 37 57  1  0  0  0  0
 37 64  1  0  0  0  0
 37 76  2  0  0  0  0
 38 58  1  0  0  0  0
 38 71  1  0  0  0  0
 38 77  2  0  0  0  0
 39 65  1  0  0  0  0
 39 68  1  0  0  0  0
 39 78  2  0  0  0  0
 40 43  1  0  0  0  0
 41 50  1  0  0  0  0
 42 64  1  0  0  0  0
 43 45  1  0  0  0  0
 44 46  1  0  0  0  0
 44 47  1  0  0  0  0
 45 49  1  0  0  0  0
 46 51  1  0  0  0  0
 47 65  1  0  0  0  0
 48 51  1  0  0  0  0
 48 65  1  0  0  0  0
 49 70  1  0  0  0  0
 50 64  1  0  0  0  0
 51 63  1  0  0  0  0
 52 58  1  0  0  0  0
 53 59  1  0  0  0  0
 54 59  1  0  0  0  0
 55 59  1  0  0  0  0
 56 72  1  0  0  0  0
 57 59  1  0  0  0  0
 57 71  1  0  0  0  0
 58 72  1  0  0  0  0
 61 63  1  0  0  0  0
M  CHG  1  72   1
M  ISO  4  31 101  39 100  68 100  81 101
M  END
> <Batch ID>
0176

> <Smiles>
CNC(C)C(=O)NC(C(=O)N1Cc2cc([101O:1][101CH2:1]C(=O)C(=O)NC(=N)c3ncc([100NH:0][100C:0](=O)N4CCCC(n5nc(-c6ccc(Oc7ccc(F)cc7F)cc6)c(C(N)=O)c5N)C4)s3)ccc2CC1C(=O)NC1CCCc2ccccc21)C(C)(C)C

> <Shape>
0.258

> <Color>
0.135

> <Negative vol penalty>
0.000

$$$$

  -OEChem-04052304383D

 84 92  0     1  0  0  0  0  0999 V2000
  -16.6194  -30.1034   23.0446 C   0  0  0  0  0  0  0  0  0  0  0  0
  -17.6718  -30.4511   22.2038 C   0  0  0  0  0  0  0  0  0  0  0  0
  -25.5636  -13.7053   19.3383 C   0  0  0  0  0  0  0  0  0  0  0  0
  -25.3610  -14.9687   21.3877 C   0  0  0  0  0  0  0  0  0  0  0  0
  -16.8707  -29.3895   24.2155 C   0  0  0  0  0  0  0  0  0  0  0  0
  -18.9765  -30.0861   22.5342 C   0  0  0  0  0  0  0  0  0  0  0  0
  -25.1786  -28.1793   19.4988 C   0  0  0  0  0  0  0  0  0  0  0  0
  -25.4210  -12.5180   20.0562 C   0  0  0  0  0  0  0  0  0  0  0  0
  -25.2183  -13.7813   22.1056 C   0  0  0  0  0  0  0  0  0  0  0  0
  -26.5311  -28.5176   19.5080 C   0  0  0  0  0  0  0  0  0  0  0  0
  -22.9062  -10.7295   21.4383 C   0  0  0  0  0  0  0  0  0  0  0  0
  -22.0459   -9.7599   20.9232 C   0  0  0  0  0  0  0  0  0  0  0  0
  -26.8366  -27.2166   21.5163 C   0  0  0  0  0  0  0  0  0  0  0  0
  -23.8853   -8.1994   20.7883 C   0  0  0  0  0  0  0  0  0  0  0  0
  -25.5336  -14.9307   20.0041 C   0  0  0  0  0  0  0  0  0  0  0  0
  -24.6566  -16.9307   18.6855 C   0  0  0  0  0  0  0  0  0  0  0  0
  -18.1779  -29.0071   24.5555 C   0  0  0  0  0  0  0  0  0  0  0  0
  -24.6418  -27.3647   20.5061 C   0  0  0  0  0  0  0  0  0  0  0  0
  -19.2456  -29.3675   23.7115 C   0  0  0  0  0  0  0  0  0  0  0  0
  -25.4775  -26.8674   21.5162 C   0  0  0  0  0  0  0  0  0  0  0  0
  -25.2483  -12.5559   21.4398 C   0  0  0  0  0  0  0  0  0  0  0  0
  -27.3598  -28.0386   20.5185 C   0  0  0  0  0  0  0  0  0  0  0  0
  -24.2561  -10.4341   21.6284 C   0  0  0  0  0  0  0  0  0  0  0  0
  -22.5354   -8.4949   20.5982 C   0  0  0  0  0  0  0  0  0  0  0  0
  -24.7457   -9.1690   21.3034 C   0  0  0  0  0  0  0  0  0  0  0  0
  -25.6815  -16.1576   19.2631 C   0  0  0  0  0  0  0  0  0  0  0  0
  -25.3113  -17.9867   18.1002 C   0  0  0  0  0  0  0  0  0  0  0  0
  -29.1560  -25.5943   16.0673 C   0  0  0  0  0  0  0  0  0  0  0  0
  -29.1704  -24.3084   16.7112 C   0  0  0  0  0  0  0  0  0  0  0  0
  -30.1226  -26.4795   16.3305 C   0  0  0  0  0  0  0  0  0  0  0  0
  -30.1404  -23.9794   17.5751 C   0  0  0  0  0  0  0  0  0  0  0  0
  -31.2350  -24.9620   17.8826 C   0  0  0  0  0  0  0  0  0  0  0  0
  -23.2393  -16.7136   18.6786 C   0  0  0  0  0  0  0  0  0  0  0  0
  -22.4196  -27.7396   22.7477 C   0  0  0  0  0  0  0  0  0  0  0  0
  -30.7774  -28.2567   19.3216 C   0  0  0  0  0  0  0  0  0  0  0  0
  -22.9519  -24.5800   23.2533 C   0  0  0  0  0  0  0  0  0  0  0  0
  -25.0738  -21.9204   22.9867 C   0  0  0  0  0  0  0  0  0  0  0  0
  -29.0399  -22.0263   18.5133 C   0  0  0  0  0  0  0  0  0  0  0  0
  -18.4058  -28.2772   25.8555 C   0  0  0  0  0  0  0  0  0  0  0  0
  -23.1863  -26.9872   20.4669 C   0  0  0  0  0  0  0  0  0  0  0  0
  -24.9545  -25.9729   22.6093 C   0  0  0  0  0  0  0  0  0  0  0  0
  -19.7728  -27.6035   25.9442 C   0  0  0  0  0  0  0  0  0  0  0  0
  -30.2142  -18.7642   17.2331 C   0  0  0  0  0  0  0  0  0  0  0  0
  -20.8699  -28.5599   25.4877 C   0  0  0  0  0  0  0  0  0  0  0  0
  -29.0662  -17.8529   17.6565 C   0  0  0  0  0  0  0  0  0  0  0  0
  -30.4490  -19.8943   18.2347 C   0  0  0  0  0  0  0  0  0  0  0  0
  -28.0766  -19.7861   18.9440 C   0  0  0  0  0  0  0  0  0  0  0  0
  -20.6717  -28.9681   24.0230 C   0  0  1  0  0  0  0  0  0  0  0  0
  -22.6402  -26.5711   21.8293 C   0  0  1  0  0  0  0  0  0  0  0  0
  -27.7947  -18.6724   17.9238 C   0  0  2  0  0  0  0  0  0  0  0  0
  -25.8434  -19.5348   23.1042 C   0  0  0  0  0  0  0  0  0  0  0  0
  -32.9278  -27.4978   16.1647 C   0  0  0  0  0  0  0  0  0  0  0  0
  -23.4262  -25.2579   26.1903 C   0  0  0  0  0  0  0  0  0  0  0  0
  -24.4965  -23.0111   26.4639 C   0  0  0  0  0  0  0  0  0  0  0  0
  -22.0970  -23.1754   25.8017 C   0  0  0  0  0  0  0  0  0  0  0  0
  -24.1113  -21.3534   20.2461 C   0  0  0  0  0  0  0  0  0  0  0  0
  -31.5533  -28.4802   18.0302 C   0  0  0  0  0  0  0  0  0  0  0  0
  -29.3021  -28.6031   19.2676 C   0  0  0  0  0  0  0  0  0  1  0  0
  -23.8898  -23.7799   24.1247 C   0  0  1  0  0  0  0  0  0  0  0  0
  -24.8589  -20.5078   22.4743 C   0  0  2  0  0  0  0  0  0  0  0  0
  -32.1731  -27.2021   17.4570 C   0  0  1  0  0  0  0  0  0  0  0  0
  -23.4871  -23.8245   25.6258 C   0  0  0  0  0  0  0  0  0  0  0  0
  -26.8952  -16.6781   19.0628 N   0  0  0  0  0  0  0  0  0  0  0  0
  -26.6370  -17.7895   18.3527 N   0  0  0  0  0  0  0  0  0  0  0  0
  -31.1579  -26.2019   17.2158 N   0  0  0  0  0  0  0  0  0  0  0  0
  -23.5232  -25.6372   22.5310 N   0  0  0  0  0  0  0  0  0  0  0  0
  -29.2061  -20.6268   18.5265 N   0  0  0  0  0  0  0  0  0  0  0  0
  -24.8766  -19.0554   17.3992 N   0  0  0  0  0  0  0  0  0  0  0  0
  -22.7341  -15.5787   19.3275 N   0  0  0  0  0  0  0  0  0  0  0  0
  -30.1779  -22.7651   18.2008 N   0  0  0  0  0  0  0  0  0  0  0  0
  -21.1051  -27.9070   23.1394 N   0  0  0  0  0  0  0  0  0  0  0  0
  -23.9292  -22.4369   23.5562 N   0  0  0  0  0  0  0  0  0  0  0  0
  -25.0334  -20.4612   20.9950 N   0  3  0  0  0  0  0  0  0  0  0  0
  -32.1244  -24.6558   18.6764 O   0  0  0  0  0  0  0  0  0  0  0  0
  -22.4460  -17.4940   18.0998 O   0  0  0  0  0  0  0  0  0  0  0  0
  -23.3718  -28.4369   23.0777 O   0  0  0  0  0  0  0  0  0  0  0  0
  -31.3055  -27.8363   20.3496 O   0  0  0  0  0  0  0  0  0  0  0  0
  -21.7579  -24.2736   23.2095 O   0  0  0  0  0  0  0  0  0  0  0  0
  -26.1506  -22.5058   22.8946 O   0  0  0  0  0  0  0  0  0  0  0  0
  -27.9584  -22.5671   18.7711 O   0  0  0  0  0  0  0  0  0  0  0  0
  -25.1088  -11.3975   22.1406 O   0  0  0  0  0  0  0  0  0  0  0  0
  -28.6801  -28.3678   20.5302 O   0  0  0  0  0  0  0  0  0  1  0  0
  -21.7088   -7.5634   20.1050 F   0  0  0  0  0  0  0  0  0  0  0  0
  -26.0413   -8.8789   21.4849 F   0  0  0  0  0  0  0  0  0  0  0  0
  1  2  1  0  0  0  0
  1  5  2  0  0  0  0
  2  6  2  0  0  0  0
  3  8  2  0  0  0  0
  3 15  1  0  0  0  0
  4  9  1  0  0  0  0
  4 15  2  0  0  0  0
  5 17  1  0  0  0  0
  6 19  1  0  0  0  0
  7 10  2  0  0  0  0
  7 18  1  0  0  0  0
  8 21  1  0  0  0  0
  9 21  2  0  0  0  0
 10 22  1  0  0  0  0
 11 12  2  0  0  0  0
 11 23  1  0  0  0  0
 12 24  1  0  0  0  0
 13 20  1  0  0  0  0
 13 22  2  0  0  0  0
 14 24  2  0  0  0  0
 14 25  1  0  0  0  0
 15 26  1  0  0  0  0
 16 26  1  0  0  0  0
 16 27  2  0  0  0  0
 16 33  1  0  0  0  0
 17 19  2  0  0  0  0
 17 39  1  0  0  0  0
 18 20  2  0  0  0  0
 18 40  1  0  0  0  0
 19 48  1  0  0  0  0
 20 41  1  0  0  0  0
 21 81  1  0  0  0  0
 22 82  1  0  0  0  0
 23 25  2  0  0  0  0
 23 81  1  0  0  0  0
 24 83  1  0  0  0  0
 25 84  1  0  0  0  0
 26 63  2  0  0  0  0
 27 64  1  0  0  0  0
 27 68  1  0  0  0  0
 28 29  1  0  0  0  0
 28 30  2  0  0  0  0
 29 31  2  0  0  0  0
 30 65  1  0  0  0  0
 31 32  1  0  0  0  0
 31 70  1  0  0  0  0
 32 65  1  0  0  0  0
 32 74  2  0  0  0  0
 33 69  1  0  0  0  0
 33 75  2  0  0  0  0
 34 49  1  0  0  0  0
 34 71  1  0  0  0  0
 34 76  2  0  0  0  0
 35 57  1  0  0  0  0
 35 58  1  0  0  0  0
 35 77  2  0  0  0  0
 36 59  1  0  0  0  0
 36 66  1  0  0  0  0
 36 78  2  0  0  0  0
 37 60  1  0  0  0  0
 37 72  1  0  0  0  0
 37 79  2  0  0  0  0
 38 67  1  0  0  0  0
 38 70  1  0  0  0  0
 38 80  2  0  0  0  0
 39 42  1  0  0  0  0
 40 49  1  0  0  0  0
 41 66  1  0  0  0  0
 42 44  1  0  0  0  0
 43 45  1  0  0  0  0
 43 46  1  0  0  0  0
 44 48  1  0  0  0  0
 45 50  1  0  0  0  0
 46 67  1  0  0  0  0
 47 50  1  0  0  0  0
 47 67  1  0  0  0  0
 48 71  1  0  0  0  0
 49 66  1  0  0  0  0
 50 64  1  0  0  0  0
 51 60  1  0  0  0  0
 52 61  1  0  0  0  0
 53 62  1  0  0  0  0
 54 62  1  0  0  0  0
 55 62  1  0  0  0  0
 56 73  1  0  0  0  0
 57 61  1  0  0  0  0
 58 82  1  0  0  0  0
 59 62  1  0  0  0  0
 59 72  1  0  0  0  0
 60 73  1  0  0  0  0
 61 65  1  0  0  0  0
 63 64  1  0  0  0  0
M  CHG  1  73   1
M  ISO  4  38 100  58 101  70 100  82 101
M  END
> <Batch ID>
0176

> <Smiles>
CNC(C)C(=O)NC(C(=O)N1Cc2cc([101O:1][101CH2:1]C(=O)CC(C)n3cccc([100NH:0][100C:0](=O)N4CCCC(n5nc(-c6ccc(Oc7ccc(F)cc7F)cc6)c(C(N)=O)c5N)C4)c3=O)ccc2CC1C(=O)NC1CCCc2ccccc21)C(C)(C)C

> <Shape>
0.207

> <Color>
0.078

> <Negative vol penalty>
0.000

$$$$

  -OEChem-04052304383D

 86 94  0     1  0  0  0  0  0999 V2000
  -29.6208  -35.8092   20.8956 C   0  0  0  0  0  0  0  0  0  0  0  0
  -29.6587  -34.4198   20.9556 C   0  0  0  0  0  0  0  0  0  0  0  0
  -24.8557   -8.7206   21.0583 C   0  0  0  0  0  0  0  0  0  0  0  0
  -23.1610  -10.0616   19.9782 C   0  0  0  0  0  0  0  0  0  0  0  0
  -28.6192  -36.5078   21.5685 C   0  0  0  0  0  0  0  0  0  0  0  0
  -28.6956  -33.7282   21.6896 C   0  0  0  0  0  0  0  0  0  0  0  0
  -26.8661  -29.7161   19.1994 C   0  0  0  0  0  0  0  0  0  0  0  0
  -23.8780   -7.8129   21.4654 C   0  0  0  0  0  0  0  0  0  0  0  0
  -22.1833   -9.1539   20.3851 C   0  0  0  0  0  0  0  0  0  0  0  0
  -27.6579  -28.5690   19.1711 C   0  0  0  0  0  0  0  0  0  0  0  0
  -21.5299   -7.6011   23.8874 C   0  0  0  0  0  0  0  0  0  0  0  0
  -21.5757   -7.1483   25.2059 C   0  0  0  0  0  0  0  0  0  0  0  0
  -26.3257  -27.6132   20.9406 C   0  0  0  0  0  0  0  0  0  0  0  0
  -27.7270  -19.4579   17.9833 C   0  0  0  0  0  0  0  0  0  0  0  0
  -27.6006  -20.1573   15.6742 C   0  0  0  0  0  0  0  0  0  0  0  0
  -21.8263   -4.8783   24.4176 C   0  0  0  0  0  0  0  0  0  0  0  0
  -24.4972   -9.8450   20.3148 C   0  0  0  0  0  0  0  0  0  0  0  0
  -26.2474  -10.7558   18.6978 C   0  0  0  0  0  0  0  0  0  0  0  0
  -27.6378  -35.8239   22.3032 C   0  0  0  0  0  0  0  0  0  0  0  0
  -25.8031  -29.8251   20.1075 C   0  0  0  0  0  0  0  0  0  0  0  0
  -27.6808  -34.4184   22.3740 C   0  0  0  0  0  0  0  0  0  0  0  0
  -25.5204  -28.7617   20.9767 C   0  0  0  0  0  0  0  0  0  0  0  0
  -27.6459  -20.4746   17.0317 C   0  0  0  0  0  0  0  0  0  0  0  0
  -27.7630  -18.1239   17.5773 C   0  0  0  0  0  0  0  0  0  0  0  0
  -22.5418   -8.0294   21.1287 C   0  0  0  0  0  0  0  0  0  0  0  0
  -27.3896  -27.5184   20.0438 C   0  0  0  0  0  0  0  0  0  0  0  0
  -21.6323   -6.6925   22.8340 C   0  0  0  0  0  0  0  0  0  0  0  0
  -21.7239   -5.7869   25.4710 C   0  0  0  0  0  0  0  0  0  0  0  0
  -27.6366  -18.8233   15.2682 C   0  0  0  0  0  0  0  0  0  0  0  0
  -21.7805   -5.3312   23.0991 C   0  0  0  0  0  0  0  0  0  0  0  0
  -27.7178  -17.8066   16.2197 C   0  0  0  0  0  0  0  0  0  0  0  0
  -25.5067  -10.7834   19.8946 C   0  0  0  0  0  0  0  0  0  0  0  0
  -27.0667  -11.8555   18.7757 C   0  0  0  0  0  0  0  0  0  0  0  0
  -26.1992   -9.8200   17.6126 C   0  0  0  0  0  0  0  0  0  0  0  0
  -27.5926  -23.8007   18.7900 C   0  0  0  0  0  0  0  0  0  0  0  0
  -27.6529  -22.3014   18.7362 C   0  0  0  0  0  0  0  0  0  0  0  0
  -25.1038  -31.7743   22.5190 C   0  0  0  0  0  0  0  0  0  0  0  0
  -22.3017  -30.1402   22.5155 C   0  0  0  0  0  0  0  0  0  0  0  0
  -20.6162  -27.2811   21.7212 C   0  0  0  0  0  0  0  0  0  0  0  0
  -27.8977  -17.2384   19.9318 C   0  0  0  0  0  0  0  0  0  0  0  0
  -26.6026  -36.6247   23.0528 C   0  0  0  0  0  0  0  0  0  0  0  0
  -24.9418  -31.0582   20.1072 C   0  0  0  0  0  0  0  0  0  0  0  0
  -24.3782  -28.8207   21.9567 C   0  0  0  0  0  0  0  0  0  0  0  0
  -25.4000  -35.7981   23.5006 C   0  0  0  0  0  0  0  0  0  0  0  0
  -28.0662  -14.9502   22.6545 C   0  0  0  0  0  0  0  0  0  0  0  0
  -25.8586  -34.4915   24.1404 C   0  0  0  0  0  0  0  0  0  0  0  0
  -27.4762  -13.6599   22.0808 C   0  0  0  0  0  0  0  0  0  0  0  0
  -27.3514  -16.1887   22.1170 C   0  0  0  0  0  0  0  0  0  0  0  0
  -26.6762  -14.9797   20.0795 C   0  0  0  0  0  0  0  0  0  0  0  0
  -26.6393  -33.6313   23.1394 C   0  0  1  0  0  0  0  0  0  0  0  0
  -24.2042  -31.2722   21.4253 C   0  0  1  0  0  0  0  0  0  0  0  0
  -27.4060  -13.7080   20.5418 C   0  0  2  0  0  0  0  0  0  0  0  0
  -18.3446  -26.2259   21.8760 C   0  0  0  0  0  0  0  0  0  0  0  0
  -22.7578  -29.5992   25.4836 C   0  0  0  0  0  0  0  0  0  0  0  0
  -21.0202  -27.8016   25.3516 C   0  0  0  0  0  0  0  0  0  0  0  0
  -20.3997  -30.1708   24.8777 C   0  0  0  0  0  0  0  0  0  0  0  0
  -20.3903  -27.0609   18.7785 C   0  0  0  0  0  0  0  0  0  0  0  0
  -28.9154  -24.5297   18.7015 C   0  0  0  0  0  0  0  0  0  0  0  0
  -28.7465  -26.0401   18.7673 C   0  0  0  0  0  0  0  0  0  1  0  0
  -21.7902  -28.8936   23.1962 C   0  0  1  0  0  0  0  0  0  0  0  0
  -19.2886  -27.0561   21.0202 C   0  0  2  0  0  0  0  0  0  0  0  0
  -21.5148  -29.1157   24.7102 C   0  0  0  0  0  0  0  0  0  0  0  0
  -25.8271  -11.8184   20.6756 N   0  0  0  0  0  0  0  0  0  0  0  0
  -26.7784  -12.4514   19.9682 N   0  0  0  0  0  0  0  0  0  0  0  0
  -23.5689  -30.0501   21.9223 N   0  0  0  0  0  0  0  0  0  0  0  0
  -27.3273  -16.1680   20.6528 N   0  0  0  0  0  0  0  0  0  0  0  0
  -27.9985  -12.3611   17.9399 N   0  0  0  0  0  0  0  0  0  0  0  0
  -25.3000   -8.7481   17.6942 N   0  0  0  0  0  0  0  0  0  0  0  0
  -27.6093  -21.8274   17.4428 N   0  0  0  0  0  0  0  0  0  0  0  0
  -27.8450  -17.0931   18.5460 N   0  0  0  0  0  0  0  0  0  0  0  0
  -25.7321  -32.9697   22.2262 N   0  0  0  0  0  0  0  0  0  0  0  0
  -20.6239  -28.4615   22.4338 N   0  0  0  0  0  0  0  0  0  0  0  0
  -19.4994  -26.3450   19.7276 N   0  3  0  0  0  0  0  0  0  0  0  0
  -26.9435   -9.9219   16.6080 O   0  0  0  0  0  0  0  0  0  0  0  0
  -26.4879  -24.3130   18.8890 O   0  0  0  0  0  0  0  0  0  0  0  0
  -27.7557  -21.7202   19.8036 O   0  0  0  0  0  0  0  0  0  0  0  0
  -25.2183  -31.1260   23.5525 O   0  0  0  0  0  0  0  0  0  0  0  0
  -21.5996  -31.1544   22.5042 O   0  0  0  0  0  0  0  0  0  0  0  0
  -21.5514  -26.4871   21.6474 O   0  0  0  0  0  0  0  0  0  0  0  0
  -28.4205  -18.1994   20.5021 O   0  0  0  0  0  0  0  0  0  0  0  0
  -21.5875   -7.1438   21.5255 O   0  0  0  0  0  0  0  0  0  0  0  0
  -28.1613  -26.3978   20.0187 O   0  0  0  0  0  0  0  0  0  1  0  0
  -21.7694   -5.3524   26.7372 F   0  0  0  0  0  0  0  0  0  0  0  0
  -27.5935  -18.5187   13.9647 F   0  0  0  0  0  0  0  0  0  0  0  0
  -21.8806   -4.4536   22.0912 F   0  0  0  0  0  0  0  0  0  0  0  0
  -27.7521  -16.5282   15.8180 F   0  0  0  0  0  0  0  0  0  0  0  0
  1  2  1  0  0  0  0
  1  5  2  0  0  0  0
  2  6  2  0  0  0  0
  3  8  2  0  0  0  0
  3 17  1  0  0  0  0
  4  9  1  0  0  0  0
  4 17  2  0  0  0  0
  5 19  1  0  0  0  0
  6 21  1  0  0  0  0
  7 10  2  0  0  0  0
  7 20  1  0  0  0  0
  8 25  1  0  0  0  0
  9 25  2  0  0  0  0
 10 26  1  0  0  0  0
 11 12  2  0  0  0  0
 11 27  1  0  0  0  0
 12 28  1  0  0  0  0
 13 22  1  0  0  0  0
 13 26  2  0  0  0  0
 14 23  2  0  0  0  0
 14 24  1  0  0  0  0
 15 23  1  0  0  0  0
 15 29  2  0  0  0  0
 16 28  2  0  0  0  0
 16 30  1  0  0  0  0
 17 32  1  0  0  0  0
 18 32  1  0  0  0  0
 18 33  2  0  0  0  0
 18 34  1  0  0  0  0
 19 21  2  0  0  0  0
 19 41  1  0  0  0  0
 20 22  2  0  0  0  0
 20 42  1  0  0  0  0
 21 50  1  0  0  0  0
 22 43  1  0  0  0  0
 23 69  1  0  0  0  0
 24 31  2  0  0  0  0
 24 70  1  0  0  0  0
 25 81  1  0  0  0  0
 26 82  1  0  0  0  0
 27 30  2  0  0  0  0
 27 81  1  0  0  0  0
 28 83  1  0  0  0  0
 29 31  1  0  0  0  0
 29 84  1  0  0  0  0
 30 85  1  0  0  0  0
 31 86  1  0  0  0  0
 32 63  2  0  0  0  0
 33 64  1  0  0  0  0
 33 67  1  0  0  0  0
 34 68  1  0  0  0  0
 34 74  2  0  0  0  0
 35 36  1  0  0  0  0
 35 58  1  0  0  0  0
 35 75  2  0  0  0  0
 36 69  1  0  0  0  0
 36 76  2  0  0  0  0
 37 51  1  0  0  0  0
 37 71  1  0  0  0  0
 37 77  2  0  0  0  0
 38 60  1  0  0  0  0
 38 65  1  0  0  0  0
 38 78  2  0  0  0  0
 39 61  1  0  0  0  0
 39 72  1  0  0  0  0
 39 79  2  0  0  0  0
 40 66  1  0  0  0  0
 40 70  1  0  0  0  0
 40 80  2  0  0  0  0
 41 44  1  0  0  0  0
 42 51  1  0  0  0  0
 43 65  1  0  0  0  0
 44 46  1  0  0  0  0
 45 47  1  0  0  0  0
 45 48  1  0  0  0  0
 46 50  1  0  0  0  0
 47 52  1  0  0  0  0
 48 66  1  0  0  0  0
 49 52  1  0  0  0  0
 49 66  1  0  0  0  0
 50 71  1  0  0  0  0
 51 65  1  0  0  0  0
 52 64  1  0  0  0  0
 53 61  1  0  0  0  0
 54 62  1  0  0  0  0
 55 62  1  0  0  0  0
 56 62  1  0  0  0  0
 57 73  1  0  0  0  0
 58 59  1  0  0  0  0
 59 82  1  0  0  0  0
 60 62  1  0  0  0  0
 60 72  1  0  0  0  0
 61 73  1  0  0  0  0
 63 64  1  0  0  0  0
M  CHG  1  73   1
M  ISO  4  40 100  59 101  70 100  82 101
M  END
> <Batch ID>
0176

> <Smiles>
CNC(C)C(=O)NC(C(=O)N1Cc2cc([101O:1][101CH2:1]CC(=O)C(=O)Nc3cc(F)c(F)c([100NH:0][100C:0](=O)N4CCCC(n5nc(-c6ccc(Oc7ccc(F)cc7F)cc6)c(C(N)=O)c5N)C4)c3)ccc2CC1C(=O)NC1CCCc2ccccc21)C(C)(C)C

> <Shape>
0.308

> <Color>
0.109

> <Negative vol penalty>
0.000

$$$$

  -OEChem-04052304383D

 85 93  0     1  0  0  0  0  0999 V2000
  -34.7407  -28.4675   18.7298 C   0  0  0  0  0  0  0  0  0  0  0  0
  -33.7755  -27.5262   19.0730 C   0  0  0  0  0  0  0  0  0  0  0  0
  -20.6597   -6.5460   21.6332 C   0  0  0  0  0  0  0  0  0  0  0  0
  -21.5929   -6.6742   19.4084 C   0  0  0  0  0  0  0  0  0  0  0  0
  -34.8549  -29.6468   19.4647 C   0  0  0  0  0  0  0  0  0  0  0  0
  -32.9247  -27.7632   20.1521 C   0  0  0  0  0  0  0  0  0  0  0  0
  -28.0992  -26.6397   19.1045 C   0  0  0  0  0  0  0  0  0  0  0  0
  -19.8484   -5.4848   21.2318 C   0  0  0  0  0  0  0  0  0  0  0  0
  -20.7815   -5.6130   19.0070 C   0  0  0  0  0  0  0  0  0  0  0  0
  -27.7398  -25.2928   19.1263 C   0  0  0  0  0  0  0  0  0  0  0  0
  -17.2710   -2.9761   20.6959 C   0  0  0  0  0  0  0  0  0  0  0  0
  -15.9314   -2.9991   21.0839 C   0  0  0  0  0  0  0  0  0  0  0  0
  -27.1118  -16.2503   20.0746 C   0  0  0  0  0  0  0  0  0  0  0  0
  -26.8067  -25.5837   21.3317 C   0  0  0  0  0  0  0  0  0  0  0  0
  -15.6254   -5.0847   19.9032 C   0  0  0  0  0  0  0  0  0  0  0  0
  -21.5320   -7.1407   20.7215 C   0  0  0  0  0  0  0  0  0  0  0  0
  -28.5101  -16.4990   19.9598 C   0  0  0  0  0  0  0  0  0  0  0  0
  -23.6678   -8.1589   21.6751 C   0  0  0  0  0  0  0  0  0  0  0  0
  -33.9987  -29.9027   20.5474 C   0  0  0  0  0  0  0  0  0  0  0  0
  -27.8243  -27.4676   20.2025 C   0  0  0  0  0  0  0  0  0  0  0  0
  -33.0285  -28.9464   20.9030 C   0  0  0  0  0  0  0  0  0  0  0  0
  -27.1613  -26.9413   21.3203 C   0  0  0  0  0  0  0  0  0  0  0  0
  -19.9093   -5.0183   19.9187 C   0  0  0  0  0  0  0  0  0  0  0  0
  -27.0961  -24.7639   20.2412 C   0  0  0  0  0  0  0  0  0  0  0  0
  -17.7879   -4.0073   19.9117 C   0  0  0  0  0  0  0  0  0  0  0  0
  -15.1086   -4.0534   20.6875 C   0  0  0  0  0  0  0  0  0  0  0  0
  -16.9650   -5.0616   19.5153 C   0  0  0  0  0  0  0  0  0  0  0  0
  -22.3699   -8.2374   21.1354 C   0  0  0  0  0  0  0  0  0  0  0  0
  -24.0259   -9.4657   21.8996 C   0  0  0  0  0  0  0  0  0  0  0  0
  -26.8231  -14.9034   20.0627 C   0  0  0  0  0  0  0  0  0  0  0  0
  -29.2369  -15.3325   19.8650 C   0  0  0  0  0  0  0  0  0  0  0  0
  -27.7361  -22.5162   20.1457 C   0  0  0  0  0  0  0  0  0  1  0  0
  -29.1444  -17.8418   19.9413 C   0  0  0  0  0  0  0  0  0  0  0  0
  -24.4774   -7.0076   21.9488 C   0  0  0  0  0  0  0  0  0  0  0  0
  -27.5049  -21.1980   20.1566 C   0  0  0  0  0  0  0  0  0  0  0  0
  -28.6613  -20.2605   20.0184 C   0  0  0  0  0  0  0  0  0  0  0  0
  -29.5899  -29.1514   22.2398 C   0  0  0  0  0  0  0  0  0  0  0  0
  -26.6989  -30.1949   23.2770 C   0  0  0  0  0  0  0  0  0  0  0  0
  -23.3439  -29.6335   23.5515 C   0  0  0  0  0  0  0  0  0  0  0  0
  -24.3159  -14.7843   20.2773 C   0  0  0  0  0  0  0  0  0  0  0  0
  -34.1914  -31.1705   21.3413 C   0  0  0  0  0  0  0  0  0  0  0  0
  -28.1944  -28.9246   20.1524 C   0  0  0  0  0  0  0  0  0  0  0  0
  -26.8252  -27.7926   22.5165 C   0  0  0  0  0  0  0  0  0  0  0  0
  -33.0046  -31.5140   22.2378 C   0  0  0  0  0  0  0  0  0  0  0  0
  -21.2661  -13.7069   21.7657 C   0  0  0  0  0  0  0  0  0  0  0  0
  -32.5424  -30.2808   23.0075 C   0  0  0  0  0  0  0  0  0  0  0  0
  -21.3882  -12.1814   21.7788 C   0  0  0  0  0  0  0  0  0  0  0  0
  -21.8867  -14.3147   20.5091 C   0  0  0  0  0  0  0  0  0  0  0  0
  -23.3945  -12.3830   20.2553 C   0  0  0  0  0  0  0  0  0  0  0  0
  -32.0708  -29.1785   22.0515 C   0  0  1  0  0  0  0  0  0  0  0  0
  -28.3258  -29.5555   21.5352 C   0  0  1  0  0  0  0  0  0  0  0  0
  -22.8412  -11.7302   21.5326 C   0  0  2  0  0  0  0  0  0  0  0  0
  -21.2466  -30.6481   24.4838 C   0  0  0  0  0  0  0  0  0  0  0  0
  -27.5410  -29.3492   26.0851 C   0  0  0  0  0  0  0  0  0  0  0  0
  -25.1376  -29.4892   26.7725 C   0  0  0  0  0  0  0  0  0  0  0  0
  -26.3255  -31.5320   25.9735 C   0  0  0  0  0  0  0  0  0  0  0  0
  -22.0981  -29.8059   20.8724 C   0  0  0  0  0  0  0  0  0  0  0  0
  -25.7032  -29.7306   24.3123 C   0  0  1  0  0  0  0  0  0  0  0  0
  -22.1471  -30.5222   23.2648 C   0  0  2  0  0  0  0  0  0  0  0  0
  -26.1848  -30.0085   25.7643 C   0  0  0  0  0  0  0  0  0  0  0  0
  -21.9330   -9.4946   21.0241 N   0  0  0  0  0  0  0  0  0  0  0  0
  -22.9620  -10.2182   21.4969 N   0  0  0  0  0  0  0  0  0  0  0  0
  -27.2133  -29.2097   22.4223 N   0  0  0  0  0  0  0  0  0  0  0  0
  -23.2643  -13.8459   20.3430 N   0  0  0  0  0  0  0  0  0  0  0  0
  -25.1438  -10.0331   22.4004 N   0  0  0  0  0  0  0  0  0  0  0  0
  -23.9559   -5.7396   21.6578 N   0  0  0  0  0  0  0  0  0  0  0  0
  -25.5850  -14.2201   20.1516 N   0  0  0  0  0  0  0  0  0  0  0  0
  -28.2708  -18.9231   20.0467 N   0  0  0  0  0  0  0  0  0  0  0  0
  -30.7447  -29.4748   21.5533 N   0  0  0  0  0  0  0  0  0  0  0  0
  -24.4344  -30.3652   23.9718 N   0  0  0  0  0  0  0  0  0  0  0  0
  -21.3429  -29.9619   22.1422 N   0  3  0  0  0  0  0  0  0  0  0  0
  -30.3626  -17.9258   19.8108 O   0  0  0  0  0  0  0  0  0  0  0  0
  -25.6226   -7.0997   22.4521 O   0  0  0  0  0  0  0  0  0  0  0  0
  -29.8154  -20.6613   19.8981 O   0  0  0  0  0  0  0  0  0  0  0  0
  -29.5226  -28.5892   23.3266 O   0  0  0  0  0  0  0  0  0  0  0  0
  -27.0036  -31.3891   23.2238 O   0  0  0  0  0  0  0  0  0  0  0  0
  -23.3133  -28.4119   23.4196 O   0  0  0  0  0  0  0  0  0  0  0  0
  -24.1087  -15.9979   20.3562 O   0  0  0  0  0  0  0  0  0  0  0  0
  -26.2397  -20.6647   20.2906 O   0  0  0  0  0  0  0  0  0  0  0  0
  -19.1178   -3.9826   19.5267 O   0  0  0  0  0  0  0  0  0  0  0  0
  -26.7448  -23.4494   20.2654 O   0  0  0  0  0  0  0  0  0  1  0  0
  -13.8218   -4.0746   21.0589 F   0  0  0  0  0  0  0  0  0  0  0  0
  -17.4556   -6.0546   18.7609 F   0  0  0  0  0  0  0  0  0  0  0  0
  -30.5686  -15.2809   19.7477 F   0  0  0  0  0  0  0  0  0  0  0  0
  -28.2344  -13.9451   19.9140 S   0  0  0  0  0  0  0  0  0  0  0  0
  1  2  1  0  0  0  0
  1  5  2  0  0  0  0
  2  6  2  0  0  0  0
  3  8  2  0  0  0  0
  3 16  1  0  0  0  0
  4  9  1  0  0  0  0
  4 16  2  0  0  0  0
  5 19  1  0  0  0  0
  6 21  1  0  0  0  0
  7 10  2  0  0  0  0
  7 20  1  0  0  0  0
  8 23  1  0  0  0  0
  9 23  2  0  0  0  0
 10 24  1  0  0  0  0
 11 12  2  0  0  0  0
 11 25  1  0  0  0  0
 12 26  1  0  0  0  0
 13 17  1  0  0  0  0
 13 30  2  0  0  0  0
 14 22  1  0  0  0  0
 14 24  2  0  0  0  0
 15 26  2  0  0  0  0
 15 27  1  0  0  0  0
 16 28  1  0  0  0  0
 17 31  2  0  0  0  0
 17 33  1  0  0  0  0
 18 28  1  0  0  0  0
 18 29  2  0  0  0  0
 18 34  1  0  0  0  0
 19 21  2  0  0  0  0
 19 41  1  0  0  0  0
 20 22  2  0  0  0  0
 20 42  1  0  0  0  0
 21 50  1  0  0  0  0
 22 43  1  0  0  0  0
 23 80  1  0  0  0  0
 24 81  1  0  0  0  0
 25 27  2  0  0  0  0
 25 80  1  0  0  0  0
 26 82  1  0  0  0  0
 27 83  1  0  0  0  0
 28 61  2  0  0  0  0
 29 62  1  0  0  0  0
 29 65  1  0  0  0  0
 30 67  1  0  0  0  0
 30 85  1  0  0  0  0
 31 84  1  0  0  0  0
 31 85  1  0  0  0  0
 32 35  2  0  0  0  0
 32 81  1  0  0  0  0
 33 68  1  0  0  0  0
 33 72  2  0  0  0  0
 34 66  1  0  0  0  0
 34 73  2  0  0  0  0
 35 36  1  0  0  0  0
 35 79  1  0  0  0  0
 36 68  1  0  0  0  0
 36 74  2  0  0  0  0
 37 51  1  0  0  0  0
 37 69  1  0  0  0  0
 37 75  2  0  0  0  0
 38 58  1  0  0  0  0
 38 63  1  0  0  0  0
 38 76  2  0  0  0  0
 39 59  1  0  0  0  0
 39 70  1  0  0  0  0
 39 77  2  0  0  0  0
 40 64  1  0  0  0  0
 40 67  1  0  0  0  0
 40 78  2  0  0  0  0
 41 44  1  0  0  0  0
 42 51  1  0  0  0  0
 43 63  1  0  0  0  0
 44 46  1  0  0  0  0
 45 47  1  0  0  0  0
 45 48  1  0  0  0  0
 46 50  1  0  0  0  0
 47 52  1  0  0  0  0
 48 64  1  0  0  0  0
 49 52  1  0  0  0  0
 49 64  1  0  0  0  0
 50 69  1  0  0  0  0
 51 63  1  0  0  0  0
 52 62  1  0  0  0  0
 53 59  1  0  0  0  0
 54 60  1  0  0  0  0
 55 60  1  0  0  0  0
 56 60  1  0  0  0  0
 57 71  1  0  0  0  0
 58 60  1  0  0  0  0
 58 70  1  0  0  0  0
 59 71  1  0  0  0  0
 61 62  1  0  0  0  0
M  CHG  1  71   1
M  ISO  4  32 101  40 100  67 100  81 101
M  END
> <Batch ID>
0176

> <Smiles>
CNC(C)C(=O)NC(C(=O)N1Cc2cc([101O:1][101CH2:1]C(=O)C(=O)NC(=O)c3cc([100NH:0][100C:0](=O)N4CCCC(n5nc(-c6ccc(Oc7ccc(F)cc7F)cc6)c(C(N)=O)c5N)C4)sc3F)ccc2CC1C(=O)NC1CCCc2ccccc21)C(C)(C)C

> <Shape>
0.236

> <Color>
0.087

> <Negative vol penalty>
0.000

$$$$

  -OEChem-04052304383D

 84 92  0     1  0  0  0  0  0999 V2000
  -31.8674  -33.4918   14.8709 C   0  0  0  0  0  0  0  0  0  0  0  0
  -31.2408  -32.2611   15.0383 C   0  0  0  0  0  0  0  0  0  0  0  0
  -23.0908   -9.9821   19.8594 C   0  0  0  0  0  0  0  0  0  0  0  0
  -24.1301   -9.6019   22.0070 C   0  0  0  0  0  0  0  0  0  0  0  0
  -32.1979  -34.2618   15.9853 C   0  0  0  0  0  0  0  0  0  0  0  0
  -30.9452  -31.7991   16.3203 C   0  0  0  0  0  0  0  0  0  0  0  0
  -26.0861  -28.4747   18.0064 C   0  0  0  0  0  0  0  0  0  0  0  0
  -22.4337   -8.7559   19.9602 C   0  0  0  0  0  0  0  0  0  0  0  0
  -23.4730   -8.3756   22.1078 C   0  0  0  0  0  0  0  0  0  0  0  0
  -25.9135  -27.1080   18.2213 C   0  0  0  0  0  0  0  0  0  0  0  0
  -20.3823   -7.2659   22.9057 C   0  0  0  0  0  0  0  0  0  0  0  0
  -19.7799   -6.9535   24.1243 C   0  0  0  0  0  0  0  0  0  0  0  0
  -26.2778  -27.4395   20.5828 C   0  0  0  0  0  0  0  0  0  0  0  0
  -21.1849   -4.9975   24.3174 C   0  0  0  0  0  0  0  0  0  0  0  0
  -30.3938  -20.1254   20.2014 C   0  0  0  0  0  0  0  0  0  0  0  0
  -23.9390  -10.4051   20.8828 C   0  0  0  0  0  0  0  0  0  0  0  0
  -24.1553  -12.9238   21.2250 C   0  0  0  0  0  0  0  0  0  0  0  0
  -31.8975  -33.8134   17.2812 C   0  0  0  0  0  0  0  0  0  0  0  0
  -26.3671  -29.3338   19.0784 C   0  0  0  0  0  0  0  0  0  0  0  0
  -31.2732  -32.5631   17.4531 C   0  0  0  0  0  0  0  0  0  0  0  0
  -26.4510  -28.8170   20.3792 C   0  0  0  0  0  0  0  0  0  0  0  0
  -22.6248   -7.9526   21.0844 C   0  0  0  0  0  0  0  0  0  0  0  0
  -26.0122  -26.5898   19.5092 C   0  0  0  0  0  0  0  0  0  0  0  0
  -21.3860   -6.4441   22.3928 C   0  0  0  0  0  0  0  0  0  0  0  0
  -20.1812   -5.8193   24.8302 C   0  0  0  0  0  0  0  0  0  0  0  0
  -21.7873   -5.3099   23.0987 C   0  0  0  0  0  0  0  0  0  0  0  0
  -31.0882  -18.9718   20.6676 C   0  0  0  0  0  0  0  0  0  0  0  0
  -24.6185  -11.6715   20.7789 C   0  0  0  0  0  0  0  0  0  0  0  0
  -30.3406  -18.2473   21.5697 C   0  0  0  0  0  0  0  0  0  0  0  0
  -25.1606  -13.7993   20.8945 C   0  0  0  0  0  0  0  0  0  0  0  0
  -29.1417  -20.2384   20.7649 C   0  0  0  0  0  0  0  0  0  0  0  0
  -26.9479  -24.4515   19.6615 C   0  0  0  0  0  0  0  0  0  1  0  0
  -22.9263  -13.2651   21.8798 C   0  0  0  0  0  0  0  0  0  0  0  0
  -26.8993  -23.1279   19.8540 C   0  0  0  0  0  0  0  0  0  0  0  0
  -28.1678  -22.3331   19.7678 C   0  0  0  0  0  0  0  0  0  0  0  0
  -28.7910  -31.2402   19.8493 C   0  0  0  0  0  0  0  0  0  0  0  0
  -26.8190  -32.1216   22.2693 C   0  0  0  0  0  0  0  0  0  0  0  0
  -24.1909  -31.3327   24.2985 C   0  0  0  0  0  0  0  0  0  0  0  0
  -30.5765  -15.1240   20.6528 C   0  0  0  0  0  0  0  0  0  0  0  0
  -32.3167  -34.6592   18.4574 C   0  0  0  0  0  0  0  0  0  0  0  0
  -26.5241  -30.8096   18.8335 C   0  0  0  0  0  0  0  0  0  0  0  0
  -26.7309  -29.7000   21.5668 C   0  0  0  0  0  0  0  0  0  0  0  0
  -31.6314  -34.2678   19.7641 C   0  0  0  0  0  0  0  0  0  0  0  0
  -29.2524  -13.1685   17.9883 C   0  0  0  0  0  0  0  0  0  0  0  0
  -31.6681  -32.7547   19.9538 C   0  0  0  0  0  0  0  0  0  0  0  0
  -27.8941  -12.7032   18.5160 C   0  0  0  0  0  0  0  0  0  0  0  0
  -30.3021  -13.2164   19.0964 C   0  0  0  0  0  0  0  0  0  0  0  0
  -28.5590  -13.5423   20.8079 C   0  0  0  0  0  0  0  0  0  0  0  0
  -30.9140  -32.0390   18.8266 C   0  0  1  0  0  0  0  0  0  0  0  0
  -27.3162  -31.5162   19.9293 C   0  0  1  0  0  0  0  0  0  0  0  0
  -27.4537  -13.5315   19.7381 C   0  0  2  0  0  0  0  0  0  0  0  0
  -22.8335  -32.2376   26.2053 C   0  0  0  0  0  0  0  0  0  0  0  0
  -29.0984  -31.4793   24.1935 C   0  0  0  0  0  0  0  0  0  0  0  0
  -27.4297  -31.4787   26.0599 C   0  0  0  0  0  0  0  0  0  0  0  0
  -27.8244  -33.5601   24.7429 C   0  0  0  0  0  0  0  0  0  0  0  0
  -21.6997  -31.2813   22.7016 C   0  0  0  0  0  0  0  0  0  0  0  0
  -30.7047  -16.9988   22.2739 C   0  0  0  0  0  0  0  0  0  0  0  0
  -26.5734  -31.6382   23.6782 C   0  0  1  0  0  0  0  0  0  0  0  0
  -22.9529  -32.1171   24.6940 C   0  0  2  0  0  0  0  0  0  0  0  0
  -27.7281  -32.0219   24.6462 C   0  0  0  0  0  0  0  0  0  0  0  0
  -25.8241  -11.7410   20.2083 N   0  0  0  0  0  0  0  0  0  0  0  0
  -26.1270  -13.0475   20.2936 N   0  0  0  0  0  0  0  0  0  0  0  0
  -26.8829  -31.1350   21.2751 N   0  0  0  0  0  0  0  0  0  0  0  0
  -29.8232  -14.0184   20.2249 N   0  0  0  0  0  0  0  0  0  0  0  0
  -25.3034  -15.1312   21.0621 N   0  0  0  0  0  0  0  0  0  0  0  0
  -22.0040  -12.2435   22.1443 N   0  0  0  0  0  0  0  0  0  0  0  0
  -28.1311  -21.2140   20.5883 N   0  0  0  0  0  0  0  0  0  0  0  0
  -29.4853  -32.1214   19.0425 N   0  0  0  0  0  0  0  0  0  0  0  0
  -25.2685  -32.1615   24.0677 N   0  0  0  0  0  0  0  0  0  0  0  0
  -30.0482  -15.8335   21.7243 N   0  0  0  0  0  0  0  0  0  0  0  0
  -21.7270  -31.4449   24.1779 N   0  3  0  0  0  0  0  0  0  0  0  0
  -22.6468  -14.4439   22.2054 O   0  0  0  0  0  0  0  0  0  0  0  0
  -29.0862  -22.6896   19.0376 O   0  0  0  0  0  0  0  0  0  0  0  0
  -29.2643  -30.2985   20.4744 O   0  0  0  0  0  0  0  0  0  0  0  0
  -26.9423  -33.3306   22.0577 O   0  0  0  0  0  0  0  0  0  0  0  0
  -24.2020  -30.1071   24.2072 O   0  0  0  0  0  0  0  0  0  0  0  0
  -31.6385  -15.4574   20.1160 O   0  0  0  0  0  0  0  0  0  0  0  0
  -25.7233  -22.4610   20.1315 O   0  0  0  0  0  0  0  0  0  0  0  0
  -21.9836   -6.7561   21.1832 O   0  0  0  0  0  0  0  0  0  0  0  0
  -25.8448  -25.2561   19.7217 O   0  0  0  0  0  0  0  0  0  1  0  0
  -19.6037   -5.5202   26.0012 F   0  0  0  0  0  0  0  0  0  0  0  0
  -22.7519   -4.5173   22.6117 F   0  0  0  0  0  0  0  0  0  0  0  0
  -32.3181  -18.6359   20.2736 F   0  0  0  0  0  0  0  0  0  0  0  0
  -28.8081  -18.9575   21.8512 S   0  0  0  0  0  0  0  0  0  0  0  0
  1  2  1  0  0  0  0
  1  5  2  0  0  0  0
  2  6  2  0  0  0  0
  3  8  2  0  0  0  0
  3 16  1  0  0  0  0
  4  9  1  0  0  0  0
  4 16  2  0  0  0  0
  5 18  1  0  0  0  0
  6 20  1  0  0  0  0
  7 10  2  0  0  0  0
  7 19  1  0  0  0  0
  8 22  1  0  0  0  0
  9 22  2  0  0  0  0
 10 23  1  0  0  0  0
 11 12  2  0  0  0  0
 11 24  1  0  0  0  0
 12 25  1  0  0  0  0
 13 21  1  0  0  0  0
 13 23  2  0  0  0  0
 14 25  2  0  0  0  0
 14 26  1  0  0  0  0
 15 27  1  0  0  0  0
 15 31  2  0  0  0  0
 16 28  1  0  0  0  0
 17 28  1  0  0  0  0
 17 30  2  0  0  0  0
 17 33  1  0  0  0  0
 18 20  2  0  0  0  0
 18 40  1  0  0  0  0
 19 21  2  0  0  0  0
 19 41  1  0  0  0  0
 20 49  1  0  0  0  0
 21 42  1  0  0  0  0
 22 79  1  0  0  0  0
 23 80  1  0  0  0  0
 24 26  2  0  0  0  0
 24 79  1  0  0  0  0
 25 81  1  0  0  0  0
 26 82  1  0  0  0  0
 27 29  2  0  0  0  0
 27 83  1  0  0  0  0
 28 61  2  0  0  0  0
 29 57  1  0  0  0  0
 29 84  1  0  0  0  0
 30 62  1  0  0  0  0
 30 65  1  0  0  0  0
 31 67  1  0  0  0  0
 31 84  1  0  0  0  0
 32 34  2  0  0  0  0
 32 80  1  0  0  0  0
 33 66  1  0  0  0  0
 33 72  2  0  0  0  0
 34 35  1  0  0  0  0
 34 78  1  0  0  0  0
 35 67  1  0  0  0  0
 35 73  2  0  0  0  0
 36 50  1  0  0  0  0
 36 68  1  0  0  0  0
 36 74  2  0  0  0  0
 37 58  1  0  0  0  0
 37 63  1  0  0  0  0
 37 75  2  0  0  0  0
 38 59  1  0  0  0  0
 38 69  1  0  0  0  0
 38 76  2  0  0  0  0
 39 64  1  0  0  0  0
 39 70  1  0  0  0  0
 39 77  2  0  0  0  0
 40 43  1  0  0  0  0
 41 50  1  0  0  0  0
 42 63  1  0  0  0  0
 43 45  1  0  0  0  0
 44 46  1  0  0  0  0
 44 47  1  0  0  0  0
 45 49  1  0  0  0  0
 46 51  1  0  0  0  0
 47 64  1  0  0  0  0
 48 51  1  0  0  0  0
 48 64  1  0  0  0  0
 49 68  1  0  0  0  0
 50 63  1  0  0  0  0
 51 62  1  0  0  0  0
 52 59  1  0  0  0  0
 53 60  1  0  0  0  0
 54 60  1  0  0  0  0
 55 60  1  0  0  0  0
 56 71  1  0  0  0  0
 57 70  1  0  0  0  0
 58 60  1  0  0  0  0
 58 69  1  0  0  0  0
 59 71  1  0  0  0  0
 61 62  1  0  0  0  0
M  CHG  1  71   1
M  ISO  4  32 101  39 100  70 100  80 101
M  END
> <Batch ID>
0176

> <Smiles>
CNC(C)C(=O)NC(C(=O)N1Cc2cc([101O:1][101CH2:1]C(=O)C(=O)Nc3cc(F)c(C[100NH:0][100C:0](=O)N4CCCC(n5nc(-c6ccc(Oc7ccc(F)cc7F)cc6)c(C(N)=O)c5N)C4)s3)ccc2CC1C(=O)NC1CCCc2ccccc21)C(C)(C)C

> <Shape>
0.323

> <Color>
0.180

> <Negative vol penalty>
0.000

$$$$

  -OEChem-04052304383D

 88 96  0     1  0  0  0  0  0999 V2000
  -26.1789  -34.5214   26.0332 C   0  0  0  0  0  0  0  0  0  0  0  0
  -26.7346  -34.4250   24.7614 C   0  0  0  0  0  0  0  0  0  0  0  0
  -24.6226   -9.7958   21.7206 C   0  0  0  0  0  0  0  0  0  0  0  0
  -24.7709  -11.0486   23.7811 C   0  0  0  0  0  0  0  0  0  0  0  0
  -26.0022  -33.3733   26.8043 C   0  0  0  0  0  0  0  0  0  0  0  0
  -27.1150  -33.1805   24.2605 C   0  0  0  0  0  0  0  0  0  0  0  0
  -27.5520  -29.5347   18.1096 C   0  0  0  0  0  0  0  0  0  0  0  0
  -24.3299   -8.6400   22.4444 C   0  0  0  0  0  0  0  0  0  0  0  0
  -24.4781   -9.8927   24.5049 C   0  0  0  0  0  0  0  0  0  0  0  0
  -28.4643  -28.7948   17.3586 C   0  0  0  0  0  0  0  0  0  0  0  0
  -23.1880   -5.4364   23.7283 C   0  0  0  0  0  0  0  0  0  0  0  0
  -22.1473   -4.6295   23.2686 C   0  0  0  0  0  0  0  0  0  0  0  0
  -28.0386  -26.8700   18.7490 C   0  0  0  0  0  0  0  0  0  0  0  0
  -20.6051   -6.4712   23.5274 C   0  0  0  0  0  0  0  0  0  0  0  0
  -24.8432  -11.0002   22.3890 C   0  0  0  0  0  0  0  0  0  0  0  0
  -24.2300  -13.1358   21.1356 C   0  0  0  0  0  0  0  0  0  0  0  0
  -26.3717  -32.1129   26.3087 C   0  0  0  0  0  0  0  0  0  0  0  0
  -26.8831  -28.9500   19.1945 C   0  0  0  0  0  0  0  0  0  0  0  0
  -26.9443  -32.0146   25.0262 C   0  0  0  0  0  0  0  0  0  0  0  0
  -27.1164  -27.6039   19.5106 C   0  0  0  0  0  0  0  0  0  0  0  0
  -24.2576   -8.6884   23.8365 C   0  0  0  0  0  0  0  0  0  0  0  0
  -28.7099  -27.4631   17.6800 C   0  0  0  0  0  0  0  0  0  0  0  0
  -22.9373   -6.7607   24.0877 C   0  0  0  0  0  0  0  0  0  0  0  0
  -20.8558   -5.1469   23.1681 C   0  0  0  0  0  0  0  0  0  0  0  0
  -21.6458   -7.2781   23.9872 C   0  0  0  0  0  0  0  0  0  0  0  0
  -25.1461  -12.1944   21.6419 C   0  0  0  0  0  0  0  0  0  0  0  0
  -27.0953  -20.2854   20.7886 C   0  0  0  0  0  0  0  0  0  0  0  0
  -28.2388  -19.5747   20.4898 C   0  0  0  0  0  0  0  0  0  0  0  0
  -25.0130  -14.0746   20.5095 C   0  0  0  0  0  0  0  0  0  0  0  0
  -28.9373  -21.5755   19.9254 C   0  0  0  0  0  0  0  0  0  0  0  0
  -22.7991  -13.1596   21.2236 C   0  0  0  0  0  0  0  0  0  0  0  0
  -31.4969  -23.9882   18.5885 C   0  0  0  0  0  0  0  0  0  0  0  0
  -31.0101  -22.6336   19.0161 C   0  0  0  0  0  0  0  0  0  0  0  0
  -26.7729  -29.5014   22.3230 C   0  0  0  0  0  0  0  0  0  0  0  0
  -24.4783  -27.2097   22.2516 C   0  0  0  0  0  0  0  0  0  0  0  0
  -23.1342  -24.5041   20.6642 C   0  0  0  0  0  0  0  0  0  0  0  0
  -29.4859  -17.3883   20.3867 C   0  0  0  0  0  0  0  0  0  0  0  0
  -26.2050  -30.9060   27.1977 C   0  0  0  0  0  0  0  0  0  0  0  0
  -25.8821  -29.7540   19.9781 C   0  0  0  0  0  0  0  0  0  0  0  0
  -26.4091  -26.9235   20.6531 C   0  0  0  0  0  0  0  0  0  0  0  0
  -26.2885  -29.5798   26.4462 C   0  0  0  0  0  0  0  0  0  0  0  0
  -29.9403  -14.0119   19.3520 C   0  0  0  0  0  0  0  0  0  0  0  0
  -27.4824  -29.5785   25.4968 C   0  0  0  0  0  0  0  0  0  0  0  0
  -28.6582  -13.3155   19.8139 C   0  0  0  0  0  0  0  0  0  0  0  0
  -30.3974  -15.0768   20.3473 C   0  0  0  0  0  0  0  0  0  0  0  0
  -28.0941  -15.3721   21.1700 C   0  0  0  0  0  0  0  0  0  0  0  0
  -27.3466  -30.6795   24.4381 C   0  0  1  0  0  0  0  0  0  0  0  0
  -25.6409  -29.2045   21.3807 C   0  0  1  0  0  0  0  0  0  0  0  0
  -27.5588  -14.3360   20.1681 C   0  0  2  0  0  0  0  0  0  0  0  0
  -21.2845  -22.8202   20.8655 C   0  0  0  0  0  0  0  0  0  0  0  0
  -31.9947  -26.7854   17.0430 C   0  0  0  0  0  0  0  0  0  0  0  0
  -26.0528  -25.7423   24.4145 C   0  0  0  0  0  0  0  0  0  0  0  0
  -24.7171  -23.6892   23.8959 C   0  0  0  0  0  0  0  0  0  0  0  0
  -23.5737  -25.7375   24.7442 C   0  0  0  0  0  0  0  0  0  0  0  0
  -21.9100  -25.3717   18.1132 C   0  0  0  0  0  0  0  0  0  0  0  0
  -30.6990  -24.6771   17.5021 C   0  0  0  0  0  0  0  0  0  0  0  0
  -24.4654  -25.7055   22.3786 C   0  0  1  0  0  0  0  0  0  0  0  0
  -21.7028  -24.1642   20.2899 C   0  0  2  0  0  0  0  0  0  0  0  0
  -30.7240  -26.1990   17.6436 C   0  0  2  0  0  0  0  0  0  1  0  0
  -25.7980  -19.8263   21.3255 C   0  0  0  0  0  0  0  0  0  0  0  0
  -24.7172  -25.2317   23.8379 C   0  0  0  0  0  0  0  0  0  0  0  0
  -26.4142  -12.5065   21.3614 N   0  0  0  0  0  0  0  0  0  0  0  0
  -29.2960  -20.3127   19.9943 N   0  0  0  0  0  0  0  0  0  0  0  0
  -26.3004  -13.6546   20.6721 N   0  0  0  0  0  0  0  0  0  0  0  0
  -25.4443  -27.7535   21.3932 N   0  0  0  0  0  0  0  0  0  0  0  0
  -29.3056  -16.0105   20.6320 N   0  0  0  0  0  0  0  0  0  0  0  0
  -24.7191  -15.2100   19.8412 N   0  0  0  0  0  0  0  0  0  0  0  0
  -22.1541  -12.1171   21.9030 N   0  0  0  0  0  0  0  0  0  0  0  0
  -28.3682  -18.1745   20.6643 N   0  0  0  0  0  0  0  0  0  0  0  0
  -29.7115  -22.6707   19.4762 N   0  0  0  0  0  0  0  0  0  0  0  0
  -26.4129  -30.2778   23.4080 N   0  0  0  0  0  0  0  0  0  0  0  0
  -23.1953  -25.2593   21.8163 N   0  0  0  0  0  0  0  0  0  0  0  0
  -21.5544  -24.1077   18.8081 N   0  3  0  0  0  0  0  0  0  0  0  0
  -22.1119  -14.0695   20.7007 O   0  0  0  0  0  0  0  0  0  0  0  0
  -32.4873  -24.4298   19.1510 O   0  0  0  0  0  0  0  0  0  0  0  0
  -31.7902  -21.7055   18.8814 O   0  0  0  0  0  0  0  0  0  0  0  0
  -27.8900  -29.0577   22.0843 O   0  0  0  0  0  0  0  0  0  0  0  0
  -23.6568  -27.8771   22.8851 O   0  0  0  0  0  0  0  0  0  0  0  0
  -24.1016  -24.1333   20.0030 O   0  0  0  0  0  0  0  0  0  0  0  0
  -30.5443  -17.8341   19.9360 O   0  0  0  0  0  0  0  0  0  0  0  0
  -23.9718   -7.5608   24.5431 O   0  0  0  0  0  0  0  0  0  0  0  0
  -29.6004  -26.7388   16.9490 O   0  0  0  0  0  0  0  0  0  1  0  0
  -19.8568   -4.3724   22.7252 F   0  0  0  0  0  0  0  0  0  0  0  0
  -21.3991   -8.5499   24.3298 F   0  0  0  0  0  0  0  0  0  0  0  0
  -25.7332  -18.4763   21.5599 F   0  0  0  0  0  0  0  0  0  0  0  0
  -25.4520  -20.3993   22.5227 F   0  0  0  0  0  0  0  0  0  0  0  0
  -24.7445  -20.0906   20.4898 F   0  0  0  0  0  0  0  0  0  0  0  0
  -27.3430  -21.9465   20.4407 S   0  0  0  0  0  0  0  0  0  0  0  0
  1  2  1  0  0  0  0
  1  5  2  0  0  0  0
  2  6  2  0  0  0  0
  3  8  2  0  0  0  0
  3 15  1  0  0  0  0
  4  9  1  0  0  0  0
  4 15  2  0  0  0  0
  5 17  1  0  0  0  0
  6 19  1  0  0  0  0
  7 10  2  0  0  0  0
  7 18  1  0  0  0  0
  8 21  1  0  0  0  0
  9 21  2  0  0  0  0
 10 22  1  0  0  0  0
 11 12  2  0  0  0  0
 11 23  1  0  0  0  0
 12 24  1  0  0  0  0
 13 20  1  0  0  0  0
 13 22  2  0  0  0  0
 14 24  2  0  0  0  0
 14 25  1  0  0  0  0
 15 26  1  0  0  0  0
 16 26  1  0  0  0  0
 16 29  2  0  0  0  0
 16 31  1  0  0  0  0
 17 19  2  0  0  0  0
 17 38  1  0  0  0  0
 18 20  2  0  0  0  0
 18 39  1  0  0  0  0
 19 47  1  0  0  0  0
 20 40  1  0  0  0  0
 21 81  1  0  0  0  0
 22 82  1  0  0  0  0
 23 25  2  0  0  0  0
 23 81  1  0  0  0  0
 24 83  1  0  0  0  0
 25 84  1  0  0  0  0
 26 62  2  0  0  0  0
 27 28  2  0  0  0  0
 27 60  1  0  0  0  0
 27 88  1  0  0  0  0
 28 63  1  0  0  0  0
 28 69  1  0  0  0  0
 29 64  1  0  0  0  0
 29 67  1  0  0  0  0
 30 63  2  0  0  0  0
 30 70  1  0  0  0  0
 30 88  1  0  0  0  0
 31 68  1  0  0  0  0
 31 74  2  0  0  0  0
 32 33  1  0  0  0  0
 32 56  1  0  0  0  0
 32 75  2  0  0  0  0
 33 70  1  0  0  0  0
 33 76  2  0  0  0  0
 34 48  1  0  0  0  0
 34 71  1  0  0  0  0
 34 77  2  0  0  0  0
 35 57  1  0  0  0  0
 35 65  1  0  0  0  0
 35 78  2  0  0  0  0
 36 58  1  0  0  0  0
 36 72  1  0  0  0  0
 36 79  2  0  0  0  0
 37 66  1  0  0  0  0
 37 69  1  0  0  0  0
 37 80  2  0  0  0  0
 38 41  1  0  0  0  0
 39 48  1  0  0  0  0
 40 65  1  0  0  0  0
 41 43  1  0  0  0  0
 42 44  1  0  0  0  0
 42 45  1  0  0  0  0
 43 47  1  0  0  0  0
 44 49  1  0  0  0  0
 45 66  1  0  0  0  0
 46 49  1  0  0  0  0
 46 66  1  0  0  0  0
 47 71  1  0  0  0  0
 48 65  1  0  0  0  0
 49 64  1  0  0  0  0
 50 58  1  0  0  0  0
 51 59  1  0  0  0  0
 52 61  1  0  0  0  0
 53 61  1  0  0  0  0
 54 61  1  0  0  0  0
 55 73  1  0  0  0  0
 56 59  1  0  0  0  0
 57 61  1  0  0  0  0
 57 72  1  0  0  0  0
 58 73  1  0  0  0  0
 59 82  1  0  0  0  0
 60 85  1  0  0  0  0
 60 86  1  0  0  0  0
 60 87  1  0  0  0  0
 62 64  1  0  0  0  0
M  CHG  1  73   1
M  ISO  4  37 100  59 101  69 100  82 101
M  END
> <Batch ID>
0176

> <Smiles>
CNC(C)C(=O)NC(C(=O)N1Cc2cc([101O:1][101CH:1](C)CC(=O)C(=O)Nc3nc([100NH:0][100C:0](=O)N4CCCC(n5nc(-c6ccc(Oc7ccc(F)cc7F)cc6)c(C(N)=O)c5N)C4)c(C(F)(F)F)s3)ccc2CC1C(=O)NC1CCCc2ccccc21)C(C)(C)C

> <Shape>
0.288

> <Color>
0.134

> <Negative vol penalty>
0.000

$$$$

  -OEChem-04052304383D

 86 94  0     1  0  0  0  0  0999 V2000
  -17.5136  -25.2648   29.3940 C   0  0  0  0  0  0  0  0  0  0  0  0
  -18.5463  -24.5306   28.8197 C   0  0  0  0  0  0  0  0  0  0  0  0
  -23.0487   -9.7814   19.9770 C   0  0  0  0  0  0  0  0  0  0  0  0
  -23.7009   -9.9359   22.2982 C   0  0  0  0  0  0  0  0  0  0  0  0
  -17.0327  -26.4069   28.7550 C   0  0  0  0  0  0  0  0  0  0  0  0
  -19.0980  -24.9375   27.6054 C   0  0  0  0  0  0  0  0  0  0  0  0
  -24.1588  -24.7557   27.6127 C   0  0  0  0  0  0  0  0  0  0  0  0
  -22.2907   -8.6466   20.2655 C   0  0  0  0  0  0  0  0  0  0  0  0
  -22.9429   -8.8011   22.5867 C   0  0  0  0  0  0  0  0  0  0  0  0
  -24.7512  -23.5036   27.4541 C   0  0  0  0  0  0  0  0  0  0  0  0
  -23.2501   -5.4502   22.2580 C   0  0  0  0  0  0  0  0  0  0  0  0
  -23.8286   -4.4733   23.0682 C   0  0  0  0  0  0  0  0  0  0  0  0
  -25.1407  -23.9899   25.1236 C   0  0  0  0  0  0  0  0  0  0  0  0
  -31.6484  -18.5269   24.0882 C   0  0  0  0  0  0  0  0  0  0  0  0
  -31.9240  -16.6750   22.5613 C   0  0  0  0  0  0  0  0  0  0  0  0
  -22.0500   -4.7559   24.6788 C   0  0  0  0  0  0  0  0  0  0  0  0
  -23.7538  -10.4261   20.9934 C   0  0  0  0  0  0  0  0  0  0  0  0
  -24.1080  -12.9383   20.7275 C   0  0  0  0  0  0  0  0  0  0  0  0
  -17.5853  -26.8334   27.5371 C   0  0  0  0  0  0  0  0  0  0  0  0
  -24.0429  -25.6314   26.5236 C   0  0  0  0  0  0  0  0  0  0  0  0
  -18.6231  -26.0856   26.9488 C   0  0  0  0  0  0  0  0  0  0  0  0
  -24.5488  -25.2536   25.2717 C   0  0  0  0  0  0  0  0  0  0  0  0
  -30.2710  -18.5019   23.8699 C   0  0  0  0  0  0  0  0  0  0  0  0
  -30.5466  -16.6500   22.3430 C   0  0  0  0  0  0  0  0  0  0  0  0
  -22.2378   -8.1564   21.5703 C   0  0  0  0  0  0  0  0  0  0  0  0
  -25.2397  -23.1194   26.2087 C   0  0  0  0  0  0  0  0  0  0  0  0
  -22.0716   -6.0801   22.6582 C   0  0  0  0  0  0  0  0  0  0  0  0
  -23.2285   -4.1261   24.2786 C   0  0  0  0  0  0  0  0  0  0  0  0
  -32.4750  -17.6135   23.4338 C   0  0  0  0  0  0  0  0  0  0  0  0
  -21.4715   -5.7329   23.8686 C   0  0  0  0  0  0  0  0  0  0  0  0
  -29.7201  -17.5635   22.9974 C   0  0  0  0  0  0  0  0  0  0  0  0
  -24.5374  -11.5980   20.6959 C   0  0  0  0  0  0  0  0  0  0  0  0
  -25.2180  -13.6631   20.3682 C   0  0  0  0  0  0  0  0  0  0  0  0
  -22.8209  -13.4798   21.0527 C   0  0  0  0  0  0  0  0  0  0  0  0
  -28.6624  -21.2117   25.9259 C   0  0  0  0  0  0  0  0  0  0  0  0
  -29.8278  -20.4148   25.4149 C   0  0  0  0  0  0  0  0  0  0  0  0
  -21.6139  -26.9625   24.9642 C   0  0  0  0  0  0  0  0  0  0  0  0
  -23.9835  -28.5537   23.4229 C   0  0  0  0  0  0  0  0  0  0  0  0
  -27.2553  -28.6523   22.4573 C   0  0  0  0  0  0  0  0  0  0  0  0
  -30.6731  -14.7187   20.7304 C   0  0  0  0  0  0  0  0  0  0  0  0
  -17.0004  -28.0477   26.8602 C   0  0  0  0  0  0  0  0  0  0  0  0
  -23.4254  -26.9892   26.7174 C   0  0  0  0  0  0  0  0  0  0  0  0
  -24.4671  -26.1650   24.0754 C   0  0  0  0  0  0  0  0  0  0  0  0
  -17.8924  -28.6221   25.7627 C   0  0  0  0  0  0  0  0  0  0  0  0
  -29.6634  -12.1575   18.4725 C   0  0  0  0  0  0  0  0  0  0  0  0
  -18.4089  -27.5085   24.8571 C   0  0  0  0  0  0  0  0  0  0  0  0
  -28.2045  -11.8939   18.8523 C   0  0  0  0  0  0  0  0  0  0  0  0
  -30.5222  -12.4632   19.6984 C   0  0  0  0  0  0  0  0  0  0  0  0
  -28.5550  -13.2746   20.9398 C   0  0  0  0  0  0  0  0  0  0  0  0
  -19.2641  -26.5088   25.6450 C   0  0  1  0  0  0  0  0  0  0  0  0
  -22.8975  -27.5960   25.4211 C   0  0  1  0  0  0  0  0  0  0  0  0
  -27.6376  -13.0259   19.7314 C   0  0  2  0  0  0  0  0  0  0  0  0
  -28.8893  -30.0612   21.1757 C   0  0  0  0  0  0  0  0  0  0  0  0
  -22.7562  -27.5881   20.8015 C   0  0  0  0  0  0  0  0  0  0  0  0
  -24.8979  -28.1954   19.6559 C   0  0  0  0  0  0  0  0  0  0  0  0
  -23.5391  -29.9632   20.7745 C   0  0  0  0  0  0  0  0  0  0  0  0
  -28.9698  -29.0363   24.8389 C   0  0  0  0  0  0  0  0  0  0  0  0
  -27.6213  -20.4485   26.7150 C   0  0  0  0  0  0  0  0  0  0  0  0
  -26.4840  -21.3431   27.1845 C   0  0  0  0  0  0  0  0  0  1  0  0
  -24.8144  -28.2999   22.1883 C   0  0  1  0  0  0  0  0  0  0  0  0
  -28.2979  -29.7525   22.5423 C   0  0  2  0  0  0  0  0  0  0  0  0
  -24.0019  -28.4935   20.8770 C   0  0  0  0  0  0  0  0  0  0  0  0
  -25.8201  -11.4757   20.3441 N   0  0  0  0  0  0  0  0  0  0  0  0
  -26.2062  -12.7485   20.1513 N   0  0  0  0  0  0  0  0  0  0  0  0
  -23.8489  -27.4797   24.3141 N   0  0  0  0  0  0  0  0  0  0  0  0
  -29.9258  -13.5482   20.4807 N   0  0  0  0  0  0  0  0  0  0  0  0
  -25.4354  -14.9872   20.2198 N   0  0  0  0  0  0  0  0  0  0  0  0
  -21.7918  -12.5940   21.4001 N   0  0  0  0  0  0  0  0  0  0  0  0
  -29.4355  -19.4293   24.5350 N   0  0  0  0  0  0  0  0  0  0  0  0
  -29.9909  -15.6944   21.4566 N   0  0  0  0  0  0  0  0  0  0  0  0
  -20.5850  -27.0506   25.8823 N   0  0  0  0  0  0  0  0  0  0  0  0
  -25.9847  -29.1640   22.2992 N   0  0  0  0  0  0  0  0  0  0  0  0
  -29.4056  -29.3471   23.4531 N   0  3  0  0  0  0  0  0  0  0  0  0
  -22.5857  -14.7115   21.0198 O   0  0  0  0  0  0  0  0  0  0  0  0
  -28.6502  -22.4077   25.6769 O   0  0  0  0  0  0  0  0  0  0  0  0
  -30.9326  -20.7480   25.8101 O   0  0  0  0  0  0  0  0  0  0  0  0
  -21.5606  -26.4342   23.8598 O   0  0  0  0  0  0  0  0  0  0  0  0
  -23.4786  -29.6661   23.5939 O   0  0  0  0  0  0  0  0  0  0  0  0
  -27.5400  -27.4584   22.5208 O   0  0  0  0  0  0  0  0  0  0  0  0
  -31.8232  -14.8572   20.3061 O   0  0  0  0  0  0  0  0  0  0  0  0
  -21.4981   -7.0492   21.8523 O   0  0  0  0  0  0  0  0  0  0  0  0
  -25.8178  -21.8976   26.0510 O   0  0  0  0  0  0  0  0  0  1  0  0
  -23.7833   -3.1868   25.0559 F   0  0  0  0  0  0  0  0  0  0  0  0
  -33.7978  -17.6371   23.6437 F   0  0  0  0  0  0  0  0  0  0  0  0
  -20.3387   -6.3337   24.2578 F   0  0  0  0  0  0  0  0  0  0  0  0
  -28.3946  -17.5383   22.7882 F   0  0  0  0  0  0  0  0  0  0  0  0
  1  2  1  0  0  0  0
  1  5  2  0  0  0  0
  2  6  2  0  0  0  0
  3  8  2  0  0  0  0
  3 17  1  0  0  0  0
  4  9  1  0  0  0  0
  4 17  2  0  0  0  0
  5 19  1  0  0  0  0
  6 21  1  0  0  0  0
  7 10  2  0  0  0  0
  7 20  1  0  0  0  0
  8 25  1  0  0  0  0
  9 25  2  0  0  0  0
 10 26  1  0  0  0  0
 11 12  2  0  0  0  0
 11 27  1  0  0  0  0
 12 28  1  0  0  0  0
 13 22  1  0  0  0  0
 13 26  2  0  0  0  0
 14 23  1  0  0  0  0
 14 29  2  0  0  0  0
 15 24  2  0  0  0  0
 15 29  1  0  0  0  0
 16 28  2  0  0  0  0
 16 30  1  0  0  0  0
 17 32  1  0  0  0  0
 18 32  1  0  0  0  0
 18 33  2  0  0  0  0
 18 34  1  0  0  0  0
 19 21  2  0  0  0  0
 19 41  1  0  0  0  0
 20 22  2  0  0  0  0
 20 42  1  0  0  0  0
 21 50  1  0  0  0  0
 22 43  1  0  0  0  0
 23 31  2  0  0  0  0
 23 69  1  0  0  0  0
 24 31  1  0  0  0  0
 24 70  1  0  0  0  0
 25 81  1  0  0  0  0
 26 82  1  0  0  0  0
 27 30  2  0  0  0  0
 27 81  1  0  0  0  0
 28 83  1  0  0  0  0
 29 84  1  0  0  0  0
 30 85  1  0  0  0  0
 31 86  1  0  0  0  0
 32 63  2  0  0  0  0
 33 64  1  0  0  0  0
 33 67  1  0  0  0  0
 34 68  1  0  0  0  0
 34 74  2  0  0  0  0
 35 36  1  0  0  0  0
 35 58  1  0  0  0  0
 35 75  2  0  0  0  0
 36 69  1  0  0  0  0
 36 76  2  0  0  0  0
 37 51  1  0  0  0  0
 37 71  1  0  0  0  0
 37 77  2  0  0  0  0
 38 60  1  0  0  0  0
 38 65  1  0  0  0  0
 38 78  2  0  0  0  0
 39 61  1  0  0  0  0
 39 72  1  0  0  0  0
 39 79  2  0  0  0  0
 40 66  1  0  0  0  0
 40 70  1  0  0  0  0
 40 80  2  0  0  0  0
 41 44  1  0  0  0  0
 42 51  1  0  0  0  0
 43 65  1  0  0  0  0
 44 46  1  0  0  0  0
 45 47  1  0  0  0  0
 45 48  1  0  0  0  0
 46 50  1  0  0  0  0
 47 52  1  0  0  0  0
 48 66  1  0  0  0  0
 49 52  1  0  0  0  0
 49 66  1  0  0  0  0
 50 71  1  0  0  0  0
 51 65  1  0  0  0  0
 52 64  1  0  0  0  0
 53 61  1  0  0  0  0
 54 62  1  0  0  0  0
 55 62  1  0  0  0  0
 56 62  1  0  0  0  0
 57 73  1  0  0  0  0
 58 59  1  0  0  0  0
 59 82  1  0  0  0  0
 60 62  1  0  0  0  0
 60 72  1  0  0  0  0
 61 73  1  0  0  0  0
 63 64  1  0  0  0  0
M  CHG  1  73   1
M  ISO  4  40 100  59 101  70 100  82 101
M  END
> <Batch ID>
0176

> <Smiles>
CNC(C)C(=O)NC(C(=O)N1Cc2cc([101O:1][101CH2:1]CC(=O)C(=O)Nc3cc(F)cc([100NH:0][100C:0](=O)N4CCCC(n5nc(-c6ccc(Oc7ccc(F)cc7F)cc6)c(C(N)=O)c5N)C4)c3F)ccc2CC1C(=O)NC1CCCc2ccccc21)C(C)(C)C

> <Shape>
0.227

> <Color>
0.202

> <Negative vol penalty>
0.000

$$$$

  -OEChem-04052304383D

 85 93  0     1  0  0  0  0  0999 V2000
  -28.9930  -34.0454   27.8567 C   0  0  0  0  0  0  0  0  0  0  0  0
  -28.4879  -32.8256   27.4181 C   0  0  0  0  0  0  0  0  0  0  0  0
  -24.0691   -9.5847   21.5825 C   0  0  0  0  0  0  0  0  0  0  0  0
  -24.6026  -10.7760   23.6156 C   0  0  0  0  0  0  0  0  0  0  0  0
  -28.2993  -35.2240   27.5854 C   0  0  0  0  0  0  0  0  0  0  0  0
  -27.2881  -32.7836   26.7088 C   0  0  0  0  0  0  0  0  0  0  0  0
  -27.5289  -29.7484   22.6622 C   0  0  0  0  0  0  0  0  0  0  0  0
  -23.6314   -8.4953   22.3356 C   0  0  0  0  0  0  0  0  0  0  0  0
  -24.1648   -9.6866   24.3687 C   0  0  0  0  0  0  0  0  0  0  0  0
  -27.4345  -28.3761   22.8891 C   0  0  0  0  0  0  0  0  0  0  0  0
  -20.8781   -7.6301   24.0974 C   0  0  0  0  0  0  0  0  0  0  0  0
  -19.6744   -7.0293   23.7293 C   0  0  0  0  0  0  0  0  0  0  0  0
  -25.1105  -28.4357   22.2451 C   0  0  0  0  0  0  0  0  0  0  0  0
  -30.3133  -19.3295   19.5134 C   0  0  0  0  0  0  0  0  0  0  0  0
  -20.8298   -4.9396   23.3615 C   0  0  0  0  0  0  0  0  0  0  0  0
  -24.5547  -10.7251   22.2225 C   0  0  0  0  0  0  0  0  0  0  0  0
  -24.2386  -12.9449   21.0058 C   0  0  0  0  0  0  0  0  0  0  0  0
  -27.0953  -35.1974   26.8640 C   0  0  0  0  0  0  0  0  0  0  0  0
  -26.4101  -30.4779   22.2348 C   0  0  0  0  0  0  0  0  0  0  0  0
  -26.5770  -33.9628   26.4287 C   0  0  0  0  0  0  0  0  0  0  0  0
  -25.1940  -29.8167   22.0110 C   0  0  0  0  0  0  0  0  0  0  0  0
  -30.0147  -20.7220   19.5580 C   0  0  0  0  0  0  0  0  0  0  0  0
  -23.6792   -8.5462   23.7287 C   0  0  0  0  0  0  0  0  0  0  0  0
  -26.2244  -27.7200   22.6834 C   0  0  0  0  0  0  0  0  0  0  0  0
  -22.0578   -6.8858   24.0975 C   0  0  0  0  0  0  0  0  0  0  0  0
  -19.6502   -5.6841   23.3614 C   0  0  0  0  0  0  0  0  0  0  0  0
  -22.0336   -5.5405   23.7296 C   0  0  0  0  0  0  0  0  0  0  0  0
  -25.0075  -11.8505   21.4450 C   0  0  0  0  0  0  0  0  0  0  0  0
  -25.1257  -13.7319   20.3130 C   0  0  0  0  0  0  0  0  0  0  0  0
  -29.2892  -18.5641   20.0261 C   0  0  0  0  0  0  0  0  0  0  0  0
  -28.7735  -20.9678   20.1030 C   0  0  0  0  0  0  0  0  0  0  0  0
  -22.8468  -13.2250   21.2064 C   0  0  0  0  0  0  0  0  0  0  0  0
  -26.4382  -23.7873   20.9962 C   0  0  0  0  0  0  0  0  0  0  0  0
  -25.6435  -24.2316   21.9870 C   0  0  0  0  0  0  0  0  0  0  0  0
  -26.8342  -22.3409   20.9243 C   0  0  0  0  0  0  0  0  0  0  0  0
  -24.7039  -32.8763   23.4347 C   0  0  0  0  0  0  0  0  0  0  0  0
  -23.2243  -32.7520   20.5507 C   0  0  0  0  0  0  0  0  0  0  0  0
  -22.4045  -30.9183   17.7916 C   0  0  0  0  0  0  0  0  0  0  0  0
  -30.0979  -16.1877   19.8132 C   0  0  0  0  0  0  0  0  0  0  0  0
  -26.3570  -36.4926   26.6359 C   0  0  0  0  0  0  0  0  0  0  0  0
  -26.5354  -31.9530   21.9688 C   0  0  0  0  0  0  0  0  0  0  0  0
  -23.9687  -30.5505   21.5329 C   0  0  0  0  0  0  0  0  0  0  0  0
  -25.2841  -36.3996   25.5539 C   0  0  0  0  0  0  0  0  0  0  0  0
  -29.8542  -12.7921   18.7702 C   0  0  0  0  0  0  0  0  0  0  0  0
  -24.4363  -35.1467   25.7490 C   0  0  0  0  0  0  0  0  0  0  0  0
  -28.5083  -12.3345   19.3370 C   0  0  0  0  0  0  0  0  0  0  0  0
  -30.5726  -13.7504   19.7185 C   0  0  0  0  0  0  0  0  0  0  0  0
  -28.4324  -14.4493   20.7185 C   0  0  0  0  0  0  0  0  0  0  0  0
  -25.2913  -33.8788   25.6349 C   0  0  1  0  0  0  0  0  0  0  0  0
  -25.1991  -32.6865   22.0289 C   0  0  1  0  0  0  0  0  0  0  0  0
  -27.6420  -13.5336   19.7697 C   0  0  2  0  0  0  0  0  0  0  0  0
  -30.9392  -21.7743   19.0720 C   0  0  0  0  0  0  0  0  0  0  0  0
  -21.1565  -31.0770   15.6203 C   0  0  0  0  0  0  0  0  0  0  0  0
  -20.5802  -32.5288   22.0570 C   0  0  0  0  0  0  0  0  0  0  0  0
  -19.5146  -31.7477   19.9303 C   0  0  0  0  0  0  0  0  0  0  0  0
  -20.5177  -34.0282   20.0564 C   0  0  0  0  0  0  0  0  0  0  0  0
  -24.8485  -30.3747   16.2135 C   0  0  0  0  0  0  0  0  0  0  0  0
  -25.1862  -25.6572   22.1150 C   0  0  0  0  0  0  0  0  0  1  0  0
  -22.0365  -32.0080   19.9896 C   0  0  1  0  0  0  0  0  0  0  0  0
  -22.5036  -31.2298   16.3092 C   0  0  2  0  0  0  0  0  0  0  0  0
  -20.6847  -32.5644   20.5192 C   0  0  0  0  0  0  0  0  0  0  0  0
  -26.2849  -11.9315   21.0631 N   0  0  0  0  0  0  0  0  0  0  0  0
  -26.3253  -13.0860   20.3765 N   0  0  0  0  0  0  0  0  0  0  0  0
  -24.1400  -31.9930   21.2930 N   0  0  0  0  0  0  0  0  0  0  0  0
  -29.6926  -14.8632   20.0818 N   0  0  0  0  0  0  0  0  0  0  0  0
  -24.9888  -14.9063   19.6616 N   0  0  0  0  0  0  0  0  0  0  0  0
  -22.0805  -12.3108   21.9422 N   0  0  0  0  0  0  0  0  0  0  0  0
  -28.0819  -22.1814   20.3364 N   0  0  0  0  0  0  0  0  0  0  0  0
  -29.1653  -17.1602   20.1726 N   0  0  0  0  0  0  0  0  0  0  0  0
  -25.5716  -33.5815   24.2465 N   0  0  0  0  0  0  0  0  0  0  0  0
  -22.1742  -32.0546   18.5380 N   0  0  0  0  0  0  0  0  0  0  0  0
  -23.4751  -30.3114   15.6507 N   0  3  0  0  0  0  0  0  0  0  0  0
  -22.2953  -14.2473   20.7327 O   0  0  0  0  0  0  0  0  0  0  0  0
  -26.0938  -21.4643   21.3557 O   0  0  0  0  0  0  0  0  0  0  0  0
  -23.6144  -32.4181   23.7585 O   0  0  0  0  0  0  0  0  0  0  0  0
  -23.3391  -33.9606   20.3321 O   0  0  0  0  0  0  0  0  0  0  0  0
  -22.5163  -29.7802   18.2420 O   0  0  0  0  0  0  0  0  0  0  0  0
  -31.1801  -16.4391   19.2770 O   0  0  0  0  0  0  0  0  0  0  0  0
  -26.9061  -24.6421   20.0157 O   0  0  0  0  0  0  0  0  0  0  0  0
  -25.1827  -23.3834   22.9791 O   0  0  0  0  0  0  0  0  0  0  0  0
  -23.2520   -7.4835   24.4640 O   0  0  0  0  0  0  0  0  0  0  0  0
  -26.1293  -26.3806   22.9047 O   0  0  0  0  0  0  0  0  0  1  0  0
  -18.4939   -5.1068   23.0094 F   0  0  0  0  0  0  0  0  0  0  0  0
  -23.1635   -4.8199   23.7289 F   0  0  0  0  0  0  0  0  0  0  0  0
  -27.9743  -19.5234   20.5582 S   0  0  0  0  0  0  0  0  0  0  0  0
  1  2  1  0  0  0  0
  1  5  2  0  0  0  0
  2  6  2  0  0  0  0
  3  8  2  0  0  0  0
  3 16  1  0  0  0  0
  4  9  1  0  0  0  0
  4 16  2  0  0  0  0
  5 18  1  0  0  0  0
  6 20  1  0  0  0  0
  7 10  2  0  0  0  0
  7 19  1  0  0  0  0
  8 23  1  0  0  0  0
  9 23  2  0  0  0  0
 10 24  1  0  0  0  0
 11 12  2  0  0  0  0
 11 25  1  0  0  0  0
 12 26  1  0  0  0  0
 13 21  1  0  0  0  0
 13 24  2  0  0  0  0
 14 22  1  0  0  0  0
 14 30  2  0  0  0  0
 15 26  2  0  0  0  0
 15 27  1  0  0  0  0
 16 28  1  0  0  0  0
 17 28  1  0  0  0  0
 17 29  2  0  0  0  0
 17 32  1  0  0  0  0
 18 20  2  0  0  0  0
 18 40  1  0  0  0  0
 19 21  2  0  0  0  0
 19 41  1  0  0  0  0
 20 49  1  0  0  0  0
 21 42  1  0  0  0  0
 22 31  2  0  0  0  0
 22 52  1  0  0  0  0
 23 81  1  0  0  0  0
 24 82  1  0  0  0  0
 25 27  2  0  0  0  0
 25 81  1  0  0  0  0
 26 83  1  0  0  0  0
 27 84  1  0  0  0  0
 28 62  2  0  0  0  0
 29 63  1  0  0  0  0
 29 66  1  0  0  0  0
 30 69  1  0  0  0  0
 30 85  1  0  0  0  0
 31 68  1  0  0  0  0
 31 85  1  0  0  0  0
 32 67  1  0  0  0  0
 32 73  2  0  0  0  0
 33 34  2  0  0  0  0
 33 35  1  0  0  0  0
 33 79  1  0  0  0  0
 34 58  1  0  0  0  0
 34 80  1  0  0  0  0
 35 68  1  0  0  0  0
 35 74  2  0  0  0  0
 36 50  1  0  0  0  0
 36 70  1  0  0  0  0
 36 75  2  0  0  0  0
 37 59  1  0  0  0  0
 37 64  1  0  0  0  0
 37 76  2  0  0  0  0
 38 60  1  0  0  0  0
 38 71  1  0  0  0  0
 38 77  2  0  0  0  0
 39 65  1  0  0  0  0
 39 69  1  0  0  0  0
 39 78  2  0  0  0  0
 40 43  1  0  0  0  0
 41 50  1  0  0  0  0
 42 64  1  0  0  0  0
 43 45  1  0  0  0  0
 44 46  1  0  0  0  0
 44 47  1  0  0  0  0
 45 49  1  0  0  0  0
 46 51  1  0  0  0  0
 47 65  1  0  0  0  0
 48 51  1  0  0  0  0
 48 65  1  0  0  0  0
 49 70  1  0  0  0  0
 50 64  1  0  0  0  0
 51 63  1  0  0  0  0
 53 60  1  0  0  0  0
 54 61  1  0  0  0  0
 55 61  1  0  0  0  0
 56 61  1  0  0  0  0
 57 72  1  0  0  0  0
 58 82  1  0  0  0  0
 59 61  1  0  0  0  0
 59 71  1  0  0  0  0
 60 72  1  0  0  0  0
 62 63  1  0  0  0  0
M  CHG  1  72   1
M  ISO  4  39 100  58 101  69 100  82 101
M  END
> <Batch ID>
0176

> <Smiles>
CNC(C)C(=O)NC(C(=O)N1Cc2cc([101O:1][101CH2:1]C(O)C(=O)C(=O)Nc3sc([100NH:0][100C:0](=O)N4CCCC(n5nc(-c6ccc(Oc7ccc(F)cc7F)cc6)c(C(N)=O)c5N)C4)cc3C)ccc2CC1C(=O)NC1CCCc2ccccc21)C(C)(C)C

> <Shape>
0.262

> <Color>
0.133

> <Negative vol penalty>
0.000

$$$$

  -OEChem-04052304383D

 85 93  0     1  0  0  0  0  0999 V2000
  -25.2706  -20.8133   28.5041 C   0  0  0  0  0  0  0  0  0  0  0  0
  -26.3586  -21.5253   28.0094 C   0  0  0  0  0  0  0  0  0  0  0  0
  -25.6704  -13.4633   22.0153 C   0  0  0  0  0  0  0  0  0  0  0  0
  -26.3134  -13.7654   19.7061 C   0  0  0  0  0  0  0  0  0  0  0  0
  -24.1191  -20.6754   27.7303 C   0  0  0  0  0  0  0  0  0  0  0  0
  -26.2960  -22.0991   26.7401 C   0  0  0  0  0  0  0  0  0  0  0  0
  -28.6401  -27.7802   23.0595 C   0  0  0  0  0  0  0  0  0  0  0  0
  -24.6067  -12.6554   21.6134 C   0  0  0  0  0  0  0  0  0  0  0  0
  -25.2497  -12.9574   19.3042 C   0  0  0  0  0  0  0  0  0  0  0  0
  -29.3034  -28.0971   21.8749 C   0  0  0  0  0  0  0  0  0  0  0  0
  -24.1484   -9.4625   20.5993 C   0  0  0  0  0  0  0  0  0  0  0  0
  -23.9379   -8.2734   21.2973 C   0  0  0  0  0  0  0  0  0  0  0  0
  -27.2330  -27.8612   20.6596 C   0  0  0  0  0  0  0  0  0  0  0  0
  -21.7273   -9.0275   21.9153 C   0  0  0  0  0  0  0  0  0  0  0  0
  -30.1939  -21.5290   16.0154 C   0  0  0  0  0  0  0  0  0  0  0  0
  -26.5238  -14.0183   21.0616 C   0  0  0  0  0  0  0  0  0  0  0  0
  -28.9325  -14.4424   21.7868 C   0  0  0  0  0  0  0  0  0  0  0  0
  -24.0387  -21.2559   26.4547 C   0  0  0  0  0  0  0  0  0  0  0  0
  -27.2681  -27.4902   23.0514 C   0  0  0  0  0  0  0  0  0  0  0  0
  -25.1427  -21.9677   25.9479 C   0  0  0  0  0  0  0  0  0  0  0  0
  -26.5541  -27.5433   21.8458 C   0  0  0  0  0  0  0  0  0  0  0  0
  -24.3964  -12.4025   20.2579 C   0  0  0  0  0  0  0  0  0  0  0  0
  -28.6004  -28.1348   20.6742 C   0  0  0  0  0  0  0  0  0  0  0  0
  -23.1484  -10.4343   20.5594 C   0  0  0  0  0  0  0  0  0  0  0  0
  -22.7273   -8.0558   21.9552 C   0  0  0  0  0  0  0  0  0  0  0  0
  -21.9379  -10.2167   21.2173 C   0  0  0  0  0  0  0  0  0  0  0  0
  -30.4734  -22.8866   16.1247 C   0  0  0  0  0  0  0  0  0  0  0  0
  -29.6970  -20.8365   17.1140 C   0  0  0  0  0  0  0  0  0  0  0  0
  -27.6224  -14.8534   21.4760 C   0  0  0  0  0  0  0  0  0  0  0  0
  -30.2405  -23.5006   17.3448 C   0  0  0  0  0  0  0  0  0  0  0  0
  -29.4991  -21.5422   18.2899 C   0  0  0  0  0  0  0  0  0  0  0  0
  -29.5866  -15.6032   22.1200 C   0  0  0  0  0  0  0  0  0  0  0  0
  -29.5068  -13.1287   21.7754 C   0  0  0  0  0  0  0  0  0  0  0  0
  -25.5077  -24.9514   23.7991 C   0  0  0  0  0  0  0  0  0  0  0  0
  -23.0416  -26.9868   23.2533 C   0  0  0  0  0  0  0  0  0  0  0  0
  -30.3739  -25.6988   18.5672 C   0  0  0  0  0  0  0  0  0  0  0  0
  -21.9012  -29.8082   21.7085 C   0  0  0  0  0  0  0  0  0  0  0  0
  -28.7188  -21.3363   20.6763 C   0  0  0  0  0  0  0  0  0  0  0  0
  -22.7906  -21.0398   25.6361 C   0  0  0  0  0  0  0  0  0  0  0  0
  -26.5619  -27.1762   24.3418 C   0  0  0  0  0  0  0  0  0  0  0  0
  -25.0760  -27.2599   21.7864 C   0  0  0  0  0  0  0  0  0  0  0  0
  -22.6651  -21.9960   24.4527 C   0  0  0  0  0  0  0  0  0  0  0  0
  -28.7927  -19.9541   23.9568 C   0  0  0  0  0  0  0  0  0  0  0  0
  -23.9844  -22.0791   23.6914 C   0  0  0  0  0  0  0  0  0  0  0  0
  -28.6263  -18.4512   23.7208 C   0  0  0  0  0  0  0  0  0  0  0  0
  -27.9602  -20.7778   22.9758 C   0  0  0  0  0  0  0  0  0  0  0  0
  -28.0042  -18.9516   21.3229 C   0  0  0  0  0  0  0  0  0  0  0  0
  -25.1038  -22.6257   24.5856 C   0  0  1  0  0  0  0  0  0  0  0  0
  -25.2673  -26.3950   24.1397 C   0  0  1  0  0  0  0  0  0  0  0  0
  -28.8740  -18.0817   22.2451 C   0  0  2  0  0  0  0  0  0  0  0  0
  -19.8307  -31.1967   21.4210 C   0  0  0  0  0  0  0  0  0  0  0  0
  -31.4433  -29.3538   19.2316 C   0  0  0  0  0  0  0  0  0  0  0  0
  -21.9231  -24.9133   21.3144 C   0  0  0  0  0  0  0  0  0  0  0  0
  -20.4358  -26.6952   20.3759 C   0  0  0  0  0  0  0  0  0  0  0  0
  -20.2102  -26.0155   22.7654 C   0  0  0  0  0  0  0  0  0  0  0  0
  -23.1828  -32.1806   22.9283 C   0  0  0  0  0  0  0  0  0  0  0  0
  -30.8018  -27.1277   18.2467 C   0  0  0  0  0  0  0  0  0  0  0  0
  -22.2196  -27.3712   22.0469 C   0  0  1  0  0  0  0  0  0  0  0  0
  -21.1019  -30.9888   22.2296 C   0  0  2  0  0  0  0  0  0  0  0  0
  -30.6238  -28.0848   19.4255 C   0  0  2  0  0  0  0  0  0  1  0  0
  -21.2254  -26.2523   21.6261 C   0  0  0  0  0  0  0  0  0  0  0  0
  -27.4525  -16.1723   21.6007 N   0  0  0  0  0  0  0  0  0  0  0  0
  -29.7588  -22.8610   18.4341 N   0  0  0  0  0  0  0  0  0  0  0  0
  -28.6644  -16.6001   21.9937 N   0  0  0  0  0  0  0  0  0  0  0  0
  -24.4317  -26.9517   23.0738 N   0  0  0  0  0  0  0  0  0  0  0  0
  -28.2508  -20.3758   21.5979 N   0  0  0  0  0  0  0  0  0  0  0  0
  -30.8549  -15.8583   22.5058 N   0  0  0  0  0  0  0  0  0  0  0  0
  -28.6941  -12.0474   21.4084 N   0  0  0  0  0  0  0  0  0  0  0  0
  -30.5270  -24.8825   17.4496 N   0  0  0  0  0  0  0  0  0  0  0  0
  -28.9921  -20.8310   19.4057 N   0  0  0  0  0  0  0  0  0  0  0  0
  -24.9877  -24.0619   24.7199 N   0  0  0  0  0  0  0  0  0  0  0  0
  -21.5842  -28.6430   22.3743 N   0  0  0  0  0  0  0  0  0  0  0  0
  -21.9139  -32.2364   22.1577 N   0  3  0  0  0  0  0  0  0  0  0  0
  -30.7007  -12.9179   22.0973 O   0  0  0  0  0  0  0  0  0  0  0  0
  -26.1184  -24.6656   22.7758 O   0  0  0  0  0  0  0  0  0  0  0  0
  -22.4717  -26.7342   24.3178 O   0  0  0  0  0  0  0  0  0  0  0  0
  -29.9607  -25.3732   19.6750 O   0  0  0  0  0  0  0  0  0  0  0  0
  -22.7218  -29.9087   20.7991 O   0  0  0  0  0  0  0  0  0  0  0  0
  -28.8921  -22.5145   20.9987 O   0  0  0  0  0  0  0  0  0  0  0  0
  -23.3587  -11.6140   19.8654 O   0  0  0  0  0  0  0  0  0  0  0  0
  -29.2455  -28.4433   19.5164 O   0  0  0  0  0  0  0  0  0  1  0  0
  -22.5247   -6.9132   22.6241 F   0  0  0  0  0  0  0  0  0  0  0  0
  -20.9730  -11.1460   21.1816 F   0  0  0  0  0  0  0  0  0  0  0  0
  -30.9525  -23.5662   15.0747 F   0  0  0  0  0  0  0  0  0  0  0  0
  -29.4229  -19.5288   17.0228 F   0  0  0  0  0  0  0  0  0  0  0  0
  1  2  1  0  0  0  0
  1  5  2  0  0  0  0
  2  6  2  0  0  0  0
  3  8  2  0  0  0  0
  3 16  1  0  0  0  0
  4  9  1  0  0  0  0
  4 16  2  0  0  0  0
  5 18  1  0  0  0  0
  6 20  1  0  0  0  0
  7 10  2  0  0  0  0
  7 19  1  0  0  0  0
  8 22  1  0  0  0  0
  9 22  2  0  0  0  0
 10 23  1  0  0  0  0
 11 12  2  0  0  0  0
 11 24  1  0  0  0  0
 12 25  1  0  0  0  0
 13 21  1  0  0  0  0
 13 23  2  0  0  0  0
 14 25  2  0  0  0  0
 14 26  1  0  0  0  0
 15 27  1  0  0  0  0
 15 28  2  0  0  0  0
 16 29  1  0  0  0  0
 17 29  1  0  0  0  0
 17 32  2  0  0  0  0
 17 33  1  0  0  0  0
 18 20  2  0  0  0  0
 18 39  1  0  0  0  0
 19 21  2  0  0  0  0
 19 40  1  0  0  0  0
 20 48  1  0  0  0  0
 21 41  1  0  0  0  0
 22 80  1  0  0  0  0
 23 81  1  0  0  0  0
 24 26  2  0  0  0  0
 24 80  1  0  0  0  0
 25 82  1  0  0  0  0
 26 83  1  0  0  0  0
 27 30  2  0  0  0  0
 27 84  1  0  0  0  0
 28 31  1  0  0  0  0
 28 85  1  0  0  0  0
 29 62  2  0  0  0  0
 30 63  1  0  0  0  0
 30 69  1  0  0  0  0
 31 63  2  0  0  0  0
 31 70  1  0  0  0  0
 32 64  1  0  0  0  0
 32 67  1  0  0  0  0
 33 68  1  0  0  0  0
 33 74  2  0  0  0  0
 34 49  1  0  0  0  0
 34 71  1  0  0  0  0
 34 75  2  0  0  0  0
 35 58  1  0  0  0  0
 35 65  1  0  0  0  0
 35 76  2  0  0  0  0
 36 57  1  0  0  0  0
 36 69  1  0  0  0  0
 36 77  2  0  0  0  0
 37 59  1  0  0  0  0
 37 72  1  0  0  0  0
 37 78  2  0  0  0  0
 38 66  1  0  0  0  0
 38 70  1  0  0  0  0
 38 79  2  0  0  0  0
 39 42  1  0  0  0  0
 40 49  1  0  0  0  0
 41 65  1  0  0  0  0
 42 44  1  0  0  0  0
 43 45  1  0  0  0  0
 43 46  1  0  0  0  0
 44 48  1  0  0  0  0
 45 50  1  0  0  0  0
 46 66  1  0  0  0  0
 47 50  1  0  0  0  0
 47 66  1  0  0  0  0
 48 71  1  0  0  0  0
 49 65  1  0  0  0  0
 50 64  1  0  0  0  0
 51 59  1  0  0  0  0
 52 60  1  0  0  0  0
 53 61  1  0  0  0  0
 54 61  1  0  0  0  0
 55 61  1  0  0  0  0
 56 73  1  0  0  0  0
 57 60  1  0  0  0  0
 58 61  1  0  0  0  0
 58 72  1  0  0  0  0
 59 73  1  0  0  0  0
 60 81  1  0  0  0  0
 62 64  1  0  0  0  0
M  CHG  1  73   1
M  ISO  4  38 100  60 101  70 100  81 101
M  END
> <Batch ID>
0176

> <Smiles>
CNC(C)C(=O)NC(C(=O)N1Cc2cc([101O:1][101CH:1](C)CC(=O)Nc3nc([100NH:0][100C:0](=O)N4CCCC(n5nc(-c6ccc(Oc7ccc(F)cc7F)cc6)c(C(N)=O)c5N)C4)c(F)cc3F)ccc2CC1C(=O)NC1CCCc2ccccc21)C(C)(C)C

> <Shape>
0.244

> <Color>
0.060

> <Negative vol penalty>
0.000

$$$$

  -OEChem-04052304383D

 84 92  0     1  0  0  0  0  0999 V2000
  -31.4274  -34.4777   23.2803 C   0  0  0  0  0  0  0  0  0  0  0  0
  -31.2252  -33.3103   22.5512 C   0  0  0  0  0  0  0  0  0  0  0  0
  -23.2470  -10.3901   22.3217 C   0  0  0  0  0  0  0  0  0  0  0  0
  -24.2378  -11.8201   23.9982 C   0  0  0  0  0  0  0  0  0  0  0  0
  -30.6340  -34.7488   24.3943 C   0  0  0  0  0  0  0  0  0  0  0  0
  -30.2300  -32.4126   22.9364 C   0  0  0  0  0  0  0  0  0  0  0  0
  -26.7631  -28.9578   19.2552 C   0  0  0  0  0  0  0  0  0  0  0  0
  -22.5987   -9.6662   23.3223 C   0  0  0  0  0  0  0  0  0  0  0  0
  -23.5894  -11.0962   24.9988 C   0  0  0  0  0  0  0  0  0  0  0  0
  -26.8528  -27.6229   18.8631 C   0  0  0  0  0  0  0  0  0  0  0  0
  -19.8652  -10.0213   25.2806 C   0  0  0  0  0  0  0  0  0  0  0  0
  -18.5199   -9.7083   25.0862 C   0  0  0  0  0  0  0  0  0  0  0  0
  -25.2944  -27.0140   20.6009 C   0  0  0  0  0  0  0  0  0  0  0  0
  -19.0483   -7.3545   25.2184 C   0  0  0  0  0  0  0  0  0  0  0  0
  -24.0666  -11.4671   22.6597 C   0  0  0  0  0  0  0  0  0  0  0  0
  -24.2521  -13.3483   20.9467 C   0  0  0  0  0  0  0  0  0  0  0  0
  -29.6222  -33.8587   24.7876 C   0  0  0  0  0  0  0  0  0  0  0  0
  -25.9454  -29.3299   20.3319 C   0  0  0  0  0  0  0  0  0  0  0  0
  -29.4232  -32.6714   24.0574 C   0  0  0  0  0  0  0  0  0  0  0  0
  -25.1941  -28.3546   21.0031 C   0  0  0  0  0  0  0  0  0  0  0  0
  -22.7699  -10.0192   24.6609 C   0  0  0  0  0  0  0  0  0  0  0  0
  -26.1207  -26.6503   19.5378 C   0  0  0  0  0  0  0  0  0  0  0  0
  -20.8021   -9.0008   25.4438 C   0  0  0  0  0  0  0  0  0  0  0  0
  -18.1114   -8.3750   25.0551 C   0  0  0  0  0  0  0  0  0  0  0  0
  -20.3936   -7.6675   25.4128 C   0  0  0  0  0  0  0  0  0  0  0  0
  -24.7370  -12.2149   21.6266 C   0  0  0  0  0  0  0  0  0  0  0  0
  -30.6258  -19.3199   18.0166 C   0  0  0  0  0  0  0  0  0  0  0  0
  -31.6640  -18.5430   17.5468 C   0  0  0  0  0  0  0  0  0  0  0  0
  -25.2572  -13.6797   20.0713 C   0  0  0  0  0  0  0  0  0  0  0  0
  -30.4984  -16.9716   18.5377 C   0  0  0  0  0  0  0  0  0  0  0  0
  -23.0047  -14.0397   21.0935 C   0  0  0  0  0  0  0  0  0  0  0  0
  -30.3709  -20.7853   17.8893 C   0  0  0  0  0  0  0  0  0  0  0  0
  -26.4460  -30.6709   23.1700 C   0  0  0  0  0  0  0  0  0  0  0  0
  -27.6853  -23.4487   18.8708 C   0  0  0  0  0  0  0  0  0  0  0  0
  -23.2051  -30.6707   23.3069 C   0  0  0  0  0  0  0  0  0  0  0  0
  -20.2606  -29.3105   22.2457 C   0  0  0  0  0  0  0  0  0  0  0  0
  -30.6451  -14.4859   18.9205 C   0  0  0  0  0  0  0  0  0  0  0  0
  -28.8213  -34.1717   26.0266 C   0  0  0  0  0  0  0  0  0  0  0  0
  -25.8390  -30.7778   20.7254 C   0  0  0  0  0  0  0  0  0  0  0  0
  -24.2860  -28.7050   22.1524 C   0  0  0  0  0  0  0  0  0  0  0  0
  -27.5401  -33.3505   26.1473 C   0  0  0  0  0  0  0  0  0  0  0  0
  -29.4293  -11.1446   18.7339 C   0  0  0  0  0  0  0  0  0  0  0  0
  -27.8202  -31.8789   25.8597 C   0  0  0  0  0  0  0  0  0  0  0  0
  -28.0603  -11.2184   19.4139 C   0  0  0  0  0  0  0  0  0  0  0  0
  -30.4493  -12.0579   19.4117 C   0  0  0  0  0  0  0  0  0  0  0  0
  -28.6574  -13.5298   20.2435 C   0  0  0  0  0  0  0  0  0  0  0  0
  -28.3373  -31.6851   24.4291 C   0  0  1  0  0  0  0  0  0  0  0  0
  -25.3713  -30.9731   22.1644 C   0  0  1  0  0  0  0  0  0  0  0  0
  -27.5795  -12.6759   19.5559 C   0  0  2  0  0  0  0  0  0  0  0  0
  -17.7781  -29.4943   22.5631 C   0  0  0  0  0  0  0  0  0  0  0  0
  -23.4431  -29.2275   25.9847 C   0  0  0  0  0  0  0  0  0  0  0  0
  -21.0258  -28.6066   25.7858 C   0  0  0  0  0  0  0  0  0  0  0  0
  -21.6885  -31.0082   25.9116 C   0  0  0  0  0  0  0  0  0  0  0  0
  -19.8309  -29.9999   19.3998 C   0  0  0  0  0  0  0  0  0  0  0  0
  -29.1150  -21.3670   18.5258 C   0  0  0  0  0  0  0  0  0  0  0  0
  -28.9682  -22.8698   18.2915 C   0  0  0  0  0  0  0  0  0  0  0  0
  -27.4413  -24.9174   18.5844 C   0  0  0  0  0  0  0  0  0  1  0  0
  -22.1558  -29.7026   23.7976 C   0  0  1  0  0  0  0  0  0  0  0  0
  -18.9775  -29.9501   21.7467 C   0  0  2  0  0  0  0  0  0  0  0  0
  -22.0968  -29.6290   25.3496 C   0  0  0  0  0  0  0  0  0  0  0  0
  -25.9553  -11.8506   21.2180 N   0  0  0  0  0  0  0  0  0  0  0  0
  -31.5929  -17.1962   17.8451 N   0  0  0  0  0  0  0  0  0  0  0  0
  -26.2444  -12.7603   20.2719 N   0  0  0  0  0  0  0  0  0  0  0  0
  -24.2208  -30.1332   22.5036 N   0  0  0  0  0  0  0  0  0  0  0  0
  -29.9269  -13.4227   19.5075 N   0  0  0  0  0  0  0  0  0  0  0  0
  -32.7074  -19.0289   16.8325 N   0  0  0  0  0  0  0  0  0  0  0  0
  -25.3840  -14.6648   19.1570 N   0  0  0  0  0  0  0  0  0  0  0  0
  -22.0855  -13.5661   22.0396 N   0  0  0  0  0  0  0  0  0  0  0  0
  -30.0347  -15.7333   19.0473 N   0  0  0  0  0  0  0  0  0  0  0  0
  -27.2444  -31.7545   23.4830 N   0  0  0  0  0  0  0  0  0  0  0  0
  -20.9022  -30.1069   23.1705 N   0  0  0  0  0  0  0  0  0  0  0  0
  -18.7395  -29.5895   20.3204 N   0  3  0  0  0  0  0  0  0  0  0  0
  -22.7070  -15.0379   20.3945 O   0  0  0  0  0  0  0  0  0  0  0  0
  -31.1787  -21.4825   17.2799 O   0  0  0  0  0  0  0  0  0  0  0  0
  -26.5427  -29.5389   23.6293 O   0  0  0  0  0  0  0  0  0  0  0  0
  -26.8948  -22.7789   19.5335 O   0  0  0  0  0  0  0  0  0  0  0  0
  -23.1225  -31.8613   23.6189 O   0  0  0  0  0  0  0  0  0  0  0  0
  -20.6524  -28.2123   21.8569 O   0  0  0  0  0  0  0  0  0  0  0  0
  -31.7087  -14.2993   18.3239 O   0  0  0  0  0  0  0  0  0  0  0  0
  -22.1372   -9.3132   25.6375 O   0  0  0  0  0  0  0  0  0  0  0  0
  -26.2069  -25.3466   19.1576 O   0  0  0  0  0  0  0  0  0  1  0  0
  -16.8192   -8.0747   24.8700 F   0  0  0  0  0  0  0  0  0  0  0  0
  -21.2889   -6.6829   25.5702 F   0  0  0  0  0  0  0  0  0  0  0  0
  -29.5084  -18.3343   18.8660 S   0  0  0  0  0  0  0  0  0  0  0  0
  1  2  1  0  0  0  0
  1  5  2  0  0  0  0
  2  6  2  0  0  0  0
  3  8  2  0  0  0  0
  3 15  1  0  0  0  0
  4  9  1  0  0  0  0
  4 15  2  0  0  0  0
  5 17  1  0  0  0  0
  6 19  1  0  0  0  0
  7 10  2  0  0  0  0
  7 18  1  0  0  0  0
  8 21  1  0  0  0  0
  9 21  2  0  0  0  0
 10 22  1  0  0  0  0
 11 12  2  0  0  0  0
 11 23  1  0  0  0  0
 12 24  1  0  0  0  0
 13 20  1  0  0  0  0
 13 22  2  0  0  0  0
 14 24  2  0  0  0  0
 14 25  1  0  0  0  0
 15 26  1  0  0  0  0
 16 26  1  0  0  0  0
 16 29  2  0  0  0  0
 16 31  1  0  0  0  0
 17 19  2  0  0  0  0
 17 38  1  0  0  0  0
 18 20  2  0  0  0  0
 18 39  1  0  0  0  0
 19 47  1  0  0  0  0
 20 40  1  0  0  0  0
 21 80  1  0  0  0  0
 22 81  1  0  0  0  0
 23 25  2  0  0  0  0
 23 80  1  0  0  0  0
 24 82  1  0  0  0  0
 25 83  1  0  0  0  0
 26 61  2  0  0  0  0
 27 28  2  0  0  0  0
 27 32  1  0  0  0  0
 27 84  1  0  0  0  0
 28 62  1  0  0  0  0
 28 66  1  0  0  0  0
 29 63  1  0  0  0  0
 29 67  1  0  0  0  0
 30 62  2  0  0  0  0
 30 69  1  0  0  0  0
 30 84  1  0  0  0  0
 31 68  1  0  0  0  0
 31 73  2  0  0  0  0
 32 55  1  0  0  0  0
 32 74  2  0  0  0  0
 33 48  1  0  0  0  0
 33 70  1  0  0  0  0
 33 75  2  0  0  0  0
 34 56  1  0  0  0  0
 34 57  1  0  0  0  0
 34 76  2  0  0  0  0
 35 58  1  0  0  0  0
 35 64  1  0  0  0  0
 35 77  2  0  0  0  0
 36 59  1  0  0  0  0
 36 71  1  0  0  0  0
 36 78  2  0  0  0  0
 37 65  1  0  0  0  0
 37 69  1  0  0  0  0
 37 79  2  0  0  0  0
 38 41  1  0  0  0  0
 39 48  1  0  0  0  0
 40 64  1  0  0  0  0
 41 43  1  0  0  0  0
 42 44  1  0  0  0  0
 42 45  1  0  0  0  0
 43 47  1  0  0  0  0
 44 49  1  0  0  0  0
 45 65  1  0  0  0  0
 46 49  1  0  0  0  0
 46 65  1  0  0  0  0
 47 70  1  0  0  0  0
 48 64  1  0  0  0  0
 49 63  1  0  0  0  0
 50 59  1  0  0  0  0
 51 60  1  0  0  0  0
 52 60  1  0  0  0  0
 53 60  1  0  0  0  0
 54 72  1  0  0  0  0
 55 56  1  0  0  0  0
 57 81  1  0  0  0  0
 58 60  1  0  0  0  0
 58 71  1  0  0  0  0
 59 72  1  0  0  0  0
 61 63  1  0  0  0  0
M  CHG  1  72   1
M  ISO  4  37 100  57 101  69 100  81 101
M  END
> <Batch ID>
0176

> <Smiles>
CNC(C)C(=O)NC(C(=O)N1Cc2cc([101O:1][101CH2:1]C(=O)CCC(=O)c3sc([100NH:0][100C:0](=O)N4CCCC(n5nc(-c6ccc(Oc7ccc(F)cc7F)cc6)c(C(N)=O)c5N)C4)nc3N)ccc2CC1C(=O)NC1CCCc2ccccc21)C(C)(C)C

> <Shape>
0.249

> <Color>
0.124

> <Negative vol penalty>
0.000

$$$$

  -OEChem-04052304383D

 87 95  0     1  0  0  0  0  0999 V2000
  -29.8371  -35.0459   23.5222 C   0  0  0  0  0  0  0  0  0  0  0  0
  -29.6161  -33.6732   23.4747 C   0  0  0  0  0  0  0  0  0  0  0  0
  -24.8465   -8.3826   20.7714 C   0  0  0  0  0  0  0  0  0  0  0  0
  -23.1430   -9.8954   19.9673 C   0  0  0  0  0  0  0  0  0  0  0  0
  -28.7634  -35.9181   23.6968 C   0  0  0  0  0  0  0  0  0  0  0  0
  -28.3213  -33.1718   23.6029 C   0  0  0  0  0  0  0  0  0  0  0  0
  -27.2950  -29.5528   20.2126 C   0  0  0  0  0  0  0  0  0  0  0  0
  -23.8574   -7.5058   21.2170 C   0  0  0  0  0  0  0  0  0  0  0  0
  -22.1539   -9.0186   20.4128 C   0  0  0  0  0  0  0  0  0  0  0  0
  -27.8051  -28.2802   20.4655 C   0  0  0  0  0  0  0  0  0  0  0  0
  -21.7560   -7.2537   23.8524 C   0  0  0  0  0  0  0  0  0  0  0  0
  -21.9045   -6.7035   25.1255 C   0  0  0  0  0  0  0  0  0  0  0  0
  -25.6511  -27.5900   21.3040 C   0  0  0  0  0  0  0  0  0  0  0  0
  -28.0891  -19.1317   18.1383 C   0  0  0  0  0  0  0  0  0  0  0  0
  -27.7772  -20.0047   15.9073 C   0  0  0  0  0  0  0  0  0  0  0  0
  -21.9258   -4.4867   24.1650 C   0  0  0  0  0  0  0  0  0  0  0  0
  -24.4892   -9.5775   20.1466 C   0  0  0  0  0  0  0  0  0  0  0  0
  -26.1237  -10.5013   18.4196 C   0  0  0  0  0  0  0  0  0  0  0  0
  -27.4537  -35.4276   23.8176 C   0  0  0  0  0  0  0  0  0  0  0  0
  -25.9597  -29.8573   20.5141 C   0  0  0  0  0  0  0  0  0  0  0  0
  -27.2292  -34.0381   23.7807 C   0  0  0  0  0  0  0  0  0  0  0  0
  -25.1258  -28.8664   21.0516 C   0  0  0  0  0  0  0  0  0  0  0  0
  -27.9793  -20.2184   17.2708 C   0  0  0  0  0  0  0  0  0  0  0  0
  -27.9969  -17.8313   17.6423 C   0  0  0  0  0  0  0  0  0  0  0  0
  -22.5112   -7.8237   21.0377 C   0  0  0  0  0  0  0  0  0  0  0  0
  -26.9840  -27.2994   21.0140 C   0  0  0  0  0  0  0  0  0  0  0  0
  -21.6924   -6.4204   22.7355 C   0  0  0  0  0  0  0  0  0  0  0  0
  -21.9894   -5.3200   25.2818 C   0  0  0  0  0  0  0  0  0  0  0  0
  -27.6849  -18.7043   15.4113 C   0  0  0  0  0  0  0  0  0  0  0  0
  -21.7773   -5.0369   22.8918 C   0  0  0  0  0  0  0  0  0  0  0  0
  -27.7948  -17.6175   16.2789 C   0  0  0  0  0  0  0  0  0  0  0  0
  -25.5104  -10.4840   19.6866 C   0  0  0  0  0  0  0  0  0  0  0  0
  -27.0168  -11.5428   18.4846 C   0  0  0  0  0  0  0  0  0  0  0  0
  -25.9056   -9.6520   17.2852 C   0  0  0  0  0  0  0  0  0  0  0  0
  -28.3107  -23.4183   19.2099 C   0  0  0  0  0  0  0  0  0  0  0  0
  -28.4877  -24.0955   20.3535 C   0  0  0  0  0  0  0  0  0  0  0  0
  -28.2706  -21.9302   19.0904 C   0  0  0  0  0  0  0  0  0  0  0  0
  -24.5118  -31.9098   22.4620 C   0  0  0  0  0  0  0  0  0  0  0  0
  -21.8352  -30.8151   20.9923 C   0  0  0  0  0  0  0  0  0  0  0  0
  -20.3031  -28.3092   19.2545 C   0  0  0  0  0  0  0  0  0  0  0  0
  -28.3095  -16.7691   19.9052 C   0  0  0  0  0  0  0  0  0  0  0  0
  -26.3306  -36.4066   24.0522 C   0  0  0  0  0  0  0  0  0  0  0  0
  -25.4175  -31.2270   20.2104 C   0  0  0  0  0  0  0  0  0  0  0  0
  -23.6796  -29.1365   21.3744 C   0  0  0  0  0  0  0  0  0  0  0  0
  -24.9453  -35.8151   23.8045 C   0  0  0  0  0  0  0  0  0  0  0  0
  -28.6011  -14.2815   22.4358 C   0  0  0  0  0  0  0  0  0  0  0  0
  -24.8210  -34.4490   24.4717 C   0  0  0  0  0  0  0  0  0  0  0  0
  -27.8735  -13.0732   21.8419 C   0  0  0  0  0  0  0  0  0  0  0  0
  -27.9183  -15.5955   22.0603 C   0  0  0  0  0  0  0  0  0  0  0  0
  -26.9642  -14.5804   20.0285 C   0  0  0  0  0  0  0  0  0  0  0  0
  -25.8363  -33.4571   23.8911 C   0  0  1  0  0  0  0  0  0  0  0  0
  -24.1821  -31.5767   21.0344 C   0  0  1  0  0  0  0  0  0  0  0  0
  -27.6522  -13.2380   20.3255 C   0  0  2  0  0  0  0  0  0  0  0  0
  -18.1011  -27.6874   18.2241 C   0  0  0  0  0  0  0  0  0  0  0  0
  -20.7119  -30.2102   23.7640 C   0  0  0  0  0  0  0  0  0  0  0  0
  -18.9877  -28.7598   22.6722 C   0  0  0  0  0  0  0  0  0  0  0  0
  -19.0646  -31.2008   22.1641 C   0  0  0  0  0  0  0  0  0  0  0  0
  -21.4895  -28.1238   16.5495 C   0  0  0  0  0  0  0  0  0  0  0  0
  -28.5282  -25.5936   20.4125 C   0  0  0  0  0  0  0  0  0  1  0  0
  -20.8653  -29.6853   21.2407 C   0  0  1  0  0  0  0  0  0  0  0  0
  -19.4606  -28.3282   17.9919 C   0  0  2  0  0  0  0  0  0  0  0  0
  -19.9351  -29.9592   22.4561 C   0  0  0  0  0  0  0  0  0  0  0  0
  -25.9747  -11.4385   20.4973 N   0  0  0  0  0  0  0  0  0  0  0  0
  -26.8893  -12.0654   19.7380 N   0  0  0  0  0  0  0  0  0  0  0  0
  -23.1978  -30.4929   21.0652 N   0  0  0  0  0  0  0  0  0  0  0  0
  -27.7459  -15.6836   20.6087 N   0  0  0  0  0  0  0  0  0  0  0  0
  -27.8908  -12.0534   17.5915 N   0  0  0  0  0  0  0  0  0  0  0  0
  -24.9511   -8.6310   17.3887 N   0  0  0  0  0  0  0  0  0  0  0  0
  -28.0727  -21.5386   17.7736 N   0  0  0  0  0  0  0  0  0  0  0  0
  -28.1084  -16.7291   18.5259 N   0  0  0  0  0  0  0  0  0  0  0  0
  -25.3874  -32.9693   22.6047 N   0  0  0  0  0  0  0  0  0  0  0  0
  -20.1577  -29.4709   19.9830 N   0  0  0  0  0  0  0  0  0  0  0  0
  -20.1493  -27.5860   16.8984 N   0  3  0  0  0  0  0  0  0  0  0  0
  -26.5502   -9.7839   16.2172 O   0  0  0  0  0  0  0  0  0  0  0  0
  -28.4022  -21.2085   20.0715 O   0  0  0  0  0  0  0  0  0  0  0  0
  -24.0080  -31.2551   23.3670 O   0  0  0  0  0  0  0  0  0  0  0  0
  -21.3999  -31.9405   20.7358 O   0  0  0  0  0  0  0  0  0  0  0  0
  -21.0158  -27.3575   19.5655 O   0  0  0  0  0  0  0  0  0  0  0  0
  -28.9487  -17.6537   20.4806 O   0  0  0  0  0  0  0  0  0  0  0  0
  -28.6647  -23.4497   21.5620 O   0  0  0  0  0  0  0  0  0  0  0  0
  -21.5458   -6.9682   21.4722 O   0  0  0  0  0  0  0  0  0  0  0  0
  -27.4795  -26.0566   21.2625 O   0  0  0  0  0  0  0  0  0  1  0  0
  -22.1334   -4.7919   26.5043 F   0  0  0  0  0  0  0  0  0  0  0  0
  -27.4912  -18.4991   14.1021 F   0  0  0  0  0  0  0  0  0  0  0  0
  -21.7180   -4.2314   21.8225 F   0  0  0  0  0  0  0  0  0  0  0  0
  -27.7050  -16.3722   15.7910 F   0  0  0  0  0  0  0  0  0  0  0  0
  -28.1499  -24.0857   18.0456 F   0  0  0  0  0  0  0  0  0  0  0  0
  1  2  1  0  0  0  0
  1  5  2  0  0  0  0
  2  6  2  0  0  0  0
  3  8  2  0  0  0  0
  3 17  1  0  0  0  0
  4  9  1  0  0  0  0
  4 17  2  0  0  0  0
  5 19  1  0  0  0  0
  6 21  1  0  0  0  0
  7 10  2  0  0  0  0
  7 20  1  0  0  0  0
  8 25  1  0  0  0  0
  9 25  2  0  0  0  0
 10 26  1  0  0  0  0
 11 12  2  0  0  0  0
 11 27  1  0  0  0  0
 12 28  1  0  0  0  0
 13 22  1  0  0  0  0
 13 26  2  0  0  0  0
 14 23  2  0  0  0  0
 14 24  1  0  0  0  0
 15 23  1  0  0  0  0
 15 29  2  0  0  0  0
 16 28  2  0  0  0  0
 16 30  1  0  0  0  0
 17 32  1  0  0  0  0
 18 32  1  0  0  0  0
 18 33  2  0  0  0  0
 18 34  1  0  0  0  0
 19 21  2  0  0  0  0
 19 42  1  0  0  0  0
 20 22  2  0  0  0  0
 20 43  1  0  0  0  0
 21 51  1  0  0  0  0
 22 44  1  0  0  0  0
 23 69  1  0  0  0  0
 24 31  2  0  0  0  0
 24 70  1  0  0  0  0
 25 81  1  0  0  0  0
 26 82  1  0  0  0  0
 27 30  2  0  0  0  0
 27 81  1  0  0  0  0
 28 83  1  0  0  0  0
 29 31  1  0  0  0  0
 29 84  1  0  0  0  0
 30 85  1  0  0  0  0
 31 86  1  0  0  0  0
 32 63  2  0  0  0  0
 33 64  1  0  0  0  0
 33 67  1  0  0  0  0
 34 68  1  0  0  0  0
 34 74  2  0  0  0  0
 35 36  2  0  0  0  0
 35 37  1  0  0  0  0
 35 87  1  0  0  0  0
 36 59  1  0  0  0  0
 36 80  1  0  0  0  0
 37 69  1  0  0  0  0
 37 75  2  0  0  0  0
 38 52  1  0  0  0  0
 38 71  1  0  0  0  0
 38 76  2  0  0  0  0
 39 60  1  0  0  0  0
 39 65  1  0  0  0  0
 39 77  2  0  0  0  0
 40 61  1  0  0  0  0
 40 72  1  0  0  0  0
 40 78  2  0  0  0  0
 41 66  1  0  0  0  0
 41 70  1  0  0  0  0
 41 79  2  0  0  0  0
 42 45  1  0  0  0  0
 43 52  1  0  0  0  0
 44 65  1  0  0  0  0
 45 47  1  0  0  0  0
 46 48  1  0  0  0  0
 46 49  1  0  0  0  0
 47 51  1  0  0  0  0
 48 53  1  0  0  0  0
 49 66  1  0  0  0  0
 50 53  1  0  0  0  0
 50 66  1  0  0  0  0
 51 71  1  0  0  0  0
 52 65  1  0  0  0  0
 53 64  1  0  0  0  0
 54 61  1  0  0  0  0
 55 62  1  0  0  0  0
 56 62  1  0  0  0  0
 57 62  1  0  0  0  0
 58 73  1  0  0  0  0
 59 82  1  0  0  0  0
 60 62  1  0  0  0  0
 60 72  1  0  0  0  0
 61 73  1  0  0  0  0
 63 64  1  0  0  0  0
M  CHG  1  73   1
M  ISO  4  41 100  59 101  70 100  82 101
M  END
> <Batch ID>
0176

> <Smiles>
CNC(C)C(=O)NC(C(=O)N1Cc2cc([101O:1][101CH2:1]C(=O)C(F)C(=O)Nc3cc(F)c(F)c([100NH:0][100C:0](=O)N4CCCC(n5nc(-c6ccc(Oc7ccc(F)cc7F)cc6)c(C(N)=O)c5N)C4)c3)ccc2CC1C(=O)NC1CCCc2ccccc21)C(C)(C)C

> <Shape>
0.297

> <Color>
0.099

> <Negative vol penalty>
0.000

$$$$

  -OEChem-04052304383D

 85 93  0     1  0  0  0  0  0999 V2000
  -19.2918  -34.1476   21.3700 C   0  0  0  0  0  0  0  0  0  0  0  0
  -20.5129  -33.7415   20.8414 C   0  0  0  0  0  0  0  0  0  0  0  0
  -26.3750  -12.4718   21.5671 C   0  0  0  0  0  0  0  0  0  0  0  0
  -25.9712  -13.4084   19.3769 C   0  0  0  0  0  0  0  0  0  0  0  0
  -18.8403  -33.6075   22.5734 C   0  0  0  0  0  0  0  0  0  0  0  0
  -21.2838  -32.7958   21.5166 C   0  0  0  0  0  0  0  0  0  0  0  0
  -24.8433  -28.4844   19.0172 C   0  0  0  0  0  0  0  0  0  0  0  0
  -25.1759  -11.7639   21.4854 C   0  0  0  0  0  0  0  0  0  0  0  0
  -24.7722  -12.7004   19.2952 C   0  0  0  0  0  0  0  0  0  0  0  0
  -26.2160  -28.4220   18.7814 C   0  0  0  0  0  0  0  0  0  0  0  0
  -24.0423   -8.9479   19.9960 C   0  0  0  0  0  0  0  0  0  0  0  0
  -24.0531   -7.6078   20.3827 C   0  0  0  0  0  0  0  0  0  0  0  0
  -26.5094  -27.2099   20.8463 C   0  0  0  0  0  0  0  0  0  0  0  0
  -22.4088   -8.0862   22.0869 C   0  0  0  0  0  0  0  0  0  0  0  0
  -26.7726  -13.2941   20.5129 C   0  0  0  0  0  0  0  0  0  0  0  0
  -29.2836  -13.5947   20.1775 C   0  0  0  0  0  0  0  0  0  0  0  0
  -19.6015  -32.6476   23.2588 C   0  0  0  0  0  0  0  0  0  0  0  0
  -24.2938  -27.9186   20.1766 C   0  0  0  0  0  0  0  0  0  0  0  0
  -20.8426  -32.2434   22.7310 C   0  0  0  0  0  0  0  0  0  0  0  0
  -25.1292  -27.2642   21.0932 C   0  0  0  0  0  0  0  0  0  0  0  0
  -24.3745  -11.8781   20.3495 C   0  0  0  0  0  0  0  0  0  0  0  0
  -27.0497  -27.7872   19.6975 C   0  0  0  0  0  0  0  0  0  0  0  0
  -23.2147   -9.8573   20.6549 C   0  0  0  0  0  0  0  0  0  0  0  0
  -23.2363   -7.1769   21.4281 C   0  0  0  0  0  0  0  0  0  0  0  0
  -22.3980   -9.4264   21.7003 C   0  0  0  0  0  0  0  0  0  0  0  0
  -28.0109  -14.0261   20.5969 C   0  0  0  0  0  0  0  0  0  0  0  0
  -28.6830  -22.4948   16.6204 C   0  0  0  0  0  0  0  0  0  0  0  0
  -29.1377  -23.2774   17.6610 C   0  0  0  0  0  0  0  0  0  0  0  0
  -30.1169  -14.6459   20.4725 C   0  0  0  0  0  0  0  0  0  0  0  0
  -28.8922  -21.3901   18.7507 C   0  0  0  0  0  0  0  0  0  0  0  0
  -28.4456  -22.8147   15.2513 C   0  0  0  0  0  0  0  0  0  0  0  0
  -29.6773  -12.3546   19.5752 C   0  0  0  0  0  0  0  0  0  0  0  0
  -22.6931  -29.0455   22.6808 C   0  0  0  0  0  0  0  0  0  0  0  0
  -22.4288  -25.9014   23.4340 C   0  0  0  0  0  0  0  0  0  0  0  0
  -29.9333  -25.5039   18.5292 C   0  0  0  0  0  0  0  0  0  0  0  0
  -23.6663  -22.7355   23.1300 C   0  0  0  0  0  0  0  0  0  0  0  0
  -29.2153  -20.5202   21.0928 C   0  0  0  0  0  0  0  0  0  0  0  0
  -19.0941  -32.1273   24.5804 C   0  0  0  0  0  0  0  0  0  0  0  0
  -22.8078  -27.9710   20.4031 C   0  0  0  0  0  0  0  0  0  0  0  0
  -24.5864  -26.6232   22.3433 C   0  0  0  0  0  0  0  0  0  0  0  0
  -19.7961  -30.8533   25.0434 C   0  0  0  0  0  0  0  0  0  0  0  0
  -30.5895  -18.3086   23.5213 C   0  0  0  0  0  0  0  0  0  0  0  0
  -21.3075  -30.9906   24.8897 C   0  0  0  0  0  0  0  0  0  0  0  0
  -30.2052  -16.9199   23.0056 C   0  0  0  0  0  0  0  0  0  0  0  0
  -29.4888  -19.3353   23.2598 C   0  0  0  0  0  0  0  0  0  0  0  0
  -28.6470  -18.0250   21.3510 C   0  0  0  0  0  0  0  0  0  0  0  0
  -21.6959  -31.2015   23.4213 C   0  0  1  0  0  0  0  0  0  0  0  0
  -22.4209  -27.8102   21.8700 C   0  0  1  0  0  0  0  0  0  0  0  0
  -29.7514  -16.9711   21.5335 C   0  0  2  0  0  0  0  0  0  0  0  0
  -32.5910  -26.9527   18.6876 C   0  0  0  0  0  0  0  0  0  0  0  0
  -23.2582  -20.3794   23.8914 C   0  0  0  0  0  0  0  0  0  0  0  0
  -23.5845  -26.5890   26.1729 C   0  0  0  0  0  0  0  0  0  0  0  0
  -24.0356  -24.1506   26.5174 C   0  0  0  0  0  0  0  0  0  0  0  0
  -21.6928  -24.9539   26.2195 C   0  0  0  0  0  0  0  0  0  0  0  0
  -23.2612  -21.7861   20.3563 C   0  0  0  0  0  0  0  0  0  0  0  0
  -31.2464  -27.6647   18.7703 C   0  0  0  0  0  0  0  0  0  0  0  0
  -28.8172  -27.6977   18.1089 C   0  0  0  0  0  0  0  0  0  1  0  0
  -23.2539  -24.9200   24.2310 C   0  0  1  0  0  0  0  0  0  0  0  0
  -30.1408  -26.9297   17.9931 C   0  0  2  0  0  0  0  0  0  0  0  0
  -22.9882  -21.4153   22.8112 C   0  0  2  0  0  0  0  0  0  0  0  0
  -23.1525  -25.1670   25.7627 C   0  0  0  0  0  0  0  0  0  0  0  0
  -28.0292  -15.2555   21.1187 N   0  0  0  0  0  0  0  0  0  0  0  0
  -29.2579  -22.6458   18.8834 N   0  0  0  0  0  0  0  0  0  0  0  0
  -29.3236  -15.6055   21.0292 N   0  0  0  0  0  0  0  0  0  0  0  0
  -23.1275  -26.7064   22.5232 N   0  0  0  0  0  0  0  0  0  0  0  0
  -29.1132  -19.3304   21.8443 N   0  0  0  0  0  0  0  0  0  0  0  0
  -31.4435  -14.8337   20.3075 N   0  0  0  0  0  0  0  0  0  0  0  0
  -28.6942  -11.3833   19.3419 N   0  0  0  0  0  0  0  0  0  0  0  0
  -29.4701  -24.6471   17.5352 N   0  0  0  0  0  0  0  0  0  0  0  0
  -28.8618  -20.3864   19.7505 N   0  0  0  0  0  0  0  0  0  0  0  0
  -21.6465  -29.9476   22.7004 N   0  0  0  0  0  0  0  0  0  0  0  0
  -22.8253  -23.5904   23.8105 N   0  0  0  0  0  0  0  0  0  0  0  0
  -23.4832  -20.8792   21.5118 N   0  3  0  0  0  0  0  0  0  0  0  0
  -28.6299  -23.9458   14.7522 O   0  0  0  0  0  0  0  0  0  0  0  0
  -30.8685  -12.1085   19.2684 O   0  0  0  0  0  0  0  0  0  0  0  0
  -23.7721  -29.1703   23.2481 O   0  0  0  0  0  0  0  0  0  0  0  0
  -21.2085  -25.9470   23.6079 O   0  0  0  0  0  0  0  0  0  0  0  0
  -30.1396  -25.2243   19.7069 O   0  0  0  0  0  0  0  0  0  0  0  0
  -24.8272  -22.9822   22.8107 O   0  0  0  0  0  0  0  0  0  0  0  0
  -29.6148  -21.5734   21.5960 O   0  0  0  0  0  0  0  0  0  0  0  0
  -23.2046  -11.1873   20.2694 O   0  0  0  0  0  0  0  0  0  0  0  0
  -28.3900  -27.7255   19.4701 O   0  0  0  0  0  0  0  0  0  1  0  0
  -23.2457   -5.8896   21.7982 F   0  0  0  0  0  0  0  0  0  0  0  0
  -21.6000  -10.2951   22.3362 F   0  0  0  0  0  0  0  0  0  0  0  0
  -28.3928  -20.9010   17.1834 S   0  0  0  0  0  0  0  0  0  0  0  0
  1  2  1  0  0  0  0
  1  5  2  0  0  0  0
  2  6  2  0  0  0  0
  3  8  2  0  0  0  0
  3 15  1  0  0  0  0
  4  9  1  0  0  0  0
  4 15  2  0  0  0  0
  5 17  1  0  0  0  0
  6 19  1  0  0  0  0
  7 10  2  0  0  0  0
  7 18  1  0  0  0  0
  8 21  1  0  0  0  0
  9 21  2  0  0  0  0
 10 22  1  0  0  0  0
 11 12  2  0  0  0  0
 11 23  1  0  0  0  0
 12 24  1  0  0  0  0
 13 20  1  0  0  0  0
 13 22  2  0  0  0  0
 14 24  2  0  0  0  0
 14 25  1  0  0  0  0
 15 26  1  0  0  0  0
 16 26  1  0  0  0  0
 16 29  2  0  0  0  0
 16 32  1  0  0  0  0
 17 19  2  0  0  0  0
 17 38  1  0  0  0  0
 18 20  2  0  0  0  0
 18 39  1  0  0  0  0
 19 47  1  0  0  0  0
 20 40  1  0  0  0  0
 21 81  1  0  0  0  0
 22 82  1  0  0  0  0
 23 25  2  0  0  0  0
 23 81  1  0  0  0  0
 24 83  1  0  0  0  0
 25 84  1  0  0  0  0
 26 62  2  0  0  0  0
 27 28  2  0  0  0  0
 27 31  1  0  0  0  0
 27 85  1  0  0  0  0
 28 63  1  0  0  0  0
 28 69  1  0  0  0  0
 29 64  1  0  0  0  0
 29 67  1  0  0  0  0
 30 63  2  0  0  0  0
 30 70  1  0  0  0  0
 30 85  1  0  0  0  0
 31 74  2  0  0  0  0
 32 68  1  0  0  0  0
 32 75  2  0  0  0  0
 33 48  1  0  0  0  0
 33 71  1  0  0  0  0
 33 76  2  0  0  0  0
 34 58  1  0  0  0  0
 34 65  1  0  0  0  0
 34 77  2  0  0  0  0
 35 59  1  0  0  0  0
 35 69  1  0  0  0  0
 35 78  2  0  0  0  0
 36 60  1  0  0  0  0
 36 72  1  0  0  0  0
 36 79  2  0  0  0  0
 37 66  1  0  0  0  0
 37 70  1  0  0  0  0
 37 80  2  0  0  0  0
 38 41  1  0  0  0  0
 39 48  1  0  0  0  0
 40 65  1  0  0  0  0
 41 43  1  0  0  0  0
 42 44  1  0  0  0  0
 42 45  1  0  0  0  0
 43 47  1  0  0  0  0
 44 49  1  0  0  0  0
 45 66  1  0  0  0  0
 46 49  1  0  0  0  0
 46 66  1  0  0  0  0
 47 71  1  0  0  0  0
 48 65  1  0  0  0  0
 49 64  1  0  0  0  0
 50 56  1  0  0  0  0
 51 60  1  0  0  0  0
 52 61  1  0  0  0  0
 53 61  1  0  0  0  0
 54 61  1  0  0  0  0
 55 73  1  0  0  0  0
 56 59  1  0  0  0  0
 57 59  1  0  0  0  0
 57 82  1  0  0  0  0
 58 61  1  0  0  0  0
 58 72  1  0  0  0  0
 60 73  1  0  0  0  0
 62 64  1  0  0  0  0
M  CHG  1  73   1
M  ISO  4  37 100  57 101  70 100  82 101
M  END
> <Batch ID>
0176

> <Smiles>
CCC(C(=O)Nc1nc([100NH:0][100C:0](=O)N2CCCC(n3nc(-c4ccc(Oc5ccc(F)cc5F)cc4)c(C(N)=O)c3N)C2)sc1C=O)[101CH2:1][101O:1]c1ccc2c(c1)CN(C(=O)C(NC(=O)C(C)NC)C(C)(C)C)C(C(=O)NC1CCCc3ccccc31)C2

> <Shape>
0.255

> <Color>
0.115

> <Negative vol penalty>
0.000

$$$$

  -OEChem-04052304383D

 85 93  0     1  0  0  0  0  0999 V2000
  -28.0389  -32.6375   27.1681 C   0  0  0  0  0  0  0  0  0  0  0  0
  -28.1676  -31.5347   26.3297 C   0  0  0  0  0  0  0  0  0  0  0  0
  -23.5252   -9.7963   21.8096 C   0  0  0  0  0  0  0  0  0  0  0  0
  -24.1723  -11.0486   23.7718 C   0  0  0  0  0  0  0  0  0  0  0  0
  -26.7723  -33.1256   27.4865 C   0  0  0  0  0  0  0  0  0  0  0  0
  -27.0296  -30.9189   25.8101 C   0  0  0  0  0  0  0  0  0  0  0  0
  -27.4725  -29.8645   20.8768 C   0  0  0  0  0  0  0  0  0  0  0  0
  -22.9221   -8.8358   22.6216 C   0  0  0  0  0  0  0  0  0  0  0  0
  -23.5692  -10.0881   24.5837 C   0  0  0  0  0  0  0  0  0  0  0  0
  -28.2278  -28.7450   20.5303 C   0  0  0  0  0  0  0  0  0  0  0  0
  -20.0346   -8.4895   24.3466 C   0  0  0  0  0  0  0  0  0  0  0  0
  -18.7676   -8.0348   23.9812 C   0  0  0  0  0  0  0  0  0  0  0  0
  -26.1986  -27.4728   20.2418 C   0  0  0  0  0  0  0  0  0  0  0  0
  -19.6280   -5.7847   23.7980 C   0  0  0  0  0  0  0  0  0  0  0  0
  -31.5789  -19.6802   20.8750 C   0  0  0  0  0  0  0  0  0  0  0  0
  -24.1503  -10.9027   22.3847 C   0  0  0  0  0  0  0  0  0  0  0  0
  -24.1759  -13.0497   21.0071 C   0  0  0  0  0  0  0  0  0  0  0  0
  -25.6186  -32.5214   26.9627 C   0  0  0  0  0  0  0  0  0  0  0  0
  -26.0727  -29.7934   20.9191 C   0  0  0  0  0  0  0  0  0  0  0  0
  -25.7463  -31.3986   26.1228 C   0  0  0  0  0  0  0  0  0  0  0  0
  -25.4278  -28.5935   20.5867 C   0  0  0  0  0  0  0  0  0  0  0  0
  -29.3901  -18.9319   20.6487 C   0  0  0  0  0  0  0  0  0  0  0  0
  -30.2485  -20.0321   20.9362 C   0  0  0  0  0  0  0  0  0  0  0  0
  -22.9441   -8.9816   24.0086 C   0  0  0  0  0  0  0  0  0  0  0  0
  -27.5910  -27.5481   20.2155 C   0  0  0  0  0  0  0  0  0  0  0  0
  -21.0984   -7.5918   24.4376 C   0  0  0  0  0  0  0  0  0  0  0  0
  -18.5643   -6.6824   23.7069 C   0  0  0  0  0  0  0  0  0  0  0  0
  -20.8951   -6.2394   24.1633 C   0  0  0  0  0  0  0  0  0  0  0  0
  -24.7740  -11.8950   21.5466 C   0  0  0  0  0  0  0  0  0  0  0  0
  -25.1802  -13.6540   20.2912 C   0  0  0  0  0  0  0  0  0  0  0  0
  -30.0972  -17.7809   20.3784 C   0  0  0  0  0  0  0  0  0  0  0  0
  -28.7174  -25.6080   20.8771 C   0  0  0  0  0  0  0  0  0  1  0  0
  -22.8326  -13.5327   21.1413 C   0  0  0  0  0  0  0  0  0  0  0  0
  -29.4412  -24.5044   20.6596 C   0  0  0  0  0  0  0  0  0  0  0  0
  -29.8114  -23.6562   21.8188 C   0  0  0  0  0  0  0  0  0  0  0  0
  -30.6224  -22.4292   21.5326 C   0  0  0  0  0  0  0  0  0  0  0  0
  -23.8754  -30.1622   23.1861 C   0  0  0  0  0  0  0  0  0  0  0  0
  -21.8176  -29.8515   20.6979 C   0  0  0  0  0  0  0  0  0  0  0  0
  -21.2398  -28.6797   17.5451 C   0  0  0  0  0  0  0  0  0  0  0  0
  -30.4570  -15.3584   19.7879 C   0  0  0  0  0  0  0  0  0  0  0  0
  -24.2692  -33.0556   27.3731 C   0  0  0  0  0  0  0  0  0  0  0  0
  -25.2713  -31.0173   21.2688 C   0  0  0  0  0  0  0  0  0  0  0  0
  -23.9267  -28.4706   20.5973 C   0  0  0  0  0  0  0  0  0  0  0  0
  -23.1272  -32.5762   26.4808 C   0  0  0  0  0  0  0  0  0  0  0  0
  -29.7656  -11.9615   18.9755 C   0  0  0  0  0  0  0  0  0  0  0  0
  -23.2312  -31.0733   26.2418 C   0  0  0  0  0  0  0  0  0  0  0  0
  -28.3561  -11.7364   19.5276 C   0  0  0  0  0  0  0  0  0  0  0  0
  -30.5886  -12.8786   19.8785 C   0  0  0  0  0  0  0  0  0  0  0  0
  -28.5443  -13.9371   20.7558 C   0  0  0  0  0  0  0  0  0  0  0  0
  -24.5365  -30.7185   25.5194 C   0  0  1  0  0  0  0  0  0  0  0  0
  -23.8715  -30.6893   21.7791 C   0  0  1  0  0  0  0  0  0  0  0  0
  -27.6560  -13.0718   19.8470 C   0  0  2  0  0  0  0  0  0  0  0  0
  -27.9076  -19.0133   20.6398 C   0  0  0  0  0  0  0  0  0  0  0  0
  -19.4505  -28.5449   15.7908 C   0  0  0  0  0  0  0  0  0  0  0  0
  -20.4410  -27.6323   22.2759 C   0  0  0  0  0  0  0  0  0  0  0  0
  -19.3195  -26.9155   20.1554 C   0  0  0  0  0  0  0  0  0  0  0  0
  -18.8841  -29.1878   21.0882 C   0  0  0  0  0  0  0  0  0  0  0  0
  -22.8572  -30.2295   15.6109 C   0  0  0  0  0  0  0  0  0  0  0  0
  -21.1231  -28.6933   20.0231 C   0  0  1  0  0  0  0  0  0  0  0  0
  -20.6334  -29.3405   16.3203 C   0  0  2  0  0  0  0  0  0  0  0  0
  -19.9703  -28.1087   20.8872 C   0  0  0  0  0  0  0  0  0  0  0  0
  -26.0586  -11.7711   21.2026 N   0  0  0  0  0  0  0  0  0  0  0  0
  -26.2760  -12.8556   20.4392 N   0  0  0  0  0  0  0  0  0  0  0  0
  -23.1874  -29.6933   20.9519 N   0  0  0  0  0  0  0  0  0  0  0  0
  -29.8645  -14.1257   20.1342 N   0  0  0  0  0  0  0  0  0  0  0  0
  -25.2240  -14.7852   19.5557 N   0  0  0  0  0  0  0  0  0  0  0  0
  -21.9292  -12.7893   21.9129 N   0  0  0  0  0  0  0  0  0  0  0  0
  -29.8217  -21.3432   21.2504 N   0  0  0  0  0  0  0  0  0  0  0  0
  -29.6614  -16.4738   20.0477 N   0  0  0  0  0  0  0  0  0  0  0  0
  -24.4333  -31.0261   24.1090 N   0  0  0  0  0  0  0  0  0  0  0  0
  -20.7015  -29.1773   18.7130 N   0  0  0  0  0  0  0  0  0  0  0  0
  -21.6490  -29.4511   15.2352 N   0  3  0  0  0  0  0  0  0  0  0  0
  -22.4406  -14.5837   20.5798 O   0  0  0  0  0  0  0  0  0  0  0  0
  -29.4979  -23.8656   22.9802 O   0  0  0  0  0  0  0  0  0  0  0  0
  -31.8352  -22.5505   21.5717 O   0  0  0  0  0  0  0  0  0  0  0  0
  -23.4055  -29.0543   23.4176 O   0  0  0  0  0  0  0  0  0  0  0  0
  -21.1702  -30.8621   20.9824 O   0  0  0  0  0  0  0  0  0  0  0  0
  -22.1018  -27.8067   17.4729 O   0  0  0  0  0  0  0  0  0  0  0  0
  -31.5760  -15.4184   19.2718 O   0  0  0  0  0  0  0  0  0  0  0  0
  -29.8611  -24.1140   19.4074 O   0  0  0  0  0  0  0  0  0  0  0  0
  -22.3555   -8.0447   24.8012 O   0  0  0  0  0  0  0  0  0  0  0  0
  -28.3259  -26.4538   19.8776 O   0  0  0  0  0  0  0  0  0  1  0  0
  -17.3472   -6.2457   23.3576 F   0  0  0  0  0  0  0  0  0  0  0  0
  -21.9128   -5.3720   24.2502 F   0  0  0  0  0  0  0  0  0  0  0  0
  -31.7889  -18.0292   20.4720 S   0  0  0  0  0  0  0  0  0  0  0  0
  1  2  1  0  0  0  0
  1  5  2  0  0  0  0
  2  6  2  0  0  0  0
  3  8  2  0  0  0  0
  3 16  1  0  0  0  0
  4  9  1  0  0  0  0
  4 16  2  0  0  0  0
  5 18  1  0  0  0  0
  6 20  1  0  0  0  0
  7 10  2  0  0  0  0
  7 19  1  0  0  0  0
  8 24  1  0  0  0  0
  9 24  2  0  0  0  0
 10 25  1  0  0  0  0
 11 12  2  0  0  0  0
 11 26  1  0  0  0  0
 12 27  1  0  0  0  0
 13 21  1  0  0  0  0
 13 25  2  0  0  0  0
 14 27  2  0  0  0  0
 14 28  1  0  0  0  0
 15 23  2  0  0  0  0
 15 85  1  0  0  0  0
 16 29  1  0  0  0  0
 17 29  1  0  0  0  0
 17 30  2  0  0  0  0
 17 33  1  0  0  0  0
 18 20  2  0  0  0  0
 18 41  1  0  0  0  0
 19 21  2  0  0  0  0
 19 42  1  0  0  0  0
 20 50  1  0  0  0  0
 21 43  1  0  0  0  0
 22 23  1  0  0  0  0
 22 31  2  0  0  0  0
 22 53  1  0  0  0  0
 23 68  1  0  0  0  0
 24 81  1  0  0  0  0
 25 82  1  0  0  0  0
 26 28  2  0  0  0  0
 26 81  1  0  0  0  0
 27 83  1  0  0  0  0
 28 84  1  0  0  0  0
 29 62  2  0  0  0  0
 30 63  1  0  0  0  0
 30 66  1  0  0  0  0
 31 69  1  0  0  0  0
 31 85  1  0  0  0  0
 32 34  2  0  0  0  0
 32 82  1  0  0  0  0
 33 67  1  0  0  0  0
 33 73  2  0  0  0  0
 34 35  1  0  0  0  0
 34 80  1  0  0  0  0
 35 36  1  0  0  0  0
 35 74  2  0  0  0  0
 36 68  1  0  0  0  0
 36 75  2  0  0  0  0
 37 51  1  0  0  0  0
 37 70  1  0  0  0  0
 37 76  2  0  0  0  0
 38 59  1  0  0  0  0
 38 64  1  0  0  0  0
 38 77  2  0  0  0  0
 39 60  1  0  0  0  0
 39 71  1  0  0  0  0
 39 78  2  0  0  0  0
 40 65  1  0  0  0  0
 40 69  1  0  0  0  0
 40 79  2  0  0  0  0
 41 44  1  0  0  0  0
 42 51  1  0  0  0  0
 43 64  1  0  0  0  0
 44 46  1  0  0  0  0
 45 47  1  0  0  0  0
 45 48  1  0  0  0  0
 46 50  1  0  0  0  0
 47 52  1  0  0  0  0
 48 65  1  0  0  0  0
 49 52  1  0  0  0  0
 49 65  1  0  0  0  0
 50 70  1  0  0  0  0
 51 64  1  0  0  0  0
 52 63  1  0  0  0  0
 54 60  1  0  0  0  0
 55 61  1  0  0  0  0
 56 61  1  0  0  0  0
 57 61  1  0  0  0  0
 58 72  1  0  0  0  0
 59 61  1  0  0  0  0
 59 71  1  0  0  0  0
 60 72  1  0  0  0  0
 62 63  1  0  0  0  0
M  CHG  1  72   1
M  ISO  4  32 101  40 100  69 100  82 101
M  END
> <Batch ID>
0176

> <Smiles>
CNC(C)C(=O)NC(C(=O)N1Cc2cc([101O:1][101CH2:1]C(=O)C(=O)C(=O)Nc3csc([100NH:0][100C:0](=O)N4CCCC(n5nc(-c6ccc(Oc7ccc(F)cc7F)cc6)c(C(N)=O)c5N)C4)c3C)ccc2CC1C(=O)NC1CCCc2ccccc21)C(C)(C)C

> <Shape>
0.330

> <Color>
0.175

> <Negative vol penalty>
0.000

$$$$

  -OEChem-04052304383D

 85 93  0     1  0  0  0  0  0999 V2000
  -23.0897   -8.9470   20.9604 C   0  0  0  0  0  0  0  0  0  0  0  0
  -23.8185   -9.6888   21.8845 C   0  0  0  0  0  0  0  0  0  0  0  0
  -24.2916  -29.4619   20.5005 C   0  0  0  0  0  0  0  0  0  0  0  0
  -24.2253  -27.7681   22.2221 C   0  0  0  0  0  0  0  0  0  0  0  0
  -22.7936   -9.4896   19.7106 C   0  0  0  0  0  0  0  0  0  0  0  0
  -24.2527  -10.9733   21.5589 C   0  0  0  0  0  0  0  0  0  0  0  0
  -24.7582  -15.7592   25.3464 C   0  0  0  0  0  0  0  0  0  0  0  0
  -22.9884  -29.8404   20.8227 C   0  0  0  0  0  0  0  0  0  0  0  0
  -22.9220  -28.1467   22.5443 C   0  0  0  0  0  0  0  0  0  0  0  0
  -25.8460  -16.3088   26.0233 C   0  0  0  0  0  0  0  0  0  0  0  0
  -19.8101  -27.6581   21.3162 C   0  0  0  0  0  0  0  0  0  0  0  0
  -18.8699  -26.6458   21.5080 C   0  0  0  0  0  0  0  0  0  0  0  0
  -26.1314  -17.9161   24.2472 C   0  0  0  0  0  0  0  0  0  0  0  0
  -18.5068  -27.4116   23.7705 C   0  0  0  0  0  0  0  0  0  0  0  0
  -24.9101  -28.4257   21.2002 C   0  0  0  0  0  0  0  0  0  0  0  0
  -27.4494  -28.5427   21.4143 C   0  0  0  0  0  0  0  0  0  0  0  0
  -23.2161  -10.7850   19.3731 C   0  0  0  0  0  0  0  0  0  0  0  0
  -24.3549  -16.2777   24.1075 C   0  0  0  0  0  0  0  0  0  0  0  0
  -23.9632  -11.5331   20.3029 C   0  0  0  0  0  0  0  0  0  0  0  0
  -25.0366  -17.3728   23.5578 C   0  0  0  0  0  0  0  0  0  0  0  0
  -22.3036  -29.1828   21.8446 C   0  0  0  0  0  0  0  0  0  0  0  0
  -26.5346  -17.3856   25.4724 C   0  0  0  0  0  0  0  0  0  0  0  0
  -20.0988  -28.5471   22.3516 C   0  0  0  0  0  0  0  0  0  0  0  0
  -18.2182  -26.5225   22.7351 C   0  0  0  0  0  0  0  0  0  0  0  0
  -19.4471  -28.4239   23.5787 C   0  0  0  0  0  0  0  0  0  0  0  0
  -26.2562  -28.0338   20.8675 C   0  0  0  0  0  0  0  0  0  0  0  0
  -30.2156  -19.4456   21.6496 C   0  0  0  0  0  0  0  0  0  0  0  0
  -30.0580  -18.9761   20.3625 C   0  0  0  0  0  0  0  0  0  0  0  0
  -28.4451  -27.8488   20.7712 C   0  0  0  0  0  0  0  0  0  0  0  0
  -29.4351  -21.0531   20.0343 C   0  0  0  0  0  0  0  0  0  0  0  0
  -27.6407  -29.5522   22.4143 C   0  0  0  0  0  0  0  0  0  0  0  0
  -30.6700  -18.7556   22.8844 C   0  0  0  0  0  0  0  0  0  0  0  0
  -24.1491  -15.1243   21.1527 C   0  0  0  0  0  0  0  0  0  0  0  0
  -29.9690  -18.4046   26.0327 C   0  0  0  0  0  0  0  0  0  0  0  0
  -22.7602  -17.9925   20.5474 C   0  0  0  0  0  0  0  0  0  0  0  0
  -22.3647  -21.2645   21.4332 C   0  0  0  0  0  0  0  0  0  0  0  0
  -28.6365  -22.4933   18.1279 C   0  0  0  0  0  0  0  0  0  0  0  0
  -22.9128  -11.3109   17.9925 C   0  0  0  0  0  0  0  0  0  0  0  0
  -23.1628  -15.6907   23.4027 C   0  0  0  0  0  0  0  0  0  0  0  0
  -24.6309  -17.9794   22.2402 C   0  0  0  0  0  0  0  0  0  0  0  0
  -23.0876  -12.8219   17.8642 C   0  0  0  0  0  0  0  0  0  0  0  0
  -29.3943  -25.6344   16.6324 C   0  0  0  0  0  0  0  0  0  0  0  0
  -24.4036  -13.2627   18.4972 C   0  0  0  0  0  0  0  0  0  0  0  0
  -28.7895  -26.6527   17.6016 C   0  0  0  0  0  0  0  0  0  0  0  0
  -28.5297  -24.3804   16.5148 C   0  0  0  0  0  0  0  0  0  0  0  0
  -27.5877  -24.7551   18.7601 C   0  0  0  0  0  0  0  0  0  0  0  0
  -24.4305  -12.9394   19.9960 C   0  0  1  0  0  0  0  0  0  0  0  0
  -23.1586  -15.9692   21.9028 C   0  0  1  0  0  0  0  0  0  0  0  0
  -28.4562  -26.0076   18.9612 C   0  0  2  0  0  0  0  0  0  0  0  0
  -31.7757  -20.1355   26.1213 C   0  0  0  0  0  0  0  0  0  0  0  0
  -21.1970  -23.3697   20.7249 C   0  0  0  0  0  0  0  0  0  0  0  0
  -24.7945  -18.3631   18.3037 C   0  0  0  0  0  0  0  0  0  0  0  0
  -24.2157  -20.7988   18.2756 C   0  0  0  0  0  0  0  0  0  0  0  0
  -22.4719  -19.0979   17.7379 C   0  0  0  0  0  0  0  0  0  0  0  0
  -20.8518  -21.4174   23.9722 C   0  0  0  0  0  0  0  0  0  0  0  0
  -28.6258  -18.5097   25.3341 C   0  0  0  0  0  0  0  0  0  1  0  0
  -31.1582  -19.0139   25.3032 C   0  0  2  0  0  0  0  0  0  0  0  0
  -23.2585  -19.3541   20.1270 C   0  0  1  0  0  0  0  0  0  0  0  0
  -21.1222  -22.1221   21.5913 C   0  0  2  0  0  0  0  0  0  0  0  0
  -23.6942  -19.3911   18.6350 C   0  0  0  0  0  0  0  0  0  0  0  0
  -26.4719  -27.0897   19.9477 N   0  0  0  0  0  0  0  0  0  0  0  0
  -29.6101  -19.8963   19.4350 N   0  0  0  0  0  0  0  0  0  0  0  0
  -27.8123  -26.9998   19.9115 N   0  0  0  0  0  0  0  0  0  0  0  0
  -23.4630  -17.3662   21.5865 N   0  0  0  0  0  0  0  0  0  0  0  0
  -28.2584  -23.8220   17.8412 N   0  0  0  0  0  0  0  0  0  0  0  0
  -30.3160  -17.7002   19.9874 N   0  0  0  0  0  0  0  0  0  0  0  0
  -29.7914  -27.8881   20.8628 N   0  0  0  0  0  0  0  0  0  0  0  0
  -26.5093  -30.1638   22.9713 N   0  0  0  0  0  0  0  0  0  0  0  0
  -28.9874  -22.2680   19.4585 N   0  0  0  0  0  0  0  0  0  0  0  0
  -30.7141  -19.5345   24.0289 N   0  0  0  0  0  0  0  0  0  0  0  0
  -23.6476  -13.9061   20.7356 N   0  0  0  0  0  0  0  0  0  0  0  0
  -22.1985  -20.2985   20.4635 N   0  0  0  0  0  0  0  0  0  0  0  0
  -20.9618  -22.5450   23.0113 N   0  3  0  0  0  0  0  0  0  0  0  0
  -28.7816  -29.9133   22.7905 O   0  0  0  0  0  0  0  0  0  0  0  0
  -30.9934  -17.5722   22.8259 O   0  0  0  0  0  0  0  0  0  0  0  0
  -25.2840  -15.5469   20.9650 O   0  0  0  0  0  0  0  0  0  0  0  0
  -30.0838  -17.8470   27.1245 O   0  0  0  0  0  0  0  0  0  0  0  0
  -21.7791  -17.5058   19.9798 O   0  0  0  0  0  0  0  0  0  0  0  0
  -23.3824  -21.4369   22.1004 O   0  0  0  0  0  0  0  0  0  0  0  0
  -28.6743  -21.6258   17.2514 O   0  0  0  0  0  0  0  0  0  0  0  0
  -21.0319  -29.5521   22.1594 O   0  0  0  0  0  0  0  0  0  0  0  0
  -27.5972  -17.9236   26.1307 O   0  0  0  0  0  0  0  0  0  1  0  0
  -17.3142  -25.5513   22.9186 F   0  0  0  0  0  0  0  0  0  0  0  0
  -19.7193  -29.2758   24.5767 F   0  0  0  0  0  0  0  0  0  0  0  0
  -29.7905  -21.1059   21.7124 S   0  0  0  0  0  0  0  0  0  0  0  0
  1  2  1  0  0  0  0
  1  5  2  0  0  0  0
  2  6  2  0  0  0  0
  3  8  2  0  0  0  0
  3 15  1  0  0  0  0
  4  9  1  0  0  0  0
  4 15  2  0  0  0  0
  5 17  1  0  0  0  0
  6 19  1  0  0  0  0
  7 10  2  0  0  0  0
  7 18  1  0  0  0  0
  8 21  1  0  0  0  0
  9 21  2  0  0  0  0
 10 22  1  0  0  0  0
 11 12  2  0  0  0  0
 11 23  1  0  0  0  0
 12 24  1  0  0  0  0
 13 20  1  0  0  0  0
 13 22  2  0  0  0  0
 14 24  2  0  0  0  0
 14 25  1  0  0  0  0
 15 26  1  0  0  0  0
 16 26  1  0  0  0  0
 16 29  2  0  0  0  0
 16 31  1  0  0  0  0
 17 19  2  0  0  0  0
 17 38  1  0  0  0  0
 18 20  2  0  0  0  0
 18 39  1  0  0  0  0
 19 47  1  0  0  0  0
 20 40  1  0  0  0  0
 21 81  1  0  0  0  0
 22 82  1  0  0  0  0
 23 25  2  0  0  0  0
 23 81  1  0  0  0  0
 24 83  1  0  0  0  0
 25 84  1  0  0  0  0
 26 61  2  0  0  0  0
 27 28  2  0  0  0  0
 27 32  1  0  0  0  0
 27 85  1  0  0  0  0
 28 62  1  0  0  0  0
 28 66  1  0  0  0  0
 29 63  1  0  0  0  0
 29 67  1  0  0  0  0
 30 62  2  0  0  0  0
 30 69  1  0  0  0  0
 30 85  1  0  0  0  0
 31 68  1  0  0  0  0
 31 74  2  0  0  0  0
 32 70  1  0  0  0  0
 32 75  2  0  0  0  0
 33 48  1  0  0  0  0
 33 71  1  0  0  0  0
 33 76  2  0  0  0  0
 34 56  1  0  0  0  0
 34 57  1  0  0  0  0
 34 77  2  0  0  0  0
 35 58  1  0  0  0  0
 35 64  1  0  0  0  0
 35 78  2  0  0  0  0
 36 59  1  0  0  0  0
 36 72  1  0  0  0  0
 36 79  2  0  0  0  0
 37 65  1  0  0  0  0
 37 69  1  0  0  0  0
 37 80  2  0  0  0  0
 38 41  1  0  0  0  0
 39 48  1  0  0  0  0
 40 64  1  0  0  0  0
 41 43  1  0  0  0  0
 42 44  1  0  0  0  0
 42 45  1  0  0  0  0
 43 47  1  0  0  0  0
 44 49  1  0  0  0  0
 45 65  1  0  0  0  0
 46 49  1  0  0  0  0
 46 65  1  0  0  0  0
 47 71  1  0  0  0  0
 48 64  1  0  0  0  0
 49 63  1  0  0  0  0
 50 57  1  0  0  0  0
 51 59  1  0  0  0  0
 52 60  1  0  0  0  0
 53 60  1  0  0  0  0
 54 60  1  0  0  0  0
 55 73  1  0  0  0  0
 56 82  1  0  0  0  0
 57 70  1  0  0  0  0
 58 60  1  0  0  0  0
 58 72  1  0  0  0  0
 59 73  1  0  0  0  0
 61 63  1  0  0  0  0
M  CHG  1  73   1
M  ISO  4  37 100  56 101  69 100  82 101
M  END
> <Batch ID>
0176

> <Smiles>
CNC(C)C(=O)NC(C(=O)N1Cc2cc([101O:1][101CH2:1]C(=O)C(C)NC(=O)c3sc([100NH:0][100C:0](=O)N4CCCC(n5nc(-c6ccc(Oc7ccc(F)cc7F)cc6)c(C(N)=O)c5N)C4)nc3N)ccc2CC1C(=O)NC1CCCc2ccccc21)C(C)(C)C

> <Shape>
0.221

> <Color>
0.064

> <Negative vol penalty>
0.000

$$$$

  -OEChem-04052304383D

 86 94  0     1  0  0  0  0  0999 V2000
  -26.3376  -24.4785   16.6446 C   0  0  0  0  0  0  0  0  0  0  0  0
  -25.2149  -24.9894   17.2881 C   0  0  0  0  0  0  0  0  0  0  0  0
  -27.2480  -15.9055   22.1930 C   0  0  0  0  0  0  0  0  0  0  0  0
  -25.8187  -16.3064   20.2868 C   0  0  0  0  0  0  0  0  0  0  0  0
  -27.5970  -24.6180   17.2265 C   0  0  0  0  0  0  0  0  0  0  0  0
  -25.3508  -25.6390   18.5144 C   0  0  0  0  0  0  0  0  0  0  0  0
  -22.6661  -29.9264   18.7498 C   0  0  0  0  0  0  0  0  0  0  0  0
  -27.0992  -14.5300   22.0152 C   0  0  0  0  0  0  0  0  0  0  0  0
  -25.6700  -14.9310   20.1090 C   0  0  0  0  0  0  0  0  0  0  0  0
  -21.2950  -29.8077   18.9728 C   0  0  0  0  0  0  0  0  0  0  0  0
  -28.3603  -12.1284   19.9966 C   0  0  0  0  0  0  0  0  0  0  0  0
  -29.5061  -11.3369   20.0760 C   0  0  0  0  0  0  0  0  0  0  0  0
  -21.6352  -30.3279   21.3036 C   0  0  0  0  0  0  0  0  0  0  0  0
  -20.6031  -23.1195   20.0188 C   0  0  0  0  0  0  0  0  0  0  0  0
  -28.5355  -10.1172   21.9220 C   0  0  0  0  0  0  0  0  0  0  0  0
  -26.6077  -16.7937   21.3288 C   0  0  0  0  0  0  0  0  0  0  0  0
  -27.7476  -19.0436   20.9462 C   0  0  0  0  0  0  0  0  0  0  0  0
  -27.7496  -25.2781   18.4559 C   0  0  0  0  0  0  0  0  0  0  0  0
  -23.5348  -30.2366   19.8060 C   0  0  0  0  0  0  0  0  0  0  0  0
  -26.6132  -25.7862   19.1140 C   0  0  0  0  0  0  0  0  0  0  0  0
  -23.0166  -30.4526   21.0909 C   0  0  0  0  0  0  0  0  0  0  0  0
  -19.5730  -24.0713   19.8287 C   0  0  0  0  0  0  0  0  0  0  0  0
  -26.3102  -14.0428   20.9733 C   0  0  0  0  0  0  0  0  0  0  0  0
  -20.7797  -30.0056   20.2504 C   0  0  0  0  0  0  0  0  0  0  0  0
  -27.3022  -11.9145   20.8800 C   0  0  0  0  0  0  0  0  0  0  0  0
  -29.5937  -10.3313   21.0387 C   0  0  0  0  0  0  0  0  0  0  0  0
  -27.3898  -10.9089   21.8426 C   0  0  0  0  0  0  0  0  0  0  0  0
  -26.7605  -18.2146   21.5122 C   0  0  0  0  0  0  0  0  0  0  0  0
  -27.4588  -20.2979   21.4256 C   0  0  0  0  0  0  0  0  0  0  0  0
  -21.0443  -23.2870   21.3107 C   0  0  0  0  0  0  0  0  0  0  0  0
  -19.4580  -24.7524   21.0181 C   0  0  0  0  0  0  0  0  0  0  0  0
  -28.8288  -18.7096   20.0658 C   0  0  0  0  0  0  0  0  0  0  0  0
  -25.9754  -28.7615   21.2100 C   0  0  0  0  0  0  0  0  0  0  0  0
  -17.7345  -28.6638   21.6717 C   0  0  0  0  0  0  0  0  0  0  0  0
  -26.2440  -31.5686   22.8132 C   0  0  0  0  0  0  0  0  0  0  0  0
  -24.7429  -34.4236   23.9279 C   0  0  0  0  0  0  0  0  0  0  0  0
  -18.5725  -26.4486   22.6590 C   0  0  0  0  0  0  0  0  0  0  0  0
  -22.4268  -22.8647   23.3739 C   0  0  0  0  0  0  0  0  0  0  0  0
  -29.1251  -25.3628   19.0686 C   0  0  0  0  0  0  0  0  0  0  0  0
  -25.0082  -30.3874   19.5436 C   0  0  0  0  0  0  0  0  0  0  0  0
  -23.9044  -30.8075   22.2547 C   0  0  0  0  0  0  0  0  0  0  0  0
  -29.2303  -26.3938   20.1894 C   0  0  0  0  0  0  0  0  0  0  0  0
  -25.4725  -22.5054   25.1827 C   0  0  0  0  0  0  0  0  0  0  0  0
  -28.0534  -26.2594   21.1505 C   0  0  0  0  0  0  0  0  0  0  0  0
  -26.2409  -21.4441   24.3918 C   0  0  0  0  0  0  0  0  0  0  0  0
  -23.9725  -22.2176   25.2090 C   0  0  0  0  0  0  0  0  0  0  0  0
  -24.1247  -20.9520   23.1008 C   0  0  0  0  0  0  0  0  0  0  0  0
  -26.7231  -26.5190   20.4334 C   0  0  1  0  0  0  0  0  0  0  0  0
  -25.8602  -30.2011   20.7953 C   0  0  1  0  0  0  0  0  0  0  0  0
  -25.6320  -21.2343   22.9915 C   0  0  2  0  0  0  0  0  0  0  0  0
  -18.7859  -24.2821   18.5996 C   0  0  0  0  0  0  0  0  0  0  0  0
  -25.2083  -36.5097   25.2427 C   0  0  0  0  0  0  0  0  0  0  0  0
  -16.1159  -26.9060   22.4973 C   0  0  0  0  0  0  0  0  0  0  0  0
  -17.4895  -28.2136   24.1094 C   0  0  0  0  0  0  0  0  0  0  0  0
  -26.1499  -29.9554   25.4014 C   0  0  0  0  0  0  0  0  0  0  0  0
  -25.6618  -32.0828   26.6279 C   0  0  0  0  0  0  0  0  0  0  0  0
  -27.8148  -31.8216   25.3953 C   0  0  0  0  0  0  0  0  0  0  0  0
  -24.1024  -36.1608   21.6190 C   0  0  0  0  0  0  0  0  0  0  0  0
  -19.0327  -29.4510   21.7658 C   0  0  0  0  0  0  0  0  0  1  0  0
  -25.6700  -32.1284   24.0923 C   0  0  1  0  0  0  0  0  0  0  0  0
  -25.1697  -35.8788   23.8596 C   0  0  2  0  0  0  0  0  0  0  0  0
  -17.4961  -27.5553   22.7184 C   0  0  0  0  0  0  0  0  0  0  0  0
  -26.3074  -31.4885   25.3579 C   0  0  0  0  0  0  0  0  0  0  0  0
  -25.9084  -18.8858   22.2917 N   0  0  0  0  0  0  0  0  0  0  0  0
  -26.3593  -20.1497   22.2189 N   0  0  0  0  0  0  0  0  0  0  0  0
  -25.3386  -30.9373   21.9487 N   0  0  0  0  0  0  0  0  0  0  0  0
  -23.4647  -22.0345   23.8475 N   0  0  0  0  0  0  0  0  0  0  0  0
  -28.0406  -21.5021   21.2417 N   0  0  0  0  0  0  0  0  0  0  0  0
  -28.9810  -17.3733   19.6716 N   0  0  0  0  0  0  0  0  0  0  0  0
  -18.6048  -25.8065   21.4236 N   0  0  0  0  0  0  0  0  0  0  0  0
  -22.0490  -22.6194   22.0542 N   0  0  0  0  0  0  0  0  0  0  0  0
  -26.5206  -27.9392   20.2425 N   0  0  0  0  0  0  0  0  0  0  0  0
  -25.8277  -33.5765   24.0111 N   0  0  0  0  0  0  0  0  0  0  0  0
  -24.2214  -36.6576   23.0140 N   0  3  0  0  0  0  0  0  0  0  0  0
  -29.6459  -19.5679   19.6545 O   0  0  0  0  0  0  0  0  0  0  0  0
  -25.5991  -28.4222   22.3258 O   0  0  0  0  0  0  0  0  0  0  0  0
  -16.9017  -28.9217   20.8005 O   0  0  0  0  0  0  0  0  0  0  0  0
  -27.4501  -31.6934   22.5861 O   0  0  0  0  0  0  0  0  0  0  0  0
  -23.5648  -34.0736   23.9130 O   0  0  0  0  0  0  0  0  0  0  0  0
  -19.2833  -26.1980   23.6295 O   0  0  0  0  0  0  0  0  0  0  0  0
  -21.9298  -23.7477   24.0777 O   0  0  0  0  0  0  0  0  0  0  0  0
  -20.3513  -24.2804   21.9268 O   0  0  0  0  0  0  0  0  0  0  0  0
  -26.1650  -12.7007   20.7994 O   0  0  0  0  0  0  0  0  0  0  0  0
  -19.4419  -29.8897   20.4710 O   0  0  0  0  0  0  0  0  0  1  0  0
  -30.6933   -9.5702   21.1138 F   0  0  0  0  0  0  0  0  0  0  0  0
  -26.3760  -10.6978   22.6932 F   0  0  0  0  0  0  0  0  0  0  0  0
  1  2  1  0  0  0  0
  1  5  2  0  0  0  0
  2  6  2  0  0  0  0
  3  8  2  0  0  0  0
  3 16  1  0  0  0  0
  4  9  1  0  0  0  0
  4 16  2  0  0  0  0
  5 18  1  0  0  0  0
  6 20  1  0  0  0  0
  7 10  2  0  0  0  0
  7 19  1  0  0  0  0
  8 23  1  0  0  0  0
  9 23  2  0  0  0  0
 10 24  1  0  0  0  0
 11 12  2  0  0  0  0
 11 25  1  0  0  0  0
 12 26  1  0  0  0  0
 13 21  1  0  0  0  0
 13 24  2  0  0  0  0
 14 22  1  0  0  0  0
 14 30  2  0  0  0  0
 15 26  2  0  0  0  0
 15 27  1  0  0  0  0
 16 28  1  0  0  0  0
 17 28  1  0  0  0  0
 17 29  2  0  0  0  0
 17 32  1  0  0  0  0
 18 20  2  0  0  0  0
 18 39  1  0  0  0  0
 19 21  2  0  0  0  0
 19 40  1  0  0  0  0
 20 48  1  0  0  0  0
 21 41  1  0  0  0  0
 22 31  2  0  0  0  0
 22 51  1  0  0  0  0
 23 83  1  0  0  0  0
 24 84  1  0  0  0  0
 25 27  2  0  0  0  0
 25 83  1  0  0  0  0
 26 85  1  0  0  0  0
 27 86  1  0  0  0  0
 28 64  2  0  0  0  0
 29 65  1  0  0  0  0
 29 68  1  0  0  0  0
 30 71  1  0  0  0  0
 30 82  1  0  0  0  0
 31 70  1  0  0  0  0
 31 82  1  0  0  0  0
 32 69  1  0  0  0  0
 32 75  2  0  0  0  0
 33 49  1  0  0  0  0
 33 72  1  0  0  0  0
 33 76  2  0  0  0  0
 34 59  1  0  0  0  0
 34 62  1  0  0  0  0
 34 77  2  0  0  0  0
 35 60  1  0  0  0  0
 35 66  1  0  0  0  0
 35 78  2  0  0  0  0
 36 61  1  0  0  0  0
 36 73  1  0  0  0  0
 36 79  2  0  0  0  0
 37 62  1  0  0  0  0
 37 70  1  0  0  0  0
 37 80  2  0  0  0  0
 38 67  1  0  0  0  0
 38 71  1  0  0  0  0
 38 81  2  0  0  0  0
 39 42  1  0  0  0  0
 40 49  1  0  0  0  0
 41 66  1  0  0  0  0
 42 44  1  0  0  0  0
 43 45  1  0  0  0  0
 43 46  1  0  0  0  0
 44 48  1  0  0  0  0
 45 50  1  0  0  0  0
 46 67  1  0  0  0  0
 47 50  1  0  0  0  0
 47 67  1  0  0  0  0
 48 72  1  0  0  0  0
 49 66  1  0  0  0  0
 50 65  1  0  0  0  0
 52 61  1  0  0  0  0
 53 62  1  0  0  0  0
 54 62  1  0  0  0  0
 55 63  1  0  0  0  0
 56 63  1  0  0  0  0
 57 63  1  0  0  0  0
 58 74  1  0  0  0  0
 59 84  1  0  0  0  0
 60 63  1  0  0  0  0
 60 73  1  0  0  0  0
 61 74  1  0  0  0  0
 64 65  1  0  0  0  0
M  CHG  1  74   1
M  ISO  4  38 100  59 101  71 100  84 101
M  END
> <Batch ID>
0176

> <Smiles>
CNC(C)C(=O)NC(C(=O)N1Cc2cc([101O:1][101CH2:1]C(=O)C(C)(C)C(=O)Nc3oc([100NH:0][100C:0](=O)N4CCCC(n5nc(-c6ccc(Oc7ccc(F)cc7F)cc6)c(C(N)=O)c5N)C4)cc3C)ccc2CC1C(=O)NC1CCCc2ccccc21)C(C)(C)C

> <Shape>
0.286

> <Color>
0.059

> <Negative vol penalty>
0.000

$$$$

  -OEChem-04052304383D

 85 93  0     1  0  0  0  0  0999 V2000
  -20.4919  -26.8361   18.4876 C   0  0  0  0  0  0  0  0  0  0  0  0
  -21.4656  -26.5629   19.4429 C   0  0  0  0  0  0  0  0  0  0  0  0
  -23.0488   -9.8410   19.9432 C   0  0  0  0  0  0  0  0  0  0  0  0
  -23.8025   -9.8460   22.2386 C   0  0  0  0  0  0  0  0  0  0  0  0
  -20.0143  -28.1369   18.3329 C   0  0  0  0  0  0  0  0  0  0  0  0
  -21.9631  -27.5906   20.2435 C   0  0  0  0  0  0  0  0  0  0  0  0
  -22.3078  -26.2624   25.1181 C   0  0  0  0  0  0  0  0  0  0  0  0
  -22.3066   -8.6860   20.1894 C   0  0  0  0  0  0  0  0  0  0  0  0
  -23.0602   -8.6910   22.4849 C   0  0  0  0  0  0  0  0  0  0  0  0
  -23.3893  -25.4627   25.4852 C   0  0  0  0  0  0  0  0  0  0  0  0
  -23.3591   -5.3704   21.9233 C   0  0  0  0  0  0  0  0  0  0  0  0
  -23.9747   -4.3452   22.6414 C   0  0  0  0  0  0  0  0  0  0  0  0
  -24.5406  -27.4122   26.3177 C   0  0  0  0  0  0  0  0  0  0  0  0
  -22.2683   -4.5130   24.3436 C   0  0  0  0  0  0  0  0  0  0  0  0
  -23.7969  -10.4209   20.9678 C   0  0  0  0  0  0  0  0  0  0  0  0
  -24.1341  -12.9469   20.8525 C   0  0  0  0  0  0  0  0  0  0  0  0
  -20.4992  -29.1792   19.1385 C   0  0  0  0  0  0  0  0  0  0  0  0
  -22.3393  -27.6469   25.3385 C   0  0  0  0  0  0  0  0  0  0  0  0
  -21.4925  -28.9067   20.0985 C   0  0  0  0  0  0  0  0  0  0  0  0
  -23.4572  -28.2269   25.9548 C   0  0  0  0  0  0  0  0  0  0  0  0
  -22.3122   -8.1110   21.4602 C   0  0  0  0  0  0  0  0  0  0  0  0
  -24.5071  -26.0380   26.0825 C   0  0  0  0  0  0  0  0  0  0  0  0
  -22.1982   -5.9670   22.4154 C   0  0  0  0  0  0  0  0  0  0  0  0
  -23.4293   -3.9165   23.8515 C   0  0  0  0  0  0  0  0  0  0  0  0
  -21.6528   -5.5382   23.6255 C   0  0  0  0  0  0  0  0  0  0  0  0
  -24.5643  -11.6137   20.7139 C   0  0  0  0  0  0  0  0  0  0  0  0
  -30.6555  -19.0770   23.0306 C   0  0  0  0  0  0  0  0  0  0  0  0
  -31.7603  -18.7132   22.2896 C   0  0  0  0  0  0  0  0  0  0  0  0
  -25.2258  -13.6991   20.4933 C   0  0  0  0  0  0  0  0  0  0  0  0
  -30.5273  -16.9338   21.9385 C   0  0  0  0  0  0  0  0  0  0  0  0
  -30.3943  -20.2958   23.8167 C   0  0  0  0  0  0  0  0  0  0  0  0
  -29.1802  -20.8422   23.9994 C   0  0  0  0  0  0  0  0  0  0  0  0
  -27.6513  -22.5196   24.8904 C   0  0  0  0  0  0  0  0  0  0  0  0
  -22.8615  -13.4596   21.2687 C   0  0  0  0  0  0  0  0  0  0  0  0
  -28.9054  -22.0496   24.7648 C   0  0  0  0  0  0  0  0  0  0  0  0
  -27.2782  -23.7474   25.6562 C   0  0  0  0  0  0  0  0  0  0  0  0
  -22.2312  -30.2183   23.4730 C   0  0  0  0  0  0  0  0  0  0  0  0
  -22.1131  -31.7902   26.3080 C   0  0  0  0  0  0  0  0  0  0  0  0
  -22.7982  -31.7906   29.6513 C   0  0  0  0  0  0  0  0  0  0  0  0
  -30.6894  -14.7550   20.6844 C   0  0  0  0  0  0  0  0  0  0  0  0
  -19.9868  -30.5779   18.9023 C   0  0  0  0  0  0  0  0  0  0  0  0
  -21.1536  -28.4920   24.9611 C   0  0  0  0  0  0  0  0  0  0  0  0
  -23.5321  -29.7055   26.2318 C   0  0  0  0  0  0  0  0  0  0  0  0
  -20.2953  -31.5409   20.0459 C   0  0  0  0  0  0  0  0  0  0  0  0
  -29.5861  -12.3427   18.3094 C   0  0  0  0  0  0  0  0  0  0  0  0
  -21.7506  -31.4032   20.4818 C   0  0  0  0  0  0  0  0  0  0  0  0
  -28.1459  -12.0477   18.7346 C   0  0  0  0  0  0  0  0  0  0  0  0
  -30.4975  -12.5714   19.5139 C   0  0  0  0  0  0  0  0  0  0  0  0
  -28.5855  -13.2900   20.8911 C   0  0  0  0  0  0  0  0  0  0  0  0
  -22.0391  -29.9901   21.0028 C   0  0  1  0  0  0  0  0  0  0  0  0
  -21.5066  -29.9630   24.7643 C   0  0  1  0  0  0  0  0  0  0  0  0
  -27.6161  -13.1167   19.7104 C   0  0  2  0  0  0  0  0  0  0  0  0
  -32.9941  -19.5080   22.1099 C   0  0  0  0  0  0  0  0  0  0  0  0
  -22.6207  -33.2313   31.6983 C   0  0  0  0  0  0  0  0  0  0  0  0
  -24.4915  -33.4430   25.3480 C   0  0  0  0  0  0  0  0  0  0  0  0
  -24.8581  -34.1636   27.7176 C   0  0  0  0  0  0  0  0  0  0  0  0
  -22.7315  -34.7493   26.5525 C   0  0  0  0  0  0  0  0  0  0  0  0
  -21.0382  -29.8397   31.0134 C   0  0  0  0  0  0  0  0  0  0  0  0
  -25.8024  -24.0883   25.6619 C   0  0  0  0  0  0  0  0  0  1  0  0
  -23.1388  -32.3564   27.2600 C   0  0  1  0  0  0  0  0  0  0  0  0
  -21.9483  -32.1602   30.8536 C   0  0  2  0  0  0  0  0  0  0  0  0
  -23.8047  -33.6505   26.7127 C   0  0  0  0  0  0  0  0  0  0  0  0
  -25.8305  -11.5210   20.2989 N   0  0  0  0  0  0  0  0  0  0  0  0
  -31.6888  -17.4844   21.6630 N   0  0  0  0  0  0  0  0  0  0  0  0
  -26.2052  -12.8055   20.1735 N   0  0  0  0  0  0  0  0  0  0  0  0
  -22.3502  -30.4904   25.8387 N   0  0  0  0  0  0  0  0  0  0  0  0
  -29.9342  -13.5998   20.3913 N   0  0  0  0  0  0  0  0  0  0  0  0
  -25.4338  -15.0311   20.4228 N   0  0  0  0  0  0  0  0  0  0  0  0
  -21.8504  -12.5480   21.6019 N   0  0  0  0  0  0  0  0  0  0  0  0
  -30.0381  -15.6775   21.5025 N   0  0  0  0  0  0  0  0  0  0  0  0
  -21.5279  -29.8331   22.3476 N   0  0  0  0  0  0  0  0  0  0  0  0
  -22.4574  -32.5298   28.5383 N   0  0  0  0  0  0  0  0  0  0  0  0
  -21.7150  -30.9635   31.7106 N   0  3  0  0  0  0  0  0  0  0  0  0
  -22.6227  -14.6897   21.3273 O   0  0  0  0  0  0  0  0  0  0  0  0
  -28.1113  -24.4334   26.2410 O   0  0  0  0  0  0  0  0  0  0  0  0
  -23.3452  -30.7284   23.4959 O   0  0  0  0  0  0  0  0  0  0  0  0
  -21.1338  -32.4732   25.9980 O   0  0  0  0  0  0  0  0  0  0  0  0
  -23.6789  -30.9345   29.6960 O   0  0  0  0  0  0  0  0  0  0  0  0
  -31.8195  -14.9266   20.2201 O   0  0  0  0  0  0  0  0  0  0  0  0
  -30.0158  -22.6424   25.3294 O   0  0  0  0  0  0  0  0  0  0  0  0
  -21.5878   -6.9841   21.7009 O   0  0  0  0  0  0  0  0  0  0  0  0
  -25.5642  -25.2598   26.4411 O   0  0  0  0  0  0  0  0  0  1  0  0
  -24.0196   -2.9309   24.5402 F   0  0  0  0  0  0  0  0  0  0  0  0
  -20.5370   -6.1067   24.1027 F   0  0  0  0  0  0  0  0  0  0  0  0
  -29.4721  -17.8386   22.9449 S   0  0  0  0  0  0  0  0  0  0  0  0
  1  2  1  0  0  0  0
  1  5  2  0  0  0  0
  2  6  2  0  0  0  0
  3  8  2  0  0  0  0
  3 15  1  0  0  0  0
  4  9  1  0  0  0  0
  4 15  2  0  0  0  0
  5 17  1  0  0  0  0
  6 19  1  0  0  0  0
  7 10  2  0  0  0  0
  7 18  1  0  0  0  0
  8 21  1  0  0  0  0
  9 21  2  0  0  0  0
 10 22  1  0  0  0  0
 11 12  2  0  0  0  0
 11 23  1  0  0  0  0
 12 24  1  0  0  0  0
 13 20  1  0  0  0  0
 13 22  2  0  0  0  0
 14 24  2  0  0  0  0
 14 25  1  0  0  0  0
 15 26  1  0  0  0  0
 16 26  1  0  0  0  0
 16 29  2  0  0  0  0
 16 34  1  0  0  0  0
 17 19  2  0  0  0  0
 17 41  1  0  0  0  0
 18 20  2  0  0  0  0
 18 42  1  0  0  0  0
 19 50  1  0  0  0  0
 20 43  1  0  0  0  0
 21 81  1  0  0  0  0
 22 82  1  0  0  0  0
 23 25  2  0  0  0  0
 23 81  1  0  0  0  0
 24 83  1  0  0  0  0
 25 84  1  0  0  0  0
 26 63  2  0  0  0  0
 27 28  2  0  0  0  0
 27 31  1  0  0  0  0
 27 85  1  0  0  0  0
 28 53  1  0  0  0  0
 28 64  1  0  0  0  0
 29 65  1  0  0  0  0
 29 68  1  0  0  0  0
 30 64  2  0  0  0  0
 30 70  1  0  0  0  0
 30 85  1  0  0  0  0
 31 32  2  0  0  0  0
 32 35  1  0  0  0  0
 33 35  2  0  0  0  0
 33 36  1  0  0  0  0
 34 69  1  0  0  0  0
 34 74  2  0  0  0  0
 35 80  1  0  0  0  0
 36 59  1  0  0  0  0
 36 75  2  0  0  0  0
 37 51  1  0  0  0  0
 37 71  1  0  0  0  0
 37 76  2  0  0  0  0
 38 60  1  0  0  0  0
 38 66  1  0  0  0  0
 38 77  2  0  0  0  0
 39 61  1  0  0  0  0
 39 72  1  0  0  0  0
 39 78  2  0  0  0  0
 40 67  1  0  0  0  0
 40 70  1  0  0  0  0
 40 79  2  0  0  0  0
 41 44  1  0  0  0  0
 42 51  1  0  0  0  0
 43 66  1  0  0  0  0
 44 46  1  0  0  0  0
 45 47  1  0  0  0  0
 45 48  1  0  0  0  0
 46 50  1  0  0  0  0
 47 52  1  0  0  0  0
 48 67  1  0  0  0  0
 49 52  1  0  0  0  0
 49 67  1  0  0  0  0
 50 71  1  0  0  0  0
 51 66  1  0  0  0  0
 52 65  1  0  0  0  0
 54 61  1  0  0  0  0
 55 62  1  0  0  0  0
 56 62  1  0  0  0  0
 57 62  1  0  0  0  0
 58 73  1  0  0  0  0
 59 82  1  0  0  0  0
 60 62  1  0  0  0  0
 60 72  1  0  0  0  0
 61 73  1  0  0  0  0
 63 65  1  0  0  0  0
M  CHG  1  73   1
M  ISO  4  40 100  59 101  70 100  82 101
M  END
> <Batch ID>
0176

> <Smiles>
CNC(C)C(=O)NC(C(=O)N1Cc2cc([101O:1][101CH2:1]C(=O)CC(=O)C=Cc3sc([100NH:0][100C:0](=O)N4CCCC(n5nc(-c6ccc(Oc7ccc(F)cc7F)cc6)c(C(N)=O)c5N)C4)nc3C)ccc2CC1C(=O)NC1CCCc2ccccc21)C(C)(C)C

> <Shape>
0.220

> <Color>
0.215

> <Negative vol penalty>
0.000

$$$$

  -OEChem-04052304383D

 85 93  0     1  0  0  0  0  0999 V2000
  -18.2510  -28.7542   21.5879 C   0  0  0  0  0  0  0  0  0  0  0  0
  -19.5040  -28.3971   22.0757 C   0  0  0  0  0  0  0  0  0  0  0  0
  -22.9849  -10.0034   19.9575 C   0  0  0  0  0  0  0  0  0  0  0  0
  -23.8189   -9.8967   22.2225 C   0  0  0  0  0  0  0  0  0  0  0  0
  -17.0998  -28.2431   22.1857 C   0  0  0  0  0  0  0  0  0  0  0  0
  -19.6064  -27.5295   23.1626 C   0  0  0  0  0  0  0  0  0  0  0  0
  -23.1319  -23.9601   22.4734 C   0  0  0  0  0  0  0  0  0  0  0  0
  -22.1993   -8.8753   20.1936 C   0  0  0  0  0  0  0  0  0  0  0  0
  -23.0332   -8.7686   22.4586 C   0  0  0  0  0  0  0  0  0  0  0  0
  -24.4621  -24.3353   22.6567 C   0  0  0  0  0  0  0  0  0  0  0  0
  -19.7943   -8.0899   23.1438 C   0  0  0  0  0  0  0  0  0  0  0  0
  -19.0750   -8.0414   24.3379 C   0  0  0  0  0  0  0  0  0  0  0  0
  -24.4288  -23.3542   24.8603 C   0  0  0  0  0  0  0  0  0  0  0  0
  -20.2528   -6.0274   24.9655 C   0  0  0  0  0  0  0  0  0  0  0  0
  -32.1753  -18.3895   22.2661 C   0  0  0  0  0  0  0  0  0  0  0  0
  -23.7948  -10.5141   20.9720 C   0  0  0  0  0  0  0  0  0  0  0  0
  -24.2440  -13.0248   20.9258 C   0  0  0  0  0  0  0  0  0  0  0  0
  -17.1884  -27.3612   23.2743 C   0  0  0  0  0  0  0  0  0  0  0  0
  -22.4357  -23.2877   23.4881 C   0  0  0  0  0  0  0  0  0  0  0  0
  -18.4553  -27.0072   23.7764 C   0  0  0  0  0  0  0  0  0  0  0  0
  -23.0906  -22.9694   24.6864 C   0  0  0  0  0  0  0  0  0  0  0  0
  -22.2234   -8.2579   21.4442 C   0  0  0  0  0  0  0  0  0  0  0  0
  -25.1099  -24.0349   23.8514 C   0  0  0  0  0  0  0  0  0  0  0  0
  -20.7429   -7.1072   22.8605 C   0  0  0  0  0  0  0  0  0  0  0  0
  -19.3043   -7.0102   25.2487 C   0  0  0  0  0  0  0  0  0  0  0  0
  -20.9721   -6.0760   23.7714 C   0  0  0  0  0  0  0  0  0  0  0  0
  -24.6070  -11.6791   20.7285 C   0  0  0  0  0  0  0  0  0  0  0  0
  -31.1159  -18.7770   23.0597 C   0  0  0  0  0  0  0  0  0  0  0  0
  -25.3558  -13.7389   20.5510 C   0  0  0  0  0  0  0  0  0  0  0  0
  -30.8489  -16.6810   21.9029 C   0  0  0  0  0  0  0  0  0  0  0  0
  -23.0119  -13.5798   21.4051 C   0  0  0  0  0  0  0  0  0  0  0  0
  -27.9846  -22.0557   22.7768 C   0  0  0  0  0  0  0  0  0  0  0  0
  -28.7067  -20.9943   23.5543 C   0  0  0  0  0  0  0  0  0  0  0  0
  -19.8653  -23.9244   25.2464 C   0  0  0  0  0  0  0  0  0  0  0  0
  -20.3166  -20.8907   26.3027 C   0  0  0  0  0  0  0  0  0  0  0  0
  -22.4632  -18.2838   26.7958 C   0  0  0  0  0  0  0  0  0  0  0  0
  -30.8657  -14.5409   20.5741 C   0  0  0  0  0  0  0  0  0  0  0  0
  -15.9151  -26.8718   23.9176 C   0  0  0  0  0  0  0  0  0  0  0  0
  -21.0093  -22.8663   23.2645 C   0  0  0  0  0  0  0  0  0  0  0  0
  -22.3939  -22.2311   25.7990 C   0  0  0  0  0  0  0  0  0  0  0  0
  -16.1180  -25.6633   24.8278 C   0  0  0  0  0  0  0  0  0  0  0  0
  -29.5687  -12.2626   18.1648 C   0  0  0  0  0  0  0  0  0  0  0  0
  -17.3159  -25.8820   25.7465 C   0  0  0  0  0  0  0  0  0  0  0  0
  -28.1323  -12.0184   18.6333 C   0  0  0  0  0  0  0  0  0  0  0  0
  -30.5318  -12.4091   19.3416 C   0  0  0  0  0  0  0  0  0  0  0  0
  -28.7050  -13.1659   20.8110 C   0  0  0  0  0  0  0  0  0  0  0  0
  -18.6080  -26.0492   24.9379 C   0  0  1  0  0  0  0  0  0  0  0  0
  -20.2424  -22.6401   24.5637 C   0  0  1  0  0  0  0  0  0  0  0  0
  -27.6875  -13.0765   19.6619 C   0  0  2  0  0  0  0  0  0  0  0  0
  -22.5495  -15.9496   27.7131 C   0  0  0  0  0  0  0  0  0  0  0  0
  -27.7365  -25.8935   22.7097 C   0  0  0  0  0  0  0  0  0  0  0  0
  -20.2853  -22.0079   29.1418 C   0  0  0  0  0  0  0  0  0  0  0  0
  -21.3025  -19.8582   29.9244 C   0  0  0  0  0  0  0  0  0  0  0  0
  -19.0488  -19.8531   28.8550 C   0  0  0  0  0  0  0  0  0  0  0  0
  -23.2592  -17.1596   24.1764 C   0  0  0  0  0  0  0  0  0  0  0  0
  -30.9494  -20.0040   23.9088 C   0  0  0  0  0  0  0  0  0  0  0  0
  -28.3962  -23.4877   23.0446 C   0  0  0  0  0  0  0  0  0  0  0  0
  -21.0968  -20.2555   27.4282 C   0  0  1  0  0  0  0  0  0  0  0  0
  -22.3432  -16.8054   26.4730 C   0  0  2  0  0  0  0  0  0  0  0  0
  -27.2335  -24.4649   22.8709 C   0  0  1  0  0  0  0  0  0  1  0  0
  -20.4462  -20.5093   28.8173 C   0  0  0  0  0  0  0  0  0  0  0  0
  -32.0241  -17.1877   21.6023 N   0  0  0  0  0  0  0  0  0  0  0  0
  -25.8520  -11.5436   20.2642 N   0  0  0  0  0  0  0  0  0  0  0  0
  -26.2810  -12.8135   20.1666 N   0  0  0  0  0  0  0  0  0  0  0  0
  -20.9977  -21.8460   25.5349 N   0  0  0  0  0  0  0  0  0  0  0  0
  -30.0480  -13.4315   20.2720 N   0  0  0  0  0  0  0  0  0  0  0  0
  -25.6224  -15.0618   20.5159 N   0  0  0  0  0  0  0  0  0  0  0  0
  -21.9723  -12.7038   21.7459 N   0  0  0  0  0  0  0  0  0  0  0  0
  -30.2870  -15.4635   21.4450 N   0  0  0  0  0  0  0  0  0  0  0  0
  -30.0587  -20.9650   23.3012 N   0  0  0  0  0  0  0  0  0  0  0  0
  -19.0843  -24.7635   24.4747 N   0  0  0  0  0  0  0  0  0  0  0  0
  -21.2368  -18.8451   27.0826 N   0  0  0  0  0  0  0  0  0  0  0  0
  -23.3602  -16.4130   25.4567 N   0  3  0  0  0  0  0  0  0  0  0  0
  -22.8324  -14.8167   21.5121 O   0  0  0  0  0  0  0  0  0  0  0  0
  -27.1214  -21.6856   21.9953 O   0  0  0  0  0  0  0  0  0  0  0  0
  -28.0441  -20.2731   24.2831 O   0  0  0  0  0  0  0  0  0  0  0  0
  -20.2530  -24.1376   26.3892 O   0  0  0  0  0  0  0  0  0  0  0  0
  -19.1483  -20.5466   26.1072 O   0  0  0  0  0  0  0  0  0  0  0  0
  -23.5378  -18.8803   26.7973 O   0  0  0  0  0  0  0  0  0  0  0  0
  -31.9853  -14.6772   20.0741 O   0  0  0  0  0  0  0  0  0  0  0  0
  -21.4568   -7.1572   21.6750 O   0  0  0  0  0  0  0  0  0  0  0  0
  -26.4081  -24.4004   24.0332 O   0  0  0  0  0  0  0  0  0  1  0  0
  -18.6146   -6.9645   26.3961 F   0  0  0  0  0  0  0  0  0  0  0  0
  -21.8829   -5.1297   23.5053 F   0  0  0  0  0  0  0  0  0  0  0  0
  -29.8739  -17.5973   22.9775 S   0  0  0  0  0  0  0  0  0  0  0  0
  1  2  1  0  0  0  0
  1  5  2  0  0  0  0
  2  6  2  0  0  0  0
  3  8  2  0  0  0  0
  3 16  1  0  0  0  0
  4  9  1  0  0  0  0
  4 16  2  0  0  0  0
  5 18  1  0  0  0  0
  6 20  1  0  0  0  0
  7 10  2  0  0  0  0
  7 19  1  0  0  0  0
  8 22  1  0  0  0  0
  9 22  2  0  0  0  0
 10 23  1  0  0  0  0
 11 12  2  0  0  0  0
 11 24  1  0  0  0  0
 12 25  1  0  0  0  0
 13 21  1  0  0  0  0
 13 23  2  0  0  0  0
 14 25  2  0  0  0  0
 14 26  1  0  0  0  0
 15 28  2  0  0  0  0
 15 62  1  0  0  0  0
 16 27  1  0  0  0  0
 17 27  1  0  0  0  0
 17 29  2  0  0  0  0
 17 31  1  0  0  0  0
 18 20  2  0  0  0  0
 18 38  1  0  0  0  0
 19 21  2  0  0  0  0
 19 39  1  0  0  0  0
 20 47  1  0  0  0  0
 21 40  1  0  0  0  0
 22 81  1  0  0  0  0
 23 82  1  0  0  0  0
 24 26  2  0  0  0  0
 24 81  1  0  0  0  0
 25 83  1  0  0  0  0
 26 84  1  0  0  0  0
 27 63  2  0  0  0  0
 28 56  1  0  0  0  0
 28 85  1  0  0  0  0
 29 64  1  0  0  0  0
 29 67  1  0  0  0  0
 30 62  2  0  0  0  0
 30 69  1  0  0  0  0
 30 85  1  0  0  0  0
 31 68  1  0  0  0  0
 31 74  2  0  0  0  0
 32 33  1  0  0  0  0
 32 57  1  0  0  0  0
 32 75  2  0  0  0  0
 33 70  1  0  0  0  0
 33 76  2  0  0  0  0
 34 48  1  0  0  0  0
 34 71  1  0  0  0  0
 34 77  2  0  0  0  0
 35 58  1  0  0  0  0
 35 65  1  0  0  0  0
 35 78  2  0  0  0  0
 36 59  1  0  0  0  0
 36 72  1  0  0  0  0
 36 79  2  0  0  0  0
 37 66  1  0  0  0  0
 37 69  1  0  0  0  0
 37 80  2  0  0  0  0
 38 41  1  0  0  0  0
 39 48  1  0  0  0  0
 40 65  1  0  0  0  0
 41 43  1  0  0  0  0
 42 44  1  0  0  0  0
 42 45  1  0  0  0  0
 43 47  1  0  0  0  0
 44 49  1  0  0  0  0
 45 66  1  0  0  0  0
 46 49  1  0  0  0  0
 46 66  1  0  0  0  0
 47 71  1  0  0  0  0
 48 65  1  0  0  0  0
 49 64  1  0  0  0  0
 50 59  1  0  0  0  0
 51 60  1  0  0  0  0
 52 61  1  0  0  0  0
 53 61  1  0  0  0  0
 54 61  1  0  0  0  0
 55 73  1  0  0  0  0
 56 70  1  0  0  0  0
 57 60  1  0  0  0  0
 58 61  1  0  0  0  0
 58 72  1  0  0  0  0
 59 73  1  0  0  0  0
 60 82  1  0  0  0  0
 63 64  1  0  0  0  0
M  CHG  1  73   1
M  ISO  4  37 100  60 101  69 100  82 101
M  END
> <Batch ID>
0176

> <Smiles>
CNC(C)C(=O)NC(C(=O)N1Cc2cc([101O:1][101CH:1](C)CC(=O)C(=O)NCc3cnc([100NH:0][100C:0](=O)N4CCCC(n5nc(-c6ccc(Oc7ccc(F)cc7F)cc6)c(C(N)=O)c5N)C4)s3)ccc2CC1C(=O)NC1CCCc2ccccc21)C(C)(C)C

> <Shape>
0.206

> <Color>
0.187

> <Negative vol penalty>
0.000

$$$$

  -OEChem-04052304383D

 84 92  0     1  0  0  0  0  0999 V2000
  -18.4551  -25.5184   22.2413 C   0  0  0  0  0  0  0  0  0  0  0  0
  -19.7580  -25.4264   21.7623 C   0  0  0  0  0  0  0  0  0  0  0  0
  -23.7215  -13.3807   20.6340 C   0  0  0  0  0  0  0  0  0  0  0  0
  -26.0197  -13.7363   21.2890 C   0  0  0  0  0  0  0  0  0  0  0  0
  -17.8552  -26.7681   22.3907 C   0  0  0  0  0  0  0  0  0  0  0  0
  -20.4613  -26.5841   21.4313 C   0  0  0  0  0  0  0  0  0  0  0  0
  -26.4703  -27.5590   22.1007 C   0  0  0  0  0  0  0  0  0  0  0  0
  -23.9986  -12.0353   20.3921 C   0  0  0  0  0  0  0  0  0  0  0  0
  -26.2968  -12.3908   21.0472 C   0  0  0  0  0  0  0  0  0  0  0  0
  -27.5382  -27.4824   21.2076 C   0  0  0  0  0  0  0  0  0  0  0  0
  -24.3905   -9.2078   22.2045 C   0  0  0  0  0  0  0  0  0  0  0  0
  -23.4835   -8.2628   22.6841 C   0  0  0  0  0  0  0  0  0  0  0  0
  -27.3800  -29.8587   20.8240 C   0  0  0  0  0  0  0  0  0  0  0  0
  -23.1068   -7.4803   20.4295 C   0  0  0  0  0  0  0  0  0  0  0  0
  -29.8790  -21.0436   19.7875 C   0  0  0  0  0  0  0  0  0  0  0  0
  -24.7321  -14.2313   21.0824 C   0  0  0  0  0  0  0  0  0  0  0  0
  -24.0132  -16.1964   22.5416 C   0  0  0  0  0  0  0  0  0  0  0  0
  -18.5549  -27.9422   22.0706 C   0  0  0  0  0  0  0  0  0  0  0  0
  -25.8411  -28.7863   22.3542 C   0  0  0  0  0  0  0  0  0  0  0  0
  -19.8697  -27.8506   21.5753 C   0  0  0  0  0  0  0  0  0  0  0  0
  -26.3060  -29.9487   21.7226 C   0  0  0  0  0  0  0  0  0  0  0  0
  -25.2862  -11.5403   20.5987 C   0  0  0  0  0  0  0  0  0  0  0  0
  -27.9913  -28.6318   20.5669 C   0  0  0  0  0  0  0  0  0  0  0  0
  -24.6556   -9.2892   20.8375 C   0  0  0  0  0  0  0  0  0  0  0  0
  -22.8417   -7.3991   21.7966 C   0  0  0  0  0  0  0  0  0  0  0  0
  -24.0138   -8.4254   19.9500 C   0  0  0  0  0  0  0  0  0  0  0  0
  -24.4467  -15.6214   21.3319 C   0  0  0  0  0  0  0  0  0  0  0  0
  -28.7972  -21.4761   19.0495 C   0  0  0  0  0  0  0  0  0  0  0  0
  -23.8873  -17.5348   22.2598 C   0  0  0  0  0  0  0  0  0  0  0  0
  -30.1538  -23.1549   18.6609 C   0  0  0  0  0  0  0  0  0  0  0  0
  -23.7481  -15.5762   23.8068 C   0  0  0  0  0  0  0  0  0  0  0  0
  -30.6529  -24.4467   18.1230 C   0  0  0  0  0  0  0  0  0  0  0  0
  -22.9032  -29.9280   21.9435 C   0  0  0  0  0  0  0  0  0  0  0  0
  -29.8485  -27.5919   17.6310 C   0  0  0  0  0  0  0  0  0  0  0  0
  -24.0962  -32.4900   23.5356 C   0  0  0  0  0  0  0  0  0  0  0  0
  -26.8290  -34.3219   24.4428 C   0  0  0  0  0  0  0  0  0  0  0  0
  -26.4471  -21.1139   18.2173 C   0  0  0  0  0  0  0  0  0  0  0  0
  -17.8481  -29.2678   22.2040 C   0  0  0  0  0  0  0  0  0  0  0  0
  -24.7077  -28.8566   23.3406 C   0  0  0  0  0  0  0  0  0  0  0  0
  -25.6779  -31.2940   21.9758 C   0  0  0  0  0  0  0  0  0  0  0  0
  -18.7930  -30.4666   22.1853 C   0  0  0  0  0  0  0  0  0  0  0  0
  -22.9605  -20.5282   18.6384 C   0  0  0  0  0  0  0  0  0  0  0  0
  -19.8019  -30.3333   21.0490 C   0  0  0  0  0  0  0  0  0  0  0  0
  -22.9065  -19.2592   19.4921 C   0  0  0  0  0  0  0  0  0  0  0  0
  -24.1131  -20.4893   17.6366 C   0  0  0  0  0  0  0  0  0  0  0  0
  -25.3775  -18.9363   19.0715 C   0  0  0  0  0  0  0  0  0  0  0  0
  -20.6739  -29.0849   21.2290 C   0  0  1  0  0  0  0  0  0  0  0  0
  -23.8097  -30.0723   23.1331 C   0  0  1  0  0  0  0  0  0  0  0  0
  -24.2721  -18.9573   20.1398 C   0  0  2  0  0  0  0  0  0  0  0  0
  -29.3769  -26.5750   15.3825 C   0  0  0  0  0  0  0  0  0  0  0  0
  -27.4850  -36.3838   25.7139 C   0  0  0  0  0  0  0  0  0  0  0  0
  -23.1249  -34.2235   21.2201 C   0  0  0  0  0  0  0  0  0  0  0  0
  -24.6071  -36.0570   22.0625 C   0  0  0  0  0  0  0  0  0  0  0  0
  -22.7462  -35.2054   23.4888 C   0  0  0  0  0  0  0  0  0  0  0  0
  -28.4637  -32.7635   26.3554 C   0  0  0  0  0  0  0  0  0  0  0  0
  -29.1970  -27.3364   18.9782 C   0  0  0  0  0  0  0  0  0  1  0  0
  -30.1159  -26.4081   16.7015 C   0  0  2  0  0  0  0  0  0  0  0  0
  -24.7950  -33.7669   23.1354 C   0  0  1  0  0  0  0  0  0  0  0  0
  -27.2671  -34.8803   25.7847 C   0  0  2  0  0  0  0  0  0  0  0  0
  -23.8291  -34.7877   22.4702 C   0  0  0  0  0  0  0  0  0  0  0  0
  -24.5866  -16.5208   20.3545 N   0  0  0  0  0  0  0  0  0  0  0  0
  -28.9528  -22.6868   18.4031 N   0  0  0  0  0  0  0  0  0  0  0  0
  -24.2390  -17.6746   20.9495 N   0  0  0  0  0  0  0  0  0  0  0  0
  -24.5688  -31.3101   22.9438 N   0  0  0  0  0  0  0  0  0  0  0  0
  -25.3750  -20.2027   18.3224 N   0  0  0  0  0  0  0  0  0  0  0  0
  -23.5111  -18.5939   23.0076 N   0  0  0  0  0  0  0  0  0  0  0  0
  -23.9285  -14.1912   23.9228 N   0  0  0  0  0  0  0  0  0  0  0  0
  -27.5845  -20.7517   18.9384 N   0  0  0  0  0  0  0  0  0  0  0  0
  -29.7705  -25.1537   17.3159 N   0  0  0  0  0  0  0  0  0  0  0  0
  -21.6947  -29.3210   22.2274 N   0  0  0  0  0  0  0  0  0  0  0  0
  -25.4554  -34.2648   24.3372 N   0  0  0  0  0  0  0  0  0  0  0  0
  -28.5406  -34.2410   26.2210 N   0  3  0  0  0  0  0  0  0  0  0  0
  -23.3468  -16.2284   24.8003 O   0  0  0  0  0  0  0  0  0  0  0  0
  -31.7955  -24.8076   18.3927 O   0  0  0  0  0  0  0  0  0  0  0  0
  -23.2722  -30.3384   20.8494 O   0  0  0  0  0  0  0  0  0  0  0  0
  -30.2061  -28.7281   17.3078 O   0  0  0  0  0  0  0  0  0  0  0  0
  -23.1701  -32.5369   24.3491 O   0  0  0  0  0  0  0  0  0  0  0  0
  -27.6257  -33.9747   23.5737 O   0  0  0  0  0  0  0  0  0  0  0  0
  -26.3532  -22.1535   17.5597 O   0  0  0  0  0  0  0  0  0  0  0  0
  -25.5569  -10.2274   20.3630 O   0  0  0  0  0  0  0  0  0  0  0  0
  -29.0330  -28.5598   19.6943 O   0  0  0  0  0  0  0  0  0  1  0  0
  -21.9719   -6.4906   22.2574 F   0  0  0  0  0  0  0  0  0  0  0  0
  -24.2653   -8.4980   18.6357 F   0  0  0  0  0  0  0  0  0  0  0  0
  -31.1490  -22.1905   19.6731 S   0  0  0  0  0  0  0  0  0  0  0  0
  1  2  1  0  0  0  0
  1  5  2  0  0  0  0
  2  6  2  0  0  0  0
  3  8  2  0  0  0  0
  3 16  1  0  0  0  0
  4  9  1  0  0  0  0
  4 16  2  0  0  0  0
  5 18  1  0  0  0  0
  6 20  1  0  0  0  0
  7 10  2  0  0  0  0
  7 19  1  0  0  0  0
  8 22  1  0  0  0  0
  9 22  2  0  0  0  0
 10 23  1  0  0  0  0
 11 12  2  0  0  0  0
 11 24  1  0  0  0  0
 12 25  1  0  0  0  0
 13 21  1  0  0  0  0
 13 23  2  0  0  0  0
 14 25  2  0  0  0  0
 14 26  1  0  0  0  0
 15 28  2  0  0  0  0
 15 84  1  0  0  0  0
 16 27  1  0  0  0  0
 17 27  1  0  0  0  0
 17 29  2  0  0  0  0
 17 31  1  0  0  0  0
 18 20  2  0  0  0  0
 18 38  1  0  0  0  0
 19 21  2  0  0  0  0
 19 39  1  0  0  0  0
 20 47  1  0  0  0  0
 21 40  1  0  0  0  0
 22 80  1  0  0  0  0
 23 81  1  0  0  0  0
 24 26  2  0  0  0  0
 24 80  1  0  0  0  0
 25 82  1  0  0  0  0
 26 83  1  0  0  0  0
 27 61  2  0  0  0  0
 28 62  1  0  0  0  0
 28 68  1  0  0  0  0
 29 63  1  0  0  0  0
 29 66  1  0  0  0  0
 30 32  1  0  0  0  0
 30 62  2  0  0  0  0
 30 84  1  0  0  0  0
 31 67  1  0  0  0  0
 31 73  2  0  0  0  0
 32 69  1  0  0  0  0
 32 74  2  0  0  0  0
 33 48  1  0  0  0  0
 33 70  1  0  0  0  0
 33 75  2  0  0  0  0
 34 56  1  0  0  0  0
 34 57  1  0  0  0  0
 34 76  2  0  0  0  0
 35 58  1  0  0  0  0
 35 64  1  0  0  0  0
 35 77  2  0  0  0  0
 36 59  1  0  0  0  0
 36 71  1  0  0  0  0
 36 78  2  0  0  0  0
 37 65  1  0  0  0  0
 37 68  1  0  0  0  0
 37 79  2  0  0  0  0
 38 41  1  0  0  0  0
 39 48  1  0  0  0  0
 40 64  1  0  0  0  0
 41 43  1  0  0  0  0
 42 44  1  0  0  0  0
 42 45  1  0  0  0  0
 43 47  1  0  0  0  0
 44 49  1  0  0  0  0
 45 65  1  0  0  0  0
 46 49  1  0  0  0  0
 46 65  1  0  0  0  0
 47 70  1  0  0  0  0
 48 64  1  0  0  0  0
 49 63  1  0  0  0  0
 50 57  1  0  0  0  0
 51 59  1  0  0  0  0
 52 60  1  0  0  0  0
 53 60  1  0  0  0  0
 54 60  1  0  0  0  0
 55 72  1  0  0  0  0
 56 81  1  0  0  0  0
 57 69  1  0  0  0  0
 58 60  1  0  0  0  0
 58 71  1  0  0  0  0
 59 72  1  0  0  0  0
 61 63  1  0  0  0  0
M  CHG  1  72   1
M  ISO  4  37 100  56 101  68 100  81 101
M  END
> <Batch ID>
0176

> <Smiles>
CNC(C)C(=O)NC(C(=O)N1Cc2cc([101O:1][101CH2:1]C(=O)C(C)NC(=O)c3nc([100NH:0][100C:0](=O)N4CCCC(n5nc(-c6ccc(Oc7ccc(F)cc7F)cc6)c(C(N)=O)c5N)C4)cs3)ccc2CC1C(=O)NC1CCCc2ccccc21)C(C)(C)C

> <Shape>
0.285

> <Color>
0.094

> <Negative vol penalty>
0.000

$$$$

  -OEChem-04052304383D

 89 97  0     1  0  0  0  0  0999 V2000
  -21.1048  -29.9691   14.4416 C   0  0  0  0  0  0  0  0  0  0  0  0
  -22.3347  -29.5909   14.9704 C   0  0  0  0  0  0  0  0  0  0  0  0
  -22.6319  -14.6984   22.0876 C   0  0  0  0  0  0  0  0  0  0  0  0
  -23.5680  -16.9256   22.0954 C   0  0  0  0  0  0  0  0  0  0  0  0
  -20.4755  -31.1253   14.9011 C   0  0  0  0  0  0  0  0  0  0  0  0
  -22.9366  -30.3694   15.9584 C   0  0  0  0  0  0  0  0  0  0  0  0
  -24.8027  -27.5870   19.7559 C   0  0  0  0  0  0  0  0  0  0  0  0
  -21.8342  -15.0298   23.1828 C   0  0  0  0  0  0  0  0  0  0  0  0
  -22.7703  -17.2571   23.1905 C   0  0  0  0  0  0  0  0  0  0  0  0
  -26.0182  -26.9411   19.5344 C   0  0  0  0  0  0  0  0  0  0  0  0
  -18.9621  -16.7210   23.7515 C   0  0  0  0  0  0  0  0  0  0  0  0
  -17.6210  -16.3391   23.7159 C   0  0  0  0  0  0  0  0  0  0  0  0
  -32.9456  -16.4709   20.8148 C   0  0  0  0  0  0  0  0  0  0  0  0
  -27.1600  -28.6879   20.7445 C   0  0  0  0  0  0  0  0  0  0  0  0
  -31.3979  -18.2655   20.3445 C   0  0  0  0  0  0  0  0  0  0  0  0
  -17.9437  -15.0199   25.7141 C   0  0  0  0  0  0  0  0  0  0  0  0
  -23.4989  -15.6463   21.5439 C   0  0  0  0  0  0  0  0  0  0  0  0
  -33.8882  -17.3995   21.2561 C   0  0  0  0  0  0  0  0  0  0  0  0
  -23.9989  -15.4457   19.0505 C   0  0  0  0  0  0  0  0  0  0  0  0
  -21.0655  -31.9131   15.9020 C   0  0  0  0  0  0  0  0  0  0  0  0
  -24.7579  -28.7959   20.4652 C   0  0  0  0  0  0  0  0  0  0  0  0
  -22.3153  -31.5379   16.4307 C   0  0  0  0  0  0  0  0  0  0  0  0
  -25.9423  -29.3458   20.9758 C   0  0  0  0  0  0  0  0  0  0  0  0
  -33.5857  -18.7611   21.2417 C   0  0  0  0  0  0  0  0  0  0  0  0
  -31.7004  -16.9039   20.3589 C   0  0  0  0  0  0  0  0  0  0  0  0
  -32.3405  -19.1941   20.7859 C   0  0  0  0  0  0  0  0  0  0  0  0
  -21.9034  -16.3092   23.7343 C   0  0  0  0  0  0  0  0  0  0  0  0
  -27.1975  -27.4930   20.0263 C   0  0  0  0  0  0  0  0  0  0  0  0
  -19.7940  -16.2523   24.7684 C   0  0  0  0  0  0  0  0  0  0  0  0
  -17.1118  -15.4885   24.6972 C   0  0  0  0  0  0  0  0  0  0  0  0
  -19.2848  -15.4018   25.7497 C   0  0  0  0  0  0  0  0  0  0  0  0
  -24.3236  -15.3043   20.4130 C   0  0  0  0  0  0  0  0  0  0  0  0
  -25.1071  -14.9832   18.3837 C   0  0  0  0  0  0  0  0  0  0  0  0
  -35.1798  -16.9169   21.7269 C   0  0  0  0  0  0  0  0  0  0  0  0
  -29.7720  -23.3453   20.0941 C   0  0  0  0  0  0  0  0  0  0  0  0
  -22.8027  -15.9501   18.4420 C   0  0  0  0  0  0  0  0  0  0  0  0
  -30.8613  -22.6524   20.4691 C   0  0  0  0  0  0  0  0  0  0  0  0
  -29.6626  -24.8345   20.1657 C   0  0  0  0  0  0  0  0  0  0  0  0
  -30.8246  -21.1532   20.3401 C   0  0  0  0  0  0  0  0  0  0  0  0
  -23.8605  -31.7671   19.7793 C   0  0  0  0  0  0  0  0  0  0  0  0
  -24.4082  -32.2468   22.9403 C   0  0  0  0  0  0  0  0  0  0  0  0
  -26.0243  -31.2672   25.7820 C   0  0  0  0  0  0  0  0  0  0  0  0
  -30.8832  -14.5742   19.8581 C   0  0  0  0  0  0  0  0  0  0  0  0
  -20.3696  -33.1798   16.3332 C   0  0  0  0  0  0  0  0  0  0  0  0
  -23.4355  -29.4664   20.7186 C   0  0  0  0  0  0  0  0  0  0  0  0
  -25.9458  -30.6311   21.7611 C   0  0  0  0  0  0  0  0  0  0  0  0
  -20.8969  -33.7469   17.6487 C   0  0  0  0  0  0  0  0  0  0  0  0
  -28.7479  -11.9079   18.8539 C   0  0  0  0  0  0  0  0  0  0  0  0
  -22.4223  -33.7622   17.6502 C   0  0  0  0  0  0  0  0  0  0  0  0
  -27.3417  -12.4912   19.0100 C   0  0  0  0  0  0  0  0  0  0  0  0
  -29.6898  -12.3966   19.9529 C   0  0  0  0  0  0  0  0  0  0  0  0
  -28.3477  -14.4383   20.2684 C   0  0  0  0  0  0  0  0  0  0  0  0
  -22.9883  -32.3429   17.5213 C   0  0  1  0  0  0  0  0  0  0  0  0
  -23.5681  -30.9578   21.0111 C   0  0  1  0  0  0  0  0  0  0  0  0
  -27.3802  -14.0259   19.1470 C   0  0  2  0  0  0  0  0  0  0  0  0
  -34.5980  -19.7568   21.7167 C   0  0  0  0  0  0  0  0  0  0  0  0
  -26.3015  -31.8771   28.2004 C   0  0  0  0  0  0  0  0  0  0  0  0
  -26.2315  -34.5606   22.1453 C   0  0  0  0  0  0  0  0  0  0  0  0
  -27.1917  -34.5067   24.4569 C   0  0  0  0  0  0  0  0  0  0  0  0
  -24.7722  -35.0150   24.1248 C   0  0  0  0  0  0  0  0  0  0  0  0
  -24.9357  -28.6666   26.6826 C   0  0  0  0  0  0  0  0  0  0  0  0
  -28.3572  -25.4426   19.6993 C   0  0  0  0  0  0  0  0  0  1  0  0
  -25.6029  -32.6539   23.7686 C   0  0  1  0  0  0  0  0  0  0  0  0
  -25.5246  -31.0388   27.1972 C   0  0  2  0  0  0  0  0  0  0  0  0
  -25.9501  -34.1608   23.6075 C   0  0  0  0  0  0  0  0  0  0  0  0
  -25.5425  -14.7919   20.6021 N   0  0  0  0  0  0  0  0  0  0  0  0
  -35.3472  -15.7581   22.2886 N   0  0  0  0  0  0  0  0  0  0  0  0
  -25.9934  -14.6072   19.3497 N   0  0  0  0  0  0  0  0  0  0  0  0
  -24.6286  -31.2522   21.9770 N   0  0  0  0  0  0  0  0  0  0  0  0
  -29.6776  -13.8595   20.0212 N   0  0  0  0  0  0  0  0  0  0  0  0
  -25.4000  -14.8654   17.0712 N   0  0  0  0  0  0  0  0  0  0  0  0
  -21.7616  -16.3840   19.2740 N   0  0  0  0  0  0  0  0  0  0  0  0
  -32.0126  -20.5711   20.7623 N   0  0  0  0  0  0  0  0  0  0  0  0
  -30.7431  -15.9606   19.9100 N   0  0  0  0  0  0  0  0  0  0  0  0
  -22.9048  -31.6485   18.7883 N   0  0  0  0  0  0  0  0  0  0  0  0
  -25.3052  -32.2525   25.1393 N   0  0  0  0  0  0  0  0  0  0  0  0
  -25.6689  -29.6037   27.5722 N   0  3  0  0  0  0  0  0  0  0  0  0
  -22.6548  -15.9989   17.1973 O   0  0  0  0  0  0  0  0  0  0  0  0
  -30.5648  -25.5379   20.6131 O   0  0  0  0  0  0  0  0  0  0  0  0
  -29.8322  -20.5776   19.9067 O   0  0  0  0  0  0  0  0  0  0  0  0
  -24.8770  -32.4498   19.7321 O   0  0  0  0  0  0  0  0  0  0  0  0
  -23.3180  -32.7863   23.1455 O   0  0  0  0  0  0  0  0  0  0  0  0
  -26.9614  -30.6373   25.2968 O   0  0  0  0  0  0  0  0  0  0  0  0
  -31.9563  -13.9995   19.6580 O   0  0  0  0  0  0  0  0  0  0  0  0
  -32.0191  -23.2155   20.9628 O   0  0  0  0  0  0  0  0  0  0  0  0
  -21.1250  -16.6330   24.8028 O   0  0  0  0  0  0  0  0  0  0  0  0
  -28.3853  -26.8650   19.8110 O   0  0  0  0  0  0  0  0  0  1  0  0
  -15.8236  -15.1231   24.6638 F   0  0  0  0  0  0  0  0  0  0  0  0
  -20.0788  -14.9492   26.7297 F   0  0  0  0  0  0  0  0  0  0  0  0
  1  2  1  0  0  0  0
  1  5  2  0  0  0  0
  2  6  2  0  0  0  0
  3  8  2  0  0  0  0
  3 17  1  0  0  0  0
  4  9  1  0  0  0  0
  4 17  2  0  0  0  0
  5 20  1  0  0  0  0
  6 22  1  0  0  0  0
  7 10  2  0  0  0  0
  7 21  1  0  0  0  0
  8 27  1  0  0  0  0
  9 27  2  0  0  0  0
 10 28  1  0  0  0  0
 11 12  2  0  0  0  0
 11 29  1  0  0  0  0
 12 30  1  0  0  0  0
 13 18  2  0  0  0  0
 13 25  1  0  0  0  0
 14 23  1  0  0  0  0
 14 28  2  0  0  0  0
 15 25  2  0  0  0  0
 15 26  1  0  0  0  0
 16 30  2  0  0  0  0
 16 31  1  0  0  0  0
 17 32  1  0  0  0  0
 18 24  1  0  0  0  0
 18 34  1  0  0  0  0
 19 32  1  0  0  0  0
 19 33  2  0  0  0  0
 19 36  1  0  0  0  0
 20 22  2  0  0  0  0
 20 44  1  0  0  0  0
 21 23  2  0  0  0  0
 21 45  1  0  0  0  0
 22 53  1  0  0  0  0
 23 46  1  0  0  0  0
 24 26  2  0  0  0  0
 24 56  1  0  0  0  0
 25 74  1  0  0  0  0
 26 73  1  0  0  0  0
 27 86  1  0  0  0  0
 28 87  1  0  0  0  0
 29 31  2  0  0  0  0
 29 86  1  0  0  0  0
 30 88  1  0  0  0  0
 31 89  1  0  0  0  0
 32 66  2  0  0  0  0
 33 68  1  0  0  0  0
 33 71  1  0  0  0  0
 34 67  2  0  0  0  0
 35 37  2  0  0  0  0
 35 38  1  0  0  0  0
 36 72  1  0  0  0  0
 36 78  2  0  0  0  0
 37 39  1  0  0  0  0
 37 85  1  0  0  0  0
 38 62  1  0  0  0  0
 38 79  2  0  0  0  0
 39 73  1  0  0  0  0
 39 80  2  0  0  0  0
 40 54  1  0  0  0  0
 40 75  1  0  0  0  0
 40 81  2  0  0  0  0
 41 63  1  0  0  0  0
 41 69  1  0  0  0  0
 41 82  2  0  0  0  0
 42 64  1  0  0  0  0
 42 76  1  0  0  0  0
 42 83  2  0  0  0  0
 43 70  1  0  0  0  0
 43 74  1  0  0  0  0
 43 84  2  0  0  0  0
 44 47  1  0  0  0  0
 45 54  1  0  0  0  0
 46 69  1  0  0  0  0
 47 49  1  0  0  0  0
 48 50  1  0  0  0  0
 48 51  1  0  0  0  0
 49 53  1  0  0  0  0
 50 55  1  0  0  0  0
 51 70  1  0  0  0  0
 52 55  1  0  0  0  0
 52 70  1  0  0  0  0
 53 75  1  0  0  0  0
 54 69  1  0  0  0  0
 55 68  1  0  0  0  0
 57 64  1  0  0  0  0
 58 65  1  0  0  0  0
 59 65  1  0  0  0  0
 60 65  1  0  0  0  0
 61 77  1  0  0  0  0
 62 87  1  0  0  0  0
 63 65  1  0  0  0  0
 63 76  1  0  0  0  0
 64 77  1  0  0  0  0
 66 68  1  0  0  0  0
M  CHG  1  77   1
M  ISO  4  43 100  62 101  74 100  87 101
M  END
> <Batch ID>
0176

> <Smiles>
CNC(C)C(=O)NC(C(=O)N1Cc2cc([101O:1][101CH2:1]C(=O)CC(=O)C(=O)Nc3cc([100NH:0][100C:0](=O)N4CCCC(n5nc(-c6ccc(Oc7ccc(F)cc7F)cc6)c(C(N)=O)c5N)C4)cc(C=N)c3C)ccc2CC1C(=O)NC1CCCc2ccccc21)C(C)(C)C

> <Shape>
0.233

> <Color>
0.118

> <Negative vol penalty>
0.000

$$$$

  -OEChem-04052304383D

 86 94  0     1  0  0  0  0  0999 V2000
  -24.2023  -30.8350   23.6292 C   0  0  0  0  0  0  0  0  0  0  0  0
  -25.3240  -30.1133   24.0247 C   0  0  0  0  0  0  0  0  0  0  0  0
  -22.9786   -9.9065   20.0389 C   0  0  0  0  0  0  0  0  0  0  0  0
  -23.6488  -10.0863   22.3531 C   0  0  0  0  0  0  0  0  0  0  0  0
  -23.6636  -30.6425   22.3577 C   0  0  0  0  0  0  0  0  0  0  0  0
  -25.9069  -29.1977   23.1492 C   0  0  0  0  0  0  0  0  0  0  0  0
  -31.8667  -27.8911   22.6202 C   0  0  0  0  0  0  0  0  0  0  0  0
  -22.1938   -8.7968   20.3524 C   0  0  0  0  0  0  0  0  0  0  0  0
  -22.8640   -8.9766   22.6666 C   0  0  0  0  0  0  0  0  0  0  0  0
  -32.6487  -26.8555   23.1297 C   0  0  0  0  0  0  0  0  0  0  0  0
  -23.0840   -5.6136   22.3974 C   0  0  0  0  0  0  0  0  0  0  0  0
  -23.6425   -4.6370   23.2220 C   0  0  0  0  0  0  0  0  0  0  0  0
  -32.3860  -25.6464   21.0589 C   0  0  0  0  0  0  0  0  0  0  0  0
  -31.9061  -17.2550   21.3837 C   0  0  0  0  0  0  0  0  0  0  0  0
  -21.8816   -4.9940   24.8372 C   0  0  0  0  0  0  0  0  0  0  0  0
  -23.7061  -10.5513   21.0393 C   0  0  0  0  0  0  0  0  0  0  0  0
  -24.1223  -13.0485   20.7256 C   0  0  0  0  0  0  0  0  0  0  0  0
  -24.2460  -29.7313   21.4627 C   0  0  0  0  0  0  0  0  0  0  0  0
  -31.3285  -27.8072   21.3280 C   0  0  0  0  0  0  0  0  0  0  0  0
  -25.3747  -28.9919   21.8650 C   0  0  0  0  0  0  0  0  0  0  0  0
  -31.5995  -26.6835   20.5344 C   0  0  0  0  0  0  0  0  0  0  0  0
  -30.5984  -16.9301   21.7442 C   0  0  0  0  0  0  0  0  0  0  0  0
  -29.8252  -17.8434   22.4610 C   0  0  0  0  0  0  0  0  0  0  0  0
  -31.6675  -19.4064   22.4568 C   0  0  0  0  0  0  0  0  0  0  0  0
  -22.1365   -8.3318   21.6662 C   0  0  0  0  0  0  0  0  0  0  0  0
  -32.9061  -25.7316   22.3501 C   0  0  0  0  0  0  0  0  0  0  0  0
  -21.9244   -6.2804   22.7927 C   0  0  0  0  0  0  0  0  0  0  0  0
  -23.0413   -4.3272   24.4419 C   0  0  0  0  0  0  0  0  0  0  0  0
  -32.4407  -18.4931   21.7401 C   0  0  0  0  0  0  0  0  0  0  0  0
  -21.3232   -5.9706   24.0126 C   0  0  0  0  0  0  0  0  0  0  0  0
  -30.3597  -19.0816   22.8173 C   0  0  0  0  0  0  0  0  0  0  0  0
  -24.5174  -11.6973   20.7160 C   0  0  0  0  0  0  0  0  0  0  0  0
  -25.2481  -13.7381   20.3469 C   0  0  0  0  0  0  0  0  0  0  0  0
  -22.8513  -13.6284   21.0482 C   0  0  0  0  0  0  0  0  0  0  0  0
  -33.7392  -22.3929   23.4305 C   0  0  0  0  0  0  0  0  0  0  0  0
  -33.5331  -20.9486   23.0764 C   0  0  0  0  0  0  0  0  0  0  0  0
  -28.3880  -27.7531   20.1220 C   0  0  0  0  0  0  0  0  0  0  0  0
  -29.9663  -27.8844   17.2911 C   0  0  0  0  0  0  0  0  0  0  0  0
  -32.8390  -27.2948   15.5456 C   0  0  0  0  0  0  0  0  0  0  0  0
  -30.7303  -14.6607   20.6586 C   0  0  0  0  0  0  0  0  0  0  0  0
  -23.5999  -29.5228   20.1159 C   0  0  0  0  0  0  0  0  0  0  0  0
  -30.5090  -28.9448   20.7832 C   0  0  0  0  0  0  0  0  0  0  0  0
  -31.0620  -26.5537   19.1334 C   0  0  0  0  0  0  0  0  0  0  0  0
  -24.5007  -28.8075   19.1124 C   0  0  0  0  0  0  0  0  0  0  0  0
  -29.6421  -12.0856   18.4537 C   0  0  0  0  0  0  0  0  0  0  0  0
  -25.1594  -27.5924   19.7577 C   0  0  0  0  0  0  0  0  0  0  0  0
  -28.1793  -11.8662   18.8465 C   0  0  0  0  0  0  0  0  0  0  0  0
  -30.5159  -12.3914   19.6689 C   0  0  0  0  0  0  0  0  0  0  0  0
  -28.5776  -13.2751   20.9064 C   0  0  0  0  0  0  0  0  0  0  0  0
  -26.0502  -28.0078   20.9348 C   0  0  1  0  0  0  0  0  0  0  0  0
  -29.5858  -28.5241   19.6439 C   0  0  1  0  0  0  0  0  0  0  0  0
  -27.6468  -13.0279   19.7080 C   0  0  2  0  0  0  0  0  0  0  0  0
  -33.8139  -27.4688   13.2398 C   0  0  0  0  0  0  0  0  0  0  0  0
  -28.3931  -25.4118   16.4421 C   0  0  0  0  0  0  0  0  0  0  0  0
  -30.0454  -25.0821   14.5902 C   0  0  0  0  0  0  0  0  0  0  0  0
  -28.6491  -27.1480   14.6604 C   0  0  0  0  0  0  0  0  0  0  0  0
  -34.9393  -29.1739   16.4495 C   0  0  0  0  0  0  0  0  0  0  0  0
  -33.3894  -23.4031   22.3691 C   0  0  0  0  0  0  0  0  0  1  0  0
  -30.5256  -26.8630   16.3305 C   0  0  1  0  0  0  0  0  0  0  0  0
  -33.6272  -28.1619   14.5805 C   0  0  2  0  0  0  0  0  0  0  0  0
  -29.4120  -26.1275   15.5329 C   0  0  0  0  0  0  0  0  0  0  0  0
  -25.7944  -11.5360   20.3592 N   0  0  0  0  0  0  0  0  0  0  0  0
  -26.2115  -12.7948   20.1411 N   0  0  0  0  0  0  0  0  0  0  0  0
  -30.2610  -27.6896   18.6480 N   0  0  0  0  0  0  0  0  0  0  0  0
  -29.9521  -13.5053   20.4346 N   0  0  0  0  0  0  0  0  0  0  0  0
  -28.4984  -17.5323   22.8350 N   0  0  0  0  0  0  0  0  0  0  0  0
  -25.4981  -15.0533   20.1730 N   0  0  0  0  0  0  0  0  0  0  0  0
  -21.8022  -12.7755   21.4175 N   0  0  0  0  0  0  0  0  0  0  0  0
  -32.2101  -20.6617   22.8179 N   0  0  0  0  0  0  0  0  0  0  0  0
  -30.0776  -15.6664   21.3708 N   0  0  0  0  0  0  0  0  0  0  0  0
  -27.3052  -28.5448   20.4540 N   0  0  0  0  0  0  0  0  0  0  0  0
  -31.4893  -27.5722   15.4959 N   0  0  0  0  0  0  0  0  0  0  0  0
  -34.9730  -28.4700   15.1417 N   0  3  0  0  0  0  0  0  0  0  0  0
  -22.6473  -14.8649   20.9942 O   0  0  0  0  0  0  0  0  0  0  0  0
  -34.1911  -22.6449   24.5373 O   0  0  0  0  0  0  0  0  0  0  0  0
  -34.5233  -20.2363   23.0887 O   0  0  0  0  0  0  0  0  0  0  0  0
  -28.4417  -26.5304   20.1837 O   0  0  0  0  0  0  0  0  0  0  0  0
  -29.2988  -28.8247   16.8530 O   0  0  0  0  0  0  0  0  0  0  0  0
  -33.3674  -26.4528   16.2685 O   0  0  0  0  0  0  0  0  0  0  0  0
  -31.8810  -14.7621   20.2253 O   0  0  0  0  0  0  0  0  0  0  0  0
  -21.3707   -7.2491   21.9725 O   0  0  0  0  0  0  0  0  0  0  0  0
  -33.6685  -24.7190   22.8453 O   0  0  0  0  0  0  0  0  0  1  0  0
  -23.5769   -3.3883   25.2330 F   0  0  0  0  0  0  0  0  0  0  0  0
  -33.6988  -18.7944   21.3884 F   0  0  0  0  0  0  0  0  0  0  0  0
  -20.2083   -6.6070   24.3972 F   0  0  0  0  0  0  0  0  0  0  0  0
  -29.6162  -19.9606   23.5069 F   0  0  0  0  0  0  0  0  0  0  0  0
  1  2  1  0  0  0  0
  1  5  2  0  0  0  0
  2  6  2  0  0  0  0
  3  8  2  0  0  0  0
  3 16  1  0  0  0  0
  4  9  1  0  0  0  0
  4 16  2  0  0  0  0
  5 18  1  0  0  0  0
  6 20  1  0  0  0  0
  7 10  2  0  0  0  0
  7 19  1  0  0  0  0
  8 25  1  0  0  0  0
  9 25  2  0  0  0  0
 10 26  1  0  0  0  0
 11 12  2  0  0  0  0
 11 27  1  0  0  0  0
 12 28  1  0  0  0  0
 13 21  1  0  0  0  0
 13 26  2  0  0  0  0
 14 22  1  0  0  0  0
 14 29  2  0  0  0  0
 15 28  2  0  0  0  0
 15 30  1  0  0  0  0
 16 32  1  0  0  0  0
 17 32  1  0  0  0  0
 17 33  2  0  0  0  0
 17 34  1  0  0  0  0
 18 20  2  0  0  0  0
 18 41  1  0  0  0  0
 19 21  2  0  0  0  0
 19 42  1  0  0  0  0
 20 50  1  0  0  0  0
 21 43  1  0  0  0  0
 22 23  2  0  0  0  0
 22 70  1  0  0  0  0
 23 31  1  0  0  0  0
 23 66  1  0  0  0  0
 24 29  1  0  0  0  0
 24 31  2  0  0  0  0
 24 69  1  0  0  0  0
 25 81  1  0  0  0  0
 26 82  1  0  0  0  0
 27 30  2  0  0  0  0
 27 81  1  0  0  0  0
 28 83  1  0  0  0  0
 29 84  1  0  0  0  0
 30 85  1  0  0  0  0
 31 86  1  0  0  0  0
 32 62  2  0  0  0  0
 33 63  1  0  0  0  0
 33 67  1  0  0  0  0
 34 68  1  0  0  0  0
 34 74  2  0  0  0  0
 35 36  1  0  0  0  0
 35 58  1  0  0  0  0
 35 75  2  0  0  0  0
 36 69  1  0  0  0  0
 36 76  2  0  0  0  0
 37 51  1  0  0  0  0
 37 71  1  0  0  0  0
 37 77  2  0  0  0  0
 38 59  1  0  0  0  0
 38 64  1  0  0  0  0
 38 78  2  0  0  0  0
 39 60  1  0  0  0  0
 39 72  1  0  0  0  0
 39 79  2  0  0  0  0
 40 65  1  0  0  0  0
 40 70  1  0  0  0  0
 40 80  2  0  0  0  0
 41 44  1  0  0  0  0
 42 51  1  0  0  0  0
 43 64  1  0  0  0  0
 44 46  1  0  0  0  0
 45 47  1  0  0  0  0
 45 48  1  0  0  0  0
 46 50  1  0  0  0  0
 47 52  1  0  0  0  0
 48 65  1  0  0  0  0
 49 52  1  0  0  0  0
 49 65  1  0  0  0  0
 50 71  1  0  0  0  0
 51 64  1  0  0  0  0
 52 63  1  0  0  0  0
 53 60  1  0  0  0  0
 54 61  1  0  0  0  0
 55 61  1  0  0  0  0
 56 61  1  0  0  0  0
 57 73  1  0  0  0  0
 58 82  1  0  0  0  0
 59 61  1  0  0  0  0
 59 72  1  0  0  0  0
 60 73  1  0  0  0  0
 62 63  1  0  0  0  0
M  CHG  1  73   1
M  ISO  4  40 100  58 101  70 100  82 101
M  END
> <Batch ID>
0176

> <Smiles>
CNC(C)C(=O)NC(C(=O)N1Cc2cc([101O:1][101CH2:1]C(=O)C(=O)Nc3c(F)cc([100NH:0][100C:0](=O)N4CCCC(n5nc(-c6ccc(Oc7ccc(F)cc7F)cc6)c(C(N)=O)c5N)C4)c(N)c3F)ccc2CC1C(=O)NC1CCCc2ccccc21)C(C)(C)C

> <Shape>
0.286

> <Color>
0.211

> <Negative vol penalty>
0.000

$$$$

  -OEChem-04052304383D

 86 94  0     1  0  0  0  0  0999 V2000
  -29.6570  -35.8301   20.8831 C   0  0  0  0  0  0  0  0  0  0  0  0
  -29.6931  -34.4407   20.9437 C   0  0  0  0  0  0  0  0  0  0  0  0
  -24.8571   -8.7489   21.0622 C   0  0  0  0  0  0  0  0  0  0  0  0
  -23.1634  -10.0915   19.9825 C   0  0  0  0  0  0  0  0  0  0  0  0
  -28.6566  -36.5303   21.5561 C   0  0  0  0  0  0  0  0  0  0  0  0
  -28.7293  -33.7507   21.6782 C   0  0  0  0  0  0  0  0  0  0  0  0
  -26.8938  -29.7400   19.1901 C   0  0  0  0  0  0  0  0  0  0  0  0
  -23.8785   -7.8427   21.4706 C   0  0  0  0  0  0  0  0  0  0  0  0
  -22.1848   -9.1853   20.3907 C   0  0  0  0  0  0  0  0  0  0  0  0
  -27.6840  -28.5918   19.1620 C   0  0  0  0  0  0  0  0  0  0  0  0
  -21.5320   -7.6357   23.8945 C   0  0  0  0  0  0  0  0  0  0  0  0
  -21.5781   -7.1837   25.2132 C   0  0  0  0  0  0  0  0  0  0  0  0
  -26.3511  -27.6384   20.9323 C   0  0  0  0  0  0  0  0  0  0  0  0
  -27.6148  -20.1783   15.6684 C   0  0  0  0  0  0  0  0  0  0  0  0
  -27.7404  -19.4806   17.9781 C   0  0  0  0  0  0  0  0  0  0  0  0
  -21.8252   -4.9128   24.4262 C   0  0  0  0  0  0  0  0  0  0  0  0
  -24.4996   -9.8734   20.3182 C   0  0  0  0  0  0  0  0  0  0  0  0
  -26.2498  -10.7809   18.6993 C   0  0  0  0  0  0  0  0  0  0  0  0
  -27.6744  -35.8480   22.2913 C   0  0  0  0  0  0  0  0  0  0  0  0
  -25.8312  -29.8507   20.0985 C   0  0  0  0  0  0  0  0  0  0  0  0
  -27.7156  -34.4424   22.3627 C   0  0  0  0  0  0  0  0  0  0  0  0
  -25.5473  -28.7881   20.9681 C   0  0  0  0  0  0  0  0  0  0  0  0
  -27.6488  -18.8440   15.2634 C   0  0  0  0  0  0  0  0  0  0  0  0
  -27.6607  -20.4966   17.0257 C   0  0  0  0  0  0  0  0  0  0  0  0
  -27.7743  -18.1462   17.5731 C   0  0  0  0  0  0  0  0  0  0  0  0
  -22.5423   -8.0609   21.1348 C   0  0  0  0  0  0  0  0  0  0  0  0
  -27.4146  -27.5420   20.0351 C   0  0  0  0  0  0  0  0  0  0  0  0
  -21.6324   -6.7263   22.8415 C   0  0  0  0  0  0  0  0  0  0  0  0
  -21.7248   -5.8222   25.4791 C   0  0  0  0  0  0  0  0  0  0  0  0
  -21.7790   -5.3649   23.1074 C   0  0  0  0  0  0  0  0  0  0  0  0
  -27.7285  -17.8279   16.2157 C   0  0  0  0  0  0  0  0  0  0  0  0
  -25.5100  -10.8101   19.8967 C   0  0  0  0  0  0  0  0  0  0  0  0
  -27.0706  -11.8795   18.7760 C   0  0  0  0  0  0  0  0  0  0  0  0
  -26.1995   -9.8444   17.6148 C   0  0  0  0  0  0  0  0  0  0  0  0
  -27.6123  -23.8235   18.7828 C   0  0  0  0  0  0  0  0  0  0  0  0
  -27.6707  -22.3241   18.7295 C   0  0  0  0  0  0  0  0  0  0  0  0
  -25.1352  -31.8018   22.5094 C   0  0  0  0  0  0  0  0  0  0  0  0
  -22.3309  -30.1714   22.5074 C   0  0  0  0  0  0  0  0  0  0  0  0
  -20.6414  -27.3142   21.7147 C   0  0  0  0  0  0  0  0  0  0  0  0
  -27.9096  -17.2620   19.9281 C   0  0  0  0  0  0  0  0  0  0  0  0
  -26.6406  -36.6504   23.0409 C   0  0  0  0  0  0  0  0  0  0  0  0
  -24.9715  -31.0850   20.0979 C   0  0  0  0  0  0  0  0  0  0  0  0
  -24.4055  -28.8490   21.9485 C   0  0  0  0  0  0  0  0  0  0  0  0
  -25.4370  -35.8256   23.4894 C   0  0  0  0  0  0  0  0  0  0  0  0
  -28.0770  -14.9753   22.6521 C   0  0  0  0  0  0  0  0  0  0  0  0
  -25.8941  -34.5187   24.1296 C   0  0  0  0  0  0  0  0  0  0  0  0
  -27.4850  -13.6854   22.0796 C   0  0  0  0  0  0  0  0  0  0  0  0
  -27.3635  -16.2144   22.1143 C   0  0  0  0  0  0  0  0  0  0  0  0
  -26.6852  -15.0050   20.0781 C   0  0  0  0  0  0  0  0  0  0  0  0
  -26.6733  -33.6570   23.1287 C   0  0  1  0  0  0  0  0  0  0  0  0
  -24.2346  -31.3005   21.4162 C   0  0  1  0  0  0  0  0  0  0  0  0
  -27.4137  -13.7326   20.5407 C   0  0  2  0  0  0  0  0  0  0  0  0
  -27.5987  -18.5075   13.8110 C   0  0  0  0  0  0  0  0  0  0  0  0
  -18.3684  -26.2621   21.8705 C   0  0  0  0  0  0  0  0  0  0  0  0
  -22.7872  -29.6310   25.4755 C   0  0  0  0  0  0  0  0  0  0  0  0
  -21.0472  -27.8356   25.3447 C   0  0  0  0  0  0  0  0  0  0  0  0
  -20.4297  -30.2054   24.8701 C   0  0  0  0  0  0  0  0  0  0  0  0
  -20.4143  -27.0932   18.7722 C   0  0  0  0  0  0  0  0  0  0  0  0
  -28.9360  -24.5507   18.6936 C   0  0  0  0  0  0  0  0  0  0  0  0
  -28.7691  -26.0613   18.7589 C   0  0  0  0  0  0  0  0  0  1  0  0
  -21.8180  -28.9258   23.1887 C   0  0  1  0  0  0  0  0  0  0  0  0
  -19.3133  -27.0907   21.0141 C   0  0  2  0  0  0  0  0  0  0  0  0
  -21.5433  -29.1488   24.7027 C   0  0  0  0  0  0  0  0  0  0  0  0
  -25.8324  -11.8452   20.6769 N   0  0  0  0  0  0  0  0  0  0  0  0
  -26.7839  -12.4765   19.9683 N   0  0  0  0  0  0  0  0  0  0  0  0
  -23.5978  -30.0794   21.9139 N   0  0  0  0  0  0  0  0  0  0  0  0
  -27.3383  -16.1928   20.6502 N   0  0  0  0  0  0  0  0  0  0  0  0
  -28.0025  -12.3833   17.9392 N   0  0  0  0  0  0  0  0  0  0  0  0
  -25.2989   -8.7737   17.6978 N   0  0  0  0  0  0  0  0  0  0  0  0
  -27.6260  -21.8497   17.4363 N   0  0  0  0  0  0  0  0  0  0  0  0
  -27.8556  -17.1159   18.5424 N   0  0  0  0  0  0  0  0  0  0  0  0
  -25.7650  -32.9963   22.2160 N   0  0  0  0  0  0  0  0  0  0  0  0
  -20.6509  -28.4949   22.4268 N   0  0  0  0  0  0  0  0  0  0  0  0
  -19.5227  -26.3788   19.7218 N   0  3  0  0  0  0  0  0  0  0  0  0
  -26.9432   -9.9447   16.6096 O   0  0  0  0  0  0  0  0  0  0  0  0
  -26.5083  -24.3373   18.8819 O   0  0  0  0  0  0  0  0  0  0  0  0
  -27.7730  -21.7432   19.7971 O   0  0  0  0  0  0  0  0  0  0  0  0
  -25.2491  -31.1537   23.5432 O   0  0  0  0  0  0  0  0  0  0  0  0
  -21.6301  -31.1865   22.4959 O   0  0  0  0  0  0  0  0  0  0  0  0
  -21.5755  -26.5189   21.6409 O   0  0  0  0  0  0  0  0  0  0  0  0
  -28.4341  -18.2226   20.4974 O   0  0  0  0  0  0  0  0  0  0  0  0
  -21.5872   -7.1767   21.5328 O   0  0  0  0  0  0  0  0  0  0  0  0
  -28.1848  -26.4203   20.0103 O   0  0  0  0  0  0  0  0  0  1  0  0
  -21.7706   -5.3885   26.7455 F   0  0  0  0  0  0  0  0  0  0  0  0
  -21.8771   -4.4866   22.1000 F   0  0  0  0  0  0  0  0  0  0  0  0
  -27.7616  -16.5453   15.8238 F   0  0  0  0  0  0  0  0  0  0  0  0
  1  2  1  0  0  0  0
  1  5  2  0  0  0  0
  2  6  2  0  0  0  0
  3  8  2  0  0  0  0
  3 17  1  0  0  0  0
  4  9  1  0  0  0  0
  4 17  2  0  0  0  0
  5 19  1  0  0  0  0
  6 21  1  0  0  0  0
  7 10  2  0  0  0  0
  7 20  1  0  0  0  0
  8 26  1  0  0  0  0
  9 26  2  0  0  0  0
 10 27  1  0  0  0  0
 11 12  2  0  0  0  0
 11 28  1  0  0  0  0
 12 29  1  0  0  0  0
 13 22  1  0  0  0  0
 13 27  2  0  0  0  0
 14 23  2  0  0  0  0
 14 24  1  0  0  0  0
 15 24  2  0  0  0  0
 15 25  1  0  0  0  0
 16 29  2  0  0  0  0
 16 30  1  0  0  0  0
 17 32  1  0  0  0  0
 18 32  1  0  0  0  0
 18 33  2  0  0  0  0
 18 34  1  0  0  0  0
 19 21  2  0  0  0  0
 19 41  1  0  0  0  0
 20 22  2  0  0  0  0
 20 42  1  0  0  0  0
 21 50  1  0  0  0  0
 22 43  1  0  0  0  0
 23 31  1  0  0  0  0
 23 53  1  0  0  0  0
 24 70  1  0  0  0  0
 25 31  2  0  0  0  0
 25 71  1  0  0  0  0
 26 82  1  0  0  0  0
 27 83  1  0  0  0  0
 28 30  2  0  0  0  0
 28 82  1  0  0  0  0
 29 84  1  0  0  0  0
 30 85  1  0  0  0  0
 31 86  1  0  0  0  0
 32 64  2  0  0  0  0
 33 65  1  0  0  0  0
 33 68  1  0  0  0  0
 34 69  1  0  0  0  0
 34 75  2  0  0  0  0
 35 36  1  0  0  0  0
 35 59  1  0  0  0  0
 35 76  2  0  0  0  0
 36 70  1  0  0  0  0
 36 77  2  0  0  0  0
 37 51  1  0  0  0  0
 37 72  1  0  0  0  0
 37 78  2  0  0  0  0
 38 61  1  0  0  0  0
 38 66  1  0  0  0  0
 38 79  2  0  0  0  0
 39 62  1  0  0  0  0
 39 73  1  0  0  0  0
 39 80  2  0  0  0  0
 40 67  1  0  0  0  0
 40 71  1  0  0  0  0
 40 81  2  0  0  0  0
 41 44  1  0  0  0  0
 42 51  1  0  0  0  0
 43 66  1  0  0  0  0
 44 46  1  0  0  0  0
 45 47  1  0  0  0  0
 45 48  1  0  0  0  0
 46 50  1  0  0  0  0
 47 52  1  0  0  0  0
 48 67  1  0  0  0  0
 49 52  1  0  0  0  0
 49 67  1  0  0  0  0
 50 72  1  0  0  0  0
 51 66  1  0  0  0  0
 52 65  1  0  0  0  0
 54 62  1  0  0  0  0
 55 63  1  0  0  0  0
 56 63  1  0  0  0  0
 57 63  1  0  0  0  0
 58 74  1  0  0  0  0
 59 60  1  0  0  0  0
 60 83  1  0  0  0  0
 61 63  1  0  0  0  0
 61 73  1  0  0  0  0
 62 74  1  0  0  0  0
 64 65  1  0  0  0  0
M  CHG  1  74   1
M  ISO  4  40 100  60 101  71 100  83 101
M  END
> <Batch ID>
0176

> <Smiles>
CNC(C)C(=O)NC(C(=O)N1Cc2cc([101O:1][101CH2:1]CC(=O)C(=O)Nc3cc(C)c(F)c([100NH:0][100C:0](=O)N4CCCC(n5nc(-c6ccc(Oc7ccc(F)cc7F)cc6)c(C(N)=O)c5N)C4)c3)ccc2CC1C(=O)NC1CCCc2ccccc21)C(C)(C)C

> <Shape>
0.308

> <Color>
0.109

> <Negative vol penalty>
0.000

$$$$

  -OEChem-04052304383D

 85 93  0     1  0  0  0  0  0999 V2000
  -27.1946  -37.4687   22.8292 C   0  0  0  0  0  0  0  0  0  0  0  0
  -27.7325  -36.3285   22.2410 C   0  0  0  0  0  0  0  0  0  0  0  0
  -24.0534   -9.6269   21.7468 C   0  0  0  0  0  0  0  0  0  0  0  0
  -23.3704  -10.7232   19.7051 C   0  0  0  0  0  0  0  0  0  0  0  0
  -26.2760  -37.3470   23.8710 C   0  0  0  0  0  0  0  0  0  0  0  0
  -27.3531  -35.0659   22.6951 C   0  0  0  0  0  0  0  0  0  0  0  0
  -26.7047  -29.9867   19.3354 C   0  0  0  0  0  0  0  0  0  0  0  0
  -22.7196   -9.3441   22.0411 C   0  0  0  0  0  0  0  0  0  0  0  0
  -22.0366  -10.4404   19.9994 C   0  0  0  0  0  0  0  0  0  0  0  0
  -27.5439  -28.8958   19.1129 C   0  0  0  0  0  0  0  0  0  0  0  0
  -20.3805   -7.0968   21.0867 C   0  0  0  0  0  0  0  0  0  0  0  0
  -20.0732   -5.8107   21.5305 C   0  0  0  0  0  0  0  0  0  0  0  0
  -26.4046  -27.6724   20.8521 C   0  0  0  0  0  0  0  0  0  0  0  0
  -29.0999  -18.5341   17.7569 C   0  0  0  0  0  0  0  0  0  0  0  0
  -19.2141   -6.7279   23.5940 C   0  0  0  0  0  0  0  0  0  0  0  0
  -24.3788  -10.3165   20.5788 C   0  0  0  0  0  0  0  0  0  0  0  0
  -26.6544   -9.8086   19.5438 C   0  0  0  0  0  0  0  0  0  0  0  0
  -25.8778  -36.0821   24.3317 C   0  0  0  0  0  0  0  0  0  0  0  0
  -25.7147  -29.9325   20.3270 C   0  0  0  0  0  0  0  0  0  0  0  0
  -26.4294  -34.9271   23.7450 C   0  0  0  0  0  0  0  0  0  0  0  0
  -25.5525  -28.7631   21.0834 C   0  0  0  0  0  0  0  0  0  0  0  0
  -28.8251  -19.2481   16.5549 C   0  0  0  0  0  0  0  0  0  0  0  0
  -21.7112   -9.7509   21.1674 C   0  0  0  0  0  0  0  0  0  0  0  0
  -27.3958  -27.7395   19.8732 C   0  0  0  0  0  0  0  0  0  0  0  0
  -20.1047   -8.1985   21.8966 C   0  0  0  0  0  0  0  0  0  0  0  0
  -19.4900   -5.6262   22.7841 C   0  0  0  0  0  0  0  0  0  0  0  0
  -19.5215   -8.0141   23.1502 C   0  0  0  0  0  0  0  0  0  0  0  0
  -25.7564  -10.6095   20.2744 C   0  0  0  0  0  0  0  0  0  0  0  0
  -27.8258  -10.5256   19.5359 C   0  0  0  0  0  0  0  0  0  0  0  0
  -28.3534  -17.3807   17.8558 C   0  0  0  0  0  0  0  0  0  0  0  0
  -27.8790  -18.6130   15.7807 C   0  0  0  0  0  0  0  0  0  0  0  0
  -27.8222  -25.7353   18.7452 C   0  0  0  0  0  0  0  0  0  1  0  0
  -28.5774  -21.7129   16.4195 C   0  0  0  0  0  0  0  0  0  0  0  0
  -26.4481   -8.5307   18.9271 C   0  0  0  0  0  0  0  0  0  0  0  0
  -28.5477  -24.6486   18.4557 C   0  0  0  0  0  0  0  0  0  0  0  0
  -28.0288  -23.6814   17.4414 C   0  0  0  0  0  0  0  0  0  0  0  0
  -25.1230  -31.5527   22.9970 C   0  0  0  0  0  0  0  0  0  0  0  0
  -22.4083  -29.7772   23.0106 C   0  0  0  0  0  0  0  0  0  0  0  0
  -20.7982  -26.9382   22.0132 C   0  0  0  0  0  0  0  0  0  0  0  0
  -29.0488  -16.3521   20.0478 C   0  0  0  0  0  0  0  0  0  0  0  0
  -24.9179  -36.0013   25.4921 C   0  0  0  0  0  0  0  0  0  0  0  0
  -24.8001  -31.1081   20.5365 C   0  0  0  0  0  0  0  0  0  0  0  0
  -24.4918  -28.6468   22.1463 C   0  0  0  0  0  0  0  0  0  0  0  0
  -24.2846  -34.6230   25.6638 C   0  0  0  0  0  0  0  0  0  0  0  0
  -30.2728  -13.7292   22.1213 C   0  0  0  0  0  0  0  0  0  0  0  0
  -25.3464  -33.5320   25.5688 C   0  0  0  0  0  0  0  0  0  0  0  0
  -29.3390  -12.5568   21.8120 C   0  0  0  0  0  0  0  0  0  0  0  0
  -29.5285  -15.0633   22.1175 C   0  0  0  0  0  0  0  0  0  0  0  0
  -27.8142  -14.1630   20.5945 C   0  0  0  0  0  0  0  0  0  0  0  0
  -26.0239  -33.5398   24.1932 C   0  0  1  0  0  0  0  0  0  0  0  0
  -24.1622  -31.1294   21.9221 C   0  0  1  0  0  0  0  0  0  0  0  0
  -28.5310  -12.8047   20.5231 C   0  0  2  0  0  0  0  0  0  0  0  0
  -18.5978  -25.7483   22.2120 C   0  0  0  0  0  0  0  0  0  0  0  0
  -23.1272  -28.9277   25.8517 C   0  0  0  0  0  0  0  0  0  0  0  0
  -21.4696  -27.0634   25.6391 C   0  0  0  0  0  0  0  0  0  0  0  0
  -20.7039  -29.4332   25.4956 C   0  0  0  0  0  0  0  0  0  0  0  0
  -20.3459  -27.0425   19.0903 C   0  0  0  0  0  0  0  0  0  0  0  0
  -29.4914  -20.5435   16.1792 C   0  0  0  0  0  0  0  0  0  0  0  0
  -22.0117  -28.4348   23.5760 C   0  0  1  0  0  0  0  0  0  0  0  0
  -19.4302  -26.7215   21.3919 C   0  0  2  0  0  0  0  0  0  0  0  0
  -21.8495  -28.4673   25.1219 C   0  0  0  0  0  0  0  0  0  0  0  0
  -26.3099  -11.7481   20.7001 N   0  0  0  0  0  0  0  0  0  0  0  0
  -28.9002  -22.6291   17.2707 N   0  0  0  0  0  0  0  0  0  0  0  0
  -27.5683  -11.6678   20.2355 N   0  0  0  0  0  0  0  0  0  0  0  0
  -23.6263  -29.8254   22.3178 N   0  0  0  0  0  0  0  0  0  0  0  0
  -28.7894  -15.2311   20.8644 N   0  0  0  0  0  0  0  0  0  0  0  0
  -29.0407  -10.2843   18.9991 N   0  0  0  0  0  0  0  0  0  0  0  0
  -25.1838   -7.9350   19.0311 N   0  0  0  0  0  0  0  0  0  0  0  0
  -28.3094  -16.3881   18.8660 N   0  0  0  0  0  0  0  0  0  0  0  0
  -25.1685  -32.9180   23.2051 N   0  0  0  0  0  0  0  0  0  0  0  0
  -20.8088  -28.0284   22.8573 N   0  0  0  0  0  0  0  0  0  0  0  0
  -19.5686  -26.1750   20.0123 N   0  3  0  0  0  0  0  0  0  0  0  0
  -27.3627   -7.9273   18.3165 O   0  0  0  0  0  0  0  0  0  0  0  0
  -26.9594  -23.8572   16.8656 O   0  0  0  0  0  0  0  0  0  0  0  0
  -25.7738  -30.7034   23.5943 O   0  0  0  0  0  0  0  0  0  0  0  0
  -21.6614  -30.7456   23.1715 O   0  0  0  0  0  0  0  0  0  0  0  0
  -21.7601  -26.2108   21.7765 O   0  0  0  0  0  0  0  0  0  0  0  0
  -29.8864  -17.2024   20.3599 O   0  0  0  0  0  0  0  0  0  0  0  0
  -29.7599  -24.3811   19.0582 O   0  0  0  0  0  0  0  0  0  0  0  0
  -20.4096   -9.4749   21.4542 O   0  0  0  0  0  0  0  0  0  0  0  0
  -28.2140  -26.6734   19.6586 O   0  0  0  0  0  0  0  0  0  1  0  0
  -19.1936   -4.3911   23.2095 F   0  0  0  0  0  0  0  0  0  0  0  0
  -19.2531   -9.0687   23.9321 F   0  0  0  0  0  0  0  0  0  0  0  0
  -27.4394  -19.0711   14.6032 F   0  0  0  0  0  0  0  0  0  0  0  0
  -27.3263  -17.1622   16.5032 S   0  0  0  0  0  0  0  0  0  0  0  0
  1  2  1  0  0  0  0
  1  5  2  0  0  0  0
  2  6  2  0  0  0  0
  3  8  2  0  0  0  0
  3 16  1  0  0  0  0
  4  9  1  0  0  0  0
  4 16  2  0  0  0  0
  5 18  1  0  0  0  0
  6 20  1  0  0  0  0
  7 10  2  0  0  0  0
  7 19  1  0  0  0  0
  8 23  1  0  0  0  0
  9 23  2  0  0  0  0
 10 24  1  0  0  0  0
 11 12  2  0  0  0  0
 11 25  1  0  0  0  0
 12 26  1  0  0  0  0
 13 21  1  0  0  0  0
 13 24  2  0  0  0  0
 14 22  1  0  0  0  0
 14 30  2  0  0  0  0
 15 26  2  0  0  0  0
 15 27  1  0  0  0  0
 16 28  1  0  0  0  0
 17 28  1  0  0  0  0
 17 29  2  0  0  0  0
 17 34  1  0  0  0  0
 18 20  2  0  0  0  0
 18 41  1  0  0  0  0
 19 21  2  0  0  0  0
 19 42  1  0  0  0  0
 20 50  1  0  0  0  0
 21 43  1  0  0  0  0
 22 31  2  0  0  0  0
 22 58  1  0  0  0  0
 23 80  1  0  0  0  0
 24 81  1  0  0  0  0
 25 27  2  0  0  0  0
 25 80  1  0  0  0  0
 26 82  1  0  0  0  0
 27 83  1  0  0  0  0
 28 62  2  0  0  0  0
 29 64  1  0  0  0  0
 29 67  1  0  0  0  0
 30 69  1  0  0  0  0
 30 85  1  0  0  0  0
 31 84  1  0  0  0  0
 31 85  1  0  0  0  0
 32 35  2  0  0  0  0
 32 81  1  0  0  0  0
 33 58  1  0  0  0  0
 33 63  2  0  0  0  0
 34 68  1  0  0  0  0
 34 73  2  0  0  0  0
 35 36  1  0  0  0  0
 35 79  1  0  0  0  0
 36 63  1  0  0  0  0
 36 74  2  0  0  0  0
 37 51  1  0  0  0  0
 37 70  1  0  0  0  0
 37 75  2  0  0  0  0
 38 59  1  0  0  0  0
 38 65  1  0  0  0  0
 38 76  2  0  0  0  0
 39 60  1  0  0  0  0
 39 71  1  0  0  0  0
 39 77  2  0  0  0  0
 40 66  1  0  0  0  0
 40 69  1  0  0  0  0
 40 78  2  0  0  0  0
 41 44  1  0  0  0  0
 42 51  1  0  0  0  0
 43 65  1  0  0  0  0
 44 46  1  0  0  0  0
 45 47  1  0  0  0  0
 45 48  1  0  0  0  0
 46 50  1  0  0  0  0
 47 52  1  0  0  0  0
 48 66  1  0  0  0  0
 49 52  1  0  0  0  0
 49 66  1  0  0  0  0
 50 70  1  0  0  0  0
 51 65  1  0  0  0  0
 52 64  1  0  0  0  0
 53 60  1  0  0  0  0
 54 61  1  0  0  0  0
 55 61  1  0  0  0  0
 56 61  1  0  0  0  0
 57 72  1  0  0  0  0
 59 61  1  0  0  0  0
 59 71  1  0  0  0  0
 60 72  1  0  0  0  0
 62 64  1  0  0  0  0
M  CHG  1  72   1
M  ISO  4  32 101  40 100  69 100  81 101
M  END
> <Batch ID>
0176

> <Smiles>
CNC(C)C(=O)NC(C(=O)N1Cc2cc([101O:1][101CH2:1]C(=O)C(=O)NC=Cc3cc([100NH:0][100C:0](=O)N4CCCC(n5nc(-c6ccc(Oc7ccc(F)cc7F)cc6)c(C(N)=O)c5N)C4)sc3F)ccc2CC1C(=O)NC1CCCc2ccccc21)C(C)(C)C

> <Shape>
0.290

> <Color>
0.082

> <Negative vol penalty>
0.000

$$$$

  -OEChem-04052304383D

 89 97  0     1  0  0  0  0  0999 V2000
  -17.7880  -31.9389   16.1142 C   0  0  0  0  0  0  0  0  0  0  0  0
  -18.7749  -31.0161   16.4457 C   0  0  0  0  0  0  0  0  0  0  0  0
  -25.3792   -8.9285   21.1110 C   0  0  0  0  0  0  0  0  0  0  0  0
  -25.4095  -10.0766   23.2366 C   0  0  0  0  0  0  0  0  0  0  0  0
  -18.0567  -33.3046   16.1955 C   0  0  0  0  0  0  0  0  0  0  0  0
  -20.0315  -31.4585   16.8577 C   0  0  0  0  0  0  0  0  0  0  0  0
  -23.6881  -28.8181   21.0005 C   0  0  0  0  0  0  0  0  0  0  0  0
  -25.5494   -7.7094   21.7671 C   0  0  0  0  0  0  0  0  0  0  0  0
  -25.5797   -8.8575   23.8927 C   0  0  0  0  0  0  0  0  0  0  0  0
  -24.7891  -27.9720   20.8760 C   0  0  0  0  0  0  0  0  0  0  0  0
  -23.6339   -5.5176   23.4875 C   0  0  0  0  0  0  0  0  0  0  0  0
  -22.8339   -4.4480   23.0857 C   0  0  0  0  0  0  0  0  0  0  0  0
  -26.2629  -29.8734   21.0548 C   0  0  0  0  0  0  0  0  0  0  0  0
  -28.7985  -19.1098   21.8466 C   0  0  0  0  0  0  0  0  0  0  0  0
  -24.8113   -3.1868   22.5058 C   0  0  0  0  0  0  0  0  0  0  0  0
  -25.3092  -10.1121   21.8458 C   0  0  0  0  0  0  0  0  0  0  0  0
  -23.9168  -12.0014   20.8462 C   0  0  0  0  0  0  0  0  0  0  0  0
  -19.3142  -33.7640   16.6179 C   0  0  0  0  0  0  0  0  0  0  0  0
  -23.8662  -30.2018   21.1424 C   0  0  0  0  0  0  0  0  0  0  0  0
  -20.3177  -32.8316   16.9434 C   0  0  0  0  0  0  0  0  0  0  0  0
  -25.1626  -30.7346   21.1835 C   0  0  0  0  0  0  0  0  0  0  0  0
  -28.5922  -20.2988   22.5461 C   0  0  0  0  0  0  0  0  0  0  0  0
  -28.5823  -17.8839   22.4760 C   0  0  0  0  0  0  0  0  0  0  0  0
  -25.6497   -7.6739   23.1579 C   0  0  0  0  0  0  0  0  0  0  0  0
  -26.0767  -28.4999   20.9002 C   0  0  0  0  0  0  0  0  0  0  0  0
  -25.0227   -5.4219   23.3984 C   0  0  0  0  0  0  0  0  0  0  0  0
  -23.4225   -3.2826   22.5949 C   0  0  0  0  0  0  0  0  0  0  0  0
  -25.6113   -4.2565   22.9076 C   0  0  0  0  0  0  0  0  0  0  0  0
  -28.1699  -20.2620   23.8749 C   0  0  0  0  0  0  0  0  0  0  0  0
  -28.1600  -17.8470   23.8049 C   0  0  0  0  0  0  0  0  0  0  0  0
  -27.9538  -19.0360   24.5044 C   0  0  0  0  0  0  0  0  0  0  0  0
  -25.1339  -11.3718   21.1687 C   0  0  0  0  0  0  0  0  0  0  0  0
  -24.2880  -13.1631   20.2144 C   0  0  0  0  0  0  0  0  0  0  0  0
  -22.5710  -11.5744   21.0955 C   0  0  0  0  0  0  0  0  0  0  0  0
  -23.0407  -32.7559   19.4398 C   0  0  0  0  0  0  0  0  0  0  0  0
  -28.1846  -25.4978   20.5291 C   0  0  0  0  0  0  0  0  0  0  0  0
  -24.2497  -34.3610   21.9863 C   0  0  0  0  0  0  0  0  0  0  0  0
  -26.3436  -34.3636   24.6811 C   0  0  0  0  0  0  0  0  0  0  0  0
  -29.2316  -21.7579   20.5999 C   0  0  0  0  0  0  0  0  0  0  0  0
  -29.2130  -16.5392   20.4412 C   0  0  0  0  0  0  0  0  0  0  0  0
  -19.5728  -35.2496   16.6446 C   0  0  0  0  0  0  0  0  0  0  0  0
  -22.6689  -31.0980   21.3024 C   0  0  0  0  0  0  0  0  0  0  0  0
  -25.4082  -32.2108   21.3540 C   0  0  0  0  0  0  0  0  0  0  0  0
  -20.8105  -35.6380   17.4494 C   0  0  0  0  0  0  0  0  0  0  0  0
  -27.8076  -15.0150   17.5465 C   0  0  0  0  0  0  0  0  0  0  0  0
  -21.9877  -34.7386   17.0856 C   0  0  0  0  0  0  0  0  0  0  0  0
  -26.8472  -13.9693   18.1176 C   0  0  0  0  0  0  0  0  0  0  0  0
  -29.0745  -15.1424   18.3906 C   0  0  0  0  0  0  0  0  0  0  0  0
  -27.8855  -14.3367   20.3922 C   0  0  0  0  0  0  0  0  0  0  0  0
  -21.6852  -33.2725   17.4183 C   0  0  1  0  0  0  0  0  0  0  0  0
  -22.9537  -32.5486   20.9254 C   0  0  1  0  0  0  0  0  0  0  0  0
  -26.5658  -14.2191   19.6122 C   0  0  2  0  0  0  0  0  0  0  0  0
  -27.1455  -35.8322   26.5513 C   0  0  0  0  0  0  0  0  0  0  0  0
  -26.0178  -35.8893   20.0247 C   0  0  0  0  0  0  0  0  0  0  0  0
  -27.4226  -36.6163   21.9654 C   0  0  0  0  0  0  0  0  0  0  0  0
  -25.0239  -37.2898   21.8428 C   0  0  0  0  0  0  0  0  0  0  0  0
  -25.2963  -32.5124   26.7390 C   0  0  0  0  0  0  0  0  0  0  0  0
  -28.0301  -23.9905   20.3798 C   0  0  0  0  0  0  0  0  0  0  0  0
  -26.8903  -26.2817   20.6286 C   0  0  0  0  0  0  0  0  0  1  0  0
  -25.6114  -34.8879   22.3695 C   0  0  1  0  0  0  0  0  0  0  0  0
  -26.1286  -34.7855   26.1234 C   0  0  2  0  0  0  0  0  0  0  0  0
  -29.3540  -23.2389   20.2791 C   0  0  2  0  0  0  0  0  0  0  0  0
  -26.0146  -36.1432   21.5454 C   0  0  0  0  0  0  0  0  0  0  0  0
  -26.1987  -12.0751   20.7741 N   0  0  0  0  0  0  0  0  0  0  0  0
  -25.6518  -13.1587   20.1972 N   0  0  0  0  0  0  0  0  0  0  0  0
  -24.2051  -33.0467   21.5001 N   0  0  0  0  0  0  0  0  0  0  0  0
  -28.7302  -15.3823   19.7937 N   0  0  0  0  0  0  0  0  0  0  0  0
  -23.5776  -14.1777   19.6773 N   0  0  0  0  0  0  0  0  0  0  0  0
  -22.3685  -10.3551   21.7562 N   0  0  0  0  0  0  0  0  0  0  0  0
  -28.8129  -21.5416   21.9064 N   0  0  0  0  0  0  0  0  0  0  0  0
  -28.7936  -16.6772   21.7639 N   0  0  0  0  0  0  0  0  0  0  0  0
  -21.8284  -33.0367   18.8389 N   0  0  0  0  0  0  0  0  0  0  0  0
  -25.5736  -35.1065   23.8114 N   0  0  0  0  0  0  0  0  0  0  0  0
  -26.2537  -33.6101   27.0310 N   0  3  0  0  0  0  0  0  0  0  0  0
  -21.5773  -12.2461   20.7283 O   0  0  0  0  0  0  0  0  0  0  0  0
  -24.1275  -32.6691   18.8803 O   0  0  0  0  0  0  0  0  0  0  0  0
  -29.2809  -26.0520   20.5865 O   0  0  0  0  0  0  0  0  0  0  0  0
  -23.2609  -35.0863   22.1203 O   0  0  0  0  0  0  0  0  0  0  0  0
  -27.1200  -33.4673   24.3579 O   0  0  0  0  0  0  0  0  0  0  0  0
  -29.5095  -20.9136   19.7529 O   0  0  0  0  0  0  0  0  0  0  0  0
  -29.9225  -17.3618   19.8564 O   0  0  0  0  0  0  0  0  0  0  0  0
  -25.8156   -6.4844   23.7984 O   0  0  0  0  0  0  0  0  0  0  0  0
  -27.1531  -27.6763   20.7783 O   0  0  0  0  0  0  0  0  0  1  0  0
  -22.6542   -2.2549   22.2106 F   0  0  0  0  0  0  0  0  0  0  0  0
  -26.9450   -4.1582   22.8207 F   0  0  0  0  0  0  0  0  0  0  0  0
  -27.9696  -21.3982   24.5574 F   0  0  0  0  0  0  0  0  0  0  0  0
  -27.9501  -16.6748   24.4203 F   0  0  0  0  0  0  0  0  0  0  0  0
  -27.5480  -19.0005   25.7802 F   0  0  0  0  0  0  0  0  0  0  0  0
  -29.8673  -23.4234   19.0293 F   0  0  0  0  0  0  0  0  0  0  0  0
  1  2  1  0  0  0  0
  1  5  2  0  0  0  0
  2  6  2  0  0  0  0
  3  8  2  0  0  0  0
  3 16  1  0  0  0  0
  4  9  1  0  0  0  0
  4 16  2  0  0  0  0
  5 18  1  0  0  0  0
  6 20  1  0  0  0  0
  7 10  2  0  0  0  0
  7 19  1  0  0  0  0
  8 24  1  0  0  0  0
  9 24  2  0  0  0  0
 10 25  1  0  0  0  0
 11 12  2  0  0  0  0
 11 26  1  0  0  0  0
 12 27  1  0  0  0  0
 13 21  1  0  0  0  0
 13 25  2  0  0  0  0
 14 22  1  0  0  0  0
 14 23  2  0  0  0  0
 15 27  2  0  0  0  0
 15 28  1  0  0  0  0
 16 32  1  0  0  0  0
 17 32  1  0  0  0  0
 17 33  2  0  0  0  0
 17 34  1  0  0  0  0
 18 20  2  0  0  0  0
 18 41  1  0  0  0  0
 19 21  2  0  0  0  0
 19 42  1  0  0  0  0
 20 50  1  0  0  0  0
 21 43  1  0  0  0  0
 22 29  2  0  0  0  0
 22 70  1  0  0  0  0
 23 30  1  0  0  0  0
 23 71  1  0  0  0  0
 24 82  1  0  0  0  0
 25 83  1  0  0  0  0
 26 28  2  0  0  0  0
 26 82  1  0  0  0  0
 27 84  1  0  0  0  0
 28 85  1  0  0  0  0
 29 31  1  0  0  0  0
 29 86  1  0  0  0  0
 30 31  2  0  0  0  0
 30 87  1  0  0  0  0
 31 88  1  0  0  0  0
 32 64  2  0  0  0  0
 33 65  1  0  0  0  0
 33 68  1  0  0  0  0
 34 69  1  0  0  0  0
 34 75  2  0  0  0  0
 35 51  1  0  0  0  0
 35 72  1  0  0  0  0
 35 76  2  0  0  0  0
 36 58  1  0  0  0  0
 36 59  1  0  0  0  0
 36 77  2  0  0  0  0
 37 60  1  0  0  0  0
 37 66  1  0  0  0  0
 37 78  2  0  0  0  0
 38 61  1  0  0  0  0
 38 73  1  0  0  0  0
 38 79  2  0  0  0  0
 39 62  1  0  0  0  0
 39 70  1  0  0  0  0
 39 80  2  0  0  0  0
 40 67  1  0  0  0  0
 40 71  1  0  0  0  0
 40 81  2  0  0  0  0
 41 44  1  0  0  0  0
 42 51  1  0  0  0  0
 43 66  1  0  0  0  0
 44 46  1  0  0  0  0
 45 47  1  0  0  0  0
 45 48  1  0  0  0  0
 46 50  1  0  0  0  0
 47 52  1  0  0  0  0
 48 67  1  0  0  0  0
 49 52  1  0  0  0  0
 49 67  1  0  0  0  0
 50 72  1  0  0  0  0
 51 66  1  0  0  0  0
 52 65  1  0  0  0  0
 53 61  1  0  0  0  0
 54 63  1  0  0  0  0
 55 63  1  0  0  0  0
 56 63  1  0  0  0  0
 57 74  1  0  0  0  0
 58 62  1  0  0  0  0
 59 83  1  0  0  0  0
 60 63  1  0  0  0  0
 60 73  1  0  0  0  0
 61 74  1  0  0  0  0
 62 89  1  0  0  0  0
 64 65  1  0  0  0  0
M  CHG  1  74   1
M  ISO  4  40 100  59 101  71 100  83 101
M  END
> <Batch ID>
0176

> <Smiles>
CNC(C)C(=O)NC(C(=O)N1Cc2cc([101O:1][101CH2:1]C(=O)CC(F)C(=O)Nc3cc([100NH:0][100C:0](=O)N4CCCC(n5nc(-c6ccc(Oc7ccc(F)cc7F)cc6)c(C(N)=O)c5N)C4)c(F)c(F)c3F)ccc2CC1C(=O)NC1CCCc2ccccc21)C(C)(C)C

> <Shape>
0.233

> <Color>
0.082

> <Negative vol penalty>
0.000

$$$$

  -OEChem-04052304383D

 85 93  0     1  0  0  0  0  0999 V2000
  -23.4171  -23.5640   21.4351 C   0  0  0  0  0  0  0  0  0  0  0  0
  -24.5436  -22.7532   21.5302 C   0  0  0  0  0  0  0  0  0  0  0  0
  -22.0637  -28.5691   21.0067 C   0  0  0  0  0  0  0  0  0  0  0  0
  -23.3433  -28.0440   22.9876 C   0  0  0  0  0  0  0  0  0  0  0  0
  -22.1676  -23.0649   21.8005 C   0  0  0  0  0  0  0  0  0  0  0  0
  -24.4214  -21.4432   21.9919 C   0  0  0  0  0  0  0  0  0  0  0  0
  -27.0361  -18.1407   19.1809 C   0  0  0  0  0  0  0  0  0  0  0  0
  -20.8811  -28.4212   21.7313 C   0  0  0  0  0  0  0  0  0  0  0  0
  -22.1606  -27.8961   23.7123 C   0  0  0  0  0  0  0  0  0  0  0  0
  -28.4133  -18.0779   19.3887 C   0  0  0  0  0  0  0  0  0  0  0  0
  -19.0647  -30.2352   23.9319 C   0  0  0  0  0  0  0  0  0  0  0  0
  -18.0761  -31.2048   23.7642 C   0  0  0  0  0  0  0  0  0  0  0  0
  -28.1115  -16.1120   20.7537 C   0  0  0  0  0  0  0  0  0  0  0  0
  -16.5450  -29.5082   22.9805 C   0  0  0  0  0  0  0  0  0  0  0  0
  -23.2948  -28.3805   21.6348 C   0  0  0  0  0  0  0  0  0  0  0  0
  -25.2672  -29.7112   20.7147 C   0  0  0  0  0  0  0  0  0  0  0  0
  -22.0286  -21.7450   22.2578 C   0  0  0  0  0  0  0  0  0  0  0  0
  -26.1838  -17.1945   19.7678 C   0  0  0  0  0  0  0  0  0  0  0  0
  -23.1691  -20.9264   22.3651 C   0  0  0  0  0  0  0  0  0  0  0  0
  -26.7241  -16.1635   20.5497 C   0  0  0  0  0  0  0  0  0  0  0  0
  -20.9295  -28.0847   23.0841 C   0  0  0  0  0  0  0  0  0  0  0  0
  -28.9509  -17.0651   20.1776 C   0  0  0  0  0  0  0  0  0  0  0  0
  -18.7934  -28.9021   23.6238 C   0  0  0  0  0  0  0  0  0  0  0  0
  -16.8162  -30.8413   23.2885 C   0  0  0  0  0  0  0  0  0  0  0  0
  -17.5336  -28.5386   23.1481 C   0  0  0  0  0  0  0  0  0  0  0  0
  -24.5168  -28.5326   20.8867 C   0  0  0  0  0  0  0  0  0  0  0  0
  -32.2421  -22.6082   21.7184 C   0  0  0  0  0  0  0  0  0  0  0  0
  -26.3282  -29.3312   19.9296 C   0  0  0  0  0  0  0  0  0  0  0  0
  -31.9207  -23.1554   22.9429 C   0  0  0  0  0  0  0  0  0  0  0  0
  -30.4405  -23.7090   21.1250 C   0  0  0  0  0  0  0  0  0  0  0  0
  -25.0266  -31.0314   21.2195 C   0  0  0  0  0  0  0  0  0  0  0  0
  -32.2280  -18.1251   21.2533 C   0  0  0  0  0  0  0  0  0  0  0  0
  -32.6992  -19.3882   21.9126 C   0  0  0  0  0  0  0  0  0  0  0  0
  -23.7979  -17.3199   21.8643 C   0  0  0  0  0  0  0  0  0  0  0  0
  -23.5135  -14.1707   21.1404 C   0  0  0  0  0  0  0  0  0  0  0  0
  -24.9876  -11.3204   19.9787 C   0  0  0  0  0  0  0  0  0  0  0  0
  -29.0823  -24.1035   19.0402 C   0  0  0  0  0  0  0  0  0  0  0  0
  -20.6644  -21.2650   22.6861 C   0  0  0  0  0  0  0  0  0  0  0  0
  -24.7031  -17.2605   19.5121 C   0  0  0  0  0  0  0  0  0  0  0  0
  -25.8541  -15.1113   21.1857 C   0  0  0  0  0  0  0  0  0  0  0  0
  -20.5643  -19.7468   22.8106 C   0  0  0  0  0  0  0  0  0  0  0  0
  -27.5463  -26.1495   16.5640 C   0  0  0  0  0  0  0  0  0  0  0  0
  -21.7625  -19.1937   23.5755 C   0  0  0  0  0  0  0  0  0  0  0  0
  -26.6680  -27.1041   17.3763 C   0  0  0  0  0  0  0  0  0  0  0  0
  -27.5751  -24.7487   17.1729 C   0  0  0  0  0  0  0  0  0  0  0  0
  -27.0612  -25.6516   19.4067 C   0  0  0  0  0  0  0  0  0  0  0  0
  -23.0734  -19.4920   22.8379 C   0  0  1  0  0  0  0  0  0  0  0  0
  -23.8799  -16.5456   20.5792 C   0  0  1  0  0  0  0  0  0  0  0  0
  -27.0529  -27.0918   18.8687 C   0  0  2  0  0  0  0  0  0  0  0  0
  -34.3689  -22.3052   20.3853 C   0  0  0  0  0  0  0  0  0  0  0  0
  -24.5130   -8.8959   19.5383 C   0  0  0  0  0  0  0  0  0  0  0  0
  -23.6878  -13.5957   24.1319 C   0  0  0  0  0  0  0  0  0  0  0  0
  -24.1639  -11.2020   23.5733 C   0  0  0  0  0  0  0  0  0  0  0  0
  -21.9912  -12.2288   22.9040 C   0  0  0  0  0  0  0  0  0  0  0  0
  -25.5512  -11.6154   17.0883 C   0  0  0  0  0  0  0  0  0  0  0  0
  -31.0125  -18.2351   20.3700 C   0  0  0  0  0  0  0  0  0  1  0  0
  -33.4215  -21.7068   21.4231 C   0  0  2  0  0  0  0  0  0  0  0  0
  -24.1036  -12.8915   21.6830 C   0  0  1  0  0  0  0  0  0  0  0  0
  -24.5345  -10.2987   18.9514 C   0  0  2  0  0  0  0  0  0  0  0  0
  -23.5031  -12.5003   23.0628 C   0  0  0  0  0  0  0  0  0  0  0  0
  -25.0554  -27.4825   20.2611 N   0  0  0  0  0  0  0  0  0  0  0  0
  -31.3942  -22.9243   20.6749 N   0  0  0  0  0  0  0  0  0  0  0  0
  -26.1554  -28.0001   19.6882 N   0  0  0  0  0  0  0  0  0  0  0  0
  -24.4120  -15.2224   20.9112 N   0  0  0  0  0  0  0  0  0  0  0  0
  -27.9515  -24.8151   18.5867 N   0  0  0  0  0  0  0  0  0  0  0  0
  -27.3828  -30.0093   19.4291 N   0  0  0  0  0  0  0  0  0  0  0  0
  -32.5741  -23.0094   24.1212 N   0  0  0  0  0  0  0  0  0  0  0  0
  -23.8898  -31.2476   22.0102 N   0  0  0  0  0  0  0  0  0  0  0  0
  -29.3615  -24.2685   20.3965 N   0  0  0  0  0  0  0  0  0  0  0  0
  -32.9866  -20.3911   21.0155 N   0  0  0  0  0  0  0  0  0  0  0  0
  -23.2475  -18.5800   21.7278 N   0  0  0  0  0  0  0  0  0  0  0  0
  -23.9194  -11.8841   20.6439 N   0  0  0  0  0  0  0  0  0  0  0  0
  -25.4520  -10.3029   17.7771 N   0  3  0  0  0  0  0  0  0  0  0  0
  -25.7882  -31.9946   20.9630 O   0  0  0  0  0  0  0  0  0  0  0  0
  -32.8711  -17.1069   21.4600 O   0  0  0  0  0  0  0  0  0  0  0  0
  -32.7503  -19.4085   23.1322 O   0  0  0  0  0  0  0  0  0  0  0  0
  -24.2025  -16.8111   22.9031 O   0  0  0  0  0  0  0  0  0  0  0  0
  -22.3012  -14.2321   20.9211 O   0  0  0  0  0  0  0  0  0  0  0  0
  -26.1709  -11.5886   20.1743 O   0  0  0  0  0  0  0  0  0  0  0  0
  -29.7694  -23.4213   18.2757 O   0  0  0  0  0  0  0  0  0  0  0  0
  -19.7757  -27.9405   23.7916 O   0  0  0  0  0  0  0  0  0  0  0  0
  -30.2947  -17.0018   20.3826 O   0  0  0  0  0  0  0  0  0  1  0  0
  -15.8665  -31.7723   23.1290 F   0  0  0  0  0  0  0  0  0  0  0  0
  -17.2668  -27.2592   22.8516 F   0  0  0  0  0  0  0  0  0  0  0  0
  -30.5022  -24.1076   22.7930 S   0  0  0  0  0  0  0  0  0  0  0  0
  1  2  1  0  0  0  0
  1  5  2  0  0  0  0
  2  6  2  0  0  0  0
  3  8  2  0  0  0  0
  3 15  1  0  0  0  0
  4  9  1  0  0  0  0
  4 15  2  0  0  0  0
  5 17  1  0  0  0  0
  6 19  1  0  0  0  0
  7 10  2  0  0  0  0
  7 18  1  0  0  0  0
  8 21  1  0  0  0  0
  9 21  2  0  0  0  0
 10 22  1  0  0  0  0
 11 12  2  0  0  0  0
 11 23  1  0  0  0  0
 12 24  1  0  0  0  0
 13 20  1  0  0  0  0
 13 22  2  0  0  0  0
 14 24  2  0  0  0  0
 14 25  1  0  0  0  0
 15 26  1  0  0  0  0
 16 26  1  0  0  0  0
 16 28  2  0  0  0  0
 16 31  1  0  0  0  0
 17 19  2  0  0  0  0
 17 38  1  0  0  0  0
 18 20  2  0  0  0  0
 18 39  1  0  0  0  0
 19 47  1  0  0  0  0
 20 40  1  0  0  0  0
 21 81  1  0  0  0  0
 22 82  1  0  0  0  0
 23 25  2  0  0  0  0
 23 81  1  0  0  0  0
 24 83  1  0  0  0  0
 25 84  1  0  0  0  0
 26 61  2  0  0  0  0
 27 29  2  0  0  0  0
 27 57  1  0  0  0  0
 27 62  1  0  0  0  0
 28 63  1  0  0  0  0
 28 66  1  0  0  0  0
 29 67  1  0  0  0  0
 29 85  1  0  0  0  0
 30 62  2  0  0  0  0
 30 69  1  0  0  0  0
 30 85  1  0  0  0  0
 31 68  1  0  0  0  0
 31 74  2  0  0  0  0
 32 33  1  0  0  0  0
 32 56  1  0  0  0  0
 32 75  2  0  0  0  0
 33 70  1  0  0  0  0
 33 76  2  0  0  0  0
 34 48  1  0  0  0  0
 34 71  1  0  0  0  0
 34 77  2  0  0  0  0
 35 58  1  0  0  0  0
 35 64  1  0  0  0  0
 35 78  2  0  0  0  0
 36 59  1  0  0  0  0
 36 72  1  0  0  0  0
 36 79  2  0  0  0  0
 37 65  1  0  0  0  0
 37 69  1  0  0  0  0
 37 80  2  0  0  0  0
 38 41  1  0  0  0  0
 39 48  1  0  0  0  0
 40 64  1  0  0  0  0
 41 43  1  0  0  0  0
 42 44  1  0  0  0  0
 42 45  1  0  0  0  0
 43 47  1  0  0  0  0
 44 49  1  0  0  0  0
 45 65  1  0  0  0  0
 46 49  1  0  0  0  0
 46 65  1  0  0  0  0
 47 71  1  0  0  0  0
 48 64  1  0  0  0  0
 49 63  1  0  0  0  0
 50 57  1  0  0  0  0
 51 59  1  0  0  0  0
 52 60  1  0  0  0  0
 53 60  1  0  0  0  0
 54 60  1  0  0  0  0
 55 73  1  0  0  0  0
 56 82  1  0  0  0  0
 57 70  1  0  0  0  0
 58 60  1  0  0  0  0
 58 72  1  0  0  0  0
 59 73  1  0  0  0  0
 61 63  1  0  0  0  0
M  CHG  1  73   1
M  ISO  4  37 100  56 101  69 100  82 101
M  END
> <Batch ID>
0176

> <Smiles>
CNC(C)C(=O)NC(C(=O)N1Cc2cc([101O:1][101CH2:1]C(=O)C(=O)NC(C)c3nc([100NH:0][100C:0](=O)N4CCCC(n5nc(-c6ccc(Oc7ccc(F)cc7F)cc6)c(C(N)=O)c5N)C4)sc3N)ccc2CC1C(=O)NC1CCCc2ccccc21)C(C)(C)C

> <Shape>
0.227

> <Color>
0.070

> <Negative vol penalty>
0.000

$$$$

  -OEChem-04052304383D

 90 98  0     1  0  0  0  0  0999 V2000
  -29.7332  -23.7844   19.1421 C   0  0  0  0  0  0  0  0  0  0  0  0
  -28.3518  -23.8888   19.2700 C   0  0  0  0  0  0  0  0  0  0  0  0
  -26.4906  -13.3673   19.6975 C   0  0  0  0  0  0  0  0  0  0  0  0
  -24.5148  -13.7744   21.0269 C   0  0  0  0  0  0  0  0  0  0  0  0
  -30.5676  -24.4690   20.0247 C   0  0  0  0  0  0  0  0  0  0  0  0
  -27.8040  -24.6770   20.2815 C   0  0  0  0  0  0  0  0  0  0  0  0
  -22.6566  -27.9827   19.9931 C   0  0  0  0  0  0  0  0  0  0  0  0
  -26.4491  -12.0181   20.0490 C   0  0  0  0  0  0  0  0  0  0  0  0
  -24.4733  -12.4252   21.3784 C   0  0  0  0  0  0  0  0  0  0  0  0
  -21.3563  -27.7337   20.4300 C   0  0  0  0  0  0  0  0  0  0  0  0
  -23.4753   -9.5171   19.9758 C   0  0  0  0  0  0  0  0  0  0  0  0
  -22.2392   -8.8729   19.9230 C   0  0  0  0  0  0  0  0  0  0  0  0
  -21.8111  -28.9546   22.4602 C   0  0  0  0  0  0  0  0  0  0  0  0
  -22.3982   -8.3747   22.2817 C   0  0  0  0  0  0  0  0  0  0  0  0
  -23.4011  -24.8128   23.5924 C   0  0  0  0  0  0  0  0  0  0  0  0
  -25.5234  -14.2455   20.1865 C   0  0  0  0  0  0  0  0  0  0  0  0
  -24.9465  -16.2493   18.7169 C   0  0  0  0  0  0  0  0  0  0  0  0
  -30.0298  -25.2737   21.0415 C   0  0  0  0  0  0  0  0  0  0  0  0
  -23.5489  -28.7114   20.7926 C   0  0  0  0  0  0  0  0  0  0  0  0
  -28.6320  -25.3719   21.1794 C   0  0  0  0  0  0  0  0  0  0  0  0
  -23.1214  -29.2136   22.0300 C   0  0  0  0  0  0  0  0  0  0  0  0
  -25.4405  -11.5471   20.8894 C   0  0  0  0  0  0  0  0  0  0  0  0
  -20.9342  -28.2172   21.6650 C   0  0  0  0  0  0  0  0  0  0  0  0
  -24.1729   -9.5900   21.1815 C   0  0  0  0  0  0  0  0  0  0  0  0
  -21.7007   -8.3017   21.0760 C   0  0  0  0  0  0  0  0  0  0  0  0
  -23.6343   -9.0188   22.3345 C   0  0  0  0  0  0  0  0  0  0  0  0
  -22.5156  -22.4528   22.6673 C   0  0  0  0  0  0  0  0  0  0  0  0
  -25.5661  -15.6394   19.8242 C   0  0  0  0  0  0  0  0  0  0  0  0
  -23.8541  -22.6962   22.8985 C   0  0  0  0  0  0  0  0  0  0  0  0
  -21.6619  -23.5013   22.9427 C   0  0  0  0  0  0  0  0  0  0  0  0
  -25.2880  -17.5757   18.8199 C   0  0  0  0  0  0  0  0  0  0  0  0
  -24.1348  -15.6688   17.6875 C   0  0  0  0  0  0  0  0  0  0  0  0
  -26.3355  -28.0852   22.1879 C   0  0  0  0  0  0  0  0  0  0  0  0
  -18.0101  -23.9517   22.6225 C   0  0  0  0  0  0  0  0  0  0  0  0
  -18.0671  -26.2572   22.6824 C   0  0  0  0  0  0  0  0  0  0  0  0
  -26.2390  -31.2452   22.9141 C   0  0  0  0  0  0  0  0  0  0  0  0
  -24.3559  -34.0477   23.4104 C   0  0  0  0  0  0  0  0  0  0  0  0
  -26.1561  -21.6784   22.7916 C   0  0  0  0  0  0  0  0  0  0  0  0
  -30.9716  -25.9570   22.0011 C   0  0  0  0  0  0  0  0  0  0  0  0
  -24.9399  -28.9942   20.2952 C   0  0  0  0  0  0  0  0  0  0  0  0
  -24.0342  -30.0188   22.9172 C   0  0  0  0  0  0  0  0  0  0  0  0
  -30.3129  -27.0696   22.8125 C   0  0  0  0  0  0  0  0  0  0  0  0
  -28.8726  -20.0818   21.1337 C   0  0  0  0  0  0  0  0  0  0  0  0
  -28.9750  -26.6000   23.3749 C   0  0  0  0  0  0  0  0  0  0  0  0
  -28.2379  -18.8327   20.5180 C   0  0  0  0  0  0  0  0  0  0  0  0
  -28.2720  -20.4085   22.4998 C   0  0  0  0  0  0  0  0  0  0  0  0
  -26.1727  -19.2622   21.9099 C   0  0  0  0  0  0  0  0  0  0  0  0
  -28.0000  -26.2368   22.2484 C   0  0  1  0  0  0  0  0  0  0  0  0
  -25.9237  -29.3082   21.4181 C   0  0  1  0  0  0  0  0  0  0  0  0
  -26.6998  -18.9306   20.5043 C   0  0  2  0  0  0  0  0  0  0  0  0
  -17.4331  -22.5994   22.2580 C   0  0  0  0  0  0  0  0  0  0  0  0
  -24.5559  -36.4712   24.0303 C   0  0  0  0  0  0  0  0  0  0  0  0
  -26.6784  -30.4605   25.8298 C   0  0  0  0  0  0  0  0  0  0  0  0
  -25.9292  -32.7570   26.4881 C   0  0  0  0  0  0  0  0  0  0  0  0
  -27.9704  -32.4676   25.0835 C   0  0  0  0  0  0  0  0  0  0  0  0
  -23.2006  -34.9229   20.8300 C   0  0  0  0  0  0  0  0  0  0  0  0
  -19.0488  -26.7678   21.6489 C   0  0  0  0  0  0  0  0  0  1  0  0
  -19.2690  -23.9572   23.4834 C   0  0  1  0  0  0  0  0  0  0  0  0
  -25.6942  -32.0626   24.0604 C   0  0  1  0  0  0  0  0  0  0  0  0
  -24.5042  -35.4661   22.8902 C   0  0  2  0  0  0  0  0  0  0  0  0
  -26.5512  -31.9201   25.3498 C   0  0  0  0  0  0  0  0  0  0  0  0
  -19.0978  -23.2765   24.8276 C   0  0  0  0  0  0  0  0  0  0  0  0
  -24.3335  -23.8689   23.3624 N   0  0  0  0  0  0  0  0  0  0  0  0
  -22.0719  -24.6995   23.4083 N   0  0  0  0  0  0  0  0  0  0  0  0
  -26.2496  -16.5071   20.5752 N   0  0  0  0  0  0  0  0  0  0  0  0
  -17.4599  -25.0845   22.3016 N   0  0  0  0  0  0  0  0  0  0  0  0
  -26.0616  -17.6757   19.9387 N   0  0  0  0  0  0  0  0  0  0  0  0
  -25.3867  -30.2633   22.3895 N   0  0  0  0  0  0  0  0  0  0  0  0
  -26.8126  -20.4896   22.4088 N   0  0  0  0  0  0  0  0  0  0  0  0
  -24.9992  -18.6545   18.0615 N   0  0  0  0  0  0  0  0  0  0  0  0
  -23.8823  -14.2910   17.7329 N   0  0  0  0  0  0  0  0  0  0  0  0
  -24.7712  -21.6497   22.6308 N   0  0  0  0  0  0  0  0  0  0  0  0
  -20.3091  -23.3000   22.7249 N   0  0  0  0  0  0  0  0  0  0  0  0
  -27.4355  -27.4340   21.6631 N   0  0  0  0  0  0  0  0  0  0  0  0
  -25.5790  -33.4309   23.5676 N   0  0  0  0  0  0  0  0  0  0  0  0
  -23.3564  -35.8165   22.0066 N   0  3  0  0  0  0  0  0  0  0  0  0
  -23.6613  -16.3490   16.7458 O   0  0  0  0  0  0  0  0  0  0  0  0
  -25.7029  -27.7575   23.1850 O   0  0  0  0  0  0  0  0  0  0  0  0
  -17.8834  -26.8312   23.7525 O   0  0  0  0  0  0  0  0  0  0  0  0
  -27.3763  -31.4744   22.4948 O   0  0  0  0  0  0  0  0  0  0  0  0
  -23.2644  -33.5392   23.6565 O   0  0  0  0  0  0  0  0  0  0  0  0
  -26.7793  -22.6599   23.2041 O   0  0  0  0  0  0  0  0  0  0  0  0
  -25.3995  -10.2306   21.2324 O   0  0  0  0  0  0  0  0  0  0  0  0
  -19.6657  -27.9751   22.0941 O   0  0  0  0  0  0  0  0  0  1  0  0
  -20.5129   -7.6845   21.0255 F   0  0  0  0  0  0  0  0  0  0  0  0
  -24.2993   -9.0867   23.4959 F   0  0  0  0  0  0  0  0  0  0  0  0
  -22.0740  -21.2763   22.2060 F   0  0  0  0  0  0  0  0  0  0  0  0
  -18.1406  -23.8946   25.5570 F   0  0  0  0  0  0  0  0  0  0  0  0
  -20.2341  -23.2850   25.5563 F   0  0  0  0  0  0  0  0  0  0  0  0
  -18.7134  -21.9897   24.6729 F   0  0  0  0  0  0  0  0  0  0  0  0
  1  2  1  0  0  0  0
  1  5  2  0  0  0  0
  2  6  2  0  0  0  0
  3  8  2  0  0  0  0
  3 16  1  0  0  0  0
  4  9  1  0  0  0  0
  4 16  2  0  0  0  0
  5 18  1  0  0  0  0
  6 20  1  0  0  0  0
  7 10  2  0  0  0  0
  7 19  1  0  0  0  0
  8 22  1  0  0  0  0
  9 22  2  0  0  0  0
 10 23  1  0  0  0  0
 11 12  2  0  0  0  0
 11 24  1  0  0  0  0
 12 25  1  0  0  0  0
 13 21  1  0  0  0  0
 13 23  2  0  0  0  0
 14 25  2  0  0  0  0
 14 26  1  0  0  0  0
 15 63  1  0  0  0  0
 15 64  2  0  0  0  0
 16 28  1  0  0  0  0
 17 28  1  0  0  0  0
 17 31  2  0  0  0  0
 17 32  1  0  0  0  0
 18 20  2  0  0  0  0
 18 39  1  0  0  0  0
 19 21  2  0  0  0  0
 19 40  1  0  0  0  0
 20 48  1  0  0  0  0
 21 41  1  0  0  0  0
 22 83  1  0  0  0  0
 23 84  1  0  0  0  0
 24 26  2  0  0  0  0
 24 83  1  0  0  0  0
 25 85  1  0  0  0  0
 26 86  1  0  0  0  0
 27 29  1  0  0  0  0
 27 30  2  0  0  0  0
 27 87  1  0  0  0  0
 28 65  2  0  0  0  0
 29 63  2  0  0  0  0
 29 72  1  0  0  0  0
 30 64  1  0  0  0  0
 30 73  1  0  0  0  0
 31 67  1  0  0  0  0
 31 70  1  0  0  0  0
 32 71  1  0  0  0  0
 32 77  2  0  0  0  0
 33 49  1  0  0  0  0
 33 74  1  0  0  0  0
 33 78  2  0  0  0  0
 34 51  1  0  0  0  0
 34 58  1  0  0  0  0
 34 66  2  0  0  0  0
 35 57  1  0  0  0  0
 35 66  1  0  0  0  0
 35 79  2  0  0  0  0
 36 59  1  0  0  0  0
 36 68  1  0  0  0  0
 36 80  2  0  0  0  0
 37 60  1  0  0  0  0
 37 75  1  0  0  0  0
 37 81  2  0  0  0  0
 38 69  1  0  0  0  0
 38 72  1  0  0  0  0
 38 82  2  0  0  0  0
 39 42  1  0  0  0  0
 40 49  1  0  0  0  0
 41 68  1  0  0  0  0
 42 44  1  0  0  0  0
 43 45  1  0  0  0  0
 43 46  1  0  0  0  0
 44 48  1  0  0  0  0
 45 50  1  0  0  0  0
 46 69  1  0  0  0  0
 47 50  1  0  0  0  0
 47 69  1  0  0  0  0
 48 74  1  0  0  0  0
 49 68  1  0  0  0  0
 50 67  1  0  0  0  0
 52 60  1  0  0  0  0
 53 61  1  0  0  0  0
 54 61  1  0  0  0  0
 55 61  1  0  0  0  0
 56 76  1  0  0  0  0
 57 84  1  0  0  0  0
 58 62  1  0  0  0  0
 58 73  1  0  0  0  0
 59 61  1  0  0  0  0
 59 75  1  0  0  0  0
 60 76  1  0  0  0  0
 62 88  1  0  0  0  0
 62 89  1  0  0  0  0
 62 90  1  0  0  0  0
 65 67  1  0  0  0  0
M  CHG  1  76   1
M  ISO  4  38 100  57 101  72 100  84 101
M  END
> <Batch ID>
0176

> <Smiles>
CNC(C)C(=O)NC(C(=O)N1Cc2cc([101O:1][101CH2:1]C(=O)N=C(C)C(Nc3ncnc([100NH:0][100C:0](=O)N4CCCC(n5nc(-c6ccc(Oc7ccc(F)cc7F)cc6)c(C(N)=O)c5N)C4)c3F)C(F)(F)F)ccc2CC1C(=O)NC1CCCc2ccccc21)C(C)(C)C

> <Shape>
0.270

> <Color>
0.065

> <Negative vol penalty>
0.000

$$$$

  -OEChem-04052304383D

 86 95  0     1  0  0  0  0  0999 V2000
  -29.3878  -36.1785   21.7341 C   0  0  0  0  0  0  0  0  0  0  0  0
  -29.2678  -34.8265   22.0392 C   0  0  0  0  0  0  0  0  0  0  0  0
  -24.7195   -8.5844   20.9562 C   0  0  0  0  0  0  0  0  0  0  0  0
  -22.9201  -10.0858   20.3688 C   0  0  0  0  0  0  0  0  0  0  0  0
  -28.2968  -37.0297   21.9037 C   0  0  0  0  0  0  0  0  0  0  0  0
  -28.0567  -34.3251   22.5151 C   0  0  0  0  0  0  0  0  0  0  0  0
  -26.7413  -29.9761   20.2789 C   0  0  0  0  0  0  0  0  0  0  0  0
  -23.7915   -7.5803   21.2325 C   0  0  0  0  0  0  0  0  0  0  0  0
  -21.9921   -9.0818   20.6450 C   0  0  0  0  0  0  0  0  0  0  0  0
  -27.3833  -28.8173   20.7131 C   0  0  0  0  0  0  0  0  0  0  0  0
  -21.6856   -6.7583   23.7452 C   0  0  0  0  0  0  0  0  0  0  0  0
  -21.8597   -6.0203   24.9159 C   0  0  0  0  0  0  0  0  0  0  0  0
  -25.4655  -28.2705   22.0703 C   0  0  0  0  0  0  0  0  0  0  0  0
  -22.0510   -3.9958   23.6112 C   0  0  0  0  0  0  0  0  0  0  0  0
  -27.5863  -18.5817   18.0103 C   0  0  0  0  0  0  0  0  0  0  0  0
  -24.2838   -9.8372   20.5245 C   0  0  0  0  0  0  0  0  0  0  0  0
  -25.8659  -11.1404   19.0058 C   0  0  0  0  0  0  0  0  0  0  0  0
  -27.0689  -36.5368   22.3728 C   0  0  0  0  0  0  0  0  0  0  0  0
  -25.4587  -30.2970   20.7464 C   0  0  0  0  0  0  0  0  0  0  0  0
  -26.9486  -35.1709   22.6924 C   0  0  0  0  0  0  0  0  0  0  0  0
  -24.8083  -29.4327   21.6386 C   0  0  0  0  0  0  0  0  0  0  0  0
  -22.4278   -7.8290   21.0769 C   0  0  0  0  0  0  0  0  0  0  0  0
  -26.7466  -27.9657   21.6112 C   0  0  0  0  0  0  0  0  0  0  0  0
  -21.6942   -6.1151   22.5075 C   0  0  0  0  0  0  0  0  0  0  0  0
  -22.0424   -4.6390   24.8490 C   0  0  0  0  0  0  0  0  0  0  0  0
  -21.8769   -4.7339   22.4405 C   0  0  0  0  0  0  0  0  0  0  0  0
  -25.2419  -10.8749   20.2395 C   0  0  0  0  0  0  0  0  0  0  0  0
  -27.8082  -18.4918   19.3685 C   0  0  0  0  0  0  0  0  0  0  0  0
  -26.6808  -12.2169   19.2579 C   0  0  0  0  0  0  0  0  0  0  0  0
  -28.7410  -20.4441   19.0106 C   0  0  0  0  0  0  0  0  0  0  0  0
  -25.7217  -10.4735   17.7448 C   0  0  0  0  0  0  0  0  0  0  0  0
  -28.3204  -24.7208   21.3397 C   0  0  0  0  0  0  0  0  0  0  0  0
  -24.2155  -32.6997   22.4152 C   0  0  0  0  0  0  0  0  0  0  0  0
  -21.4174  -31.1983   21.7531 C   0  0  0  0  0  0  0  0  0  0  0  0
  -19.8050  -28.3024   20.9403 C   0  0  0  0  0  0  0  0  0  0  0  0
  -27.5784  -17.2199   21.5309 C   0  0  0  0  0  0  0  0  0  0  0  0
  -25.9315  -37.5043   22.5848 C   0  0  0  0  0  0  0  0  0  0  0  0
  -24.7689  -31.5371   20.2477 C   0  0  0  0  0  0  0  0  0  0  0  0
  -23.4231  -29.7214   22.1548 C   0  0  0  0  0  0  0  0  0  0  0  0
  -24.5737  -36.8239   22.7383 C   0  0  0  0  0  0  0  0  0  0  0  0
  -28.0211  -14.3806   23.6332 C   0  0  0  0  0  0  0  0  0  0  0  0
  -24.6714  -35.6501   23.7075 C   0  0  0  0  0  0  0  0  0  0  0  0
  -30.5923  -23.7368   21.1019 C   0  0  0  0  0  0  0  0  0  0  0  0
  -31.4972  -22.8581   20.2448 C   0  0  0  0  0  0  0  0  0  0  0  0
  -27.3888  -13.2373   22.8362 C   0  0  0  0  0  0  0  0  0  0  0  0
  -27.2495  -15.6876   23.4594 C   0  0  0  0  0  0  0  0  0  0  0  0
  -26.3930  -14.9523   21.2697 C   0  0  0  0  0  0  0  0  0  0  0  0
  -25.6442  -34.5848   23.1875 C   0  0  1  0  0  0  0  0  0  0  0  0
  -29.4484  -21.7255   19.2491 C   0  0  2  0  0  0  0  0  0  0  0  0
  -29.2427  -23.9428   20.4390 C   0  0  1  0  0  0  0  0  0  0  0  0
  -23.6710  -32.0285   21.1862 C   0  0  1  0  0  0  0  0  0  0  0  0
  -30.8386  -21.5115   19.8980 C   0  0  1  0  0  0  0  0  0  0  0  0
  -27.1726  -13.6304   21.3617 C   0  0  2  0  0  0  0  0  0  0  0  0
  -31.7769  -20.7142   18.9835 C   0  0  0  0  0  0  0  0  0  0  0  0
  -17.5125  -27.3799   20.5036 C   0  0  0  0  0  0  0  0  0  0  0  0
  -20.8386  -31.2252   24.7488 C   0  0  0  0  0  0  0  0  0  0  0  0
  -19.0682  -29.5001   24.3515 C   0  0  0  0  0  0  0  0  0  0  0  0
  -18.8691  -31.7538   23.3009 C   0  0  0  0  0  0  0  0  0  0  0  0
  -20.5178  -27.5257   18.1749 C   0  0  0  0  0  0  0  0  0  0  0  0
  -28.2900  -26.2203   21.1340 C   0  0  0  0  0  0  0  0  0  1  0  0
  -20.5943  -30.1261   22.4253 C   0  0  1  0  0  0  0  0  0  0  0  0
  -18.7584  -27.9943   19.8848 C   0  0  2  0  0  0  0  0  0  0  0  0
  -19.8694  -30.6466   23.6986 C   0  0  0  0  0  0  0  0  0  0  0  0
  -25.6274  -11.7150   21.2037 N   0  0  0  0  0  0  0  0  0  0  0  0
  -28.4705  -19.5586   19.9438 N   0  0  0  0  0  0  0  0  0  0  0  0
  -26.5026  -12.5188   20.5759 N   0  0  0  0  0  0  0  0  0  0  0  0
  -22.7928  -30.9494   21.6426 N   0  0  0  0  0  0  0  0  0  0  0  0
  -27.0868  -15.9982   22.0374 N   0  0  0  0  0  0  0  0  0  0  0  0
  -27.5253  -12.9252   18.4784 N   0  0  0  0  0  0  0  0  0  0  0  0
  -24.8422   -9.3856   17.6610 N   0  0  0  0  0  0  0  0  0  0  0  0
  -27.3956  -17.3906   20.1591 N   0  0  0  0  0  0  0  0  0  0  0  0
  -25.0188  -33.7925   22.1504 N   0  0  0  0  0  0  0  0  0  0  0  0
  -19.6989  -29.5972   21.4021 N   0  0  0  0  0  0  0  0  0  0  0  0
  -28.6266  -22.6119   20.1595 N   0  3  0  0  0  0  0  0  0  0  0  0
  -19.3031  -27.0395   18.8785 N   0  3  0  0  0  0  0  0  0  0  0  0
  -26.3665  -10.8216   16.7266 O   0  0  0  0  0  0  0  0  0  0  0  0
  -27.6347  -24.1582   22.1919 O   0  0  0  0  0  0  0  0  0  0  0  0
  -23.9270  -32.2598   23.5220 O   0  0  0  0  0  0  0  0  0  0  0  0
  -20.8595  -32.2158   21.3348 O   0  0  0  0  0  0  0  0  0  0  0  0
  -20.6315  -27.4758   21.3201 O   0  0  0  0  0  0  0  0  0  0  0  0
  -28.1459  -18.0415   22.2555 O   0  0  0  0  0  0  0  0  0  0  0  0
  -21.5220   -6.8494   21.3461 O   0  0  0  0  0  0  0  0  0  0  0  0
  -27.3713  -26.8342   22.0371 O   0  0  0  0  0  0  0  0  0  1  0  0
  -22.2110   -3.9306   25.9732 F   0  0  0  0  0  0  0  0  0  0  0  0
  -21.8873   -4.1106   21.2542 F   0  0  0  0  0  0  0  0  0  0  0  0
  -28.2271  -20.0587   17.4193 S   0  0  0  0  0  0  0  0  0  0  0  0
  1  2  1  0  0  0  0
  1  5  2  0  0  0  0
  2  6  2  0  0  0  0
  3  8  2  0  0  0  0
  3 16  1  0  0  0  0
  4  9  1  0  0  0  0
  4 16  2  0  0  0  0
  5 18  1  0  0  0  0
  6 20  1  0  0  0  0
  7 10  2  0  0  0  0
  7 19  1  0  0  0  0
  8 22  1  0  0  0  0
  9 22  2  0  0  0  0
 10 23  1  0  0  0  0
 11 12  2  0  0  0  0
 11 24  1  0  0  0  0
 12 25  1  0  0  0  0
 13 21  1  0  0  0  0
 13 23  2  0  0  0  0
 14 25  2  0  0  0  0
 14 26  1  0  0  0  0
 15 28  2  0  0  0  0
 15 86  1  0  0  0  0
 16 27  1  0  0  0  0
 17 27  1  0  0  0  0
 17 29  2  0  0  0  0
 17 31  1  0  0  0  0
 18 20  2  0  0  0  0
 18 37  1  0  0  0  0
 19 21  2  0  0  0  0
 19 38  1  0  0  0  0
 20 48  1  0  0  0  0
 21 39  1  0  0  0  0
 22 82  1  0  0  0  0
 23 83  1  0  0  0  0
 24 26  2  0  0  0  0
 24 82  1  0  0  0  0
 25 84  1  0  0  0  0
 26 85  1  0  0  0  0
 27 64  2  0  0  0  0
 28 65  1  0  0  0  0
 28 71  1  0  0  0  0
 29 66  1  0  0  0  0
 29 69  1  0  0  0  0
 30 49  1  0  0  0  0
 30 65  2  0  0  0  0
 30 86  1  0  0  0  0
 31 70  1  0  0  0  0
 31 76  2  0  0  0  0
 32 50  1  0  0  0  0
 32 60  1  0  0  0  0
 32 77  2  0  0  0  0
 33 51  1  0  0  0  0
 33 72  1  0  0  0  0
 33 78  2  0  0  0  0
 34 61  1  0  0  0  0
 34 67  1  0  0  0  0
 34 79  2  0  0  0  0
 35 62  1  0  0  0  0
 35 73  1  0  0  0  0
 35 80  2  0  0  0  0
 36 68  1  0  0  0  0
 36 71  1  0  0  0  0
 36 81  2  0  0  0  0
 37 40  1  0  0  0  0
 38 51  1  0  0  0  0
 39 67  1  0  0  0  0
 40 42  1  0  0  0  0
 41 45  1  0  0  0  0
 41 46  1  0  0  0  0
 42 48  1  0  0  0  0
 43 44  1  0  0  0  0
 43 50  1  0  0  0  0
 44 52  1  0  0  0  0
 45 53  1  0  0  0  0
 46 68  1  0  0  0  0
 47 53  1  0  0  0  0
 47 68  1  0  0  0  0
 48 72  1  0  0  0  0
 49 52  1  0  0  0  0
 49 74  1  0  0  0  0
 50 74  1  0  0  0  0
 51 67  1  0  0  0  0
 52 54  1  0  0  0  0
 53 66  1  0  0  0  0
 55 62  1  0  0  0  0
 56 63  1  0  0  0  0
 57 63  1  0  0  0  0
 58 63  1  0  0  0  0
 59 75  1  0  0  0  0
 60 83  1  0  0  0  0
 61 63  1  0  0  0  0
 61 73  1  0  0  0  0
 62 75  1  0  0  0  0
 64 66  1  0  0  0  0
M  CHG  2  74   1  75   1
M  ISO  4  36 100  60 101  71 100  83 101
M  END
> <Batch ID>
0176

> <Smiles>
CNC(C)C(=O)NC(C(=O)N1Cc2cc([101O:1][101CH2:1]C(=O)C3CCC(C)C(c4nc([100NH:0][100C:0](=O)N5CCCC(n6nc(-c7ccc(Oc8ccc(F)cc8F)cc7)c(C(N)=O)c6N)C5)cs4)N3)ccc2CC1C(=O)NC1CCCc2ccccc21)C(C)(C)C

> <Shape>
0.307

> <Color>
0.095

> <Negative vol penalty>
0.000

$$$$

  -OEChem-04052304383D

 89 97  0     1  0  0  0  0  0999 V2000
  -29.3563  -33.2302   25.4506 C   0  0  0  0  0  0  0  0  0  0  0  0
  -29.2113  -31.9610   24.8997 C   0  0  0  0  0  0  0  0  0  0  0  0
  -24.3265   -9.4180   21.3670 C   0  0  0  0  0  0  0  0  0  0  0  0
  -24.8417  -10.4358   23.4967 C   0  0  0  0  0  0  0  0  0  0  0  0
  -28.2285  -33.9599   25.8240 C   0  0  0  0  0  0  0  0  0  0  0  0
  -27.9382  -31.4202   24.7230 C   0  0  0  0  0  0  0  0  0  0  0  0
  -27.3687  -29.2323   20.1916 C   0  0  0  0  0  0  0  0  0  0  0  0
  -23.9817   -8.2329   22.0168 C   0  0  0  0  0  0  0  0  0  0  0  0
  -24.4969   -9.2507   24.1465 C   0  0  0  0  0  0  0  0  0  0  0  0
  -27.9229  -27.9642   20.0227 C   0  0  0  0  0  0  0  0  0  0  0  0
  -21.3423   -7.0165   23.7449 C   0  0  0  0  0  0  0  0  0  0  0  0
  -20.1692   -6.3760   23.3459 C   0  0  0  0  0  0  0  0  0  0  0  0
  -25.7488  -26.9754   20.3616 C   0  0  0  0  0  0  0  0  0  0  0  0
  -31.7016  -19.5068   21.8007 C   0  0  0  0  0  0  0  0  0  0  0  0
  -21.4450   -4.4144   22.7442 C   0  0  0  0  0  0  0  0  0  0  0  0
  -24.7565  -10.5195   22.1069 C   0  0  0  0  0  0  0  0  0  0  0  0
  -24.2633  -12.8224   21.1266 C   0  0  0  0  0  0  0  0  0  0  0  0
  -26.9405  -33.4317   25.6429 C   0  0  0  0  0  0  0  0  0  0  0  0
  -26.0000  -29.3811   20.4581 C   0  0  0  0  0  0  0  0  0  0  0  0
  -26.7921  -32.1429   25.0956 C   0  0  0  0  0  0  0  0  0  0  0  0
  -25.1792  -28.2466   20.5310 C   0  0  0  0  0  0  0  0  0  0  0  0
  -31.2317  -17.3106   22.6913 C   0  0  0  0  0  0  0  0  0  0  0  0
  -30.5805  -20.0133   22.4581 C   0  0  0  0  0  0  0  0  0  0  0  0
  -24.0669   -8.1492   23.4065 C   0  0  0  0  0  0  0  0  0  0  0  0
  -27.1135  -26.8354   20.1105 C   0  0  0  0  0  0  0  0  0  0  0  0
  -22.5667   -6.3560   23.6436 C   0  0  0  0  0  0  0  0  0  0  0  0
  -20.2206   -5.0749   22.8455 C   0  0  0  0  0  0  0  0  0  0  0  0
  -32.0272  -18.1554   21.9172 C   0  0  0  0  0  0  0  0  0  0  0  0
  -22.6181   -5.0550   23.1432 C   0  0  0  0  0  0  0  0  0  0  0  0
  -30.1106  -17.8172   23.3487 C   0  0  0  0  0  0  0  0  0  0  0  0
  -29.7850  -19.1685   23.2321 C   0  0  0  0  0  0  0  0  0  0  0  0
  -25.1134  -11.7438   21.4362 C   0  0  0  0  0  0  0  0  0  0  0  0
  -25.0775  -13.7312   20.4962 C   0  0  0  0  0  0  0  0  0  0  0  0
  -28.6368  -25.2037   20.8091 C   0  0  0  0  0  0  0  0  0  1  0  0
  -22.8629  -12.9879   21.3857 C   0  0  0  0  0  0  0  0  0  0  0  0
  -29.2355  -24.0096   20.7406 C   0  0  0  0  0  0  0  0  0  0  0  0
  -30.2933  -23.6861   21.7288 C   0  0  0  0  0  0  0  0  0  0  0  0
  -30.9389  -22.3385   21.6177 C   0  0  0  0  0  0  0  0  0  0  0  0
  -24.3000  -30.5711   22.8659 C   0  0  0  0  0  0  0  0  0  0  0  0
  -21.8066  -30.0192   20.8658 C   0  0  0  0  0  0  0  0  0  0  0  0
  -20.5468  -28.2692   18.2205 C   0  0  0  0  0  0  0  0  0  0  0  0
  -30.9765  -14.7399   20.6859 C   0  0  0  0  0  0  0  0  0  0  0  0
  -25.7533  -34.2386   26.1055 C   0  0  0  0  0  0  0  0  0  0  0  0
  -25.4126  -30.7573   20.6113 C   0  0  0  0  0  0  0  0  0  0  0  0
  -23.7002  -28.3535   20.7950 C   0  0  0  0  0  0  0  0  0  0  0  0
  -24.4241  -33.7463   25.5389 C   0  0  0  0  0  0  0  0  0  0  0  0
  -29.0250  -13.9866   17.8048 C   0  0  0  0  0  0  0  0  0  0  0  0
  -24.3193  -32.2297   25.6643 C   0  0  0  0  0  0  0  0  0  0  0  0
  -27.7245  -13.4237   18.3808 C   0  0  0  0  0  0  0  0  0  0  0  0
  -30.2373  -13.5669   18.6330 C   0  0  0  0  0  0  0  0  0  0  0  0
  -28.8410  -13.3134   20.6479 C   0  0  0  0  0  0  0  0  0  0  0  0
  -25.4268  -31.5322   24.8653 C   0  0  1  0  0  0  0  0  0  0  0  0
  -24.1003  -30.7637   21.3892 C   0  0  1  0  0  0  0  0  0  0  0  0
  -27.5846  -13.7559   19.8786 C   0  0  2  0  0  0  0  0  0  0  0  0
  -18.4671  -28.0114   16.8400 C   0  0  0  0  0  0  0  0  0  0  0  0
  -20.5034  -28.4401   23.1281 C   0  0  0  0  0  0  0  0  0  0  0  0
  -18.9473  -27.4406   21.4406 C   0  0  0  0  0  0  0  0  0  0  0  0
  -18.9367  -29.9030   21.8398 C   0  0  0  0  0  0  0  0  0  0  0  0
  -21.9485  -29.0877   15.7459 C   0  0  0  0  0  0  0  0  0  0  0  0
  -31.5788  -15.8654   22.8142 C   0  0  0  0  0  0  0  0  0  0  0  0
  -20.8802  -28.8554   20.6079 C   0  0  1  0  0  0  0  0  0  0  0  0
  -19.8054  -28.7209   16.9752 C   0  0  2  0  0  0  0  0  0  0  0  0
  -19.8451  -28.6573   21.7510 C   0  0  0  0  0  0  0  0  0  0  0  0
  -26.3711  -11.9470   21.0354 N   0  0  0  0  0  0  0  0  0  0  0  0
  -26.3174  -13.1638   20.4673 N   0  0  0  0  0  0  0  0  0  0  0  0
  -23.1743  -29.7205   20.9439 N   0  0  0  0  0  0  0  0  0  0  0  0
  -30.0416  -13.9116   20.0433 N   0  0  0  0  0  0  0  0  0  0  0  0
  -24.8467  -14.9525   19.9691 N   0  0  0  0  0  0  0  0  0  0  0  0
  -22.1786  -11.9566   22.0433 N   0  0  0  0  0  0  0  0  0  0  0  0
  -30.2544  -21.3841   22.3393 N   0  0  0  0  0  0  0  0  0  0  0  0
  -25.1055  -31.5274   23.4542 N   0  0  0  0  0  0  0  0  0  0  0  0
  -20.2849  -29.0903   19.2968 N   0  0  0  0  0  0  0  0  0  0  0  0
  -30.7125  -15.0225   22.0205 N   0  0  0  0  0  0  0  0  0  0  0  0
  -20.6150  -28.4332   15.7575 N   0  3  0  0  0  0  0  0  0  0  0  0
  -22.2334  -14.0128   21.0296 O   0  0  0  0  0  0  0  0  0  0  0  0
  -30.6690  -24.4177   22.6314 O   0  0  0  0  0  0  0  0  0  0  0  0
  -31.9369  -22.2629   20.9209 O   0  0  0  0  0  0  0  0  0  0  0  0
  -23.7618  -29.6258   23.4302 O   0  0  0  0  0  0  0  0  0  0  0  0
  -21.3348  -31.1525   20.9861 O   0  0  0  0  0  0  0  0  0  0  0  0
  -21.2816  -27.2841   18.2378 O   0  0  0  0  0  0  0  0  0  0  0  0
  -31.9697  -15.1983   20.1112 O   0  0  0  0  0  0  0  0  0  0  0  0
  -28.9168  -23.0607   19.7946 O   0  0  0  0  0  0  0  0  0  0  0  0
  -23.7304   -6.9930   24.0409 O   0  0  0  0  0  0  0  0  0  0  0  0
  -27.6521  -25.5964   19.9466 O   0  0  0  0  0  0  0  0  0  1  0  0
  -19.0939   -4.4594   22.4638 F   0  0  0  0  0  0  0  0  0  0  0  0
  -33.1056  -17.6771   21.2810 F   0  0  0  0  0  0  0  0  0  0  0  0
  -23.7913   -4.4150   23.0446 F   0  0  0  0  0  0  0  0  0  0  0  0
  -29.3392  -17.0128   24.0936 F   0  0  0  0  0  0  0  0  0  0  0  0
  -28.7050  -19.6442   23.8683 F   0  0  0  0  0  0  0  0  0  0  0  0
  1  2  1  0  0  0  0
  1  5  2  0  0  0  0
  2  6  2  0  0  0  0
  3  8  2  0  0  0  0
  3 16  1  0  0  0  0
  4  9  1  0  0  0  0
  4 16  2  0  0  0  0
  5 18  1  0  0  0  0
  6 20  1  0  0  0  0
  7 10  2  0  0  0  0
  7 19  1  0  0  0  0
  8 24  1  0  0  0  0
  9 24  2  0  0  0  0
 10 25  1  0  0  0  0
 11 12  2  0  0  0  0
 11 26  1  0  0  0  0
 12 27  1  0  0  0  0
 13 21  1  0  0  0  0
 13 25  2  0  0  0  0
 14 23  1  0  0  0  0
 14 28  2  0  0  0  0
 15 27  2  0  0  0  0
 15 29  1  0  0  0  0
 16 32  1  0  0  0  0
 17 32  1  0  0  0  0
 17 33  2  0  0  0  0
 17 35  1  0  0  0  0
 18 20  2  0  0  0  0
 18 43  1  0  0  0  0
 19 21  2  0  0  0  0
 19 44  1  0  0  0  0
 20 52  1  0  0  0  0
 21 45  1  0  0  0  0
 22 28  1  0  0  0  0
 22 30  2  0  0  0  0
 22 60  1  0  0  0  0
 23 31  2  0  0  0  0
 23 70  1  0  0  0  0
 24 83  1  0  0  0  0
 25 84  1  0  0  0  0
 26 29  2  0  0  0  0
 26 83  1  0  0  0  0
 27 85  1  0  0  0  0
 28 86  1  0  0  0  0
 29 87  1  0  0  0  0
 30 31  1  0  0  0  0
 30 88  1  0  0  0  0
 31 89  1  0  0  0  0
 32 64  2  0  0  0  0
 33 65  1  0  0  0  0
 33 68  1  0  0  0  0
 34 36  2  0  0  0  0
 34 84  1  0  0  0  0
 35 69  1  0  0  0  0
 35 75  2  0  0  0  0
 36 37  1  0  0  0  0
 36 82  1  0  0  0  0
 37 38  1  0  0  0  0
 37 76  2  0  0  0  0
 38 70  1  0  0  0  0
 38 77  2  0  0  0  0
 39 53  1  0  0  0  0
 39 71  1  0  0  0  0
 39 78  2  0  0  0  0
 40 61  1  0  0  0  0
 40 66  1  0  0  0  0
 40 79  2  0  0  0  0
 41 62  1  0  0  0  0
 41 72  1  0  0  0  0
 41 80  2  0  0  0  0
 42 67  1  0  0  0  0
 42 73  1  0  0  0  0
 42 81  2  0  0  0  0
 43 46  1  0  0  0  0
 44 53  1  0  0  0  0
 45 66  1  0  0  0  0
 46 48  1  0  0  0  0
 47 49  1  0  0  0  0
 47 50  1  0  0  0  0
 48 52  1  0  0  0  0
 49 54  1  0  0  0  0
 50 67  1  0  0  0  0
 51 54  1  0  0  0  0
 51 67  1  0  0  0  0
 52 71  1  0  0  0  0
 53 66  1  0  0  0  0
 54 65  1  0  0  0  0
 55 62  1  0  0  0  0
 56 63  1  0  0  0  0
 57 63  1  0  0  0  0
 58 63  1  0  0  0  0
 59 74  1  0  0  0  0
 60 73  1  0  0  0  0
 61 63  1  0  0  0  0
 61 72  1  0  0  0  0
 62 74  1  0  0  0  0
 64 65  1  0  0  0  0
M  CHG  1  74   1
M  ISO  4  34 101  42 100  73 100  84 101
M  END
> <Batch ID>
0176

> <Smiles>
CNC(C)C(=O)NC(C(=O)N1Cc2cc([101O:1][101CH2:1]C(=O)C(=O)C(=O)Nc3cc(F)c(C[100NH:0][100C:0](=O)N4CCCC(n5nc(-c6ccc(Oc7ccc(F)cc7F)cc6)c(C(N)=O)c5N)C4)c(F)c3F)ccc2CC1C(=O)NC1CCCc2ccccc21)C(C)(C)C

> <Shape>
0.344

> <Color>
0.150

> <Negative vol penalty>
0.000

$$$$

  -OEChem-04052304383D

 86 94  0     1  0  0  0  0  0999 V2000
  -28.5111  -33.4540   25.5796 C   0  0  0  0  0  0  0  0  0  0  0  0
  -28.5688  -32.2363   24.9094 C   0  0  0  0  0  0  0  0  0  0  0  0
  -22.8674  -10.2937   22.7501 C   0  0  0  0  0  0  0  0  0  0  0  0
  -24.4061   -9.9060   20.9282 C   0  0  0  0  0  0  0  0  0  0  0  0
  -27.2976  -33.9081   26.0947 C   0  0  0  0  0  0  0  0  0  0  0  0
  -27.4132  -31.4713   24.7548 C   0  0  0  0  0  0  0  0  0  0  0  0
  -26.9143  -29.6321   20.0630 C   0  0  0  0  0  0  0  0  0  0  0  0
  -22.2412   -9.0768   22.4802 C   0  0  0  0  0  0  0  0  0  0  0  0
  -23.7800   -8.6891   20.6583 C   0  0  0  0  0  0  0  0  0  0  0  0
  -27.6863  -28.5200   19.7296 C   0  0  0  0  0  0  0  0  0  0  0  0
  -20.4662   -5.9045   22.4998 C   0  0  0  0  0  0  0  0  0  0  0  0
  -20.1649   -5.0764   23.5809 C   0  0  0  0  0  0  0  0  0  0  0  0
  -25.7766  -27.0922   20.0947 C   0  0  0  0  0  0  0  0  0  0  0  0
  -22.5101   -4.9676   24.1512 C   0  0  0  0  0  0  0  0  0  0  0  0
  -31.2550  -20.0120   20.6745 C   0  0  0  0  0  0  0  0  0  0  0  0
  -30.1157  -17.9100   20.9360 C   0  0  0  0  0  0  0  0  0  0  0  0
  -23.9498  -10.7083   21.9740 C   0  0  0  0  0  0  0  0  0  0  0  0
  -25.6817  -12.1894   23.1204 C   0  0  0  0  0  0  0  0  0  0  0  0
  -26.1247  -33.1529   25.9379 C   0  0  0  0  0  0  0  0  0  0  0  0
  -25.5682  -29.4811   20.4259 C   0  0  0  0  0  0  0  0  0  0  0  0
  -26.1832  -31.9151   25.2694 C   0  0  0  0  0  0  0  0  0  0  0  0
  -24.9889  -28.2042   20.4298 C   0  0  0  0  0  0  0  0  0  0  0  0
  -22.6975   -8.2746   21.4343 C   0  0  0  0  0  0  0  0  0  0  0  0
  -27.1183  -27.2496   19.7482 C   0  0  0  0  0  0  0  0  0  0  0  0
  -21.7895   -6.2641   22.2442 C   0  0  0  0  0  0  0  0  0  0  0  0
  -21.1868   -4.6079   24.4067 C   0  0  0  0  0  0  0  0  0  0  0  0
  -22.8114   -5.7957   23.0699 C   0  0  0  0  0  0  0  0  0  0  0  0
  -31.2810  -18.6643   21.0159 C   0  0  0  0  0  0  0  0  0  0  0  0
  -24.5967  -11.9654   22.2520 C   0  0  0  0  0  0  0  0  0  0  0  0
  -30.0480  -20.5535   20.2626 C   0  0  0  0  0  0  0  0  0  0  0  0
  -28.9596  -18.5457   20.5126 C   0  0  0  0  0  0  0  0  0  0  0  0
  -25.9190  -13.5394   23.0324 C   0  0  0  0  0  0  0  0  0  0  0  0
  -26.4101  -11.2603   23.9339 C   0  0  0  0  0  0  0  0  0  0  0  0
  -30.7195  -24.1751   19.4455 C   0  0  0  0  0  0  0  0  0  0  0  0
  -29.7520  -24.8595   20.0877 C   0  0  0  0  0  0  0  0  0  0  0  0
  -31.0989  -22.8117   19.9412 C   0  0  0  0  0  0  0  0  0  0  0  0
  -23.8692  -30.0870   23.0431 C   0  0  0  0  0  0  0  0  0  0  0  0
  -21.3765  -29.2331   21.1511 C   0  0  0  0  0  0  0  0  0  0  0  0
  -20.2689  -27.5136   18.4191 C   0  0  0  0  0  0  0  0  0  0  0  0
  -26.5105  -18.1959   20.0374 C   0  0  0  0  0  0  0  0  0  0  0  0
  -24.8455  -33.6625   26.5531 C   0  0  0  0  0  0  0  0  0  0  0  0
  -24.7418  -30.6935   20.7570 C   0  0  0  0  0  0  0  0  0  0  0  0
  -23.5428  -27.9905   20.7926 C   0  0  0  0  0  0  0  0  0  0  0  0
  -23.5946  -32.9689   26.0198 C   0  0  0  0  0  0  0  0  0  0  0  0
  -23.1927  -17.2305   20.8959 C   0  0  0  0  0  0  0  0  0  0  0  0
  -23.7931  -31.4568   25.9927 C   0  0  0  0  0  0  0  0  0  0  0  0
  -23.3514  -15.7931   21.3967 C   0  0  0  0  0  0  0  0  0  0  0  0
  -24.1351  -17.5330   19.7323 C   0  0  0  0  0  0  0  0  0  0  0  0
  -25.7086  -15.7934   20.4852 C   0  0  0  0  0  0  0  0  0  0  0  0
  -24.9465  -31.0684   25.0598 C   0  0  1  0  0  0  0  0  0  0  0  0
  -23.5190  -30.3685   21.6093 C   0  0  1  0  0  0  0  0  0  0  0  0
  -24.8258  -15.4614   21.6994 C   0  0  2  0  0  0  0  0  0  0  0  0
  -31.5085  -24.6439   18.2607 C   0  0  0  0  0  0  0  0  0  0  0  0
  -18.1739  -26.9732   17.1478 C   0  0  0  0  0  0  0  0  0  0  0  0
  -20.5855  -27.2288   23.3114 C   0  0  0  0  0  0  0  0  0  0  0  0
  -19.1205  -26.0964   21.6263 C   0  0  0  0  0  0  0  0  0  0  0  0
  -18.6694  -28.4612   22.2797 C   0  0  0  0  0  0  0  0  0  0  0  0
  -21.2854  -28.8146   15.9629 C   0  0  0  0  0  0  0  0  0  0  0  0
  -29.2663  -26.2295   19.7096 C   0  0  0  0  0  0  0  0  0  1  0  0
  -20.6731  -27.9365   20.8300 C   0  0  1  0  0  0  0  0  0  0  0  0
  -19.3577  -27.9195   17.2749 C   0  0  2  0  0  0  0  0  0  0  0  0
  -19.7899  -27.4342   22.0069 C   0  0  0  0  0  0  0  0  0  0  0  0
  -24.1737  -13.0835   21.6562 N   0  0  0  0  0  0  0  0  0  0  0  0
  -28.8955  -19.8525   20.1725 N   0  0  0  0  0  0  0  0  0  0  0  0
  -24.9973  -14.0232   22.1512 N   0  0  0  0  0  0  0  0  0  0  0  0
  -22.7779  -29.2065   21.1147 N   0  0  0  0  0  0  0  0  0  0  0  0
  -25.5144  -17.1982   20.0932 N   0  0  0  0  0  0  0  0  0  0  0  0
  -26.8239  -14.3480   23.6237 N   0  0  0  0  0  0  0  0  0  0  0  0
  -26.0350   -9.9102   23.9054 N   0  0  0  0  0  0  0  0  0  0  0  0
  -30.0320  -21.9258   19.9168 N   0  0  0  0  0  0  0  0  0  0  0  0
  -27.7772  -17.7688   20.4343 N   0  0  0  0  0  0  0  0  0  0  0  0
  -24.5206  -31.1273   23.6779 N   0  0  0  0  0  0  0  0  0  0  0  0
  -19.9411  -28.1657   19.5890 N   0  0  0  0  0  0  0  0  0  0  0  0
  -20.1075  -27.9096   15.9870 N   0  3  0  0  0  0  0  0  0  0  0  0
  -27.3548  -11.6194   24.6770 O   0  0  0  0  0  0  0  0  0  0  0  0
  -32.2623  -22.5952   20.2624 O   0  0  0  0  0  0  0  0  0  0  0  0
  -23.5692  -29.0065   23.5374 O   0  0  0  0  0  0  0  0  0  0  0  0
  -20.7071  -30.2345   21.4171 O   0  0  0  0  0  0  0  0  0  0  0  0
  -21.1781  -26.6969   18.2891 O   0  0  0  0  0  0  0  0  0  0  0  0
  -26.2528  -19.3515   19.6909 O   0  0  0  0  0  0  0  0  0  0  0  0
  -29.1543  -24.3370   21.2255 O   0  0  0  0  0  0  0  0  0  0  0  0
  -22.0869   -7.0870   21.1708 O   0  0  0  0  0  0  0  0  0  0  0  0
  -27.8698  -26.1624   19.4238 O   0  0  0  0  0  0  0  0  0  1  0  0
  -20.8972   -3.8139   25.4458 F   0  0  0  0  0  0  0  0  0  0  0  0
  -24.0845   -6.1387   22.8301 F   0  0  0  0  0  0  0  0  0  0  0  0
  -32.4240  -18.0954   21.4204 F   0  0  0  0  0  0  0  0  0  0  0  0
  1  2  1  0  0  0  0
  1  5  2  0  0  0  0
  2  6  2  0  0  0  0
  3  8  2  0  0  0  0
  3 17  1  0  0  0  0
  4  9  1  0  0  0  0
  4 17  2  0  0  0  0
  5 19  1  0  0  0  0
  6 21  1  0  0  0  0
  7 10  2  0  0  0  0
  7 20  1  0  0  0  0
  8 23  1  0  0  0  0
  9 23  2  0  0  0  0
 10 24  1  0  0  0  0
 11 12  2  0  0  0  0
 11 25  1  0  0  0  0
 12 26  1  0  0  0  0
 13 22  1  0  0  0  0
 13 24  2  0  0  0  0
 14 26  2  0  0  0  0
 14 27  1  0  0  0  0
 15 28  2  0  0  0  0
 15 30  1  0  0  0  0
 16 28  1  0  0  0  0
 16 31  2  0  0  0  0
 17 29  1  0  0  0  0
 18 29  1  0  0  0  0
 18 32  2  0  0  0  0
 18 33  1  0  0  0  0
 19 21  2  0  0  0  0
 19 41  1  0  0  0  0
 20 22  2  0  0  0  0
 20 42  1  0  0  0  0
 21 50  1  0  0  0  0
 22 43  1  0  0  0  0
 23 82  1  0  0  0  0
 24 83  1  0  0  0  0
 25 27  2  0  0  0  0
 25 82  1  0  0  0  0
 26 84  1  0  0  0  0
 27 85  1  0  0  0  0
 28 86  1  0  0  0  0
 29 63  2  0  0  0  0
 30 64  2  0  0  0  0
 30 70  1  0  0  0  0
 31 64  1  0  0  0  0
 31 71  1  0  0  0  0
 32 65  1  0  0  0  0
 32 68  1  0  0  0  0
 33 69  1  0  0  0  0
 33 75  2  0  0  0  0
 34 35  2  0  0  0  0
 34 36  1  0  0  0  0
 34 53  1  0  0  0  0
 35 59  1  0  0  0  0
 35 81  1  0  0  0  0
 36 70  1  0  0  0  0
 36 76  2  0  0  0  0
 37 51  1  0  0  0  0
 37 72  1  0  0  0  0
 37 77  2  0  0  0  0
 38 60  1  0  0  0  0
 38 66  1  0  0  0  0
 38 78  2  0  0  0  0
 39 61  1  0  0  0  0
 39 73  1  0  0  0  0
 39 79  2  0  0  0  0
 40 67  1  0  0  0  0
 40 71  1  0  0  0  0
 40 80  2  0  0  0  0
 41 44  1  0  0  0  0
 42 51  1  0  0  0  0
 43 66  1  0  0  0  0
 44 46  1  0  0  0  0
 45 47  1  0  0  0  0
 45 48  1  0  0  0  0
 46 50  1  0  0  0  0
 47 52  1  0  0  0  0
 48 67  1  0  0  0  0
 49 52  1  0  0  0  0
 49 67  1  0  0  0  0
 50 72  1  0  0  0  0
 51 66  1  0  0  0  0
 52 65  1  0  0  0  0
 54 61  1  0  0  0  0
 55 62  1  0  0  0  0
 56 62  1  0  0  0  0
 57 62  1  0  0  0  0
 58 74  1  0  0  0  0
 59 83  1  0  0  0  0
 60 62  1  0  0  0  0
 60 73  1  0  0  0  0
 61 74  1  0  0  0  0
 63 65  1  0  0  0  0
M  CHG  1  74   1
M  ISO  4  40 100  59 101  71 100  83 101
M  END
> <Batch ID>
0176

> <Smiles>
CNC(C)C(=O)NC(C(=O)N1Cc2cc([101O:1][101CH2:1]C(=O)C(C)C(=O)Nc3cc(F)cc([100NH:0][100C:0](=O)N4CCCC(n5nc(-c6ccc(Oc7ccc(F)cc7F)cc6)c(C(N)=O)c5N)C4)n3)ccc2CC1C(=O)NC1CCCc2ccccc21)C(C)(C)C

> <Shape>
0.316

> <Color>
0.102

> <Negative vol penalty>
0.000

$$$$

  -OEChem-04052304383D

 85 93  0     1  0  0  0  0  0999 V2000
  -25.1188  -38.5090   19.3881 C   0  0  0  0  0  0  0  0  0  0  0  0
  -25.8381  -37.4506   18.8424 C   0  0  0  0  0  0  0  0  0  0  0  0
  -22.9862  -10.6210   20.2813 C   0  0  0  0  0  0  0  0  0  0  0  0
  -23.9926   -9.4107   22.1142 C   0  0  0  0  0  0  0  0  0  0  0  0
  -24.5575  -38.3873   20.6586 C   0  0  0  0  0  0  0  0  0  0  0  0
  -25.9975  -36.2701   19.5674 C   0  0  0  0  0  0  0  0  0  0  0  0
  -26.5832  -29.1900   18.6485 C   0  0  0  0  0  0  0  0  0  0  0  0
  -21.9642   -9.6740   20.2171 C   0  0  0  0  0  0  0  0  0  0  0  0
  -22.9705   -8.4637   22.0500 C   0  0  0  0  0  0  0  0  0  0  0  0
  -27.4103  -28.1233   18.9977 C   0  0  0  0  0  0  0  0  0  0  0  0
  -19.7545   -8.2002   23.0544 C   0  0  0  0  0  0  0  0  0  0  0  0
  -19.1739   -7.7932   24.2555 C   0  0  0  0  0  0  0  0  0  0  0  0
  -26.3292  -27.9975   21.1505 C   0  0  0  0  0  0  0  0  0  0  0  0
  -19.8489   -5.5165   23.8102 C   0  0  0  0  0  0  0  0  0  0  0  0
  -24.0005  -10.4894   21.2299 C   0  0  0  0  0  0  0  0  0  0  0  0
  -25.0765  -12.6465   22.0646 C   0  0  0  0  0  0  0  0  0  0  0  0
  -24.7019  -37.2012   21.3956 C   0  0  0  0  0  0  0  0  0  0  0  0
  -25.6286  -29.6763   19.5533 C   0  0  0  0  0  0  0  0  0  0  0  0
  -25.4388  -36.1329   20.8495 C   0  0  0  0  0  0  0  0  0  0  0  0
  -25.4894  -29.0688   20.8094 C   0  0  0  0  0  0  0  0  0  0  0  0
  -27.8650  -18.3989   19.0465 C   0  0  0  0  0  0  0  0  0  0  0  0
  -21.9563   -8.5954   21.1015 C   0  0  0  0  0  0  0  0  0  0  0  0
  -27.2854  -27.5288   20.2499 C   0  0  0  0  0  0  0  0  0  0  0  0
  -20.3823   -7.2654   22.2311 C   0  0  0  0  0  0  0  0  0  0  0  0
  -19.2211   -6.4513   24.6335 C   0  0  0  0  0  0  0  0  0  0  0  0
  -20.4295   -5.9235   22.6091 C   0  0  0  0  0  0  0  0  0  0  0  0
  -27.5484  -19.7380   19.4161 C   0  0  0  0  0  0  0  0  0  0  0  0
  -25.0568  -11.4670   21.2963 C   0  0  0  0  0  0  0  0  0  0  0  0
  -29.2246  -18.1919   18.9661 C   0  0  0  0  0  0  0  0  0  0  0  0
  -26.2905  -13.2220   21.7792 C   0  0  0  0  0  0  0  0  0  0  0  0
  -28.6782  -20.5036   19.6045 C   0  0  0  0  0  0  0  0  0  0  0  0
  -29.9663  -16.9667   18.6191 C   0  0  0  0  0  0  0  0  0  0  0  0
  -27.6649  -25.2216   20.3077 C   0  0  0  0  0  0  0  0  0  1  0  0
  -24.0860  -13.1745   22.9566 C   0  0  0  0  0  0  0  0  0  0  0  0
  -28.3763  -24.1262   20.6006 C   0  0  0  0  0  0  0  0  0  0  0  0
  -27.8196  -22.7804   20.2442 C   0  0  0  0  0  0  0  0  0  0  0  0
  -25.1371  -32.4541   21.0181 C   0  0  0  0  0  0  0  0  0  0  0  0
  -22.4187  -30.9982   22.0245 C   0  0  0  0  0  0  0  0  0  0  0  0
  -20.7649  -28.0866   22.6834 C   0  0  0  0  0  0  0  0  0  0  0  0
  -30.1191  -14.7518   18.0171 C   0  0  0  0  0  0  0  0  0  0  0  0
  -24.1174  -37.1337   22.7842 C   0  0  0  0  0  0  0  0  0  0  0  0
  -24.7259  -30.8103   19.1514 C   0  0  0  0  0  0  0  0  0  0  0  0
  -24.4665  -29.5403   21.8093 C   0  0  0  0  0  0  0  0  0  0  0  0
  -24.0143  -35.7131   23.3333 C   0  0  0  0  0  0  0  0  0  0  0  0
  -30.3186  -11.4011   19.3352 C   0  0  0  0  0  0  0  0  0  0  0  0
  -25.3146  -34.9525   23.0938 C   0  0  0  0  0  0  0  0  0  0  0  0
  -28.9538  -11.2060   19.9954 C   0  0  0  0  0  0  0  0  0  0  0  0
  -30.2150  -12.2597   18.0784 C   0  0  0  0  0  0  0  0  0  0  0  0
  -28.1974  -13.3947   18.9671 C   0  0  0  0  0  0  0  0  0  0  0  0
  -25.6125  -34.8274   21.5948 C   0  0  1  0  0  0  0  0  0  0  0  0
  -24.1375  -31.5572   20.3444 C   0  0  1  0  0  0  0  0  0  0  0  0
  -28.2675  -12.5587   20.2565 C   0  0  1  0  0  0  0  0  0  0  0  0
  -18.5689  -27.2168   23.5310 C   0  0  0  0  0  0  0  0  0  0  0  0
  -23.2347  -31.7221   24.8741 C   0  0  0  0  0  0  0  0  0  0  0  0
  -21.5644  -30.0511   25.7025 C   0  0  0  0  0  0  0  0  0  0  0  0
  -20.8021  -32.0223   24.3774 C   0  0  0  0  0  0  0  0  0  0  0  0
  -20.2099  -26.6767   20.1411 C   0  0  0  0  0  0  0  0  0  0  0  0
  -22.0379  -30.1489   23.2131 C   0  0  1  0  0  0  0  0  0  0  0  0
  -19.3751  -27.6092   22.3027 C   0  0  2  0  0  0  0  0  0  0  0  0
  -21.9305  -30.9782   24.5239 C   0  0  0  0  0  0  0  0  0  0  0  0
  -26.1699  -11.3018   20.5767 N   0  0  0  0  0  0  0  0  0  0  0  0
  -29.3591  -15.8621   18.3320 N   0  0  0  0  0  0  0  0  0  0  0  0
  -26.9003  -12.3851   20.8916 N   0  0  0  0  0  0  0  0  0  0  0  0
  -23.6116  -30.6562   21.3719 N   0  0  0  0  0  0  0  0  0  0  0  0
  -29.5282  -13.5214   18.3584 N   0  0  0  0  0  0  0  0  0  0  0  0
  -26.9320  -17.4476   18.8047 N   0  0  0  0  0  0  0  0  0  0  0  0
  -26.8851  -14.3573   22.2033 N   0  0  0  0  0  0  0  0  0  0  0  0
  -22.8959  -12.4559   23.1345 N   0  0  0  0  0  0  0  0  0  0  0  0
  -28.8251  -21.8627   19.9729 N   0  0  0  0  0  0  0  0  0  0  0  0
  -24.7933  -33.7924   21.0014 N   0  0  0  0  0  0  0  0  0  0  0  0
  -20.8090  -29.4555   22.8423 N   0  0  0  0  0  0  0  0  0  0  0  0
  -19.4628  -26.4262   21.4005 N   0  3  0  0  0  0  0  0  0  0  0  0
  -24.2444  -14.2601   23.5649 O   0  0  0  0  0  0  0  0  0  0  0  0
  -26.6090  -22.5867   20.2160 O   0  0  0  0  0  0  0  0  0  0  0  0
  -26.1450  -31.9679   21.5175 O   0  0  0  0  0  0  0  0  0  0  0  0
  -21.6812  -31.9262   21.6832 O   0  0  0  0  0  0  0  0  0  0  0  0
  -21.7154  -27.3212   22.8292 O   0  0  0  0  0  0  0  0  0  0  0  0
  -31.2257  -14.8074   17.4754 O   0  0  0  0  0  0  0  0  0  0  0  0
  -29.6085  -24.1850   21.2194 O   0  0  0  0  0  0  0  0  0  0  0  0
  -20.9590   -7.6712   21.0393 O   0  0  0  0  0  0  0  0  0  0  0  0
  -28.0919  -26.4880   20.5935 O   0  0  0  0  0  0  0  0  0  1  0  0
  -18.6648   -6.0608   25.7877 F   0  0  0  0  0  0  0  0  0  0  0  0
  -21.0322   -5.0211   21.8229 F   0  0  0  0  0  0  0  0  0  0  0  0
  -26.3041  -20.1985   19.5659 F   0  0  0  0  0  0  0  0  0  0  0  0
  -30.1130  -19.6084   19.3356 S   0  0  0  0  0  0  0  0  0  0  0  0
  1  2  1  0  0  0  0
  1  5  2  0  0  0  0
  2  6  2  0  0  0  0
  3  8  2  0  0  0  0
  3 15  1  0  0  0  0
  4  9  1  0  0  0  0
  4 15  2  0  0  0  0
  5 17  1  0  0  0  0
  6 19  1  0  0  0  0
  7 10  2  0  0  0  0
  7 18  1  0  0  0  0
  8 22  1  0  0  0  0
  9 22  2  0  0  0  0
 10 23  1  0  0  0  0
 11 12  2  0  0  0  0
 11 24  1  0  0  0  0
 12 25  1  0  0  0  0
 13 20  1  0  0  0  0
 13 23  2  0  0  0  0
 14 25  2  0  0  0  0
 14 26  1  0  0  0  0
 15 28  1  0  0  0  0
 16 28  1  0  0  0  0
 16 30  2  0  0  0  0
 16 34  1  0  0  0  0
 17 19  2  0  0  0  0
 17 41  1  0  0  0  0
 18 20  2  0  0  0  0
 18 42  1  0  0  0  0
 19 50  1  0  0  0  0
 20 43  1  0  0  0  0
 21 27  1  0  0  0  0
 21 29  2  0  0  0  0
 21 66  1  0  0  0  0
 22 80  1  0  0  0  0
 23 81  1  0  0  0  0
 24 26  2  0  0  0  0
 24 80  1  0  0  0  0
 25 82  1  0  0  0  0
 26 83  1  0  0  0  0
 27 31  2  0  0  0  0
 27 84  1  0  0  0  0
 28 61  2  0  0  0  0
 29 32  1  0  0  0  0
 29 85  1  0  0  0  0
 30 63  1  0  0  0  0
 30 67  1  0  0  0  0
 31 69  1  0  0  0  0
 31 85  1  0  0  0  0
 32 62  2  0  0  0  0
 33 35  2  0  0  0  0
 33 81  1  0  0  0  0
 34 68  1  0  0  0  0
 34 73  2  0  0  0  0
 35 36  1  0  0  0  0
 35 79  1  0  0  0  0
 36 69  1  0  0  0  0
 36 74  2  0  0  0  0
 37 51  1  0  0  0  0
 37 70  1  0  0  0  0
 37 75  2  0  0  0  0
 38 58  1  0  0  0  0
 38 64  1  0  0  0  0
 38 76  2  0  0  0  0
 39 59  1  0  0  0  0
 39 71  1  0  0  0  0
 39 77  2  0  0  0  0
 40 62  1  0  0  0  0
 40 65  1  0  0  0  0
 40 78  2  0  0  0  0
 41 44  1  0  0  0  0
 42 51  1  0  0  0  0
 43 64  1  0  0  0  0
 44 46  1  0  0  0  0
 45 47  1  0  0  0  0
 45 48  1  0  0  0  0
 46 50  1  0  0  0  0
 47 52  1  0  0  0  0
 48 65  1  0  0  0  0
 49 52  1  0  0  0  0
 49 65  1  0  0  0  0
 50 70  1  0  0  0  0
 51 64  1  0  0  0  0
 52 63  1  0  0  0  0
 53 59  1  0  0  0  0
 54 60  1  0  0  0  0
 55 60  1  0  0  0  0
 56 60  1  0  0  0  0
 57 72  1  0  0  0  0
 58 60  1  0  0  0  0
 58 71  1  0  0  0  0
 59 72  1  0  0  0  0
 61 63  1  0  0  0  0
M  CHG  1  72   1
M  ISO  4  33 101  40 100  62 100  81 101
M  END
> <Batch ID>
0176

> <Smiles>
CNC(C)C(=O)NC(C(=O)N1Cc2cc([101O:1][101CH2:1]C(=O)C(=O)Nc3sc(C=[100N:0][100C:0](=O)N4CCCC(n5nc(-c6ccc(Oc7ccc(F)cc7F)cc6)c(C(N)=O)c5N)C4)c(N)c3F)ccc2CC1C(=O)NC1CCCc2ccccc21)C(C)(C)C

> <Shape>
0.319

> <Color>
0.107

> <Negative vol penalty>
0.000

$$$$

  -OEChem-04052304383D

 84 92  0     1  0  0  0  0  0999 V2000
  -30.0835  -34.4002   24.8602 C   0  0  0  0  0  0  0  0  0  0  0  0
  -30.1933  -33.3766   23.9244 C   0  0  0  0  0  0  0  0  0  0  0  0
  -24.6574   -8.8022   21.4235 C   0  0  0  0  0  0  0  0  0  0  0  0
  -23.0670  -10.6207   21.3958 C   0  0  0  0  0  0  0  0  0  0  0  0
  -29.1408  -34.3095   25.8834 C   0  0  0  0  0  0  0  0  0  0  0  0
  -29.3612  -32.2611   24.0120 C   0  0  0  0  0  0  0  0  0  0  0  0
  -27.0489  -29.0186   19.3596 C   0  0  0  0  0  0  0  0  0  0  0  0
  -23.8966   -8.1515   22.3947 C   0  0  0  0  0  0  0  0  0  0  0  0
  -22.3061   -9.9700   22.3671 C   0  0  0  0  0  0  0  0  0  0  0  0
  -27.4414  -27.8202   18.7650 C   0  0  0  0  0  0  0  0  0  0  0  0
  -21.0797   -6.2850   22.5149 C   0  0  0  0  0  0  0  0  0  0  0  0
  -20.8462   -4.9200   22.3484 C   0  0  0  0  0  0  0  0  0  0  0  0
  -25.8626  -26.6260   20.1435 C   0  0  0  0  0  0  0  0  0  0  0  0
  -21.9485   -4.4748   24.4518 C   0  0  0  0  0  0  0  0  0  0  0  0
  -24.2427  -10.0368   20.9241 C   0  0  0  0  0  0  0  0  0  0  0  0
  -24.9104  -10.5855   18.5239 C   0  0  0  0  0  0  0  0  0  0  0  0
  -28.2901  -33.1968   25.9779 C   0  0  0  0  0  0  0  0  0  0  0  0
  -26.0663  -29.0284   20.3600 C   0  0  0  0  0  0  0  0  0  0  0  0
  -28.4071  -32.1548   25.0383 C   0  0  0  0  0  0  0  0  0  0  0  0
  -25.4576  -27.8261   20.7474 C   0  0  0  0  0  0  0  0  0  0  0  0
  -22.7210   -8.7353   22.8665 C   0  0  0  0  0  0  0  0  0  0  0  0
  -26.8504  -26.6233   19.1589 C   0  0  0  0  0  0  0  0  0  0  0  0
  -21.7477   -6.7450   23.6498 C   0  0  0  0  0  0  0  0  0  0  0  0
  -21.2806   -4.0149   23.3169 C   0  0  0  0  0  0  0  0  0  0  0  0
  -22.1821   -5.8399   24.6182 C   0  0  0  0  0  0  0  0  0  0  0  0
  -25.0285  -10.7097   19.9212 C   0  0  0  0  0  0  0  0  0  0  0  0
  -25.4514  -20.0803   19.8622 C   0  0  0  0  0  0  0  0  0  0  0  0
  -26.8101  -20.3171   19.8658 C   0  0  0  0  0  0  0  0  0  0  0  0
  -25.8759  -11.4234   18.0218 C   0  0  0  0  0  0  0  0  0  0  0  0
  -26.8561  -18.1301   20.0238 C   0  0  0  0  0  0  0  0  0  0  0  0
  -24.0085   -9.7843   17.7491 C   0  0  0  0  0  0  0  0  0  0  0  0
  -28.9722  -23.3873   19.6309 C   0  0  0  0  0  0  0  0  0  0  0  0
  -28.7309  -21.9121   19.7714 C   0  0  0  0  0  0  0  0  0  0  0  0
  -25.9938  -29.8689   23.4247 C   0  0  0  0  0  0  0  0  0  0  0  0
  -22.8208  -29.2725   23.1105 C   0  0  0  0  0  0  0  0  0  0  0  0
  -20.3306  -27.6439   21.4392 C   0  0  0  0  0  0  0  0  0  0  0  0
  -28.5765  -16.2967   20.1814 C   0  0  0  0  0  0  0  0  0  0  0  0
  -27.3187  -33.1214   27.1292 C   0  0  0  0  0  0  0  0  0  0  0  0
  -25.6350  -30.3326   20.9727 C   0  0  0  0  0  0  0  0  0  0  0  0
  -24.3836  -27.7850   21.8026 C   0  0  0  0  0  0  0  0  0  0  0  0
  -26.2201  -32.0800   26.9321 C   0  0  0  0  0  0  0  0  0  0  0  0
  -30.1506  -13.2880   19.1102 C   0  0  0  0  0  0  0  0  0  0  0  0
  -26.8145  -30.7631   26.4428 C   0  0  0  0  0  0  0  0  0  0  0  0
  -29.0039  -12.2756   19.0635 C   0  0  0  0  0  0  0  0  0  0  0  0
  -30.0001  -14.2621   20.2773 C   0  0  0  0  0  0  0  0  0  0  0  0
  -27.5581  -13.9379   20.3019 C   0  0  0  0  0  0  0  0  0  0  0  0
  -27.5055  -30.9403   25.0853 C   0  0  1  0  0  0  0  0  0  0  0  0
  -24.9909  -30.1639   22.3453 C   0  0  1  0  0  0  0  0  0  0  0  0
  -27.6316  -12.9762   19.1046 C   0  0  2  0  0  0  0  0  0  0  0  0
  -24.3175  -21.0233   19.7777 C   0  0  0  0  0  0  0  0  0  0  0  0
  -17.8416  -27.3241   21.4370 C   0  0  0  0  0  0  0  0  0  0  0  0
  -23.0605  -27.4089   25.5145 C   0  0  0  0  0  0  0  0  0  0  0  0
  -20.8481  -26.4222   24.8821 C   0  0  0  0  0  0  0  0  0  0  0  0
  -21.0053  -28.8338   25.4999 C   0  0  0  0  0  0  0  0  0  0  0  0
  -20.0708  -28.7780   18.7180 C   0  0  0  0  0  0  0  0  0  0  0  0
  -29.0552  -23.9227   18.2183 C   0  0  0  0  0  0  0  0  0  0  0  0
  -28.5798  -25.3644   18.1196 C   0  0  0  0  0  0  0  0  0  1  0  0
  -21.9389  -28.0593   23.2818 C   0  0  1  0  0  0  0  0  0  0  0  0
  -19.0051  -28.1312   20.8824 C   0  0  2  0  0  0  0  0  0  0  0  0
  -21.7348  -27.6813   24.7760 C   0  0  0  0  0  0  0  0  0  0  0  0
  -25.9931  -11.5595   20.2836 N   0  0  0  0  0  0  0  0  0  0  0  0
  -27.6171  -19.2000   19.9588 N   0  0  0  0  0  0  0  0  0  0  0  0
  -26.4900  -11.9768   19.1067 N   0  0  0  0  0  0  0  0  0  0  0  0
  -24.0007  -29.0857   22.3764 N   0  0  0  0  0  0  0  0  0  0  0  0
  -28.6777  -14.8910   20.2490 N   0  0  0  0  0  0  0  0  0  0  0  0
  -26.2512  -11.7334   16.7627 N   0  0  0  0  0  0  0  0  0  0  0  0
  -23.0795   -8.9811   18.4245 N   0  0  0  0  0  0  0  0  0  0  0  0
  -27.3873  -21.6055   19.7807 N   0  0  0  0  0  0  0  0  0  0  0  0
  -27.2691  -16.7786   20.1269 N   0  0  0  0  0  0  0  0  0  0  0  0
  -26.5248  -30.9959   24.0225 N   0  0  0  0  0  0  0  0  0  0  0  0
  -20.7021  -28.3491   22.5644 N   0  0  0  0  0  0  0  0  0  0  0  0
  -18.9928  -28.0138   19.3968 N   0  3  0  0  0  0  0  0  0  0  0  0
  -24.0368   -9.7683   16.4951 O   0  0  0  0  0  0  0  0  0  0  0  0
  -29.0709  -24.0386   20.6598 O   0  0  0  0  0  0  0  0  0  0  0  0
  -29.7196  -21.2001   19.8302 O   0  0  0  0  0  0  0  0  0  0  0  0
  -26.2646  -28.7050   23.6961 O   0  0  0  0  0  0  0  0  0  0  0  0
  -22.4720  -30.3481   23.6035 O   0  0  0  0  0  0  0  0  0  0  0  0
  -20.9704  -26.7267   20.9294 O   0  0  0  0  0  0  0  0  0  0  0  0
  -29.5765  -17.0183   20.1450 O   0  0  0  0  0  0  0  0  0  0  0  0
  -21.9781   -8.1006   23.8140 O   0  0  0  0  0  0  0  0  0  0  0  0
  -27.2322  -25.4522   18.5806 O   0  0  0  0  0  0  0  0  0  1  0  0
  -21.0549   -2.7042   23.1576 F   0  0  0  0  0  0  0  0  0  0  0  0
  -22.8233   -6.2760   25.7112 F   0  0  0  0  0  0  0  0  0  0  0  0
  -25.1610  -18.3940   19.9776 S   0  0  0  0  0  0  0  0  0  0  0  0
  1  2  1  0  0  0  0
  1  5  2  0  0  0  0
  2  6  2  0  0  0  0
  3  8  2  0  0  0  0
  3 15  1  0  0  0  0
  4  9  1  0  0  0  0
  4 15  2  0  0  0  0
  5 17  1  0  0  0  0
  6 19  1  0  0  0  0
  7 10  2  0  0  0  0
  7 18  1  0  0  0  0
  8 21  1  0  0  0  0
  9 21  2  0  0  0  0
 10 22  1  0  0  0  0
 11 12  2  0  0  0  0
 11 23  1  0  0  0  0
 12 24  1  0  0  0  0
 13 20  1  0  0  0  0
 13 22  2  0  0  0  0
 14 24  2  0  0  0  0
 14 25  1  0  0  0  0
 15 26  1  0  0  0  0
 16 26  1  0  0  0  0
 16 29  2  0  0  0  0
 16 31  1  0  0  0  0
 17 19  2  0  0  0  0
 17 38  1  0  0  0  0
 18 20  2  0  0  0  0
 18 39  1  0  0  0  0
 19 47  1  0  0  0  0
 20 40  1  0  0  0  0
 21 80  1  0  0  0  0
 22 81  1  0  0  0  0
 23 25  2  0  0  0  0
 23 80  1  0  0  0  0
 24 82  1  0  0  0  0
 25 83  1  0  0  0  0
 26 61  2  0  0  0  0
 27 28  2  0  0  0  0
 27 50  1  0  0  0  0
 27 84  1  0  0  0  0
 28 62  1  0  0  0  0
 28 68  1  0  0  0  0
 29 63  1  0  0  0  0
 29 66  1  0  0  0  0
 30 62  2  0  0  0  0
 30 69  1  0  0  0  0
 30 84  1  0  0  0  0
 31 67  1  0  0  0  0
 31 73  2  0  0  0  0
 32 33  1  0  0  0  0
 32 56  1  0  0  0  0
 32 74  2  0  0  0  0
 33 68  1  0  0  0  0
 33 75  2  0  0  0  0
 34 48  1  0  0  0  0
 34 70  1  0  0  0  0
 34 76  2  0  0  0  0
 35 58  1  0  0  0  0
 35 64  1  0  0  0  0
 35 77  2  0  0  0  0
 36 59  1  0  0  0  0
 36 71  1  0  0  0  0
 36 78  2  0  0  0  0
 37 65  1  0  0  0  0
 37 69  1  0  0  0  0
 37 79  2  0  0  0  0
 38 41  1  0  0  0  0
 39 48  1  0  0  0  0
 40 64  1  0  0  0  0
 41 43  1  0  0  0  0
 42 44  1  0  0  0  0
 42 45  1  0  0  0  0
 43 47  1  0  0  0  0
 44 49  1  0  0  0  0
 45 65  1  0  0  0  0
 46 49  1  0  0  0  0
 46 65  1  0  0  0  0
 47 70  1  0  0  0  0
 48 64  1  0  0  0  0
 49 63  1  0  0  0  0
 51 59  1  0  0  0  0
 52 60  1  0  0  0  0
 53 60  1  0  0  0  0
 54 60  1  0  0  0  0
 55 72  1  0  0  0  0
 56 57  1  0  0  0  0
 57 81  1  0  0  0  0
 58 60  1  0  0  0  0
 58 71  1  0  0  0  0
 59 72  1  0  0  0  0
 61 63  1  0  0  0  0
M  CHG  1  72   1
M  ISO  4  37 100  57 101  69 100  81 101
M  END
> <Batch ID>
0176

> <Smiles>
CNC(C)C(=O)NC(C(=O)N1Cc2cc([101O:1][101CH2:1]CC(=O)C(=O)Nc3nc([100NH:0][100C:0](=O)N4CCCC(n5nc(-c6ccc(Oc7ccc(F)cc7F)cc6)c(C(N)=O)c5N)C4)sc3C)ccc2CC1C(=O)NC1CCCc2ccccc21)C(C)(C)C

> <Shape>
0.322

> <Color>
0.092

> <Negative vol penalty>
0.000

$$$$

  -OEChem-04052304383D

 84 92  0     1  0  0  0  0  0999 V2000
  -21.0616  -21.1965   21.6253 C   0  0  0  0  0  0  0  0  0  0  0  0
  -22.3649  -21.6583   21.4718 C   0  0  0  0  0  0  0  0  0  0  0  0
  -21.8539  -10.1820   22.5584 C   0  0  0  0  0  0  0  0  0  0  0  0
  -23.2697  -10.0088   20.6083 C   0  0  0  0  0  0  0  0  0  0  0  0
  -19.9920  -22.0853   21.5258 C   0  0  0  0  0  0  0  0  0  0  0  0
  -22.5993  -23.0092   21.2177 C   0  0  0  0  0  0  0  0  0  0  0  0
  -26.3734  -24.8873   24.0238 C   0  0  0  0  0  0  0  0  0  0  0  0
  -21.5321   -8.8295   22.4449 C   0  0  0  0  0  0  0  0  0  0  0  0
  -22.9479   -8.6563   20.4948 C   0  0  0  0  0  0  0  0  0  0  0  0
  -27.6748  -24.5929   23.6196 C   0  0  0  0  0  0  0  0  0  0  0  0
  -22.9617   -5.8577   23.1916 C   0  0  0  0  0  0  0  0  0  0  0  0
  -22.9809   -5.0871   24.3541 C   0  0  0  0  0  0  0  0  0  0  0  0
  -26.5556  -21.4128   18.6521 C   0  0  0  0  0  0  0  0  0  0  0  0
  -25.3162  -20.7100   18.6330 C   0  0  0  0  0  0  0  0  0  0  0  0
  -27.8441  -26.7718   22.5984 C   0  0  0  0  0  0  0  0  0  0  0  0
  -20.6421   -4.5649   24.0465 C   0  0  0  0  0  0  0  0  0  0  0  0
  -22.7227  -10.7716   21.6400 C   0  0  0  0  0  0  0  0  0  0  0  0
  -24.1228  -12.7311   22.4813 C   0  0  0  0  0  0  0  0  0  0  0  0
  -20.2140  -23.4495   21.2800 C   0  0  0  0  0  0  0  0  0  0  0  0
  -25.7927  -26.1241   23.7084 C   0  0  0  0  0  0  0  0  0  0  0  0
  -21.5316  -23.9169   21.1136 C   0  0  0  0  0  0  0  0  0  0  0  0
  -26.5361  -27.0804   23.0019 C   0  0  0  0  0  0  0  0  0  0  0  0
  -22.0791   -8.0667   21.4132 C   0  0  0  0  0  0  0  0  0  0  0  0
  -28.4094  -25.5340   22.9043 C   0  0  0  0  0  0  0  0  0  0  0  0
  -21.7827   -5.9820   22.4566 C   0  0  0  0  0  0  0  0  0  0  0  0
  -21.8211   -4.4407   24.7815 C   0  0  0  0  0  0  0  0  0  0  0  0
  -20.6229   -5.3356   22.8840 C   0  0  0  0  0  0  0  0  0  0  0  0
  -23.0550  -12.1688   21.7564 C   0  0  0  0  0  0  0  0  0  0  0  0
  -24.0040  -14.0837   22.2739 C   0  0  0  0  0  0  0  0  0  0  0  0
  -27.5925  -20.6212   19.0945 C   0  0  0  0  0  0  0  0  0  0  0  0
  -25.4533  -19.4079   19.0614 C   0  0  0  0  0  0  0  0  0  0  0  0
  -25.1318  -12.0883   23.2715 C   0  0  0  0  0  0  0  0  0  0  0  0
  -23.2762  -27.0507   22.0018 C   0  0  0  0  0  0  0  0  0  0  0  0
  -31.0455  -23.7655   21.1644 C   0  0  0  0  0  0  0  0  0  0  0  0
  -24.0404  -29.9729   23.1846 C   0  0  0  0  0  0  0  0  0  0  0  0
  -29.6204  -22.1126   19.0204 C   0  0  0  0  0  0  0  0  0  0  0  0
  -26.4244  -32.0380   24.4878 C   0  0  0  0  0  0  0  0  0  0  0  0
  -23.1327  -18.4384   18.9153 C   0  0  0  0  0  0  0  0  0  0  0  0
  -19.0235  -24.3639   21.1338 C   0  0  0  0  0  0  0  0  0  0  0  0
  -24.3973  -26.4366   24.1748 C   0  0  0  0  0  0  0  0  0  0  0  0
  -25.9658  -28.4307   22.6557 C   0  0  0  0  0  0  0  0  0  0  0  0
  -19.3773  -25.8454   21.2350 C   0  0  0  0  0  0  0  0  0  0  0  0
  -20.2557  -16.7818   20.2021 C   0  0  0  0  0  0  0  0  0  0  0  0
  -20.6002  -26.1618   20.3798 C   0  0  0  0  0  0  0  0  0  0  0  0
  -20.8154  -15.4802   20.7808 C   0  0  0  0  0  0  0  0  0  0  0  0
  -20.9827  -17.1924   18.9228 C   0  0  0  0  0  0  0  0  0  0  0  0
  -23.0044  -15.9667   19.6153 C   0  0  0  0  0  0  0  0  0  0  0  0
  -21.8278  -25.3794   20.8616 C   0  0  1  0  0  0  0  0  0  0  0  0
  -23.7237  -27.5314   23.3532 C   0  0  1  0  0  0  0  0  0  0  0  0
  -22.3469  -15.5470   20.9402 C   0  0  2  0  0  0  0  0  0  0  0  0
  -26.7585  -34.3808   25.3228 C   0  0  0  0  0  0  0  0  0  0  0  0
  -24.0675  -30.9916   20.3086 C   0  0  0  0  0  0  0  0  0  0  0  0
  -25.3046  -33.0150   21.1106 C   0  0  0  0  0  0  0  0  0  0  0  0
  -23.0051  -32.5450   21.9556 C   0  0  0  0  0  0  0  0  0  0  0  0
  -27.1706  -31.0919   27.1909 C   0  0  0  0  0  0  0  0  0  0  0  0
  -31.4458  -22.3474   20.7843 C   0  0  0  0  0  0  0  0  0  0  0  0
  -29.9855  -23.8806   22.2424 C   0  0  0  0  0  0  0  0  0  1  0  0
  -31.1058  -21.9902   19.3406 C   0  0  0  0  0  0  0  0  0  0  0  0
  -24.9314  -31.1070   22.7389 C   0  0  1  0  0  0  0  0  0  0  0  0
  -26.4135  -32.9490   25.7020 C   0  0  2  0  0  0  0  0  0  0  0  0
  -24.3375  -31.8886   21.5331 C   0  0  0  0  0  0  0  0  0  0  0  0
  -22.3125  -13.0889   21.1350 N   0  0  0  0  0  0  0  0  0  0  0  0
  -22.9146  -14.2431   21.4690 N   0  0  0  0  0  0  0  0  0  0  0  0
  -24.5952  -28.6865   23.1284 N   0  0  0  0  0  0  0  0  0  0  0  0
  -22.4287  -17.2385   19.1506 N   0  0  0  0  0  0  0  0  0  0  0  0
  -24.7261  -15.1403   22.7034 N   0  0  0  0  0  0  0  0  0  0  0  0
  -25.1072  -10.6911   23.3786 N   0  0  0  0  0  0  0  0  0  0  0  0
  -28.9675  -20.9082   19.2675 N   0  0  0  0  0  0  0  0  0  0  0  0
  -24.4966  -18.3715   19.1977 N   0  0  0  0  0  0  0  0  0  0  0  0
  -22.3861  -25.9946   22.0466 N   0  0  0  0  0  0  0  0  0  0  0  0
  -25.1720  -31.9262   23.9218 N   0  0  0  0  0  0  0  0  0  0  0  0
  -27.4038  -32.4786   26.7115 N   0  3  0  0  0  0  0  0  0  0  0  0
  -26.0189  -12.7351   23.8783 O   0  0  0  0  0  0  0  0  0  0  0  0
  -23.7055  -27.5983   20.9930 O   0  0  0  0  0  0  0  0  0  0  0  0
  -31.5459  -24.7592   20.6402 O   0  0  0  0  0  0  0  0  0  0  0  0
  -22.8967  -30.2200   23.5752 O   0  0  0  0  0  0  0  0  0  0  0  0
  -29.1253  -23.1563   18.6084 O   0  0  0  0  0  0  0  0  0  0  0  0
  -27.4429  -31.4842   24.0797 O   0  0  0  0  0  0  0  0  0  0  0  0
  -22.5625  -19.4585   18.5201 O   0  0  0  0  0  0  0  0  0  0  0  0
  -21.7655   -6.7468   21.3023 O   0  0  0  0  0  0  0  0  0  0  0  0
  -29.6796  -25.2489   22.5080 O   0  0  0  0  0  0  0  0  0  1  0  0
  -21.8401   -3.6994   25.8970 F   0  0  0  0  0  0  0  0  0  0  0  0
  -19.4876   -5.4503   22.1814 F   0  0  0  0  0  0  0  0  0  0  0  0
  -27.0707  -19.0375   19.4844 S   0  0  0  0  0  0  0  0  0  0  0  0
  1  2  1  0  0  0  0
  1  5  2  0  0  0  0
  2  6  2  0  0  0  0
  3  8  2  0  0  0  0
  3 17  1  0  0  0  0
  4  9  1  0  0  0  0
  4 17  2  0  0  0  0
  5 19  1  0  0  0  0
  6 21  1  0  0  0  0
  7 10  2  0  0  0  0
  7 20  1  0  0  0  0
  8 23  1  0  0  0  0
  9 23  2  0  0  0  0
 10 24  1  0  0  0  0
 11 12  2  0  0  0  0
 11 25  1  0  0  0  0
 12 26  1  0  0  0  0
 13 14  1  0  0  0  0
 13 30  2  0  0  0  0
 14 31  2  0  0  0  0
 15 22  1  0  0  0  0
 15 24  2  0  0  0  0
 16 26  2  0  0  0  0
 16 27  1  0  0  0  0
 17 28  1  0  0  0  0
 18 28  1  0  0  0  0
 18 29  2  0  0  0  0
 18 32  1  0  0  0  0
 19 21  2  0  0  0  0
 19 39  1  0  0  0  0
 20 22  2  0  0  0  0
 20 40  1  0  0  0  0
 21 48  1  0  0  0  0
 22 41  1  0  0  0  0
 23 80  1  0  0  0  0
 24 81  1  0  0  0  0
 25 27  2  0  0  0  0
 25 80  1  0  0  0  0
 26 82  1  0  0  0  0
 27 83  1  0  0  0  0
 28 62  2  0  0  0  0
 29 63  1  0  0  0  0
 29 66  1  0  0  0  0
 30 68  1  0  0  0  0
 30 84  1  0  0  0  0
 31 69  1  0  0  0  0
 31 84  1  0  0  0  0
 32 67  1  0  0  0  0
 32 73  2  0  0  0  0
 33 49  1  0  0  0  0
 33 70  1  0  0  0  0
 33 74  2  0  0  0  0
 34 56  1  0  0  0  0
 34 57  1  0  0  0  0
 34 75  2  0  0  0  0
 35 59  1  0  0  0  0
 35 64  1  0  0  0  0
 35 76  2  0  0  0  0
 36 58  1  0  0  0  0
 36 68  1  0  0  0  0
 36 77  2  0  0  0  0
 37 60  1  0  0  0  0
 37 71  1  0  0  0  0
 37 78  2  0  0  0  0
 38 65  1  0  0  0  0
 38 69  1  0  0  0  0
 38 79  2  0  0  0  0
 39 42  1  0  0  0  0
 40 49  1  0  0  0  0
 41 64  1  0  0  0  0
 42 44  1  0  0  0  0
 43 45  1  0  0  0  0
 43 46  1  0  0  0  0
 44 48  1  0  0  0  0
 45 50  1  0  0  0  0
 46 65  1  0  0  0  0
 47 50  1  0  0  0  0
 47 65  1  0  0  0  0
 48 70  1  0  0  0  0
 49 64  1  0  0  0  0
 50 63  1  0  0  0  0
 51 60  1  0  0  0  0
 52 61  1  0  0  0  0
 53 61  1  0  0  0  0
 54 61  1  0  0  0  0
 55 72  1  0  0  0  0
 56 58  1  0  0  0  0
 57 81  1  0  0  0  0
 59 61  1  0  0  0  0
 59 71  1  0  0  0  0
 60 72  1  0  0  0  0
 62 63  1  0  0  0  0
M  CHG  1  72   1
M  ISO  4  38 100  57 101  69 100  81 101
M  END
> <Batch ID>
0176

> <Smiles>
CNC(C)C(=O)NC(C(=O)N1Cc2cc([101O:1][101CH2:1]C(=O)CCC(=O)Nc3ccc([100NH:0][100C:0](=O)N4CCCC(n5nc(-c6ccc(Oc7ccc(F)cc7F)cc6)c(C(N)=O)c5N)C4)s3)ccc2CC1C(=O)NC1CCCc2ccccc21)C(C)(C)C

> <Shape>
0.204

> <Color>
0.068

> <Negative vol penalty>
0.000

$$$$

  -OEChem-04052304383D

 84 92  0     1  0  0  0  0  0999 V2000
  -25.7595  -30.9896   20.3807 C   0  0  0  0  0  0  0  0  0  0  0  0
  -25.7697  -29.8497   21.1782 C   0  0  0  0  0  0  0  0  0  0  0  0
  -22.6069  -12.0739   18.8115 C   0  0  0  0  0  0  0  0  0  0  0  0
  -22.8882  -10.1105   20.1908 C   0  0  0  0  0  0  0  0  0  0  0  0
  -24.6276  -31.8028   20.3434 C   0  0  0  0  0  0  0  0  0  0  0  0
  -24.6482  -29.5230   21.9397 C   0  0  0  0  0  0  0  0  0  0  0  0
  -23.4647  -24.6079   21.6452 C   0  0  0  0  0  0  0  0  0  0  0  0
  -21.5242  -11.4699   18.1724 C   0  0  0  0  0  0  0  0  0  0  0  0
  -21.8054   -9.5064   19.5518 C   0  0  0  0  0  0  0  0  0  0  0  0
  -24.2290  -23.7224   22.4039 C   0  0  0  0  0  0  0  0  0  0  0  0
  -18.2535  -10.9013   18.8144 C   0  0  0  0  0  0  0  0  0  0  0  0
  -17.1069  -11.6701   18.6157 C   0  0  0  0  0  0  0  0  0  0  0  0
  -22.4895  -23.6616   24.0741 C   0  0  0  0  0  0  0  0  0  0  0  0
  -17.3107  -11.3572   16.2287 C   0  0  0  0  0  0  0  0  0  0  0  0
  -30.2161  -19.2535   22.5109 C   0  0  0  0  0  0  0  0  0  0  0  0
  -23.2890  -11.3942   19.8207 C   0  0  0  0  0  0  0  0  0  0  0  0
  -24.3731  -12.8228   21.6348 C   0  0  0  0  0  0  0  0  0  0  0  0
  -23.4882  -31.4806   21.0974 C   0  0  0  0  0  0  0  0  0  0  0  0
  -22.2097  -25.0362   22.1013 C   0  0  0  0  0  0  0  0  0  0  0  0
  -23.5005  -30.3333   21.9135 C   0  0  0  0  0  0  0  0  0  0  0  0
  -21.7102  -24.5506   23.3181 C   0  0  0  0  0  0  0  0  0  0  0  0
  -21.1234  -10.1862   18.5425 C   0  0  0  0  0  0  0  0  0  0  0  0
  -23.7426  -23.2514   23.6199 C   0  0  0  0  0  0  0  0  0  0  0  0
  -18.9289  -10.3604   17.7203 C   0  0  0  0  0  0  0  0  0  0  0  0
  -16.6354  -11.8981   17.3228 C   0  0  0  0  0  0  0  0  0  0  0  0
  -18.4575  -10.5883   16.4275 C   0  0  0  0  0  0  0  0  0  0  0  0
  -24.4079  -12.0174   20.4808 C   0  0  0  0  0  0  0  0  0  0  0  0
  -29.8645  -18.0735   21.8896 C   0  0  0  0  0  0  0  0  0  0  0  0
  -25.6851  -13.1643   21.8549 C   0  0  0  0  0  0  0  0  0  0  0  0
  -28.0376  -19.4143   22.7063 C   0  0  0  0  0  0  0  0  0  0  0  0
  -23.2548  -13.2263   22.4363 C   0  0  0  0  0  0  0  0  0  0  0  0
  -30.7175  -17.0216   21.2791 C   0  0  0  0  0  0  0  0  0  0  0  0
  -20.9470  -27.8458   22.8855 C   0  0  0  0  0  0  0  0  0  0  0  0
  -18.2209  -26.1077   23.1494 C   0  0  0  0  0  0  0  0  0  0  0  0
  -16.7632  -23.0644   23.6595 C   0  0  0  0  0  0  0  0  0  0  0  0
  -26.3491  -21.0243   23.6519 C   0  0  0  0  0  0  0  0  0  0  0  0
  -30.6449  -14.8663   20.0654 C   0  0  0  0  0  0  0  0  0  0  0  0
  -22.3054  -32.4157   21.0612 C   0  0  0  0  0  0  0  0  0  0  0  0
  -21.3861  -25.9708   21.2584 C   0  0  0  0  0  0  0  0  0  0  0  0
  -20.3601  -24.9638   23.8426 C   0  0  0  0  0  0  0  0  0  0  0  0
  -21.0222  -31.7963   21.6089 C   0  0  0  0  0  0  0  0  0  0  0  0
  -29.9454  -11.4158   19.7462 C   0  0  0  0  0  0  0  0  0  0  0  0
  -21.2958  -31.0798   22.9274 C   0  0  0  0  0  0  0  0  0  0  0  0
  -28.4401  -11.3265   20.0114 C   0  0  0  0  0  0  0  0  0  0  0  0
  -30.3092  -12.6736   18.9585 C   0  0  0  0  0  0  0  0  0  0  0  0
  -28.3068  -13.8398   19.7883 C   0  0  0  0  0  0  0  0  0  0  0  0
  -22.2944  -29.9321   22.7348 C   0  0  1  0  0  0  0  0  0  0  0  0
  -20.3446  -26.7412   22.0641 C   0  0  1  0  0  0  0  0  0  0  0  0
  -27.8982  -12.6264   20.6391 C   0  0  1  0  0  0  0  0  0  0  0  0
  -14.5161  -21.9651   23.8587 C   0  0  0  0  0  0  0  0  0  0  0  0
  -17.9173  -27.2440   25.9649 C   0  0  0  0  0  0  0  0  0  0  0  0
  -16.2527  -25.4353   26.4402 C   0  0  0  0  0  0  0  0  0  0  0  0
  -15.7899  -27.1165   24.6564 C   0  0  0  0  0  0  0  0  0  0  0  0
  -17.2770  -21.3262   21.3200 C   0  0  0  0  0  0  0  0  0  0  0  0
  -24.2258  -20.0135   24.5907 C   0  0  0  0  0  0  0  0  0  0  0  0
  -17.5453  -25.3407   24.2604 C   0  0  1  0  0  0  0  0  0  0  0  0
  -15.6508  -22.3437   22.9196 C   0  0  2  0  0  0  0  0  0  0  0  0
  -24.8292  -21.1405   23.7593 C   0  0  1  0  0  0  0  0  0  1  0  0
  -16.9026  -26.2777   25.3218 C   0  0  0  0  0  0  0  0  0  0  0  0
  -29.1698  -20.0239   22.9795 N   0  0  0  0  0  0  0  0  0  0  0  0
  -25.6441  -11.8568   20.0011 N   0  0  0  0  0  0  0  0  0  0  0  0
  -26.3982  -12.5662   20.8579 N   0  0  0  0  0  0  0  0  0  0  0  0
  -19.5952  -25.8842   22.9851 N   0  0  0  0  0  0  0  0  0  0  0  0
  -29.7680  -13.8604   19.6234 N   0  0  0  0  0  0  0  0  0  0  0  0
  -26.2869  -13.9149   22.8019 N   0  0  0  0  0  0  0  0  0  0  0  0
  -21.9760  -12.7859   22.0688 N   0  0  0  0  0  0  0  0  0  0  0  0
  -26.7253  -19.8524   23.0044 N   0  0  0  0  0  0  0  0  0  0  0  0
  -30.0344  -15.9381   20.7261 N   0  0  0  0  0  0  0  0  0  0  0  0
  -21.6384  -28.7851   22.1444 N   0  0  0  0  0  0  0  0  0  0  0  0
  -16.6026  -24.4332   23.6154 N   0  0  0  0  0  0  0  0  0  0  0  0
  -16.1715  -21.0993   22.2861 N   0  3  0  0  0  0  0  0  0  0  0  0
  -23.3837  -13.9691   23.4388 O   0  0  0  0  0  0  0  0  0  0  0  0
  -31.9355  -17.1763   21.2591 O   0  0  0  0  0  0  0  0  0  0  0  0
  -20.7945  -27.8467   24.1014 O   0  0  0  0  0  0  0  0  0  0  0  0
  -17.5523  -26.8715   22.4485 O   0  0  0  0  0  0  0  0  0  0  0  0
  -17.6806  -22.4723   24.2236 O   0  0  0  0  0  0  0  0  0  0  0  0
  -27.0866  -21.9032   24.0887 O   0  0  0  0  0  0  0  0  0  0  0  0
  -31.8693  -14.7983   19.9187 O   0  0  0  0  0  0  0  0  0  0  0  0
  -24.1485  -18.8244   23.8116 O   0  0  0  0  0  0  0  0  0  0  0  0
  -20.0668   -9.5966   17.9193 O   0  0  0  0  0  0  0  0  0  0  0  0
  -24.4868  -22.3875   24.3627 O   0  0  0  0  0  0  0  0  0  1  0  0
  -15.5333  -12.6351   17.1322 F   0  0  0  0  0  0  0  0  0  0  0  0
  -19.1013  -10.0703   15.3725 F   0  0  0  0  0  0  0  0  0  0  0  0
  -28.1572  -17.9107   21.8880 S   0  0  0  0  0  0  0  0  0  0  0  0
  1  2  1  0  0  0  0
  1  5  2  0  0  0  0
  2  6  2  0  0  0  0
  3  8  2  0  0  0  0
  3 16  1  0  0  0  0
  4  9  1  0  0  0  0
  4 16  2  0  0  0  0
  5 18  1  0  0  0  0
  6 20  1  0  0  0  0
  7 10  2  0  0  0  0
  7 19  1  0  0  0  0
  8 22  1  0  0  0  0
  9 22  2  0  0  0  0
 10 23  1  0  0  0  0
 11 12  2  0  0  0  0
 11 24  1  0  0  0  0
 12 25  1  0  0  0  0
 13 21  1  0  0  0  0
 13 23  2  0  0  0  0
 14 25  2  0  0  0  0
 14 26  1  0  0  0  0
 15 28  2  0  0  0  0
 15 60  1  0  0  0  0
 16 27  1  0  0  0  0
 17 27  1  0  0  0  0
 17 29  2  0  0  0  0
 17 31  1  0  0  0  0
 18 20  2  0  0  0  0
 18 38  1  0  0  0  0
 19 21  2  0  0  0  0
 19 39  1  0  0  0  0
 20 47  1  0  0  0  0
 21 40  1  0  0  0  0
 22 80  1  0  0  0  0
 23 81  1  0  0  0  0
 24 26  2  0  0  0  0
 24 80  1  0  0  0  0
 25 82  1  0  0  0  0
 26 83  1  0  0  0  0
 27 61  2  0  0  0  0
 28 32  1  0  0  0  0
 28 84  1  0  0  0  0
 29 62  1  0  0  0  0
 29 65  1  0  0  0  0
 30 60  2  0  0  0  0
 30 67  1  0  0  0  0
 30 84  1  0  0  0  0
 31 66  1  0  0  0  0
 31 72  2  0  0  0  0
 32 68  1  0  0  0  0
 32 73  2  0  0  0  0
 33 48  1  0  0  0  0
 33 69  1  0  0  0  0
 33 74  2  0  0  0  0
 34 56  1  0  0  0  0
 34 63  1  0  0  0  0
 34 75  2  0  0  0  0
 35 57  1  0  0  0  0
 35 70  1  0  0  0  0
 35 76  2  0  0  0  0
 36 58  1  0  0  0  0
 36 67  1  0  0  0  0
 36 77  2  0  0  0  0
 37 64  1  0  0  0  0
 37 68  1  0  0  0  0
 37 78  2  0  0  0  0
 38 41  1  0  0  0  0
 39 48  1  0  0  0  0
 40 63  1  0  0  0  0
 41 43  1  0  0  0  0
 42 44  1  0  0  0  0
 42 45  1  0  0  0  0
 43 47  1  0  0  0  0
 44 49  1  0  0  0  0
 45 64  1  0  0  0  0
 46 49  1  0  0  0  0
 46 64  1  0  0  0  0
 47 69  1  0  0  0  0
 48 63  1  0  0  0  0
 49 62  1  0  0  0  0
 50 57  1  0  0  0  0
 51 59  1  0  0  0  0
 52 59  1  0  0  0  0
 53 59  1  0  0  0  0
 54 71  1  0  0  0  0
 55 58  1  0  0  0  0
 55 79  1  0  0  0  0
 56 59  1  0  0  0  0
 56 70  1  0  0  0  0
 57 71  1  0  0  0  0
 58 81  1  0  0  0  0
 61 62  1  0  0  0  0
M  CHG  1  71   1
M  ISO  4  37 100  58 101  68 100  81 101
M  END
> <Batch ID>
0176

> <Smiles>
CNC(C)C(=O)NC(C(=O)N1Cc2cc([101O:1][101CH:1](CO)C(=O)Nc3ncc(C(=O)[100NH:0][100C:0](=O)N4CCCC(n5nc(-c6ccc(Oc7ccc(F)cc7F)cc6)c(C(N)=O)c5N)C4)s3)ccc2CC1C(=O)NC1CCCc2ccccc21)C(C)(C)C

> <Shape>
0.206

> <Color>
0.107

> <Negative vol penalty>
0.000

$$$$

  -OEChem-04052304383D

 86 94  0     1  0  0  0  0  0999 V2000
  -26.7263  -33.6903   26.6317 C   0  0  0  0  0  0  0  0  0  0  0  0
  -27.1335  -32.5333   25.9752 C   0  0  0  0  0  0  0  0  0  0  0  0
  -22.4117  -11.3041   21.0900 C   0  0  0  0  0  0  0  0  0  0  0  0
  -24.6147  -12.2911   20.9914 C   0  0  0  0  0  0  0  0  0  0  0  0
  -25.3676  -33.9526   26.8014 C   0  0  0  0  0  0  0  0  0  0  0  0
  -26.1821  -31.6373   25.4890 C   0  0  0  0  0  0  0  0  0  0  0  0
  -27.2354  -30.0394   20.8005 C   0  0  0  0  0  0  0  0  0  0  0  0
  -22.9406  -10.0821   20.6746 C   0  0  0  0  0  0  0  0  0  0  0  0
  -25.1436  -11.0691   20.5761 C   0  0  0  0  0  0  0  0  0  0  0  0
  -28.2168  -29.0581   20.6677 C   0  0  0  0  0  0  0  0  0  0  0  0
  -23.9394   -8.6566   17.7772 C   0  0  0  0  0  0  0  0  0  0  0  0
  -23.2513   -7.9568   16.7861 C   0  0  0  0  0  0  0  0  0  0  0  0
  -26.4992  -27.3775   20.4567 C   0  0  0  0  0  0  0  0  0  0  0  0
  -22.9648   -6.0953   18.2994 C   0  0  0  0  0  0  0  0  0  0  0  0
  -23.2488  -12.4087   21.2483 C   0  0  0  0  0  0  0  0  0  0  0  0
  -22.5572  -14.1294   23.0000 C   0  0  0  0  0  0  0  0  0  0  0  0
  -24.3988  -33.0642   26.3085 C   0  0  0  0  0  0  0  0  0  0  0  0
  -25.8763  -29.6951   20.7732 C   0  0  0  0  0  0  0  0  0  0  0  0
  -24.8090  -31.8874   25.6535 C   0  0  0  0  0  0  0  0  0  0  0  0
  -25.5025  -28.3566   20.5867 C   0  0  0  0  0  0  0  0  0  0  0  0
  -24.3066   -9.9646   20.4177 C   0  0  0  0  0  0  0  0  0  0  0  0
  -27.8488  -27.7265   20.4987 C   0  0  0  0  0  0  0  0  0  0  0  0
  -24.1403   -8.0758   19.0295 C   0  0  0  0  0  0  0  0  0  0  0  0
  -22.7640   -6.6762   17.0472 C   0  0  0  0  0  0  0  0  0  0  0  0
  -23.6530   -6.7952   19.2905 C   0  0  0  0  0  0  0  0  0  0  0  0
  -25.4216  -22.3877   17.8663 C   0  0  0  0  0  0  0  0  0  0  0  0
  -24.1885  -21.6770   17.9322 C   0  0  0  0  0  0  0  0  0  0  0  0
  -22.7030  -13.6714   21.6768 C   0  0  0  0  0  0  0  0  0  0  0  0
  -26.4650  -21.6644   18.4009 C   0  0  0  0  0  0  0  0  0  0  0  0
  -21.9940  -15.3756   22.8719 C   0  0  0  0  0  0  0  0  0  0  0  0
  -24.3364  -20.4372   18.5146 C   0  0  0  0  0  0  0  0  0  0  0  0
  -22.9002  -13.4860   24.2345 C   0  0  0  0  0  0  0  0  0  0  0  0
  -27.8960  -22.0444   18.5229 C   0  0  0  0  0  0  0  0  0  0  0  0
  -23.4644  -29.9170   22.8317 C   0  0  0  0  0  0  0  0  0  0  0  0
  -29.7208  -25.0373   18.9451 C   0  0  0  0  0  0  0  0  0  0  0  0
  -21.7226  -28.8677   20.3043 C   0  0  0  0  0  0  0  0  0  0  0  0
  -21.6487  -27.1906   17.3331 C   0  0  0  0  0  0  0  0  0  0  0  0
  -22.0240  -19.4379   18.4899 C   0  0  0  0  0  0  0  0  0  0  0  0
  -22.9425  -33.3670   26.5576 C   0  0  0  0  0  0  0  0  0  0  0  0
  -24.8297  -30.7690   20.8911 C   0  0  0  0  0  0  0  0  0  0  0  0
  -24.0570  -27.9375   20.5302 C   0  0  0  0  0  0  0  0  0  0  0  0
  -21.9928  -32.5526   25.6829 C   0  0  0  0  0  0  0  0  0  0  0  0
  -19.1617  -17.9250   19.9715 C   0  0  0  0  0  0  0  0  0  0  0  0
  -22.4011  -31.0829   25.6764 C   0  0  0  0  0  0  0  0  0  0  0  0
  -19.7325  -16.7076   20.7024 C   0  0  0  0  0  0  0  0  0  0  0  0
  -19.8846  -18.1840   18.6509 C   0  0  0  0  0  0  0  0  0  0  0  0
  -21.9169  -17.0680   19.4836 C   0  0  0  0  0  0  0  0  0  0  0  0
  -23.8067  -30.9035   25.0901 C   0  0  1  0  0  0  0  0  0  0  0  0
  -23.4799  -30.2384   21.3640 C   0  0  1  0  0  0  0  0  0  0  0  0
  -21.2635  -16.8059   20.8504 C   0  0  2  0  0  0  0  0  0  0  0  0
  -30.0722  -24.0880   16.6456 C   0  0  0  0  0  0  0  0  0  0  0  0
  -20.0736  -26.4646   15.5194 C   0  0  0  0  0  0  0  0  0  0  0  0
  -20.6650  -26.6503   22.1139 C   0  0  0  0  0  0  0  0  0  0  0  0
  -19.8849  -25.4444   20.0631 C   0  0  0  0  0  0  0  0  0  0  0  0
  -18.9469  -27.6874   20.6215 C   0  0  0  0  0  0  0  0  0  0  0  0
  -23.0998  -28.7588   15.2851 C   0  0  0  0  0  0  0  0  0  0  0  0
  -28.4740  -25.6222   19.5837 C   0  0  0  0  0  0  0  0  0  1  0  0
  -29.5871  -23.7994   18.0581 C   0  0  2  0  0  0  0  0  0  0  0  0
  -21.3214  -27.5137   19.7709 C   0  0  1  0  0  0  0  0  0  0  0  0
  -21.0340  -27.5453   15.9912 C   0  0  2  0  0  0  0  0  0  0  0  0
  -20.2319  -26.8312   20.6453 C   0  0  0  0  0  0  0  0  0  0  0  0
  -22.2674  -14.5547   20.7745 N   0  0  0  0  0  0  0  0  0  0  0  0
  -21.8423  -15.5802   21.5320 N   0  0  0  0  0  0  0  0  0  0  0  0
  -23.0708  -29.0234   20.6565 N   0  0  0  0  0  0  0  0  0  0  0  0
  -21.3302  -18.2694   18.8694 N   0  0  0  0  0  0  0  0  0  0  0  0
  -21.6187  -16.3054   23.7758 N   0  0  0  0  0  0  0  0  0  0  0  0
  -23.4703  -12.2066   24.1852 N   0  0  0  0  0  0  0  0  0  0  0  0
  -23.3886  -19.4170   18.7764 N   0  0  0  0  0  0  0  0  0  0  0  0
  -28.2384  -23.2988   18.0337 N   0  0  0  0  0  0  0  0  0  0  0  0
  -23.7671  -30.9915   23.6461 N   0  0  0  0  0  0  0  0  0  0  0  0
  -20.9283  -27.7224   18.3815 N   0  0  0  0  0  0  0  0  0  0  0  0
  -22.0983  -27.7104   14.9612 N   0  3  0  0  0  0  0  0  0  0  0  0
  -22.6917  -14.0227   25.3489 O   0  0  0  0  0  0  0  0  0  0  0  0
  -28.6886  -21.2468   19.0169 O   0  0  0  0  0  0  0  0  0  0  0  0
  -23.1963  -28.7788   23.1982 O   0  0  0  0  0  0  0  0  0  0  0  0
  -30.8338  -25.5178   19.1765 O   0  0  0  0  0  0  0  0  0  0  0  0
  -20.8727  -29.7568   20.3982 O   0  0  0  0  0  0  0  0  0  0  0  0
  -22.6643  -26.5067   17.4406 O   0  0  0  0  0  0  0  0  0  0  0  0
  -21.4451  -20.3980   17.9751 O   0  0  0  0  0  0  0  0  0  0  0  0
  -24.8230   -8.7722   20.0126 O   0  0  0  0  0  0  0  0  0  0  0  0
  -28.8047  -26.7666   20.3695 O   0  0  0  0  0  0  0  0  0  1  0  0
  -22.1018   -6.0049   16.0959 F   0  0  0  0  0  0  0  0  0  0  0  0
  -23.8419   -6.2325   20.4920 F   0  0  0  0  0  0  0  0  0  0  0  0
  -25.5447  -23.6107   17.3465 F   0  0  0  0  0  0  0  0  0  0  0  0
  -23.0291  -22.1601   17.4812 F   0  0  0  0  0  0  0  0  0  0  0  0
  -25.9566  -20.1348   18.9790 S   0  0  0  0  0  0  0  0  0  0  0  0
  1  2  1  0  0  0  0
  1  5  2  0  0  0  0
  2  6  2  0  0  0  0
  3  8  2  0  0  0  0
  3 15  1  0  0  0  0
  4  9  1  0  0  0  0
  4 15  2  0  0  0  0
  5 17  1  0  0  0  0
  6 19  1  0  0  0  0
  7 10  2  0  0  0  0
  7 18  1  0  0  0  0
  8 21  1  0  0  0  0
  9 21  2  0  0  0  0
 10 22  1  0  0  0  0
 11 12  2  0  0  0  0
 11 23  1  0  0  0  0
 12 24  1  0  0  0  0
 13 20  1  0  0  0  0
 13 22  2  0  0  0  0
 14 24  2  0  0  0  0
 14 25  1  0  0  0  0
 15 28  1  0  0  0  0
 16 28  1  0  0  0  0
 16 30  2  0  0  0  0
 16 32  1  0  0  0  0
 17 19  2  0  0  0  0
 17 39  1  0  0  0  0
 18 20  2  0  0  0  0
 18 40  1  0  0  0  0
 19 48  1  0  0  0  0
 20 41  1  0  0  0  0
 21 80  1  0  0  0  0
 22 81  1  0  0  0  0
 23 25  2  0  0  0  0
 23 80  1  0  0  0  0
 24 82  1  0  0  0  0
 25 83  1  0  0  0  0
 26 27  1  0  0  0  0
 26 29  2  0  0  0  0
 26 84  1  0  0  0  0
 27 31  2  0  0  0  0
 27 85  1  0  0  0  0
 28 62  2  0  0  0  0
 29 33  1  0  0  0  0
 29 86  1  0  0  0  0
 30 63  1  0  0  0  0
 30 66  1  0  0  0  0
 31 68  1  0  0  0  0
 31 86  1  0  0  0  0
 32 67  1  0  0  0  0
 32 73  2  0  0  0  0
 33 69  1  0  0  0  0
 33 74  2  0  0  0  0
 34 49  1  0  0  0  0
 34 70  1  0  0  0  0
 34 75  2  0  0  0  0
 35 57  1  0  0  0  0
 35 58  1  0  0  0  0
 35 76  2  0  0  0  0
 36 59  1  0  0  0  0
 36 64  1  0  0  0  0
 36 77  2  0  0  0  0
 37 60  1  0  0  0  0
 37 71  1  0  0  0  0
 37 78  2  0  0  0  0
 38 65  1  0  0  0  0
 38 68  1  0  0  0  0
 38 79  2  0  0  0  0
 39 42  1  0  0  0  0
 40 49  1  0  0  0  0
 41 64  1  0  0  0  0
 42 44  1  0  0  0  0
 43 45  1  0  0  0  0
 43 46  1  0  0  0  0
 44 48  1  0  0  0  0
 45 50  1  0  0  0  0
 46 65  1  0  0  0  0
 47 50  1  0  0  0  0
 47 65  1  0  0  0  0
 48 70  1  0  0  0  0
 49 64  1  0  0  0  0
 50 63  1  0  0  0  0
 51 58  1  0  0  0  0
 52 60  1  0  0  0  0
 53 61  1  0  0  0  0
 54 61  1  0  0  0  0
 55 61  1  0  0  0  0
 56 72  1  0  0  0  0
 57 81  1  0  0  0  0
 58 69  1  0  0  0  0
 59 61  1  0  0  0  0
 59 71  1  0  0  0  0
 60 72  1  0  0  0  0
 62 63  1  0  0  0  0
M  CHG  1  72   1
M  ISO  4  38 100  57 101  68 100  81 101
M  END
> <Batch ID>
0176

> <Smiles>
CNC(C)C(=O)NC(C(=O)N1Cc2cc([101O:1][101CH2:1]C(=O)C(C)NC(=O)c3sc([100NH:0][100C:0](=O)N4CCCC(n5nc(-c6ccc(Oc7ccc(F)cc7F)cc6)c(C(N)=O)c5N)C4)c(F)c3F)ccc2CC1C(=O)NC1CCCc2ccccc21)C(C)(C)C

> <Shape>
0.208

> <Color>
0.087

> <Negative vol penalty>
0.000

$$$$

  -OEChem-04052304383D

 85 93  0     1  0  0  0  0  0999 V2000
  -28.7674  -35.1440   16.8883 C   0  0  0  0  0  0  0  0  0  0  0  0
  -28.9516  -33.9795   17.6268 C   0  0  0  0  0  0  0  0  0  0  0  0
  -22.6977  -11.6683   19.0418 C   0  0  0  0  0  0  0  0  0  0  0  0
  -22.9163  -10.2498   20.9853 C   0  0  0  0  0  0  0  0  0  0  0  0
  -27.7453  -36.0292   17.2282 C   0  0  0  0  0  0  0  0  0  0  0  0
  -28.1145  -33.7001   18.7065 C   0  0  0  0  0  0  0  0  0  0  0  0
  -26.5487  -28.8844   18.7555 C   0  0  0  0  0  0  0  0  0  0  0  0
  -21.6105  -10.9088   18.6097 C   0  0  0  0  0  0  0  0  0  0  0  0
  -21.8290   -9.4903   20.5533 C   0  0  0  0  0  0  0  0  0  0  0  0
  -27.4506  -27.9263   19.2163 C   0  0  0  0  0  0  0  0  0  0  0  0
  -21.2362   -7.0536   18.2857 C   0  0  0  0  0  0  0  0  0  0  0  0
  -21.3521   -5.6648   18.3432 C   0  0  0  0  0  0  0  0  0  0  0  0
  -26.3416  -27.9213   21.3585 C   0  0  0  0  0  0  0  0  0  0  0  0
  -19.4543   -5.5682   19.8352 C   0  0  0  0  0  0  0  0  0  0  0  0
  -28.2431  -19.6579   20.4500 C   0  0  0  0  0  0  0  0  0  0  0  0
  -23.3507  -11.3388   20.2296 C   0  0  0  0  0  0  0  0  0  0  0  0
  -24.4418  -13.2576   21.5084 C   0  0  0  0  0  0  0  0  0  0  0  0
  -26.8891  -35.7559   18.3065 C   0  0  0  0  0  0  0  0  0  0  0  0
  -25.5415  -29.3770   19.5977 C   0  0  0  0  0  0  0  0  0  0  0  0
  -27.0808  -34.5832   19.0619 C   0  0  0  0  0  0  0  0  0  0  0  0
  -25.4266  -28.8837   20.9052 C   0  0  0  0  0  0  0  0  0  0  0  0
  -21.1762   -9.8198   19.3654 C   0  0  0  0  0  0  0  0  0  0  0  0
  -27.3490  -27.4467   20.5189 C   0  0  0  0  0  0  0  0  0  0  0  0
  -20.2294   -7.6998   19.0030 C   0  0  0  0  0  0  0  0  0  0  0  0
  -20.4612   -4.9221   19.1179 C   0  0  0  0  0  0  0  0  0  0  0  0
  -19.3384   -6.9571   19.7777 C   0  0  0  0  0  0  0  0  0  0  0  0
  -28.6722  -18.3198   20.2142 C   0  0  0  0  0  0  0  0  0  0  0  0
  -24.4742  -12.1226   20.6762 C   0  0  0  0  0  0  0  0  0  0  0  0
  -30.0452  -18.2171   20.1687 C   0  0  0  0  0  0  0  0  0  0  0  0
  -25.7580  -13.6297   21.6330 C   0  0  0  0  0  0  0  0  0  0  0  0
  -29.3046  -20.5270   20.5760 C   0  0  0  0  0  0  0  0  0  0  0  0
  -27.9084  -25.1938   20.8052 C   0  0  0  0  0  0  0  0  0  1  0  0
  -23.3220  -13.9165   22.1147 C   0  0  0  0  0  0  0  0  0  0  0  0
  -30.8826  -17.0104   19.9467 C   0  0  0  0  0  0  0  0  0  0  0  0
  -28.6983  -24.1925   21.2115 C   0  0  0  0  0  0  0  0  0  0  0  0
  -28.2566  -22.7782   20.9813 C   0  0  0  0  0  0  0  0  0  0  0  0
  -24.8040  -32.2341   20.7796 C   0  0  0  0  0  0  0  0  0  0  0  0
  -22.1902  -30.6675   21.8915 C   0  0  0  0  0  0  0  0  0  0  0  0
  -20.7592  -27.7090   22.8115 C   0  0  0  0  0  0  0  0  0  0  0  0
  -30.7784  -14.5805   19.4905 C   0  0  0  0  0  0  0  0  0  0  0  0
  -25.8281  -36.7660   18.6652 C   0  0  0  0  0  0  0  0  0  0  0  0
  -24.5599  -30.3908   19.0770 C   0  0  0  0  0  0  0  0  0  0  0  0
  -24.3506  -29.3652   21.8427 C   0  0  0  0  0  0  0  0  0  0  0  0
  -24.7484  -36.2124   19.5915 C   0  0  0  0  0  0  0  0  0  0  0  0
  -30.0064  -11.2235   20.2855 C   0  0  0  0  0  0  0  0  0  0  0  0
  -25.3795  -35.4356   20.7426 C   0  0  0  0  0  0  0  0  0  0  0  0
  -28.4960  -11.2498   20.5351 C   0  0  0  0  0  0  0  0  0  0  0  0
  -30.4087  -12.1540   19.1421 C   0  0  0  0  0  0  0  0  0  0  0  0
  -28.4218  -13.5588   19.5119 C   0  0  0  0  0  0  0  0  0  0  0  0
  -26.1776  -34.2330   20.2246 C   0  0  1  0  0  0  0  0  0  0  0  0
  -23.8914  -31.1991   20.1848 C   0  0  1  0  0  0  0  0  0  0  0  0
  -27.9748  -12.6915   20.6998 C   0  0  1  0  0  0  0  0  0  0  0  0
  -18.6229  -26.7507   23.7144 C   0  0  0  0  0  0  0  0  0  0  0  0
  -22.8915  -31.7250   24.6664 C   0  0  0  0  0  0  0  0  0  0  0  0
  -21.3429  -30.0124   25.6342 C   0  0  0  0  0  0  0  0  0  0  0  0
  -20.4528  -31.7794   24.1149 C   0  0  0  0  0  0  0  0  0  0  0  0
  -20.3663  -26.0214   20.4122 C   0  0  0  0  0  0  0  0  0  0  0  0
  -21.8549  -29.9085   23.1526 C   0  0  1  0  0  0  0  0  0  0  0  0
  -19.4191  -27.0869   22.4631 C   0  0  2  0  0  0  0  0  0  0  0  0
  -21.6571  -30.8485   24.3752 C   0  0  0  0  0  0  0  0  0  0  0  0
  -25.7129  -11.7953   20.2986 N   0  0  0  0  0  0  0  0  0  0  0  0
  -26.4710  -12.7302   20.8963 N   0  0  0  0  0  0  0  0  0  0  0  0
  -23.4187  -30.3615   21.2890 N   0  0  0  0  0  0  0  0  0  0  0  0
  -29.8853  -13.5006   19.3785 N   0  0  0  0  0  0  0  0  0  0  0  0
  -26.3635  -14.6353   22.2998 N   0  0  0  0  0  0  0  0  0  0  0  0
  -22.0388  -13.4027   21.8831 N   0  0  0  0  0  0  0  0  0  0  0  0
  -29.3365  -21.9226   20.8121 N   0  0  0  0  0  0  0  0  0  0  0  0
  -30.1830  -15.8181   19.7585 N   0  0  0  0  0  0  0  0  0  0  0  0
  -25.2858  -33.1514   19.8653 N   0  0  0  0  0  0  0  0  0  0  0  0
  -20.6920  -29.0860   22.8370 N   0  0  0  0  0  0  0  0  0  0  0  0
  -19.6173  -25.8337   21.6813 N   0  3  0  0  0  0  0  0  0  0  0  0
  -23.4539  -14.9406   22.8270 O   0  0  0  0  0  0  0  0  0  0  0  0
  -32.1040  -17.1300   19.9023 O   0  0  0  0  0  0  0  0  0  0  0  0
  -27.0659  -22.4859   20.9582 O   0  0  0  0  0  0  0  0  0  0  0  0
  -25.0513  -32.2037   21.9794 O   0  0  0  0  0  0  0  0  0  0  0  0
  -21.3884  -31.4960   21.4531 O   0  0  0  0  0  0  0  0  0  0  0  0
  -21.7643  -27.0402   23.0419 O   0  0  0  0  0  0  0  0  0  0  0  0
  -32.0028  -14.4483   19.3981 O   0  0  0  0  0  0  0  0  0  0  0  0
  -29.9099  -24.4094   21.8358 O   0  0  0  0  0  0  0  0  0  0  0  0
  -20.1151   -9.0786   18.9442 O   0  0  0  0  0  0  0  0  0  0  0  0
  -28.2284  -26.5120   20.9714 O   0  0  0  0  0  0  0  0  0  1  0  0
  -20.5717   -3.5883   19.1718 F   0  0  0  0  0  0  0  0  0  0  0  0
  -18.3684   -7.5721   20.4681 F   0  0  0  0  0  0  0  0  0  0  0  0
  -27.8371  -17.2910   20.0566 F   0  0  0  0  0  0  0  0  0  0  0  0
  -30.8109  -19.7297   20.4098 S   0  0  0  0  0  0  0  0  0  0  0  0
  1  2  1  0  0  0  0
  1  5  2  0  0  0  0
  2  6  2  0  0  0  0
  3  8  2  0  0  0  0
  3 16  1  0  0  0  0
  4  9  1  0  0  0  0
  4 16  2  0  0  0  0
  5 18  1  0  0  0  0
  6 20  1  0  0  0  0
  7 10  2  0  0  0  0
  7 19  1  0  0  0  0
  8 22  1  0  0  0  0
  9 22  2  0  0  0  0
 10 23  1  0  0  0  0
 11 12  2  0  0  0  0
 11 24  1  0  0  0  0
 12 25  1  0  0  0  0
 13 21  1  0  0  0  0
 13 23  2  0  0  0  0
 14 25  2  0  0  0  0
 14 26  1  0  0  0  0
 15 27  1  0  0  0  0
 15 31  2  0  0  0  0
 16 28  1  0  0  0  0
 17 28  1  0  0  0  0
 17 30  2  0  0  0  0
 17 33  1  0  0  0  0
 18 20  2  0  0  0  0
 18 41  1  0  0  0  0
 19 21  2  0  0  0  0
 19 42  1  0  0  0  0
 20 50  1  0  0  0  0
 21 43  1  0  0  0  0
 22 80  1  0  0  0  0
 23 81  1  0  0  0  0
 24 26  2  0  0  0  0
 24 80  1  0  0  0  0
 25 82  1  0  0  0  0
 26 83  1  0  0  0  0
 27 29  2  0  0  0  0
 27 84  1  0  0  0  0
 28 61  2  0  0  0  0
 29 34  1  0  0  0  0
 29 85  1  0  0  0  0
 30 62  1  0  0  0  0
 30 65  1  0  0  0  0
 31 67  1  0  0  0  0
 31 85  1  0  0  0  0
 32 35  2  0  0  0  0
 32 81  1  0  0  0  0
 33 66  1  0  0  0  0
 33 72  2  0  0  0  0
 34 68  1  0  0  0  0
 34 73  2  0  0  0  0
 35 36  1  0  0  0  0
 35 79  1  0  0  0  0
 36 67  1  0  0  0  0
 36 74  2  0  0  0  0
 37 51  1  0  0  0  0
 37 69  1  0  0  0  0
 37 75  2  0  0  0  0
 38 58  1  0  0  0  0
 38 63  1  0  0  0  0
 38 76  2  0  0  0  0
 39 59  1  0  0  0  0
 39 70  1  0  0  0  0
 39 77  2  0  0  0  0
 40 64  1  0  0  0  0
 40 68  1  0  0  0  0
 40 78  2  0  0  0  0
 41 44  1  0  0  0  0
 42 51  1  0  0  0  0
 43 63  1  0  0  0  0
 44 46  1  0  0  0  0
 45 47  1  0  0  0  0
 45 48  1  0  0  0  0
 46 50  1  0  0  0  0
 47 52  1  0  0  0  0
 48 64  1  0  0  0  0
 49 52  1  0  0  0  0
 49 64  1  0  0  0  0
 50 69  1  0  0  0  0
 51 63  1  0  0  0  0
 52 62  1  0  0  0  0
 53 59  1  0  0  0  0
 54 60  1  0  0  0  0
 55 60  1  0  0  0  0
 56 60  1  0  0  0  0
 57 71  1  0  0  0  0
 58 60  1  0  0  0  0
 58 70  1  0  0  0  0
 59 71  1  0  0  0  0
 61 62  1  0  0  0  0
M  CHG  1  71   1
M  ISO  4  32 101  40 100  68 100  81 101
M  END
> <Batch ID>
0176

> <Smiles>
CNC(C)C(=O)NC(C(=O)N1Cc2cc([101O:1][101CH2:1]C(=O)C(=O)Nc3cc(F)c(C(=O)[100NH:0][100C:0](=O)N4CCCC(n5nc(-c6ccc(Oc7ccc(F)cc7F)cc6)c(C(N)=O)c5N)C4)s3)ccc2CC1C(=O)NC1CCCc2ccccc21)C(C)(C)C

> <Shape>
0.281

> <Color>
0.120

> <Negative vol penalty>
0.000

$$$$

  -OEChem-04052304383D

 89 97  0     1  0  0  0  0  0999 V2000
  -18.2503  -25.0569   21.1585 C   0  0  0  0  0  0  0  0  0  0  0  0
  -19.6358  -24.9320   21.1405 C   0  0  0  0  0  0  0  0  0  0  0  0
  -24.6113   -8.7015   20.7119 C   0  0  0  0  0  0  0  0  0  0  0  0
  -22.8432  -10.3286   20.4609 C   0  0  0  0  0  0  0  0  0  0  0  0
  -17.6637  -26.3170   21.0491 C   0  0  0  0  0  0  0  0  0  0  0  0
  -20.4354  -26.0672   21.0119 C   0  0  0  0  0  0  0  0  0  0  0  0
  -24.3427  -26.0660   24.2334 C   0  0  0  0  0  0  0  0  0  0  0  0
  -23.6749   -7.7440   21.1019 C   0  0  0  0  0  0  0  0  0  0  0  0
  -21.9067   -9.3712   20.8509 C   0  0  0  0  0  0  0  0  0  0  0  0
  -25.4373  -25.2668   23.9065 C   0  0  0  0  0  0  0  0  0  0  0  0
  -21.9384   -6.9503   23.8910 C   0  0  0  0  0  0  0  0  0  0  0  0
  -22.2450   -6.1580   24.9972 C   0  0  0  0  0  0  0  0  0  0  0  0
  -26.6004  -27.2100   23.0756 C   0  0  0  0  0  0  0  0  0  0  0  0
  -28.7770  -19.5965   19.2361 C   0  0  0  0  0  0  0  0  0  0  0  0
  -22.0991   -4.1785   23.6198 C   0  0  0  0  0  0  0  0  0  0  0  0
  -24.1955   -9.9938   20.3915 C   0  0  0  0  0  0  0  0  0  0  0  0
  -25.6020  -11.2596   18.6806 C   0  0  0  0  0  0  0  0  0  0  0  0
  -18.4567  -27.4691   20.9288 C   0  0  0  0  0  0  0  0  0  0  0  0
  -24.3646  -27.4438   23.9735 C   0  0  0  0  0  0  0  0  0  0  0  0
  -19.8588  -27.3437   20.8995 C   0  0  0  0  0  0  0  0  0  0  0  0
  -25.5058  -28.0249   23.4026 C   0  0  0  0  0  0  0  0  0  0  0  0
  -28.8508  -20.4835   18.1235 C   0  0  0  0  0  0  0  0  0  0  0  0
  -22.3226   -8.0789   21.1714 C   0  0  0  0  0  0  0  0  0  0  0  0
  -26.5652  -25.8382   23.3248 C   0  0  0  0  0  0  0  0  0  0  0  0
  -21.7121   -6.3568   22.6491 C   0  0  0  0  0  0  0  0  0  0  0  0
  -22.3254   -4.7721   24.8617 C   0  0  0  0  0  0  0  0  0  0  0  0
  -21.7925   -4.9708   22.5136 C   0  0  0  0  0  0  0  0  0  0  0  0
  -25.1624  -10.9834   19.9891 C   0  0  0  0  0  0  0  0  0  0  0  0
  -26.5141  -12.2753   18.8320 C   0  0  0  0  0  0  0  0  0  0  0  0
  -28.0227  -18.4782   18.9572 C   0  0  0  0  0  0  0  0  0  0  0  0
  -28.1502  -20.0090   17.0363 C   0  0  0  0  0  0  0  0  0  0  0  0
  -27.6728  -24.5011   21.7577 C   0  0  0  0  0  0  0  0  0  1  0  0
  -25.2200  -10.6523   17.4392 C   0  0  0  0  0  0  0  0  0  0  0  0
  -28.6375  -23.7105   21.2619 C   0  0  0  0  0  0  0  0  0  0  0  0
  -28.4795  -23.2045   19.8609 C   0  0  0  0  0  0  0  0  0  0  0  0
  -22.6489  -29.4120   22.1605 C   0  0  0  0  0  0  0  0  0  0  0  0
  -24.4352  -31.6901   23.6240 C   0  0  0  0  0  0  0  0  0  0  0  0
  -27.3166  -32.5041   25.2615 C   0  0  0  0  0  0  0  0  0  0  0  0
  -28.0766  -17.1236   21.0805 C   0  0  0  0  0  0  0  0  0  0  0  0
  -17.7761  -28.8051   20.7659 C   0  0  0  0  0  0  0  0  0  0  0  0
  -23.1862  -28.2965   24.3567 C   0  0  0  0  0  0  0  0  0  0  0  0
  -25.5873  -29.5024   23.1218 C   0  0  0  0  0  0  0  0  0  0  0  0
  -18.7020  -29.9941   21.0098 C   0  0  0  0  0  0  0  0  0  0  0  0
  -28.6580  -14.1828   23.0017 C   0  0  0  0  0  0  0  0  0  0  0  0
  -20.0254  -29.7993   20.2767 C   0  0  0  0  0  0  0  0  0  0  0  0
  -27.8366  -13.1110   22.2816 C   0  0  0  0  0  0  0  0  0  0  0  0
  -27.9547  -15.5389   22.9908 C   0  0  0  0  0  0  0  0  0  0  0  0
  -26.7210  -14.9420   20.9436 C   0  0  0  0  0  0  0  0  0  0  0  0
  -20.7604  -28.5538   20.7865 C   0  0  1  0  0  0  0  0  0  0  0  0
  -23.1163  -29.6050   23.5754 C   0  0  1  0  0  0  0  0  0  0  0  0
  -27.4185  -13.5737   20.8721 C   0  0  2  0  0  0  0  0  0  0  0  0
  -28.5084  -34.4525   26.3012 C   0  0  0  0  0  0  0  0  0  0  0  0
  -25.1752  -32.7161   20.8473 C   0  0  0  0  0  0  0  0  0  0  0  0
  -27.0537  -33.9958   21.8971 C   0  0  0  0  0  0  0  0  0  0  0  0
  -24.6944  -34.5056   22.5268 C   0  0  0  0  0  0  0  0  0  0  0  0
  -31.5028  -23.9669   16.8266 C   0  0  0  0  0  0  0  0  0  0  0  0
  -33.4184  -22.4766   17.4408 C   0  0  0  0  0  0  0  0  0  0  0  0
  -27.3232  -31.2249   27.9303 C   0  0  0  0  0  0  0  0  0  0  0  0
  -31.0782  -21.5936   17.6989 C   0  0  0  0  0  0  0  0  0  0  0  0
  -29.6171  -21.7930   18.1525 C   0  0  2  0  0  0  0  0  0  0  0  0
  -25.7575  -32.3597   23.3373 C   0  0  1  0  0  0  0  0  0  0  0  0
  -27.5626  -33.2857   26.5395 C   0  0  2  0  0  0  0  0  0  0  0  0
  -25.6682  -33.3661   22.1555 C   0  0  0  0  0  0  0  0  0  0  0  0
  -31.9700  -22.8500   17.7543 C   0  0  0  0  0  0  0  0  0  0  0  0
  -25.7471  -11.7608   20.9044 N   0  0  0  0  0  0  0  0  0  0  0  0
  -26.5636  -12.5354   20.1699 N   0  0  0  0  0  0  0  0  0  0  0  0
  -24.4072  -30.2930   23.5086 N   0  0  0  0  0  0  0  0  0  0  0  0
  -27.5923  -15.9141   21.6223 N   0  0  0  0  0  0  0  0  0  0  0  0
  -27.2705  -12.9623   17.9499 N   0  0  0  0  0  0  0  0  0  0  0  0
  -28.0197  -20.6081   15.8252 N   0  0  0  0  0  0  0  0  0  0  0  0
  -24.2697   -9.6224   17.4638 N   0  0  0  0  0  0  0  0  0  0  0  0
  -27.6931  -17.3585   19.7605 N   0  0  0  0  0  0  0  0  0  0  0  0
  -29.5339  -22.4014   19.4613 N   0  0  0  0  0  0  0  0  0  0  0  0
  -21.4007  -28.8287   22.0549 N   0  0  0  0  0  0  0  0  0  0  0  0
  -26.1958  -32.9533   24.5958 N   0  0  0  0  0  0  0  0  0  0  0  0
  -28.1594  -32.4019   27.5804 N   0  3  0  0  0  0  0  0  0  0  0  0
  -25.7190  -11.0012   16.3425 O   0  0  0  0  0  0  0  0  0  0  0  0
  -27.5078  -23.4913   19.1671 O   0  0  0  0  0  0  0  0  0  0  0  0
  -23.3670  -29.7673   21.2333 O   0  0  0  0  0  0  0  0  0  0  0  0
  -23.4649  -32.3805   23.9456 O   0  0  0  0  0  0  0  0  0  0  0  0
  -28.0480  -31.5893   24.8890 O   0  0  0  0  0  0  0  0  0  0  0  0
  -28.8021  -17.8811   21.7300 O   0  0  0  0  0  0  0  0  0  0  0  0
  -29.7659  -23.3339   21.9567 O   0  0  0  0  0  0  0  0  0  0  0  0
  -21.4086   -7.1448   21.5516 O   0  0  0  0  0  0  0  0  0  0  0  0
  -27.6347  -25.0603   23.0041 O   0  0  0  0  0  0  0  0  0  1  0  0
  -22.6213   -4.0115   25.9238 F   0  0  0  0  0  0  0  0  0  0  0  0
  -21.5773   -4.3949   21.3228 F   0  0  0  0  0  0  0  0  0  0  0  0
  -31.9531  -23.3368   19.0301 F   0  0  0  0  0  0  0  0  0  0  0  0
  -27.4074  -18.5004   17.3593 S   0  0  0  0  0  0  0  0  0  0  0  0
  1  2  1  0  0  0  0
  1  5  2  0  0  0  0
  2  6  2  0  0  0  0
  3  8  2  0  0  0  0
  3 16  1  0  0  0  0
  4  9  1  0  0  0  0
  4 16  2  0  0  0  0
  5 18  1  0  0  0  0
  6 20  1  0  0  0  0
  7 10  2  0  0  0  0
  7 19  1  0  0  0  0
  8 23  1  0  0  0  0
  9 23  2  0  0  0  0
 10 24  1  0  0  0  0
 11 12  2  0  0  0  0
 11 25  1  0  0  0  0
 12 26  1  0  0  0  0
 13 21  1  0  0  0  0
 13 24  2  0  0  0  0
 14 22  1  0  0  0  0
 14 30  2  0  0  0  0
 15 26  2  0  0  0  0
 15 27  1  0  0  0  0
 16 28  1  0  0  0  0
 17 28  1  0  0  0  0
 17 29  2  0  0  0  0
 17 33  1  0  0  0  0
 18 20  2  0  0  0  0
 18 40  1  0  0  0  0
 19 21  2  0  0  0  0
 19 41  1  0  0  0  0
 20 49  1  0  0  0  0
 21 42  1  0  0  0  0
 22 31  2  0  0  0  0
 22 60  1  0  0  0  0
 23 84  1  0  0  0  0
 24 85  1  0  0  0  0
 25 27  2  0  0  0  0
 25 84  1  0  0  0  0
 26 86  1  0  0  0  0
 27 87  1  0  0  0  0
 28 65  2  0  0  0  0
 29 66  1  0  0  0  0
 29 69  1  0  0  0  0
 30 72  1  0  0  0  0
 30 89  1  0  0  0  0
 31 70  1  0  0  0  0
 31 89  1  0  0  0  0
 32 34  2  0  0  0  0
 32 85  1  0  0  0  0
 33 71  1  0  0  0  0
 33 77  2  0  0  0  0
 34 35  1  0  0  0  0
 34 83  1  0  0  0  0
 35 73  1  0  0  0  0
 35 78  2  0  0  0  0
 36 50  1  0  0  0  0
 36 74  1  0  0  0  0
 36 79  2  0  0  0  0
 37 61  1  0  0  0  0
 37 67  1  0  0  0  0
 37 80  2  0  0  0  0
 38 62  1  0  0  0  0
 38 75  1  0  0  0  0
 38 81  2  0  0  0  0
 39 68  1  0  0  0  0
 39 72  1  0  0  0  0
 39 82  2  0  0  0  0
 40 43  1  0  0  0  0
 41 50  1  0  0  0  0
 42 67  1  0  0  0  0
 43 45  1  0  0  0  0
 44 46  1  0  0  0  0
 44 47  1  0  0  0  0
 45 49  1  0  0  0  0
 46 51  1  0  0  0  0
 47 68  1  0  0  0  0
 48 51  1  0  0  0  0
 48 68  1  0  0  0  0
 49 74  1  0  0  0  0
 50 67  1  0  0  0  0
 51 66  1  0  0  0  0
 52 62  1  0  0  0  0
 53 63  1  0  0  0  0
 54 63  1  0  0  0  0
 55 63  1  0  0  0  0
 56 64  1  0  0  0  0
 57 64  1  0  0  0  0
 58 76  1  0  0  0  0
 59 60  1  0  0  0  0
 59 64  1  0  0  0  0
 60 73  1  0  0  0  0
 61 63  1  0  0  0  0
 61 75  1  0  0  0  0
 62 76  1  0  0  0  0
 64 88  1  0  0  0  0
 65 66  1  0  0  0  0
M  CHG  1  76   1
M  ISO  4  32 101  39 100  72 100  85 101
M  END
> <Batch ID>
0176

> <Smiles>
CNC(C)C(=O)NC(C(=O)N1Cc2cc([101O:1][101CH2:1]C(=O)C(=O)NC(CC(C)(C)F)c3cc([100NH:0][100C:0](=O)N4CCCC(n5nc(-c6ccc(Oc7ccc(F)cc7F)cc6)c(C(N)=O)c5N)C4)sc3N)ccc2CC1C(=O)NC1CCCc2ccccc21)C(C)(C)C

> <Shape>
0.295

> <Color>
0.098

> <Negative vol penalty>
0.000

$$$$

  -OEChem-04052304383D

 90 98  0     1  0  0  0  0  0999 V2000
  -24.9062  -32.0755   13.6191 C   0  0  0  0  0  0  0  0  0  0  0  0
  -25.4504  -31.0274   14.3545 C   0  0  0  0  0  0  0  0  0  0  0  0
  -23.2117   -9.8078   21.1601 C   0  0  0  0  0  0  0  0  0  0  0  0
  -23.9304  -10.5689   23.3376 C   0  0  0  0  0  0  0  0  0  0  0  0
  -25.0739  -33.3902   14.0521 C   0  0  0  0  0  0  0  0  0  0  0  0
  -26.1637  -31.2936   15.5228 C   0  0  0  0  0  0  0  0  0  0  0  0
  -24.8988  -28.1915   19.3205 C   0  0  0  0  0  0  0  0  0  0  0  0
  -22.5217   -8.7526   21.7566 C   0  0  0  0  0  0  0  0  0  0  0  0
  -23.2403   -9.5136   23.9341 C   0  0  0  0  0  0  0  0  0  0  0  0
  -25.4334  -26.9041   19.2960 C   0  0  0  0  0  0  0  0  0  0  0  0
  -23.2527   -5.7248   23.0691 C   0  0  0  0  0  0  0  0  0  0  0  0
  -23.3868   -4.4590   22.4987 C   0  0  0  0  0  0  0  0  0  0  0  0
  -27.1100  -27.5764   20.8948 C   0  0  0  0  0  0  0  0  0  0  0  0
  -21.0034   -4.3815   22.1104 C   0  0  0  0  0  0  0  0  0  0  0  0
  -23.9161  -10.7160   21.9506 C   0  0  0  0  0  0  0  0  0  0  0  0
  -24.1343  -13.0924   21.0489 C   0  0  0  0  0  0  0  0  0  0  0  0
  -25.7813  -33.6719   15.2314 C   0  0  0  0  0  0  0  0  0  0  0  0
  -25.4734  -29.1856   20.1254 C   0  0  0  0  0  0  0  0  0  0  0  0
  -26.3421  -32.6134   15.9712 C   0  0  0  0  0  0  0  0  0  0  0  0
  -26.5792  -28.8749   20.9297 C   0  0  0  0  0  0  0  0  0  0  0  0
  -22.5360   -8.6055   23.1436 C   0  0  0  0  0  0  0  0  0  0  0  0
  -26.5409  -26.5971   20.0810 C   0  0  0  0  0  0  0  0  0  0  0  0
  -21.9939   -6.3189   23.1602 C   0  0  0  0  0  0  0  0  0  0  0  0
  -22.2622   -3.7874   22.0193 C   0  0  0  0  0  0  0  0  0  0  0  0
  -20.8693   -5.6473   22.6809 C   0  0  0  0  0  0  0  0  0  0  0  0
  -31.5224  -19.5132   20.6850 C   0  0  0  0  0  0  0  0  0  0  0  0
  -31.5087  -18.1080   20.4497 C   0  0  0  0  0  0  0  0  0  0  0  0
  -24.6295  -11.8060   21.3349 C   0  0  0  0  0  0  0  0  0  0  0  0
  -30.3495  -19.9534   21.2577 C   0  0  0  0  0  0  0  0  0  0  0  0
  -25.1941  -13.7476   20.4710 C   0  0  0  0  0  0  0  0  0  0  0  0
  -30.3258  -17.5276   20.8519 C   0  0  0  0  0  0  0  0  0  0  0  0
  -22.8327  -13.6455   21.2847 C   0  0  0  0  0  0  0  0  0  0  0  0
  -29.9676  -21.3327   21.6561 C   0  0  0  0  0  0  0  0  0  0  0  0
  -26.8610  -31.9922   19.5765 C   0  0  0  0  0  0  0  0  0  0  0  0
  -27.5624  -23.3750   21.3836 C   0  0  0  0  0  0  0  0  0  0  0  0
  -26.8476  -32.1924   22.8141 C   0  0  0  0  0  0  0  0  0  0  0  0
  -26.7648  -30.5723   25.8166 C   0  0  0  0  0  0  0  0  0  0  0  0
  -30.5979  -15.0811   20.3164 C   0  0  0  0  0  0  0  0  0  0  0  0
  -25.9769  -35.1121   15.6341 C   0  0  0  0  0  0  0  0  0  0  0  0
  -24.8685  -30.5623   20.1609 C   0  0  0  0  0  0  0  0  0  0  0  0
  -27.2207  -29.9008   21.8266 C   0  0  0  0  0  0  0  0  0  0  0  0
  -26.4257  -35.2839   17.0830 C   0  0  0  0  0  0  0  0  0  0  0  0
  -29.6458  -11.9947   18.8183 C   0  0  0  0  0  0  0  0  0  0  0  0
  -27.5585  -34.3158   17.4093 C   0  0  0  0  0  0  0  0  0  0  0  0
  -28.2151  -11.7762   19.3159 C   0  0  0  0  0  0  0  0  0  0  0  0
  -30.5274  -12.6341   19.8895 C   0  0  0  0  0  0  0  0  0  0  0  0
  -28.5632  -13.6516   20.9739 C   0  0  0  0  0  0  0  0  0  0  0  0
  -27.1011  -32.8601   17.2570 C   0  0  1  0  0  0  0  0  0  0  0  0
  -25.8490  -31.6339   20.6277 C   0  0  1  0  0  0  0  0  0  0  0  0
  -27.6208  -13.0693   19.9079 C   0  0  2  0  0  0  0  0  0  0  0  0
  -26.8048  -31.0021   28.2887 C   0  0  0  0  0  0  0  0  0  0  0  0
  -28.4903  -21.3204   25.4365 C   0  0  0  0  0  0  0  0  0  0  0  0
  -28.5505  -23.8163   25.4310 C   0  0  0  0  0  0  0  0  0  0  0  0
  -26.5033  -22.6291   26.2243 C   0  0  0  0  0  0  0  0  0  0  0  0
  -29.8453  -32.7425   22.6675 C   0  0  0  0  0  0  0  0  0  0  0  0
  -29.9900  -32.2201   25.1118 C   0  0  0  0  0  0  0  0  0  0  0  0
  -28.6076  -34.1433   24.3290 C   0  0  0  0  0  0  0  0  0  0  0  0
  -24.1016  -29.3373   26.1918 C   0  0  0  0  0  0  0  0  0  0  0  0
  -27.6970  -24.8800   21.2518 C   0  0  0  0  0  0  0  0  0  1  0  0
  -27.1263  -22.6429   23.7369 C   0  0  0  0  0  0  0  0  0  0  0  0
  -28.1822  -22.7540   22.6299 C   0  0  1  0  0  0  0  0  0  0  0  0
  -27.7974  -31.7845   23.9143 C   0  0  1  0  0  0  0  0  0  0  0  0
  -25.9281  -30.8018   27.0623 C   0  0  2  0  0  0  0  0  0  0  0  0
  -27.6481  -22.5864   25.2008 C   0  0  0  0  0  0  0  0  0  0  0  0
  -29.0494  -32.7035   23.9874 C   0  0  0  0  0  0  0  0  0  0  0  0
  -25.9046  -11.6512   20.9687 N   0  0  0  0  0  0  0  0  0  0  0  0
  -26.2196  -12.8488   20.4466 N   0  0  0  0  0  0  0  0  0  0  0  0
  -26.5967  -31.2343   21.8216 N   0  0  0  0  0  0  0  0  0  0  0  0
  -29.9029  -13.8561   20.4009 N   0  0  0  0  0  0  0  0  0  0  0  0
  -25.3395  -14.9992   19.9864 N   0  0  0  0  0  0  0  0  0  0  0  0
  -21.8614  -12.8349   21.8878 N   0  0  0  0  0  0  0  0  0  0  0  0
  -29.8914  -16.1797   20.8047 N   0  0  0  0  0  0  0  0  0  0  0  0
  -28.7048  -21.4788   22.2165 N   0  0  0  0  0  0  0  0  0  0  0  0
  -26.3080  -32.4574   18.3986 N   0  0  0  0  0  0  0  0  0  0  0  0
  -27.0094  -31.7495   25.1416 N   0  0  0  0  0  0  0  0  0  0  0  0
  -25.0350  -29.6345   27.3087 N   0  3  0  0  0  0  0  0  0  0  0  0
  -22.5348  -14.8186   20.9549 O   0  0  0  0  0  0  0  0  0  0  0  0
  -30.7550  -22.2543   21.4578 O   0  0  0  0  0  0  0  0  0  0  0  0
  -28.0551  -31.8581   19.8168 O   0  0  0  0  0  0  0  0  0  0  0  0
  -26.9568  -22.7034   20.5480 O   0  0  0  0  0  0  0  0  0  0  0  0
  -26.3413  -33.3169   22.8383 O   0  0  0  0  0  0  0  0  0  0  0  0
  -27.1648  -29.4605   25.4784 O   0  0  0  0  0  0  0  0  0  0  0  0
  -31.7252  -15.1548   19.8206 O   0  0  0  0  0  0  0  0  0  0  0  0
  -21.8626   -7.5760   23.7261 O   0  0  0  0  0  0  0  0  0  0  0  0
  -27.0651  -25.3415   20.0585 O   0  0  0  0  0  0  0  0  0  1  0  0
  -22.3913   -2.5725   21.4701 F   0  0  0  0  0  0  0  0  0  0  0  0
  -19.6576   -6.2135   22.7646 F   0  0  0  0  0  0  0  0  0  0  0  0
  -32.5539  -20.3046   20.3834 F   0  0  0  0  0  0  0  0  0  0  0  0
  -32.5252  -17.4375   19.9036 F   0  0  0  0  0  0  0  0  0  0  0  0
  -29.2382  -18.6752   21.5097 S   0  0  0  0  0  0  0  0  0  0  0  0
  1  2  1  0  0  0  0
  1  5  2  0  0  0  0
  2  6  2  0  0  0  0
  3  8  2  0  0  0  0
  3 15  1  0  0  0  0
  4  9  1  0  0  0  0
  4 15  2  0  0  0  0
  5 17  1  0  0  0  0
  6 19  1  0  0  0  0
  7 10  2  0  0  0  0
  7 18  1  0  0  0  0
  8 21  1  0  0  0  0
  9 21  2  0  0  0  0
 10 22  1  0  0  0  0
 11 12  2  0  0  0  0
 11 23  1  0  0  0  0
 12 24  1  0  0  0  0
 13 20  1  0  0  0  0
 13 22  2  0  0  0  0
 14 24  2  0  0  0  0
 14 25  1  0  0  0  0
 15 28  1  0  0  0  0
 16 28  1  0  0  0  0
 16 30  2  0  0  0  0
 16 32  1  0  0  0  0
 17 19  2  0  0  0  0
 17 39  1  0  0  0  0
 18 20  2  0  0  0  0
 18 40  1  0  0  0  0
 19 48  1  0  0  0  0
 20 41  1  0  0  0  0
 21 84  1  0  0  0  0
 22 85  1  0  0  0  0
 23 25  2  0  0  0  0
 23 84  1  0  0  0  0
 24 86  1  0  0  0  0
 25 87  1  0  0  0  0
 26 27  1  0  0  0  0
 26 29  2  0  0  0  0
 26 88  1  0  0  0  0
 27 31  2  0  0  0  0
 27 89  1  0  0  0  0
 28 66  2  0  0  0  0
 29 33  1  0  0  0  0
 29 90  1  0  0  0  0
 30 67  1  0  0  0  0
 30 70  1  0  0  0  0
 31 72  1  0  0  0  0
 31 90  1  0  0  0  0
 32 71  1  0  0  0  0
 32 77  2  0  0  0  0
 33 73  1  0  0  0  0
 33 78  2  0  0  0  0
 34 49  1  0  0  0  0
 34 74  1  0  0  0  0
 34 79  2  0  0  0  0
 35 59  1  0  0  0  0
 35 61  1  0  0  0  0
 35 80  2  0  0  0  0
 36 62  1  0  0  0  0
 36 68  1  0  0  0  0
 36 81  2  0  0  0  0
 37 63  1  0  0  0  0
 37 75  1  0  0  0  0
 37 82  2  0  0  0  0
 38 69  1  0  0  0  0
 38 72  1  0  0  0  0
 38 83  2  0  0  0  0
 39 42  1  0  0  0  0
 40 49  1  0  0  0  0
 41 68  1  0  0  0  0
 42 44  1  0  0  0  0
 43 45  1  0  0  0  0
 43 46  1  0  0  0  0
 44 48  1  0  0  0  0
 45 50  1  0  0  0  0
 46 69  1  0  0  0  0
 47 50  1  0  0  0  0
 47 69  1  0  0  0  0
 48 74  1  0  0  0  0
 49 68  1  0  0  0  0
 50 67  1  0  0  0  0
 51 63  1  0  0  0  0
 52 64  1  0  0  0  0
 53 64  1  0  0  0  0
 54 64  1  0  0  0  0
 55 65  1  0  0  0  0
 56 65  1  0  0  0  0
 57 65  1  0  0  0  0
 58 76  1  0  0  0  0
 59 85  1  0  0  0  0
 60 61  1  0  0  0  0
 60 64  1  0  0  0  0
 61 73  1  0  0  0  0
 62 65  1  0  0  0  0
 62 75  1  0  0  0  0
 63 76  1  0  0  0  0
 66 67  1  0  0  0  0
M  CHG  1  76   1
M  ISO  4  38 100  59 101  72 100  85 101
M  END
> <Batch ID>
0176

> <Smiles>
CNC(C)C(=O)NC(C(=O)N1Cc2cc([101O:1][101CH2:1]C(=O)C(CC(C)(C)C)NC(=O)c3sc([100NH:0][100C:0](=O)N4CCCC(n5nc(-c6ccc(Oc7ccc(F)cc7F)cc6)c(C(N)=O)c5N)C4)c(F)c3F)ccc2CC1C(=O)NC1CCCc2ccccc21)C(C)(C)C

> <Shape>
0.293

> <Color>
0.170

> <Negative vol penalty>
0.000

$$$$

  -OEChem-04052304383D

 86 94  0     1  0  0  0  0  0999 V2000
  -29.2259  -30.9006   26.9845 C   0  0  0  0  0  0  0  0  0  0  0  0
  -28.8171  -29.9450   26.0597 C   0  0  0  0  0  0  0  0  0  0  0  0
  -24.3179   -8.6025   21.4420 C   0  0  0  0  0  0  0  0  0  0  0  0
  -24.6512  -10.0660   23.3352 C   0  0  0  0  0  0  0  0  0  0  0  0
  -28.3184  -31.8507   27.4509 C   0  0  0  0  0  0  0  0  0  0  0  0
  -27.5001  -29.9383   25.6017 C   0  0  0  0  0  0  0  0  0  0  0  0
  -27.1912  -29.3207   20.5849 C   0  0  0  0  0  0  0  0  0  0  0  0
  -23.9346   -7.5749   22.3038 C   0  0  0  0  0  0  0  0  0  0  0  0
  -24.2678   -9.0384   24.1970 C   0  0  0  0  0  0  0  0  0  0  0  0
  -27.3620  -28.0283   20.0908 C   0  0  0  0  0  0  0  0  0  0  0  0
  -21.1783   -6.6851   24.0485 C   0  0  0  0  0  0  0  0  0  0  0  0
  -20.0474   -5.9425   23.7091 C   0  0  0  0  0  0  0  0  0  0  0  0
  -29.7411  -19.9199   19.9796 C   0  0  0  0  0  0  0  0  0  0  0  0
  -24.9691  -27.7933   19.8951 C   0  0  0  0  0  0  0  0  0  0  0  0
  -21.3872   -3.9330   23.6423 C   0  0  0  0  0  0  0  0  0  0  0  0
  -24.6763   -9.8481   21.9577 C   0  0  0  0  0  0  0  0  0  0  0  0
  -30.0843  -18.5633   19.7115 C   0  0  0  0  0  0  0  0  0  0  0  0
  -24.2392  -11.8737   20.4699 C   0  0  0  0  0  0  0  0  0  0  0  0
  -26.9921  -31.8616   26.9910 C   0  0  0  0  0  0  0  0  0  0  0  0
  -25.9054  -29.8561   20.7484 C   0  0  0  0  0  0  0  0  0  0  0  0
  -26.5736  -30.8886   26.0634 C   0  0  0  0  0  0  0  0  0  0  0  0
  -24.7848  -29.0937   20.3891 C   0  0  0  0  0  0  0  0  0  0  0  0
  -23.9095   -7.7928   23.6813 C   0  0  0  0  0  0  0  0  0  0  0  0
  -26.2508  -27.2633   19.7485 C   0  0  0  0  0  0  0  0  0  0  0  0
  -22.4136   -6.0518   24.1847 C   0  0  0  0  0  0  0  0  0  0  0  0
  -20.1518   -4.5664   23.5060 C   0  0  0  0  0  0  0  0  0  0  0  0
  -22.5180   -4.6758   23.9817 C   0  0  0  0  0  0  0  0  0  0  0  0
  -25.0729  -10.9098   21.0680 C   0  0  0  0  0  0  0  0  0  0  0  0
  -25.0918  -12.6484   19.7220 C   0  0  0  0  0  0  0  0  0  0  0  0
  -28.3778  -20.1046   20.0495 C   0  0  0  0  0  0  0  0  0  0  0  0
  -28.9701  -17.7627   19.5870 C   0  0  0  0  0  0  0  0  0  0  0  0
  -31.4286  -18.0623   19.5816 C   0  0  0  0  0  0  0  0  0  0  0  0
  -22.8210  -12.0528   20.5806 C   0  0  0  0  0  0  0  0  0  0  0  0
  -26.9841  -23.5318   20.7348 C   0  0  0  0  0  0  0  0  0  0  0  0
  -28.0921  -22.5427   20.5150 C   0  0  0  0  0  0  0  0  0  0  0  0
  -24.2069  -30.8957   23.2259 C   0  0  0  0  0  0  0  0  0  0  0  0
  -22.0999  -31.7658   20.9180 C   0  0  0  0  0  0  0  0  0  0  0  0
  -20.9117  -31.2961   17.7535 C   0  0  0  0  0  0  0  0  0  0  0  0
  -29.8642  -15.4536   19.1232 C   0  0  0  0  0  0  0  0  0  0  0  0
  -26.0349  -32.8790   27.5597 C   0  0  0  0  0  0  0  0  0  0  0  0
  -25.7391  -31.2616   21.2575 C   0  0  0  0  0  0  0  0  0  0  0  0
  -23.3839  -29.6296   20.5266 C   0  0  0  0  0  0  0  0  0  0  0  0
  -24.7555  -33.0355   26.7418 C   0  0  0  0  0  0  0  0  0  0  0  0
  -29.9516  -11.9509   18.4901 C   0  0  0  0  0  0  0  0  0  0  0  0
  -24.1792  -31.6689   26.3855 C   0  0  0  0  0  0  0  0  0  0  0  0
  -28.6215  -11.4471   19.0552 C   0  0  0  0  0  0  0  0  0  0  0  0
  -30.5415  -13.0728   19.3429 C   0  0  0  0  0  0  0  0  0  0  0  0
  -28.3045  -13.6946   20.1666 C   0  0  0  0  0  0  0  0  0  0  0  0
  -25.1598  -30.8641   25.5241 C   0  0  1  0  0  0  0  0  0  0  0  0
  -24.3643  -31.5176   21.8671 C   0  0  1  0  0  0  0  0  0  0  0  0
  -27.6395  -12.6084   19.3054 C   0  0  2  0  0  0  0  0  0  0  0  0
  -32.2985  -18.6441   18.4964 C   0  0  0  0  0  0  0  0  0  0  0  0
  -19.1592  -32.1310   16.1632 C   0  0  0  0  0  0  0  0  0  0  0  0
  -19.9712  -30.2048   22.4482 C   0  0  0  0  0  0  0  0  0  0  0  0
  -18.5452  -30.2688   20.3913 C   0  0  0  0  0  0  0  0  0  0  0  0
  -19.1953  -32.3948   21.5228 C   0  0  0  0  0  0  0  0  0  0  0  0
  -22.9460  -32.1908   15.7990 C   0  0  0  0  0  0  0  0  0  0  0  0
  -25.9694  -23.6624   19.6202 C   0  0  0  0  0  0  0  0  0  0  0  0
  -25.3768  -25.0612   19.5414 C   0  0  0  0  0  0  0  0  0  1  0  0
  -20.9360  -31.0982   20.2263 C   0  0  1  0  0  0  0  0  0  0  0  0
  -20.5958  -32.2784   16.6400 C   0  0  2  0  0  0  0  0  0  0  0  0
  -19.6881  -30.9805   21.1463 C   0  0  0  0  0  0  0  0  0  0  0  0
  -26.3565  -11.0566   20.7292 N   0  0  0  0  0  0  0  0  0  0  0  0
  -26.3358  -12.1218   19.9100 N   0  0  0  0  0  0  0  0  0  0  0  0
  -23.2730  -31.0069   21.0348 N   0  0  0  0  0  0  0  0  0  0  0  0
  -29.5563  -14.1394   19.5342 N   0  0  0  0  0  0  0  0  0  0  0  0
  -24.8913  -13.7219   18.9284 N   0  0  0  0  0  0  0  0  0  0  0  0
  -22.0970  -11.1678   21.3911 N   0  0  0  0  0  0  0  0  0  0  0  0
  -27.6134  -21.2698   20.2916 N   0  0  0  0  0  0  0  0  0  0  0  0
  -28.8384  -16.3763   19.3255 N   0  0  0  0  0  0  0  0  0  0  0  0
  -25.1318  -31.3324   24.1550 N   0  0  0  0  0  0  0  0  0  0  0  0
  -20.7043  -31.8513   18.9985 N   0  0  0  0  0  0  0  0  0  0  0  0
  -21.5019  -32.0536   15.4784 N   0  3  0  0  0  0  0  0  0  0  0  0
  -31.9400  -17.1801   20.2885 O   0  0  0  0  0  0  0  0  0  0  0  0
  -22.2115  -12.9603   19.9655 O   0  0  0  0  0  0  0  0  0  0  0  0
  -26.9806  -24.1420   21.7932 O   0  0  0  0  0  0  0  0  0  0  0  0
  -29.2294  -22.9831   20.5356 O   0  0  0  0  0  0  0  0  0  0  0  0
  -23.3116  -30.0812   23.4175 O   0  0  0  0  0  0  0  0  0  0  0  0
  -21.9752  -32.9208   21.3329 O   0  0  0  0  0  0  0  0  0  0  0  0
  -21.2998  -30.1497   17.5401 O   0  0  0  0  0  0  0  0  0  0  0  0
  -30.9473  -15.7339   18.6032 O   0  0  0  0  0  0  0  0  0  0  0  0
  -23.5352   -6.7904   24.5225 O   0  0  0  0  0  0  0  0  0  0  0  0
  -26.4147  -26.0012   19.2666 O   0  0  0  0  0  0  0  0  0  1  0  0
  -19.0655   -3.8531   23.1816 F   0  0  0  0  0  0  0  0  0  0  0  0
  -23.7019   -4.0615   24.1123 F   0  0  0  0  0  0  0  0  0  0  0  0
  -27.5178  -18.6463   19.7927 S   0  0  0  0  0  0  0  0  0  0  0  0
  1  2  1  0  0  0  0
  1  5  2  0  0  0  0
  2  6  2  0  0  0  0
  3  8  2  0  0  0  0
  3 16  1  0  0  0  0
  4  9  1  0  0  0  0
  4 16  2  0  0  0  0
  5 19  1  0  0  0  0
  6 21  1  0  0  0  0
  7 10  2  0  0  0  0
  7 20  1  0  0  0  0
  8 23  1  0  0  0  0
  9 23  2  0  0  0  0
 10 24  1  0  0  0  0
 11 12  2  0  0  0  0
 11 25  1  0  0  0  0
 12 26  1  0  0  0  0
 13 17  1  0  0  0  0
 13 30  2  0  0  0  0
 14 22  1  0  0  0  0
 14 24  2  0  0  0  0
 15 26  2  0  0  0  0
 15 27  1  0  0  0  0
 16 28  1  0  0  0  0
 17 31  2  0  0  0  0
 17 32  1  0  0  0  0
 18 28  1  0  0  0  0
 18 29  2  0  0  0  0
 18 33  1  0  0  0  0
 19 21  2  0  0  0  0
 19 40  1  0  0  0  0
 20 22  2  0  0  0  0
 20 41  1  0  0  0  0
 21 49  1  0  0  0  0
 22 42  1  0  0  0  0
 23 82  1  0  0  0  0
 24 83  1  0  0  0  0
 25 27  2  0  0  0  0
 25 82  1  0  0  0  0
 26 84  1  0  0  0  0
 27 85  1  0  0  0  0
 28 63  2  0  0  0  0
 29 64  1  0  0  0  0
 29 67  1  0  0  0  0
 30 69  1  0  0  0  0
 30 86  1  0  0  0  0
 31 70  1  0  0  0  0
 31 86  1  0  0  0  0
 32 52  1  0  0  0  0
 32 74  2  0  0  0  0
 33 68  1  0  0  0  0
 33 75  2  0  0  0  0
 34 35  1  0  0  0  0
 34 58  1  0  0  0  0
 34 76  2  0  0  0  0
 35 69  1  0  0  0  0
 35 77  2  0  0  0  0
 36 50  1  0  0  0  0
 36 71  1  0  0  0  0
 36 78  2  0  0  0  0
 37 60  1  0  0  0  0
 37 65  1  0  0  0  0
 37 79  2  0  0  0  0
 38 61  1  0  0  0  0
 38 72  1  0  0  0  0
 38 80  2  0  0  0  0
 39 66  1  0  0  0  0
 39 70  1  0  0  0  0
 39 81  2  0  0  0  0
 40 43  1  0  0  0  0
 41 50  1  0  0  0  0
 42 65  1  0  0  0  0
 43 45  1  0  0  0  0
 44 46  1  0  0  0  0
 44 47  1  0  0  0  0
 45 49  1  0  0  0  0
 46 51  1  0  0  0  0
 47 66  1  0  0  0  0
 48 51  1  0  0  0  0
 48 66  1  0  0  0  0
 49 71  1  0  0  0  0
 50 65  1  0  0  0  0
 51 64  1  0  0  0  0
 53 61  1  0  0  0  0
 54 62  1  0  0  0  0
 55 62  1  0  0  0  0
 56 62  1  0  0  0  0
 57 73  1  0  0  0  0
 58 59  1  0  0  0  0
 59 83  1  0  0  0  0
 60 62  1  0  0  0  0
 60 72  1  0  0  0  0
 61 73  1  0  0  0  0
 63 64  1  0  0  0  0
M  CHG  1  73   1
M  ISO  4  39 100  59 101  70 100  83 101
M  END
> <Batch ID>
0176

> <Smiles>
CNC(C)C(=O)NC(C(=O)N1Cc2cc([101O:1][101CH2:1]CC(=O)C(=O)Nc3cc(C(C)=O)c([100NH:0][100C:0](=O)N4CCCC(n5nc(-c6ccc(Oc7ccc(F)cc7F)cc6)c(C(N)=O)c5N)C4)s3)ccc2CC1C(=O)NC1CCCc2ccccc21)C(C)(C)C

> <Shape>
0.319

> <Color>
0.094

> <Negative vol penalty>
0.000

$$$$

  -OEChem-04052304383D

 88 96  0     1  0  0  0  0  0999 V2000
  -16.1240  -27.7291   21.8164 C   0  0  0  0  0  0  0  0  0  0  0  0
  -17.3700  -27.1206   21.7040 C   0  0  0  0  0  0  0  0  0  0  0  0
  -23.6588   -9.6547   21.9230 C   0  0  0  0  0  0  0  0  0  0  0  0
  -24.2126  -11.0371   23.8255 C   0  0  0  0  0  0  0  0  0  0  0  0
  -16.0183  -29.1174   21.7418 C   0  0  0  0  0  0  0  0  0  0  0  0
  -18.5109  -27.8999   21.5159 C   0  0  0  0  0  0  0  0  0  0  0  0
  -22.3645  -26.4452   24.4618 C   0  0  0  0  0  0  0  0  0  0  0  0
  -23.1094   -8.6989   22.7774 C   0  0  0  0  0  0  0  0  0  0  0  0
  -23.6632  -10.0812   24.6799 C   0  0  0  0  0  0  0  0  0  0  0  0
  -23.0790  -25.3161   24.0641 C   0  0  0  0  0  0  0  0  0  0  0  0
  -24.2258   -6.2380   24.8077 C   0  0  0  0  0  0  0  0  0  0  0  0
  -24.5490   -4.9009   24.5766 C   0  0  0  0  0  0  0  0  0  0  0  0
  -24.8003  -26.7357   23.1469 C   0  0  0  0  0  0  0  0  0  0  0  0
  -22.2097   -4.3915   24.2518 C   0  0  0  0  0  0  0  0  0  0  0  0
  -24.2105  -10.8238   22.4470 C   0  0  0  0  0  0  0  0  0  0  0  0
  -24.1153  -12.8997   20.9674 C   0  0  0  0  0  0  0  0  0  0  0  0
  -17.1597  -29.9147   21.5624 C   0  0  0  0  0  0  0  0  0  0  0  0
  -22.8581  -27.7304   24.1949 C   0  0  0  0  0  0  0  0  0  0  0  0
  -18.4202  -29.3000   21.4375 C   0  0  0  0  0  0  0  0  0  0  0  0
  -24.0913  -27.8795   23.5445 C   0  0  0  0  0  0  0  0  0  0  0  0
  -23.1116   -8.9121   24.1559 C   0  0  0  0  0  0  0  0  0  0  0  0
  -24.2957  -25.4612   23.4040 C   0  0  0  0  0  0  0  0  0  0  0  0
  -22.8945   -6.6518   24.7610 C   0  0  0  0  0  0  0  0  0  0  0  0
  -23.5410   -3.9777   24.2986 C   0  0  0  0  0  0  0  0  0  0  0  0
  -21.8865   -5.7286   24.4830 C   0  0  0  0  0  0  0  0  0  0  0  0
  -24.7787  -11.8113   21.5649 C   0  0  0  0  0  0  0  0  0  0  0  0
  -29.2858  -20.3364   19.2845 C   0  0  0  0  0  0  0  0  0  0  0  0
  -30.4928  -19.8459   18.8324 C   0  0  0  0  0  0  0  0  0  0  0  0
  -25.0862  -13.5298   20.2280 C   0  0  0  0  0  0  0  0  0  0  0  0
  -29.6164  -17.9641   19.5399 C   0  0  0  0  0  0  0  0  0  0  0  0
  -22.7439  -13.3051   21.0715 C   0  0  0  0  0  0  0  0  0  0  0  0
  -28.7424  -21.7191   19.2905 C   0  0  0  0  0  0  0  0  0  0  0  0
  -21.8401  -30.2160   22.4951 C   0  0  0  0  0  0  0  0  0  0  0  0
  -25.9417  -23.1543   21.1393 C   0  0  0  0  0  0  0  0  0  0  0  0
  -24.4120  -31.6806   23.8226 C   0  0  0  0  0  0  0  0  0  0  0  0
  -27.4954  -31.3844   25.2551 C   0  0  0  0  0  0  0  0  0  0  0  0
  -30.2525  -15.5299   19.6688 C   0  0  0  0  0  0  0  0  0  0  0  0
  -16.9900  -31.4084   21.4406 C   0  0  0  0  0  0  0  0  0  0  0  0
  -22.0882  -28.9381   24.6542 C   0  0  0  0  0  0  0  0  0  0  0  0
  -24.6747  -29.2370   23.2523 C   0  0  0  0  0  0  0  0  0  0  0  0
  -18.2921  -32.1856   21.6152 C   0  0  0  0  0  0  0  0  0  0  0  0
  -29.7770  -12.0618   19.0181 C   0  0  0  0  0  0  0  0  0  0  0  0
  -19.4085  -31.5483   20.7939 C   0  0  0  0  0  0  0  0  0  0  0  0
  -28.3796  -11.7770   19.5735 C   0  0  0  0  0  0  0  0  0  0  0  0
  -30.5351  -13.0701   19.8797 C   0  0  0  0  0  0  0  0  0  0  0  0
  -28.4229  -14.0415   20.6948 C   0  0  0  0  0  0  0  0  0  0  0  0
  -19.6840  -30.1128   21.2577 C   0  0  1  0  0  0  0  0  0  0  0  0
  -22.4373  -30.2016   23.8738 C   0  0  1  0  0  0  0  0  0  0  0  0
  -27.5965  -13.0806   19.8246 C   0  0  2  0  0  0  0  0  0  0  0  0
  -29.3680  -32.7607   26.2020 C   0  0  0  0  0  0  0  0  0  0  0  0
  -25.2847  -32.4328   20.9972 C   0  0  0  0  0  0  0  0  0  0  0  0
  -27.5602  -32.9400   21.9100 C   0  0  0  0  0  0  0  0  0  0  0  0
  -25.5835  -34.2420   22.6978 C   0  0  0  0  0  0  0  0  0  0  0  0
  -27.2215  -30.1325   27.9228 C   0  0  0  0  0  0  0  0  0  0  0  0
  -25.8093  -24.4876   21.8493 C   0  0  0  0  0  0  0  0  0  1  0  0
  -26.8000  -23.1448   19.8828 C   0  0  2  0  0  0  0  0  0  0  0  0
  -25.8642  -31.8424   23.4429 C   0  0  1  0  0  0  0  0  0  0  0  0
  -28.0867  -32.0015   26.5097 C   0  0  2  0  0  0  0  0  0  0  0  0
  -26.0615  -32.8386   22.2656 C   0  0  0  0  0  0  0  0  0  0  0  0
  -25.9532  -23.3878   18.6533 C   0  0  0  0  0  0  0  0  0  0  0  0
  -26.0712  -11.7504   21.2336 N   0  0  0  0  0  0  0  0  0  0  0  0
  -30.6844  -18.4858   18.9783 N   0  0  0  0  0  0  0  0  0  0  0  0
  -26.2277  -12.8084   20.4199 N   0  0  0  0  0  0  0  0  0  0  0  0
  -23.8812  -30.3873   23.7156 N   0  0  0  0  0  0  0  0  0  0  0  0
  -29.7339  -14.2810   20.0713 N   0  0  0  0  0  0  0  0  0  0  0  0
  -31.4579  -20.6141   18.2724 N   0  0  0  0  0  0  0  0  0  0  0  0
  -25.0664  -14.6250   19.4390 N   0  0  0  0  0  0  0  0  0  0  0  0
  -21.8817  -12.5452   21.8737 N   0  0  0  0  0  0  0  0  0  0  0  0
  -29.3879  -16.6053   19.8705 N   0  0  0  0  0  0  0  0  0  0  0  0
  -27.4710  -21.8725   19.8285 N   0  0  0  0  0  0  0  0  0  0  0  0
  -20.4619  -30.1165   22.4780 N   0  0  0  0  0  0  0  0  0  0  0  0
  -26.5666  -32.2160   24.6658 N   0  0  0  0  0  0  0  0  0  0  0  0
  -28.3969  -30.9424   27.5112 N   0  3  0  0  0  0  0  0  0  0  0  0
  -22.2926  -14.3017   20.4580 O   0  0  0  0  0  0  0  0  0  0  0  0
  -29.4148  -22.6301   18.8147 O   0  0  0  0  0  0  0  0  0  0  0  0
  -22.5750  -30.3117   21.5193 O   0  0  0  0  0  0  0  0  0  0  0  0
  -25.3614  -22.1457   21.5419 O   0  0  0  0  0  0  0  0  0  0  0  0
  -23.7743  -32.6641   24.2069 O   0  0  0  0  0  0  0  0  0  0  0  0
  -27.8272  -30.2772   24.8373 O   0  0  0  0  0  0  0  0  0  0  0  0
  -31.3697  -15.6339   19.1559 O   0  0  0  0  0  0  0  0  0  0  0  0
  -22.5753   -7.9797   24.9899 O   0  0  0  0  0  0  0  0  0  0  0  0
  -24.9948  -24.3607   23.0142 O   0  0  0  0  0  0  0  0  0  1  0  0
  -23.8517   -2.6941   24.0751 F   0  0  0  0  0  0  0  0  0  0  0  0
  -20.6059   -6.1205   24.4356 F   0  0  0  0  0  0  0  0  0  0  0  0
  -26.7028  -23.3467   17.5297 F   0  0  0  0  0  0  0  0  0  0  0  0
  -25.3375  -24.5888   18.6953 F   0  0  0  0  0  0  0  0  0  0  0  0
  -24.9970  -22.4393   18.5326 F   0  0  0  0  0  0  0  0  0  0  0  0
  -28.3436  -19.0512   19.9185 S   0  0  0  0  0  0  0  0  0  0  0  0
  1  2  1  0  0  0  0
  1  5  2  0  0  0  0
  2  6  2  0  0  0  0
  3  8  2  0  0  0  0
  3 15  1  0  0  0  0
  4  9  1  0  0  0  0
  4 15  2  0  0  0  0
  5 17  1  0  0  0  0
  6 19  1  0  0  0  0
  7 10  2  0  0  0  0
  7 18  1  0  0  0  0
  8 21  1  0  0  0  0
  9 21  2  0  0  0  0
 10 22  1  0  0  0  0
 11 12  2  0  0  0  0
 11 23  1  0  0  0  0
 12 24  1  0  0  0  0
 13 20  1  0  0  0  0
 13 22  2  0  0  0  0
 14 24  2  0  0  0  0
 14 25  1  0  0  0  0
 15 26  1  0  0  0  0
 16 26  1  0  0  0  0
 16 29  2  0  0  0  0
 16 31  1  0  0  0  0
 17 19  2  0  0  0  0
 17 38  1  0  0  0  0
 18 20  2  0  0  0  0
 18 39  1  0  0  0  0
 19 47  1  0  0  0  0
 20 40  1  0  0  0  0
 21 81  1  0  0  0  0
 22 82  1  0  0  0  0
 23 25  2  0  0  0  0
 23 81  1  0  0  0  0
 24 83  1  0  0  0  0
 25 84  1  0  0  0  0
 26 61  2  0  0  0  0
 27 28  2  0  0  0  0
 27 32  1  0  0  0  0
 27 88  1  0  0  0  0
 28 62  1  0  0  0  0
 28 66  1  0  0  0  0
 29 63  1  0  0  0  0
 29 67  1  0  0  0  0
 30 62  2  0  0  0  0
 30 69  1  0  0  0  0
 30 88  1  0  0  0  0
 31 68  1  0  0  0  0
 31 74  2  0  0  0  0
 32 70  1  0  0  0  0
 32 75  2  0  0  0  0
 33 48  1  0  0  0  0
 33 71  1  0  0  0  0
 33 76  2  0  0  0  0
 34 55  1  0  0  0  0
 34 56  1  0  0  0  0
 34 77  2  0  0  0  0
 35 57  1  0  0  0  0
 35 64  1  0  0  0  0
 35 78  2  0  0  0  0
 36 58  1  0  0  0  0
 36 72  1  0  0  0  0
 36 79  2  0  0  0  0
 37 65  1  0  0  0  0
 37 69  1  0  0  0  0
 37 80  2  0  0  0  0
 38 41  1  0  0  0  0
 39 48  1  0  0  0  0
 40 64  1  0  0  0  0
 41 43  1  0  0  0  0
 42 44  1  0  0  0  0
 42 45  1  0  0  0  0
 43 47  1  0  0  0  0
 44 49  1  0  0  0  0
 45 65  1  0  0  0  0
 46 49  1  0  0  0  0
 46 65  1  0  0  0  0
 47 71  1  0  0  0  0
 48 64  1  0  0  0  0
 49 63  1  0  0  0  0
 50 58  1  0  0  0  0
 51 59  1  0  0  0  0
 52 59  1  0  0  0  0
 53 59  1  0  0  0  0
 54 73  1  0  0  0  0
 55 82  1  0  0  0  0
 56 60  1  0  0  0  0
 56 70  1  0  0  0  0
 57 59  1  0  0  0  0
 57 72  1  0  0  0  0
 58 73  1  0  0  0  0
 60 85  1  0  0  0  0
 60 86  1  0  0  0  0
 60 87  1  0  0  0  0
 61 63  1  0  0  0  0
M  CHG  1  73   1
M  ISO  4  37 100  55 101  69 100  82 101
M  END
> <Batch ID>
0176

> <Smiles>
CNC(C)C(=O)NC(C(=O)N1Cc2cc([101O:1][101CH2:1]C(=O)C(NC(=O)c3sc([100NH:0][100C:0](=O)N4CCCC(n5nc(-c6ccc(Oc7ccc(F)cc7F)cc6)c(C(N)=O)c5N)C4)nc3N)C(F)(F)F)ccc2CC1C(=O)NC1CCCc2ccccc21)C(C)(C)C

> <Shape>
0.287

> <Color>
0.126

> <Negative vol penalty>
0.000

$$$$

  -OEChem-04052304383D

 84 92  0     1  0  0  0  0  0999 V2000
  -25.8792  -35.4991   22.9875 C   0  0  0  0  0  0  0  0  0  0  0  0
  -26.4344  -34.2304   22.8548 C   0  0  0  0  0  0  0  0  0  0  0  0
  -22.7772  -10.7037   21.8544 C   0  0  0  0  0  0  0  0  0  0  0  0
  -24.9416  -10.8737   22.9143 C   0  0  0  0  0  0  0  0  0  0  0  0
  -24.5536  -35.6394   23.3961 C   0  0  0  0  0  0  0  0  0  0  0  0
  -25.6646  -33.1012   23.1318 C   0  0  0  0  0  0  0  0  0  0  0  0
  -26.1989  -29.4796   19.6327 C   0  0  0  0  0  0  0  0  0  0  0  0
  -22.8660   -9.3124   21.8961 C   0  0  0  0  0  0  0  0  0  0  0  0
  -25.0304   -9.4823   22.9560 C   0  0  0  0  0  0  0  0  0  0  0  0
  -27.3526  -28.6994   19.6949 C   0  0  0  0  0  0  0  0  0  0  0  0
  -22.4401   -6.8566   24.1810 C   0  0  0  0  0  0  0  0  0  0  0  0
  -21.3157   -6.1476   24.6036 C   0  0  0  0  0  0  0  0  0  0  0  0
  -26.1019  -26.9475   20.7839 C   0  0  0  0  0  0  0  0  0  0  0  0
  -21.2363   -5.0052   22.4763 C   0  0  0  0  0  0  0  0  0  0  0  0
  -23.8150  -11.4844   22.3634 C   0  0  0  0  0  0  0  0  0  0  0  0
  -23.1769  -13.7690   23.3023 C   0  0  0  0  0  0  0  0  0  0  0  0
  -23.7642  -34.5111   23.6689 C   0  0  0  0  0  0  0  0  0  0  0  0
  -24.9884  -29.0032   20.1563 C   0  0  0  0  0  0  0  0  0  0  0  0
  -24.3276  -33.2266   23.5457 C   0  0  0  0  0  0  0  0  0  0  0  0
  -24.9337  -27.7226   20.7248 C   0  0  0  0  0  0  0  0  0  0  0  0
  -23.9926   -8.7016   22.4469 C   0  0  0  0  0  0  0  0  0  0  0  0
  -27.3049  -27.4343   20.2732 C   0  0  0  0  0  0  0  0  0  0  0  0
  -22.9626   -6.6399   22.9059 C   0  0  0  0  0  0  0  0  0  0  0  0
  -20.7138   -5.2219   23.7513 C   0  0  0  0  0  0  0  0  0  0  0  0
  -22.3607   -5.7142   22.0536 C   0  0  0  0  0  0  0  0  0  0  0  0
  -23.7241  -12.9218   22.3201 C   0  0  0  0  0  0  0  0  0  0  0  0
  -29.3578  -18.9039   20.6938 C   0  0  0  0  0  0  0  0  0  0  0  0
  -23.3299  -15.0336   22.7888 C   0  0  0  0  0  0  0  0  0  0  0  0
  -29.3060  -18.9572   22.0709 C   0  0  0  0  0  0  0  0  0  0  0  0
  -29.3550  -21.0832   20.9395 C   0  0  0  0  0  0  0  0  0  0  0  0
  -22.5833  -13.4420   24.5658 C   0  0  0  0  0  0  0  0  0  0  0  0
  -29.4498  -24.6133   19.6404 C   0  0  0  0  0  0  0  0  0  0  0  0
  -29.4127  -23.1197   19.4931 C   0  0  0  0  0  0  0  0  0  0  0  0
  -23.0212  -29.9419   22.4699 C   0  0  0  0  0  0  0  0  0  0  0  0
  -21.1613  -27.5416   21.3290 C   0  0  0  0  0  0  0  0  0  0  0  0
  -20.9616  -24.5887   19.6299 C   0  0  0  0  0  0  0  0  0  0  0  0
  -27.1502  -17.3908   18.8265 C   0  0  0  0  0  0  0  0  0  0  0  0
  -22.3504  -34.7141   24.1533 C   0  0  0  0  0  0  0  0  0  0  0  0
  -23.7467  -29.8464   20.0574 C   0  0  0  0  0  0  0  0  0  0  0  0
  -23.6543  -27.1568   21.2830 C   0  0  0  0  0  0  0  0  0  0  0  0
  -21.4900  -33.4562   24.0659 C   0  0  0  0  0  0  0  0  0  0  0  0
  -23.5954  -17.3783   18.6267 C   0  0  0  0  0  0  0  0  0  0  0  0
  -22.2448  -32.2534   24.6231 C   0  0  0  0  0  0  0  0  0  0  0  0
  -23.1759  -16.3112   19.6392 C   0  0  0  0  0  0  0  0  0  0  0  0
  -24.8853  -16.9951   17.9046 C   0  0  0  0  0  0  0  0  0  0  0  0
  -25.5963  -15.5945   19.8038 C   0  0  0  0  0  0  0  0  0  0  0  0
  -23.5171  -31.9768   23.8130 C   0  0  1  0  0  0  0  0  0  0  0  0
  -22.6841  -29.4680   21.0845 C   0  0  1  0  0  0  0  0  0  0  0  0
  -24.3308  -15.9624   20.5973 C   0  0  2  0  0  0  0  0  0  0  0  0
  -19.3110  -22.8487   18.8913 C   0  0  0  0  0  0  0  0  0  0  0  0
  -21.0457  -26.4470   24.1747 C   0  0  0  0  0  0  0  0  0  0  0  0
  -20.2270  -24.2768   23.2322 C   0  0  0  0  0  0  0  0  0  0  0  0
  -18.8775  -26.3531   22.9320 C   0  0  0  0  0  0  0  0  0  0  0  0
  -21.5695  -25.0584   16.7718 C   0  0  0  0  0  0  0  0  0  0  0  0
  -29.3849  -17.6786   19.8671 C   0  0  0  0  0  0  0  0  0  0  0  0
  -28.2566  -25.2549   20.2991 C   0  0  0  0  0  0  0  0  0  1  0  0
  -21.0203  -26.0673   21.6210 C   0  0  1  0  0  0  0  0  0  0  0  0
  -20.0405  -24.1287   18.5143 C   0  0  2  0  0  0  0  0  0  0  0  0
  -20.3173  -25.7972   22.9813 C   0  0  0  0  0  0  0  0  0  0  0  0
  -24.1899  -13.5918   21.2626 N   0  0  0  0  0  0  0  0  0  0  0  0
  -29.3855  -20.1220   20.0433 N   0  0  0  0  0  0  0  0  0  0  0  0
  -23.9356  -14.8733   21.5774 N   0  0  0  0  0  0  0  0  0  0  0  0
  -22.4687  -28.0221   21.1684 N   0  0  0  0  0  0  0  0  0  0  0  0
  -25.9408  -16.6778   18.8696 N   0  0  0  0  0  0  0  0  0  0  0  0
  -23.0040  -16.2561   23.2599 N   0  0  0  0  0  0  0  0  0  0  0  0
  -29.2694  -17.9236   22.9468 N   0  0  0  0  0  0  0  0  0  0  0  0
  -22.5059  -12.0931   24.9385 N   0  0  0  0  0  0  0  0  0  0  0  0
  -29.3666  -22.4792   20.7126 N   0  0  0  0  0  0  0  0  0  0  0  0
  -23.1904  -31.3096   22.5711 N   0  0  0  0  0  0  0  0  0  0  0  0
  -20.3376  -25.4866   20.4699 N   0  0  0  0  0  0  0  0  0  0  0  0
  -28.0946  -17.0317   19.7805 N   0  0  0  0  0  0  0  0  0  0  0  0
  -20.8202  -23.8762   17.2697 N   0  3  0  0  0  0  0  0  0  0  0  0
  -22.1201  -14.3187   25.3340 O   0  0  0  0  0  0  0  0  0  0  0  0
  -30.4271  -25.2006   19.2016 O   0  0  0  0  0  0  0  0  0  0  0  0
  -29.4532  -22.6816   18.3553 O   0  0  0  0  0  0  0  0  0  0  0  0
  -23.1190  -29.1272   23.3801 O   0  0  0  0  0  0  0  0  0  0  0  0
  -20.1484  -28.2399   21.2392 O   0  0  0  0  0  0  0  0  0  0  0  0
  -22.1177  -24.1884   19.7467 O   0  0  0  0  0  0  0  0  0  0  0  0
  -27.3701  -18.2851   18.0025 O   0  0  0  0  0  0  0  0  0  0  0  0
  -24.0795   -7.3439   22.4881 O   0  0  0  0  0  0  0  0  0  0  0  0
  -28.4297  -26.6709   20.3358 O   0  0  0  0  0  0  0  0  0  1  0  0
  -19.6349   -4.5401   24.1579 F   0  0  0  0  0  0  0  0  0  0  0  0
  -22.8589   -5.5008   20.8280 F   0  0  0  0  0  0  0  0  0  0  0  0
  -29.2930  -20.5938   22.5832 S   0  0  0  0  0  0  0  0  0  0  0  0
  1  2  1  0  0  0  0
  1  5  2  0  0  0  0
  2  6  2  0  0  0  0
  3  8  2  0  0  0  0
  3 15  1  0  0  0  0
  4  9  1  0  0  0  0
  4 15  2  0  0  0  0
  5 17  1  0  0  0  0
  6 19  1  0  0  0  0
  7 10  2  0  0  0  0
  7 18  1  0  0  0  0
  8 21  1  0  0  0  0
  9 21  2  0  0  0  0
 10 22  1  0  0  0  0
 11 12  2  0  0  0  0
 11 23  1  0  0  0  0
 12 24  1  0  0  0  0
 13 20  1  0  0  0  0
 13 22  2  0  0  0  0
 14 24  2  0  0  0  0
 14 25  1  0  0  0  0
 15 26  1  0  0  0  0
 16 26  1  0  0  0  0
 16 28  2  0  0  0  0
 16 31  1  0  0  0  0
 17 19  2  0  0  0  0
 17 38  1  0  0  0  0
 18 20  2  0  0  0  0
 18 39  1  0  0  0  0
 19 47  1  0  0  0  0
 20 40  1  0  0  0  0
 21 80  1  0  0  0  0
 22 81  1  0  0  0  0
 23 25  2  0  0  0  0
 23 80  1  0  0  0  0
 24 82  1  0  0  0  0
 25 83  1  0  0  0  0
 26 60  2  0  0  0  0
 27 29  2  0  0  0  0
 27 55  1  0  0  0  0
 27 61  1  0  0  0  0
 28 62  1  0  0  0  0
 28 65  1  0  0  0  0
 29 66  1  0  0  0  0
 29 84  1  0  0  0  0
 30 61  2  0  0  0  0
 30 68  1  0  0  0  0
 30 84  1  0  0  0  0
 31 67  1  0  0  0  0
 31 73  2  0  0  0  0
 32 33  1  0  0  0  0
 32 56  1  0  0  0  0
 32 74  2  0  0  0  0
 33 68  1  0  0  0  0
 33 75  2  0  0  0  0
 34 48  1  0  0  0  0
 34 69  1  0  0  0  0
 34 76  2  0  0  0  0
 35 57  1  0  0  0  0
 35 63  1  0  0  0  0
 35 77  2  0  0  0  0
 36 58  1  0  0  0  0
 36 70  1  0  0  0  0
 36 78  2  0  0  0  0
 37 64  1  0  0  0  0
 37 71  1  0  0  0  0
 37 79  2  0  0  0  0
 38 41  1  0  0  0  0
 39 48  1  0  0  0  0
 40 63  1  0  0  0  0
 41 43  1  0  0  0  0
 42 44  1  0  0  0  0
 42 45  1  0  0  0  0
 43 47  1  0  0  0  0
 44 49  1  0  0  0  0
 45 64  1  0  0  0  0
 46 49  1  0  0  0  0
 46 64  1  0  0  0  0
 47 69  1  0  0  0  0
 48 63  1  0  0  0  0
 49 62  1  0  0  0  0
 50 58  1  0  0  0  0
 51 59  1  0  0  0  0
 52 59  1  0  0  0  0
 53 59  1  0  0  0  0
 54 72  1  0  0  0  0
 55 71  1  0  0  0  0
 56 81  1  0  0  0  0
 57 59  1  0  0  0  0
 57 70  1  0  0  0  0
 58 72  1  0  0  0  0
 60 62  1  0  0  0  0
M  CHG  1  72   1
M  ISO  4  37 100  56 101  71 100  81 101
M  END
> <Batch ID>
0176

> <Smiles>
CNC(C)C(=O)NC(C(=O)N1Cc2cc([101O:1][101CH2:1]C(=O)C(=O)Nc3nc(C[100NH:0][100C:0](=O)N4CCCC(n5nc(-c6ccc(Oc7ccc(F)cc7F)cc6)c(C(N)=O)c5N)C4)c(N)s3)ccc2CC1C(=O)NC1CCCc2ccccc21)C(C)(C)C

> <Shape>
0.294

> <Color>
0.103

> <Negative vol penalty>
0.000

$$$$

  -OEChem-04052304383D

 87 95  0     1  0  0  0  0  0999 V2000
  -32.4801  -13.8408   20.8169 C   0  0  0  0  0  0  0  0  0  0  0  0
  -31.7972  -15.0524   20.7841 C   0  0  0  0  0  0  0  0  0  0  0  0
  -29.3512  -28.3488   19.6148 C   0  0  0  0  0  0  0  0  0  0  0  0
  -27.6705  -26.7146   19.0303 C   0  0  0  0  0  0  0  0  0  0  0  0
  -31.8148  -12.6580   20.4971 C   0  0  0  0  0  0  0  0  0  0  0  0
  -30.4487  -15.0820   20.4304 C   0  0  0  0  0  0  0  0  0  0  0  0
  -26.1454  -18.8390   22.6376 C   0  0  0  0  0  0  0  0  0  0  0  0
  -30.3231  -27.3483   19.6176 C   0  0  0  0  0  0  0  0  0  0  0  0
  -28.6424  -25.7141   19.0330 C   0  0  0  0  0  0  0  0  0  0  0  0
  -25.5896  -20.0197   22.1469 C   0  0  0  0  0  0  0  0  0  0  0  0
  -30.2973  -23.8547   21.3210 C   0  0  0  0  0  0  0  0  0  0  0  0
  -29.9892  -22.6537   21.9599 C   0  0  0  0  0  0  0  0  0  0  0  0
  -23.7549  -18.7614   21.2143 C   0  0  0  0  0  0  0  0  0  0  0  0
  -19.9031  -27.4404   21.7258 C   0  0  0  0  0  0  0  0  0  0  0  0
  -30.3074  -21.4658   19.8802 C   0  0  0  0  0  0  0  0  0  0  0  0
  -28.0249  -28.0319   19.3213 C   0  0  0  0  0  0  0  0  0  0  0  0
  -26.6238  -29.8625   18.2287 C   0  0  0  0  0  0  0  0  0  0  0  0
  -30.4550  -12.6720   20.1487 C   0  0  0  0  0  0  0  0  0  0  0  0
  -25.5146  -17.6073   22.4106 C   0  0  0  0  0  0  0  0  0  0  0  0
  -29.7649  -13.8984   20.1043 C   0  0  0  0  0  0  0  0  0  0  0  0
  -24.3034  -17.5668   21.7054 C   0  0  0  0  0  0  0  0  0  0  0  0
  -18.6404  -26.8583   21.7346 C   0  0  0  0  0  0  0  0  0  0  0  0
  -29.9687  -26.0309   19.3266 C   0  0  0  0  0  0  0  0  0  0  0  0
  -24.3957  -19.9808   21.4326 C   0  0  0  0  0  0  0  0  0  0  0  0
  -30.6104  -23.8613   19.9617 C   0  0  0  0  0  0  0  0  0  0  0  0
  -29.9943  -21.4592   21.2395 C   0  0  0  0  0  0  0  0  0  0  0  0
  -30.6155  -22.6669   19.2413 C   0  0  0  0  0  0  0  0  0  0  0  0
  -17.6613  -27.3480   22.5919 C   0  0  0  0  0  0  0  0  0  0  0  0
  -27.0204  -29.0649   19.3188 C   0  0  0  0  0  0  0  0  0  0  0  0
  -20.1343  -28.5012   22.5865 C   0  0  0  0  0  0  0  0  0  0  0  0
  -17.9929  -28.4129   23.4140 C   0  0  0  0  0  0  0  0  0  0  0  0
  -25.6476  -30.6822   18.7401 C   0  0  0  0  0  0  0  0  0  0  0  0
  -22.6006  -21.4793   21.3790 C   0  0  0  0  0  0  0  0  0  1  0  0
  -18.9293  -24.4254   21.3452 C   0  0  0  0  0  0  0  0  0  0  0  0
  -27.0955  -29.8622   16.8747 C   0  0  0  0  0  0  0  0  0  0  0  0
  -21.9705  -22.5876   20.9720 C   0  0  0  0  0  0  0  0  0  0  0  0
  -20.6018  -22.8763   21.4983 C   0  0  0  0  0  0  0  0  0  0  0  0
  -26.3052  -14.9283   20.8936 C   0  0  0  0  0  0  0  0  0  0  0  0
  -23.5190  -13.8509   22.1578 C   0  0  0  0  0  0  0  0  0  0  0  0
  -20.4309  -14.5850   23.4115 C   0  0  0  0  0  0  0  0  0  0  0  0
  -21.8751  -30.1571   23.3442 C   0  0  0  0  0  0  0  0  0  0  0  0
  -29.7906  -11.3735   19.7650 C   0  0  0  0  0  0  0  0  0  0  0  0
  -26.1132  -16.3457   22.9696 C   0  0  0  0  0  0  0  0  0  0  0  0
  -23.5762  -16.2724   21.4521 C   0  0  0  0  0  0  0  0  0  0  0  0
  -28.2658  -11.4465   19.7643 C   0  0  0  0  0  0  0  0  0  0  0  0
  -24.2589  -32.7513   22.8297 C   0  0  0  0  0  0  0  0  0  0  0  0
  -27.7919  -12.7042   19.0428 C   0  0  0  0  0  0  0  0  0  0  0  0
  -25.1979  -32.1753   21.7673 C   0  0  0  0  0  0  0  0  0  0  0  0
  -23.7840  -31.6788   23.8084 C   0  0  0  0  0  0  0  0  0  0  0  0
  -24.1259  -29.9146   22.1233 C   0  0  0  0  0  0  0  0  0  0  0  0
  -28.2954  -13.9685   19.7496 C   0  0  1  0  0  0  0  0  0  0  0  0
  -25.6517  -15.0897   22.2369 C   0  0  1  0  0  0  0  0  0  0  0  0
  -24.5792  -30.9446   21.0759 C   0  0  2  0  0  0  0  0  0  0  0  0
  -18.3662  -13.4922   24.3281 C   0  0  0  0  0  0  0  0  0  0  0  0
  -22.6926  -13.0480   19.3325 C   0  0  0  0  0  0  0  0  0  0  0  0
  -20.3336  -12.8620   20.1503 C   0  0  0  0  0  0  0  0  0  0  0  0
  -22.1027  -11.3845   21.1044 C   0  0  0  0  0  0  0  0  0  0  0  0
  -20.7303  -15.9445   26.0232 C   0  0  0  0  0  0  0  0  0  0  0  0
  -18.3386  -25.7038   20.8187 C   0  0  0  0  0  0  0  0  0  0  0  0
  -22.0768  -13.8386   21.7119 C   0  0  1  0  0  0  0  0  0  0  0  0
  -19.7136  -14.1127   24.6632 C   0  0  2  0  0  0  0  0  0  0  0  0
  -21.8159  -12.8076   20.5777 C   0  0  0  0  0  0  0  0  0  0  0  0
  -26.3510  -29.3522   20.4384 N   0  0  0  0  0  0  0  0  0  0  0  0
  -19.2084  -29.0043   23.4334 N   0  0  0  0  0  0  0  0  0  0  0  0
  -20.1087  -24.0507   20.9753 N   0  0  0  0  0  0  0  0  0  0  0  0
  -25.5239  -30.3395   20.0544 N   0  0  0  0  0  0  0  0  0  0  0  0
  -24.2047  -15.0652   22.0135 N   0  0  0  0  0  0  0  0  0  0  0  0
  -23.2059  -30.5460   23.0822 N   0  0  0  0  0  0  0  0  0  0  0  0
  -16.9866  -28.9036   24.2824 N   0  0  0  0  0  0  0  0  0  0  0  0
  -24.8916  -31.6557   18.1893 N   0  0  0  0  0  0  0  0  0  0  0  0
  -28.1026  -28.9550   16.5182 N   0  0  0  0  0  0  0  0  0  0  0  0
  -21.4237  -29.0886   22.5701 N   0  0  0  0  0  0  0  0  0  0  0  0
  -27.5018  -14.2381   20.9294 N   0  0  0  0  0  0  0  0  0  0  0  0
  -21.2797  -13.6190   22.9140 N   0  0  0  0  0  0  0  0  0  0  0  0
  -19.4867  -15.2554   25.5925 N   0  3  0  0  0  0  0  0  0  0  0  0
  -26.6490  -30.6546   16.0108 O   0  0  0  0  0  0  0  0  0  0  0  0
  -20.0422  -22.1284   22.2941 O   0  0  0  0  0  0  0  0  0  0  0  0
  -25.7633  -15.3941   19.8981 O   0  0  0  0  0  0  0  0  0  0  0  0
  -24.0166  -12.8229   22.6239 O   0  0  0  0  0  0  0  0  0  0  0  0
  -20.2530  -15.6981   22.9217 O   0  0  0  0  0  0  0  0  0  0  0  0
  -21.1779  -30.7471   24.1735 O   0  0  0  0  0  0  0  0  0  0  0  0
  -22.5329  -23.4787   20.0811 O   0  0  0  0  0  0  0  0  0  0  0  0
  -30.9168  -25.0544   19.3290 O   0  0  0  0  0  0  0  0  0  0  0  0
  -23.8514  -21.1316   20.9519 O   0  0  0  0  0  0  0  0  0  1  0  0
  -29.6999  -20.3057   21.8535 F   0  0  0  0  0  0  0  0  0  0  0  0
  -30.9166  -22.6668   17.9355 F   0  0  0  0  0  0  0  0  0  0  0  0
  -16.4373  -26.8031   22.6169 F   0  0  0  0  0  0  0  0  0  0  0  0
  1  2  1  0  0  0  0
  1  5  2  0  0  0  0
  2  6  2  0  0  0  0
  3  8  2  0  0  0  0
  3 16  1  0  0  0  0
  4  9  1  0  0  0  0
  4 16  2  0  0  0  0
  5 18  1  0  0  0  0
  6 20  1  0  0  0  0
  7 10  2  0  0  0  0
  7 19  1  0  0  0  0
  8 23  1  0  0  0  0
  9 23  2  0  0  0  0
 10 24  1  0  0  0  0
 11 12  2  0  0  0  0
 11 25  1  0  0  0  0
 12 26  1  0  0  0  0
 13 21  1  0  0  0  0
 13 24  2  0  0  0  0
 14 22  1  0  0  0  0
 14 30  2  0  0  0  0
 15 26  2  0  0  0  0
 15 27  1  0  0  0  0
 16 29  1  0  0  0  0
 17 29  1  0  0  0  0
 17 32  2  0  0  0  0
 17 35  1  0  0  0  0
 18 20  2  0  0  0  0
 18 42  1  0  0  0  0
 19 21  2  0  0  0  0
 19 43  1  0  0  0  0
 20 51  1  0  0  0  0
 21 44  1  0  0  0  0
 22 28  2  0  0  0  0
 22 59  1  0  0  0  0
 23 83  1  0  0  0  0
 24 84  1  0  0  0  0
 25 27  2  0  0  0  0
 25 83  1  0  0  0  0
 26 85  1  0  0  0  0
 27 86  1  0  0  0  0
 28 31  1  0  0  0  0
 28 87  1  0  0  0  0
 29 63  2  0  0  0  0
 30 64  1  0  0  0  0
 30 72  1  0  0  0  0
 31 64  2  0  0  0  0
 31 69  1  0  0  0  0
 32 66  1  0  0  0  0
 32 70  1  0  0  0  0
 33 36  2  0  0  0  0
 33 84  1  0  0  0  0
 34 59  1  0  0  0  0
 34 65  2  0  0  0  0
 35 71  1  0  0  0  0
 35 76  2  0  0  0  0
 36 37  1  0  0  0  0
 36 82  1  0  0  0  0
 37 65  1  0  0  0  0
 37 77  2  0  0  0  0
 38 52  1  0  0  0  0
 38 73  1  0  0  0  0
 38 78  2  0  0  0  0
 39 60  1  0  0  0  0
 39 67  1  0  0  0  0
 39 79  2  0  0  0  0
 40 61  1  0  0  0  0
 40 74  1  0  0  0  0
 40 80  2  0  0  0  0
 41 68  1  0  0  0  0
 41 72  1  0  0  0  0
 41 81  2  0  0  0  0
 42 45  1  0  0  0  0
 43 52  1  0  0  0  0
 44 67  1  0  0  0  0
 45 47  1  0  0  0  0
 46 48  1  0  0  0  0
 46 49  1  0  0  0  0
 47 51  1  0  0  0  0
 48 53  1  0  0  0  0
 49 68  1  0  0  0  0
 50 53  1  0  0  0  0
 50 68  1  0  0  0  0
 51 73  1  0  0  0  0
 52 67  1  0  0  0  0
 53 66  1  0  0  0  0
 54 61  1  0  0  0  0
 55 62  1  0  0  0  0
 56 62  1  0  0  0  0
 57 62  1  0  0  0  0
 58 75  1  0  0  0  0
 60 62  1  0  0  0  0
 60 74  1  0  0  0  0
 61 75  1  0  0  0  0
 63 66  1  0  0  0  0
M  CHG  1  75   1
M  ISO  4  33 101  41 100  72 100  84 101
M  END
> <Batch ID>
0176

> <Smiles>
CNC(C)C(=O)NC(C(=O)N1Cc2cc([101O:1][101CH2:1]C(=O)C(=O)NC=Cc3cc([100NH:0][100C:0](=O)N4CCCC(n5nc(-c6ccc(Oc7ccc(F)cc7F)cc6)c(C(N)=O)c5N)C4)nc(N)c3F)ccc2CC1C(=O)NC1CCCc2ccccc21)C(C)(C)C

> <Shape>
0.265

> <Color>
0.077

> <Negative vol penalty>
0.000

$$$$

  -OEChem-04052304383D

 88 96  0     1  0  0  0  0  0999 V2000
  -29.1952  -36.3851   17.8527 C   0  0  0  0  0  0  0  0  0  0  0  0
  -29.4870  -35.1854   18.4937 C   0  0  0  0  0  0  0  0  0  0  0  0
  -23.1598   -9.7085   20.0229 C   0  0  0  0  0  0  0  0  0  0  0  0
  -23.8372   -9.8997   22.3341 C   0  0  0  0  0  0  0  0  0  0  0  0
  -28.0524  -37.1021   18.2046 C   0  0  0  0  0  0  0  0  0  0  0  0
  -28.6367  -34.7025   19.4878 C   0  0  0  0  0  0  0  0  0  0  0  0
  -27.3285  -28.8407   20.6854 C   0  0  0  0  0  0  0  0  0  0  0  0
  -22.4407   -8.5532   20.3292 C   0  0  0  0  0  0  0  0  0  0  0  0
  -23.1181   -8.7443   22.6404 C   0  0  0  0  0  0  0  0  0  0  0  0
  -27.8197  -27.9449   21.6341 C   0  0  0  0  0  0  0  0  0  0  0  0
  -19.8947   -7.8910   23.1898 C   0  0  0  0  0  0  0  0  0  0  0  0
  -19.0980   -7.9097   24.3346 C   0  0  0  0  0  0  0  0  0  0  0  0
  -25.9604  -28.4660   23.0800 C   0  0  0  0  0  0  0  0  0  0  0  0
  -31.5892  -17.7650   21.5298 C   0  0  0  0  0  0  0  0  0  0  0  0
  -20.3673   -6.0680   25.2480 C   0  0  0  0  0  0  0  0  0  0  0  0
  -23.8581  -10.3817   21.0254 C   0  0  0  0  0  0  0  0  0  0  0  0
  -24.1317  -12.9017   20.7377 C   0  0  0  0  0  0  0  0  0  0  0  0
  -27.1825  -36.6229   19.1967 C   0  0  0  0  0  0  0  0  0  0  0  0
  -26.1534  -29.5652   20.9319 C   0  0  0  0  0  0  0  0  0  0  0  0
  -27.4818  -35.4144   19.8542 C   0  0  0  0  0  0  0  0  0  0  0  0
  -25.4550  -29.3685   22.1317 C   0  0  0  0  0  0  0  0  0  0  0  0
  -31.6177  -19.0697   22.1016 C   0  0  0  0  0  0  0  0  0  0  0  0
  -22.4199   -8.0711   21.6379 C   0  0  0  0  0  0  0  0  0  0  0  0
  -27.1372  -27.7596   22.8329 C   0  0  0  0  0  0  0  0  0  0  0  0
  -20.9276   -6.9607   23.0740 C   0  0  0  0  0  0  0  0  0  0  0  0
  -19.3344   -6.9983   25.3638 C   0  0  0  0  0  0  0  0  0  0  0  0
  -21.1639   -6.0493   24.1031 C   0  0  0  0  0  0  0  0  0  0  0  0
  -24.6015  -11.5749   20.7095 C   0  0  0  0  0  0  0  0  0  0  0  0
  -25.2142  -13.6573   20.3588 C   0  0  0  0  0  0  0  0  0  0  0  0
  -30.3889  -17.1276   21.7544 C   0  0  0  0  0  0  0  0  0  0  0  0
  -30.4377  -19.3800   22.7414 C   0  0  0  0  0  0  0  0  0  0  0  0
  -22.8329  -13.4059   21.0762 C   0  0  0  0  0  0  0  0  0  0  0  0
  -28.7428  -22.1188   24.6919 C   0  0  0  0  0  0  0  0  0  0  0  0
  -28.8211  -20.7605   24.0548 C   0  0  0  0  0  0  0  0  0  0  0  0
  -25.4353  -32.6497   21.2036 C   0  0  0  0  0  0  0  0  0  0  0  0
  -28.1691  -24.5670   24.1919 C   0  0  0  0  0  0  0  0  0  0  0  0
  -22.3953  -31.5284   21.3562 C   0  0  0  0  0  0  0  0  0  0  0  0
  -20.2972  -28.9318   22.0650 C   0  0  0  0  0  0  0  0  0  0  0  0
  -30.6387  -14.8814   20.6415 C   0  0  0  0  0  0  0  0  0  0  0  0
  -25.9843  -37.4567   19.5761 C   0  0  0  0  0  0  0  0  0  0  0  0
  -25.6222  -30.5078   19.8870 C   0  0  0  0  0  0  0  0  0  0  0  0
  -24.1780  -30.1068   22.4362 C   0  0  0  0  0  0  0  0  0  0  0  0
  -24.9367  -36.6884   20.3775 C   0  0  0  0  0  0  0  0  0  0  0  0
  -29.6785  -12.2744   18.4147 C   0  0  0  0  0  0  0  0  0  0  0  0
  -25.6001  -35.8857   21.4921 C   0  0  0  0  0  0  0  0  0  0  0  0
  -28.2334  -11.9692   18.8155 C   0  0  0  0  0  0  0  0  0  0  0  0
  -30.5434  -12.6150   19.6269 C   0  0  0  0  0  0  0  0  0  0  0  0
  -28.5687  -13.3749   20.8888 C   0  0  0  0  0  0  0  0  0  0  0  0
  -26.5708  -34.8454   20.9202 C   0  0  1  0  0  0  0  0  0  0  0  0
  -24.6943  -31.5742   20.4607 C   0  0  1  0  0  0  0  0  0  0  0  0
  -27.6437  -13.0896   19.6944 C   0  0  2  0  0  0  0  0  0  0  0  0
  -33.1312  -20.3665   20.5586 C   0  0  0  0  0  0  0  0  0  0  0  0
  -34.0420  -19.4066   22.7043 C   0  0  0  0  0  0  0  0  0  0  0  0
  -17.8623  -28.3282   22.1312 C   0  0  0  0  0  0  0  0  0  0  0  0
  -22.0784  -33.1011   23.9516 C   0  0  0  0  0  0  0  0  0  0  0  0
  -20.0383  -31.7372   24.4474 C   0  0  0  0  0  0  0  0  0  0  0  0
  -20.0994  -33.1969   22.4255 C   0  0  0  0  0  0  0  0  0  0  0  0
  -20.6504  -26.8039   20.0385 C   0  0  0  0  0  0  0  0  0  0  0  0
  -28.8951  -23.3042   23.7727 C   0  0  0  0  0  0  0  0  0  0  0  0
  -28.3505  -25.7632   23.2777 C   0  0  0  0  0  0  0  0  0  1  0  0
  -32.7859  -19.9782   22.0123 C   0  0  0  0  0  0  0  0  0  0  0  0
  -21.4767  -31.0771   22.4659 C   0  0  1  0  0  0  0  0  0  0  0  0
  -19.1317  -28.3391   21.2938 C   0  0  2  0  0  0  0  0  0  0  0  0
  -20.9483  -32.2655   23.3180 C   0  0  0  0  0  0  0  0  0  0  0  0
  -25.8826  -11.4893   20.3416 N   0  0  0  0  0  0  0  0  0  0  0  0
  -26.2271  -12.7717   20.1351 N   0  0  0  0  0  0  0  0  0  0  0  0
  -23.7024  -31.0221   21.3857 N   0  0  0  0  0  0  0  0  0  0  0  0
  -29.9244  -13.6869   20.4097 N   0  0  0  0  0  0  0  0  0  0  0  0
  -25.3890  -14.9863   20.1984 N   0  0  0  0  0  0  0  0  0  0  0  0
  -21.8360  -12.4917   21.4432 N   0  0  0  0  0  0  0  0  0  0  0  0
  -30.0329  -20.5448   23.4341 N   0  0  0  0  0  0  0  0  0  0  0  0
  -29.9365  -15.8410   21.3700 N   0  0  0  0  0  0  0  0  0  0  0  0
  -25.8438  -33.7034   20.4084 N   0  0  0  0  0  0  0  0  0  0  0  0
  -20.4290  -30.2843   21.8316 N   0  0  0  0  0  0  0  0  0  0  0  0
  -19.4384  -26.9386   20.8870 N   0  3  0  0  0  0  0  0  0  0  0  0
  -22.5597  -14.6296   21.0380 O   0  0  0  0  0  0  0  0  0  0  0  0
  -28.5820  -22.1581   25.9024 O   0  0  0  0  0  0  0  0  0  0  0  0
  -27.8468  -20.0385   24.1876 O   0  0  0  0  0  0  0  0  0  0  0  0
  -25.6212  -32.5329   22.4092 O   0  0  0  0  0  0  0  0  0  0  0  0
  -27.4550  -24.6215   25.1917 O   0  0  0  0  0  0  0  0  0  0  0  0
  -21.9667  -32.2960   20.4909 O   0  0  0  0  0  0  0  0  0  0  0  0
  -21.0162  -28.2626   22.8037 O   0  0  0  0  0  0  0  0  0  0  0  0
  -31.7784  -15.0519   20.2011 O   0  0  0  0  0  0  0  0  0  0  0  0
  -21.7181   -6.9439   21.9372 O   0  0  0  0  0  0  0  0  0  0  0  0
  -27.6148  -26.8864   23.7609 O   0  0  0  0  0  0  0  0  0  1  0  0
  -18.5703   -7.0174   26.4637 F   0  0  0  0  0  0  0  0  0  0  0  0
  -22.1556   -5.1540   23.9981 F   0  0  0  0  0  0  0  0  0  0  0  0
  -29.3025  -18.1011   22.6513 S   0  0  0  0  0  0  0  0  0  0  0  0
  1  2  1  0  0  0  0
  1  5  2  0  0  0  0
  2  6  2  0  0  0  0
  3  8  2  0  0  0  0
  3 16  1  0  0  0  0
  4  9  1  0  0  0  0
  4 16  2  0  0  0  0
  5 18  1  0  0  0  0
  6 20  1  0  0  0  0
  7 10  2  0  0  0  0
  7 19  1  0  0  0  0
  8 23  1  0  0  0  0
  9 23  2  0  0  0  0
 10 24  1  0  0  0  0
 11 12  2  0  0  0  0
 11 25  1  0  0  0  0
 12 26  1  0  0  0  0
 13 21  1  0  0  0  0
 13 24  2  0  0  0  0
 14 22  1  0  0  0  0
 14 30  2  0  0  0  0
 15 26  2  0  0  0  0
 15 27  1  0  0  0  0
 16 28  1  0  0  0  0
 17 28  1  0  0  0  0
 17 29  2  0  0  0  0
 17 32  1  0  0  0  0
 18 20  2  0  0  0  0
 18 40  1  0  0  0  0
 19 21  2  0  0  0  0
 19 41  1  0  0  0  0
 20 49  1  0  0  0  0
 21 42  1  0  0  0  0
 22 31  2  0  0  0  0
 22 61  1  0  0  0  0
 23 84  1  0  0  0  0
 24 85  1  0  0  0  0
 25 27  2  0  0  0  0
 25 84  1  0  0  0  0
 26 86  1  0  0  0  0
 27 87  1  0  0  0  0
 28 65  2  0  0  0  0
 29 66  1  0  0  0  0
 29 69  1  0  0  0  0
 30 72  1  0  0  0  0
 30 88  1  0  0  0  0
 31 71  1  0  0  0  0
 31 88  1  0  0  0  0
 32 70  1  0  0  0  0
 32 76  2  0  0  0  0
 33 34  1  0  0  0  0
 33 59  1  0  0  0  0
 33 77  2  0  0  0  0
 34 71  1  0  0  0  0
 34 78  2  0  0  0  0
 35 50  1  0  0  0  0
 35 73  1  0  0  0  0
 35 79  2  0  0  0  0
 36 59  1  0  0  0  0
 36 60  1  0  0  0  0
 36 80  2  0  0  0  0
 37 62  1  0  0  0  0
 37 67  1  0  0  0  0
 37 81  2  0  0  0  0
 38 63  1  0  0  0  0
 38 74  1  0  0  0  0
 38 82  2  0  0  0  0
 39 68  1  0  0  0  0
 39 72  1  0  0  0  0
 39 83  2  0  0  0  0
 40 43  1  0  0  0  0
 41 50  1  0  0  0  0
 42 67  1  0  0  0  0
 43 45  1  0  0  0  0
 44 46  1  0  0  0  0
 44 47  1  0  0  0  0
 45 49  1  0  0  0  0
 46 51  1  0  0  0  0
 47 68  1  0  0  0  0
 48 51  1  0  0  0  0
 48 68  1  0  0  0  0
 49 73  1  0  0  0  0
 50 67  1  0  0  0  0
 51 66  1  0  0  0  0
 52 61  1  0  0  0  0
 53 61  1  0  0  0  0
 54 63  1  0  0  0  0
 55 64  1  0  0  0  0
 56 64  1  0  0  0  0
 57 64  1  0  0  0  0
 58 75  1  0  0  0  0
 60 85  1  0  0  0  0
 62 64  1  0  0  0  0
 62 74  1  0  0  0  0
 63 75  1  0  0  0  0
 65 66  1  0  0  0  0
M  CHG  1  75   1
M  ISO  4  39 100  60 101  72 100  85 101
M  END
> <Batch ID>
0176

> <Smiles>
CNC(C)C(=O)NC(C(=O)N1Cc2cc([101O:1][101CH2:1]C(=O)CC(=O)C(=O)Nc3sc([100NH:0][100C:0](=O)N4CCCC(n5nc(-c6ccc(Oc7ccc(F)cc7F)cc6)c(C(N)=O)c5N)C4)cc3C(C)C)ccc2CC1C(=O)NC1CCCc2ccccc21)C(C)(C)C

> <Shape>
0.282

> <Color>
0.194

> <Negative vol penalty>
0.000

$$$$

  -OEChem-04052304383D

 88 96  0     1  0  0  0  0  0999 V2000
  -24.5704  -11.1208   20.1311 C   0  0  0  0  0  0  0  0  0  0  0  0
  -24.0078  -12.3932   20.1372 C   0  0  0  0  0  0  0  0  0  0  0  0
  -30.1713  -28.6853   22.0925 C   0  0  0  0  0  0  0  0  0  0  0  0
  -28.7939  -26.7629   21.5983 C   0  0  0  0  0  0  0  0  0  0  0  0
  -25.8578  -10.9267   20.6300 C   0  0  0  0  0  0  0  0  0  0  0  0
  -24.7319  -13.4720   20.6433 C   0  0  0  0  0  0  0  0  0  0  0  0
  -24.4429  -17.5677   17.6790 C   0  0  0  0  0  0  0  0  0  0  0  0
  -31.1470  -27.8475   22.6326 C   0  0  0  0  0  0  0  0  0  0  0  0
  -29.7696  -25.9251   22.1384 C   0  0  0  0  0  0  0  0  0  0  0  0
  -23.2753  -18.3260   17.7529 C   0  0  0  0  0  0  0  0  0  0  0  0
  -33.6001  -25.8205   21.4896 C   0  0  0  0  0  0  0  0  0  0  0  0
  -34.9276  -26.0568   21.1324 C   0  0  0  0  0  0  0  0  0  0  0  0
  -24.3977  -19.9028   19.1927 C   0  0  0  0  0  0  0  0  0  0  0  0
  -35.4873  -26.4223   23.4541 C   0  0  0  0  0  0  0  0  0  0  0  0
  -18.2125  -28.3862   22.6838 C   0  0  0  0  0  0  0  0  0  0  0  0
  -28.9948  -28.1431   21.5754 C   0  0  0  0  0  0  0  0  0  0  0  0
  -27.8747  -29.4317   19.6800 C   0  0  0  0  0  0  0  0  0  0  0  0
  -26.6017  -12.0054   21.1336 C   0  0  0  0  0  0  0  0  0  0  0  0
  -25.5954  -17.9661   18.3714 C   0  0  0  0  0  0  0  0  0  0  0  0
  -26.0299  -13.2919   21.1507 C   0  0  0  0  0  0  0  0  0  0  0  0
  -25.5794  -19.1492   19.1239 C   0  0  0  0  0  0  0  0  0  0  0  0
  -19.3664  -26.5278   21.7504 C   0  0  0  0  0  0  0  0  0  0  0  0
  -30.9461  -26.4674   22.6555 C   0  0  0  0  0  0  0  0  0  0  0  0
  -23.2517  -19.4922   18.5121 C   0  0  0  0  0  0  0  0  0  0  0  0
  -33.2162  -25.8851   22.8291 C   0  0  0  0  0  0  0  0  0  0  0  0
  -35.8711  -26.3577   22.1147 C   0  0  0  0  0  0  0  0  0  0  0  0
  -34.1598  -26.1860   23.8113 C   0  0  0  0  0  0  0  0  0  0  0  0
  -18.1679  -27.1086   22.1496 C   0  0  0  0  0  0  0  0  0  0  0  0
  -20.5563  -27.2325   21.8955 C   0  0  0  0  0  0  0  0  0  0  0  0
  -27.9863  -29.0081   21.0179 C   0  0  0  0  0  0  0  0  0  0  0  0
  -20.4940  -28.5047   22.4409 C   0  0  0  0  0  0  0  0  0  0  0  0
  -26.7595  -30.2334   19.6656 C   0  0  0  0  0  0  0  0  0  0  0  0
  -20.0051  -22.3297   20.8111 C   0  0  0  0  0  0  0  0  0  0  0  0
  -28.7048  -29.1276   18.5512 C   0  0  0  0  0  0  0  0  0  0  0  0
  -18.8231  -22.9574   20.7020 C   0  0  0  0  0  0  0  0  0  0  0  0
  -20.4137  -21.0970   20.0714 C   0  0  0  0  0  0  0  0  0  0  0  0
  -18.4949  -24.1887   21.4805 C   0  0  0  0  0  0  0  0  0  0  0  0
  -27.3700  -16.7040   20.6869 C   0  0  0  0  0  0  0  0  0  0  0  0
  -29.2817  -19.2529   20.0783 C   0  0  0  0  0  0  0  0  0  0  0  0
  -29.5789  -22.4247   18.8543 C   0  0  0  0  0  0  0  0  0  0  0  0
  -21.8798  -30.5013   23.1039 C   0  0  0  0  0  0  0  0  0  0  0  0
  -27.9714  -11.7383   21.7058 C   0  0  0  0  0  0  0  0  0  0  0  0
  -26.8548  -17.1513   18.2599 C   0  0  0  0  0  0  0  0  0  0  0  0
  -26.7959  -19.6312   19.8696 C   0  0  0  0  0  0  0  0  0  0  0  0
  -28.8151  -12.9985   21.8797 C   0  0  0  0  0  0  0  0  0  0  0  0
  -24.1959  -33.1338   22.4851 C   0  0  0  0  0  0  0  0  0  0  0  0
  -27.9951  -14.1033   22.5384 C   0  0  0  0  0  0  0  0  0  0  0  0
  -25.4183  -32.4137   21.9112 C   0  0  0  0  0  0  0  0  0  0  0  0
  -23.5146  -32.3117   23.5778 C   0  0  0  0  0  0  0  0  0  0  0  0
  -24.3902  -30.2170   22.6214 C   0  0  0  0  0  0  0  0  0  0  0  0
  -26.7934  -14.4916   21.6686 C   0  0  1  0  0  0  0  0  0  0  0  0
  -27.8180  -17.3781   19.4210 C   0  0  1  0  0  0  0  0  0  0  0  0
  -25.0717  -30.9775   21.4721 C   0  0  2  0  0  0  0  0  0  0  0  0
  -17.7285  -22.4722   19.8004 C   0  0  0  0  0  0  0  0  0  0  0  0
  -30.7095  -24.5457   18.1328 C   0  0  0  0  0  0  0  0  0  0  0  0
  -29.1320  -19.9168   23.0526 C   0  0  0  0  0  0  0  0  0  0  0  0
  -29.9932  -22.2051   22.5140 C   0  0  0  0  0  0  0  0  0  0  0  0
  -31.3979  -20.2007   22.0331 C   0  0  0  0  0  0  0  0  0  0  0  0
  -30.0338  -21.3887   16.1196 C   0  0  0  0  0  0  0  0  0  0  0  0
  -21.8961  -20.9719   19.7883 C   0  0  0  0  0  0  0  0  0  1  0  0
  -29.3723  -20.6687   20.5944 C   0  0  1  0  0  0  0  0  0  0  0  0
  -30.5854  -23.0474   17.9037 C   0  0  2  0  0  0  0  0  0  0  0  0
  -29.9502  -20.7380   22.0362 C   0  0  0  0  0  0  0  0  0  0  0  0
  -19.3487  -29.1018   22.8404 N   0  0  0  0  0  0  0  0  0  0  0  0
  -27.0193  -29.5001   21.7969 N   0  0  0  0  0  0  0  0  0  0  0  0
  -26.2895  -30.2412   20.9459 N   0  0  0  0  0  0  0  0  0  0  0  0
  -28.0012  -18.7966   19.7345 N   0  0  0  0  0  0  0  0  0  0  0  0
  -23.2124  -30.9648   23.0886 N   0  0  0  0  0  0  0  0  0  0  0  0
  -26.1450  -30.9254   18.6828 N   0  0  0  0  0  0  0  0  0  0  0  0
  -29.8103  -28.2875   18.7418 N   0  0  0  0  0  0  0  0  0  0  0  0
  -19.3745  -25.2239   21.2005 N   0  0  0  0  0  0  0  0  0  0  0  0
  -21.7096  -29.2185   22.5842 N   0  0  0  0  0  0  0  0  0  0  0  0
  -27.2153  -15.3357   20.5714 N   0  0  0  0  0  0  0  0  0  0  0  0
  -30.1425  -21.4152   19.6055 N   0  0  0  0  0  0  0  0  0  0  0  0
  -30.1719  -22.8207   16.4900 N   0  3  0  0  0  0  0  0  0  0  0  0
  -28.4825  -29.6005   17.4108 O   0  0  0  0  0  0  0  0  0  0  0  0
  -19.6033  -20.2513   19.7046 O   0  0  0  0  0  0  0  0  0  0  0  0
  -17.5191  -24.1907   22.2218 O   0  0  0  0  0  0  0  0  0  0  0  0
  -27.1801  -17.3753   21.6944 O   0  0  0  0  0  0  0  0  0  0  0  0
  -30.3100  -18.5792   19.9769 O   0  0  0  0  0  0  0  0  0  0  0  0
  -28.4105  -22.7992   18.9261 O   0  0  0  0  0  0  0  0  0  0  0  0
  -20.9537  -31.2019   23.5203 O   0  0  0  0  0  0  0  0  0  0  0  0
  -31.8981  -25.6495   23.1822 O   0  0  0  0  0  0  0  0  0  0  0  0
  -22.1132  -20.2339   18.5864 O   0  0  0  0  0  0  0  0  0  1  0  0
  -37.1462  -26.5831   21.7717 F   0  0  0  0  0  0  0  0  0  0  0  0
  -33.7971  -26.2483   25.0999 F   0  0  0  0  0  0  0  0  0  0  0  0
  -17.0020  -26.4618   22.0269 F   0  0  0  0  0  0  0  0  0  0  0  0
  -21.7243  -26.6957   21.5160 F   0  0  0  0  0  0  0  0  0  0  0  0
  1  2  1  0  0  0  0
  1  5  2  0  0  0  0
  2  6  2  0  0  0  0
  3  8  2  0  0  0  0
  3 16  1  0  0  0  0
  4  9  1  0  0  0  0
  4 16  2  0  0  0  0
  5 18  1  0  0  0  0
  6 20  1  0  0  0  0
  7 10  2  0  0  0  0
  7 19  1  0  0  0  0
  8 23  1  0  0  0  0
  9 23  2  0  0  0  0
 10 24  1  0  0  0  0
 11 12  2  0  0  0  0
 11 25  1  0  0  0  0
 12 26  1  0  0  0  0
 13 21  1  0  0  0  0
 13 24  2  0  0  0  0
 14 26  2  0  0  0  0
 14 27  1  0  0  0  0
 15 28  2  0  0  0  0
 15 64  1  0  0  0  0
 16 30  1  0  0  0  0
 17 30  1  0  0  0  0
 17 32  2  0  0  0  0
 17 34  1  0  0  0  0
 18 20  2  0  0  0  0
 18 42  1  0  0  0  0
 19 21  2  0  0  0  0
 19 43  1  0  0  0  0
 20 51  1  0  0  0  0
 21 44  1  0  0  0  0
 22 28  1  0  0  0  0
 22 29  2  0  0  0  0
 22 71  1  0  0  0  0
 23 83  1  0  0  0  0
 24 84  1  0  0  0  0
 25 27  2  0  0  0  0
 25 83  1  0  0  0  0
 26 85  1  0  0  0  0
 27 86  1  0  0  0  0
 28 87  1  0  0  0  0
 29 31  1  0  0  0  0
 29 88  1  0  0  0  0
 30 65  2  0  0  0  0
 31 64  2  0  0  0  0
 31 72  1  0  0  0  0
 32 66  1  0  0  0  0
 32 69  1  0  0  0  0
 33 35  2  0  0  0  0
 33 36  1  0  0  0  0
 34 70  1  0  0  0  0
 34 76  2  0  0  0  0
 35 37  1  0  0  0  0
 35 54  1  0  0  0  0
 36 60  1  0  0  0  0
 36 77  2  0  0  0  0
 37 71  1  0  0  0  0
 37 78  2  0  0  0  0
 38 52  1  0  0  0  0
 38 73  1  0  0  0  0
 38 79  2  0  0  0  0
 39 61  1  0  0  0  0
 39 67  1  0  0  0  0
 39 80  2  0  0  0  0
 40 62  1  0  0  0  0
 40 74  1  0  0  0  0
 40 81  2  0  0  0  0
 41 68  1  0  0  0  0
 41 72  1  0  0  0  0
 41 82  2  0  0  0  0
 42 45  1  0  0  0  0
 43 52  1  0  0  0  0
 44 67  1  0  0  0  0
 45 47  1  0  0  0  0
 46 48  1  0  0  0  0
 46 49  1  0  0  0  0
 47 51  1  0  0  0  0
 48 53  1  0  0  0  0
 49 68  1  0  0  0  0
 50 53  1  0  0  0  0
 50 68  1  0  0  0  0
 51 73  1  0  0  0  0
 52 67  1  0  0  0  0
 53 66  1  0  0  0  0
 55 62  1  0  0  0  0
 56 63  1  0  0  0  0
 57 63  1  0  0  0  0
 58 63  1  0  0  0  0
 59 75  1  0  0  0  0
 60 84  1  0  0  0  0
 61 63  1  0  0  0  0
 61 74  1  0  0  0  0
 62 75  1  0  0  0  0
 65 66  1  0  0  0  0
M  CHG  1  75   1
M  ISO  4  41 100  60 101  72 100  84 101
M  END
> <Batch ID>
0176

> <Smiles>
CNC(C)C(=O)NC(C(=O)N1Cc2cc([101O:1][101CH2:1]C(=O)C=C(C)C(=O)Nc3c(F)cnc([100NH:0][100C:0](=O)N4CCCC(n5nc(-c6ccc(Oc7ccc(F)cc7F)cc6)c(C(N)=O)c5N)C4)c3F)ccc2CC1C(=O)NC1CCCc2ccccc21)C(C)(C)C

> <Shape>
0.240

> <Color>
0.069

> <Negative vol penalty>
0.000

$$$$

  -OEChem-04052304383D

 83 91  0     1  0  0  0  0  0999 V2000
  -32.5822  -32.4569   16.3706 C   0  0  0  0  0  0  0  0  0  0  0  0
  -32.4101  -31.5296   17.3932 C   0  0  0  0  0  0  0  0  0  0  0  0
  -23.1360   -9.7773   20.1896 C   0  0  0  0  0  0  0  0  0  0  0  0
  -23.7820  -10.1080   22.4941 C   0  0  0  0  0  0  0  0  0  0  0  0
  -31.8201  -33.6244   16.3541 C   0  0  0  0  0  0  0  0  0  0  0  0
  -31.4764  -31.7697   18.4007 C   0  0  0  0  0  0  0  0  0  0  0  0
  -28.6737  -27.6883   19.4647 C   0  0  0  0  0  0  0  0  0  0  0  0
  -22.4008   -8.6504   20.5574 C   0  0  0  0  0  0  0  0  0  0  0  0
  -23.0468   -8.9811   22.8619 C   0  0  0  0  0  0  0  0  0  0  0  0
  -29.2610  -26.7008   20.2544 C   0  0  0  0  0  0  0  0  0  0  0  0
  -19.8072   -8.1944   23.4157 C   0  0  0  0  0  0  0  0  0  0  0  0
  -18.9944   -8.2930   24.5450 C   0  0  0  0  0  0  0  0  0  0  0  0
  -28.0870  -27.5524   22.1820 C   0  0  0  0  0  0  0  0  0  0  0  0
  -20.2315   -6.5011   25.5918 C   0  0  0  0  0  0  0  0  0  0  0  0
  -23.8267  -10.5060   21.1580 C   0  0  0  0  0  0  0  0  0  0  0  0
  -24.1303  -13.0000   20.7158 C   0  0  0  0  0  0  0  0  0  0  0  0
  -30.8698  -33.8743   17.3566 C   0  0  0  0  0  0  0  0  0  0  0  0
  -27.7955  -28.6236   20.0309 C   0  0  0  0  0  0  0  0  0  0  0  0
  -30.7018  -32.9422   18.3984 C   0  0  0  0  0  0  0  0  0  0  0  0
  -27.4878  -28.5492   21.3969 C   0  0  0  0  0  0  0  0  0  0  0  0
  -22.3562   -8.2524   21.8936 C   0  0  0  0  0  0  0  0  0  0  0  0
  -28.9700  -26.6345   21.6138 C   0  0  0  0  0  0  0  0  0  0  0  0
  -20.8321   -7.2491   23.3744 C   0  0  0  0  0  0  0  0  0  0  0  0
  -19.2066   -7.4464   25.6330 C   0  0  0  0  0  0  0  0  0  0  0  0
  -21.0442   -6.4025   24.4624 C   0  0  0  0  0  0  0  0  0  0  0  0
  -24.5868  -11.6698   20.7786 C   0  0  0  0  0  0  0  0  0  0  0  0
  -30.4495  -19.5059   22.3273 C   0  0  0  0  0  0  0  0  0  0  0  0
  -31.5928  -19.0693   21.6914 C   0  0  0  0  0  0  0  0  0  0  0  0
  -25.2258  -13.7201   20.3062 C   0  0  0  0  0  0  0  0  0  0  0  0
  -30.4044  -17.2330   21.5308 C   0  0  0  0  0  0  0  0  0  0  0  0
  -30.1254  -21.9442   22.2047 C   0  0  0  0  0  0  0  0  0  0  0  0
  -22.8320  -13.5368   21.0023 C   0  0  0  0  0  0  0  0  0  0  0  0
  -30.1256  -20.8129   22.9325 C   0  0  0  0  0  0  0  0  0  0  0  0
  -29.8015  -23.2968   22.7511 C   0  0  0  0  0  0  0  0  0  0  0  0
  -27.7955  -31.7847   20.3647 C   0  0  0  0  0  0  0  0  0  0  0  0
  -24.8053  -31.2729   21.5132 C   0  0  0  0  0  0  0  0  0  0  0  0
  -22.5883  -29.1233   22.9661 C   0  0  0  0  0  0  0  0  0  0  0  0
  -30.6580  -14.9089   20.5924 C   0  0  0  0  0  0  0  0  0  0  0  0
  -30.1030  -35.1726   17.3225 C   0  0  0  0  0  0  0  0  0  0  0  0
  -27.1494  -29.6662   19.1602 C   0  0  0  0  0  0  0  0  0  0  0  0
  -26.5359  -29.5170   22.0492 C   0  0  0  0  0  0  0  0  0  0  0  0
  -28.8698  -35.1755   18.2222 C   0  0  0  0  0  0  0  0  0  0  0  0
  -29.7032  -12.1753   18.5205 C   0  0  0  0  0  0  0  0  0  0  0  0
  -29.2112  -34.6112   19.5977 C   0  0  0  0  0  0  0  0  0  0  0  0
  -28.2494  -11.9095   18.9181 C   0  0  0  0  0  0  0  0  0  0  0  0
  -30.5540  -12.5838   19.7217 C   0  0  0  0  0  0  0  0  0  0  0  0
  -28.5693  -13.4405   20.9033 C   0  0  0  0  0  0  0  0  0  0  0  0
  -29.6814  -33.1552   19.4955 C   0  0  1  0  0  0  0  0  0  0  0  0
  -26.6689  -30.8842   19.9431 C   0  0  1  0  0  0  0  0  0  0  0  0
  -27.6586  -13.0888   19.7155 C   0  0  2  0  0  0  0  0  0  0  0  0
  -20.2311  -29.0031   23.8186 C   0  0  0  0  0  0  0  0  0  0  0  0
  -25.6270  -32.8402   23.9989 C   0  0  0  0  0  0  0  0  0  0  0  0
  -23.6292  -31.8914   25.1723 C   0  0  0  0  0  0  0  0  0  0  0  0
  -23.3229  -33.3401   23.1648 C   0  0  0  0  0  0  0  0  0  0  0  0
  -21.8753  -26.9964   21.0355 C   0  0  0  0  0  0  0  0  0  0  0  0
  -29.8621  -24.4343   21.7527 C   0  0  0  0  0  0  0  0  0  1  0  0
  -24.2164  -30.9928   22.8747 C   0  0  1  0  0  0  0  0  0  0  0  0
  -21.1491  -28.7792   22.6270 C   0  0  2  0  0  0  0  0  0  0  0  0
  -24.2184  -32.2489   23.7911 C   0  0  0  0  0  0  0  0  0  0  0  0
  -25.8721  -11.5491   20.4361 N   0  0  0  0  0  0  0  0  0  0  0  0
  -31.5689  -17.7661   21.2344 N   0  0  0  0  0  0  0  0  0  0  0  0
  -26.2326  -12.8127   20.1541 N   0  0  0  0  0  0  0  0  0  0  0  0
  -25.9346  -30.5221   21.1571 N   0  0  0  0  0  0  0  0  0  0  0  0
  -29.9349  -13.7088   20.4259 N   0  0  0  0  0  0  0  0  0  0  0  0
  -32.6964  -19.8337   21.5038 N   0  0  0  0  0  0  0  0  0  0  0  0
  -25.4165  -15.0345   20.0649 N   0  0  0  0  0  0  0  0  0  0  0  0
  -21.8206  -12.6570   21.4113 N   0  0  0  0  0  0  0  0  0  0  0  0
  -29.9553  -15.9192   21.2483 N   0  0  0  0  0  0  0  0  0  0  0  0
  -28.5506  -32.2704   19.3143 N   0  0  0  0  0  0  0  0  0  0  0  0
  -22.8923  -30.4277   22.6384 N   0  0  0  0  0  0  0  0  0  0  0  0
  -21.0416  -27.3518   22.2126 N   0  3  0  0  0  0  0  0  0  0  0  0
  -22.5719  -14.7581   20.8828 O   0  0  0  0  0  0  0  0  0  0  0  0
  -29.5069  -23.4742   23.9294 O   0  0  0  0  0  0  0  0  0  0  0  0
  -27.9660  -32.0224   21.5547 O   0  0  0  0  0  0  0  0  0  0  0  0
  -24.2783  -32.1214   20.7893 O   0  0  0  0  0  0  0  0  0  0  0  0
  -23.3639  -28.3168   23.4744 O   0  0  0  0  0  0  0  0  0  0  0  0
  -31.8056  -15.0405   20.1592 O   0  0  0  0  0  0  0  0  0  0  0  0
  -29.8128  -20.7426   24.2738 O   0  0  0  0  0  0  0  0  0  0  0  0
  -21.6387   -7.1530   22.2529 O   0  0  0  0  0  0  0  0  0  0  0  0
  -29.5425  -25.6720   22.3870 O   0  0  0  0  0  0  0  0  0  1  0  0
  -18.4270   -7.5422   26.7180 F   0  0  0  0  0  0  0  0  0  0  0  0
  -22.0280   -5.4931   24.4291 F   0  0  0  0  0  0  0  0  0  0  0  0
  -29.2902  -18.2424   22.3583 S   0  0  0  0  0  0  0  0  0  0  0  0
  1  2  1  0  0  0  0
  1  5  2  0  0  0  0
  2  6  2  0  0  0  0
  3  8  2  0  0  0  0
  3 15  1  0  0  0  0
  4  9  1  0  0  0  0
  4 15  2  0  0  0  0
  5 17  1  0  0  0  0
  6 19  1  0  0  0  0
  7 10  2  0  0  0  0
  7 18  1  0  0  0  0
  8 21  1  0  0  0  0
  9 21  2  0  0  0  0
 10 22  1  0  0  0  0
 11 12  2  0  0  0  0
 11 23  1  0  0  0  0
 12 24  1  0  0  0  0
 13 20  1  0  0  0  0
 13 22  2  0  0  0  0
 14 24  2  0  0  0  0
 14 25  1  0  0  0  0
 15 26  1  0  0  0  0
 16 26  1  0  0  0  0
 16 29  2  0  0  0  0
 16 32  1  0  0  0  0
 17 19  2  0  0  0  0
 17 39  1  0  0  0  0
 18 20  2  0  0  0  0
 18 40  1  0  0  0  0
 19 48  1  0  0  0  0
 20 41  1  0  0  0  0
 21 79  1  0  0  0  0
 22 80  1  0  0  0  0
 23 25  2  0  0  0  0
 23 79  1  0  0  0  0
 24 81  1  0  0  0  0
 25 82  1  0  0  0  0
 26 60  2  0  0  0  0
 27 28  2  0  0  0  0
 27 33  1  0  0  0  0
 27 83  1  0  0  0  0
 28 61  1  0  0  0  0
 28 65  1  0  0  0  0
 29 62  1  0  0  0  0
 29 66  1  0  0  0  0
 30 61  2  0  0  0  0
 30 68  1  0  0  0  0
 30 83  1  0  0  0  0
 31 33  2  0  0  0  0
 31 34  1  0  0  0  0
 32 67  1  0  0  0  0
 32 72  2  0  0  0  0
 33 78  1  0  0  0  0
 34 56  1  0  0  0  0
 34 73  2  0  0  0  0
 35 49  1  0  0  0  0
 35 69  1  0  0  0  0
 35 74  2  0  0  0  0
 36 57  1  0  0  0  0
 36 63  1  0  0  0  0
 36 75  2  0  0  0  0
 37 58  1  0  0  0  0
 37 70  1  0  0  0  0
 37 76  2  0  0  0  0
 38 64  1  0  0  0  0
 38 68  1  0  0  0  0
 38 77  2  0  0  0  0
 39 42  1  0  0  0  0
 40 49  1  0  0  0  0
 41 63  1  0  0  0  0
 42 44  1  0  0  0  0
 43 45  1  0  0  0  0
 43 46  1  0  0  0  0
 44 48  1  0  0  0  0
 45 50  1  0  0  0  0
 46 64  1  0  0  0  0
 47 50  1  0  0  0  0
 47 64  1  0  0  0  0
 48 69  1  0  0  0  0
 49 63  1  0  0  0  0
 50 62  1  0  0  0  0
 51 58  1  0  0  0  0
 52 59  1  0  0  0  0
 53 59  1  0  0  0  0
 54 59  1  0  0  0  0
 55 71  1  0  0  0  0
 56 80  1  0  0  0  0
 57 59  1  0  0  0  0
 57 70  1  0  0  0  0
 58 71  1  0  0  0  0
 60 62  1  0  0  0  0
M  CHG  1  71   1
M  ISO  4  38 100  56 101  68 100  80 101
M  END
> <Batch ID>
0176

> <Smiles>
CNC(C)C(=O)NC(C(=O)N1Cc2cc([101O:1][101CH2:1]C(=O)CC(=O)c3sc([100NH:0][100C:0](=O)N4CCCC(n5nc(-c6ccc(Oc7ccc(F)cc7F)cc6)c(C(N)=O)c5N)C4)nc3N)ccc2CC1C(=O)NC1CCCc2ccccc21)C(C)(C)C

> <Shape>
0.310

> <Color>
0.187

> <Negative vol penalty>
0.000

$$$$

  -OEChem-04052304383D

 87 95  0     1  0  0  0  0  0999 V2000
  -28.5742  -39.0515   25.0680 C   0  0  0  0  0  0  0  0  0  0  0  0
  -28.9542  -37.9328   24.3335 C   0  0  0  0  0  0  0  0  0  0  0  0
  -24.9669   -7.3929   20.0269 C   0  0  0  0  0  0  0  0  0  0  0  0
  -23.3535   -8.9893   19.1989 C   0  0  0  0  0  0  0  0  0  0  0  0
  -27.4448  -38.9977   25.8838 C   0  0  0  0  0  0  0  0  0  0  0  0
  -28.2058  -36.7592   24.4153 C   0  0  0  0  0  0  0  0  0  0  0  0
  -26.1749  -31.1453   20.4559 C   0  0  0  0  0  0  0  0  0  0  0  0
  -23.9376   -6.6570   20.6138 C   0  0  0  0  0  0  0  0  0  0  0  0
  -22.3242   -8.2533   19.7858 C   0  0  0  0  0  0  0  0  0  0  0  0
  -26.1674  -29.7515   20.4873 C   0  0  0  0  0  0  0  0  0  0  0  0
  -21.7684   -4.5520   22.6355 C   0  0  0  0  0  0  0  0  0  0  0  0
  -21.9567   -4.0974   23.9407 C   0  0  0  0  0  0  0  0  0  0  0  0
  -24.1902  -29.7993   21.8684 C   0  0  0  0  0  0  0  0  0  0  0  0
  -22.2072   -6.3777   24.6987 C   0  0  0  0  0  0  0  0  0  0  0  0
  -24.6749   -8.5590   19.3194 C   0  0  0  0  0  0  0  0  0  0  0  0
  -26.2563   -9.1699   17.4132 C   0  0  0  0  0  0  0  0  0  0  0  0
  -26.6766  -37.8258   25.9683 C   0  0  0  0  0  0  0  0  0  0  0  0
  -25.1948  -31.8780   21.1407 C   0  0  0  0  0  0  0  0  0  0  0  0
  -27.0659  -36.6891   25.2341 C   0  0  0  0  0  0  0  0  0  0  0  0
  -24.1860  -31.2023   21.8420 C   0  0  0  0  0  0  0  0  0  0  0  0
  -22.6162   -7.0872   20.4933 C   0  0  0  0  0  0  0  0  0  0  0  0
  -25.1766  -29.0783   21.1960 C   0  0  0  0  0  0  0  0  0  0  0  0
  -21.7995   -5.9194   22.3619 C   0  0  0  0  0  0  0  0  0  0  0  0
  -22.1761   -5.0103   24.9723 C   0  0  0  0  0  0  0  0  0  0  0  0
  -22.0188   -6.8323   23.3935 C   0  0  0  0  0  0  0  0  0  0  0  0
  -25.7378   -9.3200   18.7134 C   0  0  0  0  0  0  0  0  0  0  0  0
  -25.0801  -18.6654   18.2431 C   0  0  0  0  0  0  0  0  0  0  0  0
  -26.2645  -19.0765   18.8178 C   0  0  0  0  0  0  0  0  0  0  0  0
  -27.2423  -10.1219   17.3247 C   0  0  0  0  0  0  0  0  0  0  0  0
  -26.4842  -16.9154   19.1198 C   0  0  0  0  0  0  0  0  0  0  0  0
  -25.8801   -8.2521   16.3779 C   0  0  0  0  0  0  0  0  0  0  0  0
  -27.9465  -22.3994   19.3436 C   0  0  0  0  0  0  0  0  0  0  0  0
  -27.8388  -20.9067   19.4616 C   0  0  0  0  0  0  0  0  0  0  0  0
  -25.2228  -33.9820   23.5231 C   0  0  0  0  0  0  0  0  0  0  0  0
  -26.0426  -25.5404   20.6273 C   0  0  0  0  0  0  0  0  0  0  0  0
  -22.0651  -34.2301   22.8231 C   0  0  0  0  0  0  0  0  0  0  0  0
  -19.2772  -32.8028   21.4679 C   0  0  0  0  0  0  0  0  0  0  0  0
  -28.1587  -15.3221   20.1218 C   0  0  0  0  0  0  0  0  0  0  0  0
  -25.4911  -37.8005   26.9002 C   0  0  0  0  0  0  0  0  0  0  0  0
  -25.2013  -33.3806   21.0749 C   0  0  0  0  0  0  0  0  0  0  0  0
  -23.0992  -31.9420   22.5770 C   0  0  0  0  0  0  0  0  0  0  0  0
  -24.5381  -36.6363   26.6420 C   0  0  0  0  0  0  0  0  0  0  0  0
  -30.3718  -12.5345   20.0302 C   0  0  0  0  0  0  0  0  0  0  0  0
  -25.3168  -35.3347   26.4800 C   0  0  0  0  0  0  0  0  0  0  0  0
  -29.4832  -11.3814   19.5580 C   0  0  0  0  0  0  0  0  0  0  0  0
  -29.6178  -13.4904   20.9530 C   0  0  0  0  0  0  0  0  0  0  0  0
  -27.4641  -12.8522   19.9414 C   0  0  0  0  0  0  0  0  0  0  0  0
  -26.2655  -35.4055   25.2773 C   0  0  1  0  0  0  0  0  0  0  0  0
  -24.4532  -34.0327   22.2336 C   0  0  1  0  0  0  0  0  0  0  0  0
  -28.1611  -11.8983   18.9576 C   0  0  2  0  0  0  0  0  0  0  0  0
  -23.9982  -19.4525   17.6171 C   0  0  0  0  0  0  0  0  0  0  0  0
  -16.8358  -33.2323   21.0773 C   0  0  0  0  0  0  0  0  0  0  0  0
  -21.4958  -33.6553   25.7651 C   0  0  0  0  0  0  0  0  0  0  0  0
  -19.1236  -33.1589   25.1371 C   0  0  0  0  0  0  0  0  0  0  0  0
  -20.0625  -35.4380   24.7541 C   0  0  0  0  0  0  0  0  0  0  0  0
  -19.5964  -32.6222   18.5312 C   0  0  0  0  0  0  0  0  0  0  0  0
  -26.8805  -23.2071   20.0503 C   0  0  0  0  0  0  0  0  0  0  0  0
  -27.0849  -24.7107   19.8917 C   0  0  0  0  0  0  0  0  0  0  0  0
  -26.2029  -27.0439   20.5148 C   0  0  0  0  0  0  0  0  0  1  0  0
  -20.8104  -33.5255   23.2793 C   0  0  1  0  0  0  0  0  0  0  0  0
  -18.2387  -33.3414   20.5005 C   0  0  2  0  0  0  0  0  0  0  0  0
  -20.3946  -33.9302   24.7218 C   0  0  0  0  0  0  0  0  0  0  0  0
  -26.3445  -10.2908   19.4015 N   0  0  0  0  0  0  0  0  0  0  0  0
  -27.0708  -18.0745   19.3214 N   0  0  0  0  0  0  0  0  0  0  0  0
  -27.2544  -10.7592   18.5305 N   0  0  0  0  0  0  0  0  0  0  0  0
  -23.1523  -33.4106   22.4880 N   0  0  0  0  0  0  0  0  0  0  0  0
  -28.3786  -13.9420   20.3163 N   0  0  0  0  0  0  0  0  0  0  0  0
  -28.0917  -10.4675   16.3340 N   0  0  0  0  0  0  0  0  0  0  0  0
  -24.8470   -7.3407   16.6359 N   0  0  0  0  0  0  0  0  0  0  0  0
  -26.6710  -20.4281   18.9080 N   0  0  0  0  0  0  0  0  0  0  0  0
  -26.9609  -15.6298   19.4774 N   0  0  0  0  0  0  0  0  0  0  0  0
  -25.5315  -35.2244   24.0433 N   0  0  0  0  0  0  0  0  0  0  0  0
  -19.7970  -33.7996   22.2662 N   0  0  0  0  0  0  0  0  0  0  0  0
  -18.2805  -32.5810   19.2194 N   0  3  0  0  0  0  0  0  0  0  0  0
  -26.4544   -8.2295   15.2629 O   0  0  0  0  0  0  0  0  0  0  0  0
  -28.8861  -22.8433   18.7015 O   0  0  0  0  0  0  0  0  0  0  0  0
  -28.7757  -20.3307   19.9888 O   0  0  0  0  0  0  0  0  0  0  0  0
  -25.5136  -32.8961   24.0108 O   0  0  0  0  0  0  0  0  0  0  0  0
  -25.1235  -25.0341   21.2691 O   0  0  0  0  0  0  0  0  0  0  0  0
  -22.0778  -35.4620   22.7594 O   0  0  0  0  0  0  0  0  0  0  0  0
  -19.5927  -31.6158   21.5136 O   0  0  0  0  0  0  0  0  0  0  0  0
  -28.9854  -16.1671   20.4746 O   0  0  0  0  0  0  0  0  0  0  0  0
  -21.6115   -6.3692   21.0657 O   0  0  0  0  0  0  0  0  0  0  0  0
  -25.1674  -27.7179   21.2289 O   0  0  0  0  0  0  0  0  0  1  0  0
  -22.3554   -4.5737   26.2258 F   0  0  0  0  0  0  0  0  0  0  0  0
  -22.0486   -8.1473   23.1370 F   0  0  0  0  0  0  0  0  0  0  0  0
  -24.9615  -16.9566   18.3295 S   0  0  0  0  0  0  0  0  0  0  0  0
  1  2  1  0  0  0  0
  1  5  2  0  0  0  0
  2  6  2  0  0  0  0
  3  8  2  0  0  0  0
  3 15  1  0  0  0  0
  4  9  1  0  0  0  0
  4 15  2  0  0  0  0
  5 17  1  0  0  0  0
  6 19  1  0  0  0  0
  7 10  2  0  0  0  0
  7 18  1  0  0  0  0
  8 21  1  0  0  0  0
  9 21  2  0  0  0  0
 10 22  1  0  0  0  0
 11 12  2  0  0  0  0
 11 23  1  0  0  0  0
 12 24  1  0  0  0  0
 13 20  1  0  0  0  0
 13 22  2  0  0  0  0
 14 24  2  0  0  0  0
 14 25  1  0  0  0  0
 15 26  1  0  0  0  0
 16 26  1  0  0  0  0
 16 29  2  0  0  0  0
 16 31  1  0  0  0  0
 17 19  2  0  0  0  0
 17 39  1  0  0  0  0
 18 20  2  0  0  0  0
 18 40  1  0  0  0  0
 19 48  1  0  0  0  0
 20 41  1  0  0  0  0
 21 83  1  0  0  0  0
 22 84  1  0  0  0  0
 23 25  2  0  0  0  0
 23 83  1  0  0  0  0
 24 85  1  0  0  0  0
 25 86  1  0  0  0  0
 26 63  2  0  0  0  0
 27 28  2  0  0  0  0
 27 51  1  0  0  0  0
 27 87  1  0  0  0  0
 28 64  1  0  0  0  0
 28 70  1  0  0  0  0
 29 65  1  0  0  0  0
 29 68  1  0  0  0  0
 30 64  2  0  0  0  0
 30 71  1  0  0  0  0
 30 87  1  0  0  0  0
 31 69  1  0  0  0  0
 31 75  2  0  0  0  0
 32 33  1  0  0  0  0
 32 57  1  0  0  0  0
 32 76  2  0  0  0  0
 33 70  1  0  0  0  0
 33 77  2  0  0  0  0
 34 49  1  0  0  0  0
 34 72  1  0  0  0  0
 34 78  2  0  0  0  0
 35 58  1  0  0  0  0
 35 59  1  0  0  0  0
 35 79  2  0  0  0  0
 36 60  1  0  0  0  0
 36 66  1  0  0  0  0
 36 80  2  0  0  0  0
 37 61  1  0  0  0  0
 37 73  1  0  0  0  0
 37 81  2  0  0  0  0
 38 67  1  0  0  0  0
 38 71  1  0  0  0  0
 38 82  2  0  0  0  0
 39 42  1  0  0  0  0
 40 49  1  0  0  0  0
 41 66  1  0  0  0  0
 42 44  1  0  0  0  0
 43 45  1  0  0  0  0
 43 46  1  0  0  0  0
 44 48  1  0  0  0  0
 45 50  1  0  0  0  0
 46 67  1  0  0  0  0
 47 50  1  0  0  0  0
 47 67  1  0  0  0  0
 48 72  1  0  0  0  0
 49 66  1  0  0  0  0
 50 65  1  0  0  0  0
 52 61  1  0  0  0  0
 53 62  1  0  0  0  0
 54 62  1  0  0  0  0
 55 62  1  0  0  0  0
 56 74  1  0  0  0  0
 57 58  1  0  0  0  0
 59 84  1  0  0  0  0
 60 62  1  0  0  0  0
 60 73  1  0  0  0  0
 61 74  1  0  0  0  0
 63 65  1  0  0  0  0
M  CHG  1  74   1
M  ISO  4  38 100  59 101  71 100  84 101
M  END
> <Batch ID>
0176

> <Smiles>
CNC(C)C(=O)NC(C(=O)N1Cc2cc([101O:1][101CH2:1]C(=O)CCC(=O)C(=O)Nc3nc([100NH:0][100C:0](=O)N4CCCC(n5nc(-c6ccc(Oc7ccc(F)cc7F)cc6)c(C(N)=O)c5N)C4)sc3C)ccc2CC1C(=O)NC1CCCc2ccccc21)C(C)(C)C

> <Shape>
0.224

> <Color>
0.091

> <Negative vol penalty>
0.000

$$$$

  -OEChem-04052304383D

 85 93  0     1  0  0  0  0  0999 V2000
  -20.6522  -26.8574   21.6723 C   0  0  0  0  0  0  0  0  0  0  0  0
  -21.5771  -26.1865   20.8786 C   0  0  0  0  0  0  0  0  0  0  0  0
  -26.4275  -28.3946   19.0011 C   0  0  0  0  0  0  0  0  0  0  0  0
  -26.1353  -27.2914   21.1305 C   0  0  0  0  0  0  0  0  0  0  0  0
  -20.7876  -26.8458   23.0599 C   0  0  0  0  0  0  0  0  0  0  0  0
  -22.6387  -25.5045   21.4721 C   0  0  0  0  0  0  0  0  0  0  0  0
  -23.5713  -18.4423   20.4008 C   0  0  0  0  0  0  0  0  0  0  0  0
  -25.3936  -29.2763   19.3160 C   0  0  0  0  0  0  0  0  0  0  0  0
  -25.1014  -28.1732   21.4455 C   0  0  0  0  0  0  0  0  0  0  0  0
  -23.9389  -17.1364   20.0756 C   0  0  0  0  0  0  0  0  0  0  0  0
  -22.6255  -30.3616   22.9617 C   0  0  0  0  0  0  0  0  0  0  0  0
  -22.6144  -30.9190   24.2403 C   0  0  0  0  0  0  0  0  0  0  0  0
  -25.8045  -17.2685   21.6086 C   0  0  0  0  0  0  0  0  0  0  0  0
  -24.7775  -31.9123   23.8260 C   0  0  0  0  0  0  0  0  0  0  0  0
  -31.5953  -19.3812   21.2923 C   0  0  0  0  0  0  0  0  0  0  0  0
  -26.7983  -27.4021   19.9083 C   0  0  0  0  0  0  0  0  0  0  0  0
  -29.2370  -26.6550   19.8569 C   0  0  0  0  0  0  0  0  0  0  0  0
  -21.8460  -26.1551   23.6712 C   0  0  0  0  0  0  0  0  0  0  0  0
  -24.3108  -19.1617   21.3437 C   0  0  0  0  0  0  0  0  0  0  0  0
  -22.7892  -25.4847   22.8692 C   0  0  0  0  0  0  0  0  0  0  0  0
  -25.4337  -18.5725   21.9476 C   0  0  0  0  0  0  0  0  0  0  0  0
  -24.7306  -29.1656   20.5382 C   0  0  0  0  0  0  0  0  0  0  0  0
  -25.0529  -16.5511   20.6779 C   0  0  0  0  0  0  0  0  0  0  0  0
  -23.7127  -30.5795   22.1153 C   0  0  0  0  0  0  0  0  0  0  0  0
  -23.6904  -31.6943   24.6725 C   0  0  0  0  0  0  0  0  0  0  0  0
  -24.7886  -31.3548   22.5474 C   0  0  0  0  0  0  0  0  0  0  0  0
  -27.8659  -26.4905   19.5833 C   0  0  0  0  0  0  0  0  0  0  0  0
  -30.6126  -19.0861   20.3707 C   0  0  0  0  0  0  0  0  0  0  0  0
  -29.8262  -25.5219   19.3517 C   0  0  0  0  0  0  0  0  0  0  0  0
  -31.2038  -17.0388   20.8892 C   0  0  0  0  0  0  0  0  0  0  0  0
  -29.9171  -27.7355   20.5094 C   0  0  0  0  0  0  0  0  0  0  0  0
  -24.7304  -22.3642   23.2526 C   0  0  0  0  0  0  0  0  0  0  0  0
  -27.1392  -13.8800   19.4095 C   0  0  0  0  0  0  0  0  0  0  0  0
  -25.3219  -20.0767   25.2090 C   0  0  0  0  0  0  0  0  0  0  0  0
  -30.5068  -14.8891   19.7621 C   0  0  0  0  0  0  0  0  0  0  0  0
  -25.4834  -17.2731   27.1459 C   0  0  0  0  0  0  0  0  0  0  0  0
  -28.8521  -19.8614   18.7440 C   0  0  0  0  0  0  0  0  0  0  0  0
  -21.9777  -26.2105   25.1726 C   0  0  0  0  0  0  0  0  0  0  0  0
  -23.9878  -20.5924   21.6790 C   0  0  0  0  0  0  0  0  0  0  0  0
  -26.2199  -19.3963   22.9306 C   0  0  0  0  0  0  0  0  0  0  0  0
  -22.9185  -25.1512   25.7409 C   0  0  0  0  0  0  0  0  0  0  0  0
  -28.5288  -22.1147   16.0063 C   0  0  0  0  0  0  0  0  0  0  0  0
  -24.2130  -25.0995   24.9356 C   0  0  0  0  0  0  0  0  0  0  0  0
  -28.4589  -23.4897   16.6747 C   0  0  0  0  0  0  0  0  0  0  0  0
  -27.8067  -21.0477   16.8271 C   0  0  0  0  0  0  0  0  0  0  0  0
  -28.1542  -22.3320   18.9005 C   0  0  0  0  0  0  0  0  0  0  0  0
  -23.9402  -24.7128   23.4770 C   0  0  1  0  0  0  0  0  0  0  0  0
  -24.2596  -20.9430   23.1529 C   0  0  1  0  0  0  0  0  0  0  0  0
  -28.9233  -23.4267   18.1431 C   0  0  2  0  0  0  0  0  0  0  0  0
  -28.6584  -11.8876   19.5949 C   0  0  0  0  0  0  0  0  0  0  0  0
  -25.9010  -16.5312   29.5065 C   0  0  0  0  0  0  0  0  0  0  0  0
  -28.3107  -20.5498   24.8251 C   0  0  0  0  0  0  0  0  0  0  0  0
  -28.7322  -18.9697   26.7209 C   0  0  0  0  0  0  0  0  0  0  0  0
  -27.4565  -21.0766   27.1158 C   0  0  0  0  0  0  0  0  0  0  0  0
  -22.7852  -16.0781   27.3705 C   0  0  0  0  0  0  0  0  0  0  0  0
  -31.2564  -15.5341   20.9119 C   0  0  0  0  0  0  0  0  0  0  0  0
  -26.7899  -14.9446   20.4339 C   0  0  0  0  0  0  0  0  0  1  0  0
  -28.5819  -13.3820   19.3219 C   0  0  2  0  0  0  0  0  0  0  0  0
  -26.3650  -19.1879   25.8378 C   0  0  1  0  0  0  0  0  0  0  0  0
  -24.8505  -16.9349   28.4836 C   0  0  2  0  0  0  0  0  0  0  0  0
  -27.7012  -19.9376   26.1021 C   0  0  0  0  0  0  0  0  0  0  0  0
  -27.5998  -25.3434   18.9531 N   0  0  0  0  0  0  0  0  0  0  0  0
  -30.3870  -17.7435   20.1379 N   0  0  0  0  0  0  0  0  0  0  0  0
  -28.8119  -24.7768   18.8264 N   0  0  0  0  0  0  0  0  0  0  0  0
  -25.3034  -20.1384   23.8104 N   0  0  0  0  0  0  0  0  0  0  0  0
  -28.3013  -21.0435   18.2055 N   0  0  0  0  0  0  0  0  0  0  0  0
  -31.1080  -25.1002   19.3099 N   0  0  0  0  0  0  0  0  0  0  0  0
  -29.1598  -28.8221   20.9676 N   0  0  0  0  0  0  0  0  0  0  0  0
  -29.8586  -20.0713   19.6862 N   0  0  0  0  0  0  0  0  0  0  0  0
  -23.7095  -23.2884   23.3664 N   0  0  0  0  0  0  0  0  0  0  0  0
  -29.4536  -14.1009   20.2128 N   0  0  0  0  0  0  0  0  0  0  0  0
  -25.7511  -18.6211   27.0338 N   0  0  0  0  0  0  0  0  0  0  0  0
  -23.8864  -15.8088   28.3306 N   0  3  0  0  0  0  0  0  0  0  0  0
  -31.1616  -27.7448   20.6665 O   0  0  0  0  0  0  0  0  0  0  0  0
  -25.9316  -22.6058   23.2296 O   0  0  0  0  0  0  0  0  0  0  0  0
  -26.2878  -13.4573   18.6224 O   0  0  0  0  0  0  0  0  0  0  0  0
  -24.5470  -20.7047   25.9360 O   0  0  0  0  0  0  0  0  0  0  0  0
  -30.8028  -15.0554   18.5816 O   0  0  0  0  0  0  0  0  0  0  0  0
  -25.7202  -16.4257   26.2878 O   0  0  0  0  0  0  0  0  0  0  0  0
  -28.4789  -18.7449   18.3751 O   0  0  0  0  0  0  0  0  0  0  0  0
  -23.7218  -30.0260   20.8459 O   0  0  0  0  0  0  0  0  0  0  0  0
  -25.4035  -15.2743   20.3592 O   0  0  0  0  0  0  0  0  0  1  0  0
  -23.6789  -32.2308   25.8997 F   0  0  0  0  0  0  0  0  0  0  0  0
  -25.8353  -31.5686   21.7384 F   0  0  0  0  0  0  0  0  0  0  0  0
  -32.2696  -17.9260   21.9000 S   0  0  0  0  0  0  0  0  0  0  0  0
  1  2  1  0  0  0  0
  1  5  2  0  0  0  0
  2  6  2  0  0  0  0
  3  8  2  0  0  0  0
  3 16  1  0  0  0  0
  4  9  1  0  0  0  0
  4 16  2  0  0  0  0
  5 18  1  0  0  0  0
  6 20  1  0  0  0  0
  7 10  2  0  0  0  0
  7 19  1  0  0  0  0
  8 22  1  0  0  0  0
  9 22  2  0  0  0  0
 10 23  1  0  0  0  0
 11 12  2  0  0  0  0
 11 24  1  0  0  0  0
 12 25  1  0  0  0  0
 13 21  1  0  0  0  0
 13 23  2  0  0  0  0
 14 25  2  0  0  0  0
 14 26  1  0  0  0  0
 15 28  2  0  0  0  0
 15 85  1  0  0  0  0
 16 27  1  0  0  0  0
 17 27  1  0  0  0  0
 17 29  2  0  0  0  0
 17 31  1  0  0  0  0
 18 20  2  0  0  0  0
 18 38  1  0  0  0  0
 19 21  2  0  0  0  0
 19 39  1  0  0  0  0
 20 47  1  0  0  0  0
 21 40  1  0  0  0  0
 22 81  1  0  0  0  0
 23 82  1  0  0  0  0
 24 26  2  0  0  0  0
 24 81  1  0  0  0  0
 25 83  1  0  0  0  0
 26 84  1  0  0  0  0
 27 62  2  0  0  0  0
 28 63  1  0  0  0  0
 28 69  1  0  0  0  0
 29 64  1  0  0  0  0
 29 67  1  0  0  0  0
 30 56  1  0  0  0  0
 30 63  2  0  0  0  0
 30 85  1  0  0  0  0
 31 68  1  0  0  0  0
 31 74  2  0  0  0  0
 32 48  1  0  0  0  0
 32 70  1  0  0  0  0
 32 75  2  0  0  0  0
 33 57  1  0  0  0  0
 33 58  1  0  0  0  0
 33 76  2  0  0  0  0
 34 59  1  0  0  0  0
 34 65  1  0  0  0  0
 34 77  2  0  0  0  0
 35 56  1  0  0  0  0
 35 71  1  0  0  0  0
 35 78  2  0  0  0  0
 36 60  1  0  0  0  0
 36 72  1  0  0  0  0
 36 79  2  0  0  0  0
 37 66  1  0  0  0  0
 37 69  1  0  0  0  0
 37 80  2  0  0  0  0
 38 41  1  0  0  0  0
 39 48  1  0  0  0  0
 40 65  1  0  0  0  0
 41 43  1  0  0  0  0
 42 44  1  0  0  0  0
 42 45  1  0  0  0  0
 43 47  1  0  0  0  0
 44 49  1  0  0  0  0
 45 66  1  0  0  0  0
 46 49  1  0  0  0  0
 46 66  1  0  0  0  0
 47 70  1  0  0  0  0
 48 65  1  0  0  0  0
 49 64  1  0  0  0  0
 50 58  1  0  0  0  0
 51 60  1  0  0  0  0
 52 61  1  0  0  0  0
 53 61  1  0  0  0  0
 54 61  1  0  0  0  0
 55 73  1  0  0  0  0
 57 82  1  0  0  0  0
 58 71  1  0  0  0  0
 59 61  1  0  0  0  0
 59 72  1  0  0  0  0
 60 73  1  0  0  0  0
 62 64  1  0  0  0  0
M  CHG  1  73   1
M  ISO  4  37 100  57 101  69 100  82 101
M  END
> <Batch ID>
0176

> <Smiles>
CNC(C)C(=O)NC(C(=O)N1Cc2cc([101O:1][101CH2:1]C(=O)C(C)NC(=O)Cc3nc([100NH:0][100C:0](=O)N4CCCC(n5nc(-c6ccc(Oc7ccc(F)cc7F)cc6)c(C(N)=O)c5N)C4)cs3)ccc2CC1C(=O)NC1CCCc2ccccc21)C(C)(C)C

> <Shape>
0.224

> <Color>
0.070

> <Negative vol penalty>
0.000

$$$$

  -OEChem-04052304383D

 86 94  0     1  0  0  0  0  0999 V2000
  -26.1901  -34.8056   24.3798 C   0  0  0  0  0  0  0  0  0  0  0  0
  -26.7143  -33.5872   23.9600 C   0  0  0  0  0  0  0  0  0  0  0  0
  -24.3256   -8.7843   20.4403 C   0  0  0  0  0  0  0  0  0  0  0  0
  -22.9243  -10.6010   21.1973 C   0  0  0  0  0  0  0  0  0  0  0  0
  -24.8763  -34.8761   24.8411 C   0  0  0  0  0  0  0  0  0  0  0  0
  -25.9252  -32.4383   24.0024 C   0  0  0  0  0  0  0  0  0  0  0  0
  -26.3097  -29.6610   19.7853 C   0  0  0  0  0  0  0  0  0  0  0  0
  -23.5620   -7.8851   21.1847 C   0  0  0  0  0  0  0  0  0  0  0  0
  -22.1607   -9.7019   21.9416 C   0  0  0  0  0  0  0  0  0  0  0  0
  -27.4468  -28.8662   19.6479 C   0  0  0  0  0  0  0  0  0  0  0  0
  -20.5858   -6.3070   20.8930 C   0  0  0  0  0  0  0  0  0  0  0  0
  -20.2089   -5.1129   20.2786 C   0  0  0  0  0  0  0  0  0  0  0  0
  -26.1793  -26.9405   20.3581 C   0  0  0  0  0  0  0  0  0  0  0  0
  -28.2078  -18.7880   21.2702 C   0  0  0  0  0  0  0  0  0  0  0  0
  -21.3825   -3.8656   21.9827 C   0  0  0  0  0  0  0  0  0  0  0  0
  -24.0068  -10.1422   20.4467 C   0  0  0  0  0  0  0  0  0  0  0  0
  -24.5844  -11.4652   18.3434 C   0  0  0  0  0  0  0  0  0  0  0  0
  -24.0676  -33.7293   24.8800 C   0  0  0  0  0  0  0  0  0  0  0  0
  -25.0995  -29.1027   20.2214 C   0  0  0  0  0  0  0  0  0  0  0  0
  -24.5997  -32.4933   24.4659 C   0  0  0  0  0  0  0  0  0  0  0  0
  -25.0276  -27.7299   20.4978 C   0  0  0  0  0  0  0  0  0  0  0  0
  -27.2662  -17.8481   21.6741 C   0  0  0  0  0  0  0  0  0  0  0  0
  -22.4795   -8.3439   21.9353 C   0  0  0  0  0  0  0  0  0  0  0  0
  -27.3825  -27.5063   19.9370 C   0  0  0  0  0  0  0  0  0  0  0  0
  -21.3612   -6.2804   22.0523 C   0  0  0  0  0  0  0  0  0  0  0  0
  -20.6071   -3.8922   20.8234 C   0  0  0  0  0  0  0  0  0  0  0  0
  -21.7595   -5.0597   22.5971 C   0  0  0  0  0  0  0  0  0  0  0  0
  -25.9639  -18.2504   21.9487 C   0  0  0  0  0  0  0  0  0  0  0  0
  -24.7956  -11.0716   19.6784 C   0  0  0  0  0  0  0  0  0  0  0  0
  -27.7999  -20.1074   21.1570 C   0  0  0  0  0  0  0  0  0  0  0  0
  -25.6565  -19.5939   21.8054 C   0  0  0  0  0  0  0  0  0  0  0  0
  -25.5973  -12.3558   18.0837 C   0  0  0  0  0  0  0  0  0  0  0  0
  -23.5639  -11.0620   17.4206 C   0  0  0  0  0  0  0  0  0  0  0  0
  -29.7341  -23.1434   20.1413 C   0  0  0  0  0  0  0  0  0  0  0  0
  -29.6692  -24.6389   19.9006 C   0  0  0  0  0  0  0  0  0  0  0  0
  -23.1998  -29.5466   22.7309 C   0  0  0  0  0  0  0  0  0  0  0  0
  -21.2649  -27.4866   21.1388 C   0  0  0  0  0  0  0  0  0  0  0  0
  -20.9661  -24.9806   18.8415 C   0  0  0  0  0  0  0  0  0  0  0  0
  -28.8888  -15.9240   21.5678 C   0  0  0  0  0  0  0  0  0  0  0  0
  -22.6685  -33.8460   25.4311 C   0  0  0  0  0  0  0  0  0  0  0  0
  -23.8752  -29.9685   20.3389 C   0  0  0  0  0  0  0  0  0  0  0  0
  -23.7474  -27.0780   20.9498 C   0  0  0  0  0  0  0  0  0  0  0  0
  -21.7789  -32.6527   25.0920 C   0  0  0  0  0  0  0  0  0  0  0  0
  -30.0919  -13.3943   19.3699 C   0  0  0  0  0  0  0  0  0  0  0  0
  -22.5176  -31.3443   25.3549 C   0  0  0  0  0  0  0  0  0  0  0  0
  -28.8498  -12.5510   19.0733 C   0  0  0  0  0  0  0  0  0  0  0  0
  -30.1069  -13.8936   20.8136 C   0  0  0  0  0  0  0  0  0  0  0  0
  -27.6504  -13.7584   20.9417 C   0  0  0  0  0  0  0  0  0  0  0  0
  -23.7672  -31.2296   24.4735 C   0  0  1  0  0  0  0  0  0  0  0  0
  -22.8249  -29.3931   21.2840 C   0  0  1  0  0  0  0  0  0  0  0  0
  -27.5584  -13.2869   19.4812 C   0  0  2  0  0  0  0  0  0  0  0  0
  -19.2631  -23.4731   17.7811 C   0  0  0  0  0  0  0  0  0  0  0  0
  -21.1814  -25.7982   23.6790 C   0  0  0  0  0  0  0  0  0  0  0  0
  -20.2963  -23.9012   22.3056 C   0  0  0  0  0  0  0  0  0  0  0  0
  -18.9874  -26.0160   22.4985 C   0  0  0  0  0  0  0  0  0  0  0  0
  -21.5276  -26.0535   16.1410 C   0  0  0  0  0  0  0  0  0  0  0  0
  -28.4790  -22.4403   20.5898 C   0  0  0  0  0  0  0  0  0  0  0  0
  -28.3537  -25.3429   20.1176 C   0  0  0  0  0  0  0  0  0  1  0  0
  -21.0970  -25.9867   21.1054 C   0  0  1  0  0  0  0  0  0  0  0  0
  -20.0131  -24.7918   17.6751 C   0  0  2  0  0  0  0  0  0  0  0  0
  -20.4153  -25.4378   22.3905 C   0  0  0  0  0  0  0  0  0  0  0  0
  -25.8592  -11.6635   20.2284 N   0  0  0  0  0  0  0  0  0  0  0  0
  -26.5440  -20.5360   21.4152 N   0  0  0  0  0  0  0  0  0  0  0  0
  -26.3254  -12.4380   19.2340 N   0  0  0  0  0  0  0  0  0  0  0  0
  -22.5792  -27.9677   21.0555 N   0  0  0  0  0  0  0  0  0  0  0  0
  -28.8540  -14.5840   21.1272 N   0  0  0  0  0  0  0  0  0  0  0  0
  -24.3261  -19.9920   22.0874 N   0  0  0  0  0  0  0  0  0  0  0  0
  -25.9273  -13.0687   16.9858 N   0  0  0  0  0  0  0  0  0  0  0  0
  -22.6009  -10.1390   17.8508 N   0  0  0  0  0  0  0  0  0  0  0  0
  -27.6347  -16.4860   21.8040 N   0  0  0  0  0  0  0  0  0  0  0  0
  -28.7499  -21.0333   20.7535 N   0  0  0  0  0  0  0  0  0  0  0  0
  -23.4013  -30.8559   23.1240 N   0  0  0  0  0  0  0  0  0  0  0  0
  -20.3789  -25.6837   19.8721 N   0  0  0  0  0  0  0  0  0  0  0  0
  -20.7623  -24.8041   16.3869 N   0  3  0  0  0  0  0  0  0  0  0  0
  -23.5172  -11.4945   16.2440 O   0  0  0  0  0  0  0  0  0  0  0  0
  -30.8137  -22.5960   19.9555 O   0  0  0  0  0  0  0  0  0  0  0  0
  -30.6968  -25.1969   19.5377 O   0  0  0  0  0  0  0  0  0  0  0  0
  -23.2975  -28.5510   23.4387 O   0  0  0  0  0  0  0  0  0  0  0  0
  -20.2662  -28.2050   21.2282 O   0  0  0  0  0  0  0  0  0  0  0  0
  -22.1152  -24.5445   18.8402 O   0  0  0  0  0  0  0  0  0  0  0  0
  -29.9516  -16.5369   21.6980 O   0  0  0  0  0  0  0  0  0  0  0  0
  -21.7340   -7.4668   22.6615 O   0  0  0  0  0  0  0  0  0  0  0  0
  -28.4911  -26.7283   19.8043 O   0  0  0  0  0  0  0  0  0  1  0  0
  -20.2438   -2.7455   20.2342 F   0  0  0  0  0  0  0  0  0  0  0  0
  -22.5034   -5.0278   23.7113 F   0  0  0  0  0  0  0  0  0  0  0  0
  -25.0382  -17.3636   22.3399 F   0  0  0  0  0  0  0  0  0  0  0  0
  1  2  1  0  0  0  0
  1  5  2  0  0  0  0
  2  6  2  0  0  0  0
  3  8  2  0  0  0  0
  3 16  1  0  0  0  0
  4  9  1  0  0  0  0
  4 16  2  0  0  0  0
  5 18  1  0  0  0  0
  6 20  1  0  0  0  0
  7 10  2  0  0  0  0
  7 19  1  0  0  0  0
  8 23  1  0  0  0  0
  9 23  2  0  0  0  0
 10 24  1  0  0  0  0
 11 12  2  0  0  0  0
 11 25  1  0  0  0  0
 12 26  1  0  0  0  0
 13 21  1  0  0  0  0
 13 24  2  0  0  0  0
 14 22  2  0  0  0  0
 14 30  1  0  0  0  0
 15 26  2  0  0  0  0
 15 27  1  0  0  0  0
 16 29  1  0  0  0  0
 17 29  1  0  0  0  0
 17 32  2  0  0  0  0
 17 33  1  0  0  0  0
 18 20  2  0  0  0  0
 18 40  1  0  0  0  0
 19 21  2  0  0  0  0
 19 41  1  0  0  0  0
 20 49  1  0  0  0  0
 21 42  1  0  0  0  0
 22 28  1  0  0  0  0
 22 70  1  0  0  0  0
 23 82  1  0  0  0  0
 24 83  1  0  0  0  0
 25 27  2  0  0  0  0
 25 82  1  0  0  0  0
 26 84  1  0  0  0  0
 27 85  1  0  0  0  0
 28 31  2  0  0  0  0
 28 86  1  0  0  0  0
 29 62  2  0  0  0  0
 30 63  2  0  0  0  0
 30 71  1  0  0  0  0
 31 63  1  0  0  0  0
 31 67  1  0  0  0  0
 32 64  1  0  0  0  0
 32 68  1  0  0  0  0
 33 69  1  0  0  0  0
 33 75  2  0  0  0  0
 34 35  1  0  0  0  0
 34 57  1  0  0  0  0
 34 76  2  0  0  0  0
 35 58  1  0  0  0  0
 35 77  2  0  0  0  0
 36 50  1  0  0  0  0
 36 72  1  0  0  0  0
 36 78  2  0  0  0  0
 37 59  1  0  0  0  0
 37 65  1  0  0  0  0
 37 79  2  0  0  0  0
 38 60  1  0  0  0  0
 38 73  1  0  0  0  0
 38 80  2  0  0  0  0
 39 66  1  0  0  0  0
 39 70  1  0  0  0  0
 39 81  2  0  0  0  0
 40 43  1  0  0  0  0
 41 50  1  0  0  0  0
 42 65  1  0  0  0  0
 43 45  1  0  0  0  0
 44 46  1  0  0  0  0
 44 47  1  0  0  0  0
 45 49  1  0  0  0  0
 46 51  1  0  0  0  0
 47 66  1  0  0  0  0
 48 51  1  0  0  0  0
 48 66  1  0  0  0  0
 49 72  1  0  0  0  0
 50 65  1  0  0  0  0
 51 64  1  0  0  0  0
 52 60  1  0  0  0  0
 53 61  1  0  0  0  0
 54 61  1  0  0  0  0
 55 61  1  0  0  0  0
 56 74  1  0  0  0  0
 57 71  1  0  0  0  0
 58 83  1  0  0  0  0
 59 61  1  0  0  0  0
 59 73  1  0  0  0  0
 60 74  1  0  0  0  0
 62 64  1  0  0  0  0
M  CHG  1  74   1
M  ISO  4  39 100  58 101  70 100  83 101
M  END
> <Batch ID>
0176

> <Smiles>
CNC(C)C(=O)NC(C(=O)N1Cc2cc([101O:1][101CH2:1]C(=O)C(=O)CNc3cc([100NH:0][100C:0](=O)N4CCCC(n5nc(-c6ccc(Oc7ccc(F)cc7F)cc6)c(C(N)=O)c5N)C4)c(F)c(N)n3)ccc2CC1C(=O)NC1CCCc2ccccc21)C(C)(C)C

> <Shape>
0.305

> <Color>
0.117

> <Negative vol penalty>
0.000

$$$$

  -OEChem-04052304383D

 89 97  0     1  0  0  0  0  0999 V2000
  -24.4649  -34.8260   14.3900 C   0  0  0  0  0  0  0  0  0  0  0  0
  -24.6219  -33.4687   14.6520 C   0  0  0  0  0  0  0  0  0  0  0  0
  -23.1957   -9.7868   21.1437 C   0  0  0  0  0  0  0  0  0  0  0  0
  -23.9329  -10.5380   23.3184 C   0  0  0  0  0  0  0  0  0  0  0  0
  -25.1820  -35.7651   15.1300 C   0  0  0  0  0  0  0  0  0  0  0  0
  -25.4970  -33.0498   15.6536 C   0  0  0  0  0  0  0  0  0  0  0  0
  -24.8135  -28.2197   19.3561 C   0  0  0  0  0  0  0  0  0  0  0  0
  -22.5144   -8.7264   21.7409 C   0  0  0  0  0  0  0  0  0  0  0  0
  -23.2515   -9.4776   23.9157 C   0  0  0  0  0  0  0  0  0  0  0  0
  -25.3340  -26.9269   19.3171 C   0  0  0  0  0  0  0  0  0  0  0  0
  -23.2663   -5.6936   23.0298 C   0  0  0  0  0  0  0  0  0  0  0  0
  -23.3986   -4.4313   22.4512 C   0  0  0  0  0  0  0  0  0  0  0  0
  -27.0986  -27.5984   20.8185 C   0  0  0  0  0  0  0  0  0  0  0  0
  -21.0119   -4.3491   22.0850 C   0  0  0  0  0  0  0  0  0  0  0  0
  -23.9051  -10.6927   21.9324 C   0  0  0  0  0  0  0  0  0  0  0  0
  -24.1081  -13.0745   21.0418 C   0  0  0  0  0  0  0  0  0  0  0  0
  -26.0591  -35.3579   16.1476 C   0  0  0  0  0  0  0  0  0  0  0  0
  -25.4391  -29.2160   20.1192 C   0  0  0  0  0  0  0  0  0  0  0  0
  -26.2276  -33.9844   16.4070 C   0  0  0  0  0  0  0  0  0  0  0  0
  -26.5826  -28.9024   20.8675 C   0  0  0  0  0  0  0  0  0  0  0  0
  -22.5422   -8.5717   23.1269 C   0  0  0  0  0  0  0  0  0  0  0  0
  -26.4783  -26.6168   20.0461 C   0  0  0  0  0  0  0  0  0  0  0  0
  -22.0068   -6.2836   23.1361 C   0  0  0  0  0  0  0  0  0  0  0  0
  -22.2714   -3.7591   21.9788 C   0  0  0  0  0  0  0  0  0  0  0  0
  -20.8796   -5.6114   22.6637 C   0  0  0  0  0  0  0  0  0  0  0  0
  -24.6096  -11.7880   21.3160 C   0  0  0  0  0  0  0  0  0  0  0  0
  -30.2806  -19.9124   21.1591 C   0  0  0  0  0  0  0  0  0  0  0  0
  -31.4078  -19.3957   20.5555 C   0  0  0  0  0  0  0  0  0  0  0  0
  -25.1605  -13.7360   20.4575 C   0  0  0  0  0  0  0  0  0  0  0  0
  -30.2726  -17.5331   20.7833 C   0  0  0  0  0  0  0  0  0  0  0  0
  -22.8072  -13.6227   21.2929 C   0  0  0  0  0  0  0  0  0  0  0  0
  -29.9375  -21.3070   21.5395 C   0  0  0  0  0  0  0  0  0  0  0  0
  -26.8221  -32.0031   19.4687 C   0  0  0  0  0  0  0  0  0  0  0  0
  -27.5366  -23.3980   21.3268 C   0  0  0  0  0  0  0  0  0  0  0  0
  -26.9810  -32.2357   22.7003 C   0  0  0  0  0  0  0  0  0  0  0  0
  -27.0410  -30.6467   25.7199 C   0  0  0  0  0  0  0  0  0  0  0  0
  -30.5588  -15.0857   20.2591 C   0  0  0  0  0  0  0  0  0  0  0  0
  -26.8483  -36.4079   16.8889 C   0  0  0  0  0  0  0  0  0  0  0  0
  -24.8498  -30.5989   20.1719 C   0  0  0  0  0  0  0  0  0  0  0  0
  -27.2800  -29.9309   21.7187 C   0  0  0  0  0  0  0  0  0  0  0  0
  -27.4733  -35.8979   18.1850 C   0  0  0  0  0  0  0  0  0  0  0  0
  -29.6012  -12.0048   18.7531 C   0  0  0  0  0  0  0  0  0  0  0  0
  -28.1575  -34.5541   17.9551 C   0  0  0  0  0  0  0  0  0  0  0  0
  -28.1759  -11.7796   19.2631 C   0  0  0  0  0  0  0  0  0  0  0  0
  -30.4912  -12.6409   19.8194 C   0  0  0  0  0  0  0  0  0  0  0  0
  -28.5345  -13.6469   20.9279 C   0  0  0  0  0  0  0  0  0  0  0  0
  -27.1487  -33.4918   17.5020 C   0  0  1  0  0  0  0  0  0  0  0  0
  -25.8634  -31.6653   20.5753 C   0  0  1  0  0  0  0  0  0  0  0  0
  -27.5836  -13.0677   19.8677 C   0  0  2  0  0  0  0  0  0  0  0  0
  -27.2150  -31.1009   28.1818 C   0  0  0  0  0  0  0  0  0  0  0  0
  -29.9718  -32.7546   22.3907 C   0  0  0  0  0  0  0  0  0  0  0  0
  -30.2400  -32.2552   24.8293 C   0  0  0  0  0  0  0  0  0  0  0  0
  -28.8364  -34.1842   24.1000 C   0  0  0  0  0  0  0  0  0  0  0  0
  -26.9439  -22.4478   26.2153 C   0  0  0  0  0  0  0  0  0  0  0  0
  -24.3897  -29.4420   26.2473 C   0  0  0  0  0  0  0  0  0  0  0  0
  -27.6782  -24.9000   21.1725 C   0  0  0  0  0  0  0  0  0  1  0  0
  -27.2293  -22.7050   23.7135 C   0  0  0  0  0  0  0  0  0  0  0  0
  -28.2137  -22.7818   22.5442 C   0  0  1  0  0  0  0  0  0  0  0  0
  -27.9834  -31.8295   23.7533 C   0  0  1  0  0  0  0  0  0  0  0  0
  -26.2732  -30.8970   27.0053 C   0  0  2  0  0  0  0  0  0  0  0  0
  -29.2461  -32.7368   23.7509 C   0  0  0  0  0  0  0  0  0  0  0  0
  -27.9227  -22.5460   25.0635 C   0  0  0  0  0  0  0  0  0  0  0  0
  -25.8816  -11.6389   20.9369 N   0  0  0  0  0  0  0  0  0  0  0  0
  -31.4053  -18.0315   20.3395 N   0  0  0  0  0  0  0  0  0  0  0  0
  -26.1882  -12.8402   20.4185 N   0  0  0  0  0  0  0  0  0  0  0  0
  -26.6692  -31.2703   21.7325 N   0  0  0  0  0  0  0  0  0  0  0  0
  -29.8681  -13.8583   20.3435 N   0  0  0  0  0  0  0  0  0  0  0  0
  -32.4733  -20.1434   20.1803 N   0  0  0  0  0  0  0  0  0  0  0  0
  -25.2977  -14.9906   19.9784 N   0  0  0  0  0  0  0  0  0  0  0  0
  -21.8440  -12.8060   21.9007 N   0  0  0  0  0  0  0  0  0  0  0  0
  -29.8539  -16.1797   20.7601 N   0  0  0  0  0  0  0  0  0  0  0  0
  -28.6988  -21.4879   22.1412 N   0  0  0  0  0  0  0  0  0  0  0  0
  -26.3816  -33.0094   18.6304 N   0  0  0  0  0  0  0  0  0  0  0  0
  -27.2608  -31.8146   25.0206 N   0  0  0  0  0  0  0  0  0  0  0  0
  -25.3833  -29.7411   27.3105 N   0  3  0  0  0  0  0  0  0  0  0  0
  -22.5029  -14.7967   20.9724 O   0  0  0  0  0  0  0  0  0  0  0  0
  -30.7331  -22.2094   21.2921 O   0  0  0  0  0  0  0  0  0  0  0  0
  -27.8835  -31.3967   19.3827 O   0  0  0  0  0  0  0  0  0  0  0  0
  -26.8819  -22.7240   20.5310 O   0  0  0  0  0  0  0  0  0  0  0  0
  -26.4872  -33.3655   22.7392 O   0  0  0  0  0  0  0  0  0  0  0  0
  -27.4122  -29.5277   25.3728 O   0  0  0  0  0  0  0  0  0  0  0  0
  -31.6811  -15.1654   19.7531 O   0  0  0  0  0  0  0  0  0  0  0  0
  -21.8773   -7.5372   23.7101 O   0  0  0  0  0  0  0  0  0  0  0  0
  -26.9888  -25.3558   20.0092 O   0  0  0  0  0  0  0  0  0  1  0  0
  -22.3987   -2.5476   21.4218 F   0  0  0  0  0  0  0  0  0  0  0  0
  -19.6672   -6.1736   22.7620 F   0  0  0  0  0  0  0  0  0  0  0  0
  -28.7017  -21.4355   25.0608 F   0  0  0  0  0  0  0  0  0  0  0  0
  -28.7463  -23.6030   25.2805 F   0  0  0  0  0  0  0  0  0  0  0  0
  -29.1647  -18.6482   21.4718 S   0  0  0  0  0  0  0  0  0  0  0  0
  1  2  1  0  0  0  0
  1  5  2  0  0  0  0
  2  6  2  0  0  0  0
  3  8  2  0  0  0  0
  3 15  1  0  0  0  0
  4  9  1  0  0  0  0
  4 15  2  0  0  0  0
  5 17  1  0  0  0  0
  6 19  1  0  0  0  0
  7 10  2  0  0  0  0
  7 18  1  0  0  0  0
  8 21  1  0  0  0  0
  9 21  2  0  0  0  0
 10 22  1  0  0  0  0
 11 12  2  0  0  0  0
 11 23  1  0  0  0  0
 12 24  1  0  0  0  0
 13 20  1  0  0  0  0
 13 22  2  0  0  0  0
 14 24  2  0  0  0  0
 14 25  1  0  0  0  0
 15 26  1  0  0  0  0
 16 26  1  0  0  0  0
 16 29  2  0  0  0  0
 16 31  1  0  0  0  0
 17 19  2  0  0  0  0
 17 38  1  0  0  0  0
 18 20  2  0  0  0  0
 18 39  1  0  0  0  0
 19 47  1  0  0  0  0
 20 40  1  0  0  0  0
 21 83  1  0  0  0  0
 22 84  1  0  0  0  0
 23 25  2  0  0  0  0
 23 83  1  0  0  0  0
 24 85  1  0  0  0  0
 25 86  1  0  0  0  0
 26 63  2  0  0  0  0
 27 28  2  0  0  0  0
 27 32  1  0  0  0  0
 27 89  1  0  0  0  0
 28 64  1  0  0  0  0
 28 68  1  0  0  0  0
 29 65  1  0  0  0  0
 29 69  1  0  0  0  0
 30 64  2  0  0  0  0
 30 71  1  0  0  0  0
 30 89  1  0  0  0  0
 31 70  1  0  0  0  0
 31 76  2  0  0  0  0
 32 72  1  0  0  0  0
 32 77  2  0  0  0  0
 33 48  1  0  0  0  0
 33 73  1  0  0  0  0
 33 78  2  0  0  0  0
 34 56  1  0  0  0  0
 34 58  1  0  0  0  0
 34 79  2  0  0  0  0
 35 59  1  0  0  0  0
 35 66  1  0  0  0  0
 35 80  2  0  0  0  0
 36 60  1  0  0  0  0
 36 74  1  0  0  0  0
 36 81  2  0  0  0  0
 37 67  1  0  0  0  0
 37 71  1  0  0  0  0
 37 82  2  0  0  0  0
 38 41  1  0  0  0  0
 39 48  1  0  0  0  0
 40 66  1  0  0  0  0
 41 43  1  0  0  0  0
 42 44  1  0  0  0  0
 42 45  1  0  0  0  0
 43 47  1  0  0  0  0
 44 49  1  0  0  0  0
 45 67  1  0  0  0  0
 46 49  1  0  0  0  0
 46 67  1  0  0  0  0
 47 73  1  0  0  0  0
 48 66  1  0  0  0  0
 49 65  1  0  0  0  0
 50 60  1  0  0  0  0
 51 61  1  0  0  0  0
 52 61  1  0  0  0  0
 53 61  1  0  0  0  0
 54 62  1  0  0  0  0
 55 75  1  0  0  0  0
 56 84  1  0  0  0  0
 57 58  1  0  0  0  0
 57 62  1  0  0  0  0
 58 72  1  0  0  0  0
 59 61  1  0  0  0  0
 59 74  1  0  0  0  0
 60 75  1  0  0  0  0
 62 87  1  0  0  0  0
 62 88  1  0  0  0  0
 63 65  1  0  0  0  0
M  CHG  1  75   1
M  ISO  4  37 100  56 101  71 100  84 101
M  END
> <Batch ID>
0176

> <Smiles>
CNC(C)C(=O)NC(C(=O)N1Cc2cc([101O:1][101CH2:1]C(=O)C(CC(C)(F)F)NC(=O)c3sc([100NH:0][100C:0](=O)N4CCCC(n5nc(-c6ccc(Oc7ccc(F)cc7F)cc6)c(C(N)=O)c5N)C4)nc3N)ccc2CC1C(=O)NC1CCCc2ccccc21)C(C)(C)C

> <Shape>
0.292

> <Color>
0.168

> <Negative vol penalty>
0.000

$$$$

  -OEChem-04052304383D

 86 94  0     1  0  0  0  0  0999 V2000
  -16.8346  -29.1586   24.3932 C   0  0  0  0  0  0  0  0  0  0  0  0
  -17.3915  -28.1195   23.6546 C   0  0  0  0  0  0  0  0  0  0  0  0
  -31.2660  -22.1707   19.0139 C   0  0  0  0  0  0  0  0  0  0  0  0
  -29.5704  -21.1660   17.6166 C   0  0  0  0  0  0  0  0  0  0  0  0
  -17.3430  -30.4509   24.2692 C   0  0  0  0  0  0  0  0  0  0  0  0
  -18.4565  -28.3723   22.7907 C   0  0  0  0  0  0  0  0  0  0  0  0
  -22.1357  -24.9143   23.1788 C   0  0  0  0  0  0  0  0  0  0  0  0
  -31.6301  -23.0150   17.9651 C   0  0  0  0  0  0  0  0  0  0  0  0
  -29.9345  -22.0104   16.5677 C   0  0  0  0  0  0  0  0  0  0  0  0
  -21.9259  -23.6880   22.5496 C   0  0  0  0  0  0  0  0  0  0  0  0
  -29.4110  -25.2241   15.6629 C   0  0  0  0  0  0  0  0  0  0  0  0
  -28.3872  -25.8459   14.9483 C   0  0  0  0  0  0  0  0  0  0  0  0
  -23.3028  -24.4063   20.7037 C   0  0  0  0  0  0  0  0  0  0  0  0
  -29.1487  -24.7717   12.9226 C   0  0  0  0  0  0  0  0  0  0  0  0
  -30.2362  -21.2461   18.8397 C   0  0  0  0  0  0  0  0  0  0  0  0
  -28.8943  -20.6197   20.9169 C   0  0  0  0  0  0  0  0  0  0  0  0
  -18.4211  -30.7179   23.4106 C   0  0  0  0  0  0  0  0  0  0  0  0
  -22.9231  -25.9016   22.5691 C   0  0  0  0  0  0  0  0  0  0  0  0
  -18.9789  -29.6696   22.6541 C   0  0  0  0  0  0  0  0  0  0  0  0
  -23.5232  -25.6433   21.3284 C   0  0  0  0  0  0  0  0  0  0  0  0
  -24.7824  -14.2261   21.2678 C   0  0  0  0  0  0  0  0  0  0  0  0
  -23.7601  -15.1573   20.9245 C   0  0  0  0  0  0  0  0  0  0  0  0
  -30.9643  -22.9349   16.7420 C   0  0  0  0  0  0  0  0  0  0  0  0
  -22.5071  -23.4349   21.3105 C   0  0  0  0  0  0  0  0  0  0  0  0
  -30.3037  -24.3761   15.0074 C   0  0  0  0  0  0  0  0  0  0  0  0
  -28.2560  -25.6197   13.5781 C   0  0  0  0  0  0  0  0  0  0  0  0
  -30.1725  -24.1499   13.6372 C   0  0  0  0  0  0  0  0  0  0  0  0
  -29.8600  -20.3733   19.9226 C   0  0  0  0  0  0  0  0  0  0  0  0
  -25.9774  -14.8503   21.5502 C   0  0  0  0  0  0  0  0  0  0  0  0
  -28.9142  -19.4926   21.7016 C   0  0  0  0  0  0  0  0  0  0  0  0
  -24.2127  -16.4580   20.9577 C   0  0  0  0  0  0  0  0  0  0  0  0
  -23.1820  -21.2244   20.9515 C   0  0  0  0  0  0  0  0  0  1  0  0
  -28.0544  -21.7649   21.1134 C   0  0  0  0  0  0  0  0  0  0  0  0
  -23.0775  -20.0088   20.4009 C   0  0  0  0  0  0  0  0  0  0  0  0
  -24.0934  -18.9626   20.7495 C   0  0  0  0  0  0  0  0  0  0  0  0
  -22.4017  -28.8578   21.5236 C   0  0  0  0  0  0  0  0  0  0  0  0
  -25.6097  -28.8360   21.0429 C   0  0  0  0  0  0  0  0  0  0  0  0
  -29.6015  -13.7502   21.1542 C   0  0  0  0  0  0  0  0  0  0  0  0
  -28.4481  -27.0159   20.5164 C   0  0  0  0  0  0  0  0  0  0  0  0
  -18.9058  -32.1396   23.2744 C   0  0  0  0  0  0  0  0  0  0  0  0
  -23.1616  -27.2092   23.2731 C   0  0  0  0  0  0  0  0  0  0  0  0
  -24.3936  -26.6623   20.6410 C   0  0  0  0  0  0  0  0  0  0  0  0
  -20.2794  -32.2546   22.6185 C   0  0  0  0  0  0  0  0  0  0  0  0
  -32.1553  -15.8612   22.5187 C   0  0  0  0  0  0  0  0  0  0  0  0
  -20.3509  -31.3783   21.3720 C   0  0  0  0  0  0  0  0  0  0  0  0
  -31.7483  -17.2604   22.0586 C   0  0  0  0  0  0  0  0  0  0  0  0
  -31.8145  -14.8073   21.4698 C   0  0  0  0  0  0  0  0  0  0  0  0
  -29.9698  -16.2041   20.5936 C   0  0  0  0  0  0  0  0  0  0  0  0
  -20.1512  -29.8995   21.7251 C   0  0  1  0  0  0  0  0  0  0  0  0
  -23.5609  -28.3348   22.3239 C   0  0  1  0  0  0  0  0  0  0  0  0
  -30.2685  -17.2950   21.6372 C   0  0  2  0  0  0  0  0  0  0  0  0
  -24.5890  -12.7545   21.3173 C   0  0  0  0  0  0  0  0  0  0  0  0
  -30.9125  -27.2792   20.1231 C   0  0  0  0  0  0  0  0  0  0  0  0
  -25.0577  -29.6764   18.1621 C   0  0  0  0  0  0  0  0  0  0  0  0
  -27.4012  -29.0057   17.5909 C   0  0  0  0  0  0  0  0  0  0  0  0
  -26.9955  -30.8379   19.2345 C   0  0  0  0  0  0  0  0  0  0  0  0
  -29.1189  -25.5115   22.9752 C   0  0  0  0  0  0  0  0  0  0  0  0
  -27.2708  -14.2480   21.9444 C   0  0  0  0  0  0  0  0  0  0  0  0
  -26.5170  -28.4465   19.9010 C   0  0  1  0  0  0  0  0  0  0  0  0
  -28.1608  -13.9120   20.7393 C   0  0  2  0  0  0  0  0  0  0  0  0
  -29.8203  -27.0802   21.1624 C   0  0  2  0  0  0  0  0  0  0  0  0
  -26.4749  -29.4729   18.7339 C   0  0  0  0  0  0  0  0  0  0  0  0
  -30.4504  -19.1832   20.0609 N   0  0  0  0  0  0  0  0  0  0  0  0
  -29.8542  -18.6718   21.1513 N   0  0  0  0  0  0  0  0  0  0  0  0
  -24.5917  -27.9279   21.3667 N   0  0  0  0  0  0  0  0  0  0  0  0
  -30.4057  -14.8876   21.0796 N   0  0  0  0  0  0  0  0  0  0  0  0
  -22.4903  -14.8097   20.6024 N   0  0  0  0  0  0  0  0  0  0  0  0
  -28.2192  -19.1336   22.8018 N   0  0  0  0  0  0  0  0  0  0  0  0
  -28.1623  -22.8348   20.2145 N   0  0  0  0  0  0  0  0  0  0  0  0
  -23.5557  -17.6840   20.6937 N   0  0  0  0  0  0  0  0  0  0  0  0
  -21.3627  -29.3471   22.2920 N   0  0  0  0  0  0  0  0  0  0  0  0
  -27.8422  -28.2539   20.4799 N   0  0  0  0  0  0  0  0  0  0  0  0
  -30.1026  -25.8195   21.9054 N   0  3  0  0  0  0  0  0  0  0  0  0
  -27.2442  -21.8442   22.0678 O   0  0  0  0  0  0  0  0  0  0  0  0
  -25.2438  -19.2732   21.0391 O   0  0  0  0  0  0  0  0  0  0  0  0
  -22.4473  -28.8214   20.2995 O   0  0  0  0  0  0  0  0  0  0  0  0
  -25.8017  -29.9034   21.6308 O   0  0  0  0  0  0  0  0  0  0  0  0
  -29.9976  -12.6458   21.5358 O   0  0  0  0  0  0  0  0  0  0  0  0
  -27.9638  -25.9724   20.0837 O   0  0  0  0  0  0  0  0  0  0  0  0
  -22.0668  -19.6767   19.5218 O   0  0  0  0  0  0  0  0  0  0  0  0
  -31.3192  -23.7589   15.7184 O   0  0  0  0  0  0  0  0  0  0  0  0
  -22.3033  -22.2390   20.6939 O   0  0  0  0  0  0  0  0  0  1  0  0
  -27.2718  -26.2157   12.8923 F   0  0  0  0  0  0  0  0  0  0  0  0
  -31.0264  -23.3353   13.0022 F   0  0  0  0  0  0  0  0  0  0  0  0
  -27.7110  -12.7563   20.1775 F   0  0  0  0  0  0  0  0  0  0  0  0
  -25.8640  -16.5525   21.4012 S   0  0  0  0  0  0  0  0  0  0  0  0
  1  2  1  0  0  0  0
  1  5  2  0  0  0  0
  2  6  2  0  0  0  0
  3  8  2  0  0  0  0
  3 15  1  0  0  0  0
  4  9  1  0  0  0  0
  4 15  2  0  0  0  0
  5 17  1  0  0  0  0
  6 19  1  0  0  0  0
  7 10  2  0  0  0  0
  7 18  1  0  0  0  0
  8 23  1  0  0  0  0
  9 23  2  0  0  0  0
 10 24  1  0  0  0  0
 11 12  2  0  0  0  0
 11 25  1  0  0  0  0
 12 26  1  0  0  0  0
 13 20  1  0  0  0  0
 13 24  2  0  0  0  0
 14 26  2  0  0  0  0
 14 27  1  0  0  0  0
 15 28  1  0  0  0  0
 16 28  1  0  0  0  0
 16 30  2  0  0  0  0
 16 33  1  0  0  0  0
 17 19  2  0  0  0  0
 17 40  1  0  0  0  0
 18 20  2  0  0  0  0
 18 41  1  0  0  0  0
 19 49  1  0  0  0  0
 20 42  1  0  0  0  0
 21 22  1  0  0  0  0
 21 29  2  0  0  0  0
 21 52  1  0  0  0  0
 22 31  2  0  0  0  0
 22 67  1  0  0  0  0
 23 81  1  0  0  0  0
 24 82  1  0  0  0  0
 25 27  2  0  0  0  0
 25 81  1  0  0  0  0
 26 83  1  0  0  0  0
 27 84  1  0  0  0  0
 28 63  2  0  0  0  0
 29 58  1  0  0  0  0
 29 86  1  0  0  0  0
 30 64  1  0  0  0  0
 30 68  1  0  0  0  0
 31 70  1  0  0  0  0
 31 86  1  0  0  0  0
 32 34  2  0  0  0  0
 32 82  1  0  0  0  0
 33 69  1  0  0  0  0
 33 74  2  0  0  0  0
 34 35  1  0  0  0  0
 34 80  1  0  0  0  0
 35 70  1  0  0  0  0
 35 75  2  0  0  0  0
 36 50  1  0  0  0  0
 36 71  1  0  0  0  0
 36 76  2  0  0  0  0
 37 59  1  0  0  0  0
 37 65  1  0  0  0  0
 37 77  2  0  0  0  0
 38 60  1  0  0  0  0
 38 66  1  0  0  0  0
 38 78  2  0  0  0  0
 39 61  1  0  0  0  0
 39 72  1  0  0  0  0
 39 79  2  0  0  0  0
 40 43  1  0  0  0  0
 41 50  1  0  0  0  0
 42 65  1  0  0  0  0
 43 45  1  0  0  0  0
 44 46  1  0  0  0  0
 44 47  1  0  0  0  0
 45 49  1  0  0  0  0
 46 51  1  0  0  0  0
 47 66  1  0  0  0  0
 48 51  1  0  0  0  0
 48 66  1  0  0  0  0
 49 71  1  0  0  0  0
 50 65  1  0  0  0  0
 51 64  1  0  0  0  0
 53 61  1  0  0  0  0
 54 62  1  0  0  0  0
 55 62  1  0  0  0  0
 56 62  1  0  0  0  0
 57 73  1  0  0  0  0
 58 60  1  0  0  0  0
 59 62  1  0  0  0  0
 59 72  1  0  0  0  0
 60 85  1  0  0  0  0
 61 73  1  0  0  0  0
 63 64  1  0  0  0  0
M  CHG  1  73   1
M  ISO  4  32 101  38 100  60 100  82 101
M  END
> <Batch ID>
0176

> <Smiles>
CNC(C)C(=O)NC(C(=O)N1Cc2cc([101O:1][101CH2:1]C(=O)C(=O)Nc3sc(C[100CH:0](F)[100C:0](=O)N4CCCC(n5nc(-c6ccc(Oc7ccc(F)cc7F)cc6)c(C(N)=O)c5N)C4)c(C)c3N)ccc2CC1C(=O)NC1CCCc2ccccc21)C(C)(C)C

> <Shape>
0.243

> <Color>
0.065

> <Negative vol penalty>
0.000

$$$$

  -OEChem-04052304383D

 86 94  0     1  0  0  0  0  0999 V2000
  -27.6348  -37.2092   22.7742 C   0  0  0  0  0  0  0  0  0  0  0  0
  -28.1513  -36.0058   22.3045 C   0  0  0  0  0  0  0  0  0  0  0  0
  -22.1110   -7.3074   19.9524 C   0  0  0  0  0  0  0  0  0  0  0  0
  -24.4358   -7.6977   19.4234 C   0  0  0  0  0  0  0  0  0  0  0  0
  -26.5603  -37.2059   23.6626 C   0  0  0  0  0  0  0  0  0  0  0  0
  -27.5942  -34.7983   22.7240 C   0  0  0  0  0  0  0  0  0  0  0  0
  -27.0119  -29.6703   19.4269 C   0  0  0  0  0  0  0  0  0  0  0  0
  -22.0750   -6.2656   19.0256 C   0  0  0  0  0  0  0  0  0  0  0  0
  -24.3999   -6.6559   18.4966 C   0  0  0  0  0  0  0  0  0  0  0  0
  -27.7732  -28.5040   19.3642 C   0  0  0  0  0  0  0  0  0  0  0  0
  -23.0492   -3.0313   18.8745 C   0  0  0  0  0  0  0  0  0  0  0  0
  -22.4306   -1.8420   19.2598 C   0  0  0  0  0  0  0  0  0  0  0  0
  -26.2750  -27.4490   20.9332 C   0  0  0  0  0  0  0  0  0  0  0  0
  -20.8514   -2.0760   17.4463 C   0  0  0  0  0  0  0  0  0  0  0  0
  -23.2914   -8.0235   20.1513 C   0  0  0  0  0  0  0  0  0  0  0  0
  -23.6551   -9.0119   22.4747 C   0  0  0  0  0  0  0  0  0  0  0  0
  -25.9836  -35.9980   24.0857 C   0  0  0  0  0  0  0  0  0  0  0  0
  -25.8808  -29.7385   20.2530 C   0  0  0  0  0  0  0  0  0  0  0  0
  -26.5118  -34.7788   23.6200 C   0  0  0  0  0  0  0  0  0  0  0  0
  -25.4997  -28.6165   21.0027 C   0  0  0  0  0  0  0  0  0  0  0  0
  -23.2194   -5.9398   18.2977 C   0  0  0  0  0  0  0  0  0  0  0  0
  -27.4064  -27.3941   20.1196 C   0  0  0  0  0  0  0  0  0  0  0  0
  -22.5689   -3.7430   17.7752 C   0  0  0  0  0  0  0  0  0  0  0  0
  -21.3317   -1.3643   18.5457 C   0  0  0  0  0  0  0  0  0  0  0  0
  -21.4701   -3.2653   17.0611 C   0  0  0  0  0  0  0  0  0  0  0  0
  -23.3291   -9.1002   21.1081 C   0  0  0  0  0  0  0  0  0  0  0  0
  -28.7413  -16.5849   19.4722 C   0  0  0  0  0  0  0  0  0  0  0  0
  -27.8526  -17.6307   19.6092 C   0  0  0  0  0  0  0  0  0  0  0  0
  -23.5451  -10.3002   22.9379 C   0  0  0  0  0  0  0  0  0  0  0  0
  -26.4473  -15.9673   19.8703 C   0  0  0  0  0  0  0  0  0  0  0  0
  -27.4831  -22.5471   19.6097 C   0  0  0  0  0  0  0  0  0  0  0  0
  -24.0245   -7.8676   23.2557 C   0  0  0  0  0  0  0  0  0  0  0  0
  -28.1623  -21.3913   19.5094 C   0  0  0  0  0  0  0  0  0  0  0  0
  -28.1101  -23.8987   19.4876 C   0  0  0  0  0  0  0  0  0  0  0  0
  -27.3942  -20.1050   19.6552 C   0  0  0  0  0  0  0  0  0  0  0  0
  -25.0359  -31.5027   22.7584 C   0  0  0  0  0  0  0  0  0  0  0  0
  -22.2020  -29.9678   22.3911 C   0  0  0  0  0  0  0  0  0  0  0  0
  -20.5138  -27.2415   21.2231 C   0  0  0  0  0  0  0  0  0  0  0  0
  -23.9855  -15.6404   20.2934 C   0  0  0  0  0  0  0  0  0  0  0  0
  -24.8538  -36.0433   25.0838 C   0  0  0  0  0  0  0  0  0  0  0  0
  -25.0549  -30.9951   20.2891 C   0  0  0  0  0  0  0  0  0  0  0  0
  -24.2825  -28.6315   21.8896 C   0  0  0  0  0  0  0  0  0  0  0  0
  -24.0798  -34.7317   25.1877 C   0  0  0  0  0  0  0  0  0  0  0  0
  -21.1920  -14.3885   22.1117 C   0  0  0  0  0  0  0  0  0  0  0  0
  -25.0406  -33.5511   25.2856 C   0  0  0  0  0  0  0  0  0  0  0  0
  -21.4557  -12.8831   22.1903 C   0  0  0  0  0  0  0  0  0  0  0  0
  -21.6403  -14.9737   20.7736 C   0  0  0  0  0  0  0  0  0  0  0  0
  -23.2925  -13.1704   20.4784 C   0  0  0  0  0  0  0  0  0  0  0  0
  -25.9187  -33.4491   24.0326 C   0  0  1  0  0  0  0  0  0  0  0  0
  -24.2168  -31.1231   21.5574 C   0  0  1  0  0  0  0  0  0  0  0  0
  -22.9170  -12.5475   21.8329 C   0  0  2  0  0  0  0  0  0  0  0  0
  -30.1975  -16.5950   19.2242 C   0  0  0  0  0  0  0  0  0  0  0  0
  -18.2105  -26.2526   21.1048 C   0  0  0  0  0  0  0  0  0  0  0  0
  -22.3973  -29.1675   25.3290 C   0  0  0  0  0  0  0  0  0  0  0  0
  -20.6303  -27.4452   24.9053 C   0  0  0  0  0  0  0  0  0  0  0  0
  -20.1130  -29.8648   24.5874 C   0  0  0  0  0  0  0  0  0  0  0  0
  -20.5259  -27.2740   18.2638 C   0  0  0  0  0  0  0  0  0  0  0  0
  -27.4614  -25.0212   20.2692 C   0  0  0  0  0  0  0  0  0  1  0  0
  -21.6038  -28.6865   22.9197 C   0  0  1  0  0  0  0  0  0  0  0  0
  -19.2432  -27.1194   20.4014 C   0  0  2  0  0  0  0  0  0  0  0  0
  -21.2102  -28.7910   24.4202 C   0  0  0  0  0  0  0  0  0  0  0  0
  -23.0339  -10.3461   20.7279 N   0  0  0  0  0  0  0  0  0  0  0  0
  -26.5366  -17.2784   19.8371 N   0  0  0  0  0  0  0  0  0  0  0  0
  -23.1740  -11.0525   21.8625 N   0  0  0  0  0  0  0  0  0  0  0  0
  -23.5111  -29.8855   21.8957 N   0  0  0  0  0  0  0  0  0  0  0  0
  -23.0353  -14.6188   20.5039 N   0  0  0  0  0  0  0  0  0  0  0  0
  -23.7304  -10.8516   24.1561 N   0  0  0  0  0  0  0  0  0  0  0  0
  -24.0892   -6.6190   22.6223 N   0  0  0  0  0  0  0  0  0  0  0  0
  -28.2199  -18.9956   19.5296 N   0  0  0  0  0  0  0  0  0  0  0  0
  -25.2854  -15.1835   20.0786 N   0  0  0  0  0  0  0  0  0  0  0  0
  -25.1723  -32.8660   22.9384 N   0  0  0  0  0  0  0  0  0  0  0  0
  -20.4935  -28.3578   22.0322 N   0  0  0  0  0  0  0  0  0  0  0  0
  -19.5413  -26.5115   19.0738 N   0  3  0  0  0  0  0  0  0  0  0  0
  -24.2733   -7.9472   24.4826 O   0  0  0  0  0  0  0  0  0  0  0  0
  -29.1223  -24.0946   18.8199 O   0  0  0  0  0  0  0  0  0  0  0  0
  -26.1851  -20.1075   19.8598 O   0  0  0  0  0  0  0  0  0  0  0  0
  -25.5080  -30.6239   23.4701 O   0  0  0  0  0  0  0  0  0  0  0  0
  -21.5299  -31.0020   22.4103 O   0  0  0  0  0  0  0  0  0  0  0  0
  -21.4309  -26.4260   21.1568 O   0  0  0  0  0  0  0  0  0  0  0  0
  -23.6742  -16.8337   20.3298 O   0  0  0  0  0  0  0  0  0  0  0  0
  -29.5181  -21.2943   19.2777 O   0  0  0  0  0  0  0  0  0  0  0  0
  -23.1847   -4.9232   17.3934 O   0  0  0  0  0  0  0  0  0  0  0  0
  -28.1481  -26.2546   20.0607 O   0  0  0  0  0  0  0  0  0  1  0  0
  -20.7387   -0.2214   18.9148 F   0  0  0  0  0  0  0  0  0  0  0  0
  -21.0049   -3.9441   16.0034 F   0  0  0  0  0  0  0  0  0  0  0  0
  -27.9067  -15.0956   19.6355 S   0  0  0  0  0  0  0  0  0  0  0  0
  1  2  1  0  0  0  0
  1  5  2  0  0  0  0
  2  6  2  0  0  0  0
  3  8  2  0  0  0  0
  3 15  1  0  0  0  0
  4  9  1  0  0  0  0
  4 15  2  0  0  0  0
  5 17  1  0  0  0  0
  6 19  1  0  0  0  0
  7 10  2  0  0  0  0
  7 18  1  0  0  0  0
  8 21  1  0  0  0  0
  9 21  2  0  0  0  0
 10 22  1  0  0  0  0
 11 12  2  0  0  0  0
 11 23  1  0  0  0  0
 12 24  1  0  0  0  0
 13 20  1  0  0  0  0
 13 22  2  0  0  0  0
 14 24  2  0  0  0  0
 14 25  1  0  0  0  0
 15 26  1  0  0  0  0
 16 26  1  0  0  0  0
 16 29  2  0  0  0  0
 16 32  1  0  0  0  0
 17 19  2  0  0  0  0
 17 40  1  0  0  0  0
 18 20  2  0  0  0  0
 18 41  1  0  0  0  0
 19 49  1  0  0  0  0
 20 42  1  0  0  0  0
 21 82  1  0  0  0  0
 22 83  1  0  0  0  0
 23 25  2  0  0  0  0
 23 82  1  0  0  0  0
 24 84  1  0  0  0  0
 25 85  1  0  0  0  0
 26 62  2  0  0  0  0
 27 28  2  0  0  0  0
 27 52  1  0  0  0  0
 27 86  1  0  0  0  0
 28 63  1  0  0  0  0
 28 69  1  0  0  0  0
 29 64  1  0  0  0  0
 29 67  1  0  0  0  0
 30 63  2  0  0  0  0
 30 70  1  0  0  0  0
 30 86  1  0  0  0  0
 31 33  2  0  0  0  0
 31 34  1  0  0  0  0
 32 68  1  0  0  0  0
 32 74  2  0  0  0  0
 33 35  1  0  0  0  0
 33 81  1  0  0  0  0
 34 58  1  0  0  0  0
 34 75  2  0  0  0  0
 35 69  1  0  0  0  0
 35 76  2  0  0  0  0
 36 50  1  0  0  0  0
 36 71  1  0  0  0  0
 36 77  2  0  0  0  0
 37 59  1  0  0  0  0
 37 65  1  0  0  0  0
 37 78  2  0  0  0  0
 38 60  1  0  0  0  0
 38 72  1  0  0  0  0
 38 79  2  0  0  0  0
 39 66  1  0  0  0  0
 39 70  1  0  0  0  0
 39 80  2  0  0  0  0
 40 43  1  0  0  0  0
 41 50  1  0  0  0  0
 42 65  1  0  0  0  0
 43 45  1  0  0  0  0
 44 46  1  0  0  0  0
 44 47  1  0  0  0  0
 45 49  1  0  0  0  0
 46 51  1  0  0  0  0
 47 66  1  0  0  0  0
 48 51  1  0  0  0  0
 48 66  1  0  0  0  0
 49 71  1  0  0  0  0
 50 65  1  0  0  0  0
 51 64  1  0  0  0  0
 53 60  1  0  0  0  0
 54 61  1  0  0  0  0
 55 61  1  0  0  0  0
 56 61  1  0  0  0  0
 57 73  1  0  0  0  0
 58 83  1  0  0  0  0
 59 61  1  0  0  0  0
 59 72  1  0  0  0  0
 60 73  1  0  0  0  0
 62 64  1  0  0  0  0
M  CHG  1  73   1
M  ISO  4  39 100  58 101  70 100  83 101
M  END
> <Batch ID>
0176

> <Smiles>
CNC(C)C(=O)NC(C(=O)N1Cc2cc([101O:1][101CH2:1]C(=O)CC(=O)C(=O)Nc3nc([100NH:0][100C:0](=O)N4CCCC(n5nc(-c6ccc(Oc7ccc(F)cc7F)cc6)c(C(N)=O)c5N)C4)sc3C)ccc2CC1C(=O)NC1CCCc2ccccc21)C(C)(C)C

> <Shape>
0.296

> <Color>
0.074

> <Negative vol penalty>
0.000

$$$$

  -OEChem-04052304383D

 84 92  0     1  0  0  0  0  0999 V2000
  -16.9331  -29.1721   24.4553 C   0  0  0  0  0  0  0  0  0  0  0  0
  -17.3223  -28.0860   23.6780 C   0  0  0  0  0  0  0  0  0  0  0  0
  -27.3402  -17.9024   19.8345 C   0  0  0  0  0  0  0  0  0  0  0  0
  -28.6032  -17.8727   21.8939 C   0  0  0  0  0  0  0  0  0  0  0  0
  -17.5950  -30.3925   24.3271 C   0  0  0  0  0  0  0  0  0  0  0  0
  -18.3731  -28.2199   22.7712 C   0  0  0  0  0  0  0  0  0  0  0  0
  -22.4949  -23.9515   21.2556 C   0  0  0  0  0  0  0  0  0  0  0  0
  -27.1296  -16.5279   19.9438 C   0  0  0  0  0  0  0  0  0  0  0  0
  -28.3927  -16.4982   22.0032 C   0  0  0  0  0  0  0  0  0  0  0  0
  -22.5846  -23.0764   20.1739 C   0  0  0  0  0  0  0  0  0  0  0  0
  -25.1067  -14.4480   21.6802 C   0  0  0  0  0  0  0  0  0  0  0  0
  -23.8191  -13.9684   21.4402 C   0  0  0  0  0  0  0  0  0  0  0  0
  -24.0472  -24.6290   19.0471 C   0  0  0  0  0  0  0  0  0  0  0  0
  -24.6631  -12.6084   19.6304 C   0  0  0  0  0  0  0  0  0  0  0  0
  -28.0770  -18.5748   20.8095 C   0  0  0  0  0  0  0  0  0  0  0  0
  -27.4827  -21.0230   21.2103 C   0  0  0  0  0  0  0  0  0  0  0  0
  -18.6607  -30.5388   23.4252 C   0  0  0  0  0  0  0  0  0  0  0  0
  -23.1730  -25.1788   21.2365 C   0  0  0  0  0  0  0  0  0  0  0  0
  -19.0490  -29.4438   22.6298 C   0  0  0  0  0  0  0  0  0  0  0  0
  -23.9665  -25.5167   20.1309 C   0  0  0  0  0  0  0  0  0  0  0  0
  -27.6558  -15.8258   21.0282 C   0  0  0  0  0  0  0  0  0  0  0  0
  -23.3586  -23.4164   19.0682 C   0  0  0  0  0  0  0  0  0  0  0  0
  -26.1725  -14.0080   20.8953 C   0  0  0  0  0  0  0  0  0  0  0  0
  -23.5973  -13.0485   20.4154 C   0  0  0  0  0  0  0  0  0  0  0  0
  -25.9507  -13.0881   19.8704 C   0  0  0  0  0  0  0  0  0  0  0  0
  -28.2953  -19.9946   20.6968 C   0  0  0  0  0  0  0  0  0  0  0  0
  -28.8030  -24.5669   14.3658 C   0  0  0  0  0  0  0  0  0  0  0  0
  -28.1189  -22.1818   20.8378 C   0  0  0  0  0  0  0  0  0  0  0  0
  -28.3281  -25.1505   13.2099 C   0  0  0  0  0  0  0  0  0  0  0  0
  -26.6554  -24.2943   14.7172 C   0  0  0  0  0  0  0  0  0  0  0  0
  -26.2618  -20.9384   21.9574 C   0  0  0  0  0  0  0  0  0  0  0  0
  -30.2450  -24.4506   14.7035 C   0  0  0  0  0  0  0  0  0  0  0  0
  -22.2907  -28.2308   21.3364 C   0  0  0  0  0  0  0  0  0  0  0  0
  -25.4891  -28.7456   21.5035 C   0  0  0  0  0  0  0  0  0  0  0  0
  -28.6435  -27.6110   20.8639 C   0  0  0  0  0  0  0  0  0  0  0  0
  -25.1483  -23.3115   16.4783 C   0  0  0  0  0  0  0  0  0  0  0  0
  -31.8202  -23.5791   16.4014 C   0  0  0  0  0  0  0  0  0  0  0  0
  -19.3149  -31.8907   23.2877 C   0  0  0  0  0  0  0  0  0  0  0  0
  -23.0874  -26.0998   22.4226 C   0  0  0  0  0  0  0  0  0  0  0  0
  -24.7304  -26.8132   20.0697 C   0  0  0  0  0  0  0  0  0  0  0  0
  -20.6630  -31.8452   22.5730 C   0  0  0  0  0  0  0  0  0  0  0  0
  -32.4805  -23.9122   19.8583 C   0  0  0  0  0  0  0  0  0  0  0  0
  -20.5702  -30.9915   21.3122 C   0  0  0  0  0  0  0  0  0  0  0  0
  -31.3989  -23.0518   20.5171 C   0  0  0  0  0  0  0  0  0  0  0  0
  -32.9954  -23.2838   18.5641 C   0  0  0  0  0  0  0  0  0  0  0  0
  -30.8813  -22.0632   18.2502 C   0  0  0  0  0  0  0  0  0  0  0  0
  -20.2004  -29.5428   21.6528 C   0  0  1  0  0  0  0  0  0  0  0  0
  -23.4074  -27.5507   22.0767 C   0  0  1  0  0  0  0  0  0  0  0  0
  -30.2806  -22.6875   19.5200 C   0  0  1  0  0  0  0  0  0  0  0  0
  -31.1525  -27.5683   20.8893 C   0  0  0  0  0  0  0  0  0  0  0  0
  -23.0026  -22.2650   15.6657 C   0  0  0  0  0  0  0  0  0  0  0  0
  -25.1837  -30.6303   19.1234 C   0  0  0  0  0  0  0  0  0  0  0  0
  -27.6623  -30.5033   18.7938 C   0  0  0  0  0  0  0  0  0  0  0  0
  -26.7337  -31.4465   20.9083 C   0  0  0  0  0  0  0  0  0  0  0  0
  -28.7083  -26.1635   23.4445 C   0  0  0  0  0  0  0  0  0  0  0  0
  -26.5921  -28.9563   20.4946 C   0  0  1  0  0  0  0  0  0  0  0  0
  -29.8869  -27.5486   21.7324 C   0  0  2  0  0  0  0  0  0  0  0  0
  -23.6507  -23.1458   16.7236 C   0  0  1  0  0  0  0  0  0  1  0  0
  -26.5271  -30.3605   19.8300 C   0  0  0  0  0  0  0  0  0  0  0  0
  -29.3661  -20.4591   20.0474 N   0  0  0  0  0  0  0  0  0  0  0  0
  -27.8453  -24.0758   15.2315 N   0  0  0  0  0  0  0  0  0  0  0  0
  -29.2306  -21.7922   20.1502 N   0  0  0  0  0  0  0  0  0  0  0  0
  -24.6097  -27.6831   21.2513 N   0  0  0  0  0  0  0  0  0  0  0  0
  -31.8766  -22.9778   17.6709 N   0  0  0  0  0  0  0  0  0  0  0  0
  -27.8303  -23.4858   21.0344 N   0  0  0  0  0  0  0  0  0  0  0  0
  -25.7467  -19.6692   22.2542 N   0  0  0  0  0  0  0  0  0  0  0  0
  -25.3979  -23.9531   15.2696 N   0  0  0  0  0  0  0  0  0  0  0  0
  -30.5305  -23.8280   15.9190 N   0  0  0  0  0  0  0  0  0  0  0  0
  -21.3555  -28.8316   22.1573 N   0  0  0  0  0  0  0  0  0  0  0  0
  -27.8429  -28.6838   21.1944 N   0  0  0  0  0  0  0  0  0  0  0  0
  -29.8860  -26.3023   22.5496 N   0  3  0  0  0  0  0  0  0  0  0  0
  -25.6373  -21.9583   22.3359 O   0  0  0  0  0  0  0  0  0  0  0  0
  -31.0816  -24.8592   13.9029 O   0  0  0  0  0  0  0  0  0  0  0  0
  -22.2793  -28.2132   20.1112 O   0  0  0  0  0  0  0  0  0  0  0  0
  -25.4148  -29.4916   22.4830 O   0  0  0  0  0  0  0  0  0  0  0  0
  -28.4079  -26.7922   19.9781 O   0  0  0  0  0  0  0  0  0  0  0  0
  -25.9745  -22.9187   17.2970 O   0  0  0  0  0  0  0  0  0  0  0  0
  -32.8305  -23.9016   15.7684 O   0  0  0  0  0  0  0  0  0  0  0  0
  -27.4504  -14.4845   21.1353 O   0  0  0  0  0  0  0  0  0  0  0  0
  -23.4474  -22.5644   18.0108 O   0  0  0  0  0  0  0  0  0  1  0  0
  -22.3610  -12.5868   20.1860 F   0  0  0  0  0  0  0  0  0  0  0  0
  -26.9708  -12.6608   19.1138 F   0  0  0  0  0  0  0  0  0  0  0  0
  -29.0808  -25.6857   12.2451 F   0  0  0  0  0  0  0  0  0  0  0  0
  -26.6143  -25.0855   13.1949 S   0  0  0  0  0  0  0  0  0  0  0  0
  1  2  1  0  0  0  0
  1  5  2  0  0  0  0
  2  6  2  0  0  0  0
  3  8  2  0  0  0  0
  3 15  1  0  0  0  0
  4  9  1  0  0  0  0
  4 15  2  0  0  0  0
  5 17  1  0  0  0  0
  6 19  1  0  0  0  0
  7 10  2  0  0  0  0
  7 18  1  0  0  0  0
  8 21  1  0  0  0  0
  9 21  2  0  0  0  0
 10 22  1  0  0  0  0
 11 12  2  0  0  0  0
 11 23  1  0  0  0  0
 12 24  1  0  0  0  0
 13 20  1  0  0  0  0
 13 22  2  0  0  0  0
 14 24  2  0  0  0  0
 14 25  1  0  0  0  0
 15 26  1  0  0  0  0
 16 26  1  0  0  0  0
 16 28  2  0  0  0  0
 16 31  1  0  0  0  0
 17 19  2  0  0  0  0
 17 38  1  0  0  0  0
 18 20  2  0  0  0  0
 18 39  1  0  0  0  0
 19 47  1  0  0  0  0
 20 40  1  0  0  0  0
 21 79  1  0  0  0  0
 22 80  1  0  0  0  0
 23 25  2  0  0  0  0
 23 79  1  0  0  0  0
 24 81  1  0  0  0  0
 25 82  1  0  0  0  0
 26 60  2  0  0  0  0
 27 29  2  0  0  0  0
 27 32  1  0  0  0  0
 27 61  1  0  0  0  0
 28 62  1  0  0  0  0
 28 65  1  0  0  0  0
 29 83  1  0  0  0  0
 29 84  1  0  0  0  0
 30 61  2  0  0  0  0
 30 67  1  0  0  0  0
 30 84  1  0  0  0  0
 31 66  1  0  0  0  0
 31 72  2  0  0  0  0
 32 68  1  0  0  0  0
 32 73  2  0  0  0  0
 33 48  1  0  0  0  0
 33 69  1  0  0  0  0
 33 74  2  0  0  0  0
 34 56  1  0  0  0  0
 34 63  1  0  0  0  0
 34 75  2  0  0  0  0
 35 57  1  0  0  0  0
 35 70  1  0  0  0  0
 35 76  2  0  0  0  0
 36 58  1  0  0  0  0
 36 67  1  0  0  0  0
 36 77  2  0  0  0  0
 37 64  1  0  0  0  0
 37 68  1  0  0  0  0
 37 78  2  0  0  0  0
 38 41  1  0  0  0  0
 39 48  1  0  0  0  0
 40 63  1  0  0  0  0
 41 43  1  0  0  0  0
 42 44  1  0  0  0  0
 42 45  1  0  0  0  0
 43 47  1  0  0  0  0
 44 49  1  0  0  0  0
 45 64  1  0  0  0  0
 46 49  1  0  0  0  0
 46 64  1  0  0  0  0
 47 69  1  0  0  0  0
 48 63  1  0  0  0  0
 49 62  1  0  0  0  0
 50 57  1  0  0  0  0
 51 58  1  0  0  0  0
 52 59  1  0  0  0  0
 53 59  1  0  0  0  0
 54 59  1  0  0  0  0
 55 71  1  0  0  0  0
 56 59  1  0  0  0  0
 56 70  1  0  0  0  0
 57 71  1  0  0  0  0
 58 80  1  0  0  0  0
 60 62  1  0  0  0  0
M  CHG  1  71   1
M  ISO  4  37 100  58 101  68 100  80 101
M  END
> <Batch ID>
0176

> <Smiles>
CNC(C)C(=O)NC(C(=O)N1Cc2cc([101O:1][101CH:1](C)C(=O)Nc3nc(C(=O)[100NH:0][100C:0](=O)N4CCCC(n5nc(-c6ccc(Oc7ccc(F)cc7F)cc6)c(C(N)=O)c5N)C4)c(F)s3)ccc2CC1C(=O)NC1CCCc2ccccc21)C(C)(C)C

> <Shape>
0.215

> <Color>
0.076

> <Negative vol penalty>
0.000

$$$$

  -OEChem-04052304383D

 85 93  0     1  0  0  0  0  0999 V2000
  -32.2768  -13.6713   21.5792 C   0  0  0  0  0  0  0  0  0  0  0  0
  -31.4958  -14.7296   22.0323 C   0  0  0  0  0  0  0  0  0  0  0  0
  -27.7942  -25.7502   21.6635 C   0  0  0  0  0  0  0  0  0  0  0  0
  -29.5933  -27.3620   21.6109 C   0  0  0  0  0  0  0  0  0  0  0  0
  -31.7653  -12.7839   20.6333 C   0  0  0  0  0  0  0  0  0  0  0  0
  -30.2030  -14.9019   21.5388 C   0  0  0  0  0  0  0  0  0  0  0  0
  -25.3409  -17.0090   24.6089 C   0  0  0  0  0  0  0  0  0  0  0  0
  -28.4640  -24.9718   20.7196 C   0  0  0  0  0  0  0  0  0  0  0  0
  -30.2631  -26.5835   20.6670 C   0  0  0  0  0  0  0  0  0  0  0  0
  -24.7439  -18.2674   24.6708 C   0  0  0  0  0  0  0  0  0  0  0  0
  -31.0332  -22.7741   20.6741 C   0  0  0  0  0  0  0  0  0  0  0  0
  -31.1008  -21.3991   20.8982 C   0  0  0  0  0  0  0  0  0  0  0  0
  -20.6147  -27.0800   22.5208 C   0  0  0  0  0  0  0  0  0  0  0  0
  -23.1576  -17.5911   22.9840 C   0  0  0  0  0  0  0  0  0  0  0  0
  -29.9383  -21.0028   18.8176 C   0  0  0  0  0  0  0  0  0  0  0  0
  -28.3588  -26.9454   22.1092 C   0  0  0  0  0  0  0  0  0  0  0  0
  -19.8256  -28.2651   22.4643 C   0  0  0  0  0  0  0  0  0  0  0  0
  -27.7790  -27.6714   24.4850 C   0  0  0  0  0  0  0  0  0  0  0  0
  -30.4621  -12.9397   20.1352 C   0  0  0  0  0  0  0  0  0  0  0  0
  -24.8567  -16.0342   23.7248 C   0  0  0  0  0  0  0  0  0  0  0  0
  -29.6740  -14.0165   20.5844 C   0  0  0  0  0  0  0  0  0  0  0  0
  -23.7486  -16.3203   22.9146 C   0  0  0  0  0  0  0  0  0  0  0  0
  -29.6984  -25.3884   20.2213 C   0  0  0  0  0  0  0  0  0  0  0  0
  -23.6539  -18.5596   23.8562 C   0  0  0  0  0  0  0  0  0  0  0  0
  -30.4180  -23.2636   19.5218 C   0  0  0  0  0  0  0  0  0  0  0  0
  -30.5534  -20.5134   19.9700 C   0  0  0  0  0  0  0  0  0  0  0  0
  -29.8706  -22.3779   18.5936 C   0  0  0  0  0  0  0  0  0  0  0  0
  -27.6672  -27.7502   23.0839 C   0  0  0  0  0  0  0  0  0  0  0  0
  -18.4776  -27.9870   22.4095 C   0  0  0  0  0  0  0  0  0  0  0  0
  -26.9255  -28.6407   24.9525 C   0  0  0  0  0  0  0  0  0  0  0  0
  -19.8395  -25.9412   22.5072 C   0  0  0  0  0  0  0  0  0  0  0  0
  -20.3621  -29.6377   22.4638 C   0  0  0  0  0  0  0  0  0  0  0  0
  -21.4422  -22.5453   22.6403 C   0  0  0  0  0  0  0  0  0  0  0  0
  -28.5826  -26.8001   25.2917 C   0  0  0  0  0  0  0  0  0  0  0  0
  -22.5391  -21.7729   22.7030 C   0  0  0  0  0  0  0  0  0  0  0  0
  -21.4851  -24.0415   22.6148 C   0  0  0  0  0  0  0  0  0  0  0  0
  -26.0651  -14.4584   21.2428 C   0  0  0  0  0  0  0  0  0  0  0  0
  -23.2556  -12.8444   21.3968 C   0  0  0  0  0  0  0  0  0  0  0  0
  -19.9845  -12.8085   22.3694 C   0  0  0  0  0  0  0  0  0  0  0  0
  -22.0639  -31.1844   22.5159 C   0  0  0  0  0  0  0  0  0  0  0  0
  -29.9696  -11.9827   19.0786 C   0  0  0  0  0  0  0  0  0  0  0  0
  -25.4951  -14.6727   23.6892 C   0  0  0  0  0  0  0  0  0  0  0  0
  -23.1779  -15.3018   21.9631 C   0  0  0  0  0  0  0  0  0  0  0  0
  -28.4559  -12.0163   18.8843 C   0  0  0  0  0  0  0  0  0  0  0  0
  -25.0099  -32.8519   23.7591 C   0  0  0  0  0  0  0  0  0  0  0  0
  -27.9608  -13.4565   18.7964 C   0  0  0  0  0  0  0  0  0  0  0  0
  -26.0444  -31.7283   23.8215 C   0  0  0  0  0  0  0  0  0  0  0  0
  -24.0627  -32.6759   22.5761 C   0  0  0  0  0  0  0  0  0  0  0  0
  -24.4092  -30.2208   22.6076 C   0  0  0  0  0  0  0  0  0  0  0  0
  -28.2581  -14.2221   20.0914 C   0  0  1  0  0  0  0  0  0  0  0  0
  -25.2417  -13.9279   22.3821 C   0  0  1  0  0  0  0  0  0  0  0  0
  -25.3632  -30.3482   23.8076 C   0  0  1  0  0  0  0  0  0  0  0  0
  -17.3340  -28.9249   22.3417 C   0  0  0  0  0  0  0  0  0  0  0  0
  -17.9317  -11.3659   22.3242 C   0  0  0  0  0  0  0  0  0  0  0  0
  -22.8540  -13.5125   18.4468 C   0  0  0  0  0  0  0  0  0  0  0  0
  -20.4399  -12.9027   18.7092 C   0  0  0  0  0  0  0  0  0  0  0  0
  -22.2071  -11.1829   19.0863 C   0  0  0  0  0  0  0  0  0  0  0  0
  -19.8406  -12.7197   25.3241 C   0  0  0  0  0  0  0  0  0  0  0  0
  -22.4626  -20.2748   22.7183 C   0  0  0  0  0  0  0  0  0  1  0  0
  -21.8851  -13.0235   20.7895 C   0  0  1  0  0  0  0  0  0  0  0  0
  -19.1666  -11.7693   23.1147 C   0  0  2  0  0  0  0  0  0  0  0  0
  -21.8582  -12.6755   19.2744 C   0  0  0  0  0  0  0  0  0  0  0  0
  -26.8101  -28.6947   22.6873 N   0  0  0  0  0  0  0  0  0  0  0  0
  -21.6323  -29.8717   22.5188 N   0  0  0  0  0  0  0  0  0  0  0  0
  -26.3755  -29.2183   23.8462 N   0  0  0  0  0  0  0  0  0  0  0  0
  -23.8407  -13.9872   21.9603 N   0  0  0  0  0  0  0  0  0  0  0  0
  -23.4607  -31.3420   22.5781 N   0  0  0  0  0  0  0  0  0  0  0  0
  -26.5993  -29.0466   26.1980 N   0  0  0  0  0  0  0  0  0  0  0  0
  -29.4028  -25.8625   24.6494 N   0  0  0  0  0  0  0  0  0  0  0  0
  -20.2024  -24.5723   22.5483 N   0  0  0  0  0  0  0  0  0  0  0  0
  -27.3062  -13.8631   21.1206 N   0  0  0  0  0  0  0  0  0  0  0  0
  -20.9715  -12.2272   21.6018 N   0  0  0  0  0  0  0  0  0  0  0  0
  -18.7260  -12.3054   24.4336 N   0  3  0  0  0  0  0  0  0  0  0  0
  -28.5612  -26.8404   26.5452 O   0  0  0  0  0  0  0  0  0  0  0  0
  -22.5444  -24.6553   22.6509 O   0  0  0  0  0  0  0  0  0  0  0  0
  -25.6078  -15.3413   20.5265 O   0  0  0  0  0  0  0  0  0  0  0  0
  -23.7843  -11.7301   21.3785 O   0  0  0  0  0  0  0  0  0  0  0  0
  -19.7671  -14.0150   22.4563 O   0  0  0  0  0  0  0  0  0  0  0  0
  -21.3074  -32.1567   22.4581 O   0  0  0  0  0  0  0  0  0  0  0  0
  -23.8136  -22.3028   22.7382 O   0  0  0  0  0  0  0  0  0  0  0  0
  -30.3523  -24.6290   19.3004 O   0  0  0  0  0  0  0  0  0  0  0  0
  -23.0697  -19.7873   23.9142 O   0  0  0  0  0  0  0  0  0  1  0  0
  -30.6199  -19.1929   20.1845 F   0  0  0  0  0  0  0  0  0  0  0  0
  -29.2794  -22.8421   17.4842 F   0  0  0  0  0  0  0  0  0  0  0  0
  -18.1678  -26.3029   22.4264 S   0  0  0  0  0  0  0  0  0  0  0  0
  1  2  1  0  0  0  0
  1  5  2  0  0  0  0
  2  6  2  0  0  0  0
  3  8  2  0  0  0  0
  3 16  1  0  0  0  0
  4  9  1  0  0  0  0
  4 16  2  0  0  0  0
  5 19  1  0  0  0  0
  6 21  1  0  0  0  0
  7 10  2  0  0  0  0
  7 20  1  0  0  0  0
  8 23  1  0  0  0  0
  9 23  2  0  0  0  0
 10 24  1  0  0  0  0
 11 12  2  0  0  0  0
 11 25  1  0  0  0  0
 12 26  1  0  0  0  0
 13 17  1  0  0  0  0
 13 31  2  0  0  0  0
 14 22  1  0  0  0  0
 14 24  2  0  0  0  0
 15 26  2  0  0  0  0
 15 27  1  0  0  0  0
 16 28  1  0  0  0  0
 17 29  2  0  0  0  0
 17 32  1  0  0  0  0
 18 28  1  0  0  0  0
 18 30  2  0  0  0  0
 18 34  1  0  0  0  0
 19 21  2  0  0  0  0
 19 41  1  0  0  0  0
 20 22  2  0  0  0  0
 20 42  1  0  0  0  0
 21 50  1  0  0  0  0
 22 43  1  0  0  0  0
 23 81  1  0  0  0  0
 24 82  1  0  0  0  0
 25 27  2  0  0  0  0
 25 81  1  0  0  0  0
 26 83  1  0  0  0  0
 27 84  1  0  0  0  0
 28 63  2  0  0  0  0
 29 53  1  0  0  0  0
 29 85  1  0  0  0  0
 30 65  1  0  0  0  0
 30 68  1  0  0  0  0
 31 70  1  0  0  0  0
 31 85  1  0  0  0  0
 32 64  2  0  0  0  0
 33 35  2  0  0  0  0
 33 36  1  0  0  0  0
 34 69  1  0  0  0  0
 34 74  2  0  0  0  0
 35 59  1  0  0  0  0
 35 80  1  0  0  0  0
 36 70  1  0  0  0  0
 36 75  2  0  0  0  0
 37 51  1  0  0  0  0
 37 71  1  0  0  0  0
 37 76  2  0  0  0  0
 38 60  1  0  0  0  0
 38 66  1  0  0  0  0
 38 77  2  0  0  0  0
 39 61  1  0  0  0  0
 39 72  1  0  0  0  0
 39 78  2  0  0  0  0
 40 64  1  0  0  0  0
 40 67  1  0  0  0  0
 40 79  2  0  0  0  0
 41 44  1  0  0  0  0
 42 51  1  0  0  0  0
 43 66  1  0  0  0  0
 44 46  1  0  0  0  0
 45 47  1  0  0  0  0
 45 48  1  0  0  0  0
 46 50  1  0  0  0  0
 47 52  1  0  0  0  0
 48 67  1  0  0  0  0
 49 52  1  0  0  0  0
 49 67  1  0  0  0  0
 50 71  1  0  0  0  0
 51 66  1  0  0  0  0
 52 65  1  0  0  0  0
 54 61  1  0  0  0  0
 55 62  1  0  0  0  0
 56 62  1  0  0  0  0
 57 62  1  0  0  0  0
 58 73  1  0  0  0  0
 59 82  1  0  0  0  0
 60 62  1  0  0  0  0
 60 72  1  0  0  0  0
 61 73  1  0  0  0  0
 63 65  1  0  0  0  0
M  CHG  1  73   1
M  ISO  4  40 100  59 101  64 100  82 101
M  END
> <Batch ID>
0176

> <Smiles>
CNC(C)C(=O)NC(C(=O)N1Cc2cc([101O:1][101CH2:1]C(=O)CC(=O)Nc3cc(C=[100N:0][100C:0](=O)N4CCCC(n5nc(-c6ccc(Oc7ccc(F)cc7F)cc6)c(C(N)=O)c5N)C4)c(C)s3)ccc2CC1C(=O)NC1CCCc2ccccc21)C(C)(C)C

> <Shape>
0.252

> <Color>
0.074

> <Negative vol penalty>
0.000

$$$$

  -OEChem-04052304383D

 87 95  0     1  0  0  0  0  0999 V2000
  -22.7101   -7.9168   21.8538 C   0  0  0  0  0  0  0  0  0  0  0  0
  -23.6943   -8.7642   21.3552 C   0  0  0  0  0  0  0  0  0  0  0  0
  -22.2033  -28.4137   20.7619 C   0  0  0  0  0  0  0  0  0  0  0  0
  -23.0066  -26.6312   22.1813 C   0  0  0  0  0  0  0  0  0  0  0  0
  -31.7318  -21.2117   19.6926 C   0  0  0  0  0  0  0  0  0  0  0  0
  -21.4117   -8.3904   22.0375 C   0  0  0  0  0  0  0  0  0  0  0  0
  -23.3804  -10.0856   21.0391 C   0  0  0  0  0  0  0  0  0  0  0  0
  -26.8528  -13.3639   22.7244 C   0  0  0  0  0  0  0  0  0  0  0  0
  -20.9152  -28.2348   21.2662 C   0  0  0  0  0  0  0  0  0  0  0  0
  -21.7185  -26.4524   22.6857 C   0  0  0  0  0  0  0  0  0  0  0  0
  -28.0323  -13.4759   21.9896 C   0  0  0  0  0  0  0  0  0  0  0  0
  -19.1930  -29.0708   24.0533 C   0  0  0  0  0  0  0  0  0  0  0  0
  -31.9308  -22.2721   18.8087 C   0  0  0  0  0  0  0  0  0  0  0  0
  -18.4720  -30.2106   24.4089 C   0  0  0  0  0  0  0  0  0  0  0  0
  -27.1849  -15.4790   20.9461 C   0  0  0  0  0  0  0  0  0  0  0  0
  -16.7635  -29.6312   22.8018 C   0  0  0  0  0  0  0  0  0  0  0  0
  -23.2490  -27.6119   21.2194 C   0  0  0  0  0  0  0  0  0  0  0  0
  -30.4371  -20.8368   20.0519 C   0  0  0  0  0  0  0  0  0  0  0  0
  -25.5800  -28.6482   21.2031 C   0  0  0  0  0  0  0  0  0  0  0  0
  -21.0840   -9.7209   21.7325 C   0  0  0  0  0  0  0  0  0  0  0  0
  -25.8243  -14.3041   22.5672 C   0  0  0  0  0  0  0  0  0  0  0  0
  -22.0761  -10.5771   21.2176 C   0  0  0  0  0  0  0  0  0  0  0  0
  -25.9944  -15.3781   21.6819 C   0  0  0  0  0  0  0  0  0  0  0  0
  -29.5406  -22.5829   18.6433 C   0  0  0  0  0  0  0  0  0  0  0  0
  -20.6728  -27.2542   22.2281 C   0  0  0  0  0  0  0  0  0  0  0  0
  -28.1974  -14.5319   21.0981 C   0  0  0  0  0  0  0  0  0  0  0  0
  -18.6994  -28.2111   23.0720 C   0  0  0  0  0  0  0  0  0  0  0  0
  -17.2572  -30.4908   23.7832 C   0  0  0  0  0  0  0  0  0  0  0  0
  -30.8353  -22.9577   18.2840 C   0  0  0  0  0  0  0  0  0  0  0  0
  -17.4846  -28.4914   22.4462 C   0  0  0  0  0  0  0  0  0  0  0  0
  -29.3416  -21.5224   19.5273 C   0  0  0  0  0  0  0  0  0  0  0  0
  -24.5798  -27.7958   20.6984 C   0  0  0  0  0  0  0  0  0  0  0  0
  -26.6491  -28.4589   20.3618 C   0  0  0  0  0  0  0  0  0  0  0  0
  -30.2299  -19.7134   20.9887 C   0  0  0  0  0  0  0  0  0  0  0  0
  -25.5459  -29.5320   22.3315 C   0  0  0  0  0  0  0  0  0  0  0  0
  -22.8028  -14.1809   21.5879 C   0  0  0  0  0  0  0  0  0  0  0  0
  -22.7871  -17.2923   22.5051 C   0  0  0  0  0  0  0  0  0  0  0  0
  -30.5823  -17.2896   21.4119 C   0  0  0  0  0  0  0  0  0  0  0  0
  -24.5627  -20.1430   23.1116 C   0  0  0  0  0  0  0  0  0  0  0  0
  -28.3424  -23.9140   16.8716 C   0  0  0  0  0  0  0  0  0  0  0  0
  -19.6557  -10.1742   21.9033 C   0  0  0  0  0  0  0  0  0  0  0  0
  -24.5689  -14.1842   23.3870 C   0  0  0  0  0  0  0  0  0  0  0  0
  -24.9288  -16.4253   21.4916 C   0  0  0  0  0  0  0  0  0  0  0  0
  -19.4934  -11.6921   21.8969 C   0  0  0  0  0  0  0  0  0  0  0  0
  -27.6929  -27.2606   15.8442 C   0  0  0  0  0  0  0  0  0  0  0  0
  -20.2802  -12.3082   20.7444 C   0  0  0  0  0  0  0  0  0  0  0  0
  -26.9172  -27.8570   17.0209 C   0  0  0  0  0  0  0  0  0  0  0  0
  -27.3265  -25.7966   15.6071 C   0  0  0  0  0  0  0  0  0  0  0  0
  -26.6622  -25.5262   17.9640 C   0  0  0  0  0  0  0  0  0  0  0  0
  -21.7804  -12.0238   20.8863 C   0  0  1  0  0  0  0  0  0  0  0  0
  -23.3792  -14.9112   22.7678 C   0  0  1  0  0  0  0  0  0  0  0  0
  -27.0452  -26.9807   18.2824 C   0  0  2  0  0  0  0  0  0  0  0  0
  -24.2696  -22.5348   23.8120 C   0  0  0  0  0  0  0  0  0  0  0  0
  -31.4652  -13.5972   20.7818 C   0  0  0  0  0  0  0  0  0  0  0  0
  -21.7478  -17.9782   19.7195 C   0  0  0  0  0  0  0  0  0  0  0  0
  -22.3741  -20.3639   20.1493 C   0  0  0  0  0  0  0  0  0  0  0  0
  -20.6620  -19.2485   21.5801 C   0  0  0  0  0  0  0  0  0  0  0  0
  -26.2347  -19.7627   25.5238 C   0  0  0  0  0  0  0  0  0  0  0  0
  -31.2220  -16.1010   20.7287 C   0  0  0  0  0  0  0  0  0  0  0  0
  -23.0947  -18.6073   21.8304 C   0  0  1  0  0  0  0  0  0  0  0  0
  -24.5421  -21.1133   24.2788 C   0  0  2  0  0  0  0  0  0  0  0  0
  -30.5628  -14.7779   21.1147 C   0  0  1  0  0  0  0  0  0  1  0  0
  -21.9892  -19.0288   20.8217 C   0  0  0  0  0  0  0  0  0  0  0  0
  -24.9778  -27.1157   19.6199 N   0  0  0  0  0  0  0  0  0  0  0  0
  -26.2400  -27.5407   19.4400 N   0  0  0  0  0  0  0  0  0  0  0  0
  -23.7169  -16.2609   22.3112 N   0  0  0  0  0  0  0  0  0  0  0  0
  -27.4757  -25.0271   16.8442 N   0  0  0  0  0  0  0  0  0  0  0  0
  -27.8897  -28.9901   20.3279 N   0  0  0  0  0  0  0  0  0  0  0  0
  -24.3682  -29.6046   23.0880 N   0  0  0  0  0  0  0  0  0  0  0  0
  -28.4280  -23.2802   18.1108 N   0  0  0  0  0  0  0  0  0  0  0  0
  -30.6962  -18.5062   20.6403 N   0  0  0  0  0  0  0  0  0  0  0  0
  -22.3697  -12.9006   21.8754 N   0  0  0  0  0  0  0  0  0  0  0  0
  -23.3258  -19.5711   22.9010 N   0  0  0  0  0  0  0  0  0  0  0  0
  -29.5913  -19.9676   22.1305 N   0  3  0  0  0  0  0  0  0  0  0  0
  -25.8514  -21.0953   24.9905 N   0  3  0  0  0  0  0  0  0  0  0  0
  -26.5250  -30.2487   22.6496 O   0  0  0  0  0  0  0  0  0  0  0  0
  -22.7533  -14.7383   20.4977 O   0  0  0  0  0  0  0  0  0  0  0  0
  -21.7633  -17.1864   23.1850 O   0  0  0  0  0  0  0  0  0  0  0  0
  -30.0220  -17.2708   22.4980 O   0  0  0  0  0  0  0  0  0  0  0  0
  -25.5738  -19.9179   22.4502 O   0  0  0  0  0  0  0  0  0  0  0  0
  -28.9838  -23.5663   15.8768 O   0  0  0  0  0  0  0  0  0  0  0  0
  -19.4160  -27.0795   22.7206 O   0  0  0  0  0  0  0  0  0  0  0  0
  -29.3474  -14.6432   20.3791 O   0  0  0  0  0  0  0  0  0  1  0  0
  -16.5642  -31.5847   24.1258 F   0  0  0  0  0  0  0  0  0  0  0  0
  -31.0387  -23.9753   17.4351 F   0  0  0  0  0  0  0  0  0  0  0  0
  -17.0047  -27.6686   21.5035 F   0  0  0  0  0  0  0  0  0  0  0  0
  -28.0969  -21.1609   19.8748 F   0  0  0  0  0  0  0  0  0  0  0  0
  1  2  1  0  0  0  0
  1  6  2  0  0  0  0
  2  7  2  0  0  0  0
  3  9  2  0  0  0  0
  3 17  1  0  0  0  0
  4 10  1  0  0  0  0
  4 17  2  0  0  0  0
  5 13  2  0  0  0  0
  5 18  1  0  0  0  0
  6 20  1  0  0  0  0
  7 22  1  0  0  0  0
  8 11  2  0  0  0  0
  8 21  1  0  0  0  0
  9 25  1  0  0  0  0
 10 25  2  0  0  0  0
 11 26  1  0  0  0  0
 12 14  2  0  0  0  0
 12 27  1  0  0  0  0
 13 29  1  0  0  0  0
 14 28  1  0  0  0  0
 15 23  1  0  0  0  0
 15 26  2  0  0  0  0
 16 28  2  0  0  0  0
 16 30  1  0  0  0  0
 17 32  1  0  0  0  0
 18 31  2  0  0  0  0
 18 34  1  0  0  0  0
 19 32  1  0  0  0  0
 19 33  2  0  0  0  0
 19 35  1  0  0  0  0
 20 22  2  0  0  0  0
 20 41  1  0  0  0  0
 21 23  2  0  0  0  0
 21 42  1  0  0  0  0
 22 50  1  0  0  0  0
 23 43  1  0  0  0  0
 24 29  2  0  0  0  0
 24 31  1  0  0  0  0
 24 70  1  0  0  0  0
 25 82  1  0  0  0  0
 26 83  1  0  0  0  0
 27 30  2  0  0  0  0
 27 82  1  0  0  0  0
 28 84  1  0  0  0  0
 29 85  1  0  0  0  0
 30 86  1  0  0  0  0
 31 87  1  0  0  0  0
 32 64  2  0  0  0  0
 33 65  1  0  0  0  0
 33 68  1  0  0  0  0
 34 71  1  0  0  0  0
 34 74  2  0  0  0  0
 35 69  1  0  0  0  0
 35 76  2  0  0  0  0
 36 51  1  0  0  0  0
 36 72  1  0  0  0  0
 36 77  2  0  0  0  0
 37 60  1  0  0  0  0
 37 66  1  0  0  0  0
 37 78  2  0  0  0  0
 38 59  1  0  0  0  0
 38 71  1  0  0  0  0
 38 79  2  0  0  0  0
 39 61  1  0  0  0  0
 39 73  1  0  0  0  0
 39 80  2  0  0  0  0
 40 67  1  0  0  0  0
 40 70  1  0  0  0  0
 40 81  2  0  0  0  0
 41 44  1  0  0  0  0
 42 51  1  0  0  0  0
 43 66  1  0  0  0  0
 44 46  1  0  0  0  0
 45 47  1  0  0  0  0
 45 48  1  0  0  0  0
 46 50  1  0  0  0  0
 47 52  1  0  0  0  0
 48 67  1  0  0  0  0
 49 52  1  0  0  0  0
 49 67  1  0  0  0  0
 50 72  1  0  0  0  0
 51 66  1  0  0  0  0
 52 65  1  0  0  0  0
 53 61  1  0  0  0  0
 54 62  1  0  0  0  0
 55 63  1  0  0  0  0
 56 63  1  0  0  0  0
 57 63  1  0  0  0  0
 58 75  1  0  0  0  0
 59 62  1  0  0  0  0
 60 63  1  0  0  0  0
 60 73  1  0  0  0  0
 61 75  1  0  0  0  0
 62 83  1  0  0  0  0
 64 65  1  0  0  0  0
M  CHG  2  74   1  75   1
M  ISO  4  40 100  62 101  70 100  83 101
M  END
> <Batch ID>
0176

> <Smiles>
CNC(C)C(=O)NC(C(=O)N1Cc2cc([101O:1][101CH:1](C)CC(=O)NC(=N)c3ccc(F)c([100NH:0][100C:0](=O)N4CCCC(n5nc(-c6ccc(Oc7ccc(F)cc7F)cc6)c(C(N)=O)c5N)C4)c3F)ccc2CC1C(=O)NC1CCCc2ccccc21)C(C)(C)C

> <Shape>
0.262

> <Color>
0.074

> <Negative vol penalty>
0.000

$$$$

  -OEChem-04052304383D

 83 91  0     1  0  0  0  0  0999 V2000
  -21.5095  -31.2854   14.5877 C   0  0  0  0  0  0  0  0  0  0  0  0
  -22.7353  -30.8401   15.0720 C   0  0  0  0  0  0  0  0  0  0  0  0
  -26.8368  -11.5830   21.0741 C   0  0  0  0  0  0  0  0  0  0  0  0
  -26.4673  -12.3960   18.8292 C   0  0  0  0  0  0  0  0  0  0  0  0
  -20.8142  -32.2847   15.2673 C   0  0  0  0  0  0  0  0  0  0  0  0
  -23.2670  -31.3946   16.2357 C   0  0  0  0  0  0  0  0  0  0  0  0
  -25.1171  -27.8897   19.3882 C   0  0  0  0  0  0  0  0  0  0  0  0
  -25.7214  -10.7537   20.9573 C   0  0  0  0  0  0  0  0  0  0  0  0
  -25.3519  -11.5666   18.7124 C   0  0  0  0  0  0  0  0  0  0  0  0
  -26.3669  -27.3535   19.0813 C   0  0  0  0  0  0  0  0  0  0  0  0
  -24.7314   -8.2996   18.1110 C   0  0  0  0  0  0  0  0  0  0  0  0
  -24.5886   -7.5704   16.9306 C   0  0  0  0  0  0  0  0  0  0  0  0
  -27.3872  -28.8187   20.7034 C   0  0  0  0  0  0  0  0  0  0  0  0
  -22.4775   -8.6667   16.5085 C   0  0  0  0  0  0  0  0  0  0  0  0
  -28.3363  -20.3075   16.7166 C   0  0  0  0  0  0  0  0  0  0  0  0
  -27.2097  -12.4043   20.0100 C   0  0  0  0  0  0  0  0  0  0  0  0
  -29.6930  -12.9483   19.7974 C   0  0  0  0  0  0  0  0  0  0  0  0
  -21.3330  -32.8449   16.4453 C   0  0  0  0  0  0  0  0  0  0  0  0
  -24.9942  -28.9039   20.3488 C   0  0  0  0  0  0  0  0  0  0  0  0
  -22.5786  -32.4032   16.9310 C   0  0  0  0  0  0  0  0  0  0  0  0
  -26.1344  -29.3644   21.0225 C   0  0  0  0  0  0  0  0  0  0  0  0
  -24.9789  -10.7455   19.7765 C   0  0  0  0  0  0  0  0  0  0  0  0
  -27.5026  -27.8200   19.7369 C   0  0  0  0  0  0  0  0  0  0  0  0
  -23.7471   -9.2123   18.4903 C   0  0  0  0  0  0  0  0  0  0  0  0
  -23.4617   -7.7539   16.1293 C   0  0  0  0  0  0  0  0  0  0  0  0
  -22.6202   -9.3959   17.6890 C   0  0  0  0  0  0  0  0  0  0  0  0
  -28.3615  -13.2616   20.1303 C   0  0  0  0  0  0  0  0  0  0  0  0
  -28.6052  -20.6078   18.0356 C   0  0  0  0  0  0  0  0  0  0  0  0
  -30.3985  -14.0889   20.0935 C   0  0  0  0  0  0  0  0  0  0  0  0
  -28.8041  -22.6223   17.1916 C   0  0  0  0  0  0  0  0  0  0  0  0
  -30.2429  -11.7346   19.2679 C   0  0  0  0  0  0  0  0  0  0  0  0
  -29.4637  -26.3260   17.4118 C   0  0  0  0  0  0  0  0  0  0  0  0
  -29.1748  -27.4108   18.1536 C   0  0  0  0  0  0  0  0  0  1  0  0
  -29.3304  -24.9473   17.9906 C   0  0  0  0  0  0  0  0  0  0  0  0
  -23.9922  -31.9202   20.3106 C   0  0  0  0  0  0  0  0  0  0  0  0
  -24.4057  -31.6892   23.5196 C   0  0  0  0  0  0  0  0  0  0  0  0
  -25.9612  -30.1471   26.1367 C   0  0  0  0  0  0  0  0  0  0  0  0
  -28.8788  -19.8583   20.4251 C   0  0  0  0  0  0  0  0  0  0  0  0
  -20.5675  -33.9559   17.1192 C   0  0  0  0  0  0  0  0  0  0  0  0
  -23.6355  -29.4531   20.6876 C   0  0  0  0  0  0  0  0  0  0  0  0
  -26.0536  -30.4374   22.0764 C   0  0  0  0  0  0  0  0  0  0  0  0
  -21.0223  -34.2278   18.5508 C   0  0  0  0  0  0  0  0  0  0  0  0
  -30.3259  -17.8854   23.0118 C   0  0  0  0  0  0  0  0  0  0  0  0
  -22.5445  -34.2952   18.6236 C   0  0  0  0  0  0  0  0  0  0  0  0
  -30.1129  -16.4474   22.5332 C   0  0  0  0  0  0  0  0  0  0  0  0
  -29.1448  -18.7843   22.6501 C   0  0  0  0  0  0  0  0  0  0  0  0
  -28.5495  -17.3286   20.7538 C   0  0  0  0  0  0  0  0  0  0  0  0
  -23.1764  -32.9626   18.2037 C   0  0  1  0  0  0  0  0  0  0  0  0
  -23.6921  -30.8430   21.3141 C   0  0  1  0  0  0  0  0  0  0  0  0
  -29.7415  -16.4003   21.0380 C   0  0  2  0  0  0  0  0  0  0  0  0
  -29.2946  -28.8211   17.6542 C   0  0  0  0  0  0  0  0  0  0  0  0
  -26.1252  -30.2018   28.6402 C   0  0  0  0  0  0  0  0  0  0  0  0
  -26.1528  -34.1848   23.3482 C   0  0  0  0  0  0  0  0  0  0  0  0
  -27.0317  -33.6413   25.6286 C   0  0  0  0  0  0  0  0  0  0  0  0
  -24.6056  -34.1274   25.3122 C   0  0  0  0  0  0  0  0  0  0  0  0
  -24.9564  -27.3739   26.3790 C   0  0  0  0  0  0  0  0  0  0  0  0
  -25.5512  -31.9389   24.4706 C   0  0  1  0  0  0  0  0  0  0  0  0
  -25.4220  -29.5865   27.4404 C   0  0  2  0  0  0  0  0  0  0  0  0
  -25.8374  -33.4542   24.6687 C   0  0  0  0  0  0  0  0  0  0  0  0
  -28.2266  -14.5040   20.6019 N   0  0  0  0  0  0  0  0  0  0  0  0
  -28.8741  -21.9346   18.3098 N   0  0  0  0  0  0  0  0  0  0  0  0
  -29.4824  -14.9813   20.5676 N   0  0  0  0  0  0  0  0  0  0  0  0
  -24.7036  -30.9472   22.3678 N   0  0  0  0  0  0  0  0  0  0  0  0
  -28.8534  -18.6914   21.2179 N   0  0  0  0  0  0  0  0  0  0  0  0
  -31.7068  -14.4056   19.9921 N   0  0  0  0  0  0  0  0  0  0  0  0
  -29.3771  -10.6603   19.0221 N   0  0  0  0  0  0  0  0  0  0  0  0
  -28.6182  -19.6420   19.0723 N   0  0  0  0  0  0  0  0  0  0  0  0
  -29.0098  -24.0125   17.0154 N   0  0  0  0  0  0  0  0  0  0  0  0
  -23.0785  -31.9965   19.2767 N   0  0  0  0  0  0  0  0  0  0  0  0
  -25.2228  -31.2270   25.7010 N   0  0  0  0  0  0  0  0  0  0  0  0
  -25.6157  -28.1096   27.4885 N   0  3  0  0  0  0  0  0  0  0  0  0
  -31.4683  -11.6012   19.0355 O   0  0  0  0  0  0  0  0  0  0  0  0
  -29.4968  -24.7505   19.1892 O   0  0  0  0  0  0  0  0  0  0  0  0
  -24.9789  -32.6307   20.4637 O   0  0  0  0  0  0  0  0  0  0  0  0
  -23.2863  -32.1299   23.7922 O   0  0  0  0  0  0  0  0  0  0  0  0
  -26.9417  -29.6766   25.5642 O   0  0  0  0  0  0  0  0  0  0  0  0
  -29.1412  -20.9638   20.9057 O   0  0  0  0  0  0  0  0  0  0  0  0
  -29.8984  -26.4469   16.1053 O   0  0  0  0  0  0  0  0  0  0  0  0
  -23.8906   -9.9361   19.6621 O   0  0  0  0  0  0  0  0  0  0  0  0
  -28.7238  -27.2987   19.4388 O   0  0  0  0  0  0  0  0  0  1  0  0
  -23.3256   -7.0547   14.9950 F   0  0  0  0  0  0  0  0  0  0  0  0
  -21.6719  -10.2722   18.0476 F   0  0  0  0  0  0  0  0  0  0  0  0
  -28.4189  -21.7371   15.7728 S   0  0  0  0  0  0  0  0  0  0  0  0
  1  2  1  0  0  0  0
  1  5  2  0  0  0  0
  2  6  2  0  0  0  0
  3  8  2  0  0  0  0
  3 16  1  0  0  0  0
  4  9  1  0  0  0  0
  4 16  2  0  0  0  0
  5 18  1  0  0  0  0
  6 20  1  0  0  0  0
  7 10  2  0  0  0  0
  7 19  1  0  0  0  0
  8 22  1  0  0  0  0
  9 22  2  0  0  0  0
 10 23  1  0  0  0  0
 11 12  2  0  0  0  0
 11 24  1  0  0  0  0
 12 25  1  0  0  0  0
 13 21  1  0  0  0  0
 13 23  2  0  0  0  0
 14 25  2  0  0  0  0
 14 26  1  0  0  0  0
 15 28  2  0  0  0  0
 15 83  1  0  0  0  0
 16 27  1  0  0  0  0
 17 27  1  0  0  0  0
 17 29  2  0  0  0  0
 17 31  1  0  0  0  0
 18 20  2  0  0  0  0
 18 39  1  0  0  0  0
 19 21  2  0  0  0  0
 19 40  1  0  0  0  0
 20 48  1  0  0  0  0
 21 41  1  0  0  0  0
 22 79  1  0  0  0  0
 23 80  1  0  0  0  0
 24 26  2  0  0  0  0
 24 79  1  0  0  0  0
 25 81  1  0  0  0  0
 26 82  1  0  0  0  0
 27 60  2  0  0  0  0
 28 61  1  0  0  0  0
 28 67  1  0  0  0  0
 29 62  1  0  0  0  0
 29 65  1  0  0  0  0
 30 61  2  0  0  0  0
 30 68  1  0  0  0  0
 30 83  1  0  0  0  0
 31 66  1  0  0  0  0
 31 72  2  0  0  0  0
 32 33  2  0  0  0  0
 32 34  1  0  0  0  0
 32 78  1  0  0  0  0
 33 51  1  0  0  0  0
 33 80  1  0  0  0  0
 34 68  1  0  0  0  0
 34 73  2  0  0  0  0
 35 49  1  0  0  0  0
 35 69  1  0  0  0  0
 35 74  2  0  0  0  0
 36 57  1  0  0  0  0
 36 63  1  0  0  0  0
 36 75  2  0  0  0  0
 37 58  1  0  0  0  0
 37 70  1  0  0  0  0
 37 76  2  0  0  0  0
 38 64  1  0  0  0  0
 38 67  1  0  0  0  0
 38 77  2  0  0  0  0
 39 42  1  0  0  0  0
 40 49  1  0  0  0  0
 41 63  1  0  0  0  0
 42 44  1  0  0  0  0
 43 45  1  0  0  0  0
 43 46  1  0  0  0  0
 44 48  1  0  0  0  0
 45 50  1  0  0  0  0
 46 64  1  0  0  0  0
 47 50  1  0  0  0  0
 47 64  1  0  0  0  0
 48 69  1  0  0  0  0
 49 63  1  0  0  0  0
 50 62  1  0  0  0  0
 52 58  1  0  0  0  0
 53 59  1  0  0  0  0
 54 59  1  0  0  0  0
 55 59  1  0  0  0  0
 56 71  1  0  0  0  0
 57 59  1  0  0  0  0
 57 70  1  0  0  0  0
 58 71  1  0  0  0  0
 60 62  1  0  0  0  0
M  CHG  1  71   1
M  ISO  4  33 101  38 100  67 100  80 101
M  END
> <Batch ID>
0176

> <Smiles>
CNC(C)C(=O)NC(C(=O)N1Cc2cc([101O:1][101CH:1](C)C(=O)C(=O)Nc3nc([100NH:0][100C:0](=O)N4CCCC(n5nc(-c6ccc(Oc7ccc(F)cc7F)cc6)c(C(N)=O)c5N)C4)cs3)ccc2CC1C(=O)NC1CCCc2ccccc21)C(C)(C)C

> <Shape>
0.280

> <Color>
0.096

> <Negative vol penalty>
0.000

$$$$

  -OEChem-04052304383D

 84 92  0     1  0  0  0  0  0999 V2000
  -15.9845  -26.2644   24.3579 C   0  0  0  0  0  0  0  0  0  0  0  0
  -17.0701  -25.8254   23.6067 C   0  0  0  0  0  0  0  0  0  0  0  0
  -22.8059  -11.9224   18.9189 C   0  0  0  0  0  0  0  0  0  0  0  0
  -22.8594  -10.4322   20.8198 C   0  0  0  0  0  0  0  0  0  0  0  0
  -15.7806  -27.6296   24.5543 C   0  0  0  0  0  0  0  0  0  0  0  0
  -17.9518  -26.7515   23.0506 C   0  0  0  0  0  0  0  0  0  0  0  0
  -22.8020  -25.4451   23.6938 C   0  0  0  0  0  0  0  0  0  0  0  0
  -21.7014  -11.2372   18.4128 C   0  0  0  0  0  0  0  0  0  0  0  0
  -21.7549   -9.7470   20.3137 C   0  0  0  0  0  0  0  0  0  0  0  0
  -23.3139  -24.4612   22.8489 C   0  0  0  0  0  0  0  0  0  0  0  0
  -18.3704  -11.1160   18.9810 C   0  0  0  0  0  0  0  0  0  0  0  0
  -17.3039  -11.8732   18.4967 C   0  0  0  0  0  0  0  0  0  0  0  0
  -24.3391  -26.1702   21.4898 C   0  0  0  0  0  0  0  0  0  0  0  0
  -17.5759  -10.8634   16.3187 C   0  0  0  0  0  0  0  0  0  0  0  0
  -30.2290  -20.2680   21.3211 C   0  0  0  0  0  0  0  0  0  0  0  0
  -23.3850  -11.5199   20.1224 C   0  0  0  0  0  0  0  0  0  0  0  0
  -24.5151  -13.3346   21.5142 C   0  0  0  0  0  0  0  0  0  0  0  0
  -16.6657  -28.5725   24.0083 C   0  0  0  0  0  0  0  0  0  0  0  0
  -23.0462  -26.8018   23.4364 C   0  0  0  0  0  0  0  0  0  0  0  0
  -17.7588  -28.1307   23.2387 C   0  0  0  0  0  0  0  0  0  0  0  0
  -23.8314  -27.1693   22.3343 C   0  0  0  0  0  0  0  0  0  0  0  0
  -29.1045  -19.7897   20.6853 C   0  0  0  0  0  0  0  0  0  0  0  0
  -29.2554  -18.4320   20.2802 C   0  0  0  0  0  0  0  0  0  0  0  0
  -21.1759  -10.1495   19.1102 C   0  0  0  0  0  0  0  0  0  0  0  0
  -24.0801  -24.8239   21.7451 C   0  0  0  0  0  0  0  0  0  0  0  0
  -19.0398  -10.2324   18.1342 C   0  0  0  0  0  0  0  0  0  0  0  0
  -16.9066  -11.7469   17.1656 C   0  0  0  0  0  0  0  0  0  0  0  0
  -18.6425  -10.1061   16.8031 C   0  0  0  0  0  0  0  0  0  0  0  0
  -24.5263  -12.2270   20.6454 C   0  0  0  0  0  0  0  0  0  0  0  0
  -30.4898  -17.9244   20.6216 C   0  0  0  0  0  0  0  0  0  0  0  0
  -25.8419  -13.6308   21.7100 C   0  0  0  0  0  0  0  0  0  0  0  0
  -31.0460  -16.5795   20.3898 C   0  0  0  0  0  0  0  0  0  0  0  0
  -25.8153  -23.3528   21.2011 C   0  0  0  0  0  0  0  0  0  1  0  0
  -23.4047  -14.0333   22.0926 C   0  0  0  0  0  0  0  0  0  0  0  0
  -26.4028  -22.4080   20.4568 C   0  0  0  0  0  0  0  0  0  0  0  0
  -27.7607  -21.9102   20.8524 C   0  0  0  0  0  0  0  0  0  0  0  0
  -21.2257  -29.3234   22.7798 C   0  0  0  0  0  0  0  0  0  0  0  0
  -24.0356  -30.9259   23.0232 C   0  0  0  0  0  0  0  0  0  0  0  0
  -27.4432  -30.8406   22.8578 C   0  0  0  0  0  0  0  0  0  0  0  0
  -30.9523  -14.4180   19.6086 C   0  0  0  0  0  0  0  0  0  0  0  0
  -16.3775  -30.0394   24.2080 C   0  0  0  0  0  0  0  0  0  0  0  0
  -22.5093  -27.8496   24.3724 C   0  0  0  0  0  0  0  0  0  0  0  0
  -24.1395  -28.6109   22.0256 C   0  0  0  0  0  0  0  0  0  0  0  0
  -17.5692  -30.9419   23.8987 C   0  0  0  0  0  0  0  0  0  0  0  0
  -30.0162  -11.0533   20.5073 C   0  0  0  0  0  0  0  0  0  0  0  0
  -18.2152  -30.5389   22.5769 C   0  0  0  0  0  0  0  0  0  0  0  0
  -28.4980  -11.1445   20.6598 C   0  0  0  0  0  0  0  0  0  0  0  0
  -30.5236  -11.9695   19.3978 C   0  0  0  0  0  0  0  0  0  0  0  0
  -28.5922  -13.4925   19.7124 C   0  0  0  0  0  0  0  0  0  0  0  0
  -18.7513  -29.1036   22.6399 C   0  0  1  0  0  0  0  0  0  0  0  0
  -22.3904  -29.2255   23.7242 C   0  0  1  0  0  0  0  0  0  0  0  0
  -28.0475  -12.6046   20.8443 C   0  0  1  0  0  0  0  0  0  0  0  0
  -29.4631  -32.3151   23.0657 C   0  0  0  0  0  0  0  0  0  0  0  0
  -23.4671  -32.0899   20.2606 C   0  0  0  0  0  0  0  0  0  0  0  0
  -25.8758  -32.7591   20.1236 C   0  0  0  0  0  0  0  0  0  0  0  0
  -24.4157  -33.7189   21.9040 C   0  0  0  0  0  0  0  0  0  0  0  0
  -28.4970  -29.2728   25.1361 C   0  0  0  0  0  0  0  0  0  0  0  0
  -25.1387  -31.3015   22.0635 C   0  0  1  0  0  0  0  0  0  0  0  0
  -28.5109  -31.3787   23.7932 C   0  0  2  0  0  0  0  0  0  0  0  0
  -24.7171  -32.4402   21.0924 C   0  0  0  0  0  0  0  0  0  0  0  0
  -25.7621  -11.8455   20.3121 N   0  0  0  0  0  0  0  0  0  0  0  0
  -30.3675  -15.6566   19.7905 N   0  0  0  0  0  0  0  0  0  0  0  0
  -26.5399  -12.7183   20.9749 N   0  0  0  0  0  0  0  0  0  0  0  0
  -23.5867  -29.5988   22.9668 N   0  0  0  0  0  0  0  0  0  0  0  0
  -30.0480  -13.3403   19.5889 N   0  0  0  0  0  0  0  0  0  0  0  0
  -28.3010  -17.7201   19.6321 N   0  0  0  0  0  0  0  0  0  0  0  0
  -26.4679  -14.5801   22.4375 N   0  0  0  0  0  0  0  0  0  0  0  0
  -22.1083  -13.5974   21.7865 N   0  0  0  0  0  0  0  0  0  0  0  0
  -27.9531  -20.5873   20.4787 N   0  0  0  0  0  0  0  0  0  0  0  0
  -20.0022  -29.0627   23.3666 N   0  0  0  0  0  0  0  0  0  0  0  0
  -26.3036  -31.6162   22.8835 N   0  0  0  0  0  0  0  0  0  0  0  0
  -29.3047  -30.2583   24.3724 N   0  3  0  0  0  0  0  0  0  0  0  0
  -23.5572  -15.0252   22.8452 O   0  0  0  0  0  0  0  0  0  0  0  0
  -28.5548  -22.6413   21.4344 O   0  0  0  0  0  0  0  0  0  0  0  0
  -21.4225  -29.6154   21.6061 O   0  0  0  0  0  0  0  0  0  0  0  0
  -23.5936  -31.7766   23.7994 O   0  0  0  0  0  0  0  0  0  0  0  0
  -27.6055  -29.8349   22.1701 O   0  0  0  0  0  0  0  0  0  0  0  0
  -32.1651  -14.2446   19.4667 O   0  0  0  0  0  0  0  0  0  0  0  0
  -25.8063  -21.8693   19.3350 O   0  0  0  0  0  0  0  0  0  0  0  0
  -20.0980   -9.4807   18.6168 O   0  0  0  0  0  0  0  0  0  0  0  0
  -24.5804  -23.8656   20.9185 O   0  0  0  0  0  0  0  0  0  1  0  0
  -15.8814  -12.4731   16.7010 F   0  0  0  0  0  0  0  0  0  0  0  0
  -19.2810   -9.2581   15.9851 F   0  0  0  0  0  0  0  0  0  0  0  0
  -31.4601  -19.0825   21.4274 S   0  0  0  0  0  0  0  0  0  0  0  0
  1  2  1  0  0  0  0
  1  5  2  0  0  0  0
  2  6  2  0  0  0  0
  3  8  2  0  0  0  0
  3 16  1  0  0  0  0
  4  9  1  0  0  0  0
  4 16  2  0  0  0  0
  5 18  1  0  0  0  0
  6 20  1  0  0  0  0
  7 10  2  0  0  0  0
  7 19  1  0  0  0  0
  8 24  1  0  0  0  0
  9 24  2  0  0  0  0
 10 25  1  0  0  0  0
 11 12  2  0  0  0  0
 11 26  1  0  0  0  0
 12 27  1  0  0  0  0
 13 21  1  0  0  0  0
 13 25  2  0  0  0  0
 14 27  2  0  0  0  0
 14 28  1  0  0  0  0
 15 22  2  0  0  0  0
 15 84  1  0  0  0  0
 16 29  1  0  0  0  0
 17 29  1  0  0  0  0
 17 31  2  0  0  0  0
 17 34  1  0  0  0  0
 18 20  2  0  0  0  0
 18 41  1  0  0  0  0
 19 21  2  0  0  0  0
 19 42  1  0  0  0  0
 20 50  1  0  0  0  0
 21 43  1  0  0  0  0
 22 23  1  0  0  0  0
 22 69  1  0  0  0  0
 23 30  2  0  0  0  0
 23 66  1  0  0  0  0
 24 80  1  0  0  0  0
 25 81  1  0  0  0  0
 26 28  2  0  0  0  0
 26 80  1  0  0  0  0
 27 82  1  0  0  0  0
 28 83  1  0  0  0  0
 29 61  2  0  0  0  0
 30 32  1  0  0  0  0
 30 84  1  0  0  0  0
 31 63  1  0  0  0  0
 31 67  1  0  0  0  0
 32 62  2  0  0  0  0
 33 35  2  0  0  0  0
 33 81  1  0  0  0  0
 34 68  1  0  0  0  0
 34 73  2  0  0  0  0
 35 36  1  0  0  0  0
 35 79  1  0  0  0  0
 36 69  1  0  0  0  0
 36 74  2  0  0  0  0
 37 51  1  0  0  0  0
 37 70  1  0  0  0  0
 37 75  2  0  0  0  0
 38 58  1  0  0  0  0
 38 64  1  0  0  0  0
 38 76  2  0  0  0  0
 39 59  1  0  0  0  0
 39 71  1  0  0  0  0
 39 77  2  0  0  0  0
 40 62  1  0  0  0  0
 40 65  1  0  0  0  0
 40 78  2  0  0  0  0
 41 44  1  0  0  0  0
 42 51  1  0  0  0  0
 43 64  1  0  0  0  0
 44 46  1  0  0  0  0
 45 47  1  0  0  0  0
 45 48  1  0  0  0  0
 46 50  1  0  0  0  0
 47 52  1  0  0  0  0
 48 65  1  0  0  0  0
 49 52  1  0  0  0  0
 49 65  1  0  0  0  0
 50 70  1  0  0  0  0
 51 64  1  0  0  0  0
 52 63  1  0  0  0  0
 53 59  1  0  0  0  0
 54 60  1  0  0  0  0
 55 60  1  0  0  0  0
 56 60  1  0  0  0  0
 57 72  1  0  0  0  0
 58 60  1  0  0  0  0
 58 71  1  0  0  0  0
 59 72  1  0  0  0  0
 61 63  1  0  0  0  0
M  CHG  1  72   1
M  ISO  4  33 101  40 100  62 100  81 101
M  END
> <Batch ID>
0176

> <Smiles>
CNC(C)C(=O)NC(C(=O)N1Cc2cc([101O:1][101CH2:1]C(=O)C(=O)Nc3csc(C=[100N:0][100C:0](=O)N4CCCC(n5nc(-c6ccc(Oc7ccc(F)cc7F)cc6)c(C(N)=O)c5N)C4)c3N)ccc2CC1C(=O)NC1CCCc2ccccc21)C(C)(C)C

> <Shape>
0.272

> <Color>
0.095

> <Negative vol penalty>
0.000

$$$$

  -OEChem-04052304383D

 88 96  0     1  0  0  0  0  0999 V2000
  -16.8547  -30.7220   24.0205 C   0  0  0  0  0  0  0  0  0  0  0  0
  -18.0648  -31.0327   24.6327 C   0  0  0  0  0  0  0  0  0  0  0  0
  -26.7868  -12.0957   21.7610 C   0  0  0  0  0  0  0  0  0  0  0  0
  -25.8745  -13.6574   20.1592 C   0  0  0  0  0  0  0  0  0  0  0  0
  -16.7924  -29.6887   23.0866 C   0  0  0  0  0  0  0  0  0  0  0  0
  -19.2130  -30.3093   24.3121 C   0  0  0  0  0  0  0  0  0  0  0  0
  -26.3024  -31.0946   23.6494 C   0  0  0  0  0  0  0  0  0  0  0  0
  -25.5615  -11.4312   21.8110 C   0  0  0  0  0  0  0  0  0  0  0  0
  -24.6492  -12.9929   20.2091 C   0  0  0  0  0  0  0  0  0  0  0  0
  -27.4953  -30.5210   24.0875 C   0  0  0  0  0  0  0  0  0  0  0  0
  -23.8602   -9.1978   19.9267 C   0  0  0  0  0  0  0  0  0  0  0  0
  -23.8760   -7.8040   19.8738 C   0  0  0  0  0  0  0  0  0  0  0  0
  -27.2845  -28.8091   22.4010 C   0  0  0  0  0  0  0  0  0  0  0  0
  -28.5601  -22.4679   22.3815 C   0  0  0  0  0  0  0  0  0  0  0  0
  -22.7962   -7.7099   22.0330 C   0  0  0  0  0  0  0  0  0  0  0  0
  -26.9434  -13.2089   20.9351 C   0  0  0  0  0  0  0  0  0  0  0  0
  -29.2842  -13.6328   20.0139 C   0  0  0  0  0  0  0  0  0  0  0  0
  -17.9424  -28.9586   22.7472 C   0  0  0  0  0  0  0  0  0  0  0  0
  -25.5849  -30.5225   22.5891 C   0  0  0  0  0  0  0  0  0  0  0  0
  -19.1657  -29.2644   23.3738 C   0  0  0  0  0  0  0  0  0  0  0  0
  -26.0841  -29.3789   21.9497 C   0  0  0  0  0  0  0  0  0  0  0  0
  -27.2238  -22.7133   19.9450 C   0  0  0  0  0  0  0  0  0  0  0  0
  -27.8781  -23.6456   22.0757 C   0  0  0  0  0  0  0  0  0  0  0  0
  -28.5741  -21.4130   21.4690 C   0  0  0  0  0  0  0  0  0  0  0  0
  -24.4927  -11.8797   21.0351 C   0  0  0  0  0  0  0  0  0  0  0  0
  -27.9850  -29.3765   23.4652 C   0  0  0  0  0  0  0  0  0  0  0  0
  -23.3125   -9.8476   21.0328 C   0  0  0  0  0  0  0  0  0  0  0  0
  -23.3440   -7.0601   20.9269 C   0  0  0  0  0  0  0  0  0  0  0  0
  -22.7805   -9.1036   22.0859 C   0  0  0  0  0  0  0  0  0  0  0  0
  -27.2099  -23.7683   20.8575 C   0  0  0  0  0  0  0  0  0  0  0  0
  -27.9059  -21.5357   20.2508 C   0  0  0  0  0  0  0  0  0  0  0  0
  -28.2087  -13.8961   20.8834 C   0  0  0  0  0  0  0  0  0  0  0  0
  -30.2420  -14.5529   20.3642 C   0  0  0  0  0  0  0  0  0  0  0  0
  -29.4064  -12.6451   18.9819 C   0  0  0  0  0  0  0  0  0  0  0  0
  -28.2522  -26.0491   24.9469 C   0  0  0  0  0  0  0  0  0  0  0  0
  -28.4809  -24.7463   24.2362 C   0  0  0  0  0  0  0  0  0  0  0  0
  -22.6918  -29.2451   22.2696 C   0  0  0  0  0  0  0  0  0  0  0  0
  -23.5084  -29.1464   19.1319 C   0  0  0  0  0  0  0  0  0  0  0  0
  -25.9833  -29.0684   16.7833 C   0  0  0  0  0  0  0  0  0  0  0  0
  -29.9815  -19.9353   22.9462 C   0  0  0  0  0  0  0  0  0  0  0  0
  -17.8161  -27.8194   21.7670 C   0  0  0  0  0  0  0  0  0  0  0  0
  -24.3136  -31.1688   22.1109 C   0  0  0  0  0  0  0  0  0  0  0  0
  -25.3622  -28.7377   20.7938 C   0  0  0  0  0  0  0  0  0  0  0  0
  -19.1550  -27.3475   21.2057 C   0  0  0  0  0  0  0  0  0  0  0  0
  -31.7948  -17.1008   24.1100 C   0  0  0  0  0  0  0  0  0  0  0  0
  -20.1760  -27.1836   22.3271 C   0  0  0  0  0  0  0  0  0  0  0  0
  -31.1830  -15.9341   23.3310 C   0  0  0  0  0  0  0  0  0  0  0  0
  -30.7440  -18.1427   24.4891 C   0  0  0  0  0  0  0  0  0  0  0  0
  -29.3209  -17.4748   22.5923 C   0  0  0  0  0  0  0  0  0  0  0  0
  -20.4381  -28.5189   23.0341 C   0  0  1  0  0  0  0  0  0  0  0  0
  -23.4006  -30.2062   21.3578 C   0  0  1  0  0  0  0  0  0  0  0  0
  -30.3519  -16.4313   22.1320 C   0  0  2  0  0  0  0  0  0  0  0  0
  -26.5089  -22.8455   18.6426 C   0  0  0  0  0  0  0  0  0  0  0  0
  -26.3416  -28.9517   14.3023 C   0  0  0  0  0  0  0  0  0  0  0  0
  -30.2909  -29.1453   25.9720 C   0  0  0  0  0  0  0  0  0  0  0  0
  -22.8167  -26.1749   19.1741 C   0  0  0  0  0  0  0  0  0  0  0  0
  -24.0663  -25.9246   17.0192 C   0  0  0  0  0  0  0  0  0  0  0  0
  -22.0539  -27.3946   17.1284 C   0  0  0  0  0  0  0  0  0  0  0  0
  -27.3826  -31.6759   16.7458 C   0  0  0  0  0  0  0  0  0  0  0  0
  -29.4851  -26.8701   25.2590 C   0  0  0  0  0  0  0  0  0  0  0  0
  -24.1984  -28.1447   18.2377 C   0  0  1  0  0  0  0  0  0  0  0  0
  -26.1870  -29.8658   15.5078 C   0  0  2  0  0  0  0  0  0  0  0  0
  -29.1979  -28.3715   25.2470 C   0  0  2  0  0  0  0  0  0  1  0  0
  -23.2967  -26.9204   17.9129 C   0  0  0  0  0  0  0  0  0  0  0  0
  -28.4593  -14.9043   21.7229 N   0  0  0  0  0  0  0  0  0  0  0  0
  -29.7031  -15.2826   21.3827 N   0  0  0  0  0  0  0  0  0  0  0  0
  -24.1201  -29.4031   20.3671 N   0  0  0  0  0  0  0  0  0  0  0  0
  -29.9990  -18.5703   23.3029 N   0  0  0  0  0  0  0  0  0  0  0  0
  -31.4841  -14.8007   19.8973 N   0  0  0  0  0  0  0  0  0  0  0  0
  -28.3276  -11.7799   18.7540 N   0  0  0  0  0  0  0  0  0  0  0  0
  -27.8664  -24.7135   23.0030 N   0  0  0  0  0  0  0  0  0  0  0  0
  -29.2681  -20.2179   21.7818 N   0  0  0  0  0  0  0  0  0  0  0  0
  -21.3143  -29.3497   22.2363 N   0  0  0  0  0  0  0  0  0  0  0  0
  -24.6456  -28.8858   17.0633 N   0  0  0  0  0  0  0  0  0  0  0  0
  -27.4089  -30.7122   15.6156 N   0  3  0  0  0  0  0  0  0  0  0  0
  -30.4479  -12.5222   18.2936 O   0  0  0  0  0  0  0  0  0  0  0  0
  -27.0971  -26.3475   25.2100 O   0  0  0  0  0  0  0  0  0  0  0  0
  -29.1770  -23.9258   24.8108 O   0  0  0  0  0  0  0  0  0  0  0  0
  -23.3461  -28.4652   22.9518 O   0  0  0  0  0  0  0  0  0  0  0  0
  -22.4690  -29.6866   18.7455 O   0  0  0  0  0  0  0  0  0  0  0  0
  -26.9174  -28.6462   17.4613 O   0  0  0  0  0  0  0  0  0  0  0  0
  -30.5796  -20.7869   23.6088 O   0  0  0  0  0  0  0  0  0  0  0  0
  -23.2969  -11.2314   21.0835 O   0  0  0  0  0  0  0  0  0  0  0  0
  -29.1486  -28.8142   23.8913 O   0  0  0  0  0  0  0  0  0  1  0  0
  -23.3578   -5.7217   20.8753 F   0  0  0  0  0  0  0  0  0  0  0  0
  -22.2518   -9.7223   23.1506 F   0  0  0  0  0  0  0  0  0  0  0  0
  -26.5535  -24.9005   20.5621 F   0  0  0  0  0  0  0  0  0  0  0  0
  -27.9183  -20.5222   19.3717 F   0  0  0  0  0  0  0  0  0  0  0  0
  1  2  1  0  0  0  0
  1  5  2  0  0  0  0
  2  6  2  0  0  0  0
  3  8  2  0  0  0  0
  3 16  1  0  0  0  0
  4  9  1  0  0  0  0
  4 16  2  0  0  0  0
  5 18  1  0  0  0  0
  6 20  1  0  0  0  0
  7 10  2  0  0  0  0
  7 19  1  0  0  0  0
  8 25  1  0  0  0  0
  9 25  2  0  0  0  0
 10 26  1  0  0  0  0
 11 12  2  0  0  0  0
 11 27  1  0  0  0  0
 12 28  1  0  0  0  0
 13 21  1  0  0  0  0
 13 26  2  0  0  0  0
 14 23  1  0  0  0  0
 14 24  2  0  0  0  0
 15 28  2  0  0  0  0
 15 29  1  0  0  0  0
 16 32  1  0  0  0  0
 17 32  1  0  0  0  0
 17 33  2  0  0  0  0
 17 34  1  0  0  0  0
 18 20  2  0  0  0  0
 18 41  1  0  0  0  0
 19 21  2  0  0  0  0
 19 42  1  0  0  0  0
 20 50  1  0  0  0  0
 21 43  1  0  0  0  0
 22 30  1  0  0  0  0
 22 31  2  0  0  0  0
 22 53  1  0  0  0  0
 23 30  2  0  0  0  0
 23 71  1  0  0  0  0
 24 31  1  0  0  0  0
 24 72  1  0  0  0  0
 25 83  1  0  0  0  0
 26 84  1  0  0  0  0
 27 29  2  0  0  0  0
 27 83  1  0  0  0  0
 28 85  1  0  0  0  0
 29 86  1  0  0  0  0
 30 87  1  0  0  0  0
 31 88  1  0  0  0  0
 32 65  2  0  0  0  0
 33 66  1  0  0  0  0
 33 69  1  0  0  0  0
 34 70  1  0  0  0  0
 34 76  2  0  0  0  0
 35 36  1  0  0  0  0
 35 60  1  0  0  0  0
 35 77  2  0  0  0  0
 36 71  1  0  0  0  0
 36 78  2  0  0  0  0
 37 51  1  0  0  0  0
 37 73  1  0  0  0  0
 37 79  2  0  0  0  0
 38 61  1  0  0  0  0
 38 67  1  0  0  0  0
 38 80  2  0  0  0  0
 39 62  1  0  0  0  0
 39 74  1  0  0  0  0
 39 81  2  0  0  0  0
 40 68  1  0  0  0  0
 40 72  1  0  0  0  0
 40 82  2  0  0  0  0
 41 44  1  0  0  0  0
 42 51  1  0  0  0  0
 43 67  1  0  0  0  0
 44 46  1  0  0  0  0
 45 47  1  0  0  0  0
 45 48  1  0  0  0  0
 46 50  1  0  0  0  0
 47 52  1  0  0  0  0
 48 68  1  0  0  0  0
 49 52  1  0  0  0  0
 49 68  1  0  0  0  0
 50 73  1  0  0  0  0
 51 67  1  0  0  0  0
 52 66  1  0  0  0  0
 54 62  1  0  0  0  0
 55 63  1  0  0  0  0
 56 64  1  0  0  0  0
 57 64  1  0  0  0  0
 58 64  1  0  0  0  0
 59 75  1  0  0  0  0
 60 63  1  0  0  0  0
 61 64  1  0  0  0  0
 61 74  1  0  0  0  0
 62 75  1  0  0  0  0
 63 84  1  0  0  0  0
 65 66  1  0  0  0  0
M  CHG  1  75   1
M  ISO  4  40 100  63 101  72 100  84 101
M  END
> <Batch ID>
0176

> <Smiles>
CNC(C)C(=O)NC(C(=O)N1Cc2cc([101O:1][101CH:1](C)CC(=O)C(=O)Nc3cc([100NH:0][100C:0](=O)N4CCCC(n5nc(-c6ccc(Oc7ccc(F)cc7F)cc6)c(C(N)=O)c5N)C4)c(F)c(C)c3F)ccc2CC1C(=O)NC1CCCc2ccccc21)C(C)(C)C

> <Shape>
0.305

> <Color>
0.116

> <Negative vol penalty>
0.000

$$$$

  -OEChem-04052304383D

 86 94  0     1  0  0  0  0  0999 V2000
  -30.3888  -27.2122   15.9592 C   0  0  0  0  0  0  0  0  0  0  0  0
  -29.0075  -27.1118   16.0911 C   0  0  0  0  0  0  0  0  0  0  0  0
  -23.9683  -13.3721   18.5599 C   0  0  0  0  0  0  0  0  0  0  0  0
  -23.2449  -13.6931   20.8426 C   0  0  0  0  0  0  0  0  0  0  0  0
  -31.1758  -27.4935   17.0751 C   0  0  0  0  0  0  0  0  0  0  0  0
  -28.4125  -27.2918   17.3393 C   0  0  0  0  0  0  0  0  0  0  0  0
  -22.9660  -29.8456   18.4878 C   0  0  0  0  0  0  0  0  0  0  0  0
  -25.1173  -12.7254   19.0149 C   0  0  0  0  0  0  0  0  0  0  0  0
  -24.3940  -13.0463   21.2976 C   0  0  0  0  0  0  0  0  0  0  0  0
  -21.7071  -29.2994   18.7340 C   0  0  0  0  0  0  0  0  0  0  0  0
  -28.1141  -13.5933   20.3151 C   0  0  0  0  0  0  0  0  0  0  0  0
  -29.3296  -13.9432   19.7272 C   0  0  0  0  0  0  0  0  0  0  0  0
  -18.6136  -22.3526   21.9357 C   0  0  0  0  0  0  0  0  0  0  0  0
  -22.0942  -29.4920   21.1072 C   0  0  0  0  0  0  0  0  0  0  0  0
  -29.6341  -11.6600   18.9981 C   0  0  0  0  0  0  0  0  0  0  0  0
  -23.0321  -13.8560   19.4737 C   0  0  0  0  0  0  0  0  0  0  0  0
  -18.1009  -22.6485   23.2317 C   0  0  0  0  0  0  0  0  0  0  0  0
  -20.6045  -13.9364   18.6941 C   0  0  0  0  0  0  0  0  0  0  0  0
  -30.5894  -27.6865   18.3359 C   0  0  0  0  0  0  0  0  0  0  0  0
  -23.8042  -30.2096   19.5514 C   0  0  0  0  0  0  0  0  0  0  0  0
  -29.1926  -27.5746   18.4734 C   0  0  0  0  0  0  0  0  0  0  0  0
  -23.3622  -30.0450   20.8719 C   0  0  0  0  0  0  0  0  0  0  0  0
  -25.3302  -12.5625   20.3837 C   0  0  0  0  0  0  0  0  0  0  0  0
  -21.2722  -29.1198   20.0438 C   0  0  0  0  0  0  0  0  0  0  0  0
  -27.6585  -12.2768   20.2446 C   0  0  0  0  0  0  0  0  0  0  0  0
  -30.0896  -12.9766   19.0687 C   0  0  0  0  0  0  0  0  0  0  0  0
  -28.4185  -11.3102   19.5861 C   0  0  0  0  0  0  0  0  0  0  0  0
  -21.8452  -14.5247   19.0043 C   0  0  0  0  0  0  0  0  0  0  0  0
  -19.8155  -14.9882   18.2970 C   0  0  0  0  0  0  0  0  0  0  0  0
  -19.0985  -21.0659   21.8524 C   0  0  0  0  0  0  0  0  0  0  0  0
  -18.2132  -21.5765   24.0897 C   0  0  0  0  0  0  0  0  0  0  0  0
  -17.5112  -23.9464   23.6263 C   0  0  0  0  0  0  0  0  0  0  0  0
  -20.2012  -12.5621   18.7590 C   0  0  0  0  0  0  0  0  0  0  0  0
  -17.4174  -25.0696   22.6395 C   0  0  0  0  0  0  0  0  0  0  0  0
  -26.6727  -29.2873   20.5638 C   0  0  0  0  0  0  0  0  0  0  0  0
  -26.2920  -31.7372   22.6555 C   0  0  0  0  0  0  0  0  0  0  0  0
  -24.1618  -33.8035   24.3406 C   0  0  0  0  0  0  0  0  0  0  0  0
  -19.9200  -20.8442   19.4813 C   0  0  0  0  0  0  0  0  0  0  0  0
  -31.4854  -27.9419   19.5219 C   0  0  0  0  0  0  0  0  0  0  0  0
  -25.1486  -30.8223   19.2689 C   0  0  0  0  0  0  0  0  0  0  0  0
  -24.2158  -30.4385   22.0487 C   0  0  0  0  0  0  0  0  0  0  0  0
  -30.7439  -28.4894   20.7387 C   0  0  0  0  0  0  0  0  0  0  0  0
  -20.0891  -19.3179   16.2690 C   0  0  0  0  0  0  0  0  0  0  0  0
  -29.4720  -27.6870   20.9943 C   0  0  0  0  0  0  0  0  0  0  0  0
  -20.4397  -17.8606   16.5780 C   0  0  0  0  0  0  0  0  0  0  0  0
  -20.7902  -20.2843   17.2220 C   0  0  0  0  0  0  0  0  0  0  0  0
  -20.9441  -18.5435   18.9584 C   0  0  0  0  0  0  0  0  0  0  0  0
  -28.5079  -27.7878   19.8061 C   0  0  1  0  0  0  0  0  0  0  0  0
  -26.1260  -30.6806   20.4317 C   0  0  1  0  0  0  0  0  0  0  0  0
  -20.2107  -17.5292   18.0657 C   0  0  2  0  0  0  0  0  0  0  0  0
  -24.1441  -35.6801   26.0066 C   0  0  0  0  0  0  0  0  0  0  0  0
  -26.8788  -29.7507   24.8958 C   0  0  0  0  0  0  0  0  0  0  0  0
  -25.9297  -31.4055   26.5173 C   0  0  0  0  0  0  0  0  0  0  0  0
  -27.9527  -31.9912   25.1805 C   0  0  0  0  0  0  0  0  0  0  0  0
  -19.1392  -25.7911   20.1959 C   0  0  0  0  0  0  0  0  0  0  0  0
  -22.8625  -35.6470   22.4243 C   0  0  0  0  0  0  0  0  0  0  0  0
  -18.5558  -26.0658   22.6605 C   0  0  0  0  0  0  0  0  0  0  0  0
  -19.8890  -27.8349   21.4900 C   0  0  0  0  0  0  0  0  0  1  0  0
  -25.7005  -31.8814   24.0369 C   0  0  1  0  0  0  0  0  0  0  0  0
  -24.1600  -35.3095   24.5318 C   0  0  2  0  0  0  0  0  0  0  0  0
  -26.5999  -31.2479   25.1357 C   0  0  0  0  0  0  0  0  0  0  0  0
  -18.7988  -26.7706   21.3186 C   0  0  1  0  0  0  0  0  0  0  0  0
  -21.8491  -15.8476   18.8201 N   0  0  0  0  0  0  0  0  0  0  0  0
  -20.6011  -16.0993   18.3897 N   0  0  0  0  0  0  0  0  0  0  0  0
  -25.5247  -31.0274   21.7210 N   0  0  0  0  0  0  0  0  0  0  0  0
  -20.5247  -19.9108   18.6130 N   0  0  0  0  0  0  0  0  0  0  0  0
  -18.5333  -15.0619   17.8811 N   0  0  0  0  0  0  0  0  0  0  0  0
  -17.8238  -21.5223   25.3897 N   0  0  0  0  0  0  0  0  0  0  0  0
  -21.1366  -11.6108   19.1884 N   0  0  0  0  0  0  0  0  0  0  0  0
  -19.6870  -20.3657   20.7703 N   0  0  0  0  0  0  0  0  0  0  0  0
  -27.8164  -29.0590   19.8227 N   0  0  0  0  0  0  0  0  0  0  0  0
  -25.4421  -33.3050   24.2238 N   0  0  0  0  0  0  0  0  0  0  0  0
  -22.9618  -35.9126   23.8826 N   0  3  0  0  0  0  0  0  0  0  0  0
  -17.0644  -24.1663   24.7424 O   0  0  0  0  0  0  0  0  0  0  0  0
  -19.0505  -12.1864   18.4299 O   0  0  0  0  0  0  0  0  0  0  0  0
  -16.4094  -25.1283   21.9526 O   0  0  0  0  0  0  0  0  0  0  0  0
  -26.1001  -28.4796   21.2860 O   0  0  0  0  0  0  0  0  0  0  0  0
  -27.3909  -32.2421   22.4124 O   0  0  0  0  0  0  0  0  0  0  0  0
  -23.1308  -33.1356   24.3028 O   0  0  0  0  0  0  0  0  0  0  0  0
  -19.6054  -21.9749   19.1013 O   0  0  0  0  0  0  0  0  0  0  0  0
  -26.4511  -11.9312   20.8281 O   0  0  0  0  0  0  0  0  0  0  0  0
  -20.0441  -28.5863   20.2869 O   0  0  0  0  0  0  0  0  0  1  0  0
  -31.2561  -13.3130   18.5028 F   0  0  0  0  0  0  0  0  0  0  0  0
  -27.9855  -10.0440   19.5140 F   0  0  0  0  0  0  0  0  0  0  0  0
  -17.6515  -27.4265   20.9693 F   0  0  0  0  0  0  0  0  0  0  0  0
  -18.9346  -20.2205   23.3326 S   0  0  0  0  0  0  0  0  0  0  0  0
  1  2  1  0  0  0  0
  1  5  2  0  0  0  0
  2  6  2  0  0  0  0
  3  8  2  0  0  0  0
  3 16  1  0  0  0  0
  4  9  1  0  0  0  0
  4 16  2  0  0  0  0
  5 19  1  0  0  0  0
  6 21  1  0  0  0  0
  7 10  2  0  0  0  0
  7 20  1  0  0  0  0
  8 23  1  0  0  0  0
  9 23  2  0  0  0  0
 10 24  1  0  0  0  0
 11 12  2  0  0  0  0
 11 25  1  0  0  0  0
 12 26  1  0  0  0  0
 13 17  1  0  0  0  0
 13 30  2  0  0  0  0
 14 22  1  0  0  0  0
 14 24  2  0  0  0  0
 15 26  2  0  0  0  0
 15 27  1  0  0  0  0
 16 28  1  0  0  0  0
 17 31  2  0  0  0  0
 17 32  1  0  0  0  0
 18 28  1  0  0  0  0
 18 29  2  0  0  0  0
 18 33  1  0  0  0  0
 19 21  2  0  0  0  0
 19 39  1  0  0  0  0
 20 22  2  0  0  0  0
 20 40  1  0  0  0  0
 21 48  1  0  0  0  0
 22 41  1  0  0  0  0
 23 81  1  0  0  0  0
 24 82  1  0  0  0  0
 25 27  2  0  0  0  0
 25 81  1  0  0  0  0
 26 83  1  0  0  0  0
 27 84  1  0  0  0  0
 28 63  2  0  0  0  0
 29 64  1  0  0  0  0
 29 67  1  0  0  0  0
 30 70  1  0  0  0  0
 30 86  1  0  0  0  0
 31 68  1  0  0  0  0
 31 86  1  0  0  0  0
 32 34  1  0  0  0  0
 32 74  2  0  0  0  0
 33 69  1  0  0  0  0
 33 75  2  0  0  0  0
 34 57  1  0  0  0  0
 34 76  2  0  0  0  0
 35 49  1  0  0  0  0
 35 71  1  0  0  0  0
 35 77  2  0  0  0  0
 36 59  1  0  0  0  0
 36 65  1  0  0  0  0
 36 78  2  0  0  0  0
 37 60  1  0  0  0  0
 37 72  1  0  0  0  0
 37 79  2  0  0  0  0
 38 66  1  0  0  0  0
 38 70  1  0  0  0  0
 38 80  2  0  0  0  0
 39 42  1  0  0  0  0
 40 49  1  0  0  0  0
 41 65  1  0  0  0  0
 42 44  1  0  0  0  0
 43 45  1  0  0  0  0
 43 46  1  0  0  0  0
 44 48  1  0  0  0  0
 45 50  1  0  0  0  0
 46 66  1  0  0  0  0
 47 50  1  0  0  0  0
 47 66  1  0  0  0  0
 48 71  1  0  0  0  0
 49 65  1  0  0  0  0
 50 64  1  0  0  0  0
 51 60  1  0  0  0  0
 52 61  1  0  0  0  0
 53 61  1  0  0  0  0
 54 61  1  0  0  0  0
 55 62  1  0  0  0  0
 56 73  1  0  0  0  0
 57 62  1  0  0  0  0
 58 62  1  0  0  0  0
 58 82  1  0  0  0  0
 59 61  1  0  0  0  0
 59 72  1  0  0  0  0
 60 73  1  0  0  0  0
 62 85  1  0  0  0  0
 63 64  1  0  0  0  0
M  CHG  1  73   1
M  ISO  4  38 100  58 101  70 100  82 101
M  END
> <Batch ID>
0176

> <Smiles>
CNC(C)C(=O)NC(C(=O)N1Cc2cc([101O:1][101CH2:1]C(C)(F)CC(=O)C(=O)c3cc([100NH:0][100C:0](=O)N4CCCC(n5nc(-c6ccc(Oc7ccc(F)cc7F)cc6)c(C(N)=O)c5N)C4)sc3N)ccc2CC1C(=O)NC1CCCc2ccccc21)C(C)(C)C

> <Shape>
0.249

> <Color>
0.080

> <Negative vol penalty>
0.000

$$$$

  -OEChem-04052304383D

 86 94  0     1  0  0  0  0  0999 V2000
  -32.1486  -14.8911   20.2814 C   0  0  0  0  0  0  0  0  0  0  0  0
  -31.2237  -15.8729   20.6182 C   0  0  0  0  0  0  0  0  0  0  0  0
  -27.1399  -24.6734   20.8439 C   0  0  0  0  0  0  0  0  0  0  0  0
  -29.1709  -25.9730   20.9959 C   0  0  0  0  0  0  0  0  0  0  0  0
  -31.7087  -13.6217   19.9124 C   0  0  0  0  0  0  0  0  0  0  0  0
  -29.8591  -15.5822   20.5977 C   0  0  0  0  0  0  0  0  0  0  0  0
  -25.0293  -19.1723   21.5525 C   0  0  0  0  0  0  0  0  0  0  0  0
  -27.6956  -23.9263   19.8053 C   0  0  0  0  0  0  0  0  0  0  0  0
  -29.7267  -25.2259   19.9573 C   0  0  0  0  0  0  0  0  0  0  0  0
  -24.1680  -19.9623   20.7923 C   0  0  0  0  0  0  0  0  0  0  0  0
  -28.7132  -21.4399   17.3564 C   0  0  0  0  0  0  0  0  0  0  0  0
  -28.5565  -20.0545   17.3980 C   0  0  0  0  0  0  0  0  0  0  0  0
  -22.5788  -18.1489   20.7196 C   0  0  0  0  0  0  0  0  0  0  0  0
  -20.4208  -26.8929   22.2944 C   0  0  0  0  0  0  0  0  0  0  0  0
  -29.7286  -19.9854   19.5096 C   0  0  0  0  0  0  0  0  0  0  0  0
  -18.2390  -26.0985   22.3991 C   0  0  0  0  0  0  0  0  0  0  0  0
  -27.8775  -25.6967   21.4391 C   0  0  0  0  0  0  0  0  0  0  0  0
  -27.3765  -26.1945   23.8904 C   0  0  0  0  0  0  0  0  0  0  0  0
  -30.3374  -13.3197   19.8755 C   0  0  0  0  0  0  0  0  0  0  0  0
  -24.6759  -17.8587   21.8932 C   0  0  0  0  0  0  0  0  0  0  0  0
  -29.3963  -14.2999   20.2511 C   0  0  0  0  0  0  0  0  0  0  0  0
  -23.4363  -17.3452   21.4863 C   0  0  0  0  0  0  0  0  0  0  0  0
  -19.5613  -25.7592   22.2149 C   0  0  0  0  0  0  0  0  0  0  0  0
  -28.9890  -24.2025   19.3620 C   0  0  0  0  0  0  0  0  0  0  0  0
  -22.9438  -19.4497   20.3733 C   0  0  0  0  0  0  0  0  0  0  0  0
  -29.3777  -22.0981   18.3913 C   0  0  0  0  0  0  0  0  0  0  0  0
  -29.0641  -19.3273   18.4747 C   0  0  0  0  0  0  0  0  0  0  0  0
  -29.8853  -21.3708   19.4679 C   0  0  0  0  0  0  0  0  0  0  0  0
  -27.3037  -26.4692   22.5116 C   0  0  0  0  0  0  0  0  0  0  0  0
  -19.7225  -28.0556   22.5362 C   0  0  0  0  0  0  0  0  0  0  0  0
  -26.6779  -27.2186   24.4818 C   0  0  0  0  0  0  0  0  0  0  0  0
  -28.0182  -25.1107   24.5754 C   0  0  0  0  0  0  0  0  0  0  0  0
  -20.2414  -29.4393   22.6878 C   0  0  0  0  0  0  0  0  0  0  0  0
  -21.3632  -22.5216   21.5578 C   0  0  0  0  0  0  0  0  0  0  0  0
  -21.2868  -24.0037   21.7865 C   0  0  0  0  0  0  0  0  0  0  0  0
  -25.8870  -14.9821   21.2913 C   0  0  0  0  0  0  0  0  0  0  0  0
  -23.5766  -14.0079   23.3493 C   0  0  0  0  0  0  0  0  0  0  0  0
  -20.5590  -14.6234   24.8196 C   0  0  0  0  0  0  0  0  0  0  0  0
  -22.3079  -30.7995   22.6344 C   0  0  0  0  0  0  0  0  0  0  0  0
  -29.9169  -11.9272   19.4764 C   0  0  0  0  0  0  0  0  0  0  0  0
  -25.6046  -17.0286   22.7363 C   0  0  0  0  0  0  0  0  0  0  0  0
  -23.0010  -15.9481   21.8428 C   0  0  0  0  0  0  0  0  0  0  0  0
  -28.4528  -11.8456   19.0570 C   0  0  0  0  0  0  0  0  0  0  0  0
  -25.4824  -31.8125   23.8149 C   0  0  0  0  0  0  0  0  0  0  0  0
  -27.5750  -12.5216   20.0997 C   0  0  0  0  0  0  0  0  0  0  0  0
  -26.3157  -30.5293   23.7564 C   0  0  0  0  0  0  0  0  0  0  0  0
  -24.5201  -31.9185   22.6327 C   0  0  0  0  0  0  0  0  0  0  0  0
  -24.4903  -29.4719   22.3658 C   0  0  0  0  0  0  0  0  0  0  0  0
  -27.9058  -14.0156   20.2065 C   0  0  1  0  0  0  0  0  0  0  0  0
  -25.3651  -15.5291   22.5898 C   0  0  1  0  0  0  0  0  0  0  0  0
  -25.4250  -29.2843   23.5718 C   0  0  1  0  0  0  0  0  0  0  0  0
  -18.9120  -13.6263   26.4291 C   0  0  0  0  0  0  0  0  0  0  0  0
  -19.7579  -19.9092   19.2357 C   0  0  0  0  0  0  0  0  0  0  0  0
  -22.6513  -12.0592   21.1915 C   0  0  0  0  0  0  0  0  0  0  0  0
  -20.5015  -11.7976   22.4478 C   0  0  0  0  0  0  0  0  0  0  0  0
  -22.6551  -11.1229   23.5105 C   0  0  0  0  0  0  0  0  0  0  0  0
  -20.8239  -16.9058   26.6848 C   0  0  0  0  0  0  0  0  0  0  0  0
  -20.6452  -21.9923   20.3349 C   0  0  0  0  0  0  0  0  0  0  0  0
  -22.1355  -13.5793   23.2137 C   0  0  1  0  0  0  0  0  0  0  0  0
  -20.1102  -14.5488   26.2679 C   0  0  2  0  0  0  0  0  0  0  0  0
  -20.8096  -20.4807   20.1773 C   0  0  2  0  0  0  0  0  0  1  0  0
  -21.9946  -12.1655   22.5824 C   0  0  0  0  0  0  0  0  0  0  0  0
  -26.6133  -27.5805   22.2430 N   0  0  0  0  0  0  0  0  0  0  0  0
  -26.2458  -28.0133   23.4611 N   0  0  0  0  0  0  0  0  0  0  0  0
  -23.9465  -15.1735   22.6635 N   0  0  0  0  0  0  0  0  0  0  0  0
  -23.7069  -30.7052   22.5327 N   0  0  0  0  0  0  0  0  0  0  0  0
  -26.3973  -27.5078   25.7702 N   0  0  0  0  0  0  0  0  0  0  0  0
  -28.6920  -24.1453   23.8150 N   0  0  0  0  0  0  0  0  0  0  0  0
  -19.9909  -24.4332   21.9755 N   0  0  0  0  0  0  0  0  0  0  0  0
  -21.6243  -29.5802   22.5693 N   0  0  0  0  0  0  0  0  0  0  0  0
  -27.2062  -14.5740   21.3425 N   0  0  0  0  0  0  0  0  0  0  0  0
  -21.5464  -13.7017   24.5427 N   0  0  0  0  0  0  0  0  0  0  0  0
  -19.7313  -15.9024   26.7631 N   0  3  0  0  0  0  0  0  0  0  0  0
  -27.9809  -24.9927   25.8237 O   0  0  0  0  0  0  0  0  0  0  0  0
  -19.4477  -30.3596   22.8636 O   0  0  0  0  0  0  0  0  0  0  0  0
  -22.0002  -21.8631   22.3659 O   0  0  0  0  0  0  0  0  0  0  0  0
  -22.3456  -24.6093   21.8005 O   0  0  0  0  0  0  0  0  0  0  0  0
  -25.1472  -14.9326   20.3157 O   0  0  0  0  0  0  0  0  0  0  0  0
  -24.3442  -13.3372   24.0442 O   0  0  0  0  0  0  0  0  0  0  0  0
  -20.0788  -15.4172   24.0135 O   0  0  0  0  0  0  0  0  0  0  0  0
  -21.7204  -31.8721   22.8067 O   0  0  0  0  0  0  0  0  0  0  0  0
  -29.5317  -23.4736   18.3488 O   0  0  0  0  0  0  0  0  0  0  0  0
  -22.1015  -20.2184   19.6307 O   0  0  0  0  0  0  0  0  0  1  0  0
  -28.9122  -17.9971   18.5153 F   0  0  0  0  0  0  0  0  0  0  0  0
  -30.5235  -21.9977   20.4656 F   0  0  0  0  0  0  0  0  0  0  0  0
  -18.0378  -27.7779   22.6665 S   0  0  0  0  0  0  0  0  0  0  0  0
  1  2  1  0  0  0  0
  1  5  2  0  0  0  0
  2  6  2  0  0  0  0
  3  8  2  0  0  0  0
  3 17  1  0  0  0  0
  4  9  1  0  0  0  0
  4 17  2  0  0  0  0
  5 19  1  0  0  0  0
  6 21  1  0  0  0  0
  7 10  2  0  0  0  0
  7 20  1  0  0  0  0
  8 24  1  0  0  0  0
  9 24  2  0  0  0  0
 10 25  1  0  0  0  0
 11 12  2  0  0  0  0
 11 26  1  0  0  0  0
 12 27  1  0  0  0  0
 13 22  1  0  0  0  0
 13 25  2  0  0  0  0
 14 23  1  0  0  0  0
 14 30  2  0  0  0  0
 15 27  2  0  0  0  0
 15 28  1  0  0  0  0
 16 23  2  0  0  0  0
 16 86  1  0  0  0  0
 17 29  1  0  0  0  0
 18 29  1  0  0  0  0
 18 31  2  0  0  0  0
 18 32  1  0  0  0  0
 19 21  2  0  0  0  0
 19 40  1  0  0  0  0
 20 22  2  0  0  0  0
 20 41  1  0  0  0  0
 21 49  1  0  0  0  0
 22 42  1  0  0  0  0
 23 69  1  0  0  0  0
 24 82  1  0  0  0  0
 25 83  1  0  0  0  0
 26 28  2  0  0  0  0
 26 82  1  0  0  0  0
 27 84  1  0  0  0  0
 28 85  1  0  0  0  0
 29 63  2  0  0  0  0
 30 33  1  0  0  0  0
 30 86  1  0  0  0  0
 31 64  1  0  0  0  0
 31 67  1  0  0  0  0
 32 68  1  0  0  0  0
 32 74  2  0  0  0  0
 33 70  1  0  0  0  0
 33 75  2  0  0  0  0
 34 35  1  0  0  0  0
 34 58  1  0  0  0  0
 34 76  2  0  0  0  0
 35 69  1  0  0  0  0
 35 77  2  0  0  0  0
 36 50  1  0  0  0  0
 36 71  1  0  0  0  0
 36 78  2  0  0  0  0
 37 59  1  0  0  0  0
 37 65  1  0  0  0  0
 37 79  2  0  0  0  0
 38 60  1  0  0  0  0
 38 72  1  0  0  0  0
 38 80  2  0  0  0  0
 39 66  1  0  0  0  0
 39 70  1  0  0  0  0
 39 81  2  0  0  0  0
 40 43  1  0  0  0  0
 41 50  1  0  0  0  0
 42 65  1  0  0  0  0
 43 45  1  0  0  0  0
 44 46  1  0  0  0  0
 44 47  1  0  0  0  0
 45 49  1  0  0  0  0
 46 51  1  0  0  0  0
 47 66  1  0  0  0  0
 48 51  1  0  0  0  0
 48 66  1  0  0  0  0
 49 71  1  0  0  0  0
 50 65  1  0  0  0  0
 51 64  1  0  0  0  0
 52 60  1  0  0  0  0
 53 61  1  0  0  0  0
 54 62  1  0  0  0  0
 55 62  1  0  0  0  0
 56 62  1  0  0  0  0
 57 73  1  0  0  0  0
 58 61  1  0  0  0  0
 59 62  1  0  0  0  0
 59 72  1  0  0  0  0
 60 73  1  0  0  0  0
 61 83  1  0  0  0  0
 63 64  1  0  0  0  0
M  CHG  1  73   1
M  ISO  4  39 100  61 101  70 100  83 101
M  END
> <Batch ID>
0176

> <Smiles>
CNC(C)C(=O)NC(C(=O)N1Cc2cc([101O:1][101CH:1](C)CC(=O)C(=O)Nc3csc(C(=O)[100NH:0][100C:0](=O)N4CCCC(n5nc(-c6ccc(Oc7ccc(F)cc7F)cc6)c(C(N)=O)c5N)C4)c3)ccc2CC1C(=O)NC1CCCc2ccccc21)C(C)(C)C

> <Shape>
0.228

> <Color>
0.068

> <Negative vol penalty>
0.000

$$$$

  -OEChem-04052304383D

 85 93  0     1  0  0  0  0  0999 V2000
  -27.4610  -31.7695   18.3894 C   0  0  0  0  0  0  0  0  0  0  0  0
  -27.2657  -30.5225   18.9745 C   0  0  0  0  0  0  0  0  0  0  0  0
  -23.0214   -9.8082   19.9833 C   0  0  0  0  0  0  0  0  0  0  0  0
  -23.6962   -9.9391   22.2994 C   0  0  0  0  0  0  0  0  0  0  0  0
  -26.8624  -32.9000   18.9441 C   0  0  0  0  0  0  0  0  0  0  0  0
  -26.4724  -30.4055   20.1153 C   0  0  0  0  0  0  0  0  0  0  0  0
  -23.2677  -26.4927   19.8598 C   0  0  0  0  0  0  0  0  0  0  0  0
  -22.2553   -8.6785   20.2703 C   0  0  0  0  0  0  0  0  0  0  0  0
  -22.9300   -8.8094   22.5865 C   0  0  0  0  0  0  0  0  0  0  0  0
  -23.7916  -25.2237   20.1027 C   0  0  0  0  0  0  0  0  0  0  0  0
  -23.2021   -5.4583   22.2302 C   0  0  0  0  0  0  0  0  0  0  0  0
  -23.7785   -4.4699   23.0278 C   0  0  0  0  0  0  0  0  0  0  0  0
  -22.9300  -25.3055   22.3544 C   0  0  0  0  0  0  0  0  0  0  0  0
  -22.0175   -4.7574   24.6567 C   0  0  0  0  0  0  0  0  0  0  0  0
  -31.7700  -18.6990   22.1123 C   0  0  0  0  0  0  0  0  0  0  0  0
  -23.7419  -10.4385   20.9979 C   0  0  0  0  0  0  0  0  0  0  0  0
  -24.1177  -12.9492   20.7474 C   0  0  0  0  0  0  0  0  0  0  0  0
  -26.0535  -32.7953   20.0866 C   0  0  0  0  0  0  0  0  0  0  0  0
  -22.5793  -27.1834   20.8676 C   0  0  0  0  0  0  0  0  0  0  0  0
  -25.8635  -31.5357   20.6865 C   0  0  0  0  0  0  0  0  0  0  0  0
  -22.3961  -26.5821   22.1210 C   0  0  0  0  0  0  0  0  0  0  0  0
  -22.2095   -8.1791   21.5719 C   0  0  0  0  0  0  0  0  0  0  0  0
  -23.6253  -24.6311   21.3510 C   0  0  0  0  0  0  0  0  0  0  0  0
  -22.0333   -6.0964   22.6458 C   0  0  0  0  0  0  0  0  0  0  0  0
  -23.1862   -4.1194   24.2411 C   0  0  0  0  0  0  0  0  0  0  0  0
  -21.4410   -5.7458   23.8591 C   0  0  0  0  0  0  0  0  0  0  0  0
  -24.5340  -11.6052   20.7019 C   0  0  0  0  0  0  0  0  0  0  0  0
  -30.6462  -19.1186   22.7928 C   0  0  0  0  0  0  0  0  0  0  0  0
  -25.2313  -13.6661   20.3833 C   0  0  0  0  0  0  0  0  0  0  0  0
  -30.5245  -16.9174   21.8219 C   0  0  0  0  0  0  0  0  0  0  0  0
  -27.3479  -22.2660   22.0959 C   0  0  0  0  0  0  0  0  0  0  0  0
  -22.8388  -13.5004   21.0884 C   0  0  0  0  0  0  0  0  0  0  0  0
  -26.0922  -22.0320   21.6834 C   0  0  0  0  0  0  0  0  0  0  0  0
  -28.1116  -21.2825   22.9176 C   0  0  0  0  0  0  0  0  0  0  0  0
  -23.0301  -29.9191   22.4220 C   0  0  0  0  0  0  0  0  0  0  0  0
  -20.1217  -29.2309   23.6829 C   0  0  0  0  0  0  0  0  0  0  0  0
  -17.7880  -26.8660   24.4625 C   0  0  0  0  0  0  0  0  0  0  0  0
  -30.6993  -14.6670   20.7033 C   0  0  0  0  0  0  0  0  0  0  0  0
  -25.4658  -34.0522   20.6777 C   0  0  0  0  0  0  0  0  0  0  0  0
  -21.9971  -28.5404   20.5813 C   0  0  0  0  0  0  0  0  0  0  0  0
  -21.6474  -27.2731   23.2302 C   0  0  0  0  0  0  0  0  0  0  0  0
  -24.3353  -33.7884   21.6690 C   0  0  0  0  0  0  0  0  0  0  0  0
  -29.6446  -12.1326   18.4358 C   0  0  0  0  0  0  0  0  0  0  0  0
  -24.7285  -32.6846   22.6456 C   0  0  0  0  0  0  0  0  0  0  0  0
  -28.1867  -11.8800   18.8269 C   0  0  0  0  0  0  0  0  0  0  0  0
  -30.5174  -12.4208   19.6560 C   0  0  0  0  0  0  0  0  0  0  0  0
  -28.5694  -13.2415   20.9214 C   0  0  0  0  0  0  0  0  0  0  0  0
  -24.9896  -31.3645   21.9102 C   0  0  1  0  0  0  0  0  0  0  0  0
  -21.7591  -29.3664   21.8417 C   0  0  1  0  0  0  0  0  0  0  0  0
  -27.6387  -13.0107   19.7197 C   0  0  2  0  0  0  0  0  0  0  0  0
  -15.5279  -26.6025   25.5207 C   0  0  0  0  0  0  0  0  0  0  0  0
  -21.3772  -29.5699   26.4431 C   0  0  0  0  0  0  0  0  0  0  0  0
  -19.3923  -28.3924   27.4138 C   0  0  0  0  0  0  0  0  0  0  0  0
  -19.0908  -30.5557   26.2088 C   0  0  0  0  0  0  0  0  0  0  0  0
  -30.1608  -22.1748   21.7976 C   0  0  0  0  0  0  0  0  0  0  0  0
  -16.6186  -25.7824   21.9691 C   0  0  0  0  0  0  0  0  0  0  0  0
  -30.3834  -20.4110   23.5102 C   0  0  0  0  0  0  0  0  0  0  0  0
  -25.3147  -23.0265   20.8745 C   0  0  0  0  0  0  0  0  0  1  0  0
  -19.6334  -28.4678   24.8904 C   0  0  1  0  0  0  0  0  0  0  0  0
  -16.2903  -26.8109   24.2214 C   0  0  2  0  0  0  0  0  0  0  0  0
  -19.8893  -29.2340   26.2189 C   0  0  0  0  0  0  0  0  0  0  0  0
  -31.7022  -17.4369   21.5553 N   0  0  0  0  0  0  0  0  0  0  0  0
  -25.8122  -11.4733   20.3375 N   0  0  0  0  0  0  0  0  0  0  0  0
  -26.2087  -12.7438   20.1506 N   0  0  0  0  0  0  0  0  0  0  0  0
  -21.1024  -28.6012   22.9034 N   0  0  0  0  0  0  0  0  0  0  0  0
  -29.9386  -13.5055   20.4518 N   0  0  0  0  0  0  0  0  0  0  0  0
  -25.4599  -14.9891   20.2427 N   0  0  0  0  0  0  0  0  0  0  0  0
  -21.8045  -12.6219   21.4386 N   0  0  0  0  0  0  0  0  0  0  0  0
  -30.0331  -15.6435   21.4430 N   0  0  0  0  0  0  0  0  0  0  0  0
  -23.7394  -30.7281   21.5548 N   0  0  0  0  0  0  0  0  0  0  0  0
  -18.2297  -28.1602   24.6388 N   0  0  0  0  0  0  0  0  0  0  0  0
  -29.4987  -21.2901   22.7473 N   0  0  0  0  0  0  0  0  0  0  0  0
  -15.9555  -25.6923   23.2954 N   0  3  0  0  0  0  0  0  0  0  0  0
  -22.6151  -14.7346   21.0668 O   0  0  0  0  0  0  0  0  0  0  0  0
  -27.5145  -20.5514   23.7083 O   0  0  0  0  0  0  0  0  0  0  0  0
  -23.3434  -29.6340   23.5719 O   0  0  0  0  0  0  0  0  0  0  0  0
  -19.6453  -30.3416   23.4361 O   0  0  0  0  0  0  0  0  0  0  0  0
  -18.4948  -25.8611   24.4952 O   0  0  0  0  0  0  0  0  0  0  0  0
  -31.8468  -14.7977   20.2695 O   0  0  0  0  0  0  0  0  0  0  0  0
  -25.4457  -20.8400   21.9473 O   0  0  0  0  0  0  0  0  0  0  0  0
  -21.4618   -7.0769   21.8524 O   0  0  0  0  0  0  0  0  0  0  0  0
  -24.1362  -23.3929   21.5909 O   0  0  0  0  0  0  0  0  0  1  0  0
  -23.7390   -3.1691   25.0063 F   0  0  0  0  0  0  0  0  0  0  0  0
  -20.3176   -6.3544   24.2631 F   0  0  0  0  0  0  0  0  0  0  0  0
  -29.4489  -17.8918   22.7377 S   0  0  0  0  0  0  0  0  0  0  0  0
  1  2  1  0  0  0  0
  1  5  2  0  0  0  0
  2  6  2  0  0  0  0
  3  8  2  0  0  0  0
  3 16  1  0  0  0  0
  4  9  1  0  0  0  0
  4 16  2  0  0  0  0
  5 18  1  0  0  0  0
  6 20  1  0  0  0  0
  7 10  2  0  0  0  0
  7 19  1  0  0  0  0
  8 22  1  0  0  0  0
  9 22  2  0  0  0  0
 10 23  1  0  0  0  0
 11 12  2  0  0  0  0
 11 24  1  0  0  0  0
 12 25  1  0  0  0  0
 13 21  1  0  0  0  0
 13 23  2  0  0  0  0
 14 25  2  0  0  0  0
 14 26  1  0  0  0  0
 15 28  2  0  0  0  0
 15 62  1  0  0  0  0
 16 27  1  0  0  0  0
 17 27  1  0  0  0  0
 17 29  2  0  0  0  0
 17 32  1  0  0  0  0
 18 20  2  0  0  0  0
 18 39  1  0  0  0  0
 19 21  2  0  0  0  0
 19 40  1  0  0  0  0
 20 48  1  0  0  0  0
 21 41  1  0  0  0  0
 22 81  1  0  0  0  0
 23 82  1  0  0  0  0
 24 26  2  0  0  0  0
 24 81  1  0  0  0  0
 25 83  1  0  0  0  0
 26 84  1  0  0  0  0
 27 63  2  0  0  0  0
 28 57  1  0  0  0  0
 28 85  1  0  0  0  0
 29 64  1  0  0  0  0
 29 67  1  0  0  0  0
 30 62  2  0  0  0  0
 30 69  1  0  0  0  0
 30 85  1  0  0  0  0
 31 33  2  0  0  0  0
 31 34  1  0  0  0  0
 32 68  1  0  0  0  0
 32 74  2  0  0  0  0
 33 58  1  0  0  0  0
 33 80  1  0  0  0  0
 34 72  1  0  0  0  0
 34 75  2  0  0  0  0
 35 49  1  0  0  0  0
 35 70  1  0  0  0  0
 35 76  2  0  0  0  0
 36 59  1  0  0  0  0
 36 65  1  0  0  0  0
 36 77  2  0  0  0  0
 37 60  1  0  0  0  0
 37 71  1  0  0  0  0
 37 78  2  0  0  0  0
 38 66  1  0  0  0  0
 38 69  1  0  0  0  0
 38 79  2  0  0  0  0
 39 42  1  0  0  0  0
 40 49  1  0  0  0  0
 41 65  1  0  0  0  0
 42 44  1  0  0  0  0
 43 45  1  0  0  0  0
 43 46  1  0  0  0  0
 44 48  1  0  0  0  0
 45 50  1  0  0  0  0
 46 66  1  0  0  0  0
 47 50  1  0  0  0  0
 47 66  1  0  0  0  0
 48 70  1  0  0  0  0
 49 65  1  0  0  0  0
 50 64  1  0  0  0  0
 51 60  1  0  0  0  0
 52 61  1  0  0  0  0
 53 61  1  0  0  0  0
 54 61  1  0  0  0  0
 55 72  1  0  0  0  0
 56 73  1  0  0  0  0
 57 72  1  0  0  0  0
 58 82  1  0  0  0  0
 59 61  1  0  0  0  0
 59 71  1  0  0  0  0
 60 73  1  0  0  0  0
 63 64  1  0  0  0  0
M  CHG  1  73   1
M  ISO  4  38 100  58 101  69 100  82 101
M  END
> <Batch ID>
0176

> <Smiles>
CNC(C)C(=O)NC(C(=O)N1Cc2cc([101O:1][101CH2:1]C(=O)CC(=O)N(C)Cc3cnc([100NH:0][100C:0](=O)N4CCCC(n5nc(-c6ccc(Oc7ccc(F)cc7F)cc6)c(C(N)=O)c5N)C4)s3)ccc2CC1C(=O)NC1CCCc2ccccc21)C(C)(C)C

> <Shape>
0.296

> <Color>
0.204

> <Negative vol penalty>
0.000

$$$$

  -OEChem-04052304383D

 83 91  0     1  0  0  0  0  0999 V2000
  -20.4901  -30.3749   15.0514 C   0  0  0  0  0  0  0  0  0  0  0  0
  -21.7671  -29.9552   15.4100 C   0  0  0  0  0  0  0  0  0  0  0  0
  -24.3806   -9.5794   22.2100 C   0  0  0  0  0  0  0  0  0  0  0  0
  -24.4444   -8.9574   19.8763 C   0  0  0  0  0  0  0  0  0  0  0  0
  -19.9062  -31.4610   15.7021 C   0  0  0  0  0  0  0  0  0  0  0  0
  -22.4613  -30.6220   16.4188 C   0  0  0  0  0  0  0  0  0  0  0  0
  -24.6991  -27.4439   19.6649 C   0  0  0  0  0  0  0  0  0  0  0  0
  -23.1951   -8.8619   22.3689 C   0  0  0  0  0  0  0  0  0  0  0  0
  -23.2589   -8.2399   20.0352 C   0  0  0  0  0  0  0  0  0  0  0  0
  -25.8886  -26.8452   19.2520 C   0  0  0  0  0  0  0  0  0  0  0  0
  -22.2696   -5.6311   22.7408 C   0  0  0  0  0  0  0  0  0  0  0  0
  -22.1560   -4.8065   23.8600 C   0  0  0  0  0  0  0  0  0  0  0  0
  -27.1395  -28.4555   20.5410 C   0  0  0  0  0  0  0  0  0  0  0  0
  -30.7357  -20.5601   20.4740 C   0  0  0  0  0  0  0  0  0  0  0  0
  -20.2308   -6.0681   24.5942 C   0  0  0  0  0  0  0  0  0  0  0  0
  -32.8794  -21.4556   20.4012 C   0  0  0  0  0  0  0  0  0  0  0  0
  -25.0053   -9.6272   20.9637 C   0  0  0  0  0  0  0  0  0  0  0  0
  -27.5429   -9.8886   20.9625 C   0  0  0  0  0  0  0  0  0  0  0  0
  -20.5898  -32.1354   16.7260 C   0  0  0  0  0  0  0  0  0  0  0  0
  -24.7213  -28.5615   20.5116 C   0  0  0  0  0  0  0  0  0  0  0  0
  -21.8865  -31.7190   17.0829 C   0  0  0  0  0  0  0  0  0  0  0  0
  -25.9488  -29.0649   20.9652 C   0  0  0  0  0  0  0  0  0  0  0  0
  -31.5371  -21.7123   20.2283 C   0  0  0  0  0  0  0  0  0  0  0  0
  -22.6342   -8.1921   21.2815 C   0  0  0  0  0  0  0  0  0  0  0  0
  -27.1091  -27.3527   19.6877 C   0  0  0  0  0  0  0  0  0  0  0  0
  -21.3638   -6.6743   22.5483 C   0  0  0  0  0  0  0  0  0  0  0  0
  -21.1366   -5.0250   24.7867 C   0  0  0  0  0  0  0  0  0  0  0  0
  -20.3444   -6.8928   23.4749 C   0  0  0  0  0  0  0  0  0  0  0  0
  -26.2297  -10.3687   20.7988 C   0  0  0  0  0  0  0  0  0  0  0  0
  -31.4963  -19.4663   20.8251 C   0  0  0  0  0  0  0  0  0  0  0  0
  -28.3411  -10.9737   20.6942 C   0  0  0  0  0  0  0  0  0  0  0  0
  -31.0658  -18.1597   21.1402 C   0  0  0  0  0  0  0  0  0  0  0  0
  -29.7715  -17.6938   21.1414 C   0  0  0  0  0  0  0  0  0  0  0  0
  -28.4768  -25.4572   19.6029 C   0  0  0  0  0  0  0  0  0  1  0  0
  -28.0003   -8.5789   21.3245 C   0  0  0  0  0  0  0  0  0  0  0  0
  -29.5822  -24.7856   19.2585 C   0  0  0  0  0  0  0  0  0  0  0  0
  -29.4814  -16.2876   21.4867 C   0  0  0  0  0  0  0  0  0  0  0  0
  -29.7109  -23.3450   19.6538 C   0  0  0  0  0  0  0  0  0  0  0  0
  -23.7532  -31.5793   20.2686 C   0  0  0  0  0  0  0  0  0  0  0  0
  -24.6082  -31.6964   23.3955 C   0  0  0  0  0  0  0  0  0  0  0  0
  -26.4986  -30.4161   25.9321 C   0  0  0  0  0  0  0  0  0  0  0  0
  -19.9366  -33.3337   17.3681 C   0  0  0  0  0  0  0  0  0  0  0  0
  -23.4286  -29.1794   20.9693 C   0  0  0  0  0  0  0  0  0  0  0  0
  -26.0263  -30.2503   21.8912 C   0  0  0  0  0  0  0  0  0  0  0  0
  -20.5894  -33.7515   18.6832 C   0  0  0  0  0  0  0  0  0  0  0  0
  -27.2420  -15.4741   18.7019 C   0  0  0  0  0  0  0  0  0  0  0  0
  -22.1074  -33.7879   18.5378 C   0  0  0  0  0  0  0  0  0  0  0  0
  -26.8518  -14.0397   19.0483 C   0  0  0  0  0  0  0  0  0  0  0  0
  -27.4422  -16.3298   19.9518 C   0  0  0  0  0  0  0  0  0  0  0  0
  -28.0228  -14.3132   21.2695 C   0  0  0  0  0  0  0  0  0  0  0  0
  -22.6616  -32.4012   18.1893 C   0  0  1  0  0  0  0  0  0  0  0  0
  -23.5856  -30.6285   21.4199 C   0  0  1  0  0  0  0  0  0  0  0  0
  -27.8622  -13.4221   20.0279 C   0  0  1  0  0  0  0  0  0  0  0  0
  -27.0109  -30.7449   28.3666 C   0  0  0  0  0  0  0  0  0  0  0  0
  -26.3385  -34.1122   22.7027 C   0  0  0  0  0  0  0  0  0  0  0  0
  -27.5217  -33.8037   24.8874 C   0  0  0  0  0  0  0  0  0  0  0  0
  -25.0799  -34.3132   24.8545 C   0  0  0  0  0  0  0  0  0  0  0  0
  -25.5105  -27.7136   26.6242 C   0  0  0  0  0  0  0  0  0  0  0  0
  -25.8775  -32.0212   24.1454 C   0  0  1  0  0  0  0  0  0  0  0  0
  -26.1412  -30.0180   27.3527 C   0  0  2  0  0  0  0  0  0  0  0  0
  -26.2034  -33.5414   24.1285 C   0  0  0  0  0  0  0  0  0  0  0  0
  -26.1914  -11.6584   20.4536 N   0  0  0  0  0  0  0  0  0  0  0  0
  -27.4906  -11.9980   20.3981 N   0  0  0  0  0  0  0  0  0  0  0  0
  -28.3674  -15.6905   20.8993 N   0  0  0  0  0  0  0  0  0  0  0  0
  -24.7351  -30.8236   22.3057 N   0  0  0  0  0  0  0  0  0  0  0  0
  -29.6805  -11.1421   20.6852 N   0  0  0  0  0  0  0  0  0  0  0  0
  -27.0462   -7.5808   21.5652 N   0  0  0  0  0  0  0  0  0  0  0  0
  -31.0361  -22.9816   19.8509 N   0  0  0  0  0  0  0  0  0  0  0  0
  -22.7049  -31.5632   19.3684 N   0  0  0  0  0  0  0  0  0  0  0  0
  -25.7172  -31.4593   25.4821 N   0  0  0  0  0  0  0  0  0  0  0  0
  -26.3253  -28.5512   27.5415 N   0  3  0  0  0  0  0  0  0  0  0  0
  -29.2185   -8.3062   21.4474 O   0  0  0  0  0  0  0  0  0  0  0  0
  -30.2417  -15.7282   22.2790 O   0  0  0  0  0  0  0  0  0  0  0  0
  -28.7196  -22.6325   19.7699 O   0  0  0  0  0  0  0  0  0  0  0  0
  -24.7584  -32.2771   20.2028 O   0  0  0  0  0  0  0  0  0  0  0  0
  -23.5421  -32.1931   23.7677 O   0  0  0  0  0  0  0  0  0  0  0  0
  -27.3850  -29.8600   25.2875 O   0  0  0  0  0  0  0  0  0  0  0  0
  -30.6134  -25.3674   18.5494 O   0  0  0  0  0  0  0  0  0  0  0  0
  -21.4775   -7.4917   21.4362 O   0  0  0  0  0  0  0  0  0  0  0  0
  -28.2716  -26.7706   19.2857 O   0  0  0  0  0  0  0  0  0  1  0  0
  -21.0266   -4.2320   25.8606 F   0  0  0  0  0  0  0  0  0  0  0  0
  -19.4706   -7.8927   23.2947 F   0  0  0  0  0  0  0  0  0  0  0  0
  -33.1691  -19.8307   20.8577 S   0  0  0  0  0  0  0  0  0  0  0  0
  1  2  1  0  0  0  0
  1  5  2  0  0  0  0
  2  6  2  0  0  0  0
  3  8  2  0  0  0  0
  3 17  1  0  0  0  0
  4  9  1  0  0  0  0
  4 17  2  0  0  0  0
  5 19  1  0  0  0  0
  6 21  1  0  0  0  0
  7 10  2  0  0  0  0
  7 20  1  0  0  0  0
  8 24  1  0  0  0  0
  9 24  2  0  0  0  0
 10 25  1  0  0  0  0
 11 12  2  0  0  0  0
 11 26  1  0  0  0  0
 12 27  1  0  0  0  0
 13 22  1  0  0  0  0
 13 25  2  0  0  0  0
 14 23  1  0  0  0  0
 14 30  2  0  0  0  0
 15 27  2  0  0  0  0
 15 28  1  0  0  0  0
 16 23  2  0  0  0  0
 16 83  1  0  0  0  0
 17 29  1  0  0  0  0
 18 29  1  0  0  0  0
 18 31  2  0  0  0  0
 18 35  1  0  0  0  0
 19 21  2  0  0  0  0
 19 42  1  0  0  0  0
 20 22  2  0  0  0  0
 20 43  1  0  0  0  0
 21 51  1  0  0  0  0
 22 44  1  0  0  0  0
 23 68  1  0  0  0  0
 24 79  1  0  0  0  0
 25 80  1  0  0  0  0
 26 28  2  0  0  0  0
 26 79  1  0  0  0  0
 27 81  1  0  0  0  0
 28 82  1  0  0  0  0
 29 62  2  0  0  0  0
 30 32  1  0  0  0  0
 30 83  1  0  0  0  0
 31 63  1  0  0  0  0
 31 66  1  0  0  0  0
 32 33  2  0  0  0  0
 33 37  1  0  0  0  0
 34 36  2  0  0  0  0
 34 80  1  0  0  0  0
 35 67  1  0  0  0  0
 35 72  2  0  0  0  0
 36 38  1  0  0  0  0
 36 78  1  0  0  0  0
 37 64  1  0  0  0  0
 37 73  2  0  0  0  0
 38 68  1  0  0  0  0
 38 74  2  0  0  0  0
 39 52  1  0  0  0  0
 39 69  1  0  0  0  0
 39 75  2  0  0  0  0
 40 59  1  0  0  0  0
 40 65  1  0  0  0  0
 40 76  2  0  0  0  0
 41 60  1  0  0  0  0
 41 70  1  0  0  0  0
 41 77  2  0  0  0  0
 42 45  1  0  0  0  0
 43 52  1  0  0  0  0
 44 65  1  0  0  0  0
 45 47  1  0  0  0  0
 46 48  1  0  0  0  0
 46 49  1  0  0  0  0
 47 51  1  0  0  0  0
 48 53  1  0  0  0  0
 49 64  1  0  0  0  0
 50 53  1  0  0  0  0
 50 64  1  0  0  0  0
 51 69  1  0  0  0  0
 52 65  1  0  0  0  0
 53 63  1  0  0  0  0
 54 60  1  0  0  0  0
 55 61  1  0  0  0  0
 56 61  1  0  0  0  0
 57 61  1  0  0  0  0
 58 71  1  0  0  0  0
 59 61  1  0  0  0  0
 59 70  1  0  0  0  0
 60 71  1  0  0  0  0
 62 63  1  0  0  0  0
M  CHG  1  71   1
M  ISO  4  33 100  34 101  37 100  80 101
M  END
> <Batch ID>
0176

> <Smiles>
CNC(C)C(=O)NC(C(=O)N1Cc2cc([101O:1][101CH2:1]C(=O)C(=O)Nc3csc(C=[100CH:0][100C:0](=O)N4CCCC(n5nc(-c6ccc(Oc7ccc(F)cc7F)cc6)c(C(N)=O)c5N)C4)c3)ccc2CC1C(=O)NC1CCCc2ccccc21)C(C)(C)C

> <Shape>
0.304

> <Color>
0.129

> <Negative vol penalty>
0.000

$$$$

  -OEChem-04052304383D

 85 93  0     1  0  0  0  0  0999 V2000
  -18.9146   -8.3598   20.6837 C   0  0  0  0  0  0  0  0  0  0  0  0
  -18.7124   -9.7017   20.9899 C   0  0  0  0  0  0  0  0  0  0  0  0
  -21.7100  -30.9915   20.3170 C   0  0  0  0  0  0  0  0  0  0  0  0
  -21.6893  -29.0457   21.7489 C   0  0  0  0  0  0  0  0  0  0  0  0
  -20.0703   -7.7130   21.1195 C   0  0  0  0  0  0  0  0  0  0  0  0
  -19.6653  -10.3974   21.7331 C   0  0  0  0  0  0  0  0  0  0  0  0
  -22.5061  -16.9348   22.4460 C   0  0  0  0  0  0  0  0  0  0  0  0
  -20.3178  -31.0516   20.3784 C   0  0  0  0  0  0  0  0  0  0  0  0
  -20.2971  -29.1057   21.8104 C   0  0  0  0  0  0  0  0  0  0  0  0
  -22.7691  -17.8942   23.4228 C   0  0  0  0  0  0  0  0  0  0  0  0
  -17.9532  -30.8971   23.4589 C   0  0  0  0  0  0  0  0  0  0  0  0
  -17.3538  -30.7386   24.7083 C   0  0  0  0  0  0  0  0  0  0  0  0
  -24.7645  -16.6950   24.0547 C   0  0  0  0  0  0  0  0  0  0  0  0
  -16.1605  -28.8036   23.8904 C   0  0  0  0  0  0  0  0  0  0  0  0
  -22.3958  -29.9886   21.0022 C   0  0  0  0  0  0  0  0  0  0  0  0
  -24.7512  -30.5521   21.8035 C   0  0  0  0  0  0  0  0  0  0  0  0
  -21.0424   -8.4037   21.8602 C   0  0  0  0  0  0  0  0  0  0  0  0
  -23.3659  -15.8406   22.2732 C   0  0  0  0  0  0  0  0  0  0  0  0
  -20.8344   -9.7589   22.1804 C   0  0  0  0  0  0  0  0  0  0  0  0
  -24.5115  -15.7244   23.0733 C   0  0  0  0  0  0  0  0  0  0  0  0
  -19.6114  -30.1087   21.1251 C   0  0  0  0  0  0  0  0  0  0  0  0
  -23.8969  -17.7728   24.2293 C   0  0  0  0  0  0  0  0  0  0  0  0
  -17.6563  -30.0089   22.4251 C   0  0  0  0  0  0  0  0  0  0  0  0
  -16.4574  -29.6919   24.9241 C   0  0  0  0  0  0  0  0  0  0  0  0
  -16.7600  -28.9621   22.6409 C   0  0  0  0  0  0  0  0  0  0  0  0
  -23.8339  -29.9257   20.9387 C   0  0  0  0  0  0  0  0  0  0  0  0
  -28.1342  -21.5911   21.1066 C   0  0  0  0  0  0  0  0  0  0  0  0
  -28.9378  -21.6479   19.9872 C   0  0  0  0  0  0  0  0  0  0  0  0
  -25.9836  -30.1836   21.3220 C   0  0  0  0  0  0  0  0  0  0  0  0
  -27.9025  -23.5664   19.7475 C   0  0  0  0  0  0  0  0  0  0  0  0
  -24.5108  -31.3918   22.9405 C   0  0  0  0  0  0  0  0  0  0  0  0
  -28.0077  -20.5487   22.1568 C   0  0  0  0  0  0  0  0  0  0  0  0
  -23.0616  -12.6868   22.5269 C   0  0  0  0  0  0  0  0  0  0  0  0
  -26.0863  -12.6920   21.3550 C   0  0  0  0  0  0  0  0  0  0  0  0
  -26.7937  -19.9538   24.2209 C   0  0  0  0  0  0  0  0  0  0  0  0
  -29.0242  -14.3748   20.9257 C   0  0  0  0  0  0  0  0  0  0  0  0
  -27.8881  -25.5017   18.1348 C   0  0  0  0  0  0  0  0  0  0  0  0
  -22.2533   -7.6496   22.3499 C   0  0  0  0  0  0  0  0  0  0  0  0
  -23.0825  -14.8286   21.1972 C   0  0  0  0  0  0  0  0  0  0  0  0
  -25.4770  -14.5794   22.9144 C   0  0  0  0  0  0  0  0  0  0  0  0
  -23.3901   -8.5573   22.8124 C   0  0  0  0  0  0  0  0  0  0  0  0
  -28.1993  -28.9397   17.2628 C   0  0  0  0  0  0  0  0  0  0  0  0
  -22.8554   -9.6652   23.7143 C   0  0  0  0  0  0  0  0  0  0  0  0
  -27.2030  -29.6404   18.1894 C   0  0  0  0  0  0  0  0  0  0  0  0
  -27.6788  -27.5825   16.7927 C   0  0  0  0  0  0  0  0  0  0  0  0
  -26.2549  -27.3767   18.7925 C   0  0  0  0  0  0  0  0  0  0  0  0
  -21.8566  -10.5541   22.9633 C   0  0  1  0  0  0  0  0  0  0  0  0
  -23.7503  -13.4811   21.4534 C   0  0  1  0  0  0  0  0  0  0  0  0
  -26.7630  -28.7189   19.3439 C   0  0  2  0  0  0  0  0  0  0  0  0
  -31.3262  -14.1054   19.9636 C   0  0  0  0  0  0  0  0  0  0  0  0
  -23.2643  -20.9240   25.3803 C   0  0  0  0  0  0  0  0  0  0  0  0
  -26.8826  -10.9737   23.7474 C   0  0  0  0  0  0  0  0  0  0  0  0
  -29.2749  -11.5306   23.2627 C   0  0  0  0  0  0  0  0  0  0  0  0
  -27.9197  -10.2863   21.5780 C   0  0  0  0  0  0  0  0  0  0  0  0
  -28.6116  -16.5969   19.0149 C   0  0  0  0  0  0  0  0  0  0  0  0
  -25.7359  -20.5109   25.1558 C   0  0  0  0  0  0  0  0  0  0  0  0
  -27.4678  -12.7441   21.9615 C   0  0  1  0  0  0  0  0  0  0  0  0
  -29.9024  -14.5724   19.7034 C   0  0  2  0  0  0  0  0  0  0  0  0
  -24.3380  -20.0525   24.7434 C   0  0  1  0  0  0  0  0  0  1  0  0
  -27.8672  -11.4043   22.6420 C   0  0  0  0  0  0  0  0  0  0  0  0
  -24.4324  -29.2135   19.9803 N   0  0  0  0  0  0  0  0  0  0  0  0
  -28.8060  -22.7796   19.2064 N   0  0  0  0  0  0  0  0  0  0  0  0
  -25.7391  -29.3901   20.2400 N   0  0  0  0  0  0  0  0  0  0  0  0
  -25.1530  -13.6123   21.8527 N   0  0  0  0  0  0  0  0  0  0  0  0
  -27.2850  -26.7624   17.9403 N   0  0  0  0  0  0  0  0  0  0  0  0
  -29.8162  -20.6774   19.6384 N   0  0  0  0  0  0  0  0  0  0  0  0
  -27.2418  -30.4643   21.7228 N   0  0  0  0  0  0  0  0  0  0  0  0
  -23.1842  -31.6695   23.2974 N   0  0  0  0  0  0  0  0  0  0  0  0
  -27.4582  -24.8269   19.2770 N   0  0  0  0  0  0  0  0  0  0  0  0
  -27.0825  -20.8164   23.1640 N   0  0  0  0  0  0  0  0  0  0  0  0
  -22.5552  -11.4762   22.0938 N   0  0  0  0  0  0  0  0  0  0  0  0
  -28.3676  -13.1627   20.8922 N   0  0  0  0  0  0  0  0  0  0  0  0
  -29.9425  -16.0124   19.3217 N   0  3  0  0  0  0  0  0  0  0  0  0
  -25.4448  -31.8948   23.6099 O   0  0  0  0  0  0  0  0  0  0  0  0
  -28.6833  -19.5270   22.0696 O   0  0  0  0  0  0  0  0  0  0  0  0
  -22.9960  -13.1380   23.6643 O   0  0  0  0  0  0  0  0  0  0  0  0
  -25.8463  -11.8699   20.4672 O   0  0  0  0  0  0  0  0  0  0  0  0
  -27.3061  -18.8531   24.4103 O   0  0  0  0  0  0  0  0  0  0  0  0
  -28.9328  -15.2103   21.8224 O   0  0  0  0  0  0  0  0  0  0  0  0
  -28.7443  -25.0656   17.3611 O   0  0  0  0  0  0  0  0  0  0  0  0
  -18.2529  -30.1671   21.1855 O   0  0  0  0  0  0  0  0  0  0  0  0
  -24.1557  -18.7075   25.1839 O   0  0  0  0  0  0  0  0  0  1  0  0
  -15.8830  -29.5389   26.1244 F   0  0  0  0  0  0  0  0  0  0  0  0
  -16.4717  -28.1049   21.6520 F   0  0  0  0  0  0  0  0  0  0  0  0
  -27.1718  -23.0078   21.1963 S   0  0  0  0  0  0  0  0  0  0  0  0
  1  2  1  0  0  0  0
  1  5  2  0  0  0  0
  2  6  2  0  0  0  0
  3  8  2  0  0  0  0
  3 15  1  0  0  0  0
  4  9  1  0  0  0  0
  4 15  2  0  0  0  0
  5 17  1  0  0  0  0
  6 19  1  0  0  0  0
  7 10  2  0  0  0  0
  7 18  1  0  0  0  0
  8 21  1  0  0  0  0
  9 21  2  0  0  0  0
 10 22  1  0  0  0  0
 11 12  2  0  0  0  0
 11 23  1  0  0  0  0
 12 24  1  0  0  0  0
 13 20  1  0  0  0  0
 13 22  2  0  0  0  0
 14 24  2  0  0  0  0
 14 25  1  0  0  0  0
 15 26  1  0  0  0  0
 16 26  1  0  0  0  0
 16 29  2  0  0  0  0
 16 31  1  0  0  0  0
 17 19  2  0  0  0  0
 17 38  1  0  0  0  0
 18 20  2  0  0  0  0
 18 39  1  0  0  0  0
 19 47  1  0  0  0  0
 20 40  1  0  0  0  0
 21 81  1  0  0  0  0
 22 82  1  0  0  0  0
 23 25  2  0  0  0  0
 23 81  1  0  0  0  0
 24 83  1  0  0  0  0
 25 84  1  0  0  0  0
 26 61  2  0  0  0  0
 27 28  2  0  0  0  0
 27 32  1  0  0  0  0
 27 85  1  0  0  0  0
 28 62  1  0  0  0  0
 28 66  1  0  0  0  0
 29 63  1  0  0  0  0
 29 67  1  0  0  0  0
 30 62  2  0  0  0  0
 30 69  1  0  0  0  0
 30 85  1  0  0  0  0
 31 68  1  0  0  0  0
 31 74  2  0  0  0  0
 32 70  1  0  0  0  0
 32 75  2  0  0  0  0
 33 48  1  0  0  0  0
 33 71  1  0  0  0  0
 33 76  2  0  0  0  0
 34 57  1  0  0  0  0
 34 64  1  0  0  0  0
 34 77  2  0  0  0  0
 35 56  1  0  0  0  0
 35 70  1  0  0  0  0
 35 78  2  0  0  0  0
 36 58  1  0  0  0  0
 36 72  1  0  0  0  0
 36 79  2  0  0  0  0
 37 65  1  0  0  0  0
 37 69  1  0  0  0  0
 37 80  2  0  0  0  0
 38 41  1  0  0  0  0
 39 48  1  0  0  0  0
 40 64  1  0  0  0  0
 41 43  1  0  0  0  0
 42 44  1  0  0  0  0
 42 45  1  0  0  0  0
 43 47  1  0  0  0  0
 44 49  1  0  0  0  0
 45 65  1  0  0  0  0
 46 49  1  0  0  0  0
 46 65  1  0  0  0  0
 47 71  1  0  0  0  0
 48 64  1  0  0  0  0
 49 63  1  0  0  0  0
 50 58  1  0  0  0  0
 51 59  1  0  0  0  0
 52 60  1  0  0  0  0
 53 60  1  0  0  0  0
 54 60  1  0  0  0  0
 55 73  1  0  0  0  0
 56 59  1  0  0  0  0
 57 60  1  0  0  0  0
 57 72  1  0  0  0  0
 58 73  1  0  0  0  0
 59 82  1  0  0  0  0
 61 63  1  0  0  0  0
M  CHG  1  73   1
M  ISO  4  37 100  59 101  69 100  82 101
M  END
> <Batch ID>
0176

> <Smiles>
CNC(C)C(=O)NC(C(=O)N1Cc2cc([101O:1][101CH:1](C)CC(=O)NC(=O)c3sc([100NH:0][100C:0](=O)N4CCCC(n5nc(-c6ccc(Oc7ccc(F)cc7F)cc6)c(C(N)=O)c5N)C4)nc3N)ccc2CC1C(=O)NC1CCCc2ccccc21)C(C)(C)C

> <Shape>
0.237

> <Color>
0.071

> <Negative vol penalty>
0.000

$$$$
