
  -OEChem-04052304413D

 88 96  0     1  0  0  0  0  0999 V2000
  -21.2834  -29.4524   29.8480 C   0  0  0  0  0  0  0  0  0  0  0  0
  -21.3594  -28.2177   29.2115 C   0  0  0  0  0  0  0  0  0  0  0  0
  -22.8173  -10.7958   19.5982 C   0  0  0  0  0  0  0  0  0  0  0  0
  -23.5130   -9.9202   21.7397 C   0  0  0  0  0  0  0  0  0  0  0  0
  -21.4799  -30.6245   29.1189 C   0  0  0  0  0  0  0  0  0  0  0  0
  -21.6309  -28.1544   27.8452 C   0  0  0  0  0  0  0  0  0  0  0  0
  -24.8655  -23.8480   24.9300 C   0  0  0  0  0  0  0  0  0  0  0  0
  -21.8649   -9.7822   19.4931 C   0  0  0  0  0  0  0  0  0  0  0  0
  -22.5606   -8.9065   21.6347 C   0  0  0  0  0  0  0  0  0  0  0  0
  -24.4855  -22.7190   24.2056 C   0  0  0  0  0  0  0  0  0  0  0  0
  -18.7876   -9.1180   20.7267 C   0  0  0  0  0  0  0  0  0  0  0  0
  -17.5065   -9.4734   20.3046 C   0  0  0  0  0  0  0  0  0  0  0  0
  -24.6625  -23.9810   22.1574 C   0  0  0  0  0  0  0  0  0  0  0  0
  -27.7253  -17.0170   19.1366 C   0  0  0  0  0  0  0  0  0  0  0  0
  -26.8554  -15.8598   16.7519 C   0  0  0  0  0  0  0  0  0  0  0  0
  -17.7216   -7.9944   18.4064 C   0  0  0  0  0  0  0  0  0  0  0  0
  -23.6414  -10.8648   20.7215 C   0  0  0  0  0  0  0  0  0  0  0  0
  -24.4534  -13.1840   21.4069 C   0  0  0  0  0  0  0  0  0  0  0  0
  -21.7634  -30.5751   27.7449 C   0  0  0  0  0  0  0  0  0  0  0  0
  -25.1368  -25.0570   24.2733 C   0  0  0  0  0  0  0  0  0  0  0  0
  -21.8300  -29.3270   27.0968 C   0  0  0  0  0  0  0  0  0  0  0  0
  -25.0483  -25.1232   22.8755 C   0  0  0  0  0  0  0  0  0  0  0  0
  -26.4577  -17.3167   18.6378 C   0  0  0  0  0  0  0  0  0  0  0  0
  -28.1231  -15.5601   17.2508 C   0  0  0  0  0  0  0  0  0  0  0  0
  -21.7365   -8.8375   20.5113 C   0  0  0  0  0  0  0  0  0  0  0  0
  -24.3811  -22.7862   22.8194 C   0  0  0  0  0  0  0  0  0  0  0  0
  -19.5357   -8.2008   19.9885 C   0  0  0  0  0  0  0  0  0  0  0  0
  -16.9735   -8.9116   19.1445 C   0  0  0  0  0  0  0  0  0  0  0  0
  -26.0227  -16.7381   17.4455 C   0  0  0  0  0  0  0  0  0  0  0  0
  -28.5581  -16.1387   18.4431 C   0  0  0  0  0  0  0  0  0  0  0  0
  -19.0027   -7.6390   18.8284 C   0  0  0  0  0  0  0  0  0  0  0  0
  -24.6258  -11.9113   20.8303 C   0  0  0  0  0  0  0  0  0  0  0  0
  -25.6746  -13.7953   21.2611 C   0  0  0  0  0  0  0  0  0  0  0  0
  -24.9910  -20.8414   21.6718 C   0  0  0  0  0  0  0  0  0  1  0  0
  -23.2930  -13.7618   22.0196 C   0  0  0  0  0  0  0  0  0  0  0  0
  -24.7400  -19.7317   20.9667 C   0  0  0  0  0  0  0  0  0  0  0  0
  -25.8880  -18.8701   20.5332 C   0  0  0  0  0  0  0  0  0  0  0  0
  -23.8761  -27.9743   24.3333 C   0  0  0  0  0  0  0  0  0  0  0  0
  -26.3847  -28.6751   22.4000 C   0  0  0  0  0  0  0  0  0  0  0  0
  -28.7267  -27.5699   20.1772 C   0  0  0  0  0  0  0  0  0  0  0  0
  -29.9363  -13.8295   17.1600 C   0  0  0  0  0  0  0  0  0  0  0  0
  -21.9215  -31.8708   26.9893 C   0  0  0  0  0  0  0  0  0  0  0  0
  -25.5714  -26.2586   25.0668 C   0  0  0  0  0  0  0  0  0  0  0  0
  -25.3485  -26.3918   22.1211 C   0  0  0  0  0  0  0  0  0  0  0  0
  -22.5755  -31.7017   25.6204 C   0  0  0  0  0  0  0  0  0  0  0  0
  -30.3032  -12.2669   20.4941 C   0  0  0  0  0  0  0  0  0  0  0  0
  -21.9432  -30.5358   24.8670 C   0  0  0  0  0  0  0  0  0  0  0  0
  -28.8547  -12.0586   20.9324 C   0  0  0  0  0  0  0  0  0  0  0  0
  -30.4465  -12.2286   18.9757 C   0  0  0  0  0  0  0  0  0  0  0  0
  -28.1032  -12.9889   18.7073 C   0  0  0  0  0  0  0  0  0  0  0  0
  -22.1469  -29.2162   25.6212 C   0  0  1  0  0  0  0  0  0  0  0  0
  -25.3250  -27.5764   24.3388 C   0  0  1  0  0  0  0  0  0  0  0  0
  -27.9260  -13.0636   20.2312 C   0  0  1  0  0  0  0  0  0  0  0  0
  -30.6148  -28.3828   18.7379 C   0  0  0  0  0  0  0  0  0  0  0  0
  -30.1214  -15.7790   14.6734 C   0  0  0  0  0  0  0  0  0  0  0  0
  -29.2916  -13.4170   14.4379 C   0  0  0  0  0  0  0  0  0  0  0  0
  -24.3731  -29.8292   20.4172 C   0  0  0  0  0  0  0  0  0  0  0  0
  -26.1575  -29.7426   18.6632 C   0  0  0  0  0  0  0  0  0  0  0  0
  -26.4648  -31.1739   20.6830 C   0  0  0  0  0  0  0  0  0  0  0  0
  -30.6907  -25.8642   21.5886 C   0  0  0  0  0  0  0  0  0  0  0  0
  -26.6222  -28.6607   20.9092 C   0  0  1  0  0  0  0  0  0  0  0  0
  -30.2236  -27.8070   20.0899 C   0  0  2  0  0  0  0  0  0  0  0  0
  -29.0462  -14.7778   15.0767 C   0  0  0  0  0  0  0  0  0  0  0  0
  -25.8968  -29.8281   20.1822 C   0  0  0  0  0  0  0  0  0  0  0  0
  -25.8594  -11.7241   20.3536 N   0  0  0  0  0  0  0  0  0  0  0  0
  -26.4731  -12.8872   20.6303 N   0  0  0  0  0  0  0  0  0  0  0  0
  -25.7634  -27.5412   22.9421 N   0  0  0  0  0  0  0  0  0  0  0  0
  -29.5144  -13.1465   18.3191 N   0  0  0  0  0  0  0  0  0  0  0  0
  -26.1326  -15.0158   21.6121 N   0  0  0  0  0  0  0  0  0  0  0  0
  -22.1212  -12.9959   22.0863 N   0  0  0  0  0  0  0  0  0  0  0  0
  -25.6150  -18.2089   19.3436 N   0  0  0  0  0  0  0  0  0  0  0  0
  -23.4951  -28.7267   25.4280 N   0  0  0  0  0  0  0  0  0  0  0  0
  -28.0696  -28.6506   20.7265 N   0  0  0  0  0  0  0  0  0  0  0  0
  -28.9822  -14.6520   16.5311 N   0  0  0  0  0  0  0  0  0  0  0  0
  -30.9629  -26.5283   20.2879 N   0  3  0  0  0  0  0  0  0  0  0  0
  -23.2905  -14.9290   22.4792 O   0  0  0  0  0  0  0  0  0  0  0  0
  -26.9149  -18.8062   21.2005 O   0  0  0  0  0  0  0  0  0  0  0  0
  -23.1574  -27.6259   23.4039 O   0  0  0  0  0  0  0  0  0  0  0  0
  -26.7439  -29.6533   23.0601 O   0  0  0  0  0  0  0  0  0  0  0  0
  -28.1932  -26.5316   19.7929 O   0  0  0  0  0  0  0  0  0  0  0  0
  -31.0681  -13.6748   16.6848 O   0  0  0  0  0  0  0  0  0  0  0  0
  -23.4609  -19.3451   20.6216 O   0  0  0  0  0  0  0  0  0  0  0  0
  -20.8071   -7.8484   20.4093 O   0  0  0  0  0  0  0  0  0  0  0  0
  -24.0098  -21.6858   22.1100 O   0  0  0  0  0  0  0  0  0  1  0  0
  -15.7427   -9.2518   18.7402 F   0  0  0  0  0  0  0  0  0  0  0  0
  -24.8060  -17.0183   16.9570 F   0  0  0  0  0  0  0  0  0  0  0  0
  -29.7744  -15.8577   18.9322 F   0  0  0  0  0  0  0  0  0  0  0  0
  -19.7162   -6.7565   18.1158 F   0  0  0  0  0  0  0  0  0  0  0  0
  1  2  1  0  0  0  0
  1  5  2  0  0  0  0
  2  6  2  0  0  0  0
  3  8  2  0  0  0  0
  3 17  1  0  0  0  0
  4  9  1  0  0  0  0
  4 17  2  0  0  0  0
  5 19  1  0  0  0  0
  6 21  1  0  0  0  0
  7 10  2  0  0  0  0
  7 20  1  0  0  0  0
  8 25  1  0  0  0  0
  9 25  2  0  0  0  0
 10 26  1  0  0  0  0
 11 12  2  0  0  0  0
 11 27  1  0  0  0  0
 12 28  1  0  0  0  0
 13 22  1  0  0  0  0
 13 26  2  0  0  0  0
 14 23  1  0  0  0  0
 14 30  2  0  0  0  0
 15 24  2  0  0  0  0
 15 29  1  0  0  0  0
 16 28  2  0  0  0  0
 16 31  1  0  0  0  0
 17 32  1  0  0  0  0
 18 32  1  0  0  0  0
 18 33  2  0  0  0  0
 18 35  1  0  0  0  0
 19 21  2  0  0  0  0
 19 42  1  0  0  0  0
 20 22  2  0  0  0  0
 20 43  1  0  0  0  0
 21 51  1  0  0  0  0
 22 44  1  0  0  0  0
 23 29  2  0  0  0  0
 23 71  1  0  0  0  0
 24 30  1  0  0  0  0
 24 74  1  0  0  0  0
 25 83  1  0  0  0  0
 26 84  1  0  0  0  0
 27 31  2  0  0  0  0
 27 83  1  0  0  0  0
 28 85  1  0  0  0  0
 29 86  1  0  0  0  0
 30 87  1  0  0  0  0
 31 88  1  0  0  0  0
 32 65  2  0  0  0  0
 33 66  1  0  0  0  0
 33 69  1  0  0  0  0
 34 36  2  0  0  0  0
 34 84  1  0  0  0  0
 35 70  1  0  0  0  0
 35 76  2  0  0  0  0
 36 37  1  0  0  0  0
 36 82  1  0  0  0  0
 37 71  1  0  0  0  0
 37 77  2  0  0  0  0
 38 52  1  0  0  0  0
 38 72  1  0  0  0  0
 38 78  2  0  0  0  0
 39 61  1  0  0  0  0
 39 67  1  0  0  0  0
 39 79  2  0  0  0  0
 40 62  1  0  0  0  0
 40 73  1  0  0  0  0
 40 80  2  0  0  0  0
 41 68  1  0  0  0  0
 41 74  1  0  0  0  0
 41 81  2  0  0  0  0
 42 45  1  0  0  0  0
 43 52  1  0  0  0  0
 44 67  1  0  0  0  0
 45 47  1  0  0  0  0
 46 48  1  0  0  0  0
 46 49  1  0  0  0  0
 47 51  1  0  0  0  0
 48 53  1  0  0  0  0
 49 68  1  0  0  0  0
 50 53  1  0  0  0  0
 50 68  1  0  0  0  0
 51 72  1  0  0  0  0
 52 67  1  0  0  0  0
 53 66  1  0  0  0  0
 54 62  1  0  0  0  0
 55 63  1  0  0  0  0
 56 63  1  0  0  0  0
 57 64  1  0  0  0  0
 58 64  1  0  0  0  0
 59 64  1  0  0  0  0
 60 75  1  0  0  0  0
 61 64  1  0  0  0  0
 61 73  1  0  0  0  0
 62 75  1  0  0  0  0
 63 74  1  0  0  0  0
 65 66  1  0  0  0  0
M  CHG  1  75   1
M  ISO  4  34 101  41 100  74 100  84 101
M  END
> <Batch ID>
0177

> <Smiles>
CNC(C)C(=O)NC(C(=O)N1Cc2cc([101O:1][101CH2:1]C(=O)C(=O)Nc3cc(F)c([100N:0](C(C)C)[100C:0](=O)N4CCCC(n5nc(-c6ccc(Oc7ccc(F)cc7F)cc6)c(C(N)=O)c5N)C4)cc3F)ccc2CC1C(=O)NC1CCCc2ccccc21)C(C)(C)C

> <Shape>
0.190

> <Color>
0.109

> <Negative vol penalty>
0.000

$$$$

  -OEChem-04052304413D

 88 96  0     1  0  0  0  0  0999 V2000
  -26.5999  -35.1873   24.1468 C   0  0  0  0  0  0  0  0  0  0  0  0
  -27.2342  -33.9503   24.0934 C   0  0  0  0  0  0  0  0  0  0  0  0
  -22.9245  -10.1503   19.8943 C   0  0  0  0  0  0  0  0  0  0  0  0
  -23.9230   -9.6654   22.0402 C   0  0  0  0  0  0  0  0  0  0  0  0
  -25.2378  -35.2836   23.8652 C   0  0  0  0  0  0  0  0  0  0  0  0
  -26.5065  -32.8087   23.7595 C   0  0  0  0  0  0  0  0  0  0  0  0
  -28.5012  -27.9716   20.5767 C   0  0  0  0  0  0  0  0  0  0  0  0
  -22.1401   -9.0018   19.9998 C   0  0  0  0  0  0  0  0  0  0  0  0
  -23.1385   -8.5168   22.1457 C   0  0  0  0  0  0  0  0  0  0  0  0
  -28.9700  -26.7188   20.9697 C   0  0  0  0  0  0  0  0  0  0  0  0
  -19.9489   -7.7466   22.9540 C   0  0  0  0  0  0  0  0  0  0  0  0
  -19.3198   -7.5032   24.1749 C   0  0  0  0  0  0  0  0  0  0  0  0
  -26.7652  -25.7971   20.6400 C   0  0  0  0  0  0  0  0  0  0  0  0
  -32.2521  -16.9617   22.0952 C   0  0  0  0  0  0  0  0  0  0  0  0
  -20.5076   -5.4082   24.3692 C   0  0  0  0  0  0  0  0  0  0  0  0
  -23.8160  -10.4821   20.9145 C   0  0  0  0  0  0  0  0  0  0  0  0
  -24.3021  -12.9638   21.2502 C   0  0  0  0  0  0  0  0  0  0  0  0
  -24.4951  -34.1441   23.5182 C   0  0  0  0  0  0  0  0  0  0  0  0
  -27.1561  -28.1493   20.2223 C   0  0  0  0  0  0  0  0  0  0  0  0
  -25.1329  -32.8896   23.4743 C   0  0  0  0  0  0  0  0  0  0  0  0
  -26.2825  -27.0527   20.2405 C   0  0  0  0  0  0  0  0  0  0  0  0
  -32.4878  -18.0589   22.9731 C   0  0  0  0  0  0  0  0  0  0  0  0
  -22.2470   -8.1851   21.1254 C   0  0  0  0  0  0  0  0  0  0  0  0
  -28.1013  -25.6319   21.0042 C   0  0  0  0  0  0  0  0  0  0  0  0
  -20.8573   -6.8209   22.4406 C   0  0  0  0  0  0  0  0  0  0  0  0
  -19.5992   -6.3340   24.8825 C   0  0  0  0  0  0  0  0  0  0  0  0
  -21.1366   -5.6517   23.1482 C   0  0  0  0  0  0  0  0  0  0  0  0
  -24.6271  -11.6681   20.8059 C   0  0  0  0  0  0  0  0  0  0  0  0
  -31.4416  -18.2563   23.8472 C   0  0  0  0  0  0  0  0  0  0  0  0
  -25.3946  -13.7258   20.9150 C   0  0  0  0  0  0  0  0  0  0  0  0
  -31.0346  -16.3619   22.3321 C   0  0  0  0  0  0  0  0  0  0  0  0
  -23.1186  -13.4363   21.9072 C   0  0  0  0  0  0  0  0  0  0  0  0
  -24.7478  -29.8855   21.3577 C   0  0  0  0  0  0  0  0  0  0  0  0
  -32.3617  -19.1647   26.0103 C   0  0  0  0  0  0  0  0  0  0  0  0
  -29.5681  -23.1318   23.1779 C   0  0  0  0  0  0  0  0  0  0  0  0
  -23.2117  -28.7616   18.7310 C   0  0  0  0  0  0  0  0  0  0  0  0
  -30.5690  -21.6671   24.9922 C   0  0  0  0  0  0  0  0  0  0  0  0
  -22.9597  -26.3449   16.3345 C   0  0  0  0  0  0  0  0  0  0  0  0
  -30.9035  -14.4909   20.6503 C   0  0  0  0  0  0  0  0  0  0  0  0
  -23.0149  -34.2906   23.2683 C   0  0  0  0  0  0  0  0  0  0  0  0
  -26.6723  -29.5014   19.7751 C   0  0  0  0  0  0  0  0  0  0  0  0
  -24.8340  -27.1863   19.8500 C   0  0  0  0  0  0  0  0  0  0  0  0
  -22.3956  -33.0902   22.5571 C   0  0  0  0  0  0  0  0  0  0  0  0
  -29.3929  -12.6498   18.0035 C   0  0  0  0  0  0  0  0  0  0  0  0
  -22.8614  -31.7888   23.2020 C   0  0  0  0  0  0  0  0  0  0  0  0
  -27.9916  -12.3369   18.5331 C   0  0  0  0  0  0  0  0  0  0  0  0
  -30.4434  -12.5949   19.1113 C   0  0  0  0  0  0  0  0  0  0  0  0
  -28.7439  -13.1042   20.8206 C   0  0  0  0  0  0  0  0  0  0  0  0
  -24.3829  -31.6322   23.0917 C   0  0  1  0  0  0  0  0  0  0  0  0
  -25.1648  -29.6776   19.9292 C   0  0  1  0  0  0  0  0  0  0  0  0
  -27.6422  -13.2111   19.7535 C   0  0  2  0  0  0  0  0  0  0  0  0
  -32.0940  -18.2866   27.2071 C   0  0  0  0  0  0  0  0  0  0  0  0
  -21.5815  -25.6786   14.3461 C   0  0  0  0  0  0  0  0  0  0  0  0
  -20.9944  -27.7995   20.5934 C   0  0  0  0  0  0  0  0  0  0  0  0
  -20.1551  -26.3508   18.7319 C   0  0  0  0  0  0  0  0  0  0  0  0
  -20.1916  -28.8303   18.4609 C   0  0  0  0  0  0  0  0  0  0  0  0
  -25.2880  -26.5204   14.5160 C   0  0  0  0  0  0  0  0  0  0  0  0
  -30.6629  -22.9546   24.2059 C   0  0  0  0  0  0  0  0  0  0  0  0
  -29.6340  -24.3796   22.3227 C   0  0  0  0  0  0  0  0  0  1  0  0
  -31.2901  -19.3002   24.9298 C   0  0  1  0  0  0  0  0  0  0  0  0
  -22.3697  -27.5470   18.4229 C   0  0  1  0  0  0  0  0  0  0  0  0
  -22.8112  -26.4335   14.8264 C   0  0  2  0  0  0  0  0  0  0  0  0
  -20.9545  -27.6294   19.0616 C   0  0  0  0  0  0  0  0  0  0  0  0
  -25.8316  -11.6067   20.2321 N   0  0  0  0  0  0  0  0  0  0  0  0
  -26.2731  -12.8734   20.3135 N   0  0  0  0  0  0  0  0  0  0  0  0
  -24.4072  -28.5300   19.4260 N   0  0  0  0  0  0  0  0  0  0  0  0
  -30.0473  -13.4503   20.2321 N   0  0  0  0  0  0  0  0  0  0  0  0
  -33.6102  -18.8154   22.9456 N   0  0  0  0  0  0  0  0  0  0  0  0
  -25.6798  -15.0350   21.0790 N   0  0  0  0  0  0  0  0  0  0  0  0
  -22.0928  -12.5200   22.1766 N   0  0  0  0  0  0  0  0  0  0  0  0
  -30.4067  -15.2582   21.7034 N   0  0  0  0  0  0  0  0  0  0  0  0
  -24.7520  -31.2080   21.7582 N   0  0  0  0  0  0  0  0  0  0  0  0
  -31.2507  -20.6311   24.3729 N   0  0  0  0  0  0  0  0  0  0  0  0
  -22.3628  -27.4130   16.9702 N   0  0  0  0  0  0  0  0  0  0  0  0
  -24.0092  -25.8571   14.1531 N   0  3  0  0  0  0  0  0  0  0  0  0
  -22.9680  -14.6389   22.2307 O   0  0  0  0  0  0  0  0  0  0  0  0
  -24.4433  -28.9179   22.0452 O   0  0  0  0  0  0  0  0  0  0  0  0
  -33.4464  -19.7425   25.8977 O   0  0  0  0  0  0  0  0  0  0  0  0
  -28.6867  -22.2844   23.0359 O   0  0  0  0  0  0  0  0  0  0  0  0
  -22.8264  -29.8739   18.3623 O   0  0  0  0  0  0  0  0  0  0  0  0
  -29.9447  -21.5720   26.0458 O   0  0  0  0  0  0  0  0  0  0  0  0
  -23.5435  -25.4188   16.8931 O   0  0  0  0  0  0  0  0  0  0  0  0
  -31.9848  -14.7039   20.0959 O   0  0  0  0  0  0  0  0  0  0  0  0
  -21.4816   -7.0644   21.2288 O   0  0  0  0  0  0  0  0  0  0  0  0
  -28.5561  -24.4081   21.3880 O   0  0  0  0  0  0  0  0  0  1  0  0
  -18.9962   -6.1011   26.0557 F   0  0  0  0  0  0  0  0  0  0  0  0
  -22.0093   -4.7592   22.6606 F   0  0  0  0  0  0  0  0  0  0  0  0
  -30.1817  -17.1214   23.6080 S   0  0  0  0  0  0  0  0  0  0  0  0
  1  2  1  0  0  0  0
  1  5  2  0  0  0  0
  2  6  2  0  0  0  0
  3  8  2  0  0  0  0
  3 16  1  0  0  0  0
  4  9  1  0  0  0  0
  4 16  2  0  0  0  0
  5 18  1  0  0  0  0
  6 20  1  0  0  0  0
  7 10  2  0  0  0  0
  7 19  1  0  0  0  0
  8 23  1  0  0  0  0
  9 23  2  0  0  0  0
 10 24  1  0  0  0  0
 11 12  2  0  0  0  0
 11 25  1  0  0  0  0
 12 26  1  0  0  0  0
 13 21  1  0  0  0  0
 13 24  2  0  0  0  0
 14 22  1  0  0  0  0
 14 31  2  0  0  0  0
 15 26  2  0  0  0  0
 15 27  1  0  0  0  0
 16 28  1  0  0  0  0
 17 28  1  0  0  0  0
 17 30  2  0  0  0  0
 17 32  1  0  0  0  0
 18 20  2  0  0  0  0
 18 40  1  0  0  0  0
 19 21  2  0  0  0  0
 19 41  1  0  0  0  0
 20 49  1  0  0  0  0
 21 42  1  0  0  0  0
 22 29  2  0  0  0  0
 22 68  1  0  0  0  0
 23 84  1  0  0  0  0
 24 85  1  0  0  0  0
 25 27  2  0  0  0  0
 25 84  1  0  0  0  0
 26 86  1  0  0  0  0
 27 87  1  0  0  0  0
 28 64  2  0  0  0  0
 29 60  1  0  0  0  0
 29 88  1  0  0  0  0
 30 65  1  0  0  0  0
 30 69  1  0  0  0  0
 31 71  1  0  0  0  0
 31 88  1  0  0  0  0
 32 70  1  0  0  0  0
 32 76  2  0  0  0  0
 33 50  1  0  0  0  0
 33 72  1  0  0  0  0
 33 77  2  0  0  0  0
 34 52  1  0  0  0  0
 34 60  1  0  0  0  0
 34 78  2  0  0  0  0
 35 58  1  0  0  0  0
 35 59  1  0  0  0  0
 35 79  2  0  0  0  0
 36 61  1  0  0  0  0
 36 66  1  0  0  0  0
 36 80  2  0  0  0  0
 37 58  1  0  0  0  0
 37 73  1  0  0  0  0
 37 81  2  0  0  0  0
 38 62  1  0  0  0  0
 38 74  1  0  0  0  0
 38 82  2  0  0  0  0
 39 67  1  0  0  0  0
 39 71  1  0  0  0  0
 39 83  2  0  0  0  0
 40 43  1  0  0  0  0
 41 50  1  0  0  0  0
 42 66  1  0  0  0  0
 43 45  1  0  0  0  0
 44 46  1  0  0  0  0
 44 47  1  0  0  0  0
 45 49  1  0  0  0  0
 46 51  1  0  0  0  0
 47 67  1  0  0  0  0
 48 51  1  0  0  0  0
 48 67  1  0  0  0  0
 49 72  1  0  0  0  0
 50 66  1  0  0  0  0
 51 65  1  0  0  0  0
 53 62  1  0  0  0  0
 54 63  1  0  0  0  0
 55 63  1  0  0  0  0
 56 63  1  0  0  0  0
 57 75  1  0  0  0  0
 59 85  1  0  0  0  0
 60 73  1  0  0  0  0
 61 63  1  0  0  0  0
 61 74  1  0  0  0  0
 62 75  1  0  0  0  0
 64 65  1  0  0  0  0
M  CHG  1  75   1
M  ISO  4  39 100  59 101  71 100  85 101
M  END
> <Batch ID>
0177

> <Smiles>
CNC(C)C(=O)NC(C(=O)N1Cc2cc([101O:1][101CH2:1]C(=O)CC(=O)NC(C(C)=O)c3sc([100NH:0][100C:0](=O)N4CCCC(n5nc(-c6ccc(Oc7ccc(F)cc7F)cc6)c(C(N)=O)c5N)C4)cc3N)ccc2CC1C(=O)NC1CCCc2ccccc21)C(C)(C)C

> <Shape>
0.306

> <Color>
0.167

> <Negative vol penalty>
0.000

$$$$

  -OEChem-04052304413D

 88 96  0     1  0  0  0  0  0999 V2000
  -28.3239  -36.8877   22.0294 C   0  0  0  0  0  0  0  0  0  0  0  0
  -28.6459  -35.5434   21.8723 C   0  0  0  0  0  0  0  0  0  0  0  0
  -22.9502  -10.3775   19.8880 C   0  0  0  0  0  0  0  0  0  0  0  0
  -23.7251   -9.7925   22.1003 C   0  0  0  0  0  0  0  0  0  0  0  0
  -27.0973  -37.2492   22.5852 C   0  0  0  0  0  0  0  0  0  0  0  0
  -27.7419  -34.5598   22.2718 C   0  0  0  0  0  0  0  0  0  0  0  0
  -26.7982  -29.1264   19.6084 C   0  0  0  0  0  0  0  0  0  0  0  0
  -22.0427   -9.3190   19.9260 C   0  0  0  0  0  0  0  0  0  0  0  0
  -22.8175   -8.7340   22.1383 C   0  0  0  0  0  0  0  0  0  0  0  0
  -27.2625  -27.8449   19.9015 C   0  0  0  0  0  0  0  0  0  0  0  0
  -19.0223   -8.6756   21.3030 C   0  0  0  0  0  0  0  0  0  0  0  0
  -17.7188   -8.9237   20.8731 C   0  0  0  0  0  0  0  0  0  0  0  0
  -27.4628  -18.0376   16.6466 C   0  0  0  0  0  0  0  0  0  0  0  0
  -25.2314  -27.3948   21.1227 C   0  0  0  0  0  0  0  0  0  0  0  0
  -26.4802  -20.0929   17.4512 C   0  0  0  0  0  0  0  0  0  0  0  0
  -17.9643   -7.2405   19.1574 C   0  0  0  0  0  0  0  0  0  0  0  0
  -23.7915  -10.6143   20.9752 C   0  0  0  0  0  0  0  0  0  0  0  0
  -28.5366  -18.2090   17.5201 C   0  0  0  0  0  0  0  0  0  0  0  0
  -24.5110  -13.0308   21.3632 C   0  0  0  0  0  0  0  0  0  0  0  0
  -26.1738  -36.2695   22.9828 C   0  0  0  0  0  0  0  0  0  0  0  0
  -25.5496  -29.5563   20.0803 C   0  0  0  0  0  0  0  0  0  0  0  0
  -26.5023  -34.9085   22.8346 C   0  0  0  0  0  0  0  0  0  0  0  0
  -24.7525  -28.6814   20.8321 C   0  0  0  0  0  0  0  0  0  0  0  0
  -28.5823  -19.3223   18.3592 C   0  0  0  0  0  0  0  0  0  0  0  0
  -27.5540  -20.2643   18.3248 C   0  0  0  0  0  0  0  0  0  0  0  0
  -21.9763   -8.4973   21.0511 C   0  0  0  0  0  0  0  0  0  0  0  0
  -26.4803  -26.9799   20.6611 C   0  0  0  0  0  0  0  0  0  0  0  0
  -19.7969   -7.7101   20.6601 C   0  0  0  0  0  0  0  0  0  0  0  0
  -17.1897   -8.2061   19.8003 C   0  0  0  0  0  0  0  0  0  0  0  0
  -26.4346  -18.9796   16.6121 C   0  0  0  0  0  0  0  0  0  0  0  0
  -19.2679   -6.9925   19.5873 C   0  0  0  0  0  0  0  0  0  0  0  0
  -24.7296  -11.7072   20.9364 C   0  0  0  0  0  0  0  0  0  0  0  0
  -25.7005  -13.6719   21.1170 C   0  0  0  0  0  0  0  0  0  0  0  0
  -26.6289  -24.7195   20.0788 C   0  0  0  0  0  0  0  0  0  1  0  0
  -29.6156  -17.1880   17.5334 C   0  0  0  0  0  0  0  0  0  0  0  0
  -23.3376  -13.6274   21.9315 C   0  0  0  0  0  0  0  0  0  0  0  0
  -27.0205  -23.4528   20.2628 C   0  0  0  0  0  0  0  0  0  0  0  0
  -26.6374  -22.4181   19.2475 C   0  0  0  0  0  0  0  0  0  0  0  0
  -24.5609  -31.8719   22.0204 C   0  0  0  0  0  0  0  0  0  0  0  0
  -21.6215  -30.8629   21.0905 C   0  0  0  0  0  0  0  0  0  0  0  0
  -19.6797  -28.3419   19.8574 C   0  0  0  0  0  0  0  0  0  0  0  0
  -30.0631  -14.7799   17.8864 C   0  0  0  0  0  0  0  0  0  0  0  0
  -24.8801  -36.7083   23.6220 C   0  0  0  0  0  0  0  0  0  0  0  0
  -25.0516  -30.9324   19.7329 C   0  0  0  0  0  0  0  0  0  0  0  0
  -23.3959  -29.0875   21.3452 C   0  0  0  0  0  0  0  0  0  0  0  0
  -23.8229  -35.6084   23.6744 C   0  0  0  0  0  0  0  0  0  0  0  0
  -30.2345  -11.8248   19.8189 C   0  0  0  0  0  0  0  0  0  0  0  0
  -24.4338  -34.3041   24.1768 C   0  0  0  0  0  0  0  0  0  0  0  0
  -28.8013  -11.6410   20.3256 C   0  0  0  0  0  0  0  0  0  0  0  0
  -30.2662  -12.3607   18.3883 C   0  0  0  0  0  0  0  0  0  0  0  0
  -28.0481  -13.3907   18.6657 C   0  0  0  0  0  0  0  0  0  0  0  0
  -25.5379  -33.8125   23.2330 C   0  0  1  0  0  0  0  0  0  0  0  0
  -23.9876  -31.4443   20.6989 C   0  0  1  0  0  0  0  0  0  0  0  0
  -27.9627  -12.9195   20.1264 C   0  0  1  0  0  0  0  0  0  0  0  0
  -30.7257  -20.5485   18.7935 C   0  0  0  0  0  0  0  0  0  0  0  0
  -17.3073  -27.8040   19.2413 C   0  0  0  0  0  0  0  0  0  0  0  0
  -20.9196  -30.5841   24.0468 C   0  0  0  0  0  0  0  0  0  0  0  0
  -18.9570  -29.1814   23.3769 C   0  0  0  0  0  0  0  0  0  0  0  0
  -19.1026  -31.5572   22.6304 C   0  0  0  0  0  0  0  0  0  0  0  0
  -20.4055  -27.8365   17.0331 C   0  0  0  0  0  0  0  0  0  0  0  0
  -29.7351  -19.5050   19.2968 C   0  0  0  0  0  0  0  0  0  0  0  0
  -20.6357  -29.8356   21.5922 C   0  0  1  0  0  0  0  0  0  0  0  0
  -18.6493  -28.3172   18.7429 C   0  0  2  0  0  0  0  0  0  0  0  0
  -19.9301  -30.2823   22.9037 C   0  0  0  0  0  0  0  0  0  0  0  0
  -25.9611  -11.5173   20.4554 N   0  0  0  0  0  0  0  0  0  0  0  0
  -26.5270  -12.7301   20.5784 N   0  0  0  0  0  0  0  0  0  0  0  0
  -22.9558  -30.4453   20.9844 N   0  0  0  0  0  0  0  0  0  0  0  0
  -29.4567  -13.5762   18.2860 N   0  0  0  0  0  0  0  0  0  0  0  0
  -26.1095  -14.9437   21.3109 N   0  0  0  0  0  0  0  0  0  0  0  0
  -22.2029  -12.8256   22.1160 N   0  0  0  0  0  0  0  0  0  0  0  0
  -27.5800  -21.4022   19.1667 N   0  0  0  0  0  0  0  0  0  0  0  0
  -29.2147  -15.8925   17.8610 N   0  0  0  0  0  0  0  0  0  0  0  0
  -24.9607  -33.1941   22.0588 N   0  0  0  0  0  0  0  0  0  0  0  0
  -19.7246  -29.5692   20.4844 N   0  0  0  0  0  0  0  0  0  0  0  0
  -19.1075  -27.4341   17.6333 N   0  3  0  0  0  0  0  0  0  0  0  0
  -30.7572  -17.5203   17.2265 O   0  0  0  0  0  0  0  0  0  0  0  0
  -23.2912  -14.8396   22.2505 O   0  0  0  0  0  0  0  0  0  0  0  0
  -25.5998  -22.5225   18.6022 O   0  0  0  0  0  0  0  0  0  0  0  0
  -24.6337  -31.0627   22.9377 O   0  0  0  0  0  0  0  0  0  0  0  0
  -21.2213  -31.9921   20.7967 O   0  0  0  0  0  0  0  0  0  0  0  0
  -20.3727  -27.3687   20.1456 O   0  0  0  0  0  0  0  0  0  0  0  0
  -31.2644  -14.8652   17.6127 O   0  0  0  0  0  0  0  0  0  0  0  0
  -27.7677  -23.0581   21.3539 O   0  0  0  0  0  0  0  0  0  0  0  0
  -21.0906   -7.4644   21.0886 O   0  0  0  0  0  0  0  0  0  0  0  0
  -26.9314  -25.7287   20.9492 O   0  0  0  0  0  0  0  0  0  1  0  0
  -15.9374   -8.4433   19.3886 F   0  0  0  0  0  0  0  0  0  0  0  0
  -25.4039  -18.8158   15.7722 F   0  0  0  0  0  0  0  0  0  0  0  0
  -20.0068   -6.0628   18.9664 F   0  0  0  0  0  0  0  0  0  0  0  0
  1  2  1  0  0  0  0
  1  5  2  0  0  0  0
  2  6  2  0  0  0  0
  3  8  2  0  0  0  0
  3 17  1  0  0  0  0
  4  9  1  0  0  0  0
  4 17  2  0  0  0  0
  5 20  1  0  0  0  0
  6 22  1  0  0  0  0
  7 10  2  0  0  0  0
  7 21  1  0  0  0  0
  8 26  1  0  0  0  0
  9 26  2  0  0  0  0
 10 27  1  0  0  0  0
 11 12  2  0  0  0  0
 11 28  1  0  0  0  0
 12 29  1  0  0  0  0
 13 18  1  0  0  0  0
 13 30  2  0  0  0  0
 14 23  1  0  0  0  0
 14 27  2  0  0  0  0
 15 25  2  0  0  0  0
 15 30  1  0  0  0  0
 16 29  2  0  0  0  0
 16 31  1  0  0  0  0
 17 32  1  0  0  0  0
 18 24  2  0  0  0  0
 18 35  1  0  0  0  0
 19 32  1  0  0  0  0
 19 33  2  0  0  0  0
 19 36  1  0  0  0  0
 20 22  2  0  0  0  0
 20 43  1  0  0  0  0
 21 23  2  0  0  0  0
 21 44  1  0  0  0  0
 22 52  1  0  0  0  0
 23 45  1  0  0  0  0
 24 25  1  0  0  0  0
 24 61  1  0  0  0  0
 25 71  1  0  0  0  0
 26 84  1  0  0  0  0
 27 85  1  0  0  0  0
 28 31  2  0  0  0  0
 28 84  1  0  0  0  0
 29 86  1  0  0  0  0
 30 87  1  0  0  0  0
 31 88  1  0  0  0  0
 32 65  2  0  0  0  0
 33 66  1  0  0  0  0
 33 69  1  0  0  0  0
 34 37  2  0  0  0  0
 34 85  1  0  0  0  0
 35 72  1  0  0  0  0
 35 76  2  0  0  0  0
 36 70  1  0  0  0  0
 36 77  2  0  0  0  0
 37 38  1  0  0  0  0
 37 83  1  0  0  0  0
 38 71  1  0  0  0  0
 38 78  2  0  0  0  0
 39 53  1  0  0  0  0
 39 73  1  0  0  0  0
 39 79  2  0  0  0  0
 40 62  1  0  0  0  0
 40 67  1  0  0  0  0
 40 80  2  0  0  0  0
 41 63  1  0  0  0  0
 41 74  1  0  0  0  0
 41 81  2  0  0  0  0
 42 68  1  0  0  0  0
 42 72  1  0  0  0  0
 42 82  2  0  0  0  0
 43 46  1  0  0  0  0
 44 53  1  0  0  0  0
 45 67  1  0  0  0  0
 46 48  1  0  0  0  0
 47 49  1  0  0  0  0
 47 50  1  0  0  0  0
 48 52  1  0  0  0  0
 49 54  1  0  0  0  0
 50 68  1  0  0  0  0
 51 54  1  0  0  0  0
 51 68  1  0  0  0  0
 52 73  1  0  0  0  0
 53 67  1  0  0  0  0
 54 66  1  0  0  0  0
 55 61  1  0  0  0  0
 56 63  1  0  0  0  0
 57 64  1  0  0  0  0
 58 64  1  0  0  0  0
 59 64  1  0  0  0  0
 60 75  1  0  0  0  0
 62 64  1  0  0  0  0
 62 74  1  0  0  0  0
 63 75  1  0  0  0  0
 65 66  1  0  0  0  0
M  CHG  1  75   1
M  ISO  4  34 101  42 100  72 100  85 101
M  END
> <Batch ID>
0177

> <Smiles>
CCc1c(NC(=O)C(=O)[101CH2:1][101O:1]c2ccc3c(c2)CN(C(=O)C(NC(=O)C(C)NC)C(C)(C)C)C(C(=O)NC2CCCc4ccccc42)C3)cc(F)cc1C(=O)[100NH:0][100C:0](=O)N1CCCC(n2nc(-c3ccc(Oc4ccc(F)cc4F)cc3)c(C(N)=O)c2N)C1

> <Shape>
0.285

> <Color>
0.139

> <Negative vol penalty>
0.000

$$$$

  -OEChem-04052304413D

 85 94  0     1  0  0  0  0  0999 V2000
  -20.9959  -31.4902   14.8166 C   0  0  0  0  0  0  0  0  0  0  0  0
  -22.1997  -30.9165   15.2128 C   0  0  0  0  0  0  0  0  0  0  0  0
  -22.7849  -13.4605   24.6745 C   0  0  0  0  0  0  0  0  0  0  0  0
  -23.0513  -15.7733   24.0288 C   0  0  0  0  0  0  0  0  0  0  0  0
  -20.4669  -32.5628   15.5334 C   0  0  0  0  0  0  0  0  0  0  0  0
  -22.8760  -31.4157   16.3253 C   0  0  0  0  0  0  0  0  0  0  0  0
  -24.5722  -27.7466   19.3757 C   0  0  0  0  0  0  0  0  0  0  0  0
  -21.8626  -13.8390   25.6500 C   0  0  0  0  0  0  0  0  0  0  0  0
  -22.1289  -16.1519   25.0043 C   0  0  0  0  0  0  0  0  0  0  0  0
  -25.7294  -27.0758   18.9824 C   0  0  0  0  0  0  0  0  0  0  0  0
  -18.6011  -14.7207   25.7860 C   0  0  0  0  0  0  0  0  0  0  0  0
  -17.4272  -13.9749   25.8925 C   0  0  0  0  0  0  0  0  0  0  0  0
  -27.0237  -28.4295   20.5028 C   0  0  0  0  0  0  0  0  0  0  0  0
  -27.9960  -19.7510   19.2383 C   0  0  0  0  0  0  0  0  0  0  0  0
  -17.9905  -13.4139   28.1739 C   0  0  0  0  0  0  0  0  0  0  0  0
  -30.2407  -19.7787   20.0240 C   0  0  0  0  0  0  0  0  0  0  0  0
  -23.3793  -14.4277   23.8639 C   0  0  0  0  0  0  0  0  0  0  0  0
  -24.1124  -13.1728   21.7674 C   0  0  0  0  0  0  0  0  0  0  0  0
  -21.1321  -33.0692   16.6610 C   0  0  0  0  0  0  0  0  0  0  0  0
  -24.6338  -28.7730   20.3292 C   0  0  0  0  0  0  0  0  0  0  0  0
  -22.3561  -32.4970   17.0571 C   0  0  0  0  0  0  0  0  0  0  0  0
  -25.8654  -29.1101   20.9084 C   0  0  0  0  0  0  0  0  0  0  0  0
  -29.0627  -19.0775   19.8229 C   0  0  0  0  0  0  0  0  0  0  0  0
  -21.5346  -15.1847   25.8149 C   0  0  0  0  0  0  0  0  0  0  0  0
  -26.9558  -27.4192   19.5438 C   0  0  0  0  0  0  0  0  0  0  0  0
  -19.4698  -14.8130   26.8735 C   0  0  0  0  0  0  0  0  0  0  0  0
  -17.1219  -13.3215   27.0864 C   0  0  0  0  0  0  0  0  0  0  0  0
  -28.1379  -21.0863   18.8776 C   0  0  0  0  0  0  0  0  0  0  0  0
  -19.1644  -14.1596   28.0675 C   0  0  0  0  0  0  0  0  0  0  0  0
  -24.3325  -14.0373   22.8564 C   0  0  0  0  0  0  0  0  0  0  0  0
  -29.3572  -21.6977   19.1211 C   0  0  0  0  0  0  0  0  0  0  0  0
  -25.3200  -13.1287   21.1144 C   0  0  0  0  0  0  0  0  0  0  0  0
  -29.8674  -25.3715   19.8405 C   0  0  0  0  0  0  0  0  0  0  0  0
  -22.9228  -12.4722   21.3805 C   0  0  0  0  0  0  0  0  0  0  0  0
  -23.9641  -31.8803   20.3262 C   0  0  0  0  0  0  0  0  0  0  0  0
  -24.5950  -31.6222   23.4975 C   0  0  0  0  0  0  0  0  0  0  0  0
  -27.0288  -29.9500   25.5707 C   0  0  0  0  0  0  0  0  0  0  0  0
  -29.9277  -16.9196   20.7934 C   0  0  0  0  0  0  0  0  0  0  0  0
  -20.5452  -34.2604   17.3760 C   0  0  0  0  0  0  0  0  0  0  0  0
  -23.3725  -29.4688   20.7623 C   0  0  0  0  0  0  0  0  0  0  0  0
  -25.9823  -30.1909   21.9508 C   0  0  0  0  0  0  0  0  0  0  0  0
  -29.1014  -24.0711   19.8877 C   0  0  0  0  0  0  0  0  0  0  0  0
  -21.1352  -34.4885   18.7653 C   0  0  0  0  0  0  0  0  0  0  0  0
  -30.0245  -13.5401   21.9100 C   0  0  0  0  0  0  0  0  0  0  0  0
  -22.6568  -34.3901   18.7218 C   0  0  0  0  0  0  0  0  0  0  0  0
  -28.5552  -13.2035   22.1745 C   0  0  0  0  0  0  0  0  0  0  0  0
  -30.3532  -14.9826   22.2907 C   0  0  0  0  0  0  0  0  0  0  0  0
  -28.0089  -15.6612   21.9553 C   0  0  0  0  0  0  0  0  0  0  0  0
  -30.9882  -23.4836   18.3109 C   0  0  0  0  0  0  0  0  0  0  0  0
  -23.1068  -32.9945   18.2732 C   0  0  1  0  0  0  0  0  0  0  0  0
  -29.5512  -23.1558   18.7417 C   0  0  1  0  0  0  0  0  0  0  0  0
  -23.6270  -30.8474   21.3640 C   0  0  1  0  0  0  0  0  0  0  0  0
  -27.6145  -14.2384   21.5267 C   0  0  2  0  0  0  0  0  0  0  0  0
  -26.8762  -29.1508   27.9446 C   0  0  0  0  0  0  0  0  0  0  0  0
  -25.8309  -34.3266   24.1823 C   0  0  0  0  0  0  0  0  0  0  0  0
  -27.1781  -33.1835   25.9561 C   0  0  0  0  0  0  0  0  0  0  0  0
  -24.6873  -33.1883   26.0931 C   0  0  0  0  0  0  0  0  0  0  0  0
  -27.7930  -27.1928   24.8138 C   0  0  0  0  0  0  0  0  0  0  0  0
  -29.1268  -26.6460   20.1310 C   0  0  0  0  0  0  0  0  0  1  0  0
  -25.8304  -31.7505   24.3558 C   0  0  1  0  0  0  0  0  0  0  0  0
  -26.7839  -28.7580   26.4783 C   0  0  2  0  0  0  0  0  0  0  0  0
  -25.8832  -33.1037   25.1197 C   0  0  0  0  0  0  0  0  0  0  0  0
  -30.4160  -21.0761   19.6870 N   0  0  0  0  0  0  0  0  0  0  0  0
  -25.5817  -14.5084   22.8965 N   0  0  0  0  0  0  0  0  0  0  0  0
  -31.1429  -25.4142   19.5999 N   0  0  0  0  0  0  0  0  0  0  0  0
  -26.1574  -13.9378   21.8246 N   0  0  0  0  0  0  0  0  0  0  0  0
  -24.7216  -30.8463   22.3366 N   0  0  0  0  0  0  0  0  0  0  0  0
  -29.4242  -15.9067   21.6368 N   0  0  0  0  0  0  0  0  0  0  0  0
  -25.7366  -12.4772   20.0079 N   0  0  0  0  0  0  0  0  0  0  0  0
  -21.7706  -12.6294   22.1629 N   0  0  0  0  0  0  0  0  0  0  0  0
  -28.9485  -17.7168   20.2016 N   0  0  0  0  0  0  0  0  0  0  0  0
  -22.9875  -32.0503   19.3635 N   0  0  0  0  0  0  0  0  0  0  0  0
  -25.8510  -30.5753   25.2199 N   0  0  0  0  0  0  0  0  0  0  0  0
  -27.7893  -27.6903   26.2136 N   0  3  0  0  0  0  0  0  0  0  0  0
  -22.8873  -11.7159   20.3804 O   0  0  0  0  0  0  0  0  0  0  0  0
  -25.0307  -32.4799   20.3946 O   0  0  0  0  0  0  0  0  0  0  0  0
  -23.5541  -32.1836   23.8481 O   0  0  0  0  0  0  0  0  0  0  0  0
  -28.1528  -30.2943   25.2121 O   0  0  0  0  0  0  0  0  0  0  0  0
  -31.1371  -17.0516   20.5884 O   0  0  0  0  0  0  0  0  0  0  0  0
  -31.6760  -24.1239   19.3880 O   0  0  0  0  0  0  0  0  0  0  0  0
  -20.6345  -15.5544   26.7666 O   0  0  0  0  0  0  0  0  0  0  0  0
  -28.0869  -26.7665   19.1612 O   0  0  0  0  0  0  0  0  0  1  0  0
  -15.9938  -12.6066   27.1889 F   0  0  0  0  0  0  0  0  0  0  0  0
  -27.1222  -21.7509   18.3132 F   0  0  0  0  0  0  0  0  0  0  0  0
  -19.9945  -14.2456   29.1160 F   0  0  0  0  0  0  0  0  0  0  0  0
  1  2  1  0  0  0  0
  1  5  2  0  0  0  0
  2  6  2  0  0  0  0
  3  8  2  0  0  0  0
  3 17  1  0  0  0  0
  4  9  1  0  0  0  0
  4 17  2  0  0  0  0
  5 19  1  0  0  0  0
  6 21  1  0  0  0  0
  7 10  2  0  0  0  0
  7 20  1  0  0  0  0
  8 24  1  0  0  0  0
  9 24  2  0  0  0  0
 10 25  1  0  0  0  0
 11 12  2  0  0  0  0
 11 26  1  0  0  0  0
 12 27  1  0  0  0  0
 13 22  1  0  0  0  0
 13 25  2  0  0  0  0
 14 23  2  0  0  0  0
 14 28  1  0  0  0  0
 15 27  2  0  0  0  0
 15 29  1  0  0  0  0
 16 23  1  0  0  0  0
 16 63  2  0  0  0  0
 17 30  1  0  0  0  0
 18 30  1  0  0  0  0
 18 32  2  0  0  0  0
 18 34  1  0  0  0  0
 19 21  2  0  0  0  0
 19 39  1  0  0  0  0
 20 22  2  0  0  0  0
 20 40  1  0  0  0  0
 21 50  1  0  0  0  0
 22 41  1  0  0  0  0
 23 71  1  0  0  0  0
 24 81  1  0  0  0  0
 25 82  1  0  0  0  0
 26 29  2  0  0  0  0
 26 81  1  0  0  0  0
 27 83  1  0  0  0  0
 28 31  2  0  0  0  0
 28 84  1  0  0  0  0
 29 85  1  0  0  0  0
 30 64  2  0  0  0  0
 31 51  1  0  0  0  0
 31 63  1  0  0  0  0
 32 66  1  0  0  0  0
 32 69  1  0  0  0  0
 33 42  1  0  0  0  0
 33 59  1  0  0  0  0
 33 65  2  0  0  0  0
 34 70  1  0  0  0  0
 34 75  2  0  0  0  0
 35 52  1  0  0  0  0
 35 72  1  0  0  0  0
 35 76  2  0  0  0  0
 36 60  1  0  0  0  0
 36 67  1  0  0  0  0
 36 77  2  0  0  0  0
 37 61  1  0  0  0  0
 37 73  1  0  0  0  0
 37 78  2  0  0  0  0
 38 68  1  0  0  0  0
 38 71  1  0  0  0  0
 38 79  2  0  0  0  0
 39 43  1  0  0  0  0
 40 52  1  0  0  0  0
 41 67  1  0  0  0  0
 42 51  1  0  0  0  0
 43 45  1  0  0  0  0
 44 46  1  0  0  0  0
 44 47  1  0  0  0  0
 45 50  1  0  0  0  0
 46 53  1  0  0  0  0
 47 68  1  0  0  0  0
 48 53  1  0  0  0  0
 48 68  1  0  0  0  0
 49 51  1  0  0  0  0
 49 80  1  0  0  0  0
 50 72  1  0  0  0  0
 52 67  1  0  0  0  0
 53 66  1  0  0  0  0
 54 61  1  0  0  0  0
 55 62  1  0  0  0  0
 56 62  1  0  0  0  0
 57 62  1  0  0  0  0
 58 74  1  0  0  0  0
 59 82  1  0  0  0  0
 60 62  1  0  0  0  0
 60 73  1  0  0  0  0
 61 74  1  0  0  0  0
 64 66  1  0  0  0  0
 65 80  1  0  0  0  0
M  CHG  1  74   1
M  ISO  4  38 100  59 101  71 100  82 101
M  END
> <Batch ID>
0177

> <Smiles>
CNC(C)C(=O)NC(C(=O)N1Cc2cc([101O:1][101CH2:1]C3=NOCC(c4ncc([100NH:0][100C:0](=O)N5CCCC(n6nc(-c7ccc(Oc8ccc(F)cc8F)cc7)c(C(N)=O)c6N)C5)cc4F)C3)ccc2CC1C(=O)NC1CCCc2ccccc21)C(C)(C)C

> <Shape>
0.269

> <Color>
0.113

> <Negative vol penalty>
0.000

$$$$

  -OEChem-04052304413D

 91 99  0     1  0  0  0  0  0999 V2000
  -29.9112  -12.1888   19.6217 C   0  0  0  0  0  0  0  0  0  0  0  0
  -29.7126  -13.5633   19.5387 C   0  0  0  0  0  0  0  0  0  0  0  0
  -20.5308  -26.2927   22.1407 C   0  0  0  0  0  0  0  0  0  0  0  0
  -19.8132  -28.5988   22.2022 C   0  0  0  0  0  0  0  0  0  0  0  0
  -28.8148  -11.3297   19.6830 C   0  0  0  0  0  0  0  0  0  0  0  0
  -28.4173  -14.0793   19.5159 C   0  0  0  0  0  0  0  0  0  0  0  0
  -27.8661  -18.0806   22.5705 C   0  0  0  0  0  0  0  0  0  0  0  0
  -19.3946  -25.9200   22.8588 C   0  0  0  0  0  0  0  0  0  0  0  0
  -18.6770  -28.2261   22.9204 C   0  0  0  0  0  0  0  0  0  0  0  0
  -28.3537  -19.3036   22.1120 C   0  0  0  0  0  0  0  0  0  0  0  0
  -16.8627  -24.4100   24.9879 C   0  0  0  0  0  0  0  0  0  0  0  0
  -17.0270  -23.5178   26.0474 C   0  0  0  0  0  0  0  0  0  0  0  0
  -26.1185  -19.9489   21.4743 C   0  0  0  0  0  0  0  0  0  0  0  0
  -18.5130  -25.0823   27.1343 C   0  0  0  0  0  0  0  0  0  0  0  0
  -20.7401  -27.6321   21.8124 C   0  0  0  0  0  0  0  0  0  0  0  0
  -22.0477  -28.0970   19.6719 C   0  0  0  0  0  0  0  0  0  0  0  0
  -27.5056  -11.8360   19.6706 C   0  0  0  0  0  0  0  0  0  0  0  0
  -26.5004  -17.7776   22.4742 C   0  0  0  0  0  0  0  0  0  0  0  0
  -27.3024  -13.2260   19.5757 C   0  0  0  0  0  0  0  0  0  0  0  0
  -25.6157  -18.7223   21.9346 C   0  0  0  0  0  0  0  0  0  0  0  0
  -18.4677  -26.8867   23.2487 C   0  0  0  0  0  0  0  0  0  0  0  0
  -27.4804  -20.2368   21.5611 C   0  0  0  0  0  0  0  0  0  0  0  0
  -17.5235  -25.6383   25.0015 C   0  0  0  0  0  0  0  0  0  0  0  0
  -17.8521  -23.8540   27.1206 C   0  0  0  0  0  0  0  0  0  0  0  0
  -18.3487  -25.9745   26.0747 C   0  0  0  0  0  0  0  0  0  0  0  0
  -21.9139  -28.0178   21.0711 C   0  0  0  0  0  0  0  0  0  0  0  0
  -31.0845  -26.9127   19.4364 C   0  0  0  0  0  0  0  0  0  0  0  0
  -23.3437  -28.5064   19.4736 C   0  0  0  0  0  0  0  0  0  0  0  0
  -31.0615  -27.4577   18.1697 C   0  0  0  0  0  0  0  0  0  0  0  0
  -30.9414  -25.0544   18.2805 C   0  0  0  0  0  0  0  0  0  0  0  0
  -21.0865  -27.8249   18.6435 C   0  0  0  0  0  0  0  0  0  0  0  0
  -31.1787  -27.7205   20.6640 C   0  0  0  0  0  0  0  0  0  0  0  0
  -24.7962  -15.5561   20.9694 C   0  0  0  0  0  0  0  0  0  0  0  0
  -33.9358  -29.5180   22.1314 C   0  0  0  0  0  0  0  0  0  0  0  0
  -32.6226  -27.8688   23.5631 C   0  0  0  0  0  0  0  0  0  0  0  0
  -29.4550  -22.5286   19.5582 C   0  0  0  0  0  0  0  0  0  0  0  0
  -22.3385  -16.8754   22.6252 C   0  0  0  0  0  0  0  0  0  0  0  0
  -21.0650  -19.5980   24.2414 C   0  0  0  0  0  0  0  0  0  0  0  0
  -28.6924  -27.8006   20.6856 C   0  0  0  0  0  0  0  0  0  0  0  0
  -26.3516  -10.8652   19.6911 C   0  0  0  0  0  0  0  0  0  0  0  0
  -25.9862  -16.4647   22.9978 C   0  0  0  0  0  0  0  0  0  0  0  0
  -24.1376  -18.4539   21.8271 C   0  0  0  0  0  0  0  0  0  0  0  0
  -25.0150  -11.5151   20.0397 C   0  0  0  0  0  0  0  0  0  0  0  0
  -26.7862  -30.2772   22.6906 C   0  0  0  0  0  0  0  0  0  0  0  0
  -24.8220  -12.8003   19.2411 C   0  0  0  0  0  0  0  0  0  0  0  0
  -25.3551  -29.8508   22.3833 C   0  0  0  0  0  0  0  0  0  0  0  0
  -27.7567  -29.0969   22.6757 C   0  0  0  0  0  0  0  0  0  0  0  0
  -26.2685  -27.8823   21.0987 C   0  0  0  0  0  0  0  0  0  0  0  0
  -25.9129  -13.8255   19.5734 C   0  0  1  0  0  0  0  0  0  0  0  0
  -24.6530  -16.0555   22.3793 C   0  0  1  0  0  0  0  0  0  0  0  0
  -25.3005  -29.0736   21.0604 C   0  0  1  0  0  0  0  0  0  0  0  0
  -33.8671  -30.8441   21.4180 C   0  0  0  0  0  0  0  0  0  0  0  0
  -32.8145  -28.4903   24.9234 C   0  0  0  0  0  0  0  0  0  0  0  0
  -19.0175  -20.3864   25.4595 C   0  0  0  0  0  0  0  0  0  0  0  0
  -20.8805  -17.1930   19.9638 C   0  0  0  0  0  0  0  0  0  0  0  0
  -19.3236  -18.7994   21.0881 C   0  0  0  0  0  0  0  0  0  0  0  0
  -19.4381  -16.4298   21.8589 C   0  0  0  0  0  0  0  0  0  0  0  0
  -22.5855  -20.0564   26.7388 C   0  0  0  0  0  0  0  0  0  0  0  0
  -30.8423  -22.6573   18.9658 C   0  0  0  0  0  0  0  0  0  0  0  0
  -29.2914  -21.4543   20.6158 C   0  0  0  0  0  0  0  0  0  1  0  0
  -32.6261  -28.8119   22.3838 C   0  0  0  0  0  0  0  0  0  0  0  0
  -21.3570  -17.9940   22.3716 C   0  0  1  0  0  0  0  0  0  0  0  0
  -20.3885  -19.7420   25.5928 C   0  0  2  0  0  0  0  0  0  0  0  0
  -20.2779  -17.6086   21.3207 C   0  0  0  0  0  0  0  0  0  0  0  0
  -23.0354  -28.3501   21.7160 N   0  0  0  0  0  0  0  0  0  0  0  0
  -31.0153  -25.5348   19.5019 N   0  0  0  0  0  0  0  0  0  0  0  0
  -23.8863  -28.6420   20.7175 N   0  0  0  0  0  0  0  0  0  0  0  0
  -23.6844  -17.1532   22.3471 N   0  0  0  0  0  0  0  0  0  0  0  0
  -27.6318  -28.2928   21.4522 N   0  0  0  0  0  0  0  0  0  0  0  0
  -24.0607  -28.7600   18.3582 N   0  0  0  0  0  0  0  0  0  0  0  0
  -31.1164  -28.7653   17.8174 N   0  0  0  0  0  0  0  0  0  0  0  0
  -19.8011  -27.4141   19.0221 N   0  0  0  0  0  0  0  0  0  0  0  0
  -30.8580  -23.7033   17.9756 N   0  0  0  0  0  0  0  0  0  0  0  0
  -30.0094  -28.1057   21.2006 N   0  0  0  0  0  0  0  0  0  0  0  0
  -25.6354  -14.4658   20.8413 N   0  0  0  0  0  0  0  0  0  0  0  0
  -20.8163  -18.3659   23.6746 N   0  0  0  0  0  0  0  0  0  0  0  0
  -32.3807  -28.0198   21.1730 N   0  3  0  0  0  0  0  0  0  0  0  0
  -21.2178  -20.5849   26.4999 N   0  3  0  0  0  0  0  0  0  0  0  0
  -21.3643  -27.9268   17.4245 O   0  0  0  0  0  0  0  0  0  0  0  0
  -24.1890  -16.1174   20.0650 O   0  0  0  0  0  0  0  0  0  0  0  0
  -35.0169  -29.0368   22.4705 O   0  0  0  0  0  0  0  0  0  0  0  0
  -32.4796  -26.6525   23.4401 O   0  0  0  0  0  0  0  0  0  0  0  0
  -28.5148  -23.2427   19.2119 O   0  0  0  0  0  0  0  0  0  0  0  0
  -21.9272  -15.7972   23.0611 O   0  0  0  0  0  0  0  0  0  0  0  0
  -21.7428  -20.4907   23.7373 O   0  0  0  0  0  0  0  0  0  0  0  0
  -28.5831  -27.1298   19.6648 O   0  0  0  0  0  0  0  0  0  0  0  0
  -17.3588  -26.5233   23.9492 O   0  0  0  0  0  0  0  0  0  0  0  0
  -27.9538  -21.4311   21.1122 O   0  0  0  0  0  0  0  0  0  1  0  0
  -18.0086  -22.9978   28.1388 F   0  0  0  0  0  0  0  0  0  0  0  0
  -18.9852  -27.1536   26.0940 F   0  0  0  0  0  0  0  0  0  0  0  0
  -30.9508  -26.2031   17.0056 S   0  0  0  0  0  0  0  0  0  0  0  0
  1  2  1  0  0  0  0
  1  5  2  0  0  0  0
  2  6  2  0  0  0  0
  3  8  2  0  0  0  0
  3 15  1  0  0  0  0
  4  9  1  0  0  0  0
  4 15  2  0  0  0  0
  5 17  1  0  0  0  0
  6 19  1  0  0  0  0
  7 10  2  0  0  0  0
  7 18  1  0  0  0  0
  8 21  1  0  0  0  0
  9 21  2  0  0  0  0
 10 22  1  0  0  0  0
 11 12  2  0  0  0  0
 11 23  1  0  0  0  0
 12 24  1  0  0  0  0
 13 20  1  0  0  0  0
 13 22  2  0  0  0  0
 14 24  2  0  0  0  0
 14 25  1  0  0  0  0
 15 26  1  0  0  0  0
 16 26  1  0  0  0  0
 16 28  2  0  0  0  0
 16 31  1  0  0  0  0
 17 19  2  0  0  0  0
 17 40  1  0  0  0  0
 18 20  2  0  0  0  0
 18 41  1  0  0  0  0
 19 49  1  0  0  0  0
 20 42  1  0  0  0  0
 21 87  1  0  0  0  0
 22 88  1  0  0  0  0
 23 25  2  0  0  0  0
 23 87  1  0  0  0  0
 24 89  1  0  0  0  0
 25 90  1  0  0  0  0
 26 65  2  0  0  0  0
 27 29  2  0  0  0  0
 27 32  1  0  0  0  0
 27 66  1  0  0  0  0
 28 67  1  0  0  0  0
 28 70  1  0  0  0  0
 29 71  1  0  0  0  0
 29 91  1  0  0  0  0
 30 66  2  0  0  0  0
 30 73  1  0  0  0  0
 30 91  1  0  0  0  0
 31 72  1  0  0  0  0
 31 79  2  0  0  0  0
 32 74  1  0  0  0  0
 32 77  2  0  0  0  0
 33 50  1  0  0  0  0
 33 75  1  0  0  0  0
 33 80  2  0  0  0  0
 34 52  1  0  0  0  0
 34 61  1  0  0  0  0
 34 81  2  0  0  0  0
 35 53  1  0  0  0  0
 35 61  1  0  0  0  0
 35 82  2  0  0  0  0
 36 59  1  0  0  0  0
 36 60  1  0  0  0  0
 36 83  2  0  0  0  0
 37 62  1  0  0  0  0
 37 68  1  0  0  0  0
 37 84  2  0  0  0  0
 38 63  1  0  0  0  0
 38 76  1  0  0  0  0
 38 85  2  0  0  0  0
 39 69  1  0  0  0  0
 39 74  1  0  0  0  0
 39 86  2  0  0  0  0
 40 43  1  0  0  0  0
 41 50  1  0  0  0  0
 42 68  1  0  0  0  0
 43 45  1  0  0  0  0
 44 46  1  0  0  0  0
 44 47  1  0  0  0  0
 45 49  1  0  0  0  0
 46 51  1  0  0  0  0
 47 69  1  0  0  0  0
 48 51  1  0  0  0  0
 48 69  1  0  0  0  0
 49 75  1  0  0  0  0
 50 68  1  0  0  0  0
 51 67  1  0  0  0  0
 54 63  1  0  0  0  0
 55 64  1  0  0  0  0
 56 64  1  0  0  0  0
 57 64  1  0  0  0  0
 58 78  1  0  0  0  0
 59 73  1  0  0  0  0
 60 88  1  0  0  0  0
 61 77  1  0  0  0  0
 62 64  1  0  0  0  0
 62 76  1  0  0  0  0
 63 78  1  0  0  0  0
 65 67  1  0  0  0  0
M  CHG  2  77   1  78   1
M  ISO  4  39 100  60 101  74 100  88 101
M  END
> <Batch ID>
0177

> <Smiles>
CNC(C)C(=O)NC(C(=O)N1Cc2cc([101O:1][101CH2:1]C(=O)CNc3nc(C(=NC(C(C)=O)C(C)=O)[100NH:0][100C:0](=O)N4CCCC(n5nc(-c6ccc(Oc7ccc(F)cc7F)cc6)c(C(N)=O)c5N)C4)c(N)s3)ccc2CC1C(=O)NC1CCCc2ccccc21)C(C)(C)C

> <Shape>
0.225

> <Color>
0.081

> <Negative vol penalty>
0.000

$$$$

  -OEChem-04052304413D

 84 92  0     1  0  0  0  0  0999 V2000
  -18.2151  -30.9648   16.9696 C   0  0  0  0  0  0  0  0  0  0  0  0
  -19.2727  -30.0614   16.9381 C   0  0  0  0  0  0  0  0  0  0  0  0
  -23.4289   -9.8601   21.4408 C   0  0  0  0  0  0  0  0  0  0  0  0
  -24.1086  -10.8942   23.5159 C   0  0  0  0  0  0  0  0  0  0  0  0
  -18.4233  -32.2643   17.4299 C   0  0  0  0  0  0  0  0  0  0  0  0
  -20.5394  -30.4575   17.3659 C   0  0  0  0  0  0  0  0  0  0  0  0
  -24.6944  -27.0088   20.2553 C   0  0  0  0  0  0  0  0  0  0  0  0
  -22.8239   -8.8257   22.1545 C   0  0  0  0  0  0  0  0  0  0  0  0
  -23.5036   -9.8597   24.2296 C   0  0  0  0  0  0  0  0  0  0  0  0
  -25.8188  -26.3194   19.8035 C   0  0  0  0  0  0  0  0  0  0  0  0
  -23.7877   -6.0122   23.7608 C   0  0  0  0  0  0  0  0  0  0  0  0
  -24.0098   -4.7069   23.3222 C   0  0  0  0  0  0  0  0  0  0  0  0
  -27.2083  -28.1913   20.4236 C   0  0  0  0  0  0  0  0  0  0  0  0
  -21.6354   -4.4169   22.9831 C   0  0  0  0  0  0  0  0  0  0  0  0
  -29.0264  -18.9340   20.6338 C   0  0  0  0  0  0  0  0  0  0  0  0
  -24.0714  -10.8944   22.1215 C   0  0  0  0  0  0  0  0  0  0  0  0
  -24.1058  -13.1733   20.9756 C   0  0  0  0  0  0  0  0  0  0  0  0
  -19.6910  -32.6736   17.8726 C   0  0  0  0  0  0  0  0  0  0  0  0
  -24.8174  -28.3012   20.7854 C   0  0  0  0  0  0  0  0  0  0  0  0
  -20.7650  -31.7641   17.8313 C   0  0  0  0  0  0  0  0  0  0  0  0
  -26.0843  -28.8940   20.8837 C   0  0  0  0  0  0  0  0  0  0  0  0
  -22.8612   -8.8255   23.5489 C   0  0  0  0  0  0  0  0  0  0  0  0
  -27.0757  -26.9117   19.8849 C   0  0  0  0  0  0  0  0  0  0  0  0
  -22.4895   -6.5199   23.8107 C   0  0  0  0  0  0  0  0  0  0  0  0
  -22.9337   -3.9093   22.9333 C   0  0  0  0  0  0  0  0  0  0  0  0
  -21.4133   -5.7222   23.4218 C   0  0  0  0  0  0  0  0  0  0  0  0
  -24.6971  -11.9630   21.3848 C   0  0  0  0  0  0  0  0  0  0  0  0
  -30.4397  -20.6167   20.0011 C   0  0  0  0  0  0  0  0  0  0  0  0
  -29.9387  -18.0014   20.1917 C   0  0  0  0  0  0  0  0  0  0  0  0
  -31.3524  -19.6842   19.5596 C   0  0  0  0  0  0  0  0  0  0  0  0
  -25.1093  -13.8397   20.3157 C   0  0  0  0  0  0  0  0  0  0  0  0
  -22.7691  -13.6523   21.1742 C   0  0  0  0  0  0  0  0  0  0  0  0
  -30.6774  -22.0801   19.9143 C   0  0  0  0  0  0  0  0  0  0  0  0
  -23.7115  -31.1705   19.9805 C   0  0  0  0  0  0  0  0  0  0  0  0
  -25.0751  -32.0536   22.7882 C   0  0  0  0  0  0  0  0  0  0  0  0
  -29.5450  -24.2632   19.6966 C   0  0  0  0  0  0  0  0  0  0  0  0
  -27.4109  -31.4304   25.1970 C   0  0  0  0  0  0  0  0  0  0  0  0
  -30.3984  -15.5378   19.9353 C   0  0  0  0  0  0  0  0  0  0  0  0
  -19.8782  -34.1026   18.3172 C   0  0  0  0  0  0  0  0  0  0  0  0
  -23.5981  -29.0210   21.2931 C   0  0  0  0  0  0  0  0  0  0  0  0
  -26.2725  -30.2713   21.4634 C   0  0  0  0  0  0  0  0  0  0  0  0
  -21.1658  -34.3318   19.1046 C   0  0  0  0  0  0  0  0  0  0  0  0
  -29.6634  -12.2510   18.7803 C   0  0  0  0  0  0  0  0  0  0  0  0
  -22.3459  -33.6665   18.4035 C   0  0  0  0  0  0  0  0  0  0  0  0
  -28.2572  -11.9827   19.3213 C   0  0  0  0  0  0  0  0  0  0  0  0
  -30.5049  -13.0610   19.7651 C   0  0  0  0  0  0  0  0  0  0  0  0
  -28.4806  -14.0411   20.7704 C   0  0  0  0  0  0  0  0  0  0  0  0
  -22.1481  -32.1487   18.3103 C   0  0  1  0  0  0  0  0  0  0  0  0
  -23.7750  -30.5355   21.3408 C   0  0  1  0  0  0  0  0  0  0  0  0
  -27.5743  -13.2839   19.7860 C   0  0  2  0  0  0  0  0  0  0  0  0
  -28.3126  -32.3491   27.3511 C   0  0  0  0  0  0  0  0  0  0  0  0
  -26.5739  -34.2119   21.2374 C   0  0  0  0  0  0  0  0  0  0  0  0
  -28.1181  -34.4473   23.1940 C   0  0  0  0  0  0  0  0  0  0  0  0
  -25.6885  -34.9473   23.4577 C   0  0  0  0  0  0  0  0  0  0  0  0
  -26.6536  -28.9896   26.6897 C   0  0  0  0  0  0  0  0  0  0  0  0
  -28.1454  -24.8172   19.5320 C   0  0  0  0  0  0  0  0  0  1  0  0
  -26.4395  -32.5464   23.2057 C   0  0  1  0  0  0  0  0  0  0  0  0
  -27.3123  -31.3988   26.7115 C   0  0  2  0  0  0  0  0  0  0  0  0
  -26.7015  -34.0130   22.7610 C   0  0  0  0  0  0  0  0  0  0  0  0
  -29.2605  -20.2584   20.5464 N   0  0  0  0  0  0  0  0  0  0  0  0
  -25.9769  -11.8636   21.0157 N   0  0  0  0  0  0  0  0  0  0  0  0
  -31.1181  -18.3598   19.6467 N   0  0  0  0  0  0  0  0  0  0  0  0
  -26.1980  -13.0199   20.3675 N   0  0  0  0  0  0  0  0  0  0  0  0
  -25.0491  -30.9371   21.9404 N   0  0  0  0  0  0  0  0  0  0  0  0
  -29.7964  -14.2812   20.1575 N   0  0  0  0  0  0  0  0  0  0  0  0
  -32.5725  -20.1228   18.9972 N   0  0  0  0  0  0  0  0  0  0  0  0
  -25.1577  -15.0412   19.7020 N   0  0  0  0  0  0  0  0  0  0  0  0
  -21.8656  -12.8407   21.8737 N   0  0  0  0  0  0  0  0  0  0  0  0
  -29.6171  -16.6273   20.3189 N   0  0  0  0  0  0  0  0  0  0  0  0
  -29.5381  -22.8691   19.7660 N   0  0  0  0  0  0  0  0  0  0  0  0
  -22.4358  -31.5225   19.5829 N   0  0  0  0  0  0  0  0  0  0  0  0
  -26.5270  -32.3342   24.6464 N   0  0  0  0  0  0  0  0  0  0  0  0
  -27.5795  -30.0235   27.2195 N   0  3  0  0  0  0  0  0  0  0  0  0
  -22.3826  -14.7599   20.7299 O   0  0  0  0  0  0  0  0  0  0  0  0
  -31.8261  -22.5055   20.0026 O   0  0  0  0  0  0  0  0  0  0  0  0
  -24.7437  -31.3306   19.3397 O   0  0  0  0  0  0  0  0  0  0  0  0
  -24.0691  -32.6333   23.2049 O   0  0  0  0  0  0  0  0  0  0  0  0
  -30.5406  -24.9795   19.7556 O   0  0  0  0  0  0  0  0  0  0  0  0
  -28.1962  -30.7266   24.5658 O   0  0  0  0  0  0  0  0  0  0  0  0
  -31.5128  -15.6409   19.4162 O   0  0  0  0  0  0  0  0  0  0  0  0
  -22.2707   -7.8163   24.2456 O   0  0  0  0  0  0  0  0  0  0  0  0
  -28.1747  -26.2412   19.4441 O   0  0  0  0  0  0  0  0  0  1  0  0
  -23.1472   -2.6563   22.5107 F   0  0  0  0  0  0  0  0  0  0  0  0
  -20.1639   -6.2048   23.4664 F   0  0  0  0  0  0  0  0  0  0  0  0
  1  2  1  0  0  0  0
  1  5  2  0  0  0  0
  2  6  2  0  0  0  0
  3  8  2  0  0  0  0
  3 16  1  0  0  0  0
  4  9  1  0  0  0  0
  4 16  2  0  0  0  0
  5 18  1  0  0  0  0
  6 20  1  0  0  0  0
  7 10  2  0  0  0  0
  7 19  1  0  0  0  0
  8 22  1  0  0  0  0
  9 22  2  0  0  0  0
 10 23  1  0  0  0  0
 11 12  2  0  0  0  0
 11 24  1  0  0  0  0
 12 25  1  0  0  0  0
 13 21  1  0  0  0  0
 13 23  2  0  0  0  0
 14 25  2  0  0  0  0
 14 26  1  0  0  0  0
 15 29  1  0  0  0  0
 15 60  2  0  0  0  0
 16 27  1  0  0  0  0
 17 27  1  0  0  0  0
 17 31  2  0  0  0  0
 17 32  1  0  0  0  0
 18 20  2  0  0  0  0
 18 39  1  0  0  0  0
 19 21  2  0  0  0  0
 19 40  1  0  0  0  0
 20 48  1  0  0  0  0
 21 41  1  0  0  0  0
 22 81  1  0  0  0  0
 23 82  1  0  0  0  0
 24 26  2  0  0  0  0
 24 81  1  0  0  0  0
 25 83  1  0  0  0  0
 26 84  1  0  0  0  0
 27 61  2  0  0  0  0
 28 30  2  0  0  0  0
 28 33  1  0  0  0  0
 28 60  1  0  0  0  0
 29 62  2  0  0  0  0
 29 69  1  0  0  0  0
 30 62  1  0  0  0  0
 30 66  1  0  0  0  0
 31 63  1  0  0  0  0
 31 67  1  0  0  0  0
 32 68  1  0  0  0  0
 32 74  2  0  0  0  0
 33 70  1  0  0  0  0
 33 75  2  0  0  0  0
 34 49  1  0  0  0  0
 34 71  1  0  0  0  0
 34 76  2  0  0  0  0
 35 57  1  0  0  0  0
 35 64  1  0  0  0  0
 35 77  2  0  0  0  0
 36 56  1  0  0  0  0
 36 70  1  0  0  0  0
 36 78  2  0  0  0  0
 37 58  1  0  0  0  0
 37 72  1  0  0  0  0
 37 79  2  0  0  0  0
 38 65  1  0  0  0  0
 38 69  1  0  0  0  0
 38 80  2  0  0  0  0
 39 42  1  0  0  0  0
 40 49  1  0  0  0  0
 41 64  1  0  0  0  0
 42 44  1  0  0  0  0
 43 45  1  0  0  0  0
 43 46  1  0  0  0  0
 44 48  1  0  0  0  0
 45 50  1  0  0  0  0
 46 65  1  0  0  0  0
 47 50  1  0  0  0  0
 47 65  1  0  0  0  0
 48 71  1  0  0  0  0
 49 64  1  0  0  0  0
 50 63  1  0  0  0  0
 51 58  1  0  0  0  0
 52 59  1  0  0  0  0
 53 59  1  0  0  0  0
 54 59  1  0  0  0  0
 55 73  1  0  0  0  0
 56 82  1  0  0  0  0
 57 59  1  0  0  0  0
 57 72  1  0  0  0  0
 58 73  1  0  0  0  0
 61 63  1  0  0  0  0
M  CHG  1  73   1
M  ISO  4  38 100  56 101  69 100  82 101
M  END
> <Batch ID>
0177

> <Smiles>
CNC(C)C(=O)NC(C(=O)N1Cc2cc([101O:1][101CH2:1]C(=O)NC(=O)c3ncc([100NH:0][100C:0](=O)N4CCCC(n5nc(-c6ccc(Oc7ccc(F)cc7F)cc6)c(C(N)=O)c5N)C4)nc3N)ccc2CC1C(=O)NC1CCCc2ccccc21)C(C)(C)C

> <Shape>
0.343

> <Color>
0.203

> <Negative vol penalty>
0.000

$$$$

  -OEChem-04052304413D

 89 97  0     1  0  0  0  0  0999 V2000
  -25.4089  -19.1749   14.7375 C   0  0  0  0  0  0  0  0  0  0  0  0
  -26.4342  -18.7504   15.5765 C   0  0  0  0  0  0  0  0  0  0  0  0
  -23.4210  -29.6713   17.9596 C   0  0  0  0  0  0  0  0  0  0  0  0
  -22.4321  -27.9450   19.3303 C   0  0  0  0  0  0  0  0  0  0  0  0
  -24.0796  -18.9599   15.0992 C   0  0  0  0  0  0  0  0  0  0  0  0
  -26.1307  -18.1115   16.7783 C   0  0  0  0  0  0  0  0  0  0  0  0
  -29.0021  -14.0182   17.5813 C   0  0  0  0  0  0  0  0  0  0  0  0
  -22.1784  -29.9204   17.3768 C   0  0  0  0  0  0  0  0  0  0  0  0
  -21.1895  -28.1941   18.7476 C   0  0  0  0  0  0  0  0  0  0  0  0
  -30.3040  -14.2321   18.0321 C   0  0  0  0  0  0  0  0  0  0  0  0
  -18.7124  -30.4735   19.0456 C   0  0  0  0  0  0  0  0  0  0  0  0
  -17.6065  -30.5566   19.8916 C   0  0  0  0  0  0  0  0  0  0  0  0
  -29.6013  -13.7250   20.2834 C   0  0  0  0  0  0  0  0  0  0  0  0
  -26.7279  -21.2372   21.4902 C   0  0  0  0  0  0  0  0  0  0  0  0
  -27.7254  -19.1163   22.0299 C   0  0  0  0  0  0  0  0  0  0  0  0
  -16.5779  -28.7054   18.7287 C   0  0  0  0  0  0  0  0  0  0  0  0
  -23.5478  -28.6836   18.9363 C   0  0  0  0  0  0  0  0  0  0  0  0
  -25.3676  -29.0322   20.6898 C   0  0  0  0  0  0  0  0  0  0  0  0
  -23.7599  -18.3094   16.3014 C   0  0  0  0  0  0  0  0  0  0  0  0
  -27.9861  -13.6661   18.4814 C   0  0  0  0  0  0  0  0  0  0  0  0
  -24.7959  -17.8888   17.1570 C   0  0  0  0  0  0  0  0  0  0  0  0
  -28.2880  -13.5047   19.8411 C   0  0  0  0  0  0  0  0  0  0  0  0
  -26.6835  -20.0261   22.1717 C   0  0  0  0  0  0  0  0  0  0  0  0
  -21.0627  -29.1818   17.7708 C   0  0  0  0  0  0  0  0  0  0  0  0
  -30.6031  -14.0884   19.3837 C   0  0  0  0  0  0  0  0  0  0  0  0
  -18.7510  -29.5064   18.0411 C   0  0  0  0  0  0  0  0  0  0  0  0
  -16.5392  -29.6725   19.7332 C   0  0  0  0  0  0  0  0  0  0  0  0
  -17.6838  -28.6224   17.8827 C   0  0  0  0  0  0  0  0  0  0  0  0
  -24.8312  -28.4254   19.5383 C   0  0  0  0  0  0  0  0  0  0  0  0
  -27.8276  -21.4887   20.6856 C   0  0  0  0  0  0  0  0  0  0  0  0
  -28.7803  -19.4627   21.2010 C   0  0  0  0  0  0  0  0  0  0  0  0
  -26.6005  -28.4469   20.8437 C   0  0  0  0  0  0  0  0  0  0  0  0
  -24.8018  -30.0352   21.5440 C   0  0  0  0  0  0  0  0  0  0  0  0
  -25.2513  -14.9947   19.4086 C   0  0  0  0  0  0  0  0  0  0  0  0
  -31.1072  -16.5213   21.3698 C   0  0  0  0  0  0  0  0  0  0  0  0
  -24.8898  -12.2001   21.0155 C   0  0  0  0  0  0  0  0  0  0  0  0
  -26.3552   -9.4695   22.4448 C   0  0  0  0  0  0  0  0  0  0  0  0
  -28.8633  -23.1859   19.1387 C   0  0  0  0  0  0  0  0  0  0  0  0
  -22.3076  -18.1417   16.6721 C   0  0  0  0  0  0  0  0  0  0  0  0
  -26.5925  -13.4127   17.9752 C   0  0  0  0  0  0  0  0  0  0  0  0
  -27.2375  -13.1084   20.8451 C   0  0  0  0  0  0  0  0  0  0  0  0
  -22.0769  -17.1228   17.7851 C   0  0  0  0  0  0  0  0  0  0  0  0
  -30.1221  -26.4129   18.3147 C   0  0  0  0  0  0  0  0  0  0  0  0
  -23.0597  -17.3503   18.9293 C   0  0  0  0  0  0  0  0  0  0  0  0
  -28.9591  -27.3511   18.6455 C   0  0  0  0  0  0  0  0  0  0  0  0
  -29.6337  -25.0865   17.7353 C   0  0  0  0  0  0  0  0  0  0  0  0
  -27.4630  -25.3273   18.8753 C   0  0  0  0  0  0  0  0  0  0  0  0
  -24.5074  -17.1700   18.4571 C   0  0  1  0  0  0  0  0  0  0  0  0
  -25.5276  -13.5600   19.0576 C   0  0  1  0  0  0  0  0  0  0  0  0
  -27.9022  -26.6511   19.5221 C   0  0  2  0  0  0  0  0  0  0  0  0
  -25.8040   -7.3767   23.7152 C   0  0  0  0  0  0  0  0  0  0  0  0
  -24.4340  -13.8545   23.5385 C   0  0  0  0  0  0  0  0  0  0  0  0
  -24.8380  -11.7833   24.8857 C   0  0  0  0  0  0  0  0  0  0  0  0
  -22.9172  -11.8808   23.2970 C   0  0  0  0  0  0  0  0  0  0  0  0
  -33.5969  -14.4229   21.4484 C   0  0  0  0  0  0  0  0  0  0  0  0
  -31.8092  -12.6839   21.6182 C   0  0  0  0  0  0  0  0  0  0  0  0
  -27.4930   -7.7449   20.3258 C   0  0  0  0  0  0  0  0  0  0  0  0
  -31.2691  -15.1492   22.0175 C   0  0  0  0  0  0  0  0  0  0  0  0
  -29.8428  -17.2703   21.7399 C   0  0  0  0  0  0  0  0  0  0  0  0
  -25.2695  -11.6993   22.3881 C   0  0  1  0  0  0  0  0  0  0  0  0
  -26.0400   -7.9880   22.3428 C   0  0  2  0  0  0  0  0  0  0  0  0
  -25.5234  -19.7043   23.0511 C   0  0  0  0  0  0  0  0  0  0  0  0
  -24.3843  -12.3139   23.5090 C   0  0  0  0  0  0  0  0  0  0  0  0
  -32.1087  -14.1325   21.2242 C   0  0  0  0  0  0  0  0  0  1  0  0
  -25.6560  -27.5239   18.9988 N   0  0  0  0  0  0  0  0  0  0  0  0
  -28.8586  -20.6296   20.5229 N   0  0  0  0  0  0  0  0  0  0  0  0
  -26.7231  -27.5600   19.8149 N   0  0  0  0  0  0  0  0  0  0  0  0
  -25.8885  -12.8779   20.3021 N   0  0  0  0  0  0  0  0  0  0  0  0
  -28.6381  -24.4791   18.6213 N   0  0  0  0  0  0  0  0  0  0  0  0
  -27.5810  -28.6097   21.7572 N   0  0  0  0  0  0  0  0  0  0  0  0
  -23.5249  -30.5276   21.2416 N   0  0  0  0  0  0  0  0  0  0  0  0
  -27.8638  -22.7255   19.9952 N   0  0  0  0  0  0  0  0  0  0  0  0
  -29.8126  -18.5450   21.0692 N   0  0  0  0  0  0  0  0  0  0  0  0
  -24.8297  -15.7639   18.3409 N   0  0  0  0  0  0  0  0  0  0  0  0
  -25.2206  -10.2429   22.3192 N   0  0  0  0  0  0  0  0  0  0  0  0
  -27.1674   -7.2621   21.6925 N   0  3  0  0  0  0  0  0  0  0  0  0
  -25.4173  -30.4934   22.5363 O   0  0  0  0  0  0  0  0  0  0  0  0
  -25.4075  -15.3752   20.5629 O   0  0  0  0  0  0  0  0  0  0  0  0
  -31.9671  -17.0067   20.6362 O   0  0  0  0  0  0  0  0  0  0  0  0
  -23.7514  -11.9912   20.5891 O   0  0  0  0  0  0  0  0  0  0  0  0
  -27.4935   -9.8976   22.6222 O   0  0  0  0  0  0  0  0  0  0  0  0
  -29.8819  -22.5458   18.8653 O   0  0  0  0  0  0  0  0  0  0  0  0
  -19.8500  -29.4248   17.2025 O   0  0  0  0  0  0  0  0  0  0  0  0
  -31.8729  -14.2972   19.8265 O   0  0  0  0  0  0  0  0  0  1  0  0
  -15.4780  -29.7514   20.5466 F   0  0  0  0  0  0  0  0  0  0  0  0
  -17.7157  -27.6905   16.9202 F   0  0  0  0  0  0  0  0  0  0  0  0
  -24.5780  -20.6896   23.0936 F   0  0  0  0  0  0  0  0  0  0  0  0
  -24.8471  -18.5786   22.6748 F   0  0  0  0  0  0  0  0  0  0  0  0
  -25.8903  -19.4936   24.3491 F   0  0  0  0  0  0  0  0  0  0  0  0
  1  2  1  0  0  0  0
  1  5  2  0  0  0  0
  2  6  2  0  0  0  0
  3  8  2  0  0  0  0
  3 17  1  0  0  0  0
  4  9  1  0  0  0  0
  4 17  2  0  0  0  0
  5 19  1  0  0  0  0
  6 21  1  0  0  0  0
  7 10  2  0  0  0  0
  7 20  1  0  0  0  0
  8 24  1  0  0  0  0
  9 24  2  0  0  0  0
 10 25  1  0  0  0  0
 11 12  2  0  0  0  0
 11 26  1  0  0  0  0
 12 27  1  0  0  0  0
 13 22  1  0  0  0  0
 13 25  2  0  0  0  0
 14 23  1  0  0  0  0
 14 30  2  0  0  0  0
 15 23  2  0  0  0  0
 15 31  1  0  0  0  0
 16 27  2  0  0  0  0
 16 28  1  0  0  0  0
 17 29  1  0  0  0  0
 18 29  1  0  0  0  0
 18 32  2  0  0  0  0
 18 33  1  0  0  0  0
 19 21  2  0  0  0  0
 19 39  1  0  0  0  0
 20 22  2  0  0  0  0
 20 40  1  0  0  0  0
 21 48  1  0  0  0  0
 22 41  1  0  0  0  0
 23 62  1  0  0  0  0
 24 83  1  0  0  0  0
 25 84  1  0  0  0  0
 26 28  2  0  0  0  0
 26 83  1  0  0  0  0
 27 85  1  0  0  0  0
 28 86  1  0  0  0  0
 29 65  2  0  0  0  0
 30 66  1  0  0  0  0
 30 72  1  0  0  0  0
 31 66  2  0  0  0  0
 31 73  1  0  0  0  0
 32 67  1  0  0  0  0
 32 70  1  0  0  0  0
 33 71  1  0  0  0  0
 33 77  2  0  0  0  0
 34 49  1  0  0  0  0
 34 74  1  0  0  0  0
 34 78  2  0  0  0  0
 35 58  1  0  0  0  0
 35 59  1  0  0  0  0
 35 79  2  0  0  0  0
 36 60  1  0  0  0  0
 36 68  1  0  0  0  0
 36 80  2  0  0  0  0
 37 61  1  0  0  0  0
 37 75  1  0  0  0  0
 37 81  2  0  0  0  0
 38 69  1  0  0  0  0
 38 72  1  0  0  0  0
 38 82  2  0  0  0  0
 39 42  1  0  0  0  0
 40 49  1  0  0  0  0
 41 68  1  0  0  0  0
 42 44  1  0  0  0  0
 43 45  1  0  0  0  0
 43 46  1  0  0  0  0
 44 48  1  0  0  0  0
 45 50  1  0  0  0  0
 46 69  1  0  0  0  0
 47 50  1  0  0  0  0
 47 69  1  0  0  0  0
 48 74  1  0  0  0  0
 49 68  1  0  0  0  0
 50 67  1  0  0  0  0
 51 61  1  0  0  0  0
 52 63  1  0  0  0  0
 53 63  1  0  0  0  0
 54 63  1  0  0  0  0
 55 64  1  0  0  0  0
 56 64  1  0  0  0  0
 57 76  1  0  0  0  0
 58 64  1  0  0  0  0
 59 73  1  0  0  0  0
 60 63  1  0  0  0  0
 60 75  1  0  0  0  0
 61 76  1  0  0  0  0
 62 87  1  0  0  0  0
 62 88  1  0  0  0  0
 62 89  1  0  0  0  0
 64 84  1  0  0  0  0
 65 67  1  0  0  0  0
M  CHG  1  76   1
M  ISO  4  38 100  64 101  72 100  84 101
M  END
> <Batch ID>
0177

> <Smiles>
CNC(C)C(=O)NC(C(=O)N1Cc2cc([101O:1][101C:1](C)(C)CC(=O)CNc3cc(C(F)(F)F)cc([100NH:0][100C:0](=O)N4CCCC(n5nc(-c6ccc(Oc7ccc(F)cc7F)cc6)c(C(N)=O)c5N)C4)n3)ccc2CC1C(=O)NC1CCCc2ccccc21)C(C)(C)C

> <Shape>
0.226

> <Color>
0.071

> <Negative vol penalty>
0.000

$$$$

  -OEChem-04052304413D

 85 93  0     1  0  0  0  0  0999 V2000
  -29.9310  -29.5567   26.4618 C   0  0  0  0  0  0  0  0  0  0  0  0
  -29.4579  -28.8127   25.3857 C   0  0  0  0  0  0  0  0  0  0  0  0
  -24.7370   -8.2722   21.4808 C   0  0  0  0  0  0  0  0  0  0  0  0
  -23.1305   -9.8762   20.6543 C   0  0  0  0  0  0  0  0  0  0  0  0
  -29.0411  -30.2888   27.2467 C   0  0  0  0  0  0  0  0  0  0  0  0
  -28.0942  -28.7994   25.0946 C   0  0  0  0  0  0  0  0  0  0  0  0
  -27.1582  -29.3502   20.1483 C   0  0  0  0  0  0  0  0  0  0  0  0
  -23.7821   -7.7718   22.3659 C   0  0  0  0  0  0  0  0  0  0  0  0
  -22.1755   -9.3757   21.5393 C   0  0  0  0  0  0  0  0  0  0  0  0
  -27.3347  -28.2294   19.3382 C   0  0  0  0  0  0  0  0  0  0  0  0
  -21.1096   -5.7044   22.2391 C   0  0  0  0  0  0  0  0  0  0  0  0
  -20.9844   -4.3190   22.3422 C   0  0  0  0  0  0  0  0  0  0  0  0
  -24.9542  -27.8403   19.3682 C   0  0  0  0  0  0  0  0  0  0  0  0
  -29.4223  -18.5273   18.0988 C   0  0  0  0  0  0  0  0  0  0  0  0
  -27.8174  -20.0679   19.7821 C   0  0  0  0  0  0  0  0  0  0  0  0
  -21.5320   -4.4446   24.6920 C   0  0  0  0  0  0  0  0  0  0  0  0
  -24.4112   -9.3245   20.6251 C   0  0  0  0  0  0  0  0  0  0  0  0
  -25.6447   -9.4115   18.3938 C   0  0  0  0  0  0  0  0  0  0  0  0
  -27.6671  -30.2921   26.9592 C   0  0  0  0  0  0  0  0  0  0  0  0
  -25.8774  -29.7189   20.5841 C   0  0  0  0  0  0  0  0  0  0  0  0
  -27.1849  -29.5311   25.8772 C   0  0  0  0  0  0  0  0  0  0  0  0
  -24.7638  -28.9678   20.1816 C   0  0  0  0  0  0  0  0  0  0  0  0
  -29.0262  -18.0238   19.3377 C   0  0  0  0  0  0  0  0  0  0  0  0
  -28.2135  -20.5715   18.5431 C   0  0  0  0  0  0  0  0  0  0  0  0
  -22.5014   -8.3235   22.3951 C   0  0  0  0  0  0  0  0  0  0  0  0
  -26.2330  -27.4726   18.9504 C   0  0  0  0  0  0  0  0  0  0  0  0
  -21.4461   -6.4599   23.3623 C   0  0  0  0  0  0  0  0  0  0  0  0
  -21.1956   -3.6891   23.5687 C   0  0  0  0  0  0  0  0  0  0  0  0
  -29.0160  -19.8013   17.7014 C   0  0  0  0  0  0  0  0  0  0  0  0
  -28.2237  -18.7940   20.1794 C   0  0  0  0  0  0  0  0  0  0  0  0
  -21.6573   -5.8300   24.5888 C   0  0  0  0  0  0  0  0  0  0  0  0
  -25.3974   -9.8423   19.7110 C   0  0  0  0  0  0  0  0  0  0  0  0
  -26.6698  -10.2144   17.9568 C   0  0  0  0  0  0  0  0  0  0  0  0
  -26.6102  -25.1714   18.7681 C   0  0  0  0  0  0  0  0  0  1  0  0
  -25.0049   -8.3781   17.6332 C   0  0  0  0  0  0  0  0  0  0  0  0
  -26.7888  -24.0315   18.0897 C   0  0  0  0  0  0  0  0  0  0  0  0
  -27.0085  -22.7586   18.8511 C   0  0  0  0  0  0  0  0  0  0  0  0
  -24.4663  -29.9978   23.4187 C   0  0  0  0  0  0  0  0  0  0  0  0
  -28.3415  -15.6581   19.6439 C   0  0  0  0  0  0  0  0  0  0  0  0
  -22.0262  -31.1985   21.6505 C   0  0  0  0  0  0  0  0  0  0  0  0
  -20.4573  -31.3823   18.6253 C   0  0  0  0  0  0  0  0  0  0  0  0
  -26.7379  -31.0611   27.8647 C   0  0  0  0  0  0  0  0  0  0  0  0
  -25.7009  -30.9461   21.4357 C   0  0  0  0  0  0  0  0  0  0  0  0
  -23.3656  -29.3330   20.6057 C   0  0  0  0  0  0  0  0  0  0  0  0
  -25.3545  -31.2934   27.2625 C   0  0  0  0  0  0  0  0  0  0  0  0
  -30.4370  -12.6873   19.5434 C   0  0  0  0  0  0  0  0  0  0  0  0
  -24.8142  -30.0036   26.6531 C   0  0  0  0  0  0  0  0  0  0  0  0
  -29.3895  -11.5763   19.4829 C   0  0  0  0  0  0  0  0  0  0  0  0
  -29.9659  -13.8567   20.4040 C   0  0  0  0  0  0  0  0  0  0  0  0
  -27.6002  -13.3140   19.9210 C   0  0  0  0  0  0  0  0  0  0  0  0
  -25.7158  -29.5113   25.5146 C   0  0  1  0  0  0  0  0  0  0  0  0
  -24.4067  -30.9320   22.2434 C   0  0  1  0  0  0  0  0  0  0  0  0
  -28.0242  -12.1288   19.0376 C   0  0  2  0  0  0  0  0  0  0  0  0
  -18.4651  -32.4115   17.4988 C   0  0  0  0  0  0  0  0  0  0  0  0
  -20.2107  -29.1439   22.9894 C   0  0  0  0  0  0  0  0  0  0  0  0
  -18.5233  -29.5643   21.1882 C   0  0  0  0  0  0  0  0  0  0  0  0
  -19.1965  -31.4140   22.7205 C   0  0  0  0  0  0  0  0  0  0  0  0
  -22.1607  -32.8828   16.7265 C   0  0  0  0  0  0  0  0  0  0  0  0
  -29.4617  -16.6609   19.7592 C   0  0  0  0  0  0  0  0  0  0  0  0
  -20.8204  -30.6133   20.9558 C   0  0  1  0  0  0  0  0  0  0  0  0
  -19.9416  -32.5669   17.8284 C   0  0  2  0  0  0  0  0  0  0  0  0
  -19.7142  -30.1756   21.9569 C   0  0  0  0  0  0  0  0  0  0  0  0
  -26.2008  -10.8411   20.0863 N   0  0  0  0  0  0  0  0  0  0  0  0
  -26.9631  -11.0446   18.9984 N   0  0  0  0  0  0  0  0  0  0  0  0
  -23.2454  -30.5379   21.4432 N   0  0  0  0  0  0  0  0  0  0  0  0
  -28.6499  -14.3360   19.9651 N   0  0  0  0  0  0  0  0  0  0  0  0
  -27.3401  -10.2840   16.7870 N   0  0  0  0  0  0  0  0  0  0  0  0
  -23.9695   -7.6497   18.2345 N   0  0  0  0  0  0  0  0  0  0  0  0
  -27.7994  -21.8647   18.1424 N   0  0  0  0  0  0  0  0  0  0  0  0
  -25.4801  -30.2831   24.3133 N   0  0  0  0  0  0  0  0  0  0  0  0
  -20.3858  -31.6102   19.9833 N   0  0  0  0  0  0  0  0  0  0  0  0
  -20.6969  -32.7000   16.5507 N   0  3  0  0  0  0  0  0  0  0  0  0
  -25.3525   -8.0977   16.4611 O   0  0  0  0  0  0  0  0  0  0  0  0
  -26.5169  -22.5966   19.9628 O   0  0  0  0  0  0  0  0  0  0  0  0
  -23.6518  -29.0866   23.5082 O   0  0  0  0  0  0  0  0  0  0  0  0
  -27.2273  -16.0399   19.2766 O   0  0  0  0  0  0  0  0  0  0  0  0
  -21.8926  -32.2088   22.3455 O   0  0  0  0  0  0  0  0  0  0  0  0
  -20.8779  -30.3558   18.0961 O   0  0  0  0  0  0  0  0  0  0  0  0
  -26.7776  -23.9790   16.7107 O   0  0  0  0  0  0  0  0  0  0  0  0
  -21.5692   -7.8353   23.2584 O   0  0  0  0  0  0  0  0  0  0  0  0
  -26.4025  -26.3777   18.1602 O   0  0  0  0  0  0  0  0  0  1  0  0
  -21.0738   -2.3589   23.6680 F   0  0  0  0  0  0  0  0  0  0  0  0
  -29.4028  -20.2753   16.5084 F   0  0  0  0  0  0  0  0  0  0  0  0
  -27.8382  -18.3186   21.3717 F   0  0  0  0  0  0  0  0  0  0  0  0
  -21.9796   -6.5506   25.6717 F   0  0  0  0  0  0  0  0  0  0  0  0
  1  2  1  0  0  0  0
  1  5  2  0  0  0  0
  2  6  2  0  0  0  0
  3  8  2  0  0  0  0
  3 17  1  0  0  0  0
  4  9  1  0  0  0  0
  4 17  2  0  0  0  0
  5 19  1  0  0  0  0
  6 21  1  0  0  0  0
  7 10  2  0  0  0  0
  7 20  1  0  0  0  0
  8 25  1  0  0  0  0
  9 25  2  0  0  0  0
 10 26  1  0  0  0  0
 11 12  2  0  0  0  0
 11 27  1  0  0  0  0
 12 28  1  0  0  0  0
 13 22  1  0  0  0  0
 13 26  2  0  0  0  0
 14 23  2  0  0  0  0
 14 29  1  0  0  0  0
 15 24  1  0  0  0  0
 15 30  2  0  0  0  0
 16 28  2  0  0  0  0
 16 31  1  0  0  0  0
 17 32  1  0  0  0  0
 18 32  1  0  0  0  0
 18 33  2  0  0  0  0
 18 35  1  0  0  0  0
 19 21  2  0  0  0  0
 19 42  1  0  0  0  0
 20 22  2  0  0  0  0
 20 43  1  0  0  0  0
 21 51  1  0  0  0  0
 22 44  1  0  0  0  0
 23 30  1  0  0  0  0
 23 59  1  0  0  0  0
 24 29  2  0  0  0  0
 24 69  1  0  0  0  0
 25 80  1  0  0  0  0
 26 81  1  0  0  0  0
 27 31  2  0  0  0  0
 27 80  1  0  0  0  0
 28 82  1  0  0  0  0
 29 83  1  0  0  0  0
 30 84  1  0  0  0  0
 31 85  1  0  0  0  0
 32 63  2  0  0  0  0
 33 64  1  0  0  0  0
 33 67  1  0  0  0  0
 34 36  2  0  0  0  0
 34 81  1  0  0  0  0
 35 68  1  0  0  0  0
 35 73  2  0  0  0  0
 36 37  1  0  0  0  0
 36 79  1  0  0  0  0
 37 69  1  0  0  0  0
 37 74  2  0  0  0  0
 38 52  1  0  0  0  0
 38 70  1  0  0  0  0
 38 75  2  0  0  0  0
 39 59  1  0  0  0  0
 39 66  1  0  0  0  0
 39 76  2  0  0  0  0
 40 60  1  0  0  0  0
 40 65  1  0  0  0  0
 40 77  2  0  0  0  0
 41 61  1  0  0  0  0
 41 71  1  0  0  0  0
 41 78  2  0  0  0  0
 42 45  1  0  0  0  0
 43 52  1  0  0  0  0
 44 65  1  0  0  0  0
 45 47  1  0  0  0  0
 46 48  1  0  0  0  0
 46 49  1  0  0  0  0
 47 51  1  0  0  0  0
 48 53  1  0  0  0  0
 49 66  1  0  0  0  0
 50 53  1  0  0  0  0
 50 66  1  0  0  0  0
 51 70  1  0  0  0  0
 52 65  1  0  0  0  0
 53 64  1  0  0  0  0
 54 61  1  0  0  0  0
 55 62  1  0  0  0  0
 56 62  1  0  0  0  0
 57 62  1  0  0  0  0
 58 72  1  0  0  0  0
 60 62  1  0  0  0  0
 60 71  1  0  0  0  0
 61 72  1  0  0  0  0
 63 64  1  0  0  0  0
M  CHG  1  72   1
M  ISO  4  34 101  39 100  59 100  81 101
M  END
> <Batch ID>
0177

> <Smiles>
CNC(C)C(=O)NC(C(=O)N1Cc2cc([101O:1][101CH2:1]C(=O)C(=O)Nc3cc(F)c([100CH2:0][100C:0](=O)N4CCCC(n5nc(-c6ccc(Oc7ccc(F)cc7F)cc6)c(C(N)=O)c5N)C4)cc3F)ccc2CC1C(=O)NC1CCCc2ccccc21)C(C)(C)C

> <Shape>
0.282

> <Color>
0.109

> <Negative vol penalty>
0.000

$$$$

  -OEChem-04052304413D

 84 92  0     1  0  0  0  0  0999 V2000
  -23.0424  -33.3564   28.4941 C   0  0  0  0  0  0  0  0  0  0  0  0
  -23.8032  -32.2812   28.0464 C   0  0  0  0  0  0  0  0  0  0  0  0
  -23.1549   -9.7049   20.1543 C   0  0  0  0  0  0  0  0  0  0  0  0
  -23.8259  -10.0075   22.4554 C   0  0  0  0  0  0  0  0  0  0  0  0
  -21.9190  -33.7616   27.7745 C   0  0  0  0  0  0  0  0  0  0  0  0
  -23.4405  -31.6099   26.8793 C   0  0  0  0  0  0  0  0  0  0  0  0
  -27.2068  -29.0912   22.7590 C   0  0  0  0  0  0  0  0  0  0  0  0
  -22.4319   -8.5678   20.5146 C   0  0  0  0  0  0  0  0  0  0  0  0
  -23.1029   -8.8704   22.8158 C   0  0  0  0  0  0  0  0  0  0  0  0
  -27.6363  -27.7800   22.5589 C   0  0  0  0  0  0  0  0  0  0  0  0
  -19.8756   -8.0530   23.3963 C   0  0  0  0  0  0  0  0  0  0  0  0
  -19.0756   -8.1298   24.5364 C   0  0  0  0  0  0  0  0  0  0  0  0
  -25.9118  -27.4746   20.9000 C   0  0  0  0  0  0  0  0  0  0  0  0
  -20.3374   -6.3320   25.5429 C   0  0  0  0  0  0  0  0  0  0  0  0
  -23.8519  -10.4248   21.1247 C   0  0  0  0  0  0  0  0  0  0  0  0
  -24.1330  -12.9269   20.7146 C   0  0  0  0  0  0  0  0  0  0  0  0
  -21.5479  -33.1010   26.5928 C   0  0  0  0  0  0  0  0  0  0  0  0
  -26.1178  -29.6013   22.0377 C   0  0  0  0  0  0  0  0  0  0  0  0
  -22.3103  -32.0058   26.1439 C   0  0  0  0  0  0  0  0  0  0  0  0
  -25.4720  -28.7934   21.0909 C   0  0  0  0  0  0  0  0  0  0  0  0
  -22.4059   -8.1505   21.8453 C   0  0  0  0  0  0  0  0  0  0  0  0
  -26.9869  -26.9705   21.6314 C   0  0  0  0  0  0  0  0  0  0  0  0
  -20.9064   -7.1156   23.3295 C   0  0  0  0  0  0  0  0  0  0  0  0
  -19.3065   -7.2693   25.6097 C   0  0  0  0  0  0  0  0  0  0  0  0
  -21.1373   -6.2551   24.4028 C   0  0  0  0  0  0  0  0  0  0  0  0
  -24.5994  -11.5992   20.7530 C   0  0  0  0  0  0  0  0  0  0  0  0
  -30.4273  -19.4537   22.3448 C   0  0  0  0  0  0  0  0  0  0  0  0
  -31.5655  -19.0337   21.6888 C   0  0  0  0  0  0  0  0  0  0  0  0
  -25.2186  -13.6604   20.3025 C   0  0  0  0  0  0  0  0  0  0  0  0
  -30.3870  -17.1922   21.5161 C   0  0  0  0  0  0  0  0  0  0  0  0
  -22.8345  -13.4503   21.0240 C   0  0  0  0  0  0  0  0  0  0  0  0
  -30.2052  -20.7858   22.9420 C   0  0  0  0  0  0  0  0  0  0  0  0
  -23.2448  -30.7225   22.8073 C   0  0  0  0  0  0  0  0  0  0  0  0
  -28.8702  -23.8100   21.8644 C   0  0  0  0  0  0  0  0  0  0  0  0
  -23.0987  -31.4199   19.6427 C   0  0  0  0  0  0  0  0  0  0  0  0
  -24.1892  -30.7593   16.4771 C   0  0  0  0  0  0  0  0  0  0  0  0
  -30.6454  -14.8835   20.5416 C   0  0  0  0  0  0  0  0  0  0  0  0
  -20.2983  -33.5453   25.8746 C   0  0  0  0  0  0  0  0  0  0  0  0
  -25.6837  -31.0263   22.2458 C   0  0  0  0  0  0  0  0  0  0  0  0
  -24.3108  -29.2998   20.2763 C   0  0  0  0  0  0  0  0  0  0  0  0
  -20.1969  -33.0178   24.4457 C   0  0  0  0  0  0  0  0  0  0  0  0
  -29.6850  -12.1728   18.4424 C   0  0  0  0  0  0  0  0  0  0  0  0
  -20.5263  -31.5290   24.4016 C   0  0  0  0  0  0  0  0  0  0  0  0
  -28.2379  -11.8912   18.8532 C   0  0  0  0  0  0  0  0  0  0  0  0
  -30.5472  -12.5703   19.6392 C   0  0  0  0  0  0  0  0  0  0  0  0
  -28.5707  -13.3961   20.8561 C   0  0  0  0  0  0  0  0  0  0  0  0
  -21.9632  -31.2679   24.8691 C   0  0  1  0  0  0  0  0  0  0  0  0
  -24.2386  -31.2780   21.8268 C   0  0  1  0  0  0  0  0  0  0  0  0
  -27.6485  -13.0548   19.6742 C   0  0  2  0  0  0  0  0  0  0  0  0
  -23.8596  -31.4671   14.0922 C   0  0  0  0  0  0  0  0  0  0  0  0
  -20.4629  -29.8853   19.5540 C   0  0  0  0  0  0  0  0  0  0  0  0
  -20.6723  -29.8080   17.0603 C   0  0  0  0  0  0  0  0  0  0  0  0
  -20.4813  -32.0048   18.2266 C   0  0  0  0  0  0  0  0  0  0  0  0
  -27.0134  -31.6045   16.2161 C   0  0  0  0  0  0  0  0  0  0  0  0
  -30.0395  -23.2276   22.6142 C   0  0  0  0  0  0  0  0  0  0  0  0
  -28.5125  -25.2412   22.2127 C   0  0  0  0  0  0  0  0  0  1  0  0
  -22.6323  -30.6885   18.4072 C   0  0  1  0  0  0  0  0  0  0  0  0
  -24.6664  -31.6751   15.3645 C   0  0  2  0  0  0  0  0  0  0  0  0
  -21.0828  -30.5862   18.3286 C   0  0  0  0  0  0  0  0  0  0  0  0
  -25.8814  -11.4924   20.3937 N   0  0  0  0  0  0  0  0  0  0  0  0
  -31.5443  -17.7371   21.2133 N   0  0  0  0  0  0  0  0  0  0  0  0
  -26.2298  -12.7624   20.1256 N   0  0  0  0  0  0  0  0  0  0  0  0
  -23.9196  -30.6980   20.5206 N   0  0  0  0  0  0  0  0  0  0  0  0
  -29.9287  -13.6808   20.3665 N   0  0  0  0  0  0  0  0  0  0  0  0
  -32.6608  -19.8087   21.4988 N   0  0  0  0  0  0  0  0  0  0  0  0
  -25.3973  -14.9795   20.0777 N   0  0  0  0  0  0  0  0  0  0  0  0
  -21.8342  -12.5576   21.4323 N   0  0  0  0  0  0  0  0  0  0  0  0
  -29.9436  -15.8794   21.2201 N   0  0  0  0  0  0  0  0  0  0  0  0
  -30.2585  -21.8691   22.1469 N   0  0  0  0  0  0  0  0  0  0  0  0
  -22.9040  -31.5985   23.8203 N   0  0  0  0  0  0  0  0  0  0  0  0
  -23.2443  -31.3719   17.2729 N   0  0  0  0  0  0  0  0  0  0  0  0
  -29.9627  -20.8550   24.2511 N   0  3  0  0  0  0  0  0  0  0  0  0
  -26.1015  -31.4145   15.0588 N   0  3  0  0  0  0  0  0  0  0  0  0
  -22.5646  -14.6713   20.9250 O   0  0  0  0  0  0  0  0  0  0  0  0
  -22.8176  -29.5841   22.6553 O   0  0  0  0  0  0  0  0  0  0  0  0
  -28.2405  -23.1716   21.0221 O   0  0  0  0  0  0  0  0  0  0  0  0
  -22.7534  -32.5910   19.8187 O   0  0  0  0  0  0  0  0  0  0  0  0
  -24.6096  -29.6137   16.6233 O   0  0  0  0  0  0  0  0  0  0  0  0
  -31.7868  -15.0294   20.0969 O   0  0  0  0  0  0  0  0  0  0  0  0
  -21.7003   -7.0411   22.1973 O   0  0  0  0  0  0  0  0  0  0  0  0
  -27.4037  -25.6901   21.4347 O   0  0  0  0  0  0  0  0  0  1  0  0
  -18.5392   -7.3442   26.7050 F   0  0  0  0  0  0  0  0  0  0  0  0
  -22.1269   -5.3534   24.3449 F   0  0  0  0  0  0  0  0  0  0  0  0
  -29.2766  -18.1823   22.3716 S   0  0  0  0  0  0  0  0  0  0  0  0
  1  2  1  0  0  0  0
  1  5  2  0  0  0  0
  2  6  2  0  0  0  0
  3  8  2  0  0  0  0
  3 15  1  0  0  0  0
  4  9  1  0  0  0  0
  4 15  2  0  0  0  0
  5 17  1  0  0  0  0
  6 19  1  0  0  0  0
  7 10  2  0  0  0  0
  7 18  1  0  0  0  0
  8 21  1  0  0  0  0
  9 21  2  0  0  0  0
 10 22  1  0  0  0  0
 11 12  2  0  0  0  0
 11 23  1  0  0  0  0
 12 24  1  0  0  0  0
 13 20  1  0  0  0  0
 13 22  2  0  0  0  0
 14 24  2  0  0  0  0
 14 25  1  0  0  0  0
 15 26  1  0  0  0  0
 16 26  1  0  0  0  0
 16 29  2  0  0  0  0
 16 31  1  0  0  0  0
 17 19  2  0  0  0  0
 17 38  1  0  0  0  0
 18 20  2  0  0  0  0
 18 39  1  0  0  0  0
 19 47  1  0  0  0  0
 20 40  1  0  0  0  0
 21 80  1  0  0  0  0
 22 81  1  0  0  0  0
 23 25  2  0  0  0  0
 23 80  1  0  0  0  0
 24 82  1  0  0  0  0
 25 83  1  0  0  0  0
 26 60  2  0  0  0  0
 27 28  2  0  0  0  0
 27 32  1  0  0  0  0
 27 84  1  0  0  0  0
 28 61  1  0  0  0  0
 28 65  1  0  0  0  0
 29 62  1  0  0  0  0
 29 66  1  0  0  0  0
 30 61  2  0  0  0  0
 30 68  1  0  0  0  0
 30 84  1  0  0  0  0
 31 67  1  0  0  0  0
 31 74  2  0  0  0  0
 32 69  1  0  0  0  0
 32 72  2  0  0  0  0
 33 48  1  0  0  0  0
 33 70  1  0  0  0  0
 33 75  2  0  0  0  0
 34 55  1  0  0  0  0
 34 56  1  0  0  0  0
 34 76  2  0  0  0  0
 35 57  1  0  0  0  0
 35 63  1  0  0  0  0
 35 77  2  0  0  0  0
 36 58  1  0  0  0  0
 36 71  1  0  0  0  0
 36 78  2  0  0  0  0
 37 64  1  0  0  0  0
 37 68  1  0  0  0  0
 37 79  2  0  0  0  0
 38 41  1  0  0  0  0
 39 48  1  0  0  0  0
 40 63  1  0  0  0  0
 41 43  1  0  0  0  0
 42 44  1  0  0  0  0
 42 45  1  0  0  0  0
 43 47  1  0  0  0  0
 44 49  1  0  0  0  0
 45 64  1  0  0  0  0
 46 49  1  0  0  0  0
 46 64  1  0  0  0  0
 47 70  1  0  0  0  0
 48 63  1  0  0  0  0
 49 62  1  0  0  0  0
 50 58  1  0  0  0  0
 51 59  1  0  0  0  0
 52 59  1  0  0  0  0
 53 59  1  0  0  0  0
 54 73  1  0  0  0  0
 55 69  1  0  0  0  0
 56 81  1  0  0  0  0
 57 59  1  0  0  0  0
 57 71  1  0  0  0  0
 58 73  1  0  0  0  0
 60 62  1  0  0  0  0
M  CHG  2  72   1  73   1
M  ISO  4  37 100  56 101  68 100  81 101
M  END
> <Batch ID>
0177

> <Smiles>
CNC(C)C(=O)NC(C(=O)N1Cc2cc([101O:1][101CH2:1]C(=O)CNC(=N)c3sc([100NH:0][100C:0](=O)N4CCCC(n5nc(-c6ccc(Oc7ccc(F)cc7F)cc6)c(C(N)=O)c5N)C4)nc3N)ccc2CC1C(=O)NC1CCCc2ccccc21)C(C)(C)C

> <Shape>
0.263

> <Color>
0.189

> <Negative vol penalty>
0.000

$$$$

  -OEChem-04052304413D

 84 92  0     1  0  0  0  0  0999 V2000
  -17.0418  -30.3548   24.1269 C   0  0  0  0  0  0  0  0  0  0  0  0
  -18.3003  -30.6920   24.6146 C   0  0  0  0  0  0  0  0  0  0  0  0
  -26.2950  -15.3572   19.8132 C   0  0  0  0  0  0  0  0  0  0  0  0
  -25.3308  -15.1359   22.0174 C   0  0  0  0  0  0  0  0  0  0  0  0
  -16.9001  -29.2795   23.2508 C   0  0  0  0  0  0  0  0  0  0  0  0
  -19.4178  -29.9534   24.2273 C   0  0  0  0  0  0  0  0  0  0  0  0
  -25.0955  -32.0651   23.3272 C   0  0  0  0  0  0  0  0  0  0  0  0
  -26.3182  -13.9686   19.6839 C   0  0  0  0  0  0  0  0  0  0  0  0
  -25.3539  -13.7473   21.8881 C   0  0  0  0  0  0  0  0  0  0  0  0
  -26.2337  -32.0681   24.1323 C   0  0  0  0  0  0  0  0  0  0  0  0
  -23.5178  -11.3590   20.3566 C   0  0  0  0  0  0  0  0  0  0  0  0
  -22.3782  -10.6545   20.7445 C   0  0  0  0  0  0  0  0  0  0  0  0
  -27.0034  -30.0590   23.0413 C   0  0  0  0  0  0  0  0  0  0  0  0
  -23.6818   -9.4473   22.3817 C   0  0  0  0  0  0  0  0  0  0  0  0
  -25.8013  -15.9409   20.9800 C   0  0  0  0  0  0  0  0  0  0  0  0
  -24.7351  -18.2466   20.7460 C   0  0  0  0  0  0  0  0  0  0  0  0
  -18.0177  -28.5332   22.8451 C   0  0  0  0  0  0  0  0  0  0  0  0
  -24.8970  -31.0512   22.3791 C   0  0  0  0  0  0  0  0  0  0  0  0
  -19.2907  -28.8662   23.3461 C   0  0  0  0  0  0  0  0  0  0  0  0
  -25.8630  -30.0468   22.2237 C   0  0  0  0  0  0  0  0  0  0  0  0
  -25.8476  -13.1636   20.7213 C   0  0  0  0  0  0  0  0  0  0  0  0
  -27.1865  -31.0634   23.9914 C   0  0  0  0  0  0  0  0  0  0  0  0
  -24.7395  -11.1077   20.9811 C   0  0  0  0  0  0  0  0  0  0  0  0
  -22.4602   -9.6986   21.7571 C   0  0  0  0  0  0  0  0  0  0  0  0
  -24.8215  -10.1519   21.9937 C   0  0  0  0  0  0  0  0  0  0  0  0
  -25.7777  -17.3753   21.1144 C   0  0  0  0  0  0  0  0  0  0  0  0
  -25.2948  -26.3918   25.9249 C   0  0  0  0  0  0  0  0  0  0  0  0
  -25.1995  -19.4964   21.0756 C   0  0  0  0  0  0  0  0  0  0  0  0
  -23.9988  -25.9716   25.7104 C   0  0  0  0  0  0  0  0  0  0  0  0
  -25.7238  -24.3964   25.1220 C   0  0  0  0  0  0  0  0  0  0  0  0
  -23.4608  -17.9524   20.1585 C   0  0  0  0  0  0  0  0  0  0  0  0
  -25.6536  -27.7217   26.4813 C   0  0  0  0  0  0  0  0  0  0  0  0
  -22.7054  -28.7919   21.9362 C   0  0  0  0  0  0  0  0  0  0  0  0
  -24.3492  -28.2825   19.1866 C   0  0  0  0  0  0  0  0  0  0  0  0
  -27.2883  -28.5599   17.4744 C   0  0  0  0  0  0  0  0  0  0  0  0
  -27.7384  -22.9750   24.6051 C   0  0  0  0  0  0  0  0  0  0  0  0
  -17.8086  -27.3500   21.9335 C   0  0  0  0  0  0  0  0  0  0  0  0
  -23.6768  -31.0771   21.4999 C   0  0  0  0  0  0  0  0  0  0  0  0
  -25.7070  -28.9470   21.2065 C   0  0  0  0  0  0  0  0  0  0  0  0
  -19.0939  -26.8512   21.2782 C   0  0  0  0  0  0  0  0  0  0  0  0
  -29.8180  -21.0340   22.4639 C   0  0  0  0  0  0  0  0  0  0  0  0
  -20.2106  -26.7382   22.3112 C   0  0  0  0  0  0  0  0  0  0  0  0
  -28.8665  -19.9808   21.8916 C   0  0  0  0  0  0  0  0  0  0  0  0
  -29.4961  -21.3567   23.9219 C   0  0  0  0  0  0  0  0  0  0  0  0
  -27.1486  -20.6782   23.6090 C   0  0  0  0  0  0  0  0  0  0  0  0
  -20.5303  -28.1044   22.9298 C   0  0  1  0  0  0  0  0  0  0  0  0
  -23.3278  -29.7091   20.9218 C   0  0  1  0  0  0  0  0  0  0  0  0
  -27.3926  -20.3677   22.1231 C   0  0  2  0  0  0  0  0  0  0  0  0
  -28.3361  -28.0199   15.2590 C   0  0  0  0  0  0  0  0  0  0  0  0
  -30.2817  -29.7434   24.5102 C   0  0  0  0  0  0  0  0  0  0  0  0
  -24.5661  -25.3514   20.0063 C   0  0  0  0  0  0  0  0  0  0  0  0
  -26.3791  -25.0809   18.3011 C   0  0  0  0  0  0  0  0  0  0  0  0
  -24.0786  -25.7233   17.5817 C   0  0  0  0  0  0  0  0  0  0  0  0
  -27.8241  -31.4136   16.9012 C   0  0  0  0  0  0  0  0  0  0  0  0
  -28.8828  -29.5794   26.6068 C   0  0  0  0  0  0  0  0  0  0  0  0
  -27.5155  -29.2070   27.1767 C   0  0  0  0  0  0  0  0  0  0  0  0
  -25.5192  -27.4170   18.7851 C   0  0  1  0  0  0  0  0  0  0  0  0
  -27.5960  -29.0668   16.0770 C   0  0  2  0  0  0  0  0  0  0  0  0
  -28.8733  -29.7955   25.0881 C   0  0  1  0  0  0  0  0  0  1  0  0
  -25.1380  -25.9126   18.6892 C   0  0  0  0  0  0  0  0  0  0  0  0
  -26.8255  -18.0173   21.6378 N   0  0  0  0  0  0  0  0  0  0  0  0
  -26.2852  -25.4897   25.5885 N   0  0  0  0  0  0  0  0  0  0  0  0
  -26.4437  -19.3053   21.6006 N   0  0  0  0  0  0  0  0  0  0  0  0
  -24.4939  -29.0124   20.3749 N   0  0  0  0  0  0  0  0  0  0  0  0
  -28.0841  -21.7186   24.0641 N   0  0  0  0  0  0  0  0  0  0  0  0
  -24.6610  -20.7293   20.9645 N   0  0  0  0  0  0  0  0  0  0  0  0
  -23.1440  -16.6148   19.8848 N   0  0  0  0  0  0  0  0  0  0  0  0
  -26.3669  -23.2210   24.6612 N   0  0  0  0  0  0  0  0  0  0  0  0
  -27.0122  -27.9772   26.6303 N   0  0  0  0  0  0  0  0  0  0  0  0
  -21.3300  -28.8965   22.0202 N   0  0  0  0  0  0  0  0  0  0  0  0
  -26.0383  -27.9822   17.5444 N   0  0  0  0  0  0  0  0  0  0  0  0
  -28.4401  -30.2931   16.1449 N   0  3  0  0  0  0  0  0  0  0  0  0
  -22.6343  -18.8506   19.8692 O   0  0  0  0  0  0  0  0  0  0  0  0
  -24.7586  -28.5027   26.7938 O   0  0  0  0  0  0  0  0  0  0  0  0
  -23.4198  -28.0437   22.5930 O   0  0  0  0  0  0  0  0  0  0  0  0
  -23.3469  -28.3154   18.4684 O   0  0  0  0  0  0  0  0  0  0  0  0
  -28.0794  -28.6626   18.4094 O   0  0  0  0  0  0  0  0  0  0  0  0
  -28.5965  -23.7849   24.9650 O   0  0  0  0  0  0  0  0  0  0  0  0
  -25.8698  -11.8085   20.5954 O   0  0  0  0  0  0  0  0  0  0  0  0
  -28.2981  -31.0636   24.7764 O   0  0  0  0  0  0  0  0  0  1  0  0
  -21.3654   -9.0232   22.1306 F   0  0  0  0  0  0  0  0  0  0  0  0
  -25.9921   -9.9069   22.5982 F   0  0  0  0  0  0  0  0  0  0  0  0
  -22.8993  -26.6852   25.9669 F   0  0  0  0  0  0  0  0  0  0  0  0
  -24.0088  -24.3849   25.0595 S   0  0  0  0  0  0  0  0  0  0  0  0
  1  2  1  0  0  0  0
  1  5  2  0  0  0  0
  2  6  2  0  0  0  0
  3  8  2  0  0  0  0
  3 15  1  0  0  0  0
  4  9  1  0  0  0  0
  4 15  2  0  0  0  0
  5 17  1  0  0  0  0
  6 19  1  0  0  0  0
  7 10  2  0  0  0  0
  7 18  1  0  0  0  0
  8 21  1  0  0  0  0
  9 21  2  0  0  0  0
 10 22  1  0  0  0  0
 11 12  2  0  0  0  0
 11 23  1  0  0  0  0
 12 24  1  0  0  0  0
 13 20  1  0  0  0  0
 13 22  2  0  0  0  0
 14 24  2  0  0  0  0
 14 25  1  0  0  0  0
 15 26  1  0  0  0  0
 16 26  1  0  0  0  0
 16 28  2  0  0  0  0
 16 31  1  0  0  0  0
 17 19  2  0  0  0  0
 17 37  1  0  0  0  0
 18 20  2  0  0  0  0
 18 38  1  0  0  0  0
 19 46  1  0  0  0  0
 20 39  1  0  0  0  0
 21 79  1  0  0  0  0
 22 80  1  0  0  0  0
 23 25  2  0  0  0  0
 23 79  1  0  0  0  0
 24 81  1  0  0  0  0
 25 82  1  0  0  0  0
 26 61  2  0  0  0  0
 27 29  2  0  0  0  0
 27 32  1  0  0  0  0
 27 62  1  0  0  0  0
 28 63  1  0  0  0  0
 28 66  1  0  0  0  0
 29 83  1  0  0  0  0
 29 84  1  0  0  0  0
 30 62  2  0  0  0  0
 30 68  1  0  0  0  0
 30 84  1  0  0  0  0
 31 67  1  0  0  0  0
 31 73  2  0  0  0  0
 32 69  1  0  0  0  0
 32 74  2  0  0  0  0
 33 47  1  0  0  0  0
 33 70  1  0  0  0  0
 33 75  2  0  0  0  0
 34 57  1  0  0  0  0
 34 64  1  0  0  0  0
 34 76  2  0  0  0  0
 35 58  1  0  0  0  0
 35 71  1  0  0  0  0
 35 77  2  0  0  0  0
 36 65  1  0  0  0  0
 36 68  1  0  0  0  0
 36 78  2  0  0  0  0
 37 40  1  0  0  0  0
 38 47  1  0  0  0  0
 39 64  1  0  0  0  0
 40 42  1  0  0  0  0
 41 43  1  0  0  0  0
 41 44  1  0  0  0  0
 42 46  1  0  0  0  0
 43 48  1  0  0  0  0
 44 65  1  0  0  0  0
 45 48  1  0  0  0  0
 45 65  1  0  0  0  0
 46 70  1  0  0  0  0
 47 64  1  0  0  0  0
 48 63  1  0  0  0  0
 49 58  1  0  0  0  0
 50 59  1  0  0  0  0
 51 60  1  0  0  0  0
 52 60  1  0  0  0  0
 53 60  1  0  0  0  0
 54 72  1  0  0  0  0
 55 56  1  0  0  0  0
 55 59  1  0  0  0  0
 56 69  1  0  0  0  0
 57 60  1  0  0  0  0
 57 71  1  0  0  0  0
 58 72  1  0  0  0  0
 59 80  1  0  0  0  0
 61 63  1  0  0  0  0
M  CHG  1  72   1
M  ISO  4  36 100  59 101  68 100  80 101
M  END
> <Batch ID>
0177

> <Smiles>
CNC(C)C(=O)NC(C(=O)N1Cc2cc([101O:1][101CH:1](C)CCNC(=O)c3nc([100NH:0][100C:0](=O)N4CCCC(n5nc(-c6ccc(Oc7ccc(F)cc7F)cc6)c(C(N)=O)c5N)C4)sc3F)ccc2CC1C(=O)NC1CCCc2ccccc21)C(C)(C)C

> <Shape>
0.239

> <Color>
0.092

> <Negative vol penalty>
0.000

$$$$

  -OEChem-04052304413D

 85 93  0     1  0  0  0  0  0999 V2000
  -18.1205  -32.7483   22.6471 C   0  0  0  0  0  0  0  0  0  0  0  0
  -19.3287  -32.7323   21.9577 C   0  0  0  0  0  0  0  0  0  0  0  0
  -26.0680  -12.9269   21.7492 C   0  0  0  0  0  0  0  0  0  0  0  0
  -26.0032  -13.6355   19.4404 C   0  0  0  0  0  0  0  0  0  0  0  0
  -17.9331  -31.9067   23.7428 C   0  0  0  0  0  0  0  0  0  0  0  0
  -20.3508  -31.8753   22.3643 C   0  0  0  0  0  0  0  0  0  0  0  0
  -24.4035  -29.0146   18.7730 C   0  0  0  0  0  0  0  0  0  0  0  0
  -24.8666  -12.2406   21.5723 C   0  0  0  0  0  0  0  0  0  0  0  0
  -24.8019  -12.9491   19.2634 C   0  0  0  0  0  0  0  0  0  0  0  0
  -25.7227  -29.3069   18.4292 C   0  0  0  0  0  0  0  0  0  0  0  0
  -23.8469   -9.3085   20.2323 C   0  0  0  0  0  0  0  0  0  0  0  0
  -23.7558   -8.0168   20.7507 C   0  0  0  0  0  0  0  0  0  0  0  0
  -26.4978  -27.8297   20.1717 C   0  0  0  0  0  0  0  0  0  0  0  0
  -21.9114   -8.7082   22.1497 C   0  0  0  0  0  0  0  0  0  0  0  0
  -26.6363  -13.6244   20.6833 C   0  0  0  0  0  0  0  0  0  0  0  0
  -29.1787  -13.8331   20.6751 C   0  0  0  0  0  0  0  0  0  0  0  0
  -18.9499  -31.0320   24.1571 C   0  0  0  0  0  0  0  0  0  0  0  0
  -24.1211  -28.1345   19.8275 C   0  0  0  0  0  0  0  0  0  0  0  0
  -20.1774  -31.0221   23.4674 C   0  0  0  0  0  0  0  0  0  0  0  0
  -25.1742  -27.5259   20.5252 C   0  0  0  0  0  0  0  0  0  0  0  0
  -24.2336  -12.2517   20.3295 C   0  0  0  0  0  0  0  0  0  0  0  0
  -26.7700  -28.7167   19.1304 C   0  0  0  0  0  0  0  0  0  0  0  0
  -22.9702  -10.3001   20.6726 C   0  0  0  0  0  0  0  0  0  0  0  0
  -22.7881   -7.7166   21.7094 C   0  0  0  0  0  0  0  0  0  0  0  0
  -22.0025  -10.0000   21.6313 C   0  0  0  0  0  0  0  0  0  0  0  0
  -27.8770  -14.3340   20.8655 C   0  0  0  0  0  0  0  0  0  0  0  0
  -29.0808  -21.1014   17.0996 C   0  0  0  0  0  0  0  0  0  0  0  0
  -29.2709  -21.4406   18.4228 C   0  0  0  0  0  0  0  0  0  0  0  0
  -30.0012  -14.8911   20.9758 C   0  0  0  0  0  0  0  0  0  0  0  0
  -29.8008  -23.3632   17.5102 C   0  0  0  0  0  0  0  0  0  0  0  0
  -28.8634  -27.9694   18.4023 C   0  0  0  0  0  0  0  0  0  1  0  0
  -29.6062  -12.5280   20.2631 C   0  0  0  0  0  0  0  0  0  0  0  0
  -30.1440  -28.1335   18.0530 C   0  0  0  0  0  0  0  0  0  0  0  0
  -30.9270  -26.9435   17.6392 C   0  0  0  0  0  0  0  0  0  0  0  0
  -30.5435  -25.6306   18.2510 C   0  0  0  0  0  0  0  0  0  0  0  0
  -22.6264  -28.3879   22.6214 C   0  0  0  0  0  0  0  0  0  0  0  0
  -23.1035  -25.1810   22.7256 C   0  0  0  0  0  0  0  0  0  0  0  0
  -24.9207  -22.4869   21.6836 C   0  0  0  0  0  0  0  0  0  0  0  0
  -29.2370  -20.8163   20.8632 C   0  0  0  0  0  0  0  0  0  0  0  0
  -18.7181  -30.1748   25.3762 C   0  0  0  0  0  0  0  0  0  0  0  0
  -22.6928  -27.8089   20.1685 C   0  0  0  0  0  0  0  0  0  0  0  0
  -24.9244  -26.5585   21.6522 C   0  0  0  0  0  0  0  0  0  0  0  0
  -19.7159  -29.0277   25.5129 C   0  0  0  0  0  0  0  0  0  0  0  0
  -30.1828  -18.8444   23.6728 C   0  0  0  0  0  0  0  0  0  0  0  0
  -21.1384  -29.5270   25.2804 C   0  0  0  0  0  0  0  0  0  0  0  0
  -29.8229  -17.4176   23.2520 C   0  0  0  0  0  0  0  0  0  0  0  0
  -29.1667  -19.8614   23.1563 C   0  0  0  0  0  0  0  0  0  0  0  0
  -28.5483  -18.3754   21.2911 C   0  0  0  0  0  0  0  0  0  0  0  0
  -21.3010  -30.0888   23.8628 C   0  0  1  0  0  0  0  0  0  0  0  0
  -22.5211  -27.2957   21.5949 C   0  0  1  0  0  0  0  0  0  0  0  0
  -29.5780  -17.3229   21.7333 C   0  0  2  0  0  0  0  0  0  0  0  0
  -28.6507  -19.8252   16.4928 C   0  0  0  0  0  0  0  0  0  0  0  0
  -25.0971  -20.0000   21.9694 C   0  0  0  0  0  0  0  0  0  0  0  0
  -24.4048  -25.5894   25.4550 C   0  0  0  0  0  0  0  0  0  0  0  0
  -25.3842  -23.2941   25.2539 C   0  0  0  0  0  0  0  0  0  0  0  0
  -22.9080  -23.5918   25.3014 C   0  0  0  0  0  0  0  0  0  0  0  0
  -24.3984  -22.0030   18.8109 C   0  0  0  0  0  0  0  0  0  0  0  0
  -24.1997  -24.2794   23.2397 C   0  0  1  0  0  0  0  0  0  0  0  0
  -24.4958  -21.1309   21.1494 C   0  0  2  0  0  0  0  0  0  0  0  0
  -24.2292  -24.2083   24.7926 C   0  0  0  0  0  0  0  0  0  0  0  0
  -27.8680  -15.6110   21.2571 N   0  0  0  0  0  0  0  0  0  0  0  0
  -29.6841  -22.7371   18.6602 N   0  0  0  0  0  0  0  0  0  0  0  0
  -29.1743  -15.9213   21.3152 N   0  0  0  0  0  0  0  0  0  0  0  0
  -23.5107  -26.2772   21.9520 N   0  0  0  0  0  0  0  0  0  0  0  0
  -28.9893  -19.7152   21.7099 N   0  0  0  0  0  0  0  0  0  0  0  0
  -31.3439  -15.0315   20.9805 N   0  0  0  0  0  0  0  0  0  0  0  0
  -28.6299  -11.5591   19.9939 N   0  0  0  0  0  0  0  0  0  0  0  0
  -29.0668  -20.5492   19.5052 N   0  0  0  0  0  0  0  0  0  0  0  0
  -30.1968  -24.7031   17.2920 N   0  0  0  0  0  0  0  0  0  0  0  0
  -21.4265  -29.0121   22.9038 N   0  0  0  0  0  0  0  0  0  0  0  0
  -24.0073  -22.9894   22.5860 N   0  0  0  0  0  0  0  0  0  0  0  0
  -24.9353  -20.9707   19.7345 N   0  3  0  0  0  0  0  0  0  0  0  0
  -30.8185  -12.2250   20.1532 O   0  0  0  0  0  0  0  0  0  0  0  0
  -31.8645  -26.9477   16.8569 O   0  0  0  0  0  0  0  0  0  0  0  0
  -30.5993  -25.5535   19.4668 O   0  0  0  0  0  0  0  0  0  0  0  0
  -23.7155  -28.6442   23.1213 O   0  0  0  0  0  0  0  0  0  0  0  0
  -21.9286  -24.9183   22.9944 O   0  0  0  0  0  0  0  0  0  0  0  0
  -25.9608  -23.0429   21.3378 O   0  0  0  0  0  0  0  0  0  0  0  0
  -29.6015  -21.9078   21.3079 O   0  0  0  0  0  0  0  0  0  0  0  0
  -30.7747  -29.3579   18.0574 O   0  0  0  0  0  0  0  0  0  0  0  0
  -23.0614  -11.5819   20.1564 O   0  0  0  0  0  0  0  0  0  0  0  0
  -28.0585  -29.0008   18.7974 O   0  0  0  0  0  0  0  0  0  1  0  0
  -22.6998   -6.4757   22.2060 F   0  0  0  0  0  0  0  0  0  0  0  0
  -21.1568  -10.9482   22.0573 F   0  0  0  0  0  0  0  0  0  0  0  0
  -29.4289  -22.4534   16.1034 S   0  0  0  0  0  0  0  0  0  0  0  0
  1  2  1  0  0  0  0
  1  5  2  0  0  0  0
  2  6  2  0  0  0  0
  3  8  2  0  0  0  0
  3 15  1  0  0  0  0
  4  9  1  0  0  0  0
  4 15  2  0  0  0  0
  5 17  1  0  0  0  0
  6 19  1  0  0  0  0
  7 10  2  0  0  0  0
  7 18  1  0  0  0  0
  8 21  1  0  0  0  0
  9 21  2  0  0  0  0
 10 22  1  0  0  0  0
 11 12  2  0  0  0  0
 11 23  1  0  0  0  0
 12 24  1  0  0  0  0
 13 20  1  0  0  0  0
 13 22  2  0  0  0  0
 14 24  2  0  0  0  0
 14 25  1  0  0  0  0
 15 26  1  0  0  0  0
 16 26  1  0  0  0  0
 16 29  2  0  0  0  0
 16 32  1  0  0  0  0
 17 19  2  0  0  0  0
 17 40  1  0  0  0  0
 18 20  2  0  0  0  0
 18 41  1  0  0  0  0
 19 49  1  0  0  0  0
 20 42  1  0  0  0  0
 21 81  1  0  0  0  0
 22 82  1  0  0  0  0
 23 25  2  0  0  0  0
 23 81  1  0  0  0  0
 24 83  1  0  0  0  0
 25 84  1  0  0  0  0
 26 61  2  0  0  0  0
 27 28  2  0  0  0  0
 27 52  1  0  0  0  0
 27 85  1  0  0  0  0
 28 62  1  0  0  0  0
 28 68  1  0  0  0  0
 29 63  1  0  0  0  0
 29 66  1  0  0  0  0
 30 62  2  0  0  0  0
 30 69  1  0  0  0  0
 30 85  1  0  0  0  0
 31 33  2  0  0  0  0
 31 82  1  0  0  0  0
 32 67  1  0  0  0  0
 32 73  2  0  0  0  0
 33 34  1  0  0  0  0
 33 80  1  0  0  0  0
 34 35  1  0  0  0  0
 34 74  2  0  0  0  0
 35 69  1  0  0  0  0
 35 75  2  0  0  0  0
 36 50  1  0  0  0  0
 36 70  1  0  0  0  0
 36 76  2  0  0  0  0
 37 58  1  0  0  0  0
 37 64  1  0  0  0  0
 37 77  2  0  0  0  0
 38 59  1  0  0  0  0
 38 71  1  0  0  0  0
 38 78  2  0  0  0  0
 39 65  1  0  0  0  0
 39 68  1  0  0  0  0
 39 79  2  0  0  0  0
 40 43  1  0  0  0  0
 41 50  1  0  0  0  0
 42 64  1  0  0  0  0
 43 45  1  0  0  0  0
 44 46  1  0  0  0  0
 44 47  1  0  0  0  0
 45 49  1  0  0  0  0
 46 51  1  0  0  0  0
 47 65  1  0  0  0  0
 48 51  1  0  0  0  0
 48 65  1  0  0  0  0
 49 70  1  0  0  0  0
 50 64  1  0  0  0  0
 51 63  1  0  0  0  0
 53 59  1  0  0  0  0
 54 60  1  0  0  0  0
 55 60  1  0  0  0  0
 56 60  1  0  0  0  0
 57 72  1  0  0  0  0
 58 60  1  0  0  0  0
 58 71  1  0  0  0  0
 59 72  1  0  0  0  0
 61 63  1  0  0  0  0
M  CHG  1  72   1
M  ISO  4  31 101  39 100  68 100  82 101
M  END
> <Batch ID>
0177

> <Smiles>
CNC(C)C(=O)NC(C(=O)N1Cc2cc([101O:1][101CH2:1]C(=O)C(=O)C(=O)Nc3nc([100NH:0][100C:0](=O)N4CCCC(n5nc(-c6ccc(Oc7ccc(F)cc7F)cc6)c(C(N)=O)c5N)C4)c(C)s3)ccc2CC1C(=O)NC1CCCc2ccccc21)C(C)(C)C

> <Shape>
0.255

> <Color>
0.103

> <Negative vol penalty>
0.000

$$$$

  -OEChem-04052304413D

 87 95  0     1  0  0  0  0  0999 V2000
  -18.7754  -28.4073   23.1706 C   0  0  0  0  0  0  0  0  0  0  0  0
  -20.1593  -28.5456   23.2040 C   0  0  0  0  0  0  0  0  0  0  0  0
  -23.3560  -12.5224   20.1290 C   0  0  0  0  0  0  0  0  0  0  0  0
  -24.0002  -12.8981   22.4270 C   0  0  0  0  0  0  0  0  0  0  0  0
  -18.2022  -27.2870   22.5704 C   0  0  0  0  0  0  0  0  0  0  0  0
  -20.9709  -27.5630   22.6380 C   0  0  0  0  0  0  0  0  0  0  0  0
  -24.7136  -29.5105   19.8373 C   0  0  0  0  0  0  0  0  0  0  0  0
  -23.0539  -11.1946   20.4307 C   0  0  0  0  0  0  0  0  0  0  0  0
  -23.6981  -11.5702   22.7288 C   0  0  0  0  0  0  0  0  0  0  0  0
  -25.8184  -30.0211   20.5174 C   0  0  0  0  0  0  0  0  0  0  0  0
  -25.1444   -8.5379   22.3490 C   0  0  0  0  0  0  0  0  0  0  0  0
  -26.0579   -7.8260   23.1262 C   0  0  0  0  0  0  0  0  0  0  0  0
  -27.0325  -27.9875   20.0595 C   0  0  0  0  0  0  0  0  0  0  0  0
  -24.3549   -7.4708   24.8026 C   0  0  0  0  0  0  0  0  0  0  0  0
  -27.9795  -23.2193   24.0282 C   0  0  0  0  0  0  0  0  0  0  0  0
  -23.8292  -13.3742   21.1271 C   0  0  0  0  0  0  0  0  0  0  0  0
  -23.2726  -15.8514   20.8790 C   0  0  0  0  0  0  0  0  0  0  0  0
  -19.0069  -26.2949   21.9883 C   0  0  0  0  0  0  0  0  0  0  0  0
  -24.7563  -28.2281   19.2716 C   0  0  0  0  0  0  0  0  0  0  0  0
  -20.4079  -26.4277   22.0306 C   0  0  0  0  0  0  0  0  0  0  0  0
  -25.9278  -27.4640   19.3706 C   0  0  0  0  0  0  0  0  0  0  0  0
  -23.2249  -10.7184   21.7306 C   0  0  0  0  0  0  0  0  0  0  0  0
  -26.9770  -29.2584   20.6311 C   0  0  0  0  0  0  0  0  0  0  0  0
  -23.8360   -8.7164   22.7986 C   0  0  0  0  0  0  0  0  0  0  0  0
  -25.6632   -7.2924   24.3530 C   0  0  0  0  0  0  0  0  0  0  0  0
  -23.4413   -8.1828   24.0254 C   0  0  0  0  0  0  0  0  0  0  0  0
  -27.8402  -21.9188   23.5883 C   0  0  0  0  0  0  0  0  0  0  0  0
  -24.1419  -14.7459   20.8159 C   0  0  0  0  0  0  0  0  0  0  0  0
  -28.4118  -21.6381   22.3641 C   0  0  0  0  0  0  0  0  0  0  0  0
  -24.0449  -16.9182   20.4890 C   0  0  0  0  0  0  0  0  0  0  0  0
  -29.1391  -23.7816   22.1557 C   0  0  0  0  0  0  0  0  0  0  0  0
  -21.8907  -15.9089   21.2566 C   0  0  0  0  0  0  0  0  0  0  0  0
  -29.8571  -24.8121   21.3636 C   0  0  0  0  0  0  0  0  0  0  0  0
  -23.1441  -25.5251   19.7172 C   0  0  0  0  0  0  0  0  0  0  0  0
  -24.8688  -24.5308   17.1562 C   0  0  0  0  0  0  0  0  0  0  0  0
  -30.5691  -27.1776   21.3689 C   0  0  0  0  0  0  0  0  0  0  0  0
  -27.6701  -24.8782   15.2383 C   0  0  0  0  0  0  0  0  0  0  0  0
  -28.7965  -19.8152   20.6684 C   0  0  0  0  0  0  0  0  0  0  0  0
  -18.3430  -25.0786   21.3928 C   0  0  0  0  0  0  0  0  0  0  0  0
  -23.5653  -27.7025   18.5181 C   0  0  0  0  0  0  0  0  0  0  0  0
  -26.0317  -26.0895   18.7635 C   0  0  0  0  0  0  0  0  0  0  0  0
  -19.2624  -24.2660   20.4848 C   0  0  0  0  0  0  0  0  0  0  0  0
  -28.6613  -17.0598   18.4175 C   0  0  0  0  0  0  0  0  0  0  0  0
  -20.6194  -24.0562   21.1491 C   0  0  0  0  0  0  0  0  0  0  0  0
  -27.4019  -16.3031   18.8460 C   0  0  0  0  0  0  0  0  0  0  0  0
  -29.4046  -17.6481   19.6154 C   0  0  0  0  0  0  0  0  0  0  0  0
  -27.3263  -17.7219   20.9361 C   0  0  0  0  0  0  0  0  0  0  0  0
  -21.3210  -25.3954   21.4056 C   0  0  1  0  0  0  0  0  0  0  0  0
  -23.5418  -26.1799   18.4247 C   0  0  1  0  0  0  0  0  0  0  0  0
  -26.5088  -17.1665   19.7584 C   0  0  2  0  0  0  0  0  0  0  0  0
  -28.8202  -23.8972   13.2352 C   0  0  0  0  0  0  0  0  0  0  0  0
  -29.2737  -31.2496   19.8709 C   0  0  0  0  0  0  0  0  0  0  0  0
  -25.7514  -22.1415   18.8361 C   0  0  0  0  0  0  0  0  0  0  0  0
  -27.5829  -21.7402   17.1770 C   0  0  0  0  0  0  0  0  0  0  0  0
  -25.1983  -21.5977   16.4586 C   0  0  0  0  0  0  0  0  0  0  0  0
  -27.5370  -27.4400   13.7623 C   0  0  0  0  0  0  0  0  0  0  0  0
  -30.4695  -28.4053   22.2601 C   0  0  0  0  0  0  0  0  0  0  0  0
  -30.4766  -29.7262   21.4870 C   0  0  0  0  0  0  0  0  0  0  0  0
  -26.2075  -23.8601   16.9641 C   0  0  1  0  0  0  0  0  0  0  0  0
  -27.8570  -24.9630   13.7341 C   0  0  2  0  0  0  0  0  0  0  0  0
  -29.2690  -29.8885   20.5545 C   0  0  1  0  0  0  0  0  0  1  0  0
  -26.1827  -22.3600   17.3722 C   0  0  0  0  0  0  0  0  0  0  0  0
  -28.6251  -24.1800   23.3349 N   0  0  0  0  0  0  0  0  0  0  0  0
  -25.3722  -15.0794   20.4170 N   0  0  0  0  0  0  0  0  0  0  0  0
  -29.0710  -22.5488   21.6181 N   0  0  0  0  0  0  0  0  0  0  0  0
  -25.2816  -16.4066   20.2259 N   0  0  0  0  0  0  0  0  0  0  0  0
  -24.8384  -25.6171   18.0422 N   0  0  0  0  0  0  0  0  0  0  0  0
  -28.4967  -18.4570   20.4316 N   0  0  0  0  0  0  0  0  0  0  0  0
  -23.7800  -18.2344   20.3488 N   0  0  0  0  0  0  0  0  0  0  0  0
  -21.2500  -14.7196   21.6298 N   0  0  0  0  0  0  0  0  0  0  0  0
  -28.2983  -20.3145   21.8713 N   0  0  0  0  0  0  0  0  0  0  0  0
  -29.9158  -26.0811   21.9372 N   0  0  0  0  0  0  0  0  0  0  0  0
  -21.8992  -25.9057   20.1810 N   0  0  0  0  0  0  0  0  0  0  0  0
  -26.5863  -24.0952   15.5749 N   0  0  0  0  0  0  0  0  0  0  0  0
  -28.3963  -26.2992   13.3537 N   0  3  0  0  0  0  0  0  0  0  0  0
  -21.2388  -16.9806   21.2469 O   0  0  0  0  0  0  0  0  0  0  0  0
  -30.3675  -24.4945   20.2929 O   0  0  0  0  0  0  0  0  0  0  0  0
  -23.9093  -24.7322   20.2534 O   0  0  0  0  0  0  0  0  0  0  0  0
  -23.8877  -24.1111   16.5374 O   0  0  0  0  0  0  0  0  0  0  0  0
  -31.1721  -27.1687   20.2994 O   0  0  0  0  0  0  0  0  0  0  0  0
  -28.4137  -25.4465   16.0349 O   0  0  0  0  0  0  0  0  0  0  0  0
  -29.4240  -20.4934   19.8508 O   0  0  0  0  0  0  0  0  0  0  0  0
  -22.9300   -9.4228   22.0255 O   0  0  0  0  0  0  0  0  0  0  0  0
  -28.0566  -29.7541   21.2950 O   0  0  0  0  0  0  0  0  0  1  0  0
  -26.5402   -6.6074   25.0985 F   0  0  0  0  0  0  0  0  0  0  0  0
  -22.1855   -8.3500   24.4621 F   0  0  0  0  0  0  0  0  0  0  0  0
  -27.1909  -21.0006   24.3120 F   0  0  0  0  0  0  0  0  0  0  0  0
  1  2  1  0  0  0  0
  1  5  2  0  0  0  0
  2  6  2  0  0  0  0
  3  8  2  0  0  0  0
  3 16  1  0  0  0  0
  4  9  1  0  0  0  0
  4 16  2  0  0  0  0
  5 18  1  0  0  0  0
  6 20  1  0  0  0  0
  7 10  2  0  0  0  0
  7 19  1  0  0  0  0
  8 22  1  0  0  0  0
  9 22  2  0  0  0  0
 10 23  1  0  0  0  0
 11 12  2  0  0  0  0
 11 24  1  0  0  0  0
 12 25  1  0  0  0  0
 13 21  1  0  0  0  0
 13 23  2  0  0  0  0
 14 25  2  0  0  0  0
 14 26  1  0  0  0  0
 15 27  1  0  0  0  0
 15 63  2  0  0  0  0
 16 28  1  0  0  0  0
 17 28  1  0  0  0  0
 17 30  2  0  0  0  0
 17 32  1  0  0  0  0
 18 20  2  0  0  0  0
 18 39  1  0  0  0  0
 19 21  2  0  0  0  0
 19 40  1  0  0  0  0
 20 48  1  0  0  0  0
 21 41  1  0  0  0  0
 22 83  1  0  0  0  0
 23 84  1  0  0  0  0
 24 26  2  0  0  0  0
 24 83  1  0  0  0  0
 25 85  1  0  0  0  0
 26 86  1  0  0  0  0
 27 29  2  0  0  0  0
 27 87  1  0  0  0  0
 28 64  2  0  0  0  0
 29 65  1  0  0  0  0
 29 71  1  0  0  0  0
 30 66  1  0  0  0  0
 30 69  1  0  0  0  0
 31 33  1  0  0  0  0
 31 63  1  0  0  0  0
 31 65  2  0  0  0  0
 32 70  1  0  0  0  0
 32 76  2  0  0  0  0
 33 72  1  0  0  0  0
 33 77  2  0  0  0  0
 34 49  1  0  0  0  0
 34 73  1  0  0  0  0
 34 78  2  0  0  0  0
 35 59  1  0  0  0  0
 35 67  1  0  0  0  0
 35 79  2  0  0  0  0
 36 57  1  0  0  0  0
 36 72  1  0  0  0  0
 36 80  2  0  0  0  0
 37 60  1  0  0  0  0
 37 74  1  0  0  0  0
 37 81  2  0  0  0  0
 38 68  1  0  0  0  0
 38 71  1  0  0  0  0
 38 82  2  0  0  0  0
 39 42  1  0  0  0  0
 40 49  1  0  0  0  0
 41 67  1  0  0  0  0
 42 44  1  0  0  0  0
 43 45  1  0  0  0  0
 43 46  1  0  0  0  0
 44 48  1  0  0  0  0
 45 50  1  0  0  0  0
 46 68  1  0  0  0  0
 47 50  1  0  0  0  0
 47 68  1  0  0  0  0
 48 73  1  0  0  0  0
 49 67  1  0  0  0  0
 50 66  1  0  0  0  0
 51 60  1  0  0  0  0
 52 61  1  0  0  0  0
 53 62  1  0  0  0  0
 54 62  1  0  0  0  0
 55 62  1  0  0  0  0
 56 75  1  0  0  0  0
 57 58  1  0  0  0  0
 58 61  1  0  0  0  0
 59 62  1  0  0  0  0
 59 74  1  0  0  0  0
 60 75  1  0  0  0  0
 61 84  1  0  0  0  0
 64 66  1  0  0  0  0
M  CHG  1  75   1
M  ISO  4  38 100  61 101  71 100  84 101
M  END
> <Batch ID>
0177

> <Smiles>
CNC(C)C(=O)NC(C(=O)N1Cc2cc([101O:1][101CH:1](C)CCC(=O)NC(=O)c3ncc(F)c([100NH:0][100C:0](=O)N4CCCC(n5nc(-c6ccc(Oc7ccc(F)cc7F)cc6)c(C(N)=O)c5N)C4)n3)ccc2CC1C(=O)NC1CCCc2ccccc21)C(C)(C)C

> <Shape>
0.222

> <Color>
0.070

> <Negative vol penalty>
0.000

$$$$

  -OEChem-04052304413D

 83 91  0     1  0  0  0  0  0999 V2000
  -23.8666   -8.2926   22.9136 C   0  0  0  0  0  0  0  0  0  0  0  0
  -24.6558   -9.3905   22.5864 C   0  0  0  0  0  0  0  0  0  0  0  0
  -24.0968  -30.3648   21.2124 C   0  0  0  0  0  0  0  0  0  0  0  0
  -25.4952  -29.8433   23.1124 C   0  0  0  0  0  0  0  0  0  0  0  0
  -22.5092   -8.2915   22.5949 C   0  0  0  0  0  0  0  0  0  0  0  0
  -24.0884  -10.4877   21.9394 C   0  0  0  0  0  0  0  0  0  0  0  0
  -25.5652  -14.8997   23.9388 C   0  0  0  0  0  0  0  0  0  0  0  0
  -23.4818  -31.3807   21.9439 C   0  0  0  0  0  0  0  0  0  0  0  0
  -24.8801  -30.8593   23.8439 C   0  0  0  0  0  0  0  0  0  0  0  0
  -26.8345  -15.3620   23.5939 C   0  0  0  0  0  0  0  0  0  0  0  0
  -23.9282  -33.5524   26.0932 C   0  0  0  0  0  0  0  0  0  0  0  0
  -24.7458  -34.4038   26.8362 C   0  0  0  0  0  0  0  0  0  0  0  0
  -25.8456  -16.8503   21.9733 C   0  0  0  0  0  0  0  0  0  0  0  0
  -25.8803  -35.0798   24.8131 C   0  0  0  0  0  0  0  0  0  0  0  0
  -25.1035  -29.5960   21.7966 C   0  0  0  0  0  0  0  0  0  0  0  0
  -26.8836  -28.6561   20.2296 C   0  0  0  0  0  0  0  0  0  0  0  0
  -21.9228   -9.3933   21.9523 C   0  0  0  0  0  0  0  0  0  0  0  0
  -24.4254  -15.4023   23.2948 C   0  0  0  0  0  0  0  0  0  0  0  0
  -22.7222  -10.5008   21.6106 C   0  0  0  0  0  0  0  0  0  0  0  0
  -24.5627  -16.3946   22.3137 C   0  0  0  0  0  0  0  0  0  0  0  0
  -23.8734  -31.6280   23.2597 C   0  0  0  0  0  0  0  0  0  0  0  0
  -26.9751  -16.3353   22.6090 C   0  0  0  0  0  0  0  0  0  0  0  0
  -24.0866  -33.4646   24.7101 C   0  0  0  0  0  0  0  0  0  0  0  0
  -25.7219  -35.1675   26.1962 C   0  0  0  0  0  0  0  0  0  0  0  0
  -25.0627  -34.2283   24.0700 C   0  0  0  0  0  0  0  0  0  0  0  0
  -25.7389  -28.5461   21.0417 C   0  0  0  0  0  0  0  0  0  0  0  0
  -31.0463  -22.1735   19.9478 C   0  0  0  0  0  0  0  0  0  0  0  0
  -29.7846  -21.6213   20.0216 C   0  0  0  0  0  0  0  0  0  0  0  0
  -27.0794  -27.3883   19.7387 C   0  0  0  0  0  0  0  0  0  0  0  0
  -30.9017  -19.8182   19.4641 C   0  0  0  0  0  0  0  0  0  0  0  0
  -27.6972  -29.8017   19.9447 C   0  0  0  0  0  0  0  0  0  0  0  0
  -22.1377  -14.1469   21.4798 C   0  0  0  0  0  0  0  0  0  0  0  0
  -29.8346  -17.0132   20.4850 C   0  0  0  0  0  0  0  0  0  0  0  0
  -20.8527  -17.1151   21.7264 C   0  0  0  0  0  0  0  0  0  0  0  0
  -21.3411  -20.4465   22.2833 C   0  0  0  0  0  0  0  0  0  0  0  0
  -27.3150  -21.8712   20.4516 C   0  0  0  0  0  0  0  0  0  0  0  0
  -20.4614   -9.3265   21.5858 C   0  0  0  0  0  0  0  0  0  0  0  0
  -23.0613  -14.9125   23.6972 C   0  0  0  0  0  0  0  0  0  0  0  0
  -23.3693  -16.9813   21.6067 C   0  0  0  0  0  0  0  0  0  0  0  0
  -19.8585  -10.6846   21.2357 C   0  0  0  0  0  0  0  0  0  0  0  0
  -24.1009  -23.2986   19.8960 C   0  0  0  0  0  0  0  0  0  0  0  0
  -20.7752  -11.4461   20.2835 C   0  0  0  0  0  0  0  0  0  0  0  0
  -24.3347  -24.8001   20.0778 C   0  0  0  0  0  0  0  0  0  0  0  0
  -24.9402  -22.4722   20.8688 C   0  0  0  0  0  0  0  0  0  0  0  0
  -26.6114  -24.2741   21.0405 C   0  0  0  0  0  0  0  0  0  0  0  0
  -22.1380  -11.7201   20.9308 C   0  0  1  0  0  0  0  0  0  0  0  0
  -22.0074  -15.1233   22.6144 C   0  0  1  0  0  0  0  0  0  0  0  0
  -25.8363  -25.1454   20.0387 C   0  0  2  0  0  0  0  0  0  0  0  0
  -31.4968  -23.5619   20.1767 C   0  0  0  0  0  0  0  0  0  0  0  0
  -30.7134  -16.2983   18.2525 C   0  0  0  0  0  0  0  0  0  0  0  0
  -20.1064  -22.6290   22.3825 C   0  0  0  0  0  0  0  0  0  0  0  0
  -20.7116  -17.1711   18.6790 C   0  0  0  0  0  0  0  0  0  0  0  0
  -20.3877  -19.6503   18.8090 C   0  0  0  0  0  0  0  0  0  0  0  0
  -18.7061  -18.1191   19.8338 C   0  0  0  0  0  0  0  0  0  0  0  0
  -22.0810  -20.8692   25.1175 C   0  0  0  0  0  0  0  0  0  0  0  0
  -28.3979  -17.2271   20.9250 C   0  0  0  0  0  0  0  0  0  1  0  0
  -30.1813  -17.4617   19.0722 C   0  0  2  0  0  0  0  0  0  0  0  0
  -20.9638  -18.3972   20.9371 C   0  0  1  0  0  0  0  0  0  0  0  0
  -20.6145  -21.4356   23.1766 C   0  0  2  0  0  0  0  0  0  0  0  0
  -20.2151  -18.3221   19.5765 C   0  0  0  0  0  0  0  0  0  0  0  0
  -25.2423  -27.3064   21.0676 N   0  0  0  0  0  0  0  0  0  0  0  0
  -29.6998  -20.2709   19.7442 N   0  0  0  0  0  0  0  0  0  0  0  0
  -26.0788  -26.6259   20.2656 N   0  0  0  0  0  0  0  0  0  0  0  0
  -22.0573  -16.4653   22.0308 N   0  0  0  0  0  0  0  0  0  0  0  0
  -26.3517  -22.8508   20.7730 N   0  0  0  0  0  0  0  0  0  0  0  0
  -28.0080  -26.8626   18.9118 N   0  0  0  0  0  0  0  0  0  0  0  0
  -27.3548  -31.0272   20.5322 N   0  0  0  0  0  0  0  0  0  0  0  0
  -28.6195  -22.3548   20.3566 N   0  0  0  0  0  0  0  0  0  0  0  0
  -31.1837  -18.5023   19.1399 N   0  0  0  0  0  0  0  0  0  0  0  0
  -22.0422  -12.8228   21.8632 N   0  0  0  0  0  0  0  0  0  0  0  0
  -20.4958  -19.4612   21.8187 N   0  0  0  0  0  0  0  0  0  0  0  0
  -21.5257  -21.9354   24.2447 N   0  3  0  0  0  0  0  0  0  0  0  0
  -28.6887  -29.7440   19.1784 O   0  0  0  0  0  0  0  0  0  0  0  0
  -22.3105  -14.5641   20.3406 O   0  0  0  0  0  0  0  0  0  0  0  0
  -30.6653  -16.4955   21.2321 O   0  0  0  0  0  0  0  0  0  0  0  0
  -19.7387  -16.7091   22.0668 O   0  0  0  0  0  0  0  0  0  0  0  0
  -22.5381  -20.5408   22.0206 O   0  0  0  0  0  0  0  0  0  0  0  0
  -27.0019  -20.6956   20.2472 O   0  0  0  0  0  0  0  0  0  0  0  0
  -23.2736  -32.6194   23.9737 O   0  0  0  0  0  0  0  0  0  0  0  0
  -28.2129  -16.7878   22.2700 O   0  0  0  0  0  0  0  0  0  1  0  0
  -26.5060  -35.9863   26.9096 F   0  0  0  0  0  0  0  0  0  0  0  0
  -25.2188  -34.1491   22.7415 F   0  0  0  0  0  0  0  0  0  0  0  0
  -32.1804  -20.9616   19.5161 S   0  0  0  0  0  0  0  0  0  0  0  0
  1  2  1  0  0  0  0
  1  5  2  0  0  0  0
  2  6  2  0  0  0  0
  3  8  2  0  0  0  0
  3 15  1  0  0  0  0
  4  9  1  0  0  0  0
  4 15  2  0  0  0  0
  5 17  1  0  0  0  0
  6 19  1  0  0  0  0
  7 10  2  0  0  0  0
  7 18  1  0  0  0  0
  8 21  1  0  0  0  0
  9 21  2  0  0  0  0
 10 22  1  0  0  0  0
 11 12  2  0  0  0  0
 11 23  1  0  0  0  0
 12 24  1  0  0  0  0
 13 20  1  0  0  0  0
 13 22  2  0  0  0  0
 14 24  2  0  0  0  0
 14 25  1  0  0  0  0
 15 26  1  0  0  0  0
 16 26  1  0  0  0  0
 16 29  2  0  0  0  0
 16 31  1  0  0  0  0
 17 19  2  0  0  0  0
 17 37  1  0  0  0  0
 18 20  2  0  0  0  0
 18 38  1  0  0  0  0
 19 46  1  0  0  0  0
 20 39  1  0  0  0  0
 21 79  1  0  0  0  0
 22 80  1  0  0  0  0
 23 25  2  0  0  0  0
 23 79  1  0  0  0  0
 24 81  1  0  0  0  0
 25 82  1  0  0  0  0
 26 61  2  0  0  0  0
 27 28  2  0  0  0  0
 27 49  1  0  0  0  0
 27 83  1  0  0  0  0
 28 62  1  0  0  0  0
 28 68  1  0  0  0  0
 29 63  1  0  0  0  0
 29 66  1  0  0  0  0
 30 62  2  0  0  0  0
 30 69  1  0  0  0  0
 30 83  1  0  0  0  0
 31 67  1  0  0  0  0
 31 73  2  0  0  0  0
 32 47  1  0  0  0  0
 32 70  1  0  0  0  0
 32 74  2  0  0  0  0
 33 56  1  0  0  0  0
 33 57  1  0  0  0  0
 33 75  2  0  0  0  0
 34 58  1  0  0  0  0
 34 64  1  0  0  0  0
 34 76  2  0  0  0  0
 35 59  1  0  0  0  0
 35 71  1  0  0  0  0
 35 77  2  0  0  0  0
 36 65  1  0  0  0  0
 36 68  1  0  0  0  0
 36 78  2  0  0  0  0
 37 40  1  0  0  0  0
 38 47  1  0  0  0  0
 39 64  1  0  0  0  0
 40 42  1  0  0  0  0
 41 43  1  0  0  0  0
 41 44  1  0  0  0  0
 42 46  1  0  0  0  0
 43 48  1  0  0  0  0
 44 65  1  0  0  0  0
 45 48  1  0  0  0  0
 45 65  1  0  0  0  0
 46 70  1  0  0  0  0
 47 64  1  0  0  0  0
 48 63  1  0  0  0  0
 50 57  1  0  0  0  0
 51 59  1  0  0  0  0
 52 60  1  0  0  0  0
 53 60  1  0  0  0  0
 54 60  1  0  0  0  0
 55 72  1  0  0  0  0
 56 80  1  0  0  0  0
 57 69  1  0  0  0  0
 58 60  1  0  0  0  0
 58 71  1  0  0  0  0
 59 72  1  0  0  0  0
 61 63  1  0  0  0  0
M  CHG  1  72   1
M  ISO  4  36 100  56 101  68 100  80 101
M  END
> <Batch ID>
0177

> <Smiles>
CNC(C)C(=O)NC(C(=O)N1Cc2cc([101O:1][101CH2:1]C(=O)C(C)Nc3nc([100NH:0][100C:0](=O)N4CCCC(n5nc(-c6ccc(Oc7ccc(F)cc7F)cc6)c(C(N)=O)c5N)C4)c(C)s3)ccc2CC1C(=O)NC1CCCc2ccccc21)C(C)(C)C

> <Shape>
0.197

> <Color>
0.091

> <Negative vol penalty>
0.000

$$$$

  -OEChem-04052304413D

 90 98  0     1  0  0  0  0  0999 V2000
  -26.8559  -22.5048   17.7000 C   0  0  0  0  0  0  0  0  0  0  0  0
  -27.1724  -21.1752   17.4457 C   0  0  0  0  0  0  0  0  0  0  0  0
  -21.6186  -28.2945   19.0648 C   0  0  0  0  0  0  0  0  0  0  0  0
  -21.6987  -26.3369   20.4785 C   0  0  0  0  0  0  0  0  0  0  0  0
  -26.1033  -22.8353   18.8250 C   0  0  0  0  0  0  0  0  0  0  0  0
  -26.7264  -20.1744   18.3096 C   0  0  0  0  0  0  0  0  0  0  0  0
  -27.5156  -15.5178   16.9324 C   0  0  0  0  0  0  0  0  0  0  0  0
  -20.3742  -27.8929   18.5792 C   0  0  0  0  0  0  0  0  0  0  0  0
  -20.4542  -25.9353   19.9928 C   0  0  0  0  0  0  0  0  0  0  0  0
  -28.7813  -14.9333   16.9416 C   0  0  0  0  0  0  0  0  0  0  0  0
  -17.1344  -24.5803   19.3923 C   0  0  0  0  0  0  0  0  0  0  0  0
  -16.1912  -24.1306   20.3163 C   0  0  0  0  0  0  0  0  0  0  0  0
  -29.4932  -21.1777   22.3588 C   0  0  0  0  0  0  0  0  0  0  0  0
  -28.2120  -13.7467   18.9633 C   0  0  0  0  0  0  0  0  0  0  0  0
  -16.2628  -26.2724   21.4319 C   0  0  0  0  0  0  0  0  0  0  0  0
  -22.2809  -27.5164   20.0144 C   0  0  0  0  0  0  0  0  0  0  0  0
  -29.9726  -20.3980   21.3063 C   0  0  0  0  0  0  0  0  0  0  0  0
  -23.8200  -28.7477   21.6339 C   0  0  0  0  0  0  0  0  0  0  0  0
  -25.6588  -21.8386   19.7094 C   0  0  0  0  0  0  0  0  0  0  0  0
  -26.5909  -15.2290   17.9463 C   0  0  0  0  0  0  0  0  0  0  0  0
  -25.9454  -20.4854   19.4374 C   0  0  0  0  0  0  0  0  0  0  0  0
  -26.9343  -14.3269   18.9633 C   0  0  0  0  0  0  0  0  0  0  0  0
  -29.3401  -23.0813   20.8789 C   0  0  0  0  0  0  0  0  0  0  0  0
  -19.7920  -26.7134   19.0432 C   0  0  0  0  0  0  0  0  0  0  0  0
  -29.1307  -14.0498   17.9587 C   0  0  0  0  0  0  0  0  0  0  0  0
  -17.6419  -25.8761   19.4882 C   0  0  0  0  0  0  0  0  0  0  0  0
  -15.7554  -24.9766   21.3361 C   0  0  0  0  0  0  0  0  0  0  0  0
  -29.1769  -22.5193   22.1451 C   0  0  0  0  0  0  0  0  0  0  0  0
  -17.2061  -26.7221   20.5080 C   0  0  0  0  0  0  0  0  0  0  0  0
  -30.1359  -20.9599   20.0401 C   0  0  0  0  0  0  0  0  0  0  0  0
  -29.8197  -22.3016   19.8264 C   0  0  0  0  0  0  0  0  0  0  0  0
  -23.5666  -27.9304   20.5161 C   0  0  0  0  0  0  0  0  0  0  0  0
  -25.1892  -28.8414   21.6875 C   0  0  0  0  0  0  0  0  0  0  0  0
  -30.3092  -18.9625   21.5395 C   0  0  0  0  0  0  0  0  0  0  0  0
  -22.8999  -29.3669   22.5426 C   0  0  0  0  0  0  0  0  0  0  0  0
  -25.1044  -16.9349   20.1788 C   0  0  0  0  0  0  0  0  0  0  0  0
  -23.5401  -14.1446   20.7165 C   0  0  0  0  0  0  0  0  0  0  0  0
  -31.1313  -15.9930   20.4125 C   0  0  0  0  0  0  0  0  0  0  0  0
  -23.5243  -10.7400   20.4810 C   0  0  0  0  0  0  0  0  0  0  0  0
  -29.6015  -25.3134   19.7407 C   0  0  0  0  0  0  0  0  0  0  0  0
  -24.8408  -22.2515   20.9076 C   0  0  0  0  0  0  0  0  0  0  0  0
  -25.2202  -15.8472   17.9074 C   0  0  0  0  0  0  0  0  0  0  0  0
  -25.9707  -13.9680   20.0638 C   0  0  0  0  0  0  0  0  0  0  0  0
  -24.7935  -21.1807   21.9926 C   0  0  0  0  0  0  0  0  0  0  0  0
  -29.0636  -28.7249   18.8751 C   0  0  0  0  0  0  0  0  0  0  0  0
  -24.4274  -19.8367   21.3809 C   0  0  0  0  0  0  0  0  0  0  0  0
  -27.6179  -28.9844   19.3050 C   0  0  0  0  0  0  0  0  0  0  0  0
  -29.2440  -27.3158   18.3133 C   0  0  0  0  0  0  0  0  0  0  0  0
  -27.3198  -26.4939   19.6138 C   0  0  0  0  0  0  0  0  0  0  0  0
  -25.4971  -19.3829   20.3796 C   0  0  1  0  0  0  0  0  0  0  0  0
  -24.5396  -15.8780   19.2724 C   0  0  1  0  0  0  0  0  0  0  0  0
  -27.1027  -27.8782   20.2464 C   0  0  2  0  0  0  0  0  0  0  0  0
  -22.1252   -8.7332   21.0403 C   0  0  0  0  0  0  0  0  0  0  0  0
  -31.1180  -11.6428   19.3160 C   0  0  0  0  0  0  0  0  0  0  0  0
  -24.3470  -14.4020   23.6479 C   0  0  0  0  0  0  0  0  0  0  0  0
  -23.7731  -11.9833   23.9460 C   0  0  0  0  0  0  0  0  0  0  0  0
  -22.0042  -13.6098   23.2765 C   0  0  0  0  0  0  0  0  0  0  0  0
  -23.3062   -9.9546   17.6360 C   0  0  0  0  0  0  0  0  0  0  0  0
  -29.5701  -17.9059   20.7426 C   0  0  0  0  0  0  0  0  0  0  0  0
  -32.0894  -15.4229   19.3795 C   0  0  0  0  0  0  0  0  0  0  0  0
  -32.2396  -13.9016   19.4554 C   0  0  0  0  0  0  0  0  0  0  0  0
  -23.7726  -12.9412   21.5979 C   0  0  1  0  0  0  0  0  0  0  0  0
  -22.4688   -9.7697   19.9819 C   0  0  2  0  0  0  0  0  0  0  0  0
  -30.9179  -13.1512   19.2449 C   0  0  1  0  0  0  0  0  0  1  0  0
  -23.4933  -13.2421   23.0975 C   0  0  0  0  0  0  0  0  0  0  0  0
  -24.6851  -27.5332   19.9036 N   0  0  0  0  0  0  0  0  0  0  0  0
  -25.6546  -28.1035   20.6391 N   0  0  0  0  0  0  0  0  0  0  0  0
  -24.6449  -14.6033   19.9853 N   0  0  0  0  0  0  0  0  0  0  0  0
  -28.7377  -26.3206   19.2609 N   0  0  0  0  0  0  0  0  0  0  0  0
  -26.0285  -29.4822   22.5286 N   0  0  0  0  0  0  0  0  0  0  0  0
  -21.5271  -29.1674   22.3428 N   0  0  0  0  0  0  0  0  0  0  0  0
  -29.0179  -24.4439   20.6615 N   0  0  0  0  0  0  0  0  0  0  0  0
  -25.0164  -18.2171   19.6712 N   0  0  0  0  0  0  0  0  0  0  0  0
  -30.5093  -17.1441   19.9515 N   0  0  0  0  0  0  0  0  0  0  0  0
  -22.9588  -11.8652   21.0427 N   0  0  0  0  0  0  0  0  0  0  0  0
  -22.9539   -9.0571   18.7662 N   0  3  0  0  0  0  0  0  0  0  0  0
  -31.1730  -18.6762   22.3658 O   0  0  0  0  0  0  0  0  0  0  0  0
  -23.2832  -30.0895   23.4937 O   0  0  0  0  0  0  0  0  0  0  0  0
  -25.5832  -16.6113   21.2594 O   0  0  0  0  0  0  0  0  0  0  0  0
  -22.4176  -14.6543   20.6729 O   0  0  0  0  0  0  0  0  0  0  0  0
  -30.9636  -15.4935   21.5217 O   0  0  0  0  0  0  0  0  0  0  0  0
  -24.7297  -10.5200   20.3858 O   0  0  0  0  0  0  0  0  0  0  0  0
  -30.7802  -25.2450   19.3832 O   0  0  0  0  0  0  0  0  0  0  0  0
  -18.5777  -26.3213   18.5697 O   0  0  0  0  0  0  0  0  0  0  0  0
  -30.3657  -13.4784   17.9704 O   0  0  0  0  0  0  0  0  0  1  0  0
  -14.8484  -24.5451   22.2223 F   0  0  0  0  0  0  0  0  0  0  0  0
  -28.7182  -23.2593   23.1648 F   0  0  0  0  0  0  0  0  0  0  0  0
  -17.6891  -27.9684   20.6045 F   0  0  0  0  0  0  0  0  0  0  0  0
  -30.5971  -20.2204   19.0213 F   0  0  0  0  0  0  0  0  0  0  0  0
  -29.9812  -22.8309   18.6053 F   0  0  0  0  0  0  0  0  0  0  0  0
  1  2  1  0  0  0  0
  1  5  2  0  0  0  0
  2  6  2  0  0  0  0
  3  8  2  0  0  0  0
  3 16  1  0  0  0  0
  4  9  1  0  0  0  0
  4 16  2  0  0  0  0
  5 19  1  0  0  0  0
  6 21  1  0  0  0  0
  7 10  2  0  0  0  0
  7 20  1  0  0  0  0
  8 24  1  0  0  0  0
  9 24  2  0  0  0  0
 10 25  1  0  0  0  0
 11 12  2  0  0  0  0
 11 26  1  0  0  0  0
 12 27  1  0  0  0  0
 13 17  1  0  0  0  0
 13 28  2  0  0  0  0
 14 22  1  0  0  0  0
 14 25  2  0  0  0  0
 15 27  2  0  0  0  0
 15 29  1  0  0  0  0
 16 32  1  0  0  0  0
 17 30  2  0  0  0  0
 17 34  1  0  0  0  0
 18 32  1  0  0  0  0
 18 33  2  0  0  0  0
 18 35  1  0  0  0  0
 19 21  2  0  0  0  0
 19 41  1  0  0  0  0
 20 22  2  0  0  0  0
 20 42  1  0  0  0  0
 21 50  1  0  0  0  0
 22 43  1  0  0  0  0
 23 28  1  0  0  0  0
 23 31  2  0  0  0  0
 23 72  1  0  0  0  0
 24 84  1  0  0  0  0
 25 85  1  0  0  0  0
 26 29  2  0  0  0  0
 26 84  1  0  0  0  0
 27 86  1  0  0  0  0
 28 87  1  0  0  0  0
 29 88  1  0  0  0  0
 30 31  1  0  0  0  0
 30 89  1  0  0  0  0
 31 90  1  0  0  0  0
 32 66  2  0  0  0  0
 33 67  1  0  0  0  0
 33 70  1  0  0  0  0
 34 59  1  0  0  0  0
 34 77  2  0  0  0  0
 35 71  1  0  0  0  0
 35 78  2  0  0  0  0
 36 51  1  0  0  0  0
 36 73  1  0  0  0  0
 36 79  2  0  0  0  0
 37 62  1  0  0  0  0
 37 68  1  0  0  0  0
 37 80  2  0  0  0  0
 38 60  1  0  0  0  0
 38 74  1  0  0  0  0
 38 81  2  0  0  0  0
 39 63  1  0  0  0  0
 39 75  1  0  0  0  0
 39 82  2  0  0  0  0
 40 69  1  0  0  0  0
 40 72  1  0  0  0  0
 40 83  2  0  0  0  0
 41 44  1  0  0  0  0
 42 51  1  0  0  0  0
 43 68  1  0  0  0  0
 44 46  1  0  0  0  0
 45 47  1  0  0  0  0
 45 48  1  0  0  0  0
 46 50  1  0  0  0  0
 47 52  1  0  0  0  0
 48 69  1  0  0  0  0
 49 52  1  0  0  0  0
 49 69  1  0  0  0  0
 50 73  1  0  0  0  0
 51 68  1  0  0  0  0
 52 67  1  0  0  0  0
 53 63  1  0  0  0  0
 54 64  1  0  0  0  0
 55 65  1  0  0  0  0
 56 65  1  0  0  0  0
 57 65  1  0  0  0  0
 58 76  1  0  0  0  0
 59 74  1  0  0  0  0
 60 61  1  0  0  0  0
 61 64  1  0  0  0  0
 62 65  1  0  0  0  0
 62 75  1  0  0  0  0
 63 76  1  0  0  0  0
 64 85  1  0  0  0  0
 66 67  1  0  0  0  0
M  CHG  1  76   1
M  ISO  4  40 100  64 101  72 100  85 101
M  END
> <Batch ID>
0177

> <Smiles>
CNC(C)C(=O)NC(C(=O)N1Cc2cc([101O:1][101CH:1](C)CCC(=O)NCC(=O)c3cc(F)c([100NH:0][100C:0](=O)N4CCCC(n5nc(-c6ccc(Oc7ccc(F)cc7F)cc6)c(C(N)=O)c5N)C4)c(F)c3F)ccc2CC1C(=O)NC1CCCc2ccccc21)C(C)(C)C

> <Shape>
0.251

> <Color>
0.065

> <Negative vol penalty>
0.000

$$$$

  -OEChem-04052304413D

 87 95  0     1  0  0  0  0  0999 V2000
  -22.1348  -36.2688   17.3444 C   0  0  0  0  0  0  0  0  0  0  0  0
  -22.8468  -35.0781   17.4477 C   0  0  0  0  0  0  0  0  0  0  0  0
  -23.6086  -10.0620   22.0544 C   0  0  0  0  0  0  0  0  0  0  0  0
  -22.9815  -12.3908   22.1985 C   0  0  0  0  0  0  0  0  0  0  0  0
  -29.7741  -20.0192   21.8683 C   0  0  0  0  0  0  0  0  0  0  0  0
  -22.4018  -37.3178   18.2232 C   0  0  0  0  0  0  0  0  0  0  0  0
  -23.8271  -34.9361   18.4292 C   0  0  0  0  0  0  0  0  0  0  0  0
  -23.5511  -30.4806   20.8203 C   0  0  0  0  0  0  0  0  0  0  0  0
  -22.7659   -9.7687   23.1265 C   0  0  0  0  0  0  0  0  0  0  0  0
  -22.1387  -12.0975   23.2706 C   0  0  0  0  0  0  0  0  0  0  0  0
  -24.0657  -29.3683   20.1556 C   0  0  0  0  0  0  0  0  0  0  0  0
  -20.5053   -8.3473   25.5932 C   0  0  0  0  0  0  0  0  0  0  0  0
  -30.5404  -18.9599   22.3542 C   0  0  0  0  0  0  0  0  0  0  0  0
  -19.6834   -7.2256   25.4840 C   0  0  0  0  0  0  0  0  0  0  0  0
  -26.0851  -29.5274   21.4655 C   0  0  0  0  0  0  0  0  0  0  0  0
  -18.6332   -8.1852   23.5312 C   0  0  0  0  0  0  0  0  0  0  0  0
  -23.7165  -11.3730   21.5904 C   0  0  0  0  0  0  0  0  0  0  0  0
  -28.8366  -19.7967   20.8597 C   0  0  0  0  0  0  0  0  0  0  0  0
  -24.2559  -11.6723   19.1151 C   0  0  0  0  0  0  0  0  0  0  0  0
  -23.3791  -37.1851   19.2221 C   0  0  0  0  0  0  0  0  0  0  0  0
  -24.3053  -31.1323   21.8066 C   0  0  0  0  0  0  0  0  0  0  0  0
  -24.1084  -35.9848   19.3213 C   0  0  0  0  0  0  0  0  0  0  0  0
  -25.5768  -30.6462   22.1430 C   0  0  0  0  0  0  0  0  0  0  0  0
  -29.4319  -17.4555   20.8228 C   0  0  0  0  0  0  0  0  0  0  0  0
  -22.0310  -10.7864   23.7346 C   0  0  0  0  0  0  0  0  0  0  0  0
  -25.3340  -28.8933   20.4761 C   0  0  0  0  0  0  0  0  0  0  0  0
  -20.3911   -9.3880   24.6714 C   0  0  0  0  0  0  0  0  0  0  0  0
  -18.7474   -7.1445   24.4531 C   0  0  0  0  0  0  0  0  0  0  0  0
  -30.3694  -17.6780   21.8315 C   0  0  0  0  0  0  0  0  0  0  0  0
  -19.4551   -9.3069   23.6404 C   0  0  0  0  0  0  0  0  0  0  0  0
  -28.6655  -18.5148   20.3369 C   0  0  0  0  0  0  0  0  0  0  0  0
  -24.5872  -11.6767   20.4833 C   0  0  0  0  0  0  0  0  0  0  0  0
  -25.4205  -12.0262   18.4787 C   0  0  0  0  0  0  0  0  0  0  0  0
  -28.0197  -20.9324   20.3429 C   0  0  0  0  0  0  0  0  0  0  0  0
  -23.0071  -11.3751   18.4766 C   0  0  0  0  0  0  0  0  0  0  0  0
  -25.5070  -34.0555   22.1452 C   0  0  0  0  0  0  0  0  0  0  0  0
  -26.6518  -25.5432   20.0935 C   0  0  0  0  0  0  0  0  0  0  0  0
  -26.2972  -32.9665   25.0968 C   0  0  0  0  0  0  0  0  0  0  0  0
  -26.9657  -30.2990   27.1177 C   0  0  0  0  0  0  0  0  0  0  0  0
  -30.2200  -15.1486   20.1875 C   0  0  0  0  0  0  0  0  0  0  0  0
  -23.6654  -38.3636   20.1188 C   0  0  0  0  0  0  0  0  0  0  0  0
  -23.7251  -32.3147   22.5331 C   0  0  0  0  0  0  0  0  0  0  0  0
  -26.4185  -31.2978   23.2085 C   0  0  0  0  0  0  0  0  0  0  0  0
  -24.4594  -37.9980   21.3702 C   0  0  0  0  0  0  0  0  0  0  0  0
  -30.1781  -11.8004   18.9773 C   0  0  0  0  0  0  0  0  0  0  0  0
  -25.6398  -37.1013   21.0106 C   0  0  0  0  0  0  0  0  0  0  0  0
  -28.7084  -11.3904   19.0959 C   0  0  0  0  0  0  0  0  0  0  0  0
  -30.6126  -12.6954   20.1365 C   0  0  0  0  0  0  0  0  0  0  0  0
  -28.2976  -13.4650   20.4794 C   0  0  0  0  0  0  0  0  0  0  0  0
  -25.1621  -35.7836   20.3886 C   0  0  1  0  0  0  0  0  0  0  0  0
  -24.7884  -33.2116   23.1596 C   0  0  1  0  0  0  0  0  0  0  0  0
  -27.7962  -12.6159   19.2999 C   0  0  2  0  0  0  0  0  0  0  0  0
  -27.6169  -29.7259   29.4725 C   0  0  0  0  0  0  0  0  0  0  0  0
  -29.1635  -33.8345   24.5128 C   0  0  0  0  0  0  0  0  0  0  0  0
  -29.9114  -32.4126   26.4329 C   0  0  0  0  0  0  0  0  0  0  0  0
  -28.3737  -34.3359   26.8321 C   0  0  0  0  0  0  0  0  0  0  0  0
  -24.4815  -28.7497   27.5509 C   0  0  0  0  0  0  0  0  0  0  0  0
  -28.2329  -22.3121   20.9343 C   0  0  0  0  0  0  0  0  0  0  0  0
  -26.7483  -26.9829   20.5553 C   0  0  0  0  0  0  0  0  0  1  0  0
  -27.5583  -24.5595   20.8044 C   0  0  0  0  0  0  0  0  0  0  0  0
  -27.4912  -32.2594   25.6912 C   0  0  1  0  0  0  0  0  0  0  0  0
  -26.4638  -29.9341   28.5031 C   0  0  2  0  0  0  0  0  0  0  0  0
  -28.7201  -33.1993   25.8458 C   0  0  0  0  0  0  0  0  0  0  0  0
  -25.8625  -12.0070   20.7040 N   0  0  0  0  0  0  0  0  0  0  0  0
  -26.3427  -12.2134   19.4659 N   0  0  0  0  0  0  0  0  0  0  0  0
  -25.8099  -32.4545   23.8860 N   0  0  0  0  0  0  0  0  0  0  0  0
  -29.7050  -13.8374   20.2666 N   0  0  0  0  0  0  0  0  0  0  0  0
  -25.7354  -12.1923   17.1765 N   0  0  0  0  0  0  0  0  0  0  0  0
  -21.9116  -11.0296   19.2796 N   0  0  0  0  0  0  0  0  0  0  0  0
  -29.2584  -16.1531   20.2923 N   0  0  0  0  0  0  0  0  0  0  0  0
  -24.6781  -34.8861   21.4156 N   0  0  0  0  0  0  0  0  0  0  0  0
  -27.0325  -31.6650   26.9421 N   0  0  0  0  0  0  0  0  0  0  0  0
  -25.6623  -28.6788   28.4497 N   0  3  0  0  0  0  0  0  0  0  0  0
  -27.1939  -20.7313   19.4553 O   0  0  0  0  0  0  0  0  0  0  0  0
  -22.8711  -11.3986   17.2298 O   0  0  0  0  0  0  0  0  0  0  0  0
  -26.7237  -33.9611   22.0338 O   0  0  0  0  0  0  0  0  0  0  0  0
  -25.8853  -25.1950   19.1967 O   0  0  0  0  0  0  0  0  0  0  0  0
  -25.8102  -33.9330   25.6888 O   0  0  0  0  0  0  0  0  0  0  0  0
  -27.2717  -29.4565   26.2768 O   0  0  0  0  0  0  0  0  0  0  0  0
  -31.4218  -15.3642   20.0105 O   0  0  0  0  0  0  0  0  0  0  0  0
  -21.2084  -10.5006   24.7806 O   0  0  0  0  0  0  0  0  0  0  0  0
  -25.8389  -27.8082   19.8284 O   0  0  0  0  0  0  0  0  0  1  0  0
  -27.3907  -23.2583   20.2824 O   0  0  0  0  0  0  0  0  0  0  0  0
  -17.9593   -6.0666   24.3475 F   0  0  0  0  0  0  0  0  0  0  0  0
  -31.1116  -16.6676   22.3063 F   0  0  0  0  0  0  0  0  0  0  0  0
  -19.3416  -10.3030   22.7511 F   0  0  0  0  0  0  0  0  0  0  0  0
  -27.7636  -18.3011   19.3666 F   0  0  0  0  0  0  0  0  0  0  0  0
  1  2  1  0  0  0  0
  1  6  2  0  0  0  0
  2  7  2  0  0  0  0
  3  9  2  0  0  0  0
  3 17  1  0  0  0  0
  4 10  1  0  0  0  0
  4 17  2  0  0  0  0
  5 13  2  0  0  0  0
  5 18  1  0  0  0  0
  6 20  1  0  0  0  0
  7 22  1  0  0  0  0
  8 11  2  0  0  0  0
  8 21  1  0  0  0  0
  9 25  1  0  0  0  0
 10 25  2  0  0  0  0
 11 26  1  0  0  0  0
 12 14  2  0  0  0  0
 12 27  1  0  0  0  0
 13 29  1  0  0  0  0
 14 28  1  0  0  0  0
 15 23  1  0  0  0  0
 15 26  2  0  0  0  0
 16 28  2  0  0  0  0
 16 30  1  0  0  0  0
 17 32  1  0  0  0  0
 18 31  2  0  0  0  0
 18 34  1  0  0  0  0
 19 32  1  0  0  0  0
 19 33  2  0  0  0  0
 19 35  1  0  0  0  0
 20 22  2  0  0  0  0
 20 41  1  0  0  0  0
 21 23  2  0  0  0  0
 21 42  1  0  0  0  0
 22 50  1  0  0  0  0
 23 43  1  0  0  0  0
 24 29  2  0  0  0  0
 24 31  1  0  0  0  0
 24 70  1  0  0  0  0
 25 81  1  0  0  0  0
 26 82  1  0  0  0  0
 27 30  2  0  0  0  0
 27 81  1  0  0  0  0
 28 84  1  0  0  0  0
 29 85  1  0  0  0  0
 30 86  1  0  0  0  0
 31 87  1  0  0  0  0
 32 64  2  0  0  0  0
 33 65  1  0  0  0  0
 33 68  1  0  0  0  0
 34 58  1  0  0  0  0
 34 74  2  0  0  0  0
 35 69  1  0  0  0  0
 35 75  2  0  0  0  0
 36 51  1  0  0  0  0
 36 71  1  0  0  0  0
 36 76  2  0  0  0  0
 37 59  1  0  0  0  0
 37 60  1  0  0  0  0
 37 77  2  0  0  0  0
 38 61  1  0  0  0  0
 38 66  1  0  0  0  0
 38 78  2  0  0  0  0
 39 62  1  0  0  0  0
 39 72  1  0  0  0  0
 39 79  2  0  0  0  0
 40 67  1  0  0  0  0
 40 70  1  0  0  0  0
 40 80  2  0  0  0  0
 41 44  1  0  0  0  0
 42 51  1  0  0  0  0
 43 66  1  0  0  0  0
 44 46  1  0  0  0  0
 45 47  1  0  0  0  0
 45 48  1  0  0  0  0
 46 50  1  0  0  0  0
 47 52  1  0  0  0  0
 48 67  1  0  0  0  0
 49 52  1  0  0  0  0
 49 67  1  0  0  0  0
 50 71  1  0  0  0  0
 51 66  1  0  0  0  0
 52 65  1  0  0  0  0
 53 62  1  0  0  0  0
 54 63  1  0  0  0  0
 55 63  1  0  0  0  0
 56 63  1  0  0  0  0
 57 73  1  0  0  0  0
 58 83  1  0  0  0  0
 59 82  1  0  0  0  0
 60 83  1  0  0  0  0
 61 63  1  0  0  0  0
 61 72  1  0  0  0  0
 62 73  1  0  0  0  0
 64 65  1  0  0  0  0
M  CHG  1  73   1
M  ISO  4  40 100  59 101  70 100  82 101
M  END
> <Batch ID>
0177

> <Smiles>
CNC(C)C(=O)NC(C(=O)N1Cc2cc([101O:1][101CH2:1]C(=O)COCC(=O)c3ccc(F)c([100NH:0][100C:0](=O)N4CCCC(n5nc(-c6ccc(Oc7ccc(F)cc7F)cc6)c(C(N)=O)c5N)C4)c3F)ccc2CC1C(=O)NC1CCCc2ccccc21)C(C)(C)C

> <Shape>
0.279

> <Color>
0.073

> <Negative vol penalty>
0.000

$$$$

  -OEChem-04052304413D

 86 94  0     1  0  0  0  0  0999 V2000
  -27.7993  -36.4656   24.7629 C   0  0  0  0  0  0  0  0  0  0  0  0
  -28.2990  -35.3269   24.1391 C   0  0  0  0  0  0  0  0  0  0  0  0
  -23.6462   -9.8859   22.4107 C   0  0  0  0  0  0  0  0  0  0  0  0
  -23.3042   -9.9609   20.0202 C   0  0  0  0  0  0  0  0  0  0  0  0
  -26.5701  -36.4170   25.4191 C   0  0  0  0  0  0  0  0  0  0  0  0
  -27.5701  -34.1386   24.1720 C   0  0  0  0  0  0  0  0  0  0  0  0
  -27.2477  -29.8943   19.7689 C   0  0  0  0  0  0  0  0  0  0  0  0
  -22.8443   -8.7473   22.4897 C   0  0  0  0  0  0  0  0  0  0  0  0
  -22.5023   -8.8223   20.0992 C   0  0  0  0  0  0  0  0  0  0  0  0
  -27.9065  -28.6791   19.5874 C   0  0  0  0  0  0  0  0  0  0  0  0
  -23.1558   -5.4346   21.8884 C   0  0  0  0  0  0  0  0  0  0  0  0
  -23.6116   -4.3738   22.6710 C   0  0  0  0  0  0  0  0  0  0  0  0
  -26.0385  -27.5242   20.5854 C   0  0  0  0  0  0  0  0  0  0  0  0
  -21.6388   -4.5472   24.0549 C   0  0  0  0  0  0  0  0  0  0  0  0
  -29.3269  -18.6422   16.4925 C   0  0  0  0  0  0  0  0  0  0  0  0
  -23.8761  -10.4927   21.1759 C   0  0  0  0  0  0  0  0  0  0  0  0
  -26.0968  -11.7164   20.8958 C   0  0  0  0  0  0  0  0  0  0  0  0
  -25.8213  -35.2300   25.4518 C   0  0  0  0  0  0  0  0  0  0  0  0
  -25.9819  -29.9347   20.3709 C   0  0  0  0  0  0  0  0  0  0  0  0
  -26.3304  -34.0737   24.8304 C   0  0  0  0  0  0  0  0  0  0  0  0
  -25.3646  -28.7410   20.7711 C   0  0  0  0  0  0  0  0  0  0  0  0
  -22.2724   -8.2155   21.3340 C   0  0  0  0  0  0  0  0  0  0  0  0
  -27.3032  -27.4940   19.9983 C   0  0  0  0  0  0  0  0  0  0  0  0
  -21.9416   -6.0518   22.1891 C   0  0  0  0  0  0  0  0  0  0  0  0
  -22.8531   -3.9300   23.7543 C   0  0  0  0  0  0  0  0  0  0  0  0
  -21.1831   -5.6081   23.2723 C   0  0  0  0  0  0  0  0  0  0  0  0
  -29.2642  -20.0309   16.5215 C   0  0  0  0  0  0  0  0  0  0  0  0
  -28.3717  -17.8944   17.1722 C   0  0  0  0  0  0  0  0  0  0  0  0
  -24.7039  -11.6692   21.0938 C   0  0  0  0  0  0  0  0  0  0  0  0
  -28.2349  -20.6189   17.2388 C   0  0  0  0  0  0  0  0  0  0  0  0
  -27.3825  -18.5780   17.8606 C   0  0  0  0  0  0  0  0  0  0  0  0
  -26.3982  -13.0564   20.8939 C   0  0  0  0  0  0  0  0  0  0  0  0
  -27.0345  -10.6448   20.7285 C   0  0  0  0  0  0  0  0  0  0  0  0
  -27.5227  -24.2773   17.7536 C   0  0  0  0  0  0  0  0  0  0  0  0
  -27.2469  -22.8106   17.9189 C   0  0  0  0  0  0  0  0  0  0  0  0
  -24.7943  -31.2486   23.0105 C   0  0  0  0  0  0  0  0  0  0  0  0
  -21.9770  -30.1844   21.8051 C   0  0  0  0  0  0  0  0  0  0  0  0
  -20.3417  -27.9816   19.7752 C   0  0  0  0  0  0  0  0  0  0  0  0
  -25.3369  -18.2853   19.3015 C   0  0  0  0  0  0  0  0  0  0  0  0
  -24.5199  -35.2134   26.2140 C   0  0  0  0  0  0  0  0  0  0  0  0
  -25.2729  -31.2511   20.5352 C   0  0  0  0  0  0  0  0  0  0  0  0
  -23.9980  -28.7283   21.4041 C   0  0  0  0  0  0  0  0  0  0  0  0
  -23.6350  -34.0147   25.8821 C   0  0  0  0  0  0  0  0  0  0  0  0
  -23.5783  -17.0685   22.1482 C   0  0  0  0  0  0  0  0  0  0  0  0
  -24.4547  -32.7282   25.8875 C   0  0  0  0  0  0  0  0  0  0  0  0
  -23.8289  -15.5592   22.1114 C   0  0  0  0  0  0  0  0  0  0  0  0
  -23.4164  -17.6509   20.7453 C   0  0  0  0  0  0  0  0  0  0  0  0
  -24.7558  -15.8249   19.7753 C   0  0  0  0  0  0  0  0  0  0  0  0
  -25.5577  -32.7725   24.8231 C   0  0  1  0  0  0  0  0  0  0  0  0
  -24.2080  -31.2240   21.6272 C   0  0  1  0  0  0  0  0  0  0  0  0
  -24.9900  -15.2038   21.1620 C   0  0  2  0  0  0  0  0  0  0  0  0
  -18.0367  -27.3316   19.0257 C   0  0  0  0  0  0  0  0  0  0  0  0
  -21.5039  -28.7900   24.4775 C   0  0  0  0  0  0  0  0  0  0  0  0
  -19.7235  -27.4224   23.3695 C   0  0  0  0  0  0  0  0  0  0  0  0
  -19.4839  -29.9014   23.5087 C   0  0  0  0  0  0  0  0  0  0  0  0
  -20.9580  -28.6085   16.9493 C   0  0  0  0  0  0  0  0  0  0  0  0
  -28.8748  -24.7639   18.2267 C   0  0  0  0  0  0  0  0  0  0  0  0
  -28.8316  -26.2057   18.7099 C   0  0  0  0  0  0  0  0  0  1  0  0
  -21.1798  -28.9075   21.9188 C   0  0  1  0  0  0  0  0  0  0  0  0
  -19.2591  -28.1870   18.7311 C   0  0  2  0  0  0  0  0  0  0  0  0
  -20.4994  -28.7554   23.3085 C   0  0  0  0  0  0  0  0  0  0  0  0
  -24.1581  -12.8828   21.2094 N   0  0  0  0  0  0  0  0  0  0  0  0
  -27.2890  -19.9258   17.9115 N   0  0  0  0  0  0  0  0  0  0  0  0
  -25.2136  -13.7051   21.0838 N   0  0  0  0  0  0  0  0  0  0  0  0
  -23.3481  -30.0413   21.5490 N   0  0  0  0  0  0  0  0  0  0  0  0
  -24.5551  -17.2768   19.9036 N   0  0  0  0  0  0  0  0  0  0  0  0
  -27.5582  -13.7313   20.7484 N   0  0  0  0  0  0  0  0  0  0  0  0
  -26.5560   -9.3278   20.7564 N   0  0  0  0  0  0  0  0  0  0  0  0
  -28.1767  -22.0318   17.2643 N   0  0  0  0  0  0  0  0  0  0  0  0
  -26.4118  -17.8104   18.5508 N   0  0  0  0  0  0  0  0  0  0  0  0
  -25.0036  -32.5197   23.5103 N   0  0  0  0  0  0  0  0  0  0  0  0
  -20.2498  -28.9055   20.7947 N   0  0  0  0  0  0  0  0  0  0  0  0
  -19.7696  -27.8270   17.3780 N   0  3  0  0  0  0  0  0  0  0  0  0
  -28.2628  -10.8486   20.5757 O   0  0  0  0  0  0  0  0  0  0  0  0
  -26.6454  -24.9575   17.2435 O   0  0  0  0  0  0  0  0  0  0  0  0
  -26.2863  -22.5097   18.6077 O   0  0  0  0  0  0  0  0  0  0  0  0
  -25.0374  -30.1925   23.5825 O   0  0  0  0  0  0  0  0  0  0  0  0
  -21.4031  -31.2689   21.9316 O   0  0  0  0  0  0  0  0  0  0  0  0
  -21.1824  -27.0885   19.6964 O   0  0  0  0  0  0  0  0  0  0  0  0
  -25.0885  -19.4828   19.4638 O   0  0  0  0  0  0  0  0  0  0  0  0
  -21.4901   -7.1043   21.4106 O   0  0  0  0  0  0  0  0  0  0  0  0
  -27.9443  -26.3066   19.8230 O   0  0  0  0  0  0  0  0  0  1  0  0
  -23.2901   -2.9103   24.5048 F   0  0  0  0  0  0  0  0  0  0  0  0
  -20.0152   -6.1963   23.5653 F   0  0  0  0  0  0  0  0  0  0  0  0
  -30.1776  -20.7638   15.8715 F   0  0  0  0  0  0  0  0  0  0  0  0
  -28.4196  -16.5562   17.1524 F   0  0  0  0  0  0  0  0  0  0  0  0
  1  2  1  0  0  0  0
  1  5  2  0  0  0  0
  2  6  2  0  0  0  0
  3  8  2  0  0  0  0
  3 16  1  0  0  0  0
  4  9  1  0  0  0  0
  4 16  2  0  0  0  0
  5 18  1  0  0  0  0
  6 20  1  0  0  0  0
  7 10  2  0  0  0  0
  7 19  1  0  0  0  0
  8 22  1  0  0  0  0
  9 22  2  0  0  0  0
 10 23  1  0  0  0  0
 11 12  2  0  0  0  0
 11 24  1  0  0  0  0
 12 25  1  0  0  0  0
 13 21  1  0  0  0  0
 13 23  2  0  0  0  0
 14 25  2  0  0  0  0
 14 26  1  0  0  0  0
 15 27  1  0  0  0  0
 15 28  2  0  0  0  0
 16 29  1  0  0  0  0
 17 29  1  0  0  0  0
 17 32  2  0  0  0  0
 17 33  1  0  0  0  0
 18 20  2  0  0  0  0
 18 40  1  0  0  0  0
 19 21  2  0  0  0  0
 19 41  1  0  0  0  0
 20 49  1  0  0  0  0
 21 42  1  0  0  0  0
 22 81  1  0  0  0  0
 23 82  1  0  0  0  0
 24 26  2  0  0  0  0
 24 81  1  0  0  0  0
 25 83  1  0  0  0  0
 26 84  1  0  0  0  0
 27 30  2  0  0  0  0
 27 85  1  0  0  0  0
 28 31  1  0  0  0  0
 28 86  1  0  0  0  0
 29 62  2  0  0  0  0
 30 63  1  0  0  0  0
 30 69  1  0  0  0  0
 31 63  2  0  0  0  0
 31 70  1  0  0  0  0
 32 64  1  0  0  0  0
 32 67  1  0  0  0  0
 33 68  1  0  0  0  0
 33 74  2  0  0  0  0
 34 35  1  0  0  0  0
 34 57  1  0  0  0  0
 34 75  2  0  0  0  0
 35 69  1  0  0  0  0
 35 76  2  0  0  0  0
 36 50  1  0  0  0  0
 36 71  1  0  0  0  0
 36 77  2  0  0  0  0
 37 59  1  0  0  0  0
 37 65  1  0  0  0  0
 37 78  2  0  0  0  0
 38 60  1  0  0  0  0
 38 72  1  0  0  0  0
 38 79  2  0  0  0  0
 39 66  1  0  0  0  0
 39 70  1  0  0  0  0
 39 80  2  0  0  0  0
 40 43  1  0  0  0  0
 41 50  1  0  0  0  0
 42 65  1  0  0  0  0
 43 45  1  0  0  0  0
 44 46  1  0  0  0  0
 44 47  1  0  0  0  0
 45 49  1  0  0  0  0
 46 51  1  0  0  0  0
 47 66  1  0  0  0  0
 48 51  1  0  0  0  0
 48 66  1  0  0  0  0
 49 71  1  0  0  0  0
 50 65  1  0  0  0  0
 51 64  1  0  0  0  0
 52 60  1  0  0  0  0
 53 61  1  0  0  0  0
 54 61  1  0  0  0  0
 55 61  1  0  0  0  0
 56 73  1  0  0  0  0
 57 58  1  0  0  0  0
 58 82  1  0  0  0  0
 59 61  1  0  0  0  0
 59 72  1  0  0  0  0
 60 73  1  0  0  0  0
 62 64  1  0  0  0  0
M  CHG  1  73   1
M  ISO  4  39 100  58 101  70 100  82 101
M  END
> <Batch ID>
0177

> <Smiles>
CNC(C)C(=O)NC(C(=O)N1Cc2cc([101O:1][101CH2:1]CC(=O)C(=O)Nc3nc([100NH:0][100C:0](=O)N4CCCC(n5nc(-c6ccc(Oc7ccc(F)cc7F)cc6)c(C(N)=O)c5N)C4)c(F)cc3F)ccc2CC1C(=O)NC1CCCc2ccccc21)C(C)(C)C

> <Shape>
0.293

> <Color>
0.103

> <Negative vol penalty>
0.000

$$$$

  -OEChem-04052304413D

 85 93  0     1  0  0  0  0  0999 V2000
  -28.9305  -23.6188    7.5753 C   0  0  0  0  0  0  0  0  0  0  0  0
  -29.5019  -22.7202    8.4705 C   0  0  0  0  0  0  0  0  0  0  0  0
  -23.0626   -9.8768   20.0953 C   0  0  0  0  0  0  0  0  0  0  0  0
  -23.8003  -10.0412   22.3900 C   0  0  0  0  0  0  0  0  0  0  0  0
  -28.9762  -24.9873    7.8383 C   0  0  0  0  0  0  0  0  0  0  0  0
  -30.1203  -23.1896    9.6288 C   0  0  0  0  0  0  0  0  0  0  0  0
  -30.2243  -20.4613   15.1107 C   0  0  0  0  0  0  0  0  0  0  0  0
  -22.2984   -8.7564   20.4212 C   0  0  0  0  0  0  0  0  0  0  0  0
  -23.0360   -8.9208   22.7160 C   0  0  0  0  0  0  0  0  0  0  0  0
  -31.1806  -19.6714   15.7473 C   0  0  0  0  0  0  0  0  0  0  0  0
  -20.4358   -5.6370   20.5748 C   0  0  0  0  0  0  0  0  0  0  0  0
  -20.4920   -4.5395   19.7158 C   0  0  0  0  0  0  0  0  0  0  0  0
  -32.0111  -21.6190   16.9032 C   0  0  0  0  0  0  0  0  0  0  0  0
  -22.8703   -4.3599   20.1009 C   0  0  0  0  0  0  0  0  0  0  0  0
  -23.8136  -10.5192   21.0797 C   0  0  0  0  0  0  0  0  0  0  0  0
  -24.1961  -13.0233   20.7782 C   0  0  0  0  0  0  0  0  0  0  0  0
  -29.5869  -25.4730    9.0052 C   0  0  0  0  0  0  0  0  0  0  0  0
  -30.1612  -21.8402   15.3577 C   0  0  0  0  0  0  0  0  0  0  0  0
  -30.1753  -24.5659    9.9070 C   0  0  0  0  0  0  0  0  0  0  0  0
  -31.0514  -22.4238   16.2704 C   0  0  0  0  0  0  0  0  0  0  0  0
  -22.2851   -8.2784   21.7315 C   0  0  0  0  0  0  0  0  0  0  0  0
  -32.0761  -20.2507   16.6415 C   0  0  0  0  0  0  0  0  0  0  0  0
  -21.5968   -6.0961   21.1968 C   0  0  0  0  0  0  0  0  0  0  0  0
  -21.7092   -3.9010   19.4788 C   0  0  0  0  0  0  0  0  0  0  0  0
  -22.8141   -5.4575   20.9599 C   0  0  0  0  0  0  0  0  0  0  0  0
  -24.6037  -11.6763   20.7435 C   0  0  0  0  0  0  0  0  0  0  0  0
  -31.9128  -18.7500   21.8432 C   0  0  0  0  0  0  0  0  0  0  0  0
  -25.3034  -13.7276   20.3727 C   0  0  0  0  0  0  0  0  0  0  0  0
  -30.8097  -19.1867   22.5463 C   0  0  0  0  0  0  0  0  0  0  0  0
  -30.6509  -16.9708   21.6152 C   0  0  0  0  0  0  0  0  0  0  0  0
  -22.9299  -13.5874   21.1444 C   0  0  0  0  0  0  0  0  0  0  0  0
  -33.1380  -19.5410   21.6408 C   0  0  0  0  0  0  0  0  0  0  0  0
  -30.5125  -24.4551   13.5849 C   0  0  0  0  0  0  0  0  0  0  0  0
  -29.5790  -25.9535   16.3062 C   0  0  0  0  0  0  0  0  0  0  0  0
  -29.3134  -25.8823   19.7079 C   0  0  0  0  0  0  0  0  0  0  0  0
  -30.7834  -14.7015   20.5293 C   0  0  0  0  0  0  0  0  0  0  0  0
  -29.6532  -26.9639    9.2232 C   0  0  0  0  0  0  0  0  0  0  0  0
  -29.1064  -22.6739   14.6832 C   0  0  0  0  0  0  0  0  0  0  0  0
  -31.0122  -23.8961   16.5856 C   0  0  0  0  0  0  0  0  0  0  0  0
  -29.9977  -27.3550   10.6580 C   0  0  0  0  0  0  0  0  0  0  0  0
  -29.6542  -12.1370   18.3326 C   0  0  0  0  0  0  0  0  0  0  0  0
  -31.1746  -26.5296   11.1683 C   0  0  0  0  0  0  0  0  0  0  0  0
  -28.2060  -11.8993   18.7669 C   0  0  0  0  0  0  0  0  0  0  0  0
  -30.5611  -12.4398   19.5240 C   0  0  0  0  0  0  0  0  0  0  0  0
  -28.6525  -13.2923   20.8278 C   0  0  0  0  0  0  0  0  0  0  0  0
  -30.8333  -25.0347   11.1866 C   0  0  1  0  0  0  0  0  0  0  0  0
  -29.4656  -24.1552   14.6201 C   0  0  1  0  0  0  0  0  0  0  0  0
  -27.6885  -13.0475   19.6554 C   0  0  2  0  0  0  0  0  0  0  0  0
  -35.2429  -17.7407   22.9448 C   0  0  0  0  0  0  0  0  0  0  0  0
  -28.5436  -27.2682   21.6531 C   0  0  0  0  0  0  0  0  0  0  0  0
  -35.5106  -19.9220   20.7722 C   0  0  0  0  0  0  0  0  0  0  0  0
  -32.0906  -27.6704   16.0739 C   0  0  0  0  0  0  0  0  0  0  0  0
  -31.7713  -28.3378   18.4657 C   0  0  0  0  0  0  0  0  0  0  0  0
  -30.0363  -28.9158   16.7691 C   0  0  0  0  0  0  0  0  0  0  0  0
  -27.2918  -23.8681   20.4920 C   0  0  0  0  0  0  0  0  0  0  0  0
  -34.7673  -17.6142   21.4997 C   0  0  0  0  0  0  0  0  0  0  0  0
  -33.8599  -18.6727   19.3723 C   0  0  0  0  0  0  0  0  0  0  0  0
  -33.4317  -19.8958   18.5630 C   0  0  0  0  0  0  0  0  0  1  0  0
  -30.2881  -26.5134   17.5156 C   0  0  1  0  0  0  0  0  0  0  0  0
  -28.1560  -26.2072   20.6349 C   0  0  2  0  0  0  0  0  0  0  0  0
  -34.3152  -18.9471   20.8324 C   0  0  1  0  0  0  0  0  0  0  0  0
  -31.0488  -27.8319   17.1989 C   0  0  0  0  0  0  0  0  0  0  0  0
  -25.8709  -11.5311   20.3471 N   0  0  0  0  0  0  0  0  0  0  0  0
  -31.8238  -17.4794   21.3089 N   0  0  0  0  0  0  0  0  0  0  0  0
  -26.2691  -12.7960   20.1289 N   0  0  0  0  0  0  0  0  0  0  0  0
  -29.9669  -24.6701   15.8960 N   0  0  0  0  0  0  0  0  0  0  0  0
  -30.0099  -13.5406   20.3173 N   0  0  0  0  0  0  0  0  0  0  0  0
  -25.5353  -15.0468   20.2044 N   0  0  0  0  0  0  0  0  0  0  0  0
  -30.6279  -20.3769   23.1695 N   0  0  0  0  0  0  0  0  0  0  0  0
  -21.9006  -12.7207   21.5365 N   0  0  0  0  0  0  0  0  0  0  0  0
  -30.1427  -15.6938   21.2706 N   0  0  0  0  0  0  0  0  0  0  0  0
  -30.0018  -24.7201   12.3286 N   0  0  0  0  0  0  0  0  0  0  0  0
  -29.2762  -26.6431   18.5585 N   0  0  0  0  0  0  0  0  0  0  0  0
  -27.7231  -24.9856   21.3707 N   0  3  0  0  0  0  0  0  0  0  0  0
  -22.7124  -14.8223   21.1086 O   0  0  0  0  0  0  0  0  0  0  0  0
  -33.1668  -20.6532   22.1641 O   0  0  0  0  0  0  0  0  0  0  0  0
  -31.6960  -24.4480   13.9028 O   0  0  0  0  0  0  0  0  0  0  0  0
  -28.7077  -26.6271   15.7504 O   0  0  0  0  0  0  0  0  0  0  0  0
  -30.1673  -25.0407   19.9781 O   0  0  0  0  0  0  0  0  0  0  0  0
  -31.9194  -14.8185   20.0627 O   0  0  0  0  0  0  0  0  0  0  0  0
  -21.5393   -7.1853   22.0500 O   0  0  0  0  0  0  0  0  0  0  0  0
  -33.0109  -19.4821   17.2638 O   0  0  0  0  0  0  0  0  0  1  0  0
  -21.7628   -2.8461   18.6551 F   0  0  0  0  0  0  0  0  0  0  0  0
  -23.9327   -5.8932   21.5555 F   0  0  0  0  0  0  0  0  0  0  0  0
  -29.6052  -17.9658   22.5433 S   0  0  0  0  0  0  0  0  0  0  0  0
  1  2  1  0  0  0  0
  1  5  2  0  0  0  0
  2  6  2  0  0  0  0
  3  8  2  0  0  0  0
  3 15  1  0  0  0  0
  4  9  1  0  0  0  0
  4 15  2  0  0  0  0
  5 17  1  0  0  0  0
  6 19  1  0  0  0  0
  7 10  2  0  0  0  0
  7 18  1  0  0  0  0
  8 21  1  0  0  0  0
  9 21  2  0  0  0  0
 10 22  1  0  0  0  0
 11 12  2  0  0  0  0
 11 23  1  0  0  0  0
 12 24  1  0  0  0  0
 13 20  1  0  0  0  0
 13 22  2  0  0  0  0
 14 24  2  0  0  0  0
 14 25  1  0  0  0  0
 15 26  1  0  0  0  0
 16 26  1  0  0  0  0
 16 28  2  0  0  0  0
 16 31  1  0  0  0  0
 17 19  2  0  0  0  0
 17 37  1  0  0  0  0
 18 20  2  0  0  0  0
 18 38  1  0  0  0  0
 19 46  1  0  0  0  0
 20 39  1  0  0  0  0
 21 81  1  0  0  0  0
 22 82  1  0  0  0  0
 23 25  2  0  0  0  0
 23 81  1  0  0  0  0
 24 83  1  0  0  0  0
 25 84  1  0  0  0  0
 26 63  2  0  0  0  0
 27 29  2  0  0  0  0
 27 32  1  0  0  0  0
 27 64  1  0  0  0  0
 28 65  1  0  0  0  0
 28 68  1  0  0  0  0
 29 69  1  0  0  0  0
 29 85  1  0  0  0  0
 30 64  2  0  0  0  0
 30 71  1  0  0  0  0
 30 85  1  0  0  0  0
 31 70  1  0  0  0  0
 31 75  2  0  0  0  0
 32 61  1  0  0  0  0
 32 76  2  0  0  0  0
 33 47  1  0  0  0  0
 33 72  1  0  0  0  0
 33 77  2  0  0  0  0
 34 59  1  0  0  0  0
 34 66  1  0  0  0  0
 34 78  2  0  0  0  0
 35 60  1  0  0  0  0
 35 73  1  0  0  0  0
 35 79  2  0  0  0  0
 36 67  1  0  0  0  0
 36 71  1  0  0  0  0
 36 80  2  0  0  0  0
 37 40  1  0  0  0  0
 38 47  1  0  0  0  0
 39 66  1  0  0  0  0
 40 42  1  0  0  0  0
 41 43  1  0  0  0  0
 41 44  1  0  0  0  0
 42 46  1  0  0  0  0
 43 48  1  0  0  0  0
 44 67  1  0  0  0  0
 45 48  1  0  0  0  0
 45 67  1  0  0  0  0
 46 72  1  0  0  0  0
 47 66  1  0  0  0  0
 48 65  1  0  0  0  0
 49 56  1  0  0  0  0
 50 60  1  0  0  0  0
 51 61  1  0  0  0  0
 52 62  1  0  0  0  0
 53 62  1  0  0  0  0
 54 62  1  0  0  0  0
 55 74  1  0  0  0  0
 56 61  1  0  0  0  0
 57 58  1  0  0  0  0
 57 61  1  0  0  0  0
 58 82  1  0  0  0  0
 59 62  1  0  0  0  0
 59 73  1  0  0  0  0
 60 74  1  0  0  0  0
 63 65  1  0  0  0  0
M  CHG  1  74   1
M  ISO  4  36 100  58 101  71 100  82 101
M  END
> <Batch ID>
0177

> <Smiles>
CCC(C)(C[101CH2:1][101O:1]c1ccc2c(c1)CN(C(=O)C(NC(=O)C(C)NC)C(C)(C)C)C(C(=O)NC1CCCc3ccccc31)C2)C(=O)c1nc([100NH:0][100C:0](=O)N2CCCC(n3nc(-c4ccc(Oc5ccc(F)cc5F)cc4)c(C(N)=O)c3N)C2)sc1N

> <Shape>
0.198

> <Color>
0.181

> <Negative vol penalty>
0.000

$$$$

  -OEChem-04052304413D

 88 96  0     1  0  0  0  0  0999 V2000
  -29.8793  -32.0400   16.7518 C   0  0  0  0  0  0  0  0  0  0  0  0
  -29.4927  -31.3631   17.9040 C   0  0  0  0  0  0  0  0  0  0  0  0
  -22.9895  -10.0078   19.8573 C   0  0  0  0  0  0  0  0  0  0  0  0
  -23.8361   -9.7417   22.1044 C   0  0  0  0  0  0  0  0  0  0  0  0
  -30.4712  -31.3419   15.7000 C   0  0  0  0  0  0  0  0  0  0  0  0
  -29.6968  -29.9873   18.0047 C   0  0  0  0  0  0  0  0  0  0  0  0
  -31.1040  -26.8347   23.0630 C   0  0  0  0  0  0  0  0  0  0  0  0
  -22.2280   -8.8488   20.0069 C   0  0  0  0  0  0  0  0  0  0  0  0
  -23.0746   -8.5827   22.2541 C   0  0  0  0  0  0  0  0  0  0  0  0
  -30.3285  -26.0881   23.9490 C   0  0  0  0  0  0  0  0  0  0  0  0
  -23.2637   -5.3394   21.3180 C   0  0  0  0  0  0  0  0  0  0  0  0
  -23.8811   -4.2278   21.8915 C   0  0  0  0  0  0  0  0  0  0  0  0
  -29.9561  -17.3558   23.2228 C   0  0  0  0  0  0  0  0  0  0  0  0
  -30.9094  -24.0757   22.7524 C   0  0  0  0  0  0  0  0  0  0  0  0
  -22.2506   -4.2419   23.6743 C   0  0  0  0  0  0  0  0  0  0  0  0
  -23.7936  -10.4542   20.9060 C   0  0  0  0  0  0  0  0  0  0  0  0
  -30.4768  -18.5246   23.7668 C   0  0  0  0  0  0  0  0  0  0  0  0
  -24.1916  -12.9696   21.0549 C   0  0  0  0  0  0  0  0  0  0  0  0
  -30.6914  -29.9586   15.7917 C   0  0  0  0  0  0  0  0  0  0  0  0
  -31.7804  -26.2076   22.0067 C   0  0  0  0  0  0  0  0  0  0  0  0
  -30.2909  -29.2699   16.9526 C   0  0  0  0  0  0  0  0  0  0  0  0
  -31.6949  -24.8162   21.8559 C   0  0  0  0  0  0  0  0  0  0  0  0
  -22.2705   -8.1362   21.2053 C   0  0  0  0  0  0  0  0  0  0  0  0
  -30.2288  -24.7088   23.7922 C   0  0  0  0  0  0  0  0  0  0  0  0
  -22.1398   -5.9023   21.9228 C   0  0  0  0  0  0  0  0  0  0  0  0
  -23.3746   -3.6791   23.0696 C   0  0  0  0  0  0  0  0  0  0  0  0
  -21.6332   -5.3535   23.1009 C   0  0  0  0  0  0  0  0  0  0  0  0
  -31.7333  -18.9695   23.3709 C   0  0  0  0  0  0  0  0  0  0  0  0
  -24.5809  -11.6511   20.7519 C   0  0  0  0  0  0  0  0  0  0  0  0
  -30.7254  -16.6737   22.2940 C   0  0  0  0  0  0  0  0  0  0  0  0
  -32.4232  -18.2151   22.4356 C   0  0  0  0  0  0  0  0  0  0  0  0
  -25.2869  -13.7335   20.7336 C   0  0  0  0  0  0  0  0  0  0  0  0
  -29.6904  -19.2928   24.7661 C   0  0  0  0  0  0  0  0  0  0  0  0
  -22.9508  -13.4600   21.5800 C   0  0  0  0  0  0  0  0  0  0  0  0
  -31.6580  -26.4000   18.8362 C   0  0  0  0  0  0  0  0  0  0  0  0
  -29.4668  -22.1927   26.2899 C   0  0  0  0  0  0  0  0  0  0  0  0
  -34.2129  -24.4086   19.0060 C   0  0  0  0  0  0  0  0  0  0  0  0
  -35.9555  -22.0770   20.7875 C   0  0  0  0  0  0  0  0  0  0  0  0
  -30.7794  -14.6446   20.8020 C   0  0  0  0  0  0  0  0  0  0  0  0
  -31.2916  -29.2391   14.6098 C   0  0  0  0  0  0  0  0  0  0  0  0
  -32.6343  -27.0237   21.0754 C   0  0  0  0  0  0  0  0  0  0  0  0
  -32.4178  -24.0924   20.7504 C   0  0  0  0  0  0  0  0  0  0  0  0
  -31.8142  -27.8449   14.9465 C   0  0  0  0  0  0  0  0  0  0  0  0
  -29.5176  -12.5350   18.2262 C   0  0  0  0  0  0  0  0  0  0  0  0
  -30.7896  -27.0765   15.7751 C   0  0  0  0  0  0  0  0  0  0  0  0
  -28.0887  -12.2255   18.6786 C   0  0  0  0  0  0  0  0  0  0  0  0
  -30.4831  -12.6091   19.4078 C   0  0  0  0  0  0  0  0  0  0  0  0
  -28.6482  -13.2111   20.9375 C   0  0  0  0  0  0  0  0  0  0  0  0
  -30.5182  -27.7820   17.1094 C   0  0  1  0  0  0  0  0  0  0  0  0
  -32.8657  -26.3458   19.7285 C   0  0  1  0  0  0  0  0  0  0  0  0
  -27.6273  -13.1907   19.7882 C   0  0  2  0  0  0  0  0  0  0  0  0
  -30.6985  -20.8064   27.9849 C   0  0  0  0  0  0  0  0  0  0  0  0
  -37.9817  -20.6028   20.6499 C   0  0  0  0  0  0  0  0  0  0  0  0
  -32.7151  -22.5297   17.1255 C   0  0  0  0  0  0  0  0  0  0  0  0
  -34.3142  -20.7165   17.7761 C   0  0  0  0  0  0  0  0  0  0  0  0
  -35.1558  -22.7690   16.6351 C   0  0  0  0  0  0  0  0  0  0  0  0
  -34.5106  -17.9897   21.0874 C   0  0  0  0  0  0  0  0  0  0  0  0
  -37.1990  -23.3694   23.1418 C   0  0  0  0  0  0  0  0  0  0  0  0
  -29.8795  -22.6317   24.8964 C   0  0  0  0  0  0  0  0  0  1  0  0
  -29.8088  -20.7761   26.7515 C   0  0  2  0  0  0  0  0  0  0  0  0
  -34.4006  -22.9111   19.0438 C   0  0  1  0  0  0  0  0  0  0  0  0
  -37.4352  -21.9483   21.1013 C   0  0  2  0  0  0  0  0  0  0  0  0
  -34.1311  -22.2451   17.6649 C   0  0  0  0  0  0  0  0  0  0  0  0
  -25.8262  -11.5780   20.2745 N   0  0  0  0  0  0  0  0  0  0  0  0
  -31.9499  -17.0747   21.8849 N   0  0  0  0  0  0  0  0  0  0  0  0
  -26.2289  -12.8602   20.2751 N   0  0  0  0  0  0  0  0  0  0  0  0
  -33.2350  -24.9351   19.8618 N   0  0  0  0  0  0  0  0  0  0  0  0
  -29.9830  -13.5455   20.4167 N   0  0  0  0  0  0  0  0  0  0  0  0
  -25.5265  -15.0603   20.8012 N   0  0  0  0  0  0  0  0  0  0  0  0
  -21.9308  -12.5388   21.8544 N   0  0  0  0  0  0  0  0  0  0  0  0
  -30.1863  -15.4843   21.7442 N   0  0  0  0  0  0  0  0  0  0  0  0
  -33.7025  -18.6784   22.0404 N   0  0  0  0  0  0  0  0  0  0  0  0
  -30.4259  -20.0043   25.7056 N   0  0  0  0  0  0  0  0  0  0  0  0
  -31.5951  -27.5296   18.0427 N   0  0  0  0  0  0  0  0  0  0  0  0
  -35.7431  -22.6810   19.5663 N   0  0  0  0  0  0  0  0  0  0  0  0
  -37.6674  -22.0819   22.5673 N   0  3  0  0  0  0  0  0  0  0  0  0
  -28.4636  -19.2469   24.7279 O   0  0  0  0  0  0  0  0  0  0  0  0
  -22.7467  -14.6808   21.7839 O   0  0  0  0  0  0  0  0  0  0  0  0
  -30.8443  -25.4842   18.8645 O   0  0  0  0  0  0  0  0  0  0  0  0
  -28.8196  -22.9453   27.0233 O   0  0  0  0  0  0  0  0  0  0  0  0
  -34.9133  -25.0869   18.2504 O   0  0  0  0  0  0  0  0  0  0  0  0
  -35.0762  -21.6780   21.5478 O   0  0  0  0  0  0  0  0  0  0  0  0
  -31.8936  -14.8425   20.3107 O   0  0  0  0  0  0  0  0  0  0  0  0
  -21.5274   -7.0053   21.3518 O   0  0  0  0  0  0  0  0  0  0  0  0
  -29.4721  -23.9779   24.6552 O   0  0  0  0  0  0  0  0  0  1  0  0
  -23.9667   -2.6108   23.6193 F   0  0  0  0  0  0  0  0  0  0  0  0
  -20.5531   -5.8892   23.6858 F   0  0  0  0  0  0  0  0  0  0  0  0
  -32.2559  -20.0942   23.8790 F   0  0  0  0  0  0  0  0  0  0  0  0
  1  2  1  0  0  0  0
  1  5  2  0  0  0  0
  2  6  2  0  0  0  0
  3  8  2  0  0  0  0
  3 16  1  0  0  0  0
  4  9  1  0  0  0  0
  4 16  2  0  0  0  0
  5 19  1  0  0  0  0
  6 21  1  0  0  0  0
  7 10  2  0  0  0  0
  7 20  1  0  0  0  0
  8 23  1  0  0  0  0
  9 23  2  0  0  0  0
 10 24  1  0  0  0  0
 11 12  2  0  0  0  0
 11 25  1  0  0  0  0
 12 26  1  0  0  0  0
 13 17  2  0  0  0  0
 13 30  1  0  0  0  0
 14 22  1  0  0  0  0
 14 24  2  0  0  0  0
 15 26  2  0  0  0  0
 15 27  1  0  0  0  0
 16 29  1  0  0  0  0
 17 28  1  0  0  0  0
 17 33  1  0  0  0  0
 18 29  1  0  0  0  0
 18 32  2  0  0  0  0
 18 34  1  0  0  0  0
 19 21  2  0  0  0  0
 19 40  1  0  0  0  0
 20 22  2  0  0  0  0
 20 41  1  0  0  0  0
 21 49  1  0  0  0  0
 22 42  1  0  0  0  0
 23 84  1  0  0  0  0
 24 85  1  0  0  0  0
 25 27  2  0  0  0  0
 25 84  1  0  0  0  0
 26 86  1  0  0  0  0
 27 87  1  0  0  0  0
 28 31  2  0  0  0  0
 28 88  1  0  0  0  0
 29 64  2  0  0  0  0
 30 65  2  0  0  0  0
 30 71  1  0  0  0  0
 31 65  1  0  0  0  0
 31 72  1  0  0  0  0
 32 66  1  0  0  0  0
 32 69  1  0  0  0  0
 33 73  1  0  0  0  0
 33 77  2  0  0  0  0
 34 70  1  0  0  0  0
 34 78  2  0  0  0  0
 35 50  1  0  0  0  0
 35 74  1  0  0  0  0
 35 79  2  0  0  0  0
 36 59  1  0  0  0  0
 36 60  1  0  0  0  0
 36 80  2  0  0  0  0
 37 61  1  0  0  0  0
 37 67  1  0  0  0  0
 37 81  2  0  0  0  0
 38 62  1  0  0  0  0
 38 75  1  0  0  0  0
 38 82  2  0  0  0  0
 39 68  1  0  0  0  0
 39 71  1  0  0  0  0
 39 83  2  0  0  0  0
 40 43  1  0  0  0  0
 41 50  1  0  0  0  0
 42 67  1  0  0  0  0
 43 45  1  0  0  0  0
 44 46  1  0  0  0  0
 44 47  1  0  0  0  0
 45 49  1  0  0  0  0
 46 51  1  0  0  0  0
 47 68  1  0  0  0  0
 48 51  1  0  0  0  0
 48 68  1  0  0  0  0
 49 74  1  0  0  0  0
 50 67  1  0  0  0  0
 51 66  1  0  0  0  0
 52 60  1  0  0  0  0
 53 62  1  0  0  0  0
 54 63  1  0  0  0  0
 55 63  1  0  0  0  0
 56 63  1  0  0  0  0
 57 72  1  0  0  0  0
 58 76  1  0  0  0  0
 59 85  1  0  0  0  0
 60 73  1  0  0  0  0
 61 63  1  0  0  0  0
 61 75  1  0  0  0  0
 62 76  1  0  0  0  0
 64 66  1  0  0  0  0
M  CHG  1  76   1
M  ISO  4  39 100  59 101  71 100  85 101
M  END
> <Batch ID>
0177

> <Smiles>
CNc1nc([100NH:0][100C:0](=O)N2CCCC(n3nc(-c4ccc(Oc5ccc(F)cc5F)cc4)c(C(N)=O)c3N)C2)cc(C(=O)NC(C)C(=O)[101CH2:1][101O:1]c2ccc3c(c2)CN(C(=O)C(NC(=O)C(C)NC)C(C)(C)C)C(C(=O)NC2CCCc4ccccc42)C3)c1F

> <Shape>
0.193

> <Color>
0.186

> <Negative vol penalty>
0.000

$$$$

  -OEChem-04052304413D

 88 96  0     1  0  0  0  0  0999 V2000
  -27.6850  -32.6643   27.4064 C   0  0  0  0  0  0  0  0  0  0  0  0
  -27.8931  -31.6225   26.5081 C   0  0  0  0  0  0  0  0  0  0  0  0
  -23.3531   -9.0285   21.4884 C   0  0  0  0  0  0  0  0  0  0  0  0
  -24.0921   -9.8989   23.6175 C   0  0  0  0  0  0  0  0  0  0  0  0
  -26.3875  -33.0824   27.6987 C   0  0  0  0  0  0  0  0  0  0  0  0
  -26.8036  -30.9976   25.9024 C   0  0  0  0  0  0  0  0  0  0  0  0
  -27.4916  -30.2752   20.9375 C   0  0  0  0  0  0  0  0  0  0  0  0
  -23.4106   -7.7316   21.9986 C   0  0  0  0  0  0  0  0  0  0  0  0
  -24.1495   -8.6020   24.1278 C   0  0  0  0  0  0  0  0  0  0  0  0
  -28.3057  -29.2097   20.5559 C   0  0  0  0  0  0  0  0  0  0  0  0
  -21.5175   -5.7465   23.9755 C   0  0  0  0  0  0  0  0  0  0  0  0
  -20.4454   -4.8958   23.7061 C   0  0  0  0  0  0  0  0  0  0  0  0
  -26.3440  -27.8814   20.1015 C   0  0  0  0  0  0  0  0  0  0  0  0
  -28.8716  -18.2531   22.0750 C   0  0  0  0  0  0  0  0  0  0  0  0
  -21.9407   -3.3676   22.5811 C   0  0  0  0  0  0  0  0  0  0  0  0
  -23.6940  -10.1122   22.2978 C   0  0  0  0  0  0  0  0  0  0  0  0
  -22.5334  -12.3277   21.7959 C   0  0  0  0  0  0  0  0  0  0  0  0
  -25.2819  -32.4687   27.0890 C   0  0  0  0  0  0  0  0  0  0  0  0
  -26.0953  -30.1480   20.9143 C   0  0  0  0  0  0  0  0  0  0  0  0
  -25.4900  -31.4070   26.1879 C   0  0  0  0  0  0  0  0  0  0  0  0
  -25.5144  -28.9476   20.4809 C   0  0  0  0  0  0  0  0  0  0  0  0
  -29.0758  -19.3712   22.8835 C   0  0  0  0  0  0  0  0  0  0  0  0
  -28.5535  -17.0237   22.6521 C   0  0  0  0  0  0  0  0  0  0  0  0
  -23.8087   -7.5183   23.3183 C   0  0  0  0  0  0  0  0  0  0  0  0
  -27.7320  -28.0116   20.1406 C   0  0  0  0  0  0  0  0  0  0  0  0
  -22.8012   -5.4077   23.5476 C   0  0  0  0  0  0  0  0  0  0  0  0
  -20.6569   -3.7064   23.0089 C   0  0  0  0  0  0  0  0  0  0  0  0
  -23.0128   -4.2183   22.8504 C   0  0  0  0  0  0  0  0  0  0  0  0
  -28.9620  -19.2599   24.2693 C   0  0  0  0  0  0  0  0  0  0  0  0
  -28.4397  -16.9125   24.0379 C   0  0  0  0  0  0  0  0  0  0  0  0
  -28.6439  -18.0306   24.8465 C   0  0  0  0  0  0  0  0  0  0  0  0
  -23.6354  -11.4520   21.7712 C   0  0  0  0  0  0  0  0  0  0  0  0
  -22.9855  -13.4662   21.1745 C   0  0  0  0  0  0  0  0  0  0  0  0
  -21.2187  -12.1299   22.3326 C   0  0  0  0  0  0  0  0  0  0  0  0
  -29.8940  -22.3248   20.6961 C   0  0  0  0  0  0  0  0  0  0  0  0
  -29.5476  -20.8859   20.9530 C   0  0  0  0  0  0  0  0  0  0  0  0
  -23.7935  -30.2880   23.1020 C   0  0  0  0  0  0  0  0  0  0  0  0
  -21.8541  -30.0567   20.5121 C   0  0  0  0  0  0  0  0  0  0  0  0
  -21.4548  -29.0655   17.2709 C   0  0  0  0  0  0  0  0  0  0  0  0
  -28.4241  -15.8293   20.4379 C   0  0  0  0  0  0  0  0  0  0  0  0
  -23.8961  -32.9237   27.4724 C   0  0  0  0  0  0  0  0  0  0  0  0
  -25.2308  -31.3156   21.3036 C   0  0  0  0  0  0  0  0  0  0  0  0
  -24.0204  -28.7668   20.4186 C   0  0  0  0  0  0  0  0  0  0  0  0
  -22.8123  -32.4583   26.5033 C   0  0  0  0  0  0  0  0  0  0  0  0
  -26.1260  -14.9335   17.8701 C   0  0  0  0  0  0  0  0  0  0  0  0
  -22.9876  -30.9786   26.1770 C   0  0  0  0  0  0  0  0  0  0  0  0
  -25.1228  -14.0236   18.5828 C   0  0  0  0  0  0  0  0  0  0  0  0
  -27.5475  -14.7274   18.3903 C   0  0  0  0  0  0  0  0  0  0  0  0
  -26.6947  -13.9294   20.5594 C   0  0  0  0  0  0  0  0  0  0  0  0
  -24.3349  -30.7206   25.4917 C   0  0  1  0  0  0  0  0  0  0  0  0
  -23.8258  -30.9026   21.7312 C   0  0  1  0  0  0  0  0  0  0  0  0
  -25.2392  -14.1472   20.1147 C   0  0  2  0  0  0  0  0  0  0  0  0
  -19.7460  -28.9734   15.4354 C   0  0  0  0  0  0  0  0  0  0  0  0
  -20.5061  -27.6909   21.8890 C   0  0  0  0  0  0  0  0  0  0  0  0
  -19.5028  -27.0673   19.6815 C   0  0  0  0  0  0  0  0  0  0  0  0
  -18.9367  -29.2576   20.7326 C   0  0  0  0  0  0  0  0  0  0  0  0
  -23.0854  -30.7954   15.5081 C   0  0  0  0  0  0  0  0  0  0  0  0
  -28.7356  -23.2723   20.4821 C   0  0  0  0  0  0  0  0  0  0  0  0
  -29.1831  -24.7069   20.2193 C   0  0  0  0  0  0  0  0  0  0  0  0
  -28.0132  -25.6552   19.9848 C   0  0  0  0  0  0  0  0  0  1  0  0
  -21.2360  -28.9177   19.7377 C   0  0  1  0  0  0  0  0  0  0  0  0
  -20.8727  -29.7787   16.0639 C   0  0  2  0  0  0  0  0  0  0  0  0
  -20.0736  -28.2358   20.5131 C   0  0  0  0  0  0  0  0  0  0  0  0
  -24.7069  -11.9881   21.1807 N   0  0  0  0  0  0  0  0  0  0  0  0
  -24.2803  -13.2129   20.8286 N   0  0  0  0  0  0  0  0  0  0  0  0
  -23.2176  -29.9354   20.8153 N   0  0  0  0  0  0  0  0  0  0  0  0
  -27.5815  -14.8634   19.8481 N   0  0  0  0  0  0  0  0  0  0  0  0
  -22.3979  -14.6491   20.8957 N   0  0  0  0  0  0  0  0  0  0  0  0
  -20.9219  -10.9008   22.9372 N   0  0  0  0  0  0  0  0  0  0  0  0
  -29.3992  -20.6169   22.2967 N   0  0  0  0  0  0  0  0  0  0  0  0
  -28.3476  -15.8889   21.8290 N   0  0  0  0  0  0  0  0  0  0  0  0
  -24.2772  -31.1126   24.0998 N   0  0  0  0  0  0  0  0  0  0  0  0
  -20.8491  -29.4671   18.4427 N   0  0  0  0  0  0  0  0  0  0  0  0
  -21.9265  -29.9965   15.0329 N   0  3  0  0  0  0  0  0  0  0  0  0
  -20.3283  -13.0107   22.2630 O   0  0  0  0  0  0  0  0  0  0  0  0
  -31.0787  -22.6240   20.6943 O   0  0  0  0  0  0  0  0  0  0  0  0
  -29.4715  -20.1604   19.9752 O   0  0  0  0  0  0  0  0  0  0  0  0
  -23.3603  -29.1506   23.2441 O   0  0  0  0  0  0  0  0  0  0  0  0
  -21.1547  -31.0218   20.8299 O   0  0  0  0  0  0  0  0  0  0  0  0
  -22.3541  -28.2324   17.1827 O   0  0  0  0  0  0  0  0  0  0  0  0
  -29.1391  -16.5691   19.7571 O   0  0  0  0  0  0  0  0  0  0  0  0
  -23.8646   -6.2529   23.8166 O   0  0  0  0  0  0  0  0  0  0  0  0
  -28.5244  -26.9698   19.7682 O   0  0  0  0  0  0  0  0  0  1  0  0
  -19.6276   -2.8889   22.7516 F   0  0  0  0  0  0  0  0  0  0  0  0
  -24.2439   -3.8869   22.4379 F   0  0  0  0  0  0  0  0  0  0  0  0
  -29.1572  -20.3274   25.0563 F   0  0  0  0  0  0  0  0  0  0  0  0
  -28.1353  -15.7360   24.6037 F   0  0  0  0  0  0  0  0  0  0  0  0
  -28.5342  -17.9237   26.1770 F   0  0  0  0  0  0  0  0  0  0  0  0
  1  2  1  0  0  0  0
  1  5  2  0  0  0  0
  2  6  2  0  0  0  0
  3  8  2  0  0  0  0
  3 16  1  0  0  0  0
  4  9  1  0  0  0  0
  4 16  2  0  0  0  0
  5 18  1  0  0  0  0
  6 20  1  0  0  0  0
  7 10  2  0  0  0  0
  7 19  1  0  0  0  0
  8 24  1  0  0  0  0
  9 24  2  0  0  0  0
 10 25  1  0  0  0  0
 11 12  2  0  0  0  0
 11 26  1  0  0  0  0
 12 27  1  0  0  0  0
 13 21  1  0  0  0  0
 13 25  2  0  0  0  0
 14 22  1  0  0  0  0
 14 23  2  0  0  0  0
 15 27  2  0  0  0  0
 15 28  1  0  0  0  0
 16 32  1  0  0  0  0
 17 32  1  0  0  0  0
 17 33  2  0  0  0  0
 17 34  1  0  0  0  0
 18 20  2  0  0  0  0
 18 41  1  0  0  0  0
 19 21  2  0  0  0  0
 19 42  1  0  0  0  0
 20 50  1  0  0  0  0
 21 43  1  0  0  0  0
 22 29  2  0  0  0  0
 22 70  1  0  0  0  0
 23 30  1  0  0  0  0
 23 71  1  0  0  0  0
 24 82  1  0  0  0  0
 25 83  1  0  0  0  0
 26 28  2  0  0  0  0
 26 82  1  0  0  0  0
 27 84  1  0  0  0  0
 28 85  1  0  0  0  0
 29 31  1  0  0  0  0
 29 86  1  0  0  0  0
 30 31  2  0  0  0  0
 30 87  1  0  0  0  0
 31 88  1  0  0  0  0
 32 64  2  0  0  0  0
 33 65  1  0  0  0  0
 33 68  1  0  0  0  0
 34 69  1  0  0  0  0
 34 75  2  0  0  0  0
 35 36  1  0  0  0  0
 35 58  1  0  0  0  0
 35 76  2  0  0  0  0
 36 70  1  0  0  0  0
 36 77  2  0  0  0  0
 37 51  1  0  0  0  0
 37 72  1  0  0  0  0
 37 78  2  0  0  0  0
 38 61  1  0  0  0  0
 38 66  1  0  0  0  0
 38 79  2  0  0  0  0
 39 62  1  0  0  0  0
 39 73  1  0  0  0  0
 39 80  2  0  0  0  0
 40 67  1  0  0  0  0
 40 71  1  0  0  0  0
 40 81  2  0  0  0  0
 41 44  1  0  0  0  0
 42 51  1  0  0  0  0
 43 66  1  0  0  0  0
 44 46  1  0  0  0  0
 45 47  1  0  0  0  0
 45 48  1  0  0  0  0
 46 50  1  0  0  0  0
 47 52  1  0  0  0  0
 48 67  1  0  0  0  0
 49 52  1  0  0  0  0
 49 67  1  0  0  0  0
 50 72  1  0  0  0  0
 51 66  1  0  0  0  0
 52 65  1  0  0  0  0
 53 62  1  0  0  0  0
 54 63  1  0  0  0  0
 55 63  1  0  0  0  0
 56 63  1  0  0  0  0
 57 74  1  0  0  0  0
 58 59  1  0  0  0  0
 59 60  1  0  0  0  0
 60 83  1  0  0  0  0
 61 63  1  0  0  0  0
 61 73  1  0  0  0  0
 62 74  1  0  0  0  0
 64 65  1  0  0  0  0
M  CHG  1  74   1
M  ISO  4  40 100  60 101  71 100  83 101
M  END
> <Batch ID>
0177

> <Smiles>
CNC(C)C(=O)NC(C(=O)N1Cc2cc([101O:1][101CH2:1]CCC(=O)C(=O)Nc3cc([100NH:0][100C:0](=O)N4CCCC(n5nc(-c6ccc(Oc7ccc(F)cc7F)cc6)c(C(N)=O)c5N)C4)c(F)c(F)c3F)ccc2CC1C(=O)NC1CCCc2ccccc21)C(C)(C)C

> <Shape>
0.293

> <Color>
0.111

> <Negative vol penalty>
0.000

$$$$

  -OEChem-04052304413D

 88 96  0     1  0  0  0  0  0999 V2000
  -25.5002  -34.9748   23.6966 C   0  0  0  0  0  0  0  0  0  0  0  0
  -26.1414  -33.7869   23.3602 C   0  0  0  0  0  0  0  0  0  0  0  0
  -24.4182  -16.2311   21.5100 C   0  0  0  0  0  0  0  0  0  0  0  0
  -24.4230  -15.9131   19.1151 C   0  0  0  0  0  0  0  0  0  0  0  0
  -24.2108  -34.9439   24.2262 C   0  0  0  0  0  0  0  0  0  0  0  0
  -25.4939  -32.5673   23.5541 C   0  0  0  0  0  0  0  0  0  0  0  0
  -25.9947  -29.4507   19.5942 C   0  0  0  0  0  0  0  0  0  0  0  0
  -24.1389  -17.5857   21.3296 C   0  0  0  0  0  0  0  0  0  0  0  0
  -24.1436  -17.2677   18.9346 C   0  0  0  0  0  0  0  0  0  0  0  0
  -27.2084  -28.7773   19.4634 C   0  0  0  0  0  0  0  0  0  0  0  0
  -23.7800  -21.2009   21.4894 C   0  0  0  0  0  0  0  0  0  0  0  0
  -24.5023  -22.1205   22.2498 C   0  0  0  0  0  0  0  0  0  0  0  0
  -26.2086  -26.8017   20.4207 C   0  0  0  0  0  0  0  0  0  0  0  0
  -31.5234  -18.4822   21.1219 C   0  0  0  0  0  0  0  0  0  0  0  0
  -29.7169  -17.0075   19.5907 C   0  0  0  0  0  0  0  0  0  0  0  0
  -26.5590  -21.3138   21.2719 C   0  0  0  0  0  0  0  0  0  0  0  0
  -24.5604  -15.3948   20.4028 C   0  0  0  0  0  0  0  0  0  0  0  0
  -23.9209  -12.9464   20.7258 C   0  0  0  0  0  0  0  0  0  0  0  0
  -23.5435  -33.7238   24.4177 C   0  0  0  0  0  0  0  0  0  0  0  0
  -24.8798  -28.8069   20.1502 C   0  0  0  0  0  0  0  0  0  0  0  0
  -24.1949  -32.5199   24.0880 C   0  0  0  0  0  0  0  0  0  0  0  0
  -24.9811  -27.4683   20.5551 C   0  0  0  0  0  0  0  0  0  0  0  0
  -30.7078  -19.1273   20.1923 C   0  0  0  0  0  0  0  0  0  0  0  0
  -30.5325  -16.3625   20.5203 C   0  0  0  0  0  0  0  0  0  0  0  0
  -24.0015  -18.1040   20.0419 C   0  0  0  0  0  0  0  0  0  0  0  0
  -27.3163  -27.4535   19.8793 C   0  0  0  0  0  0  0  0  0  0  0  0
  -24.4472  -20.3376   20.6203 C   0  0  0  0  0  0  0  0  0  0  0  0
  -25.8917  -22.1770   22.1411 C   0  0  0  0  0  0  0  0  0  0  0  0
  -29.8045  -18.3900   19.4267 C   0  0  0  0  0  0  0  0  0  0  0  0
  -31.4359  -17.0998   21.2859 C   0  0  0  0  0  0  0  0  0  0  0  0
  -25.8367  -20.3941   20.5115 C   0  0  0  0  0  0  0  0  0  0  0  0
  -24.8495  -13.9955   20.5885 C   0  0  0  0  0  0  0  0  0  0  0  0
  -24.6938  -11.8211   20.8760 C   0  0  0  0  0  0  0  0  0  0  0  0
  -22.4877  -12.9857   20.7182 C   0  0  0  0  0  0  0  0  0  0  0  0
  -31.4630  -22.8155   20.2640 C   0  0  0  0  0  0  0  0  0  0  0  0
  -31.6425  -21.3887   20.6988 C   0  0  0  0  0  0  0  0  0  0  0  0
  -23.0645  -29.2807   22.7161 C   0  0  0  0  0  0  0  0  0  0  0  0
  -29.9255  -24.8521   20.0164 C   0  0  0  0  0  0  0  0  0  0  0  0
  -21.3073  -26.8730   21.4364 C   0  0  0  0  0  0  0  0  0  0  0  0
  -21.1911  -24.1367   19.4001 C   0  0  0  0  0  0  0  0  0  0  0  0
  -29.5983  -14.0815   20.0029 C   0  0  0  0  0  0  0  0  0  0  0  0
  -22.1685  -33.7379   25.0372 C   0  0  0  0  0  0  0  0  0  0  0  0
  -23.5704  -29.5389   20.2598 C   0  0  0  0  0  0  0  0  0  0  0  0
  -23.8084  -26.7257   21.1397 C   0  0  0  0  0  0  0  0  0  0  0  0
  -21.4080  -32.4260   24.8620 C   0  0  0  0  0  0  0  0  0  0  0  0
  -28.4775  -12.2818   23.0029 C   0  0  0  0  0  0  0  0  0  0  0  0
  -22.3053  -31.2396   25.1997 C   0  0  0  0  0  0  0  0  0  0  0  0
  -27.6409  -11.1519   22.4048 C   0  0  0  0  0  0  0  0  0  0  0  0
  -29.6637  -12.6178   22.1087 C   0  0  0  0  0  0  0  0  0  0  0  0
  -28.4351  -11.8902   20.0896 C   0  0  0  0  0  0  0  0  0  0  0  0
  -23.5159  -31.1785   24.2604 C   0  0  1  0  0  0  0  0  0  0  0  0
  -22.6407  -28.9457   21.3139 C   0  0  1  0  0  0  0  0  0  0  0  0
  -27.2449  -11.3955   20.9369 C   0  0  2  0  0  0  0  0  0  0  0  0
  -19.6254  -22.3532   18.5847 C   0  0  0  0  0  0  0  0  0  0  0  0
  -21.5425  -25.4423   24.1211 C   0  0  0  0  0  0  0  0  0  0  0  0
  -20.8185  -23.3336   22.9820 C   0  0  0  0  0  0  0  0  0  0  0  0
  -19.2839  -25.2989   23.0570 C   0  0  0  0  0  0  0  0  0  0  0  0
  -21.4937  -24.9959   16.5843 C   0  0  0  0  0  0  0  0  0  0  0  0
  -30.0952  -23.4157   20.4698 C   0  0  0  0  0  0  0  0  0  0  0  0
  -28.5395  -25.4393   20.2000 C   0  0  0  0  0  0  0  0  0  1  0  0
  -21.3131  -25.3677   21.5506 C   0  0  1  0  0  0  0  0  0  0  0  0
  -20.2114  -23.7302   18.3141 C   0  0  2  0  0  0  0  0  0  0  0  0
  -20.7623  -24.8749   22.9185 C   0  0  0  0  0  0  0  0  0  0  0  0
  -26.1157  -13.5742   20.6465 N   0  0  0  0  0  0  0  0  0  0  0  0
  -25.9881  -12.2479   20.8220 N   0  0  0  0  0  0  0  0  0  0  0  0
  -22.5513  -27.4865   21.2320 N   0  0  0  0  0  0  0  0  0  0  0  0
  -29.2178  -12.9412   20.7467 N   0  0  0  0  0  0  0  0  0  0  0  0
  -24.3859  -10.5180   21.0477 N   0  0  0  0  0  0  0  0  0  0  0  0
  -21.8541  -14.2249   20.5531 N   0  0  0  0  0  0  0  0  0  0  0  0
  -30.7993  -20.5291   20.0278 N   0  0  0  0  0  0  0  0  0  0  0  0
  -30.4418  -14.9580   20.6844 N   0  0  0  0  0  0  0  0  0  0  0  0
  -23.1314  -30.6364   22.9749 N   0  0  0  0  0  0  0  0  0  0  0  0
  -20.5766  -24.8678   20.3947 N   0  0  0  0  0  0  0  0  0  0  0  0
  -20.8913  -23.6995   16.9883 N   0  3  0  0  0  0  0  0  0  0  0  0
  -21.7895  -11.9547   20.8702 O   0  0  0  0  0  0  0  0  0  0  0  0
  -32.4286  -23.3708   19.7620 O   0  0  0  0  0  0  0  0  0  0  0  0
  -32.5003  -21.1785   21.5403 O   0  0  0  0  0  0  0  0  0  0  0  0
  -23.3109  -28.3761   23.5051 O   0  0  0  0  0  0  0  0  0  0  0  0
  -30.8515  -25.5160   19.5536 O   0  0  0  0  0  0  0  0  0  0  0  0
  -20.2374  -27.4815   21.5182 O   0  0  0  0  0  0  0  0  0  0  0  0
  -22.3816  -23.8328   19.3711 O   0  0  0  0  0  0  0  0  0  0  0  0
  -29.1782  -14.2815   18.8603 O   0  0  0  0  0  0  0  0  0  0  0  0
  -23.7287  -19.4258   19.8655 O   0  0  0  0  0  0  0  0  0  0  0  0
  -28.5000  -26.7941   19.7534 O   0  0  0  0  0  0  0  0  0  1  0  0
  -26.5851  -23.0612   22.8702 F   0  0  0  0  0  0  0  0  0  0  0  0
  -29.0151  -18.9996   18.5307 F   0  0  0  0  0  0  0  0  0  0  0  0
  -32.2245  -16.4904   22.1827 F   0  0  0  0  0  0  0  0  0  0  0  0
  -26.4831  -19.5682   19.6774 F   0  0  0  0  0  0  0  0  0  0  0  0
  1  2  1  0  0  0  0
  1  5  2  0  0  0  0
  2  6  2  0  0  0  0
  3  8  2  0  0  0  0
  3 17  1  0  0  0  0
  4  9  1  0  0  0  0
  4 17  2  0  0  0  0
  5 19  1  0  0  0  0
  6 21  1  0  0  0  0
  7 10  2  0  0  0  0
  7 20  1  0  0  0  0
  8 25  1  0  0  0  0
  9 25  2  0  0  0  0
 10 26  1  0  0  0  0
 11 12  2  0  0  0  0
 11 27  1  0  0  0  0
 12 28  1  0  0  0  0
 13 22  1  0  0  0  0
 13 26  2  0  0  0  0
 14 23  1  0  0  0  0
 14 30  2  0  0  0  0
 15 24  2  0  0  0  0
 15 29  1  0  0  0  0
 16 28  2  0  0  0  0
 16 31  1  0  0  0  0
 17 32  1  0  0  0  0
 18 32  1  0  0  0  0
 18 33  2  0  0  0  0
 18 34  1  0  0  0  0
 19 21  2  0  0  0  0
 19 42  1  0  0  0  0
 20 22  2  0  0  0  0
 20 43  1  0  0  0  0
 21 51  1  0  0  0  0
 22 44  1  0  0  0  0
 23 29  2  0  0  0  0
 23 70  1  0  0  0  0
 24 30  1  0  0  0  0
 24 71  1  0  0  0  0
 25 83  1  0  0  0  0
 26 84  1  0  0  0  0
 27 31  2  0  0  0  0
 27 83  1  0  0  0  0
 28 85  1  0  0  0  0
 29 86  1  0  0  0  0
 30 87  1  0  0  0  0
 31 88  1  0  0  0  0
 32 64  2  0  0  0  0
 33 65  1  0  0  0  0
 33 68  1  0  0  0  0
 34 69  1  0  0  0  0
 34 75  2  0  0  0  0
 35 36  1  0  0  0  0
 35 59  1  0  0  0  0
 35 76  2  0  0  0  0
 36 70  1  0  0  0  0
 36 77  2  0  0  0  0
 37 52  1  0  0  0  0
 37 72  1  0  0  0  0
 37 78  2  0  0  0  0
 38 59  1  0  0  0  0
 38 60  1  0  0  0  0
 38 79  2  0  0  0  0
 39 61  1  0  0  0  0
 39 66  1  0  0  0  0
 39 80  2  0  0  0  0
 40 62  1  0  0  0  0
 40 73  1  0  0  0  0
 40 81  2  0  0  0  0
 41 67  1  0  0  0  0
 41 71  1  0  0  0  0
 41 82  2  0  0  0  0
 42 45  1  0  0  0  0
 43 52  1  0  0  0  0
 44 66  1  0  0  0  0
 45 47  1  0  0  0  0
 46 48  1  0  0  0  0
 46 49  1  0  0  0  0
 47 51  1  0  0  0  0
 48 53  1  0  0  0  0
 49 67  1  0  0  0  0
 50 53  1  0  0  0  0
 50 67  1  0  0  0  0
 51 72  1  0  0  0  0
 52 66  1  0  0  0  0
 53 65  1  0  0  0  0
 54 62  1  0  0  0  0
 55 63  1  0  0  0  0
 56 63  1  0  0  0  0
 57 63  1  0  0  0  0
 58 74  1  0  0  0  0
 60 84  1  0  0  0  0
 61 63  1  0  0  0  0
 61 73  1  0  0  0  0
 62 74  1  0  0  0  0
 64 65  1  0  0  0  0
M  CHG  1  74   1
M  ISO  4  41 100  60 101  71 100  84 101
M  END
> <Batch ID>
0177

> <Smiles>
CNC(C)C(=O)NC(C(=O)N1Cc2cc([101O:1][101CH2:1]C(=O)CC(=O)C(=O)Nc3cc(F)c([100NH:0][100C:0](=O)N4CCCC(n5nc(-c6ccc(Oc7ccc(F)cc7F)cc6)c(C(N)=O)c5N)C4)cc3F)ccc2CC1C(=O)NC1CCCc2ccccc21)C(C)(C)C

> <Shape>
0.276

> <Color>
0.086

> <Negative vol penalty>
0.000

$$$$

  -OEChem-04052304413D

 87 95  0     1  0  0  0  0  0999 V2000
  -27.6952  -33.4658   22.2281 C   0  0  0  0  0  0  0  0  0  0  0  0
  -27.0767  -32.3727   22.8262 C   0  0  0  0  0  0  0  0  0  0  0  0
  -23.0341   -9.7967   20.0227 C   0  0  0  0  0  0  0  0  0  0  0  0
  -23.7768   -9.9034   22.3193 C   0  0  0  0  0  0  0  0  0  0  0  0
  -28.2342  -33.3460   20.9478 C   0  0  0  0  0  0  0  0  0  0  0  0
  -26.9958  -31.1593   22.1439 C   0  0  0  0  0  0  0  0  0  0  0  0
  -27.2747  -25.5443   24.5729 C   0  0  0  0  0  0  0  0  0  0  0  0
  -22.2776   -8.6632   20.3200 C   0  0  0  0  0  0  0  0  0  0  0  0
  -23.0203   -8.7699   22.6166 C   0  0  0  0  0  0  0  0  0  0  0  0
  -26.2879  -24.6237   24.9230 C   0  0  0  0  0  0  0  0  0  0  0  0
  -19.7803   -8.0301   23.2298 C   0  0  0  0  0  0  0  0  0  0  0  0
  -19.0143   -8.0515   24.3953 C   0  0  0  0  0  0  0  0  0  0  0  0
  -26.5712  -23.5203   22.7967 C   0  0  0  0  0  0  0  0  0  0  0  0
  -29.1166  -19.1270   24.1764 C   0  0  0  0  0  0  0  0  0  0  0  0
  -20.2319   -6.1392   25.2306 C   0  0  0  0  0  0  0  0  0  0  0  0
  -23.7838  -10.4168   21.0223 C   0  0  0  0  0  0  0  0  0  0  0  0
  -24.1502  -12.9305   20.7880 C   0  0  0  0  0  0  0  0  0  0  0  0
  -28.1685  -32.1278   20.2534 C   0  0  0  0  0  0  0  0  0  0  0  0
  -27.9105  -25.4662   23.3255 C   0  0  0  0  0  0  0  0  0  0  0  0
  -27.5332  -31.0234   20.8527 C   0  0  0  0  0  0  0  0  0  0  0  0
  -27.5675  -24.4396   22.4341 C   0  0  0  0  0  0  0  0  0  0  0  0
  -30.1774  -18.2701   23.7631 C   0  0  0  0  0  0  0  0  0  0  0  0
  -22.2706   -8.1498   21.6169 C   0  0  0  0  0  0  0  0  0  0  0  0
  -25.9340  -23.6132   24.0337 C   0  0  0  0  0  0  0  0  0  0  0  0
  -20.7721   -7.0633   23.0647 C   0  0  0  0  0  0  0  0  0  0  0  0
  -19.2400   -7.1060   25.3957 C   0  0  0  0  0  0  0  0  0  0  0  0
  -20.9979   -6.1178   24.0651 C   0  0  0  0  0  0  0  0  0  0  0  0
  -24.5660  -11.5874   20.7158 C   0  0  0  0  0  0  0  0  0  0  0  0
  -29.9655  -17.7549   22.5033 C   0  0  0  0  0  0  0  0  0  0  0  0
  -25.2521  -13.6524   20.3991 C   0  0  0  0  0  0  0  0  0  0  0  0
  -28.1344  -19.2342   23.2164 C   0  0  0  0  0  0  0  0  0  0  0  0
  -22.8815  -13.4767   21.1725 C   0  0  0  0  0  0  0  0  0  0  0  0
  -28.1263  -27.3768   20.7943 C   0  0  0  0  0  0  0  0  0  0  0  0
  -30.2122  -25.1199   19.7562 C   0  0  0  0  0  0  0  0  0  0  0  0
  -31.2873  -21.8840   19.8983 C   0  0  0  0  0  0  0  0  0  0  0  0
  -26.4247  -20.7908   24.2114 C   0  0  0  0  0  0  0  0  0  0  0  0
  -30.7436  -14.6295   20.5834 C   0  0  0  0  0  0  0  0  0  0  0  0
  -28.7235  -32.0598   18.8527 C   0  0  0  0  0  0  0  0  0  0  0  0
  -28.9918  -26.4509   22.9737 C   0  0  0  0  0  0  0  0  0  0  0  0
  -28.2344  -24.3000   21.0909 C   0  0  0  0  0  0  0  0  0  0  0  0
  -28.9277  -30.6341   18.3470 C   0  0  0  0  0  0  0  0  0  0  0  0
  -29.6016  -12.1470   18.3009 C   0  0  0  0  0  0  0  0  0  0  0  0
  -27.6989  -29.7808   18.6449 C   0  0  0  0  0  0  0  0  0  0  0  0
  -28.1582  -11.8867   18.7356 C   0  0  0  0  0  0  0  0  0  0  0  0
  -30.5117  -12.4151   19.4975 C   0  0  0  0  0  0  0  0  0  0  0  0
  -28.6066  -13.2270   20.8336 C   0  0  0  0  0  0  0  0  0  0  0  0
  -27.4477  -29.6835   20.1545 C   0  0  1  0  0  0  0  0  0  0  0  0
  -29.2106  -26.5860   21.4699 C   0  0  1  0  0  0  0  0  0  0  0  0
  -27.6397  -13.0067   19.6576 C   0  0  2  0  0  0  0  0  0  0  0  0
  -23.8360  -20.3533   25.7911 C   0  0  0  0  0  0  0  0  0  0  0  0
  -32.9877  -20.3278   18.9062 C   0  0  0  0  0  0  0  0  0  0  0  0
  -28.5572  -24.9459   17.1987 C   0  0  0  0  0  0  0  0  0  0  0  0
  -29.7002  -22.7774   16.6894 C   0  0  0  0  0  0  0  0  0  0  0  0
  -31.0322  -24.8807   16.8461 C   0  0  0  0  0  0  0  0  0  0  0  0
  -32.5342  -21.3795   22.5344 C   0  0  0  0  0  0  0  0  0  0  0  0
  -30.8204  -16.8345   21.7197 C   0  0  0  0  0  0  0  0  0  0  0  0
  -23.8913  -20.5572   24.2811 C   0  0  0  0  0  0  0  0  0  0  0  0
  -30.0972  -23.8457   18.9548 C   0  0  1  0  0  0  0  0  0  0  0  0
  -32.6766  -21.2896   20.0424 C   0  0  2  0  0  0  0  0  0  0  0  0
  -25.0810  -21.4038   23.8175 C   0  0  1  0  0  0  0  0  0  1  0  0
  -31.3648  -17.9753   24.5999 C   0  0  0  0  0  0  0  0  0  0  0  0
  -29.8326  -24.1159   17.4467 C   0  0  0  0  0  0  0  0  0  0  0  0
  -25.8330  -11.4608   20.3124 N   0  0  0  0  0  0  0  0  0  0  0  0
  -26.2229  -12.7336   20.1277 N   0  0  0  0  0  0  0  0  0  0  0  0
  -29.2811  -25.2908   20.7904 N   0  0  0  0  0  0  0  0  0  0  0  0
  -29.9642  -13.4886   20.3304 N   0  0  0  0  0  0  0  0  0  0  0  0
  -25.4755  -14.9770   20.2660 N   0  0  0  0  0  0  0  0  0  0  0  0
  -21.8586  -12.5933   21.5435 N   0  0  0  0  0  0  0  0  0  0  0  0
  -26.9236  -19.9668   23.2085 N   0  0  0  0  0  0  0  0  0  0  0  0
  -28.3615  -28.7380   20.7590 N   0  0  0  0  0  0  0  0  0  0  0  0
  -31.3132  -23.0849   19.2211 N   0  0  0  0  0  0  0  0  0  0  0  0
  -30.1469  -15.6018   21.3767 N   0  0  0  0  0  0  0  0  0  0  0  0
  -32.7920  -20.5486   21.3302 N   0  3  0  0  0  0  0  0  0  0  0  0
  -22.6564  -14.7107   21.1708 O   0  0  0  0  0  0  0  0  0  0  0  0
  -27.1493  -26.7949   20.3375 O   0  0  0  0  0  0  0  0  0  0  0  0
  -31.1000  -25.9303   19.4794 O   0  0  0  0  0  0  0  0  0  0  0  0
  -30.2793  -21.3359   20.3388 O   0  0  0  0  0  0  0  0  0  0  0  0
  -26.9506  -21.0528   25.2894 O   0  0  0  0  0  0  0  0  0  0  0  0
  -31.8845  -14.7734   20.1312 O   0  0  0  0  0  0  0  0  0  0  0  0
  -21.5323   -7.0439   21.9074 O   0  0  0  0  0  0  0  0  0  0  0  0
  -24.9707  -22.7138   24.3727 O   0  0  0  0  0  0  0  0  0  1  0  0
  -18.5054   -7.1276   26.5155 F   0  0  0  0  0  0  0  0  0  0  0  0
  -21.9501   -5.1873   23.9127 F   0  0  0  0  0  0  0  0  0  0  0  0
  -31.3573  -18.6024   25.8176 F   0  0  0  0  0  0  0  0  0  0  0  0
  -31.5216  -16.6469   24.8941 F   0  0  0  0  0  0  0  0  0  0  0  0
  -32.5408  -18.3525   24.0105 F   0  0  0  0  0  0  0  0  0  0  0  0
  -28.4926  -18.3041   21.8239 S   0  0  0  0  0  0  0  0  0  0  0  0
  1  2  1  0  0  0  0
  1  5  2  0  0  0  0
  2  6  2  0  0  0  0
  3  8  2  0  0  0  0
  3 16  1  0  0  0  0
  4  9  1  0  0  0  0
  4 16  2  0  0  0  0
  5 18  1  0  0  0  0
  6 20  1  0  0  0  0
  7 10  2  0  0  0  0
  7 19  1  0  0  0  0
  8 23  1  0  0  0  0
  9 23  2  0  0  0  0
 10 24  1  0  0  0  0
 11 12  2  0  0  0  0
 11 25  1  0  0  0  0
 12 26  1  0  0  0  0
 13 21  1  0  0  0  0
 13 24  2  0  0  0  0
 14 22  1  0  0  0  0
 14 31  2  0  0  0  0
 15 26  2  0  0  0  0
 15 27  1  0  0  0  0
 16 28  1  0  0  0  0
 17 28  1  0  0  0  0
 17 30  2  0  0  0  0
 17 32  1  0  0  0  0
 18 20  2  0  0  0  0
 18 38  1  0  0  0  0
 19 21  2  0  0  0  0
 19 39  1  0  0  0  0
 20 47  1  0  0  0  0
 21 40  1  0  0  0  0
 22 29  2  0  0  0  0
 22 61  1  0  0  0  0
 23 80  1  0  0  0  0
 24 81  1  0  0  0  0
 25 27  2  0  0  0  0
 25 80  1  0  0  0  0
 26 82  1  0  0  0  0
 27 83  1  0  0  0  0
 28 63  2  0  0  0  0
 29 56  1  0  0  0  0
 29 87  1  0  0  0  0
 30 64  1  0  0  0  0
 30 67  1  0  0  0  0
 31 69  1  0  0  0  0
 31 87  1  0  0  0  0
 32 68  1  0  0  0  0
 32 74  2  0  0  0  0
 33 48  1  0  0  0  0
 33 70  1  0  0  0  0
 33 75  2  0  0  0  0
 34 58  1  0  0  0  0
 34 65  1  0  0  0  0
 34 76  2  0  0  0  0
 35 59  1  0  0  0  0
 35 71  1  0  0  0  0
 35 77  2  0  0  0  0
 36 60  1  0  0  0  0
 36 69  1  0  0  0  0
 36 78  2  0  0  0  0
 37 66  1  0  0  0  0
 37 72  1  0  0  0  0
 37 79  2  0  0  0  0
 38 41  1  0  0  0  0
 39 48  1  0  0  0  0
 40 65  1  0  0  0  0
 41 43  1  0  0  0  0
 42 44  1  0  0  0  0
 42 45  1  0  0  0  0
 43 47  1  0  0  0  0
 44 49  1  0  0  0  0
 45 66  1  0  0  0  0
 46 49  1  0  0  0  0
 46 66  1  0  0  0  0
 47 70  1  0  0  0  0
 48 65  1  0  0  0  0
 49 64  1  0  0  0  0
 50 57  1  0  0  0  0
 51 59  1  0  0  0  0
 52 62  1  0  0  0  0
 53 62  1  0  0  0  0
 54 62  1  0  0  0  0
 55 73  1  0  0  0  0
 56 72  1  0  0  0  0
 57 60  1  0  0  0  0
 58 62  1  0  0  0  0
 58 71  1  0  0  0  0
 59 73  1  0  0  0  0
 60 81  1  0  0  0  0
 61 84  1  0  0  0  0
 61 85  1  0  0  0  0
 61 86  1  0  0  0  0
 63 64  1  0  0  0  0
M  CHG  1  73   1
M  ISO  4  37 100  60 101  72 100  81 101
M  END
> <Batch ID>
0177

> <Smiles>
CC[101CH:1](C(=O)Nc1cc(C(F)(F)F)c(C[100NH:0][100C:0](=O)N2CCCC(n3nc(-c4ccc(Oc5ccc(F)cc5F)cc4)c(C(N)=O)c3N)C2)s1)[101O:1]c1ccc2c(c1)CN(C(=O)C(NC(=O)C(C)NC)C(C)(C)C)C(C(=O)NC1CCCc3ccccc31)C2

> <Shape>
0.270

> <Color>
0.208

> <Negative vol penalty>
0.000

$$$$

  -OEChem-04052304413D

 88 96  0     1  0  0  0  0  0999 V2000
  -17.0627  -28.0898   23.6045 C   0  0  0  0  0  0  0  0  0  0  0  0
  -18.2670  -27.4107   23.4496 C   0  0  0  0  0  0  0  0  0  0  0  0
  -23.3549   -9.6319   21.3967 C   0  0  0  0  0  0  0  0  0  0  0  0
  -23.9155  -10.6906   23.4947 C   0  0  0  0  0  0  0  0  0  0  0  0
  -17.0575  -29.4789   23.7244 C   0  0  0  0  0  0  0  0  0  0  0  0
  -19.4667  -28.1205   23.4134 C   0  0  0  0  0  0  0  0  0  0  0  0
  -23.0744  -25.9840   26.2533 C   0  0  0  0  0  0  0  0  0  0  0  0
  -22.7078   -8.6069   22.0867 C   0  0  0  0  0  0  0  0  0  0  0  0
  -23.2683   -9.6656   24.1849 C   0  0  0  0  0  0  0  0  0  0  0  0
  -23.7255  -24.8707   25.7239 C   0  0  0  0  0  0  0  0  0  0  0  0
  -19.7391   -8.1336   23.6346 C   0  0  0  0  0  0  0  0  0  0  0  0
  -18.4882   -7.7282   23.1695 C   0  0  0  0  0  0  0  0  0  0  0  0
  -25.5807  -26.2705   25.0774 C   0  0  0  0  0  0  0  0  0  0  0  0
  -19.3422   -5.4955   22.8189 C   0  0  0  0  0  0  0  0  0  0  0  0
  -23.9589  -10.6737   22.1007 C   0  0  0  0  0  0  0  0  0  0  0  0
  -24.0636  -12.9383   20.9309 C   0  0  0  0  0  0  0  0  0  0  0  0
  -18.2585  -30.2052   23.6994 C   0  0  0  0  0  0  0  0  0  0  0  0
  -23.6677  -27.2530   26.1888 C   0  0  0  0  0  0  0  0  0  0  0  0
  -19.4774  -29.5207   23.5317 C   0  0  0  0  0  0  0  0  0  0  0  0
  -24.9361  -27.3980   25.6089 C   0  0  0  0  0  0  0  0  0  0  0  0
  -22.6644   -8.6238   23.4808 C   0  0  0  0  0  0  0  0  0  0  0  0
  -24.9775  -25.0143   25.1333 C   0  0  0  0  0  0  0  0  0  0  0  0
  -20.7917   -7.2200   23.6918 C   0  0  0  0  0  0  0  0  0  0  0  0
  -18.2897   -6.4091   22.7617 C   0  0  0  0  0  0  0  0  0  0  0  0
  -20.5932   -5.9010   23.2840 C   0  0  0  0  0  0  0  0  0  0  0  0
  -24.6280  -11.7325   21.3884 C   0  0  0  0  0  0  0  0  0  0  0  0
  -29.7770  -20.1520   20.5011 C   0  0  0  0  0  0  0  0  0  0  0  0
  -30.9681  -19.6454   20.0247 C   0  0  0  0  0  0  0  0  0  0  0  0
  -25.1048  -13.5955   20.3221 C   0  0  0  0  0  0  0  0  0  0  0  0
  -29.9410  -17.7498   20.4271 C   0  0  0  0  0  0  0  0  0  0  0  0
  -22.7186  -13.4212   21.0461 C   0  0  0  0  0  0  0  0  0  0  0  0
  -29.3316  -21.5573   20.6848 C   0  0  0  0  0  0  0  0  0  0  0  0
  -22.9022  -30.0205   24.8255 C   0  0  0  0  0  0  0  0  0  0  0  0
  -26.5582  -22.9278   22.6216 C   0  0  0  0  0  0  0  0  0  0  0  0
  -25.5083  -31.0883   26.4351 C   0  0  0  0  0  0  0  0  0  0  0  0
  -28.4965  -30.3643   27.9159 C   0  0  0  0  0  0  0  0  0  0  0  0
  -30.4102  -15.2828   20.2276 C   0  0  0  0  0  0  0  0  0  0  0  0
  -18.1988  -31.7098   23.7853 C   0  0  0  0  0  0  0  0  0  0  0  0
  -22.9641  -28.4395   26.7883 C   0  0  0  0  0  0  0  0  0  0  0  0
  -25.6251  -28.7351   25.5327 C   0  0  0  0  0  0  0  0  0  0  0  0
  -19.5429  -32.3549   24.1131 C   0  0  0  0  0  0  0  0  0  0  0  0
  -29.7371  -11.9830   19.0720 C   0  0  0  0  0  0  0  0  0  0  0  0
  -20.6476  -31.7559   23.2484 C   0  0  0  0  0  0  0  0  0  0  0  0
  -28.3015  -11.7229   19.5340 C   0  0  0  0  0  0  0  0  0  0  0  0
  -30.5218  -12.8039   20.0938 C   0  0  0  0  0  0  0  0  0  0  0  0
  -28.4446  -13.7986   20.9685 C   0  0  0  0  0  0  0  0  0  0  0  0
  -20.8015  -30.2533   23.5127 C   0  0  1  0  0  0  0  0  0  0  0  0
  -23.4350  -29.7695   26.2078 C   0  0  1  0  0  0  0  0  0  0  0  0
  -27.5953  -13.0305   19.9426 C   0  0  2  0  0  0  0  0  0  0  0  0
  -32.1279  -20.4364   19.5646 C   0  0  0  0  0  0  0  0  0  0  0  0
  -30.4164  -31.4504   29.1125 C   0  0  0  0  0  0  0  0  0  0  0  0
  -26.5563  -32.1586   23.7769 C   0  0  0  0  0  0  0  0  0  0  0  0
  -28.8186  -32.3611   24.8301 C   0  0  0  0  0  0  0  0  0  0  0  0
  -26.9044  -33.6858   25.7265 C   0  0  0  0  0  0  0  0  0  0  0  0
  -28.0173  -28.7774   30.3677 C   0  0  0  0  0  0  0  0  0  0  0  0
  -26.4875  -24.1555   23.5089 C   0  0  0  0  0  0  0  0  0  1  0  0
  -27.4689  -23.0288   21.4067 C   0  0  2  0  0  0  0  0  0  0  0  0
  -26.9836  -31.1916   26.1324 C   0  0  1  0  0  0  0  0  0  0  0  0
  -29.0729  -30.7545   29.2650 C   0  0  2  0  0  0  0  0  0  0  0  0
  -27.3022  -32.3243   25.1160 C   0  0  0  0  0  0  0  0  0  0  0  0
  -26.6966  -23.5036   20.1959 C   0  0  0  0  0  0  0  0  0  0  0  0
  -25.9268  -11.6272   21.0951 N   0  0  0  0  0  0  0  0  0  0  0  0
  -31.0641  -18.2682   19.9819 N   0  0  0  0  0  0  0  0  0  0  0  0
  -26.1872  -12.7752   20.4468 N   0  0  0  0  0  0  0  0  0  0  0  0
  -24.8939  -29.8662   26.1273 N   0  0  0  0  0  0  0  0  0  0  0  0
  -29.7941  -14.0297   20.4298 N   0  0  0  0  0  0  0  0  0  0  0  0
  -25.1908  -14.7892   19.6976 N   0  0  0  0  0  0  0  0  0  0  0  0
  -21.7746  -12.6193   21.7021 N   0  0  0  0  0  0  0  0  0  0  0  0
  -29.6100  -16.3778   20.5521 N   0  0  0  0  0  0  0  0  0  0  0  0
  -28.0513  -21.7296   21.1952 N   0  0  0  0  0  0  0  0  0  0  0  0
  -21.5226  -30.0284   24.7471 N   0  0  0  0  0  0  0  0  0  0  0  0
  -27.6551  -31.3373   27.4193 N   0  0  0  0  0  0  0  0  0  0  0  0
  -29.2635  -29.5459   30.1159 N   0  3  0  0  0  0  0  0  0  0  0  0
  -22.3604  -14.5237   20.5667 O   0  0  0  0  0  0  0  0  0  0  0  0
  -30.0864  -22.4724   20.3667 O   0  0  0  0  0  0  0  0  0  0  0  0
  -23.6849  -30.1956   23.8990 O   0  0  0  0  0  0  0  0  0  0  0  0
  -25.8916  -21.9196   22.8567 O   0  0  0  0  0  0  0  0  0  0  0  0
  -24.9241  -32.0539   26.9331 O   0  0  0  0  0  0  0  0  0  0  0  0
  -28.7686  -29.3042   27.3568 O   0  0  0  0  0  0  0  0  0  0  0  0
  -31.5529  -15.3782   19.7725 O   0  0  0  0  0  0  0  0  0  0  0  0
  -22.0328   -7.6239   24.1545 O   0  0  0  0  0  0  0  0  0  0  0  0
  -25.6150  -23.9293   24.6152 O   0  0  0  0  0  0  0  0  0  1  0  0
  -17.0880   -6.0195   22.3165 F   0  0  0  0  0  0  0  0  0  0  0  0
  -21.6002   -5.0185   23.3377 F   0  0  0  0  0  0  0  0  0  0  0  0
  -27.4910  -23.5631   19.1043 F   0  0  0  0  0  0  0  0  0  0  0  0
  -26.1650  -24.7300   20.3870 F   0  0  0  0  0  0  0  0  0  0  0  0
  -25.6831  -22.6558   19.9089 F   0  0  0  0  0  0  0  0  0  0  0  0
  -28.7265  -18.8605   20.9134 S   0  0  0  0  0  0  0  0  0  0  0  0
  1  2  1  0  0  0  0
  1  5  2  0  0  0  0
  2  6  2  0  0  0  0
  3  8  2  0  0  0  0
  3 15  1  0  0  0  0
  4  9  1  0  0  0  0
  4 15  2  0  0  0  0
  5 17  1  0  0  0  0
  6 19  1  0  0  0  0
  7 10  2  0  0  0  0
  7 18  1  0  0  0  0
  8 21  1  0  0  0  0
  9 21  2  0  0  0  0
 10 22  1  0  0  0  0
 11 12  2  0  0  0  0
 11 23  1  0  0  0  0
 12 24  1  0  0  0  0
 13 20  1  0  0  0  0
 13 22  2  0  0  0  0
 14 24  2  0  0  0  0
 14 25  1  0  0  0  0
 15 26  1  0  0  0  0
 16 26  1  0  0  0  0
 16 29  2  0  0  0  0
 16 31  1  0  0  0  0
 17 19  2  0  0  0  0
 17 38  1  0  0  0  0
 18 20  2  0  0  0  0
 18 39  1  0  0  0  0
 19 47  1  0  0  0  0
 20 40  1  0  0  0  0
 21 81  1  0  0  0  0
 22 82  1  0  0  0  0
 23 25  2  0  0  0  0
 23 81  1  0  0  0  0
 24 83  1  0  0  0  0
 25 84  1  0  0  0  0
 26 62  2  0  0  0  0
 27 28  2  0  0  0  0
 27 32  1  0  0  0  0
 27 88  1  0  0  0  0
 28 50  1  0  0  0  0
 28 63  1  0  0  0  0
 29 64  1  0  0  0  0
 29 67  1  0  0  0  0
 30 63  2  0  0  0  0
 30 69  1  0  0  0  0
 30 88  1  0  0  0  0
 31 68  1  0  0  0  0
 31 74  2  0  0  0  0
 32 70  1  0  0  0  0
 32 75  2  0  0  0  0
 33 48  1  0  0  0  0
 33 71  1  0  0  0  0
 33 76  2  0  0  0  0
 34 56  1  0  0  0  0
 34 57  1  0  0  0  0
 34 77  2  0  0  0  0
 35 58  1  0  0  0  0
 35 65  1  0  0  0  0
 35 78  2  0  0  0  0
 36 59  1  0  0  0  0
 36 72  1  0  0  0  0
 36 79  2  0  0  0  0
 37 66  1  0  0  0  0
 37 69  1  0  0  0  0
 37 80  2  0  0  0  0
 38 41  1  0  0  0  0
 39 48  1  0  0  0  0
 40 65  1  0  0  0  0
 41 43  1  0  0  0  0
 42 44  1  0  0  0  0
 42 45  1  0  0  0  0
 43 47  1  0  0  0  0
 44 49  1  0  0  0  0
 45 66  1  0  0  0  0
 46 49  1  0  0  0  0
 46 66  1  0  0  0  0
 47 71  1  0  0  0  0
 48 65  1  0  0  0  0
 49 64  1  0  0  0  0
 51 59  1  0  0  0  0
 52 60  1  0  0  0  0
 53 60  1  0  0  0  0
 54 60  1  0  0  0  0
 55 73  1  0  0  0  0
 56 82  1  0  0  0  0
 57 61  1  0  0  0  0
 57 70  1  0  0  0  0
 58 60  1  0  0  0  0
 58 72  1  0  0  0  0
 59 73  1  0  0  0  0
 61 85  1  0  0  0  0
 61 86  1  0  0  0  0
 61 87  1  0  0  0  0
 62 64  1  0  0  0  0
M  CHG  1  73   1
M  ISO  4  37 100  56 101  69 100  82 101
M  END
> <Batch ID>
0177

> <Smiles>
CNC(C)C(=O)NC(C(=O)N1Cc2cc([101O:1][101CH2:1]C(=O)C(NC(=O)c3sc([100NH:0][100C:0](=O)N4CCCC(n5nc(-c6ccc(Oc7ccc(F)cc7F)cc6)c(C(N)=O)c5N)C4)nc3C)C(F)(F)F)ccc2CC1C(=O)NC1CCCc2ccccc21)C(C)(C)C

> <Shape>
0.284

> <Color>
0.142

> <Negative vol penalty>
0.000

$$$$

  -OEChem-04052304413D

 88 96  0     1  0  0  0  0  0999 V2000
  -18.6767  -29.4917   18.4463 C   0  0  0  0  0  0  0  0  0  0  0  0
  -19.0671  -28.3984   19.2129 C   0  0  0  0  0  0  0  0  0  0  0  0
  -23.1916   -9.6867   19.8991 C   0  0  0  0  0  0  0  0  0  0  0  0
  -23.9309   -9.7288   22.1989 C   0  0  0  0  0  0  0  0  0  0  0  0
  -19.4504  -30.6515   18.4434 C   0  0  0  0  0  0  0  0  0  0  0  0
  -20.2321  -28.4640   19.9763 C   0  0  0  0  0  0  0  0  0  0  0  0
  -21.2134  -25.8514   25.4277 C   0  0  0  0  0  0  0  0  0  0  0  0
  -22.5178   -8.4890   20.1376 C   0  0  0  0  0  0  0  0  0  0  0  0
  -23.2570   -8.5310   22.4374 C   0  0  0  0  0  0  0  0  0  0  0  0
  -21.8577  -24.6726   25.8006 C   0  0  0  0  0  0  0  0  0  0  0  0
  -20.0790   -7.5341   23.0090 C   0  0  0  0  0  0  0  0  0  0  0  0
  -19.3164   -7.4420   24.1733 C   0  0  0  0  0  0  0  0  0  0  0  0
  -23.8748  -25.9209   26.2392 C   0  0  0  0  0  0  0  0  0  0  0  0
  -28.8940  -19.0704   22.2447 C   0  0  0  0  0  0  0  0  0  0  0  0
  -20.6681   -5.5806   24.9115 C   0  0  0  0  0  0  0  0  0  0  0  0
  -23.8983  -10.3066   20.9297 C   0  0  0  0  0  0  0  0  0  0  0  0
  -24.0857  -12.8485   20.8239 C   0  0  0  0  0  0  0  0  0  0  0  0
  -20.6204  -30.7348   19.2147 C   0  0  0  0  0  0  0  0  0  0  0  0
  -21.8993  -27.0744   25.4474 C   0  0  0  0  0  0  0  0  0  0  0  0
  -21.0230  -29.6255   19.9827 C   0  0  0  0  0  0  0  0  0  0  0  0
  -23.2362  -27.1142   25.8686 C   0  0  0  0  0  0  0  0  0  0  0  0
  -29.5396  -17.9696   22.8076 C   0  0  0  0  0  0  0  0  0  0  0  0
  -29.3157  -17.6379   24.1438 C   0  0  0  0  0  0  0  0  0  0  0  0
  -27.8005  -19.5079   24.3542 C   0  0  0  0  0  0  0  0  0  0  0  0
  -22.5505   -7.9111   21.4067 C   0  0  0  0  0  0  0  0  0  0  0  0
  -23.1894  -24.7068   26.2036 C   0  0  0  0  0  0  0  0  0  0  0  0
  -21.1361   -6.6493   22.7959 C   0  0  0  0  0  0  0  0  0  0  0  0
  -19.6109   -6.4653   25.1245 C   0  0  0  0  0  0  0  0  0  0  0  0
  -28.0244  -19.8396   23.0180 C   0  0  0  0  0  0  0  0  0  0  0  0
  -21.4307   -5.6726   23.7472 C   0  0  0  0  0  0  0  0  0  0  0  0
  -28.4461  -18.4070   24.9171 C   0  0  0  0  0  0  0  0  0  0  0  0
  -24.5950  -11.5436   20.6838 C   0  0  0  0  0  0  0  0  0  0  0  0
  -25.1329  -13.6653   20.4733 C   0  0  0  0  0  0  0  0  0  0  0  0
  -24.4692  -22.8450   25.5980 C   0  0  0  0  0  0  0  0  0  1  0  0
  -22.7827  -13.2835   21.2344 C   0  0  0  0  0  0  0  0  0  0  0  0
  -25.1220  -21.7025   25.8431 C   0  0  0  0  0  0  0  0  0  0  0  0
  -25.8032  -20.9962   24.7093 C   0  0  0  0  0  0  0  0  0  0  0  0
  -22.6900  -29.2383   23.2575 C   0  0  0  0  0  0  0  0  0  0  0  0
  -23.7163  -30.9085   25.8419 C   0  0  0  0  0  0  0  0  0  0  0  0
  -24.8143  -30.8612   29.0729 C   0  0  0  0  0  0  0  0  0  0  0  0
  -30.5422  -15.0172   20.7125 C   0  0  0  0  0  0  0  0  0  0  0  0
  -21.4494  -31.9926   19.1426 C   0  0  0  0  0  0  0  0  0  0  0  0
  -21.1823  -28.3409   25.0679 C   0  0  0  0  0  0  0  0  0  0  0  0
  -24.0112  -28.4043   25.9268 C   0  0  0  0  0  0  0  0  0  0  0  0
  -22.4699  -32.1151   20.2712 C   0  0  0  0  0  0  0  0  0  0  0  0
  -29.5723  -12.5794   18.3056 C   0  0  0  0  0  0  0  0  0  0  0  0
  -23.2230  -30.8013   20.4548 C   0  0  0  0  0  0  0  0  0  0  0  0
  -28.1521  -12.1961   18.7250 C   0  0  0  0  0  0  0  0  0  0  0  0
  -30.4643  -12.8500   19.5152 C   0  0  0  0  0  0  0  0  0  0  0  0
  -28.5101  -13.4563   20.8889 C   0  0  0  0  0  0  0  0  0  0  0  0
  -22.2670  -29.6670   20.8433 C   0  0  1  0  0  0  0  0  0  0  0  0
  -22.1284  -29.4562   24.6340 C   0  0  1  0  0  0  0  0  0  0  0  0
  -27.5581  -13.2283   19.7023 C   0  0  2  0  0  0  0  0  0  0  0  0
  -31.1641  -16.8764   25.6571 C   0  0  0  0  0  0  0  0  0  0  0  0
  -25.6123  -32.3794   30.9047 C   0  0  0  0  0  0  0  0  0  0  0  0
  -26.4132  -31.1777   24.4405 C   0  0  0  0  0  0  0  0  0  0  0  0
  -27.4123  -31.8341   26.6403 C   0  0  0  0  0  0  0  0  0  0  0  0
  -25.6337  -33.2468   25.6091 C   0  0  0  0  0  0  0  0  0  0  0  0
  -22.5862  -30.0737   30.8546 C   0  0  0  0  0  0  0  0  0  0  0  0
  -29.9977  -16.4630   24.7647 C   0  0  0  0  0  0  0  0  0  0  0  0
  -30.4660  -17.1615   21.9596 C   0  0  0  0  0  0  0  0  0  0  0  0
  -25.0155  -31.0065   26.6045 C   0  0  1  0  0  0  0  0  0  0  0  0
  -24.4117  -31.6807   30.2856 C   0  0  2  0  0  0  0  0  0  0  0  0
  -26.1049  -31.7915   25.8208 C   0  0  0  0  0  0  0  0  0  0  0  0
  -25.8668  -11.5275   20.2759 N   0  0  0  0  0  0  0  0  0  0  0  0
  -26.1654  -12.8324   20.1565 N   0  0  0  0  0  0  0  0  0  0  0  0
  -23.2680  -29.6148   25.5398 N   0  0  0  0  0  0  0  0  0  0  0  0
  -29.8446  -13.8384   20.4011 N   0  0  0  0  0  0  0  0  0  0  0  0
  -25.2619  -15.0075   20.4080 N   0  0  0  0  0  0  0  0  0  0  0  0
  -21.8256  -12.3124   21.5590 N   0  0  0  0  0  0  0  0  0  0  0  0
  -26.9177  -20.2888   25.1386 N   0  0  0  0  0  0  0  0  0  0  0  0
  -21.9118  -29.7625   22.2430 N   0  0  0  0  0  0  0  0  0  0  0  0
  -24.6837  -31.5808   27.9040 N   0  0  0  0  0  0  0  0  0  0  0  0
  -29.8804  -15.9034   21.5536 N   0  0  0  0  0  0  0  0  0  0  0  0
  -23.7926  -30.8049   31.3204 N   0  3  0  0  0  0  0  0  0  0  0  0
  -22.4710  -14.4971   21.2952 O   0  0  0  0  0  0  0  0  0  0  0  0
  -25.3706  -21.0788   23.5648 O   0  0  0  0  0  0  0  0  0  0  0  0
  -23.7514  -28.6403   23.1256 O   0  0  0  0  0  0  0  0  0  0  0  0
  -23.1175  -31.9415   25.5321 O   0  0  0  0  0  0  0  0  0  0  0  0
  -25.2088  -29.7001   29.1547 O   0  0  0  0  0  0  0  0  0  0  0  0
  -31.6689  -15.2641   20.2693 O   0  0  0  0  0  0  0  0  0  0  0  0
  -25.1955  -21.1454   27.1036 O   0  0  0  0  0  0  0  0  0  0  0  0
  -21.8928   -6.7425   21.6399 O   0  0  0  0  0  0  0  0  0  0  0  0
  -23.8209  -23.5575   26.5674 O   0  0  0  0  0  0  0  0  0  1  0  0
  -18.8795   -6.3781   26.2432 F   0  0  0  0  0  0  0  0  0  0  0  0
  -27.4093  -20.8954   22.4662 F   0  0  0  0  0  0  0  0  0  0  0  0
  -22.4458   -4.8206   23.5486 F   0  0  0  0  0  0  0  0  0  0  0  0
  -28.2315  -18.0871   26.2024 F   0  0  0  0  0  0  0  0  0  0  0  0
  1  2  1  0  0  0  0
  1  5  2  0  0  0  0
  2  6  2  0  0  0  0
  3  8  2  0  0  0  0
  3 16  1  0  0  0  0
  4  9  1  0  0  0  0
  4 16  2  0  0  0  0
  5 18  1  0  0  0  0
  6 20  1  0  0  0  0
  7 10  2  0  0  0  0
  7 19  1  0  0  0  0
  8 25  1  0  0  0  0
  9 25  2  0  0  0  0
 10 26  1  0  0  0  0
 11 12  2  0  0  0  0
 11 27  1  0  0  0  0
 12 28  1  0  0  0  0
 13 21  1  0  0  0  0
 13 26  2  0  0  0  0
 14 22  2  0  0  0  0
 14 29  1  0  0  0  0
 15 28  2  0  0  0  0
 15 30  1  0  0  0  0
 16 32  1  0  0  0  0
 17 32  1  0  0  0  0
 17 33  2  0  0  0  0
 17 35  1  0  0  0  0
 18 20  2  0  0  0  0
 18 42  1  0  0  0  0
 19 21  2  0  0  0  0
 19 43  1  0  0  0  0
 20 51  1  0  0  0  0
 21 44  1  0  0  0  0
 22 23  1  0  0  0  0
 22 61  1  0  0  0  0
 23 31  2  0  0  0  0
 23 60  1  0  0  0  0
 24 29  2  0  0  0  0
 24 31  1  0  0  0  0
 24 71  1  0  0  0  0
 25 83  1  0  0  0  0
 26 84  1  0  0  0  0
 27 30  2  0  0  0  0
 27 83  1  0  0  0  0
 28 85  1  0  0  0  0
 29 86  1  0  0  0  0
 30 87  1  0  0  0  0
 31 88  1  0  0  0  0
 32 65  2  0  0  0  0
 33 66  1  0  0  0  0
 33 69  1  0  0  0  0
 34 36  2  0  0  0  0
 34 84  1  0  0  0  0
 35 70  1  0  0  0  0
 35 76  2  0  0  0  0
 36 37  1  0  0  0  0
 36 82  1  0  0  0  0
 37 71  1  0  0  0  0
 37 77  2  0  0  0  0
 38 52  1  0  0  0  0
 38 72  1  0  0  0  0
 38 78  2  0  0  0  0
 39 62  1  0  0  0  0
 39 67  1  0  0  0  0
 39 79  2  0  0  0  0
 40 63  1  0  0  0  0
 40 73  1  0  0  0  0
 40 80  2  0  0  0  0
 41 68  1  0  0  0  0
 41 74  1  0  0  0  0
 41 81  2  0  0  0  0
 42 45  1  0  0  0  0
 43 52  1  0  0  0  0
 44 67  1  0  0  0  0
 45 47  1  0  0  0  0
 46 48  1  0  0  0  0
 46 49  1  0  0  0  0
 47 51  1  0  0  0  0
 48 53  1  0  0  0  0
 49 68  1  0  0  0  0
 50 53  1  0  0  0  0
 50 68  1  0  0  0  0
 51 72  1  0  0  0  0
 52 67  1  0  0  0  0
 53 66  1  0  0  0  0
 54 60  1  0  0  0  0
 55 63  1  0  0  0  0
 56 64  1  0  0  0  0
 57 64  1  0  0  0  0
 58 64  1  0  0  0  0
 59 75  1  0  0  0  0
 61 74  1  0  0  0  0
 62 64  1  0  0  0  0
 62 73  1  0  0  0  0
 63 75  1  0  0  0  0
 65 66  1  0  0  0  0
M  CHG  1  75   1
M  ISO  4  34 101  41 100  74 100  84 101
M  END
> <Batch ID>
0177

> <Smiles>
CCc1c(C[100NH:0][100C:0](=O)N2CCCC(n3nc(-c4ccc(Oc5ccc(F)cc5F)cc4)c(C(N)=O)c3N)C2)cc(F)c(NC(=O)C(=O)[101CH2:1][101O:1]c2ccc3c(c2)CN(C(=O)C(NC(=O)C(C)NC)C(C)(C)C)C(C(=O)NC2CCCc4ccccc42)C3)c1F

> <Shape>
0.255

> <Color>
0.225

> <Negative vol penalty>
0.000

$$$$

  -OEChem-04052304413D

 90 98  0     1  0  0  0  0  0999 V2000
  -27.0206  -37.2052   22.8720 C   0  0  0  0  0  0  0  0  0  0  0  0
  -27.5867  -36.0578   22.3257 C   0  0  0  0  0  0  0  0  0  0  0  0
  -24.0528   -9.5800   22.6656 C   0  0  0  0  0  0  0  0  0  0  0  0
  -23.6405  -10.2266   20.3746 C   0  0  0  0  0  0  0  0  0  0  0  0
  -26.0206  -37.0960   23.8374 C   0  0  0  0  0  0  0  0  0  0  0  0
  -27.1539  -34.8004   22.7453 C   0  0  0  0  0  0  0  0  0  0  0  0
  -26.6996  -29.7353   19.3331 C   0  0  0  0  0  0  0  0  0  0  0  0
  -23.0690   -8.5963   22.5651 C   0  0  0  0  0  0  0  0  0  0  0  0
  -22.6568   -9.2429   20.2739 C   0  0  0  0  0  0  0  0  0  0  0  0
  -27.5376  -28.6323   19.1753 C   0  0  0  0  0  0  0  0  0  0  0  0
  -22.7785   -5.4875   21.2675 C   0  0  0  0  0  0  0  0  0  0  0  0
  -23.0720   -4.2227   21.7771 C   0  0  0  0  0  0  0  0  0  0  0  0
  -26.2460  -27.4240   20.8158 C   0  0  0  0  0  0  0  0  0  0  0  0
  -28.3414  -19.6858   19.1359 C   0  0  0  0  0  0  0  0  0  0  0  0
  -21.2120   -4.4078   23.3078 C   0  0  0  0  0  0  0  0  0  0  0  0
  -24.3385  -10.3952   21.5704 C   0  0  0  0  0  0  0  0  0  0  0  0
  -26.7259  -11.2753   21.3883 C   0  0  0  0  0  0  0  0  0  0  0  0
  -25.5685  -35.8366   24.2620 C   0  0  0  0  0  0  0  0  0  0  0  0
  -25.6332  -29.6947   20.2429 C   0  0  0  0  0  0  0  0  0  0  0  0
  -26.1478  -34.6743   23.7183 C   0  0  0  0  0  0  0  0  0  0  0  0
  -25.3944  -28.5269   20.9813 C   0  0  0  0  0  0  0  0  0  0  0  0
  -29.8997  -19.7918   17.2928 C   0  0  0  0  0  0  0  0  0  0  0  0
  -30.2041  -18.4424   17.4725 C   0  0  0  0  0  0  0  0  0  0  0  0
  -28.9684  -20.4135   18.1245 C   0  0  0  0  0  0  0  0  0  0  0  0
  -28.6458  -18.3364   19.3157 C   0  0  0  0  0  0  0  0  0  0  0  0
  -22.3710   -8.4277   21.3692 C   0  0  0  0  0  0  0  0  0  0  0  0
  -27.3126  -27.4774   19.9188 C   0  0  0  0  0  0  0  0  0  0  0  0
  -21.7017   -6.2125   21.7781 C   0  0  0  0  0  0  0  0  0  0  0  0
  -22.2887   -3.6828   22.7972 C   0  0  0  0  0  0  0  0  0  0  0  0
  -20.9185   -5.6726   22.7983 C   0  0  0  0  0  0  0  0  0  0  0  0
  -29.5771  -17.7147   18.4839 C   0  0  0  0  0  0  0  0  0  0  0  0
  -25.3542  -11.4119   21.6739 C   0  0  0  0  0  0  0  0  0  0  0  0
  -27.2549  -12.5171   21.6427 C   0  0  0  0  0  0  0  0  0  0  0  0
  -27.4566  -10.1286   20.9337 C   0  0  0  0  0  0  0  0  0  0  0  0
  -27.6671  -23.9420   18.2428 C   0  0  0  0  0  0  0  0  0  0  0  0
  -27.7540  -22.5173   18.7089 C   0  0  0  0  0  0  0  0  0  0  0  0
  -24.8555  -31.3205   22.8612 C   0  0  0  0  0  0  0  0  0  0  0  0
  -22.1224  -29.5854   22.6553 C   0  0  0  0  0  0  0  0  0  0  0  0
  -20.5550  -26.7718   21.5268 C   0  0  0  0  0  0  0  0  0  0  0  0
  -27.0586  -18.0680   21.2535 C   0  0  0  0  0  0  0  0  0  0  0  0
  -24.5184  -35.7687   25.3425 C   0  0  0  0  0  0  0  0  0  0  0  0
  -24.7223  -30.8835   20.3818 C   0  0  0  0  0  0  0  0  0  0  0  0
  -24.2510  -28.4252   21.9564 C   0  0  0  0  0  0  0  0  0  0  0  0
  -23.8533  -34.3998   25.4602 C   0  0  0  0  0  0  0  0  0  0  0  0
  -25.2225  -16.5625   23.9066 C   0  0  0  0  0  0  0  0  0  0  0  0
  -24.9032  -33.2933   25.4473 C   0  0  0  0  0  0  0  0  0  0  0  0
  -25.2059  -15.0771   23.5388 C   0  0  0  0  0  0  0  0  0  0  0  0
  -25.1122  -17.4540   22.6710 C   0  0  0  0  0  0  0  0  0  0  0  0
  -26.0775  -15.6904   21.2473 C   0  0  0  0  0  0  0  0  0  0  0  0
  -25.6877  -33.2926   24.1297 C   0  0  1  0  0  0  0  0  0  0  0  0
  -23.9768  -30.9127   21.7125 C   0  0  1  0  0  0  0  0  0  0  0  0
  -26.2516  -14.7535   22.4537 C   0  0  2  0  0  0  0  0  0  0  0  0
  -31.1964  -17.7553   16.5919 C   0  0  0  0  0  0  0  0  0  0  0  0
  -18.3284  -25.6144   21.5477 C   0  0  0  0  0  0  0  0  0  0  0  0
  -22.6010  -28.7221   25.5425 C   0  0  0  0  0  0  0  0  0  0  0  0
  -20.9383  -26.8829   25.1948 C   0  0  0  0  0  0  0  0  0  0  0  0
  -20.2214  -29.2639   24.9965 C   0  0  0  0  0  0  0  0  0  0  0  0
  -20.3376  -26.8861   18.5774 C   0  0  0  0  0  0  0  0  0  0  0  0
  -28.9590  -24.7294   18.2454 C   0  0  0  0  0  0  0  0  0  0  0  0
  -28.7285  -26.2138   18.4855 C   0  0  0  0  0  0  0  0  0  1  0  0
  -21.6625  -28.2484   23.1844 C   0  0  1  0  0  0  0  0  0  0  0  0
  -19.2376  -26.5761   20.7984 C   0  0  2  0  0  0  0  0  0  0  0  0
  -30.5740  -20.5687   16.2055 C   0  0  0  0  0  0  0  0  0  0  0  0
  -21.3786  -28.2816   24.7127 C   0  0  0  0  0  0  0  0  0  0  0  0
  -25.0319  -12.6432   22.0788 N   0  0  0  0  0  0  0  0  0  0  0  0
  -26.2087  -13.2917   22.0497 N   0  0  0  0  0  0  0  0  0  0  0  0
  -23.3921  -29.6163   22.0614 N   0  0  0  0  0  0  0  0  0  0  0  0
  -26.1366  -17.0927   21.6887 N   0  0  0  0  0  0  0  0  0  0  0  0
  -28.5083  -13.0110   21.5558 N   0  0  0  0  0  0  0  0  0  0  0  0
  -26.7582   -8.9319   20.7224 N   0  0  0  0  0  0  0  0  0  0  0  0
  -28.6449  -21.7803   17.9588 N   0  0  0  0  0  0  0  0  0  0  0  0
  -28.0063  -17.6003   20.3437 N   0  0  0  0  0  0  0  0  0  0  0  0
  -24.9044  -32.6847   23.0754 N   0  0  0  0  0  0  0  0  0  0  0  0
  -20.5146  -27.8608   22.3716 N   0  0  0  0  0  0  0  0  0  0  0  0
  -19.4769  -26.0291   19.4329 N   0  3  0  0  0  0  0  0  0  0  0  0
  -28.6951  -10.1595   20.7368 O   0  0  0  0  0  0  0  0  0  0  0  0
  -26.5708  -24.3491   17.8893 O   0  0  0  0  0  0  0  0  0  0  0  0
  -27.0697  -22.2151   19.6723 O   0  0  0  0  0  0  0  0  0  0  0  0
  -25.4442  -30.4609   23.5063 O   0  0  0  0  0  0  0  0  0  0  0  0
  -21.3795  -30.5646   22.7587 O   0  0  0  0  0  0  0  0  0  0  0  0
  -21.5219  -26.0304   21.3655 O   0  0  0  0  0  0  0  0  0  0  0  0
  -27.0279  -19.2257   21.6789 O   0  0  0  0  0  0  0  0  0  0  0  0
  -21.4112   -7.4677   21.2706 O   0  0  0  0  0  0  0  0  0  0  0  0
  -28.1295  -26.3996   19.7673 O   0  0  0  0  0  0  0  0  0  1  0  0
  -22.5698   -2.4675   23.2854 F   0  0  0  0  0  0  0  0  0  0  0  0
  -19.8821   -6.3639   23.2920 F   0  0  0  0  0  0  0  0  0  0  0  0
  -29.8692  -16.4164   18.6552 F   0  0  0  0  0  0  0  0  0  0  0  0
  -31.4562  -19.8270   15.4763 F   0  0  0  0  0  0  0  0  0  0  0  0
  -29.7041  -21.0925   15.2951 F   0  0  0  0  0  0  0  0  0  0  0  0
  -31.2874  -21.6252   16.6874 F   0  0  0  0  0  0  0  0  0  0  0  0
  1  2  1  0  0  0  0
  1  5  2  0  0  0  0
  2  6  2  0  0  0  0
  3  8  2  0  0  0  0
  3 16  1  0  0  0  0
  4  9  1  0  0  0  0
  4 16  2  0  0  0  0
  5 18  1  0  0  0  0
  6 20  1  0  0  0  0
  7 10  2  0  0  0  0
  7 19  1  0  0  0  0
  8 26  1  0  0  0  0
  9 26  2  0  0  0  0
 10 27  1  0  0  0  0
 11 12  2  0  0  0  0
 11 28  1  0  0  0  0
 12 29  1  0  0  0  0
 13 21  1  0  0  0  0
 13 27  2  0  0  0  0
 14 24  1  0  0  0  0
 14 25  2  0  0  0  0
 15 29  2  0  0  0  0
 15 30  1  0  0  0  0
 16 32  1  0  0  0  0
 17 32  1  0  0  0  0
 17 33  2  0  0  0  0
 17 34  1  0  0  0  0
 18 20  2  0  0  0  0
 18 41  1  0  0  0  0
 19 21  2  0  0  0  0
 19 42  1  0  0  0  0
 20 50  1  0  0  0  0
 21 43  1  0  0  0  0
 22 23  1  0  0  0  0
 22 24  2  0  0  0  0
 22 63  1  0  0  0  0
 23 31  2  0  0  0  0
 23 53  1  0  0  0  0
 24 71  1  0  0  0  0
 25 31  1  0  0  0  0
 25 72  1  0  0  0  0
 26 83  1  0  0  0  0
 27 84  1  0  0  0  0
 28 30  2  0  0  0  0
 28 83  1  0  0  0  0
 29 85  1  0  0  0  0
 30 86  1  0  0  0  0
 31 87  1  0  0  0  0
 32 65  2  0  0  0  0
 33 66  1  0  0  0  0
 33 69  1  0  0  0  0
 34 70  1  0  0  0  0
 34 76  2  0  0  0  0
 35 36  1  0  0  0  0
 35 59  1  0  0  0  0
 35 77  2  0  0  0  0
 36 71  1  0  0  0  0
 36 78  2  0  0  0  0
 37 51  1  0  0  0  0
 37 73  1  0  0  0  0
 37 79  2  0  0  0  0
 38 61  1  0  0  0  0
 38 67  1  0  0  0  0
 38 80  2  0  0  0  0
 39 62  1  0  0  0  0
 39 74  1  0  0  0  0
 39 81  2  0  0  0  0
 40 68  1  0  0  0  0
 40 72  1  0  0  0  0
 40 82  2  0  0  0  0
 41 44  1  0  0  0  0
 42 51  1  0  0  0  0
 43 67  1  0  0  0  0
 44 46  1  0  0  0  0
 45 47  1  0  0  0  0
 45 48  1  0  0  0  0
 46 50  1  0  0  0  0
 47 52  1  0  0  0  0
 48 68  1  0  0  0  0
 49 52  1  0  0  0  0
 49 68  1  0  0  0  0
 50 73  1  0  0  0  0
 51 67  1  0  0  0  0
 52 66  1  0  0  0  0
 54 62  1  0  0  0  0
 55 64  1  0  0  0  0
 56 64  1  0  0  0  0
 57 64  1  0  0  0  0
 58 75  1  0  0  0  0
 59 60  1  0  0  0  0
 60 84  1  0  0  0  0
 61 64  1  0  0  0  0
 61 74  1  0  0  0  0
 62 75  1  0  0  0  0
 63 88  1  0  0  0  0
 63 89  1  0  0  0  0
 63 90  1  0  0  0  0
 65 66  1  0  0  0  0
M  CHG  1  75   1
M  ISO  4  40 100  60 101  72 100  84 101
M  END
> <Batch ID>
0177

> <Smiles>
CNC(C)C(=O)NC(C(=O)N1Cc2cc([101O:1][101CH2:1]CC(=O)C(=O)Nc3cc([100NH:0][100C:0](=O)N4CCCC(n5nc(-c6ccc(Oc7ccc(F)cc7F)cc6)c(C(N)=O)c5N)C4)c(F)c(C)c3C(F)(F)F)ccc2CC1C(=O)NC1CCCc2ccccc21)C(C)(C)C

> <Shape>
0.324

> <Color>
0.080

> <Negative vol penalty>
0.000

$$$$

  -OEChem-04052304413D

 85 93  0     1  0  0  0  0  0999 V2000
  -29.4653  -33.6167   25.2638 C   0  0  0  0  0  0  0  0  0  0  0  0
  -29.2174  -32.3279   24.8023 C   0  0  0  0  0  0  0  0  0  0  0  0
  -24.6739   -8.3669   21.2376 C   0  0  0  0  0  0  0  0  0  0  0  0
  -23.5988  -10.4659   21.7625 C   0  0  0  0  0  0  0  0  0  0  0  0
  -28.4006  -34.4683   25.5557 C   0  0  0  0  0  0  0  0  0  0  0  0
  -27.9044  -31.8896   24.6336 C   0  0  0  0  0  0  0  0  0  0  0  0
  -27.2243  -29.4314   20.2587 C   0  0  0  0  0  0  0  0  0  0  0  0
  -23.9977   -7.7564   22.2938 C   0  0  0  0  0  0  0  0  0  0  0  0
  -22.9226   -9.8554   22.8188 C   0  0  0  0  0  0  0  0  0  0  0  0
  -27.6658  -28.1105   20.1952 C   0  0  0  0  0  0  0  0  0  0  0  0
  -20.9024   -6.5361   22.8965 C   0  0  0  0  0  0  0  0  0  0  0  0
  -20.3174   -5.2924   22.6591 C   0  0  0  0  0  0  0  0  0  0  0  0
  -25.4062  -27.3444   20.5505 C   0  0  0  0  0  0  0  0  0  0  0  0
  -21.6923   -4.3155   24.3889 C   0  0  0  0  0  0  0  0  0  0  0  0
  -24.4745   -9.7217   20.9719 C   0  0  0  0  0  0  0  0  0  0  0  0
  -24.7407  -10.4657   18.5464 C   0  0  0  0  0  0  0  0  0  0  0  0
  -27.0741  -34.0434   25.3812 C   0  0  0  0  0  0  0  0  0  0  0  0
  -25.8698  -29.7192   20.4798 C   0  0  0  0  0  0  0  0  0  0  0  0
  -26.8210  -32.7358   24.9247 C   0  0  0  0  0  0  0  0  0  0  0  0
  -24.9496  -28.6698   20.6138 C   0  0  0  0  0  0  0  0  0  0  0  0
  -23.1221   -8.5007   23.0844 C   0  0  0  0  0  0  0  0  0  0  0  0
  -26.7572  -27.0667   20.3440 C   0  0  0  0  0  0  0  0  0  0  0  0
  -21.8825   -6.6696   23.8800 C   0  0  0  0  0  0  0  0  0  0  0  0
  -20.7123   -4.1821   23.4053 C   0  0  0  0  0  0  0  0  0  0  0  0
  -22.2774   -5.5592   24.6262 C   0  0  0  0  0  0  0  0  0  0  0  0
  -25.1731  -10.3531   19.8813 C   0  0  0  0  0  0  0  0  0  0  0  0
  -27.8205  -19.3204   20.6308 C   0  0  0  0  0  0  0  0  0  0  0  0
  -29.1661  -19.2597   20.3346 C   0  0  0  0  0  0  0  0  0  0  0  0
  -25.7536  -11.1437   17.9134 C   0  0  0  0  0  0  0  0  0  0  0  0
  -28.7158  -17.1144   20.2638 C   0  0  0  0  0  0  0  0  0  0  0  0
  -23.5314   -9.9991   17.9334 C   0  0  0  0  0  0  0  0  0  0  0  0
  -27.0395  -20.5451   20.8971 C   0  0  0  0  0  0  0  0  0  0  0  0
  -24.2394  -31.2287   22.7529 C   0  0  0  0  0  0  0  0  0  0  0  0
  -27.3665  -23.6772   21.4770 C   0  0  0  0  0  0  0  0  0  0  0  0
  -21.7436  -30.7518   20.7365 C   0  0  0  0  0  0  0  0  0  0  0  0
  -20.3808  -28.9286   18.1937 C   0  0  0  0  0  0  0  0  0  0  0  0
  -29.9375  -14.9539   19.8324 C   0  0  0  0  0  0  0  0  0  0  0  0
  -25.9556  -34.9836   25.7550 C   0  0  0  0  0  0  0  0  0  0  0  0
  -25.4052  -31.1493   20.5190 C   0  0  0  0  0  0  0  0  0  0  0  0
  -23.4815  -28.9254   20.8327 C   0  0  0  0  0  0  0  0  0  0  0  0
  -24.5982  -34.5695   25.1926 C   0  0  0  0  0  0  0  0  0  0  0  0
  -30.4817  -11.8722   18.1341 C   0  0  0  0  0  0  0  0  0  0  0  0
  -24.3559  -33.0814   25.4242 C   0  0  0  0  0  0  0  0  0  0  0  0
  -29.1408  -11.1457   18.2627 C   0  0  0  0  0  0  0  0  0  0  0  0
  -30.8165  -12.6717   19.3921 C   0  0  0  0  0  0  0  0  0  0  0  0
  -28.4284  -12.8751   19.9623 C   0  0  0  0  0  0  0  0  0  0  0  0
  -25.4109  -32.2321   24.7052 C   0  0  1  0  0  0  0  0  0  0  0  0
  -24.0847  -31.3285   21.2616 C   0  0  1  0  0  0  0  0  0  0  0  0
  -28.0174  -12.1085   18.6946 C   0  0  2  0  0  0  0  0  0  0  0  0
  -26.8604  -22.7897   23.7714 C   0  0  0  0  0  0  0  0  0  0  0  0
  -18.3119  -28.7534   16.7843 C   0  0  0  0  0  0  0  0  0  0  0  0
  -20.2632  -29.4649   23.0737 C   0  0  0  0  0  0  0  0  0  0  0  0
  -18.6550  -28.4841   21.4245 C   0  0  0  0  0  0  0  0  0  0  0  0
  -18.8575  -30.9606   21.6450 C   0  0  0  0  0  0  0  0  0  0  0  0
  -21.8951  -29.4357   15.7020 C   0  0  0  0  0  0  0  0  0  0  0  0
  -26.4589  -24.8142   21.0460 C   0  0  0  0  0  0  0  0  0  1  0  0
  -26.7185  -22.5661   22.2789 C   0  0  2  0  0  0  0  0  0  0  0  0
  -20.7216  -29.6581   20.5402 C   0  0  1  0  0  0  0  0  0  0  0  0
  -19.7057  -29.3505   16.9011 C   0  0  2  0  0  0  0  0  0  0  0  0
  -19.6522  -29.6368   21.6687 C   0  0  0  0  0  0  0  0  0  0  0  0
  -26.3678  -10.9144   20.0854 N   0  0  0  0  0  0  0  0  0  0  0  0
  -29.6813  -17.9955   20.1242 N   0  0  0  0  0  0  0  0  0  0  0  0
  -26.6947  -11.3863   18.8703 N   0  0  0  0  0  0  0  0  0  0  0  0
  -23.0773  -30.3406   20.8698 N   0  0  0  0  0  0  0  0  0  0  0  0
  -29.7086  -13.5649   19.7382 N   0  0  0  0  0  0  0  0  0  0  0  0
  -29.9725  -20.3450   20.2450 N   0  0  0  0  0  0  0  0  0  0  0  0
  -25.9222  -11.5501   16.6371 N   0  0  0  0  0  0  0  0  0  0  0  0
  -22.5976   -9.3211   18.7287 N   0  0  0  0  0  0  0  0  0  0  0  0
  -28.8030  -15.7060   20.1354 N   0  0  0  0  0  0  0  0  0  0  0  0
  -27.3999  -21.3240   21.9280 N   0  0  0  0  0  0  0  0  0  0  0  0
  -25.1164  -32.1513   23.2905 N   0  0  0  0  0  0  0  0  0  0  0  0
  -20.1738  -29.8469   19.2013 N   0  0  0  0  0  0  0  0  0  0  0  0
  -26.0076  -20.8182   20.0986 N   0  3  0  0  0  0  0  0  0  0  0  0
  -20.5084  -28.9035   15.7277 N   0  3  0  0  0  0  0  0  0  0  0  0
  -23.2936  -10.1638   16.7128 O   0  0  0  0  0  0  0  0  0  0  0  0
  -23.6085  -30.3786   23.3702 O   0  0  0  0  0  0  0  0  0  0  0  0
  -28.5630  -23.6648   21.1873 O   0  0  0  0  0  0  0  0  0  0  0  0
  -21.3729  -31.9280   20.7632 O   0  0  0  0  0  0  0  0  0  0  0  0
  -21.0240  -27.8868   18.3000 O   0  0  0  0  0  0  0  0  0  0  0  0
  -31.0518  -15.4432   19.6302 O   0  0  0  0  0  0  0  0  0  0  0  0
  -22.4619   -7.9052   24.1150 O   0  0  0  0  0  0  0  0  0  0  0  0
  -27.1856  -25.7765   20.2832 O   0  0  0  0  0  0  0  0  0  1  0  0
  -20.1492   -2.9881   23.1783 F   0  0  0  0  0  0  0  0  0  0  0  0
  -23.2177   -5.6815   25.5733 F   0  0  0  0  0  0  0  0  0  0  0  0
  -27.1631  -17.7364   20.6475 S   0  0  0  0  0  0  0  0  0  0  0  0
  1  2  1  0  0  0  0
  1  5  2  0  0  0  0
  2  6  2  0  0  0  0
  3  8  2  0  0  0  0
  3 15  1  0  0  0  0
  4  9  1  0  0  0  0
  4 15  2  0  0  0  0
  5 17  1  0  0  0  0
  6 19  1  0  0  0  0
  7 10  2  0  0  0  0
  7 18  1  0  0  0  0
  8 21  1  0  0  0  0
  9 21  2  0  0  0  0
 10 22  1  0  0  0  0
 11 12  2  0  0  0  0
 11 23  1  0  0  0  0
 12 24  1  0  0  0  0
 13 20  1  0  0  0  0
 13 22  2  0  0  0  0
 14 24  2  0  0  0  0
 14 25  1  0  0  0  0
 15 26  1  0  0  0  0
 16 26  1  0  0  0  0
 16 29  2  0  0  0  0
 16 31  1  0  0  0  0
 17 19  2  0  0  0  0
 17 38  1  0  0  0  0
 18 20  2  0  0  0  0
 18 39  1  0  0  0  0
 19 47  1  0  0  0  0
 20 40  1  0  0  0  0
 21 81  1  0  0  0  0
 22 82  1  0  0  0  0
 23 25  2  0  0  0  0
 23 81  1  0  0  0  0
 24 83  1  0  0  0  0
 25 84  1  0  0  0  0
 26 61  2  0  0  0  0
 27 28  2  0  0  0  0
 27 32  1  0  0  0  0
 27 85  1  0  0  0  0
 28 62  1  0  0  0  0
 28 66  1  0  0  0  0
 29 63  1  0  0  0  0
 29 67  1  0  0  0  0
 30 62  2  0  0  0  0
 30 69  1  0  0  0  0
 30 85  1  0  0  0  0
 31 68  1  0  0  0  0
 31 75  2  0  0  0  0
 32 70  1  0  0  0  0
 32 73  2  0  0  0  0
 33 48  1  0  0  0  0
 33 71  1  0  0  0  0
 33 76  2  0  0  0  0
 34 56  1  0  0  0  0
 34 57  1  0  0  0  0
 34 77  2  0  0  0  0
 35 58  1  0  0  0  0
 35 64  1  0  0  0  0
 35 78  2  0  0  0  0
 36 59  1  0  0  0  0
 36 72  1  0  0  0  0
 36 79  2  0  0  0  0
 37 65  1  0  0  0  0
 37 69  1  0  0  0  0
 37 80  2  0  0  0  0
 38 41  1  0  0  0  0
 39 48  1  0  0  0  0
 40 64  1  0  0  0  0
 41 43  1  0  0  0  0
 42 44  1  0  0  0  0
 42 45  1  0  0  0  0
 43 47  1  0  0  0  0
 44 49  1  0  0  0  0
 45 65  1  0  0  0  0
 46 49  1  0  0  0  0
 46 65  1  0  0  0  0
 47 71  1  0  0  0  0
 48 64  1  0  0  0  0
 49 63  1  0  0  0  0
 50 57  1  0  0  0  0
 51 59  1  0  0  0  0
 52 60  1  0  0  0  0
 53 60  1  0  0  0  0
 54 60  1  0  0  0  0
 55 74  1  0  0  0  0
 56 82  1  0  0  0  0
 57 70  1  0  0  0  0
 58 60  1  0  0  0  0
 58 72  1  0  0  0  0
 59 74  1  0  0  0  0
 61 63  1  0  0  0  0
M  CHG  2  73   1  74   1
M  ISO  4  37 100  56 101  69 100  82 101
M  END
> <Batch ID>
0177

> <Smiles>
CNC(C)C(=O)NC(C(=O)N1Cc2cc([101O:1][101CH2:1]C(=O)C(C)NC(=N)c3sc([100NH:0][100C:0](=O)N4CCCC(n5nc(-c6ccc(Oc7ccc(F)cc7F)cc6)c(C(N)=O)c5N)C4)nc3N)ccc2CC1C(=O)NC1CCCc2ccccc21)C(C)(C)C

> <Shape>
0.300

> <Color>
0.099

> <Negative vol penalty>
0.000

$$$$

  -OEChem-04052304413D

 87 95  0     1  0  0  0  0  0999 V2000
  -16.4596  -27.6610   23.2877 C   0  0  0  0  0  0  0  0  0  0  0  0
  -17.3430  -27.1191   22.3596 C   0  0  0  0  0  0  0  0  0  0  0  0
  -24.2727   -9.5383   20.1694 C   0  0  0  0  0  0  0  0  0  0  0  0
  -22.6009  -10.6795   21.4883 C   0  0  0  0  0  0  0  0  0  0  0  0
  -16.6829  -28.9396   23.7968 C   0  0  0  0  0  0  0  0  0  0  0  0
  -18.4497  -27.8560   21.9394 C   0  0  0  0  0  0  0  0  0  0  0  0
  -25.1387  -25.3343   22.8284 C   0  0  0  0  0  0  0  0  0  0  0  0
  -25.7868  -21.9325   18.4496 C   0  0  0  0  0  0  0  0  0  0  0  0
  -23.7759   -8.3092   20.6031 C   0  0  0  0  0  0  0  0  0  0  0  0
  -22.1040   -9.4505   21.9220 C   0  0  0  0  0  0  0  0  0  0  0  0
  -26.4374  -24.8280   22.7718 C   0  0  0  0  0  0  0  0  0  0  0  0
  -22.9335   -7.0904   24.1965 C   0  0  0  0  0  0  0  0  0  0  0  0
  -24.6277  -21.5653   19.1331 C   0  0  0  0  0  0  0  0  0  0  0  0
  -22.6483   -6.9495   25.5545 C   0  0  0  0  0  0  0  0  0  0  0  0
  -27.2239  -26.9192   21.8465 C   0  0  0  0  0  0  0  0  0  0  0  0
  -20.3390   -6.4808   25.0210 C   0  0  0  0  0  0  0  0  0  0  0  0
  -23.6853  -10.7235   20.6120 C   0  0  0  0  0  0  0  0  0  0  0  0
  -23.7969  -12.7197   19.0277 C   0  0  0  0  0  0  0  0  0  0  0  0
  -17.7982  -29.6887   23.3899 C   0  0  0  0  0  0  0  0  0  0  0  0
  -24.8801  -26.6419   22.4080 C   0  0  0  0  0  0  0  0  0  0  0  0
  -18.6874  -29.1463   22.4425 C   0  0  0  0  0  0  0  0  0  0  0  0
  -25.9273  -27.4361   21.9124 C   0  0  0  0  0  0  0  0  0  0  0  0
  -26.9593  -21.1961   18.6191 C   0  0  0  0  0  0  0  0  0  0  0  0
  -25.8136  -19.7255   20.1559 C   0  0  0  0  0  0  0  0  0  0  0  0
  -22.6915   -8.2653   21.4794 C   0  0  0  0  0  0  0  0  0  0  0  0
  -27.4773  -25.6184   22.2819 C   0  0  0  0  0  0  0  0  0  0  0  0
  -21.9214   -6.9266   23.2506 C   0  0  0  0  0  0  0  0  0  0  0  0
  -21.3511   -6.6446   25.9668 C   0  0  0  0  0  0  0  0  0  0  0  0
  -24.6411  -20.4619   19.9862 C   0  0  0  0  0  0  0  0  0  0  0  0
  -20.6242   -6.6218   23.6629 C   0  0  0  0  0  0  0  0  0  0  0  0
  -26.9727  -20.0927   19.4723 C   0  0  0  0  0  0  0  0  0  0  0  0
  -24.1984  -11.9934   20.1648 C   0  0  0  0  0  0  0  0  0  0  0  0
  -24.5804  -13.8477   19.0464 C   0  0  0  0  0  0  0  0  0  0  0  0
  -22.8043  -12.4032   18.0426 C   0  0  0  0  0  0  0  0  0  0  0  0
  -30.2121  -24.0490   19.9367 C   0  0  0  0  0  0  0  0  0  0  0  0
  -29.1512  -23.6063   18.9716 C   0  0  0  0  0  0  0  0  0  0  0  0
  -22.3405  -29.3621   21.9314 C   0  0  0  0  0  0  0  0  0  0  0  0
  -24.8855  -30.6971   23.0043 C   0  0  0  0  0  0  0  0  0  0  0  0
  -27.7308  -31.7144   24.5875 C   0  0  0  0  0  0  0  0  0  0  0  0
  -26.9066  -18.1181   21.7583 C   0  0  0  0  0  0  0  0  0  0  0  0
  -17.9720  -31.0852   23.9325 C   0  0  0  0  0  0  0  0  0  0  0  0
  -23.4861  -27.2078   22.3935 C   0  0  0  0  0  0  0  0  0  0  0  0
  -25.5962  -28.8250   21.4389 C   0  0  0  0  0  0  0  0  0  0  0  0
  -19.3729  -31.6522   23.7175 C   0  0  0  0  0  0  0  0  0  0  0  0
  -28.6258  -15.0019   21.8612 C   0  0  0  0  0  0  0  0  0  0  0  0
  -19.8344  -31.4058   22.2847 C   0  0  0  0  0  0  0  0  0  0  0  0
  -27.5942  -14.0012   21.3355 C   0  0  0  0  0  0  0  0  0  0  0  0
  -27.9768  -16.0898   22.7151 C   0  0  0  0  0  0  0  0  0  0  0  0
  -25.8256  -15.7934   21.5516 C   0  0  0  0  0  0  0  0  0  0  0  0
  -19.9128  -29.9048   21.9807 C   0  0  1  0  0  0  0  0  0  0  0  0
  -23.4420  -28.7122   22.7161 C   0  0  1  0  0  0  0  0  0  0  0  0
  -26.4233  -14.7156   20.6325 C   0  0  2  0  0  0  0  0  0  0  0  0
  -28.8431  -33.7632   25.5163 C   0  0  0  0  0  0  0  0  0  0  0  0
  -25.5801  -31.5984   20.1743 C   0  0  0  0  0  0  0  0  0  0  0  0
  -27.4056  -33.0085   21.1476 C   0  0  0  0  0  0  0  0  0  0  0  0
  -25.0280  -33.4560   21.7551 C   0  0  0  0  0  0  0  0  0  0  0  0
  -27.7907  -30.5839   27.3220 C   0  0  0  0  0  0  0  0  0  0  0  0
  -28.2049  -21.5938   17.8812 C   0  0  0  0  0  0  0  0  0  0  0  0
  -30.1789  -23.4209   21.3127 C   0  0  0  0  0  0  0  0  0  0  0  0
  -28.8790  -23.7110   22.0480 C   0  0  0  0  0  0  0  0  0  1  0  0
  -26.1777  -31.4023   22.6784 C   0  0  1  0  0  0  0  0  0  0  0  0
  -27.9455  -32.5738   25.8203 C   0  0  2  0  0  0  0  0  0  0  0  0
  -26.0470  -32.3383   21.4438 C   0  0  0  0  0  0  0  0  0  0  0  0
  -25.1623  -12.6082   20.8555 N   0  0  0  0  0  0  0  0  0  0  0  0
  -25.3730  -13.7327   20.1503 N   0  0  0  0  0  0  0  0  0  0  0  0
  -24.6610  -29.4659   22.3766 N   0  0  0  0  0  0  0  0  0  0  0  0
  -26.8792  -16.7254   21.9829 N   0  0  0  0  0  0  0  0  0  0  0  0
  -24.6618  -14.9166   18.2259 N   0  0  0  0  0  0  0  0  0  0  0  0
  -22.0908  -11.2041   18.1744 N   0  0  0  0  0  0  0  0  0  0  0  0
  -25.8264  -18.6049   21.0229 N   0  0  0  0  0  0  0  0  0  0  0  0
  -29.1589  -22.2493   18.7451 N   0  0  0  0  0  0  0  0  0  0  0  0
  -21.1100  -29.3338   22.5595 N   0  0  0  0  0  0  0  0  0  0  0  0
  -26.5922  -32.0809   23.9015 N   0  0  0  0  0  0  0  0  0  0  0  0
  -28.5783  -31.7730   26.9062 N   0  3  0  0  0  0  0  0  0  0  0  0
  -22.5689  -13.1533   17.0652 O   0  0  0  0  0  0  0  0  0  0  0  0
  -31.0220  -24.8724   19.5378 O   0  0  0  0  0  0  0  0  0  0  0  0
  -28.3983  -24.4571   18.5244 O   0  0  0  0  0  0  0  0  0  0  0  0
  -22.5878  -29.8548   20.8370 O   0  0  0  0  0  0  0  0  0  0  0  0
  -24.0923  -31.2241   23.7895 O   0  0  0  0  0  0  0  0  0  0  0  0
  -28.4984  -30.8110   24.2634 O   0  0  0  0  0  0  0  0  0  0  0  0
  -27.8347  -18.8227   22.1635 O   0  0  0  0  0  0  0  0  0  0  0  0
  -22.2063   -7.0661   21.9026 O   0  0  0  0  0  0  0  0  0  0  0  0
  -28.7436  -25.1194   22.2337 O   0  0  0  0  0  0  0  0  0  1  0  0
  -21.0777   -6.5078   27.2709 F   0  0  0  0  0  0  0  0  0  0  0  0
  -23.5214  -20.1181   20.6385 F   0  0  0  0  0  0  0  0  0  0  0  0
  -19.6480   -6.4620   22.7588 F   0  0  0  0  0  0  0  0  0  0  0  0
  -28.1014  -19.3857   19.6336 F   0  0  0  0  0  0  0  0  0  0  0  0
  1  2  1  0  0  0  0
  1  5  2  0  0  0  0
  2  6  2  0  0  0  0
  3  9  2  0  0  0  0
  3 17  1  0  0  0  0
  4 10  1  0  0  0  0
  4 17  2  0  0  0  0
  5 19  1  0  0  0  0
  6 21  1  0  0  0  0
  7 11  2  0  0  0  0
  7 20  1  0  0  0  0
  8 13  2  0  0  0  0
  8 23  1  0  0  0  0
  9 25  1  0  0  0  0
 10 25  2  0  0  0  0
 11 26  1  0  0  0  0
 12 14  2  0  0  0  0
 12 27  1  0  0  0  0
 13 29  1  0  0  0  0
 14 28  1  0  0  0  0
 15 22  1  0  0  0  0
 15 26  2  0  0  0  0
 16 28  2  0  0  0  0
 16 30  1  0  0  0  0
 17 32  1  0  0  0  0
 18 32  1  0  0  0  0
 18 33  2  0  0  0  0
 18 34  1  0  0  0  0
 19 21  2  0  0  0  0
 19 41  1  0  0  0  0
 20 22  2  0  0  0  0
 20 42  1  0  0  0  0
 21 50  1  0  0  0  0
 22 43  1  0  0  0  0
 23 31  2  0  0  0  0
 23 58  1  0  0  0  0
 24 29  2  0  0  0  0
 24 31  1  0  0  0  0
 24 70  1  0  0  0  0
 25 82  1  0  0  0  0
 26 83  1  0  0  0  0
 27 30  2  0  0  0  0
 27 82  1  0  0  0  0
 28 84  1  0  0  0  0
 29 85  1  0  0  0  0
 30 86  1  0  0  0  0
 31 87  1  0  0  0  0
 32 64  2  0  0  0  0
 33 65  1  0  0  0  0
 33 68  1  0  0  0  0
 34 69  1  0  0  0  0
 34 75  2  0  0  0  0
 35 36  1  0  0  0  0
 35 59  1  0  0  0  0
 35 76  2  0  0  0  0
 36 71  1  0  0  0  0
 36 77  2  0  0  0  0
 37 51  1  0  0  0  0
 37 72  1  0  0  0  0
 37 78  2  0  0  0  0
 38 61  1  0  0  0  0
 38 66  1  0  0  0  0
 38 79  2  0  0  0  0
 39 62  1  0  0  0  0
 39 73  1  0  0  0  0
 39 80  2  0  0  0  0
 40 67  1  0  0  0  0
 40 70  1  0  0  0  0
 40 81  2  0  0  0  0
 41 44  1  0  0  0  0
 42 51  1  0  0  0  0
 43 66  1  0  0  0  0
 44 46  1  0  0  0  0
 45 47  1  0  0  0  0
 45 48  1  0  0  0  0
 46 50  1  0  0  0  0
 47 52  1  0  0  0  0
 48 67  1  0  0  0  0
 49 52  1  0  0  0  0
 49 67  1  0  0  0  0
 50 72  1  0  0  0  0
 51 66  1  0  0  0  0
 52 65  1  0  0  0  0
 53 62  1  0  0  0  0
 54 63  1  0  0  0  0
 55 63  1  0  0  0  0
 56 63  1  0  0  0  0
 57 74  1  0  0  0  0
 58 71  1  0  0  0  0
 59 60  1  0  0  0  0
 60 83  1  0  0  0  0
 61 63  1  0  0  0  0
 61 73  1  0  0  0  0
 62 74  1  0  0  0  0
 64 65  1  0  0  0  0
M  CHG  1  74   1
M  ISO  4  40 100  60 101  70 100  83 101
M  END
> <Batch ID>
0177

> <Smiles>
CNC(C)C(=O)NC(C(=O)N1Cc2cc([101O:1][101CH2:1]CC(=O)C(=O)NCc3ccc(F)c([100NH:0][100C:0](=O)N4CCCC(n5nc(-c6ccc(Oc7ccc(F)cc7F)cc6)c(C(N)=O)c5N)C4)c3F)ccc2CC1C(=O)NC1CCCc2ccccc21)C(C)(C)C

> <Shape>
0.283

> <Color>
0.085

> <Negative vol penalty>
0.000

$$$$

  -OEChem-04052304413D

 89 97  0     1  0  0  0  0  0999 V2000
  -19.0310  -28.5933   24.1638 C   0  0  0  0  0  0  0  0  0  0  0  0
  -19.1258  -27.2832   23.7053 C   0  0  0  0  0  0  0  0  0  0  0  0
  -23.4636   -9.6334   19.9071 C   0  0  0  0  0  0  0  0  0  0  0  0
  -23.7465   -9.9323   22.2878 C   0  0  0  0  0  0  0  0  0  0  0  0
  -19.5196  -29.6406   23.3839 C   0  0  0  0  0  0  0  0  0  0  0  0
  -19.7084  -27.0199   22.4661 C   0  0  0  0  0  0  0  0  0  0  0  0
  -23.0715  -22.1336   20.9430 C   0  0  0  0  0  0  0  0  0  0  0  0
  -22.7944   -8.4315   20.1376 C   0  0  0  0  0  0  0  0  0  0  0  0
  -23.0773   -8.7304   22.5183 C   0  0  0  0  0  0  0  0  0  0  0  0
  -22.7585  -20.9511   20.2741 C   0  0  0  0  0  0  0  0  0  0  0  0
  -19.8815   -7.6335   22.5835 C   0  0  0  0  0  0  0  0  0  0  0  0
  -18.9131   -7.6148   23.5871 C   0  0  0  0  0  0  0  0  0  0  0  0
  -23.5541  -21.9148   18.2107 C   0  0  0  0  0  0  0  0  0  0  0  0
  -25.7244  -12.9178   16.6642 C   0  0  0  0  0  0  0  0  0  0  0  0
  -27.5507  -11.3361   16.6568 C   0  0  0  0  0  0  0  0  0  0  0  0
  -20.1559   -5.9031   24.7544 C   0  0  0  0  0  0  0  0  0  0  0  0
  -23.9397  -10.3838   20.9823 C   0  0  0  0  0  0  0  0  0  0  0  0
  -24.0642  -12.9102   20.6512 C   0  0  0  0  0  0  0  0  0  0  0  0
  -20.1172  -29.3891   22.1389 C   0  0  0  0  0  0  0  0  0  0  0  0
  -23.6190  -23.2213   20.2475 C   0  0  0  0  0  0  0  0  0  0  0  0
  -20.2043  -28.0650   21.6683 C   0  0  0  0  0  0  0  0  0  0  0  0
  -23.8755  -23.1091   18.8736 C   0  0  0  0  0  0  0  0  0  0  0  0
  -27.9963  -13.6947   16.9318 C   0  0  0  0  0  0  0  0  0  0  0  0
  -26.6302  -13.9629   16.8451 C   0  0  0  0  0  0  0  0  0  0  0  0
  -28.4566  -12.3813   16.8377 C   0  0  0  0  0  0  0  0  0  0  0  0
  -22.6013   -7.9799   21.4431 C   0  0  0  0  0  0  0  0  0  0  0  0
  -22.9971  -20.8426   18.9072 C   0  0  0  0  0  0  0  0  0  0  0  0
  -20.9871   -6.7869   22.6652 C   0  0  0  0  0  0  0  0  0  0  0  0
  -19.0502   -6.7496   24.6726 C   0  0  0  0  0  0  0  0  0  0  0  0
  -26.1847  -11.6044   16.5701 C   0  0  0  0  0  0  0  0  0  0  0  0
  -21.1243   -5.9217   23.7507 C   0  0  0  0  0  0  0  0  0  0  0  0
  -24.6315  -11.6252   20.7449 C   0  0  0  0  0  0  0  0  0  0  0  0
  -25.1330  -13.7415   20.4206 C   0  0  0  0  0  0  0  0  0  0  0  0
  -24.7172  -17.1927   17.0100 C   0  0  0  0  0  0  0  0  0  0  0  0
  -22.6936  -13.3161   20.7626 C   0  0  0  0  0  0  0  0  0  0  0  0
  -23.5548  -17.8647   16.9804 C   0  0  0  0  0  0  0  0  0  0  0  0
  -24.8162  -15.7056   16.8687 C   0  0  0  0  0  0  0  0  0  0  0  0
  -22.6975  -26.2083   19.6709 C   0  0  0  0  0  0  0  0  0  0  0  0
  -25.6561  -26.4555   18.3640 C   0  0  0  0  0  0  0  0  0  0  0  0
  -28.3315  -24.8922   16.9339 C   0  0  0  0  0  0  0  0  0  0  0  0
  -30.6175  -12.4087   18.0725 C   0  0  0  0  0  0  0  0  0  0  0  0
  -20.5883  -30.5581   21.3104 C   0  0  0  0  0  0  0  0  0  0  0  0
  -23.9758  -24.4805   20.9887 C   0  0  0  0  0  0  0  0  0  0  0  0
  -24.4806  -24.2406   18.0849 C   0  0  0  0  0  0  0  0  0  0  0  0
  -21.5295  -30.1608   20.1761 C   0  0  0  0  0  0  0  0  0  0  0  0
  -29.8250  -14.1399   21.2324 C   0  0  0  0  0  0  0  0  0  0  0  0
  -20.9761  -28.9571   19.4201 C   0  0  0  0  0  0  0  0  0  0  0  0
  -28.3714  -13.7421   21.4833 C   0  0  0  0  0  0  0  0  0  0  0  0
  -30.5824  -13.0628   20.4616 C   0  0  0  0  0  0  0  0  0  0  0  0
  -28.4748  -12.2722   19.4305 C   0  0  0  0  0  0  0  0  0  0  0  0
  -20.8520  -27.7369   20.3405 C   0  0  1  0  0  0  0  0  0  0  0  0
  -24.0522  -25.7057   20.0830 C   0  0  1  0  0  0  0  0  0  0  0  0
  -27.6735  -13.3558   20.1678 C   0  0  1  0  0  0  0  0  0  0  0  0
  -28.9686  -14.8169   17.1252 C   0  0  0  0  0  0  0  0  0  0  0  0
  -30.5847  -25.3625   15.9343 C   0  0  0  0  0  0  0  0  0  0  0  0
  -31.5344  -11.9545   15.1232 C   0  0  0  0  0  0  0  0  0  0  0  0
  -31.0183   -9.9461   16.5457 C   0  0  0  0  0  0  0  0  0  0  0  0
  -24.3123  -27.4873   15.8264 C   0  0  0  0  0  0  0  0  0  0  0  0
  -26.4454  -27.0350   14.5962 C   0  0  0  0  0  0  0  0  0  0  0  0
  -26.4099  -28.6927   16.4600 C   0  0  0  0  0  0  0  0  0  0  0  0
  -29.7078  -23.2434   18.9701 C   0  0  0  0  0  0  0  0  0  0  0  0
  -23.4900  -19.3573   17.1164 C   0  0  0  0  0  0  0  0  0  1  0  0
  -26.2410  -26.2266   16.9912 C   0  0  1  0  0  0  0  0  0  0  0  0
  -29.8222  -25.0014   17.1995 C   0  0  2  0  0  0  0  0  0  0  0  0
  -30.4589  -11.2090   15.9034 C   0  0  0  0  0  0  0  0  0  0  0  0
  -25.8389  -27.3396   15.9826 C   0  0  0  0  0  0  0  0  0  0  0  0
  -25.9578  -11.6344   20.5866 N   0  0  0  0  0  0  0  0  0  0  0  0
  -26.2327  -12.9353   20.3910 N   0  0  0  0  0  0  0  0  0  0  0  0
  -24.8063  -25.4534   18.8533 N   0  0  0  0  0  0  0  0  0  0  0  0
  -29.8747  -12.6814   19.2388 N   0  0  0  0  0  0  0  0  0  0  0  0
  -25.2299  -15.0761   20.2422 N   0  0  0  0  0  0  0  0  0  0  0  0
  -21.7230  -12.3334   21.0006 N   0  0  0  0  0  0  0  0  0  0  0  0
  -26.1403  -15.2891   16.9375 N   0  0  0  0  0  0  0  0  0  0  0  0
  -22.1474  -27.1252   20.5462 N   0  0  0  0  0  0  0  0  0  0  0  0
  -27.6805  -26.0826   17.1796 N   0  0  0  0  0  0  0  0  0  0  0  0
  -29.8661  -12.0800   16.9235 N   0  0  0  0  0  0  0  0  0  0  0  0
  -30.3526  -23.7075   17.7148 N   0  3  0  0  0  0  0  0  0  0  0  0
  -22.3381  -14.5126   20.6381 O   0  0  0  0  0  0  0  0  0  0  0  0
  -23.8223  -15.0065   16.7155 O   0  0  0  0  0  0  0  0  0  0  0  0
  -22.1896  -25.7959   18.6347 O   0  0  0  0  0  0  0  0  0  0  0  0
  -25.9483  -27.4821   18.9823 O   0  0  0  0  0  0  0  0  0  0  0  0
  -27.7986  -23.8558   16.5437 O   0  0  0  0  0  0  0  0  0  0  0  0
  -31.8519  -12.4826   18.0530 O   0  0  0  0  0  0  0  0  0  0  0  0
  -22.3407  -17.2314   16.8035 O   0  0  0  0  0  0  0  0  0  0  0  0
  -21.9481   -6.8072   21.6683 O   0  0  0  0  0  0  0  0  0  0  0  0
  -22.6920  -19.6897   18.2517 O   0  0  0  0  0  0  0  0  0  1  0  0
  -18.1210   -6.7329   25.6372 F   0  0  0  0  0  0  0  0  0  0  0  0
  -25.3144  -10.6009   16.3967 F   0  0  0  0  0  0  0  0  0  0  0  0
  -22.1848   -5.1069   23.8353 F   0  0  0  0  0  0  0  0  0  0  0  0
  1  2  1  0  0  0  0
  1  5  2  0  0  0  0
  2  6  2  0  0  0  0
  3  8  2  0  0  0  0
  3 17  1  0  0  0  0
  4  9  1  0  0  0  0
  4 17  2  0  0  0  0
  5 19  1  0  0  0  0
  6 21  1  0  0  0  0
  7 10  2  0  0  0  0
  7 20  1  0  0  0  0
  8 26  1  0  0  0  0
  9 26  2  0  0  0  0
 10 27  1  0  0  0  0
 11 12  2  0  0  0  0
 11 28  1  0  0  0  0
 12 29  1  0  0  0  0
 13 22  1  0  0  0  0
 13 27  2  0  0  0  0
 14 24  1  0  0  0  0
 14 30  2  0  0  0  0
 15 25  2  0  0  0  0
 15 30  1  0  0  0  0
 16 29  2  0  0  0  0
 16 31  1  0  0  0  0
 17 32  1  0  0  0  0
 18 32  1  0  0  0  0
 18 33  2  0  0  0  0
 18 35  1  0  0  0  0
 19 21  2  0  0  0  0
 19 42  1  0  0  0  0
 20 22  2  0  0  0  0
 20 43  1  0  0  0  0
 21 51  1  0  0  0  0
 22 44  1  0  0  0  0
 23 24  2  0  0  0  0
 23 25  1  0  0  0  0
 23 54  1  0  0  0  0
 24 73  1  0  0  0  0
 25 76  1  0  0  0  0
 26 85  1  0  0  0  0
 27 86  1  0  0  0  0
 28 31  2  0  0  0  0
 28 85  1  0  0  0  0
 29 87  1  0  0  0  0
 30 88  1  0  0  0  0
 31 89  1  0  0  0  0
 32 67  2  0  0  0  0
 33 68  1  0  0  0  0
 33 71  1  0  0  0  0
 34 36  2  0  0  0  0
 34 37  1  0  0  0  0
 35 72  1  0  0  0  0
 35 78  2  0  0  0  0
 36 62  1  0  0  0  0
 36 84  1  0  0  0  0
 37 73  1  0  0  0  0
 37 79  2  0  0  0  0
 38 52  1  0  0  0  0
 38 74  1  0  0  0  0
 38 80  2  0  0  0  0
 39 63  1  0  0  0  0
 39 69  1  0  0  0  0
 39 81  2  0  0  0  0
 40 64  1  0  0  0  0
 40 75  1  0  0  0  0
 40 82  2  0  0  0  0
 41 70  1  0  0  0  0
 41 76  1  0  0  0  0
 41 83  2  0  0  0  0
 42 45  1  0  0  0  0
 43 52  1  0  0  0  0
 44 69  1  0  0  0  0
 45 47  1  0  0  0  0
 46 48  1  0  0  0  0
 46 49  1  0  0  0  0
 47 51  1  0  0  0  0
 48 53  1  0  0  0  0
 49 70  1  0  0  0  0
 50 53  1  0  0  0  0
 50 70  1  0  0  0  0
 51 74  1  0  0  0  0
 52 69  1  0  0  0  0
 53 68  1  0  0  0  0
 55 64  1  0  0  0  0
 56 65  1  0  0  0  0
 57 65  1  0  0  0  0
 58 66  1  0  0  0  0
 59 66  1  0  0  0  0
 60 66  1  0  0  0  0
 61 77  1  0  0  0  0
 62 86  1  0  0  0  0
 63 66  1  0  0  0  0
 63 75  1  0  0  0  0
 64 77  1  0  0  0  0
 65 76  1  0  0  0  0
 67 68  1  0  0  0  0
M  CHG  1  77   1
M  ISO  4  41 100  62 101  76 100  86 101
M  END
> <Batch ID>
0177

> <Smiles>
CNC(C)C(=O)NC(C(=O)N1Cc2cc([101O:1][101CH2:1]C(=O)CC(=O)Nc3cc(F)cc([100N:0](C(C)C)[100C:0](=O)N4CCCC(n5nc(-c6ccc(Oc7ccc(F)cc7F)cc6)c(C(N)=O)c5N)C4)c3C)ccc2CC1C(=O)NC1CCCc2ccccc21)C(C)(C)C

> <Shape>
0.233

> <Color>
0.162

> <Negative vol penalty>
0.000

$$$$

  -OEChem-04052304413D

 90 98  0     1  0  0  0  0  0999 V2000
  -26.3440  -38.0642   22.0075 C   0  0  0  0  0  0  0  0  0  0  0  0
  -26.9825  -37.1192   21.2108 C   0  0  0  0  0  0  0  0  0  0  0  0
  -24.4702   -9.6720   19.9380 C   0  0  0  0  0  0  0  0  0  0  0  0
  -24.6646  -10.0421   22.3175 C   0  0  0  0  0  0  0  0  0  0  0  0
  -25.7220  -37.6702   23.1915 C   0  0  0  0  0  0  0  0  0  0  0  0
  -27.0005  -35.7798   21.5983 C   0  0  0  0  0  0  0  0  0  0  0  0
  -26.9564  -29.1689   18.8397 C   0  0  0  0  0  0  0  0  0  0  0  0
  -24.1777   -8.3282   20.1709 C   0  0  0  0  0  0  0  0  0  0  0  0
  -24.3720   -8.6983   22.5504 C   0  0  0  0  0  0  0  0  0  0  0  0
  -27.6647  -27.9698   18.9050 C   0  0  0  0  0  0  0  0  0  0  0  0
  -21.6295   -6.7253   22.6289 C   0  0  0  0  0  0  0  0  0  0  0  0
  -20.7119   -6.4286   23.6366 C   0  0  0  0  0  0  0  0  0  0  0  0
  -26.4890  -27.3927   20.9308 C   0  0  0  0  0  0  0  0  0  0  0  0
  -22.4009   -5.1499   24.7981 C   0  0  0  0  0  0  0  0  0  0  0  0
  -24.7137  -10.5290   21.0113 C   0  0  0  0  0  0  0  0  0  0  0  0
  -24.1018  -12.9833   20.6803 C   0  0  0  0  0  0  0  0  0  0  0  0
  -25.7241  -36.3238   23.5889 C   0  0  0  0  0  0  0  0  0  0  0  0
  -26.0153  -29.4944   19.8270 C   0  0  0  0  0  0  0  0  0  0  0  0
  -26.3792  -35.3677   22.7895 C   0  0  0  0  0  0  0  0  0  0  0  0
  -25.7682  -28.5953   20.8743 C   0  0  0  0  0  0  0  0  0  0  0  0
  -24.1285   -7.8414   21.4771 C   0  0  0  0  0  0  0  0  0  0  0  0
  -27.4332  -27.0828   19.9522 C   0  0  0  0  0  0  0  0  0  0  0  0
  -22.9328   -6.2342   22.7057 C   0  0  0  0  0  0  0  0  0  0  0  0
  -21.0976   -5.6409   24.7212 C   0  0  0  0  0  0  0  0  0  0  0  0
  -23.3185   -5.4465   23.7903 C   0  0  0  0  0  0  0  0  0  0  0  0
  -25.0165  -11.9171   20.7713 C   0  0  0  0  0  0  0  0  0  0  0  0
  -27.2531  -21.2285   23.3191 C   0  0  0  0  0  0  0  0  0  0  0  0
  -28.5436  -21.2961   22.8372 C   0  0  0  0  0  0  0  0  0  0  0  0
  -24.8840  -14.0876   20.4455 C   0  0  0  0  0  0  0  0  0  0  0  0
  -28.1646  -19.1678   22.4673 C   0  0  0  0  0  0  0  0  0  0  0  0
  -22.6729  -12.9761   20.7977 C   0  0  0  0  0  0  0  0  0  0  0  0
  -31.1046  -24.0314   22.4605 C   0  0  0  0  0  0  0  0  0  0  0  0
  -30.6085  -22.6173   22.3522 C   0  0  0  0  0  0  0  0  0  0  0  0
  -25.7269  -31.8243   21.9700 C   0  0  0  0  0  0  0  0  0  0  0  0
  -22.8449  -30.4383   22.5131 C   0  0  0  0  0  0  0  0  0  0  0  0
  -20.8994  -27.6391   22.3501 C   0  0  0  0  0  0  0  0  0  0  0  0
  -29.3877  -17.1828   21.5132 C   0  0  0  0  0  0  0  0  0  0  0  0
  -25.0792  -35.9532   24.9009 C   0  0  0  0  0  0  0  0  0  0  0  0
  -25.2403  -30.7796   19.7277 C   0  0  0  0  0  0  0  0  0  0  0  0
  -24.7539  -28.8885   21.9484 C   0  0  0  0  0  0  0  0  0  0  0  0
  -24.8208  -34.4562   25.0511 C   0  0  0  0  0  0  0  0  0  0  0  0
  -29.7909  -14.4566   19.2588 C   0  0  0  0  0  0  0  0  0  0  0  0
  -26.0528  -33.6576   24.6373 C   0  0  0  0  0  0  0  0  0  0  0  0
  -28.5095  -13.6406   19.4438 C   0  0  0  0  0  0  0  0  0  0  0  0
  -30.2749  -15.0590   20.5766 C   0  0  0  0  0  0  0  0  0  0  0  0
  -27.9884  -15.0247   21.4932 C   0  0  0  0  0  0  0  0  0  0  0  0
  -26.3989  -33.9015   23.1635 C   0  0  1  0  0  0  0  0  0  0  0  0
  -24.6761  -31.2422   21.0674 C   0  0  1  0  0  0  0  0  0  0  0  0
  -27.4264  -14.4518   20.1819 C   0  0  2  0  0  0  0  0  0  0  0  0
  -25.3312  -23.0441   21.7030 C   0  0  0  0  0  0  0  0  0  0  0  0
  -26.9846  -22.8366   25.2250 C   0  0  0  0  0  0  0  0  0  0  0  0
  -18.5985  -26.8043   22.9037 C   0  0  0  0  0  0  0  0  0  0  0  0
  -23.6074  -30.3008   25.4643 C   0  0  0  0  0  0  0  0  0  0  0  0
  -21.7551  -28.6491   25.7942 C   0  0  0  0  0  0  0  0  0  0  0  0
  -21.2362  -30.9661   25.0294 C   0  0  0  0  0  0  0  0  0  0  0  0
  -31.7136  -24.8687   19.5771 C   0  0  0  0  0  0  0  0  0  0  0  0
  -20.3194  -27.0112   19.5167 C   0  0  0  0  0  0  0  0  0  0  0  0
  -30.3270  -25.0863   21.7028 C   0  0  0  0  0  0  0  0  0  0  0  0
  -26.0915  -23.4744   22.9516 C   0  0  0  0  0  0  0  0  0  0  0  0
  -29.4398  -25.9020   19.4674 C   0  0  0  0  0  0  0  0  0  1  0  0
  -26.3960  -22.2791   23.9054 C   0  0  1  0  0  0  0  0  0  0  0  0
  -22.3375  -29.3496   23.4275 C   0  0  1  0  0  0  0  0  0  0  0  0
  -19.4877  -27.4221   21.8358 C   0  0  2  0  0  0  0  0  0  0  0  0
  -22.2546  -29.8114   24.9098 C   0  0  0  0  0  0  0  0  0  0  0  0
  -30.3107  -24.8638   20.1839 C   0  0  1  0  0  0  0  0  0  0  0  0
  -26.2829  -12.3087   20.6074 N   0  0  0  0  0  0  0  0  0  0  0  0
  -29.0681  -20.1153   22.3488 N   0  0  0  0  0  0  0  0  0  0  0  0
  -26.1696  -13.6334   20.4111 N   0  0  0  0  0  0  0  0  0  0  0  0
  -24.0262  -30.1609   21.8107 N   0  0  0  0  0  0  0  0  0  0  0  0
  -29.1974  -15.8165   21.2170 N   0  0  0  0  0  0  0  0  0  0  0  0
  -24.5907  -15.3932   20.2671 N   0  0  0  0  0  0  0  0  0  0  0  0
  -22.0285  -11.7552   21.0395 N   0  0  0  0  0  0  0  0  0  0  0  0
  -29.3202  -22.4781   22.8227 N   0  0  0  0  0  0  0  0  0  0  0  0
  -28.2826  -17.8068   22.0913 N   0  0  0  0  0  0  0  0  0  0  0  0
  -25.5112  -33.1476   22.3044 N   0  0  0  0  0  0  0  0  0  0  0  0
  -21.0652  -28.9063   22.8678 N   0  0  0  0  0  0  0  0  0  0  0  0
  -19.5010  -26.5155   20.6531 N   0  3  0  0  0  0  0  0  0  0  0  0
  -21.9865  -14.0189   20.6750 O   0  0  0  0  0  0  0  0  0  0  0  0
  -32.1134  -24.2211   23.1236 O   0  0  0  0  0  0  0  0  0  0  0  0
  -31.3734  -21.8077   21.8542 O   0  0  0  0  0  0  0  0  0  0  0  0
  -26.6634  -31.1242   22.3370 O   0  0  0  0  0  0  0  0  0  0  0  0
  -22.2124  -31.4933   22.4198 O   0  0  0  0  0  0  0  0  0  0  0  0
  -21.7671  -26.7701   22.3013 O   0  0  0  0  0  0  0  0  0  0  0  0
  -30.4429  -17.7638   21.2471 O   0  0  0  0  0  0  0  0  0  0  0  0
  -23.8429   -6.5302   21.7048 O   0  0  0  0  0  0  0  0  0  0  0  0
  -28.1236  -25.9120   20.0187 O   0  0  0  0  0  0  0  0  0  1  0  0
  -20.2167   -5.3574   25.6897 F   0  0  0  0  0  0  0  0  0  0  0  0
  -24.5695   -4.9728   23.8702 F   0  0  0  0  0  0  0  0  0  0  0  0
  -29.7574  -23.6383   19.9372 F   0  0  0  0  0  0  0  0  0  0  0  0
  -26.6618  -19.6268   23.1573 S   0  0  0  0  0  0  0  0  0  0  0  0
  1  2  1  0  0  0  0
  1  5  2  0  0  0  0
  2  6  2  0  0  0  0
  3  8  2  0  0  0  0
  3 15  1  0  0  0  0
  4  9  1  0  0  0  0
  4 15  2  0  0  0  0
  5 17  1  0  0  0  0
  6 19  1  0  0  0  0
  7 10  2  0  0  0  0
  7 18  1  0  0  0  0
  8 21  1  0  0  0  0
  9 21  2  0  0  0  0
 10 22  1  0  0  0  0
 11 12  2  0  0  0  0
 11 23  1  0  0  0  0
 12 24  1  0  0  0  0
 13 20  1  0  0  0  0
 13 22  2  0  0  0  0
 14 24  2  0  0  0  0
 14 25  1  0  0  0  0
 15 26  1  0  0  0  0
 16 26  1  0  0  0  0
 16 29  2  0  0  0  0
 16 31  1  0  0  0  0
 17 19  2  0  0  0  0
 17 38  1  0  0  0  0
 18 20  2  0  0  0  0
 18 39  1  0  0  0  0
 19 47  1  0  0  0  0
 20 40  1  0  0  0  0
 21 85  1  0  0  0  0
 22 86  1  0  0  0  0
 23 25  2  0  0  0  0
 23 85  1  0  0  0  0
 24 87  1  0  0  0  0
 25 88  1  0  0  0  0
 26 66  2  0  0  0  0
 27 28  2  0  0  0  0
 27 61  1  0  0  0  0
 27 90  1  0  0  0  0
 28 67  1  0  0  0  0
 28 73  1  0  0  0  0
 29 68  1  0  0  0  0
 29 71  1  0  0  0  0
 30 67  2  0  0  0  0
 30 74  1  0  0  0  0
 30 90  1  0  0  0  0
 31 72  1  0  0  0  0
 31 78  2  0  0  0  0
 32 33  1  0  0  0  0
 32 58  1  0  0  0  0
 32 79  2  0  0  0  0
 33 73  1  0  0  0  0
 33 80  2  0  0  0  0
 34 48  1  0  0  0  0
 34 75  1  0  0  0  0
 34 81  2  0  0  0  0
 35 62  1  0  0  0  0
 35 69  1  0  0  0  0
 35 82  2  0  0  0  0
 36 63  1  0  0  0  0
 36 76  1  0  0  0  0
 36 83  2  0  0  0  0
 37 70  1  0  0  0  0
 37 74  1  0  0  0  0
 37 84  2  0  0  0  0
 38 41  1  0  0  0  0
 39 48  1  0  0  0  0
 40 69  1  0  0  0  0
 41 43  1  0  0  0  0
 42 44  1  0  0  0  0
 42 45  1  0  0  0  0
 43 47  1  0  0  0  0
 44 49  1  0  0  0  0
 45 70  1  0  0  0  0
 46 49  1  0  0  0  0
 46 70  1  0  0  0  0
 47 75  1  0  0  0  0
 48 69  1  0  0  0  0
 49 68  1  0  0  0  0
 50 59  1  0  0  0  0
 51 61  1  0  0  0  0
 52 63  1  0  0  0  0
 53 64  1  0  0  0  0
 54 64  1  0  0  0  0
 55 64  1  0  0  0  0
 56 65  1  0  0  0  0
 57 77  1  0  0  0  0
 58 65  1  0  0  0  0
 59 61  1  0  0  0  0
 60 65  1  0  0  0  0
 60 86  1  0  0  0  0
 62 64  1  0  0  0  0
 62 76  1  0  0  0  0
 63 77  1  0  0  0  0
 65 89  1  0  0  0  0
 66 68  1  0  0  0  0
M  CHG  1  77   1
M  ISO  4  37 100  60 101  74 100  86 101
M  END
> <Batch ID>
0177

> <Smiles>
CCC(C)c1sc([100NH:0][100C:0](=O)N2CCCC(n3nc(-c4ccc(Oc5ccc(F)cc5F)cc4)c(C(N)=O)c3N)C2)nc1NC(=O)C(=O)CC(C)(F)[101CH2:1][101O:1]c1ccc2c(c1)CN(C(=O)C(NC(=O)C(C)NC)C(C)(C)C)C(C(=O)NC1CCCc3ccccc31)C2

> <Shape>
0.354

> <Color>
0.124

> <Negative vol penalty>
0.000

$$$$

  -OEChem-04052304413D

 90 99  0     1  0  0  0  0  0999 V2000
  -32.9670  -39.2521   20.4068 C   0  0  0  0  0  0  0  0  0  0  0  0
  -32.6551  -38.1068   19.6812 C   0  0  0  0  0  0  0  0  0  0  0  0
  -24.4900   -9.7039   21.7190 C   0  0  0  0  0  0  0  0  0  0  0  0
  -24.7132  -10.9681   23.7658 C   0  0  0  0  0  0  0  0  0  0  0  0
  -32.6793  -39.3124   21.7697 C   0  0  0  0  0  0  0  0  0  0  0  0
  -32.0564  -37.0206   20.3185 C   0  0  0  0  0  0  0  0  0  0  0  0
  -27.4104  -31.7041   19.1076 C   0  0  0  0  0  0  0  0  0  0  0  0
  -24.1431   -8.5717   22.4562 C   0  0  0  0  0  0  0  0  0  0  0  0
  -24.3662   -9.8359   24.5029 C   0  0  0  0  0  0  0  0  0  0  0  0
  -27.3036  -30.3191   19.2265 C   0  0  0  0  0  0  0  0  0  0  0  0
  -22.8473   -5.4433   23.7788 C   0  0  0  0  0  0  0  0  0  0  0  0
  -21.7644   -4.6858   23.3327 C   0  0  0  0  0  0  0  0  0  0  0  0
  -26.7806  -30.5665   21.5684 C   0  0  0  0  0  0  0  0  0  0  0  0
  -20.3191   -6.6060   23.5803 C   0  0  0  0  0  0  0  0  0  0  0  0
  -27.4293  -19.9334   20.7051 C   0  0  0  0  0  0  0  0  0  0  0  0
  -24.7751  -10.9021   22.3738 C   0  0  0  0  0  0  0  0  0  0  0  0
  -24.2641  -13.0535   21.1018 C   0  0  0  0  0  0  0  0  0  0  0  0
  -32.0679  -38.2301   22.4220 C   0  0  0  0  0  0  0  0  0  0  0  0
  -27.2135  -32.5314   20.2226 C   0  0  0  0  0  0  0  0  0  0  0  0
  -31.7615  -37.0660   21.6917 C   0  0  0  0  0  0  0  0  0  0  0  0
  -26.8830  -31.9618   21.4605 C   0  0  0  0  0  0  0  0  0  0  0  0
  -24.0811   -8.6377   23.8481 C   0  0  0  0  0  0  0  0  0  0  0  0
  -26.9915  -29.7499   20.4577 C   0  0  0  0  0  0  0  0  0  0  0  0
  -22.6661   -6.7822   24.1257 C   0  0  0  0  0  0  0  0  0  0  0  0
  -20.5003   -5.2671   23.2334 C   0  0  0  0  0  0  0  0  0  0  0  0
  -21.4021   -7.3635   24.0265 C   0  0  0  0  0  0  0  0  0  0  0  0
  -25.1341  -12.0719   21.6130 C   0  0  0  0  0  0  0  0  0  0  0  0
  -28.3679  -21.9155   20.0571 C   0  0  0  0  0  0  0  0  0  0  0  0
  -29.5299  -21.2558   19.7223 C   0  0  0  0  0  0  0  0  0  0  0  0
  -28.5910  -19.2736   20.3697 C   0  0  0  0  0  0  0  0  0  0  0  0
  -25.0903  -13.9449   20.4620 C   0  0  0  0  0  0  0  0  0  0  0  0
  -22.8368  -13.1508   21.1967 C   0  0  0  0  0  0  0  0  0  0  0  0
  -29.0188  -34.5940   21.8321 C   0  0  0  0  0  0  0  0  0  0  0  0
  -26.2473  -35.1914   23.4084 C   0  0  0  0  0  0  0  0  0  0  0  0
  -23.1607  -34.0903   24.3609 C   0  0  0  0  0  0  0  0  0  0  0  0
  -29.7249  -17.0257   20.2825 C   0  0  0  0  0  0  0  0  0  0  0  0
  -31.8194  -38.3237   23.9066 C   0  0  0  0  0  0  0  0  0  0  0  0
  -27.3060  -34.0251   20.0718 C   0  0  0  0  0  0  0  0  0  0  0  0
  -26.6420  -32.8072   22.6834 C   0  0  0  0  0  0  0  0  0  0  0  0
  -30.8426  -37.2729   24.4281 C   0  0  0  0  0  0  0  0  0  0  0  0
  -30.0014  -13.6204   19.2800 C   0  0  0  0  0  0  0  0  0  0  0  0
  -31.1925  -35.8962   23.8720 C   0  0  0  0  0  0  0  0  0  0  0  0
  -27.1808  -23.7826   18.8084 C   0  0  0  0  0  0  0  0  0  0  0  0
  -28.6882  -12.9947   19.7556 C   0  0  0  0  0  0  0  0  0  0  0  0
  -27.1871  -25.2780   18.4943 C   0  0  0  0  0  0  0  0  0  0  0  0
  -27.9510  -25.7561   20.8617 C   0  0  0  0  0  0  0  0  0  0  0  0
  -30.5176  -14.6706   20.2621 C   0  0  0  0  0  0  0  0  0  0  0  0
  -28.2369  -15.0908   21.0935 C   0  0  0  0  0  0  0  0  0  0  0  0
  -31.0890  -35.8765   22.3422 C   0  0  1  0  0  0  0  0  0  0  0  0
  -28.2313  -23.4243   19.8814 C   0  0  1  0  0  0  0  0  0  0  0  0
  -27.5910  -34.7420   21.3880 C   0  0  1  0  0  0  0  0  0  0  0  0
  -27.6441  -14.0733   20.1050 C   0  0  2  0  0  0  0  0  0  0  0  0
  -28.0236  -24.2358   21.2071 C   0  0  0  0  0  0  0  0  0  0  0  0
  -26.9636  -26.1376   19.7441 C   0  0  1  0  0  0  0  0  0  0  0  0
  -26.7655  -23.8042   21.9900 C   0  0  0  0  0  0  0  0  0  0  0  0
  -29.2338  -24.0466   22.1535 C   0  0  0  0  0  0  0  0  0  0  0  0
  -21.1400  -34.7868   25.6757 C   0  0  0  0  0  0  0  0  0  0  0  0
  -27.7538  -34.6499   26.0059 C   0  0  0  0  0  0  0  0  0  0  0  0
  -25.5432  -34.4211   27.1588 C   0  0  0  0  0  0  0  0  0  0  0  0
  -26.1768  -36.5887   26.0992 C   0  0  0  0  0  0  0  0  0  0  0  0
  -21.4075  -33.9081   21.9835 C   0  0  0  0  0  0  0  0  0  0  0  0
  -27.1105  -27.6235   19.3992 C   0  0  0  0  0  0  0  0  0  1  0  0
  -30.7074  -21.9862   19.1728 C   0  0  0  0  0  0  0  0  0  0  0  0
  -25.5687  -34.6224   24.6309 C   0  0  1  0  0  0  0  0  0  0  0  0
  -21.7943  -34.7491   24.3034 C   0  0  2  0  0  0  0  0  0  0  0  0
  -26.2670  -35.0542   25.9513 C   0  0  0  0  0  0  0  0  0  0  0  0
  -27.2968  -21.2662   20.5548 N   0  0  0  0  0  0  0  0  0  0  0  0
  -26.4148  -12.3163   21.3229 N   0  0  0  0  0  0  0  0  0  0  0  0
  -29.6622  -19.9230   19.8723 N   0  0  0  0  0  0  0  0  0  0  0  0
  -26.3556  -13.4617   20.6224 N   0  0  0  0  0  0  0  0  0  0  0  0
  -26.7502  -34.2622   22.4866 N   0  0  0  0  0  0  0  0  0  0  0  0
  -29.4762  -15.6614   20.5428 N   0  0  0  0  0  0  0  0  0  0  0  0
  -24.8506  -15.0871   19.7835 N   0  0  0  0  0  0  0  0  0  0  0  0
  -22.1435  -12.1493   21.8901 N   0  0  0  0  0  0  0  0  0  0  0  0
  -28.6501  -17.8704   20.5578 N   0  0  0  0  0  0  0  0  0  0  0  0
  -29.7043  -35.7897   21.9304 N   0  0  0  0  0  0  0  0  0  0  0  0
  -24.1669  -35.0160   24.5400 N   0  0  0  0  0  0  0  0  0  0  0  0
  -20.8980  -34.0026   23.3758 N   0  3  0  0  0  0  0  0  0  0  0  0
  -22.1938  -14.0891   20.6680 O   0  0  0  0  0  0  0  0  0  0  0  0
  -29.4650  -33.4776   22.0696 O   0  0  0  0  0  0  0  0  0  0  0  0
  -26.3220  -36.4152   23.2726 O   0  0  0  0  0  0  0  0  0  0  0  0
  -23.3194  -32.8757   24.2609 O   0  0  0  0  0  0  0  0  0  0  0  0
  -30.8020  -17.4126   19.8219 O   0  0  0  0  0  0  0  0  0  0  0  0
  -25.6301  -25.9474   20.2179 O   0  0  0  0  0  0  0  0  0  0  0  0
  -23.7424   -7.5332   24.5677 O   0  0  0  0  0  0  0  0  0  0  0  0
  -26.8873  -28.3983   20.5766 O   0  0  0  0  0  0  0  0  0  1  0  0
  -19.4608   -4.5399   22.8036 F   0  0  0  0  0  0  0  0  0  0  0  0
  -21.2221   -8.6496   24.3572 F   0  0  0  0  0  0  0  0  0  0  0  0
  -30.3939  -22.5980   18.0002 F   0  0  0  0  0  0  0  0  0  0  0  0
  -31.7244  -21.1273   18.8982 F   0  0  0  0  0  0  0  0  0  0  0  0
  1  2  1  0  0  0  0
  1  5  2  0  0  0  0
  2  6  2  0  0  0  0
  3  8  2  0  0  0  0
  3 16  1  0  0  0  0
  4  9  1  0  0  0  0
  4 16  2  0  0  0  0
  5 18  1  0  0  0  0
  6 20  1  0  0  0  0
  7 10  2  0  0  0  0
  7 19  1  0  0  0  0
  8 22  1  0  0  0  0
  9 22  2  0  0  0  0
 10 23  1  0  0  0  0
 11 12  2  0  0  0  0
 11 24  1  0  0  0  0
 12 25  1  0  0  0  0
 13 21  1  0  0  0  0
 13 23  2  0  0  0  0
 14 25  2  0  0  0  0
 14 26  1  0  0  0  0
 15 30  1  0  0  0  0
 15 67  2  0  0  0  0
 16 27  1  0  0  0  0
 17 27  1  0  0  0  0
 17 31  2  0  0  0  0
 17 32  1  0  0  0  0
 18 20  2  0  0  0  0
 18 37  1  0  0  0  0
 19 21  2  0  0  0  0
 19 38  1  0  0  0  0
 20 49  1  0  0  0  0
 21 39  1  0  0  0  0
 22 85  1  0  0  0  0
 23 86  1  0  0  0  0
 24 26  2  0  0  0  0
 24 85  1  0  0  0  0
 25 87  1  0  0  0  0
 26 88  1  0  0  0  0
 27 68  2  0  0  0  0
 28 29  2  0  0  0  0
 28 50  1  0  0  0  0
 28 67  1  0  0  0  0
 29 63  1  0  0  0  0
 29 69  1  0  0  0  0
 30 69  2  0  0  0  0
 30 75  1  0  0  0  0
 31 70  1  0  0  0  0
 31 73  1  0  0  0  0
 32 74  1  0  0  0  0
 32 79  2  0  0  0  0
 33 51  1  0  0  0  0
 33 76  1  0  0  0  0
 33 80  2  0  0  0  0
 34 64  1  0  0  0  0
 34 71  1  0  0  0  0
 34 81  2  0  0  0  0
 35 65  1  0  0  0  0
 35 77  1  0  0  0  0
 35 82  2  0  0  0  0
 36 72  1  0  0  0  0
 36 75  1  0  0  0  0
 36 83  2  0  0  0  0
 37 40  1  0  0  0  0
 38 51  1  0  0  0  0
 39 71  1  0  0  0  0
 40 42  1  0  0  0  0
 41 44  1  0  0  0  0
 41 47  1  0  0  0  0
 42 49  1  0  0  0  0
 43 45  1  0  0  0  0
 43 50  1  0  0  0  0
 44 52  1  0  0  0  0
 45 54  1  0  0  0  0
 46 53  1  0  0  0  0
 46 54  1  0  0  0  0
 47 72  1  0  0  0  0
 48 52  1  0  0  0  0
 48 72  1  0  0  0  0
 49 76  1  0  0  0  0
 50 53  1  0  0  0  0
 51 71  1  0  0  0  0
 52 70  1  0  0  0  0
 53 55  1  0  0  0  0
 53 56  1  0  0  0  0
 54 62  1  0  0  0  0
 54 84  1  0  0  0  0
 57 65  1  0  0  0  0
 58 66  1  0  0  0  0
 59 66  1  0  0  0  0
 60 66  1  0  0  0  0
 61 78  1  0  0  0  0
 62 86  1  0  0  0  0
 63 89  1  0  0  0  0
 63 90  1  0  0  0  0
 64 66  1  0  0  0  0
 64 77  1  0  0  0  0
 65 78  1  0  0  0  0
 68 70  1  0  0  0  0
M  CHG  1  78   1
M  ISO  4  36 100  62 101  75 100  86 101
M  END
> <Batch ID>
0177

> <Smiles>
CNC(C)C(=O)NC(C(=O)N1Cc2cc([101O:1][101CH2:1]C3(O)CCC(c4ncc([100NH:0][100C:0](=O)N5CCCC(n6nc(-c7ccc(Oc8ccc(F)cc8F)cc7)c(C(N)=O)c6N)C5)nc4C(F)F)C(C)(C)C3)ccc2CC1C(=O)NC1CCCc2ccccc21)C(C)(C)C

> <Shape>
0.268

> <Color>
0.111

> <Negative vol penalty>
0.000

$$$$

  -OEChem-04052304413D

 87 95  0     1  0  0  0  0  0999 V2000
  -22.7011  -23.4967   19.9609 C   0  0  0  0  0  0  0  0  0  0  0  0
  -23.8744  -22.7926   20.2117 C   0  0  0  0  0  0  0  0  0  0  0  0
  -22.2743  -28.5599   20.9461 C   0  0  0  0  0  0  0  0  0  0  0  0
  -23.4592  -27.7484   22.8889 C   0  0  0  0  0  0  0  0  0  0  0  0
  -21.4720  -22.9589   20.3405 C   0  0  0  0  0  0  0  0  0  0  0  0
  -23.8195  -21.5506   20.8431 C   0  0  0  0  0  0  0  0  0  0  0  0
  -26.7926  -18.1071   18.6188 C   0  0  0  0  0  0  0  0  0  0  0  0
  -21.0612  -28.3799   21.6108 C   0  0  0  0  0  0  0  0  0  0  0  0
  -22.2462  -27.5684   23.5536 C   0  0  0  0  0  0  0  0  0  0  0  0
  -28.1587  -18.1758   18.8888 C   0  0  0  0  0  0  0  0  0  0  0  0
  -19.2409  -29.9999   23.9549 C   0  0  0  0  0  0  0  0  0  0  0  0
  -18.2989  -31.0253   23.8737 C   0  0  0  0  0  0  0  0  0  0  0  0
  -27.9244  -16.3930   20.4969 C   0  0  0  0  0  0  0  0  0  0  0  0
  -16.7300  -29.5025   22.8455 C   0  0  0  0  0  0  0  0  0  0  0  0
  -23.4733  -28.2441   21.5852 C   0  0  0  0  0  0  0  0  0  0  0  0
  -25.5295  -29.5856   20.8925 C   0  0  0  0  0  0  0  0  0  0  0  0
  -21.4012  -21.7053   20.9682 C   0  0  0  0  0  0  0  0  0  0  0  0
  -25.9789  -17.1866   19.2949 C   0  0  0  0  0  0  0  0  0  0  0  0
  -22.5884  -20.9960   21.2326 C   0  0  0  0  0  0  0  0  0  0  0  0
  -26.5488  -16.3128   20.2318 C   0  0  0  0  0  0  0  0  0  0  0  0
  -21.0472  -27.8842   22.9145 C   0  0  0  0  0  0  0  0  0  0  0  0
  -28.7243  -17.3207   19.8300 C   0  0  0  0  0  0  0  0  0  0  0  0
  -18.9276  -28.7258   23.4814 C   0  0  0  0  0  0  0  0  0  0  0  0
  -17.0434  -30.7766   23.3190 C   0  0  0  0  0  0  0  0  0  0  0  0
  -17.6722  -28.4771   22.9267 C   0  0  0  0  0  0  0  0  0  0  0  0
  -24.7266  -28.4293   20.8989 C   0  0  0  0  0  0  0  0  0  0  0  0
  -32.1722  -22.1122   21.2562 C   0  0  0  0  0  0  0  0  0  0  0  0
  -26.6021  -29.2545   20.1010 C   0  0  0  0  0  0  0  0  0  0  0  0
  -31.8291  -22.5246   22.5267 C   0  0  0  0  0  0  0  0  0  0  0  0
  -30.4389  -23.3541   20.7429 C   0  0  0  0  0  0  0  0  0  0  0  0
  -31.9678  -19.0179   21.2456 C   0  0  0  0  0  0  0  0  0  0  0  0
  -25.3242  -30.8463   21.5438 C   0  0  0  0  0  0  0  0  0  0  0  0
  -31.7134  -17.8050   21.7608 C   0  0  0  0  0  0  0  0  0  0  0  0
  -33.1927  -19.8194   21.5675 C   0  0  0  0  0  0  0  0  0  0  0  0
  -23.4878  -17.4122   21.2563 C   0  0  0  0  0  0  0  0  0  0  0  0
  -23.4570  -14.1822   20.9596 C   0  0  0  0  0  0  0  0  0  0  0  0
  -25.1798  -11.3205   20.2597 C   0  0  0  0  0  0  0  0  0  0  0  0
  -29.1740  -24.0517   18.6791 C   0  0  0  0  0  0  0  0  0  0  0  0
  -20.0535  -21.1861   21.4028 C   0  0  0  0  0  0  0  0  0  0  0  0
  -24.5118  -17.1068   18.9729 C   0  0  0  0  0  0  0  0  0  0  0  0
  -25.7223  -15.2930   20.9702 C   0  0  0  0  0  0  0  0  0  0  0  0
  -20.0517  -19.6950   21.7298 C   0  0  0  0  0  0  0  0  0  0  0  0
  -27.8119  -26.4419   16.4187 C   0  0  0  0  0  0  0  0  0  0  0  0
  -21.2451  -19.3403   22.6111 C   0  0  0  0  0  0  0  0  0  0  0  0
  -26.9440  -27.3317   17.3115 C   0  0  0  0  0  0  0  0  0  0  0  0
  -27.7624  -24.9791   16.8563 C   0  0  0  0  0  0  0  0  0  0  0  0
  -27.2049  -25.6336   19.1650 C   0  0  0  0  0  0  0  0  0  0  0  0
  -22.5678  -19.6346   21.8932 C   0  0  1  0  0  0  0  0  0  0  0  0
  -23.6872  -16.4815   20.0937 C   0  0  1  0  0  0  0  0  0  0  0  0
  -27.2739  -27.1262   18.8030 C   0  0  2  0  0  0  0  0  0  0  0  0
  -24.8956   -8.8303   20.1367 C   0  0  0  0  0  0  0  0  0  0  0  0
  -33.5864  -20.9919   19.3893 C   0  0  0  0  0  0  0  0  0  0  0  0
  -23.5200  -14.0269   24.0062 C   0  0  0  0  0  0  0  0  0  0  0  0
  -24.1868  -11.6225   23.8004 C   0  0  0  0  0  0  0  0  0  0  0  0
  -21.9851  -12.3850   22.9095 C   0  0  0  0  0  0  0  0  0  0  0  0
  -25.8662  -11.2679   17.3813 C   0  0  0  0  0  0  0  0  0  0  0  0
  -34.7118  -23.0968   20.8672 C   0  0  0  0  0  0  0  0  0  0  0  0
  -30.4747  -17.0336   21.4142 C   0  0  0  0  0  0  0  0  0  1  0  0
  -24.1056  -13.0348   21.6956 C   0  0  1  0  0  0  0  0  0  0  0  0
  -24.8501  -10.1397   19.3646 C   0  0  2  0  0  0  0  0  0  0  0  0
  -33.3318  -21.1948   20.8897 C   0  0  1  0  0  0  0  0  0  0  0  0
  -23.4649  -12.7877   23.0906 C   0  0  0  0  0  0  0  0  0  0  0  0
  -25.2447  -27.4377   20.1693 N   0  0  0  0  0  0  0  0  0  0  0  0
  -31.3760  -22.5865   20.2321 N   0  0  0  0  0  0  0  0  0  0  0  0
  -26.3847  -27.9701   19.6969 N   0  0  0  0  0  0  0  0  0  0  0  0
  -24.2915  -15.2581   20.6250 N   0  0  0  0  0  0  0  0  0  0  0  0
  -28.0898  -24.8612   18.2789 N   0  0  0  0  0  0  0  0  0  0  0  0
  -27.7004  -29.9396   19.7181 N   0  0  0  0  0  0  0  0  0  0  0  0
  -32.4331  -22.2117   23.6989 N   0  0  0  0  0  0  0  0  0  0  0  0
  -24.1691  -31.0176   22.3189 N   0  0  0  0  0  0  0  0  0  0  0  0
  -29.4104  -24.0428   20.0533 N   0  0  0  0  0  0  0  0  0  0  0  0
  -22.8597  -18.5980   20.9263 N   0  0  0  0  0  0  0  0  0  0  0  0
  -24.0434  -11.8866   20.7977 N   0  0  0  0  0  0  0  0  0  0  0  0
  -25.8229  -10.0555   18.2388 N   0  3  0  0  0  0  0  0  0  0  0  0
  -26.1327  -31.7984   21.4281 O   0  0  0  0  0  0  0  0  0  0  0  0
  -34.0521  -19.3937   22.3379 O   0  0  0  0  0  0  0  0  0  0  0  0
  -23.8737  -17.0786   22.3705 O   0  0  0  0  0  0  0  0  0  0  0  0
  -22.2559  -14.1228   20.6851 O   0  0  0  0  0  0  0  0  0  0  0  0
  -26.3307  -11.7004   20.4643 O   0  0  0  0  0  0  0  0  0  0  0  0
  -29.8602  -23.4349   17.8602 O   0  0  0  0  0  0  0  0  0  0  0  0
  -32.5796  -17.1784   22.6344 O   0  0  0  0  0  0  0  0  0  0  0  0
  -19.8637  -27.7086   23.5634 O   0  0  0  0  0  0  0  0  0  0  0  0
  -30.0573  -17.3861   20.0959 O   0  0  0  0  0  0  0  0  0  1  0  0
  -34.5127  -21.8079   21.4211 O   0  0  0  0  0  0  0  0  0  0  0  0
  -16.1383  -31.7610   23.2425 F   0  0  0  0  0  0  0  0  0  0  0  0
  -17.3650  -27.2548   22.4712 F   0  0  0  0  0  0  0  0  0  0  0  0
  -30.4564  -23.5497   22.4477 S   0  0  0  0  0  0  0  0  0  0  0  0
  1  2  1  0  0  0  0
  1  5  2  0  0  0  0
  2  6  2  0  0  0  0
  3  8  2  0  0  0  0
  3 15  1  0  0  0  0
  4  9  1  0  0  0  0
  4 15  2  0  0  0  0
  5 17  1  0  0  0  0
  6 19  1  0  0  0  0
  7 10  2  0  0  0  0
  7 18  1  0  0  0  0
  8 21  1  0  0  0  0
  9 21  2  0  0  0  0
 10 22  1  0  0  0  0
 11 12  2  0  0  0  0
 11 23  1  0  0  0  0
 12 24  1  0  0  0  0
 13 20  1  0  0  0  0
 13 22  2  0  0  0  0
 14 24  2  0  0  0  0
 14 25  1  0  0  0  0
 15 26  1  0  0  0  0
 16 26  1  0  0  0  0
 16 28  2  0  0  0  0
 16 32  1  0  0  0  0
 17 19  2  0  0  0  0
 17 39  1  0  0  0  0
 18 20  2  0  0  0  0
 18 40  1  0  0  0  0
 19 48  1  0  0  0  0
 20 41  1  0  0  0  0
 21 82  1  0  0  0  0
 22 83  1  0  0  0  0
 23 25  2  0  0  0  0
 23 82  1  0  0  0  0
 24 85  1  0  0  0  0
 25 86  1  0  0  0  0
 26 63  2  0  0  0  0
 27 29  2  0  0  0  0
 27 61  1  0  0  0  0
 27 64  1  0  0  0  0
 28 65  1  0  0  0  0
 28 68  1  0  0  0  0
 29 69  1  0  0  0  0
 29 87  1  0  0  0  0
 30 64  2  0  0  0  0
 30 71  1  0  0  0  0
 30 87  1  0  0  0  0
 31 33  2  0  0  0  0
 31 34  1  0  0  0  0
 32 70  1  0  0  0  0
 32 75  2  0  0  0  0
 33 58  1  0  0  0  0
 33 81  1  0  0  0  0
 34 61  1  0  0  0  0
 34 76  2  0  0  0  0
 35 49  1  0  0  0  0
 35 72  1  0  0  0  0
 35 77  2  0  0  0  0
 36 59  1  0  0  0  0
 36 66  1  0  0  0  0
 36 78  2  0  0  0  0
 37 60  1  0  0  0  0
 37 73  1  0  0  0  0
 37 79  2  0  0  0  0
 38 67  1  0  0  0  0
 38 71  1  0  0  0  0
 38 80  2  0  0  0  0
 39 42  1  0  0  0  0
 40 49  1  0  0  0  0
 41 66  1  0  0  0  0
 42 44  1  0  0  0  0
 43 45  1  0  0  0  0
 43 46  1  0  0  0  0
 44 48  1  0  0  0  0
 45 50  1  0  0  0  0
 46 67  1  0  0  0  0
 47 50  1  0  0  0  0
 47 67  1  0  0  0  0
 48 72  1  0  0  0  0
 49 66  1  0  0  0  0
 50 65  1  0  0  0  0
 51 60  1  0  0  0  0
 52 61  1  0  0  0  0
 53 62  1  0  0  0  0
 54 62  1  0  0  0  0
 55 62  1  0  0  0  0
 56 74  1  0  0  0  0
 57 84  1  0  0  0  0
 58 83  1  0  0  0  0
 59 62  1  0  0  0  0
 59 73  1  0  0  0  0
 60 74  1  0  0  0  0
 61 84  1  0  0  0  0
 63 65  1  0  0  0  0
M  CHG  1  74   1
M  ISO  4  38 100  58 101  71 100  83 101
M  END
> <Batch ID>
0177

> <Smiles>
CNC(C)C(=O)NC(C(=O)N1Cc2cc([101O:1][101CH2:1]C(=O)CC(=O)C(C)(OC)c3nc([100NH:0][100C:0](=O)N4CCCC(n5nc(-c6ccc(Oc7ccc(F)cc7F)cc6)c(C(N)=O)c5N)C4)sc3N)ccc2CC1C(=O)NC1CCCc2ccccc21)C(C)(C)C

> <Shape>
0.238

> <Color>
0.076

> <Negative vol penalty>
0.000

$$$$

  -OEChem-04052304413D

 89 97  0     1  0  0  0  0  0999 V2000
  -25.9070  -34.0897   27.2376 C   0  0  0  0  0  0  0  0  0  0  0  0
  -26.5585  -33.0605   26.5655 C   0  0  0  0  0  0  0  0  0  0  0  0
  -24.6366   -8.7760   21.5753 C   0  0  0  0  0  0  0  0  0  0  0  0
  -22.8709  -10.3625   21.1253 C   0  0  0  0  0  0  0  0  0  0  0  0
  -24.5138  -34.1218   27.2784 C   0  0  0  0  0  0  0  0  0  0  0  0
  -25.8170  -32.0621   25.9347 C   0  0  0  0  0  0  0  0  0  0  0  0
  -27.2386  -29.1459   20.7404 C   0  0  0  0  0  0  0  0  0  0  0  0
  -23.8012   -8.0979   22.4629 C   0  0  0  0  0  0  0  0  0  0  0  0
  -22.0354   -9.6843   22.0128 C   0  0  0  0  0  0  0  0  0  0  0  0
  -27.8270  -27.9068   20.4912 C   0  0  0  0  0  0  0  0  0  0  0  0
  -21.2479   -5.8883   22.2859 C   0  0  0  0  0  0  0  0  0  0  0  0
  -21.2105   -4.4963   22.2059 C   0  0  0  0  0  0  0  0  0  0  0  0
  -25.6384  -26.9270   20.2288 C   0  0  0  0  0  0  0  0  0  0  0  0
  -24.0263  -19.5133   19.1584 C   0  0  0  0  0  0  0  0  0  0  0  0
  -21.9752   -4.3442   24.4926 C   0  0  0  0  0  0  0  0  0  0  0  0
  -24.1715   -9.9084   20.9066 C   0  0  0  0  0  0  0  0  0  0  0  0
  -25.1765  -10.3764   18.6090 C   0  0  0  0  0  0  0  0  0  0  0  0
  -23.7547  -33.1286   26.6397 C   0  0  0  0  0  0  0  0  0  0  0  0
  -25.8430  -29.2828   20.7464 C   0  0  0  0  0  0  0  0  0  0  0  0
  -24.4123  -32.0802   25.9683 C   0  0  0  0  0  0  0  0  0  0  0  0
  -25.0347  -28.1694   20.4758 C   0  0  0  0  0  0  0  0  0  0  0  0
  -24.8435  -20.6383   19.1661 C   0  0  0  0  0  0  0  0  0  0  0  0
  -22.5006   -8.5520   22.6816 C   0  0  0  0  0  0  0  0  0  0  0  0
  -27.0269  -26.7965   20.2382 C   0  0  0  0  0  0  0  0  0  0  0  0
  -21.6491   -6.5083   23.4693 C   0  0  0  0  0  0  0  0  0  0  0  0
  -21.5741   -3.7242   23.3092 C   0  0  0  0  0  0  0  0  0  0  0  0
  -24.5685  -18.2651   19.4437 C   0  0  0  0  0  0  0  0  0  0  0  0
  -22.0127   -5.7363   24.5726 C   0  0  0  0  0  0  0  0  0  0  0  0
  -25.0343  -10.6096   19.9900 C   0  0  0  0  0  0  0  0  0  0  0  0
  -26.1855  -20.4630   19.4630 C   0  0  0  0  0  0  0  0  0  0  0  0
  -25.9229  -18.1961   19.7280 C   0  0  0  0  0  0  0  0  0  0  0  0
  -26.1083  -11.2985   18.1993 C   0  0  0  0  0  0  0  0  0  0  0  0
  -24.5245   -9.4125   17.7715 C   0  0  0  0  0  0  0  0  0  0  0  0
  -28.9474  -23.0132   19.6198 C   0  0  0  0  0  0  0  0  0  0  0  0
  -28.3784  -21.6286   19.7364 C   0  0  0  0  0  0  0  0  0  0  0  0
  -23.6812  -30.1258   22.9189 C   0  0  0  0  0  0  0  0  0  0  0  0
  -21.6480  -29.9450   20.3978 C   0  0  0  0  0  0  0  0  0  0  0  0
  -20.9642  -28.6522   17.3143 C   0  0  0  0  0  0  0  0  0  0  0  0
  -27.7948  -16.6208   20.3285 C   0  0  0  0  0  0  0  0  0  0  0  0
  -22.2515  -33.1795   26.7514 C   0  0  0  0  0  0  0  0  0  0  0  0
  -25.2244  -30.6319   20.9906 C   0  0  0  0  0  0  0  0  0  0  0  0
  -23.5320  -28.2677   20.4507 C   0  0  0  0  0  0  0  0  0  0  0  0
  -21.5350  -32.2890   25.7395 C   0  0  0  0  0  0  0  0  0  0  0  0
  -29.8768  -13.7807   19.8027 C   0  0  0  0  0  0  0  0  0  0  0  0
  -22.1776  -30.9063   25.6960 C   0  0  0  0  0  0  0  0  0  0  0  0
  -28.8839  -12.6250   19.6593 C   0  0  0  0  0  0  0  0  0  0  0  0
  -29.4111  -14.8033   20.8377 C   0  0  0  0  0  0  0  0  0  0  0  0
  -27.0580  -14.1619   20.4905 C   0  0  0  0  0  0  0  0  0  0  0  0
  -23.6425  -30.9926   25.2508 C   0  0  1  0  0  0  0  0  0  0  0  0
  -23.7820  -30.5480   21.4804 C   0  0  1  0  0  0  0  0  0  0  0  0
  -27.4522  -13.1393   19.4122 C   0  0  2  0  0  0  0  0  0  0  0  0
  -19.2084  -28.6573   15.5213 C   0  0  0  0  0  0  0  0  0  0  0  0
  -19.9294  -28.0661   22.0789 C   0  0  0  0  0  0  0  0  0  0  0  0
  -18.7551  -27.3739   19.9788 C   0  0  0  0  0  0  0  0  0  0  0  0
  -18.6418  -29.7450   20.7455 C   0  0  0  0  0  0  0  0  0  0  0  0
  -22.8292  -29.8104   15.3294 C   0  0  0  0  0  0  0  0  0  0  0  0
  -28.9846  -23.8332   20.8907 C   0  0  0  0  0  0  0  0  0  0  0  0
  -28.8556  -25.3243   20.6183 C   0  0  0  0  0  0  0  0  0  1  0  0
  -20.8034  -28.8561   19.7814 C   0  0  1  0  0  0  0  0  0  0  0  0
  -20.4854  -29.3070   16.0311 C   0  0  2  0  0  0  0  0  0  0  0  0
  -24.2582  -21.9748   18.8597 C   0  0  0  0  0  0  0  0  0  0  0  0
  -19.5607  -28.5077   20.6485 C   0  0  0  0  0  0  0  0  0  0  0  0
  -25.8135  -11.6019   20.4283 N   0  0  0  0  0  0  0  0  0  0  0  0
  -26.7483  -19.2667   19.7451 N   0  0  0  0  0  0  0  0  0  0  0  0
  -26.4543  -12.0004   19.3163 N   0  0  0  0  0  0  0  0  0  0  0  0
  -22.9744  -29.6070   20.7016 N   0  0  0  0  0  0  0  0  0  0  0  0
  -28.0487  -15.2487   20.5371 N   0  0  0  0  0  0  0  0  0  0  0  0
  -26.6572  -11.5693   16.9960 N   0  0  0  0  0  0  0  0  0  0  0  0
  -23.5942   -8.5413   18.3545 N   0  0  0  0  0  0  0  0  0  0  0  0
  -27.0258  -21.6007   19.4737 N   0  0  0  0  0  0  0  0  0  0  0  0
  -26.4690  -16.9211   20.0176 N   0  0  0  0  0  0  0  0  0  0  0  0
  -23.7253  -31.1746   23.8175 N   0  0  0  0  0  0  0  0  0  0  0  0
  -20.4829  -29.3034   18.4303 N   0  0  0  0  0  0  0  0  0  0  0  0
  -21.5267  -29.1921   14.9711 N   0  3  0  0  0  0  0  0  0  0  0  0
  -24.7720   -9.3154   16.5456 O   0  0  0  0  0  0  0  0  0  0  0  0
  -29.3440  -23.3643   18.5188 O   0  0  0  0  0  0  0  0  0  0  0  0
  -29.1636  -20.7369   20.0124 O   0  0  0  0  0  0  0  0  0  0  0  0
  -23.5700  -28.9366   23.1931 O   0  0  0  0  0  0  0  0  0  0  0  0
  -21.1514  -31.0567   20.5955 O   0  0  0  0  0  0  0  0  0  0  0  0
  -21.6893  -27.6599   17.3254 O   0  0  0  0  0  0  0  0  0  0  0  0
  -28.6931  -17.4640   20.3923 O   0  0  0  0  0  0  0  0  0  0  0  0
  -21.6850   -7.8904   23.5474 O   0  0  0  0  0  0  0  0  0  0  0  0
  -27.5986  -25.5857   19.9953 O   0  0  0  0  0  0  0  0  0  1  0  0
  -21.5366   -2.3874   23.2327 F   0  0  0  0  0  0  0  0  0  0  0  0
  -23.7934  -17.1731   19.4399 F   0  0  0  0  0  0  0  0  0  0  0  0
  -22.3978   -6.3262   25.7126 F   0  0  0  0  0  0  0  0  0  0  0  0
  -22.9188  -21.9385   18.5932 F   0  0  0  0  0  0  0  0  0  0  0  0
  -24.3941  -22.8777   19.8759 F   0  0  0  0  0  0  0  0  0  0  0  0
  -24.8320  -22.5624   17.7693 F   0  0  0  0  0  0  0  0  0  0  0  0
  1  2  1  0  0  0  0
  1  5  2  0  0  0  0
  2  6  2  0  0  0  0
  3  8  2  0  0  0  0
  3 16  1  0  0  0  0
  4  9  1  0  0  0  0
  4 16  2  0  0  0  0
  5 18  1  0  0  0  0
  6 20  1  0  0  0  0
  7 10  2  0  0  0  0
  7 19  1  0  0  0  0
  8 23  1  0  0  0  0
  9 23  2  0  0  0  0
 10 24  1  0  0  0  0
 11 12  2  0  0  0  0
 11 25  1  0  0  0  0
 12 26  1  0  0  0  0
 13 21  1  0  0  0  0
 13 24  2  0  0  0  0
 14 22  1  0  0  0  0
 14 27  2  0  0  0  0
 15 26  2  0  0  0  0
 15 28  1  0  0  0  0
 16 29  1  0  0  0  0
 17 29  1  0  0  0  0
 17 32  2  0  0  0  0
 17 33  1  0  0  0  0
 18 20  2  0  0  0  0
 18 40  1  0  0  0  0
 19 21  2  0  0  0  0
 19 41  1  0  0  0  0
 20 49  1  0  0  0  0
 21 42  1  0  0  0  0
 22 30  2  0  0  0  0
 22 61  1  0  0  0  0
 23 82  1  0  0  0  0
 24 83  1  0  0  0  0
 25 28  2  0  0  0  0
 25 82  1  0  0  0  0
 26 84  1  0  0  0  0
 27 31  1  0  0  0  0
 27 85  1  0  0  0  0
 28 86  1  0  0  0  0
 29 63  2  0  0  0  0
 30 64  1  0  0  0  0
 30 70  1  0  0  0  0
 31 64  2  0  0  0  0
 31 71  1  0  0  0  0
 32 65  1  0  0  0  0
 32 68  1  0  0  0  0
 33 69  1  0  0  0  0
 33 75  2  0  0  0  0
 34 35  1  0  0  0  0
 34 57  1  0  0  0  0
 34 76  2  0  0  0  0
 35 70  1  0  0  0  0
 35 77  2  0  0  0  0
 36 50  1  0  0  0  0
 36 72  1  0  0  0  0
 36 78  2  0  0  0  0
 37 59  1  0  0  0  0
 37 66  1  0  0  0  0
 37 79  2  0  0  0  0
 38 60  1  0  0  0  0
 38 73  1  0  0  0  0
 38 80  2  0  0  0  0
 39 67  1  0  0  0  0
 39 71  1  0  0  0  0
 39 81  2  0  0  0  0
 40 43  1  0  0  0  0
 41 50  1  0  0  0  0
 42 66  1  0  0  0  0
 43 45  1  0  0  0  0
 44 46  1  0  0  0  0
 44 47  1  0  0  0  0
 45 49  1  0  0  0  0
 46 51  1  0  0  0  0
 47 67  1  0  0  0  0
 48 51  1  0  0  0  0
 48 67  1  0  0  0  0
 49 72  1  0  0  0  0
 50 66  1  0  0  0  0
 51 65  1  0  0  0  0
 52 60  1  0  0  0  0
 53 62  1  0  0  0  0
 54 62  1  0  0  0  0
 55 62  1  0  0  0  0
 56 74  1  0  0  0  0
 57 58  1  0  0  0  0
 58 83  1  0  0  0  0
 59 62  1  0  0  0  0
 59 73  1  0  0  0  0
 60 74  1  0  0  0  0
 61 87  1  0  0  0  0
 61 88  1  0  0  0  0
 61 89  1  0  0  0  0
 63 65  1  0  0  0  0
M  CHG  1  74   1
M  ISO  4  39 100  58 101  71 100  83 101
M  END
> <Batch ID>
0177

> <Smiles>
CNC(C)C(=O)NC(C(=O)N1Cc2cc([101O:1][101CH2:1]CC(=O)C(=O)Nc3nc([100NH:0][100C:0](=O)N4CCCC(n5nc(-c6ccc(Oc7ccc(F)cc7F)cc6)c(C(N)=O)c5N)C4)c(F)cc3C(F)(F)F)ccc2CC1C(=O)NC1CCCc2ccccc21)C(C)(C)C

> <Shape>
0.280

> <Color>
0.131

> <Negative vol penalty>
0.000

$$$$

  -OEChem-04052304413D

 87 95  0     1  0  0  0  0  0999 V2000
  -28.4460  -12.1337   18.2225 C   0  0  0  0  0  0  0  0  0  0  0  0
  -28.1875  -13.4732   17.9497 C   0  0  0  0  0  0  0  0  0  0  0  0
  -28.8731  -25.3403   18.7694 C   0  0  0  0  0  0  0  0  0  0  0  0
  -27.1897  -23.9614   19.8192 C   0  0  0  0  0  0  0  0  0  0  0  0
  -27.5992  -11.4200   19.0695 C   0  0  0  0  0  0  0  0  0  0  0  0
  -27.0813  -14.0994   18.5229 C   0  0  0  0  0  0  0  0  0  0  0  0
  -24.9301  -20.4706   20.9921 C   0  0  0  0  0  0  0  0  0  0  0  0
  -29.8352  -24.3649   19.0310 C   0  0  0  0  0  0  0  0  0  0  0  0
  -28.1519  -22.9859   20.0808 C   0  0  0  0  0  0  0  0  0  0  0  0
  -23.8874  -21.3850   20.8490 C   0  0  0  0  0  0  0  0  0  0  0  0
  -29.7381  -20.5348   18.3790 C   0  0  0  0  0  0  0  0  0  0  0  0
  -29.4035  -19.2078   18.1092 C   0  0  0  0  0  0  0  0  0  0  0  0
  -22.5387  -20.0741   22.3595 C   0  0  0  0  0  0  0  0  0  0  0  0
  -29.7565  -18.6465   20.4325 C   0  0  0  0  0  0  0  0  0  0  0  0
  -18.0601  -28.8249   22.3494 C   0  0  0  0  0  0  0  0  0  0  0  0
  -27.5503  -25.1386   19.1635 C   0  0  0  0  0  0  0  0  0  0  0  0
  -25.7485  -26.2579   17.7465 C   0  0  0  0  0  0  0  0  0  0  0  0
  -26.4875  -12.0404   19.6610 C   0  0  0  0  0  0  0  0  0  0  0  0
  -24.7808  -19.3434   21.8128 C   0  0  0  0  0  0  0  0  0  0  0  0
  -26.2181  -13.3929   19.3775 C   0  0  0  0  0  0  0  0  0  0  0  0
  -23.5819  -19.1483   22.5133 C   0  0  0  0  0  0  0  0  0  0  0  0
  -29.4746  -23.1877   19.6866 C   0  0  0  0  0  0  0  0  0  0  0  0
  -22.6905  -21.1853   21.5305 C   0  0  0  0  0  0  0  0  0  0  0  0
  -30.0820  -20.9176   19.6755 C   0  0  0  0  0  0  0  0  0  0  0  0
  -29.4126  -18.2637   19.1360 C   0  0  0  0  0  0  0  0  0  0  0  0
  -30.0911  -19.9735   20.7022 C   0  0  0  0  0  0  0  0  0  0  0  0
  -19.1806  -29.2810   23.0348 C   0  0  0  0  0  0  0  0  0  0  0  0
  -17.9647  -27.4825   21.9998 C   0  0  0  0  0  0  0  0  0  0  0  0
  -26.5561  -26.1460   18.8941 C   0  0  0  0  0  0  0  0  0  0  0  0
  -20.1700  -28.3619   23.3448 C   0  0  0  0  0  0  0  0  0  0  0  0
  -19.0086  -26.6439   22.3559 C   0  0  0  0  0  0  0  0  0  0  0  0
  -24.9781  -27.3716   17.9760 C   0  0  0  0  0  0  0  0  0  0  0  0
  -25.6990  -25.4291   16.5776 C   0  0  0  0  0  0  0  0  0  0  0  0
  -24.8310  -16.2008   21.3384 C   0  0  0  0  0  0  0  0  0  0  0  0
  -24.6303  -16.1018   24.5745 C   0  0  0  0  0  0  0  0  0  0  0  0
  -23.7107  -17.6580   27.4692 C   0  0  0  0  0  0  0  0  0  0  0  0
  -23.1847  -30.1285   22.9794 C   0  0  0  0  0  0  0  0  0  0  0  0
  -25.5740  -11.2152   20.5324 C   0  0  0  0  0  0  0  0  0  0  0  0
  -25.9246  -18.3806   21.9774 C   0  0  0  0  0  0  0  0  0  0  0  0
  -23.3784  -17.9650   23.4226 C   0  0  0  0  0  0  0  0  0  0  0  0
  -24.6353  -12.0535   21.3963 C   0  0  0  0  0  0  0  0  0  0  0  0
  -25.0413  -31.5549   20.2970 C   0  0  0  0  0  0  0  0  0  0  0  0
  -23.9867  -13.1559   20.5652 C   0  0  0  0  0  0  0  0  0  0  0  0
  -25.5672  -30.3405   19.5298 C   0  0  0  0  0  0  0  0  0  0  0  0
  -25.0203  -31.3049   21.8034 C   0  0  0  0  0  0  0  0  0  0  0  0
  -24.8242  -28.8735   21.4519 C   0  0  0  0  0  0  0  0  0  0  0  0
  -25.0421  -14.1140   19.9999 C   0  0  1  0  0  0  0  0  0  0  0  0
  -25.4786  -16.9958   22.4366 C   0  0  1  0  0  0  0  0  0  0  0  0
  -24.8116  -29.0574   19.9247 C   0  0  2  0  0  0  0  0  0  0  0  0
  -23.6349  -17.3121   29.9535 C   0  0  0  0  0  0  0  0  0  0  0  0
  -22.2106  -14.2727   24.2435 C   0  0  0  0  0  0  0  0  0  0  0  0
  -21.6239  -14.7322   26.6336 C   0  0  0  0  0  0  0  0  0  0  0  0
  -23.7788  -13.6070   26.0743 C   0  0  0  0  0  0  0  0  0  0  0  0
  -25.5086  -19.9569   27.9609 C   0  0  0  0  0  0  0  0  0  0  0  0
  -21.3888  -28.8141   24.0777 C   0  0  0  0  0  0  0  0  0  0  0  0
  -19.9071  -24.3167   22.3073 C   0  0  0  0  0  0  0  0  0  0  0  0
  -23.5003  -16.0698   25.5750 C   0  0  1  0  0  0  0  0  0  0  0  0
  -24.4431  -17.8532   28.7844 C   0  0  2  0  0  0  0  0  0  0  0  0
  -19.4486  -22.9491   21.8145 C   0  0  1  0  0  0  0  0  0  0  0  0
  -22.7812  -14.6918   25.6130 C   0  0  0  0  0  0  0  0  0  0  0  0
  -20.4529  -21.8470   22.1031 C   0  0  0  0  0  0  0  0  0  1  0  0
  -26.3207  -27.1117   19.7864 N   0  0  0  0  0  0  0  0  0  0  0  0
  -20.1127  -27.0504   23.0219 N   0  0  0  0  0  0  0  0  0  0  0  0
  -25.3566  -27.8410   19.1993 N   0  0  0  0  0  0  0  0  0  0  0  0
  -24.5240  -17.0484   23.5457 N   0  0  0  0  0  0  0  0  0  0  0  0
  -24.2873  -30.0744   22.1109 N   0  0  0  0  0  0  0  0  0  0  0  0
  -24.0207  -27.9854   17.2486 N   0  0  0  0  0  0  0  0  0  0  0  0
  -26.5590  -24.3249   16.5045 N   0  0  0  0  0  0  0  0  0  0  0  0
  -18.9009  -25.3084   22.0046 N   0  0  0  0  0  0  0  0  0  0  0  0
  -25.4943  -15.0297   21.0252 N   0  0  0  0  0  0  0  0  0  0  0  0
  -24.0742  -16.4797   26.8521 N   0  0  0  0  0  0  0  0  0  0  0  0
  -22.5425  -28.9185   23.2123 N   0  0  0  0  0  0  0  0  0  0  0  0
  -24.7027  -19.3013   29.0228 N   0  3  0  0  0  0  0  0  0  0  0  0
  -24.9269  -25.6704   15.6188 O   0  0  0  0  0  0  0  0  0  0  0  0
  -23.8046  -16.6181   20.8149 O   0  0  0  0  0  0  0  0  0  0  0  0
  -25.5760  -15.3206   24.7051 O   0  0  0  0  0  0  0  0  0  0  0  0
  -22.8947  -18.4679   27.0345 O   0  0  0  0  0  0  0  0  0  0  0  0
  -22.7977  -31.1783   23.5039 O   0  0  0  0  0  0  0  0  0  0  0  0
  -30.4132  -22.2356   19.9419 O   0  0  0  0  0  0  0  0  0  0  0  0
  -21.6709  -22.0759   21.3922 O   0  0  0  0  0  0  0  0  0  1  0  0
  -29.0898  -16.9897   18.8771 F   0  0  0  0  0  0  0  0  0  0  0  0
  -30.4194  -20.3356   21.9500 F   0  0  0  0  0  0  0  0  0  0  0  0
  -19.2899  -30.5704   23.3777 F   0  0  0  0  0  0  0  0  0  0  0  0
  -16.8913  -27.0294   21.3395 F   0  0  0  0  0  0  0  0  0  0  0  0
  -18.2889  -22.6298   22.4589 F   0  0  0  0  0  0  0  0  0  0  0  0
  -20.7006  -21.7935   23.4345 F   0  0  0  0  0  0  0  0  0  0  0  0
  -19.9233  -20.6595   21.7169 F   0  0  0  0  0  0  0  0  0  0  0  0
  1  2  1  0  0  0  0
  1  5  2  0  0  0  0
  2  6  2  0  0  0  0
  3  8  2  0  0  0  0
  3 16  1  0  0  0  0
  4  9  1  0  0  0  0
  4 16  2  0  0  0  0
  5 18  1  0  0  0  0
  6 20  1  0  0  0  0
  7 10  2  0  0  0  0
  7 19  1  0  0  0  0
  8 22  1  0  0  0  0
  9 22  2  0  0  0  0
 10 23  1  0  0  0  0
 11 12  2  0  0  0  0
 11 24  1  0  0  0  0
 12 25  1  0  0  0  0
 13 21  1  0  0  0  0
 13 23  2  0  0  0  0
 14 25  2  0  0  0  0
 14 26  1  0  0  0  0
 15 27  2  0  0  0  0
 15 28  1  0  0  0  0
 16 29  1  0  0  0  0
 17 29  1  0  0  0  0
 17 32  2  0  0  0  0
 17 33  1  0  0  0  0
 18 20  2  0  0  0  0
 18 38  1  0  0  0  0
 19 21  2  0  0  0  0
 19 39  1  0  0  0  0
 20 47  1  0  0  0  0
 21 40  1  0  0  0  0
 22 79  1  0  0  0  0
 23 80  1  0  0  0  0
 24 26  2  0  0  0  0
 24 79  1  0  0  0  0
 25 81  1  0  0  0  0
 26 82  1  0  0  0  0
 27 30  1  0  0  0  0
 27 83  1  0  0  0  0
 28 31  2  0  0  0  0
 28 84  1  0  0  0  0
 29 62  2  0  0  0  0
 30 55  1  0  0  0  0
 30 63  2  0  0  0  0
 31 63  1  0  0  0  0
 31 69  1  0  0  0  0
 32 64  1  0  0  0  0
 32 67  1  0  0  0  0
 33 68  1  0  0  0  0
 33 74  2  0  0  0  0
 34 48  1  0  0  0  0
 34 70  1  0  0  0  0
 34 75  2  0  0  0  0
 35 57  1  0  0  0  0
 35 65  1  0  0  0  0
 35 76  2  0  0  0  0
 36 58  1  0  0  0  0
 36 71  1  0  0  0  0
 36 77  2  0  0  0  0
 37 66  1  0  0  0  0
 37 72  1  0  0  0  0
 37 78  2  0  0  0  0
 38 41  1  0  0  0  0
 39 48  1  0  0  0  0
 40 65  1  0  0  0  0
 41 43  1  0  0  0  0
 42 44  1  0  0  0  0
 42 45  1  0  0  0  0
 43 47  1  0  0  0  0
 44 49  1  0  0  0  0
 45 66  1  0  0  0  0
 46 49  1  0  0  0  0
 46 66  1  0  0  0  0
 47 70  1  0  0  0  0
 48 65  1  0  0  0  0
 49 64  1  0  0  0  0
 50 58  1  0  0  0  0
 51 60  1  0  0  0  0
 52 60  1  0  0  0  0
 53 60  1  0  0  0  0
 54 73  1  0  0  0  0
 55 72  1  0  0  0  0
 56 59  1  0  0  0  0
 56 69  1  0  0  0  0
 57 60  1  0  0  0  0
 57 71  1  0  0  0  0
 58 73  1  0  0  0  0
 59 61  1  0  0  0  0
 59 85  1  0  0  0  0
 61 80  1  0  0  0  0
 61 86  1  0  0  0  0
 61 87  1  0  0  0  0
 62 64  1  0  0  0  0
M  CHG  1  73   1
M  ISO  4  37 100  61 101  72 100  80 101
M  END
> <Batch ID>
0177

> <Smiles>
CNC(C)C(=O)NC(C(=O)N1Cc2cc([101O:1][101C:1](F)(F)C(F)CNc3nc(C[100NH:0][100C:0](=O)N4CCCC(n5nc(-c6ccc(Oc7ccc(F)cc7F)cc6)c(C(N)=O)c5N)C4)c(F)cc3F)ccc2CC1C(=O)NC1CCCc2ccccc21)C(C)(C)C

> <Shape>
0.235

> <Color>
0.072

> <Negative vol penalty>
0.000

$$$$

  -OEChem-04052304413D

 87 95  0     1  0  0  0  0  0999 V2000
  -22.2456  -18.1175   22.1040 C   0  0  0  0  0  0  0  0  0  0  0  0
  -23.1853  -19.0668   21.7153 C   0  0  0  0  0  0  0  0  0  0  0  0
  -23.4986   -9.0851   20.3268 C   0  0  0  0  0  0  0  0  0  0  0  0
  -23.2118  -10.8993   21.8964 C   0  0  0  0  0  0  0  0  0  0  0  0
  -20.8865  -18.4256   22.0613 C   0  0  0  0  0  0  0  0  0  0  0  0
  -22.7664  -20.3245   21.2825 C   0  0  0  0  0  0  0  0  0  0  0  0
  -25.5018  -24.0818   23.2938 C   0  0  0  0  0  0  0  0  0  0  0  0
  -22.5787   -8.3197   21.0434 C   0  0  0  0  0  0  0  0  0  0  0  0
  -22.2918  -10.1339   22.6129 C   0  0  0  0  0  0  0  0  0  0  0  0
  -26.7601  -24.3191   22.7422 C   0  0  0  0  0  0  0  0  0  0  0  0
  -22.5467   -6.4649   23.8688 C   0  0  0  0  0  0  0  0  0  0  0  0
  -22.8723   -5.1329   24.1242 C   0  0  0  0  0  0  0  0  0  0  0  0
  -29.5531  -19.4027   19.1625 C   0  0  0  0  0  0  0  0  0  0  0  0
  -25.8502  -26.1576   21.4728 C   0  0  0  0  0  0  0  0  0  0  0  0
  -20.9026   -4.4204   22.9203 C   0  0  0  0  0  0  0  0  0  0  0  0
  -31.3095  -17.5608   20.1464 C   0  0  0  0  0  0  0  0  0  0  0  0
  -23.8152  -10.3749   20.7533 C   0  0  0  0  0  0  0  0  0  0  0  0
  -29.2495  -18.0495   19.0628 C   0  0  0  0  0  0  0  0  0  0  0  0
  -24.4942  -12.0449   18.9484 C   0  0  0  0  0  0  0  0  0  0  0  0
  -20.4511  -19.6909   21.6370 C   0  0  0  0  0  0  0  0  0  0  0  0
  -24.4041  -24.8750   22.9301 C   0  0  0  0  0  0  0  0  0  0  0  0
  -21.4001  -20.6493   21.2328 C   0  0  0  0  0  0  0  0  0  0  0  0
  -24.5796  -25.9299   22.0231 C   0  0  0  0  0  0  0  0  0  0  0  0
  -30.1391  -17.1045   19.5616 C   0  0  0  0  0  0  0  0  0  0  0  0
  -21.9752   -8.8441   22.1864 C   0  0  0  0  0  0  0  0  0  0  0  0
  -26.9338  -25.3553   21.8294 C   0  0  0  0  0  0  0  0  0  0  0  0
  -21.3989   -6.7747   23.1392 C   0  0  0  0  0  0  0  0  0  0  0  0
  -22.0503   -4.1107   23.6499 C   0  0  0  0  0  0  0  0  0  0  0  0
  -20.5769   -5.7525   22.6649 C   0  0  0  0  0  0  0  0  0  0  0  0
  -24.7659  -11.1658   20.0139 C   0  0  0  0  0  0  0  0  0  0  0  0
  -30.7496  -19.7561   19.7653 C   0  0  0  0  0  0  0  0  0  0  0  0
  -25.7231  -12.5461   18.5949 C   0  0  0  0  0  0  0  0  0  0  0  0
  -27.9957  -17.6543   18.4337 C   0  0  0  0  0  0  0  0  0  0  0  0
  -23.2428  -12.3787   18.3333 C   0  0  0  0  0  0  0  0  0  0  0  0
  -21.6135  -24.3277   21.5100 C   0  0  0  0  0  0  0  0  0  0  0  0
  -29.9611  -24.6665   19.9561 C   0  0  0  0  0  0  0  0  0  0  0  0
  -21.0730  -27.4415   22.2409 C   0  0  0  0  0  0  0  0  0  0  0  0
  -30.2789  -22.2043   19.4164 C   0  0  0  0  0  0  0  0  0  0  0  0
  -22.3687  -30.5175   22.9526 C   0  0  0  0  0  0  0  0  0  0  0  0
  -30.6870  -14.6759   19.9464 C   0  0  0  0  0  0  0  0  0  0  0  0
  -18.9693  -19.9616   21.5628 C   0  0  0  0  0  0  0  0  0  0  0  0
  -23.0590  -24.6230   23.5543 C   0  0  0  0  0  0  0  0  0  0  0  0
  -23.4377  -26.8232   21.6151 C   0  0  0  0  0  0  0  0  0  0  0  0
  -18.6259  -21.4445   21.4479 C   0  0  0  0  0  0  0  0  0  0  0  0
  -30.3809  -11.1288   19.9798 C   0  0  0  0  0  0  0  0  0  0  0  0
  -19.5039  -22.1159   20.3966 C   0  0  0  0  0  0  0  0  0  0  0  0
  -28.8705  -10.8945   19.9040 C   0  0  0  0  0  0  0  0  0  0  0  0
  -30.7232  -12.3527   20.8275 C   0  0  0  0  0  0  0  0  0  0  0  0
  -28.5205  -13.3545   20.3653 C   0  0  0  0  0  0  0  0  0  0  0  0
  -20.9861  -22.0330   20.7810 C   0  0  1  0  0  0  0  0  0  0  0  0
  -21.9025  -25.1677   22.7218 C   0  0  1  0  0  0  0  0  0  0  0  0
  -28.1234  -12.1705   19.4687 C   0  0  2  0  0  0  0  0  0  0  0  0
  -31.8862  -23.8897   18.5276 C   0  0  0  0  0  0  0  0  0  0  0  0
  -21.6786  -32.8747   23.4671 C   0  0  0  0  0  0  0  0  0  0  0  0
  -20.4115  -27.8881   19.2959 C   0  0  0  0  0  0  0  0  0  0  0  0
  -20.6658  -30.3484   19.6838 C   0  0  0  0  0  0  0  0  0  0  0  0
  -18.8982  -29.0726   20.8963 C   0  0  0  0  0  0  0  0  0  0  0  0
  -23.6719  -30.4423   25.6087 C   0  0  0  0  0  0  0  0  0  0  0  0
  -29.0271  -24.4653   21.1353 C   0  0  0  0  0  0  0  0  0  1  0  0
  -30.9607  -23.5421   19.6922 C   0  0  1  0  0  0  0  0  0  0  0  0
  -21.3206  -28.7605   21.5495 C   0  0  1  0  0  0  0  0  0  0  0  0
  -22.0455  -31.5178   24.0477 C   0  0  2  0  0  0  0  0  0  0  0  0
  -20.3453  -28.9995   20.3624 C   0  0  0  0  0  0  0  0  0  0  0  0
  -31.6388  -18.8669   20.2614 N   0  0  0  0  0  0  0  0  0  0  0  0
  -26.0654  -11.1094   20.3172 N   0  0  0  0  0  0  0  0  0  0  0  0
  -27.1381  -18.5043   17.9564 N   0  0  0  0  0  0  0  0  0  0  0  0
  -26.6213  -11.9594   19.4371 N   0  0  0  0  0  0  0  0  0  0  0  0
  -22.1407  -26.5327   22.2482 N   0  0  0  0  0  0  0  0  0  0  0  0
  -29.9820  -13.5239   20.3544 N   0  0  0  0  0  0  0  0  0  0  0  0
  -26.1123  -13.4270   17.6489 N   0  0  0  0  0  0  0  0  0  0  0  0
  -22.0765  -11.7725   18.8197 N   0  0  0  0  0  0  0  0  0  0  0  0
  -29.8780  -15.7139   19.4853 N   0  0  0  0  0  0  0  0  0  0  0  0
  -31.0507  -21.1357   19.8600 N   0  0  0  0  0  0  0  0  0  0  0  0
  -21.3000  -23.0131   21.7984 N   0  0  0  0  0  0  0  0  0  0  0  0
  -21.2599  -29.7834   22.5879 N   0  0  0  0  0  0  0  0  0  0  0  0
  -23.2180  -31.6944   24.9505 N   0  3  0  0  0  0  0  0  0  0  0  0
  -23.1633  -13.1779   17.3698 O   0  0  0  0  0  0  0  0  0  0  0  0
  -21.6693  -24.8350   20.3959 O   0  0  0  0  0  0  0  0  0  0  0  0
  -29.9000  -25.6709   19.2478 O   0  0  0  0  0  0  0  0  0  0  0  0
  -19.9753  -27.2284   22.7617 O   0  0  0  0  0  0  0  0  0  0  0  0
  -29.1871  -22.1520   18.8571 O   0  0  0  0  0  0  0  0  0  0  0  0
  -23.4916  -30.4016   22.4665 O   0  0  0  0  0  0  0  0  0  0  0  0
  -31.9193  -14.7272   19.9764 O   0  0  0  0  0  0  0  0  0  0  0  0
  -21.0773   -8.0976   22.8857 O   0  0  0  0  0  0  0  0  0  0  0  0
  -28.1608  -25.5887   21.2891 O   0  0  0  0  0  0  0  0  0  1  0  0
  -22.3640   -2.8315   23.8940 F   0  0  0  0  0  0  0  0  0  0  0  0
  -19.4735   -6.0439   21.9623 F   0  0  0  0  0  0  0  0  0  0  0  0
  1  2  1  0  0  0  0
  1  5  2  0  0  0  0
  2  6  2  0  0  0  0
  3  8  2  0  0  0  0
  3 17  1  0  0  0  0
  4  9  1  0  0  0  0
  4 17  2  0  0  0  0
  5 20  1  0  0  0  0
  6 22  1  0  0  0  0
  7 10  2  0  0  0  0
  7 21  1  0  0  0  0
  8 25  1  0  0  0  0
  9 25  2  0  0  0  0
 10 26  1  0  0  0  0
 11 12  2  0  0  0  0
 11 27  1  0  0  0  0
 12 28  1  0  0  0  0
 13 18  2  0  0  0  0
 13 31  1  0  0  0  0
 14 23  1  0  0  0  0
 14 26  2  0  0  0  0
 15 28  2  0  0  0  0
 15 29  1  0  0  0  0
 16 24  2  0  0  0  0
 16 64  1  0  0  0  0
 17 30  1  0  0  0  0
 18 24  1  0  0  0  0
 18 33  1  0  0  0  0
 19 30  1  0  0  0  0
 19 32  2  0  0  0  0
 19 34  1  0  0  0  0
 20 22  2  0  0  0  0
 20 41  1  0  0  0  0
 21 23  2  0  0  0  0
 21 42  1  0  0  0  0
 22 50  1  0  0  0  0
 23 43  1  0  0  0  0
 24 72  1  0  0  0  0
 25 84  1  0  0  0  0
 26 85  1  0  0  0  0
 27 29  2  0  0  0  0
 27 84  1  0  0  0  0
 28 86  1  0  0  0  0
 29 87  1  0  0  0  0
 30 65  2  0  0  0  0
 31 64  2  0  0  0  0
 31 73  1  0  0  0  0
 32 67  1  0  0  0  0
 32 70  1  0  0  0  0
 33 66  2  0  0  0  0
 34 71  1  0  0  0  0
 34 77  2  0  0  0  0
 35 51  1  0  0  0  0
 35 74  1  0  0  0  0
 35 78  2  0  0  0  0
 36 59  1  0  0  0  0
 36 60  1  0  0  0  0
 36 79  2  0  0  0  0
 37 61  1  0  0  0  0
 37 68  1  0  0  0  0
 37 80  2  0  0  0  0
 38 60  1  0  0  0  0
 38 73  1  0  0  0  0
 38 81  2  0  0  0  0
 39 62  1  0  0  0  0
 39 75  1  0  0  0  0
 39 82  2  0  0  0  0
 40 69  1  0  0  0  0
 40 72  1  0  0  0  0
 40 83  2  0  0  0  0
 41 44  1  0  0  0  0
 42 51  1  0  0  0  0
 43 68  1  0  0  0  0
 44 46  1  0  0  0  0
 45 47  1  0  0  0  0
 45 48  1  0  0  0  0
 46 50  1  0  0  0  0
 47 52  1  0  0  0  0
 48 69  1  0  0  0  0
 49 52  1  0  0  0  0
 49 69  1  0  0  0  0
 50 74  1  0  0  0  0
 51 68  1  0  0  0  0
 52 67  1  0  0  0  0
 53 60  1  0  0  0  0
 54 62  1  0  0  0  0
 55 63  1  0  0  0  0
 56 63  1  0  0  0  0
 57 63  1  0  0  0  0
 58 76  1  0  0  0  0
 59 85  1  0  0  0  0
 61 63  1  0  0  0  0
 61 75  1  0  0  0  0
 62 76  1  0  0  0  0
 65 67  1  0  0  0  0
M  CHG  1  76   1
M  ISO  4  40 100  59 101  72 100  85 101
M  END
> <Batch ID>
0177

> <Smiles>
CNC(C)C(=O)NC(C(=O)N1Cc2cc([101O:1][101CH2:1]C(=O)C(C)C(=O)Nc3cc(C=N)c([100NH:0][100C:0](=O)N4CCCC(n5nc(-c6ccc(Oc7ccc(F)cc7F)cc6)c(C(N)=O)c5N)C4)cn3)ccc2CC1C(=O)NC1CCCc2ccccc21)C(C)(C)C

> <Shape>
0.233

> <Color>
0.101

> <Negative vol penalty>
0.000

$$$$

  -OEChem-04052304413D

 86 94  0     1  0  0  0  0  0999 V2000
  -26.8213  -38.3368   21.9960 C   0  0  0  0  0  0  0  0  0  0  0  0
  -27.3424  -37.3241   21.1971 C   0  0  0  0  0  0  0  0  0  0  0  0
  -24.5799   -8.2749   20.5309 C   0  0  0  0  0  0  0  0  0  0  0  0
  -23.1758  -10.2383   20.6340 C   0  0  0  0  0  0  0  0  0  0  0  0
  -26.1961  -38.0203   23.2014 C   0  0  0  0  0  0  0  0  0  0  0  0
  -27.2397  -35.9942   21.6037 C   0  0  0  0  0  0  0  0  0  0  0  0
  -26.4735  -29.3867   18.9447 C   0  0  0  0  0  0  0  0  0  0  0  0
  -23.5100   -7.4874   20.9560 C   0  0  0  0  0  0  0  0  0  0  0  0
  -22.1059   -9.4508   21.0591 C   0  0  0  0  0  0  0  0  0  0  0  0
  -27.0625  -28.1247   19.0093 C   0  0  0  0  0  0  0  0  0  0  0  0
  -21.9493   -6.7680   23.8665 C   0  0  0  0  0  0  0  0  0  0  0  0
  -22.1978   -5.8194   24.8585 C   0  0  0  0  0  0  0  0  0  0  0  0
  -25.8914  -27.6905   21.0731 C   0  0  0  0  0  0  0  0  0  0  0  0
  -21.4959   -4.0633   23.3549 C   0  0  0  0  0  0  0  0  0  0  0  0
  -29.7754  -18.5708   20.1836 C   0  0  0  0  0  0  0  0  0  0  0  0
  -24.4129   -9.6504   20.3699 C   0  0  0  0  0  0  0  0  0  0  0  0
  -25.8653  -10.7828   18.6048 C   0  0  0  0  0  0  0  0  0  0  0  0
  -26.0771  -36.6851   23.6183 C   0  0  0  0  0  0  0  0  0  0  0  0
  -25.5960  -29.8150   19.9511 C   0  0  0  0  0  0  0  0  0  0  0  0
  -26.6135  -35.6596   22.8164 C   0  0  0  0  0  0  0  0  0  0  0  0
  -25.2905  -28.9574   21.0175 C   0  0  0  0  0  0  0  0  0  0  0  0
  -28.8020  -19.1416   17.6992 C   0  0  0  0  0  0  0  0  0  0  0  0
  -29.2857  -17.5271   19.4149 C   0  0  0  0  0  0  0  0  0  0  0  0
  -22.2730   -8.0753   21.2201 C   0  0  0  0  0  0  0  0  0  0  0  0
  -26.7737  -27.2775   20.0751 C   0  0  0  0  0  0  0  0  0  0  0  0
  -21.4741   -6.3643   22.6187 C   0  0  0  0  0  0  0  0  0  0  0  0
  -21.9711   -4.4670   24.6027 C   0  0  0  0  0  0  0  0  0  0  0  0
  -21.2474   -5.0119   22.3630 C   0  0  0  0  0  0  0  0  0  0  0  0
  -28.7915  -17.8264   18.1502 C   0  0  0  0  0  0  0  0  0  0  0  0
  -25.5179  -10.4645   19.9314 C   0  0  0  0  0  0  0  0  0  0  0  0
  -29.3132  -20.1130   18.5447 C   0  0  0  0  0  0  0  0  0  0  0  0
  -26.9808  -11.5754   18.7228 C   0  0  0  0  0  0  0  0  0  0  0  0
  -25.2359  -10.3967   17.3758 C   0  0  0  0  0  0  0  0  0  0  0  0
  -25.5954  -32.1878   22.0662 C   0  0  0  0  0  0  0  0  0  0  0  0
  -28.8099  -24.3005   19.3114 C   0  0  0  0  0  0  0  0  0  0  0  0
  -22.6072  -31.0985   22.7039 C   0  0  0  0  0  0  0  0  0  0  0  0
  -20.3933  -28.5023   22.6325 C   0  0  0  0  0  0  0  0  0  0  0  0
  -29.7531  -15.7542   21.1425 C   0  0  0  0  0  0  0  0  0  0  0  0
  -25.4349  -36.3955   24.9518 C   0  0  0  0  0  0  0  0  0  0  0  0
  -24.9481  -31.1689   19.8529 C   0  0  0  0  0  0  0  0  0  0  0  0
  -24.3393  -29.3618   22.1130 C   0  0  0  0  0  0  0  0  0  0  0  0
  -25.0352  -34.9331   25.1307 C   0  0  0  0  0  0  0  0  0  0  0  0
  -29.9039  -12.5724   22.7332 C   0  0  0  0  0  0  0  0  0  0  0  0
  -26.1714  -34.0124   24.6970 C   0  0  0  0  0  0  0  0  0  0  0  0
  -28.8049  -11.7665   22.0370 C   0  0  0  0  0  0  0  0  0  0  0  0
  -29.5035  -14.0349   22.9192 C   0  0  0  0  0  0  0  0  0  0  0  0
  -27.9635  -13.9123   21.0002 C   0  0  0  0  0  0  0  0  0  0  0  0
  -26.4997  -34.2032   23.2113 C   0  0  1  0  0  0  0  0  0  0  0  0
  -24.4685  -31.7010   21.1998 C   0  0  1  0  0  0  0  0  0  0  0  0
  -28.3471  -12.4478   20.7324 C   0  0  2  0  0  0  0  0  0  0  0  0
  -28.2736  -19.4622   16.3421 C   0  0  0  0  0  0  0  0  0  0  0  0
  -18.0376  -27.9044   23.2575 C   0  0  0  0  0  0  0  0  0  0  0  0
  -31.6069  -22.1470   17.7386 C   0  0  0  0  0  0  0  0  0  0  0  0
  -23.4325  -30.9224   25.6362 C   0  0  0  0  0  0  0  0  0  0  0  0
  -21.4370  -29.4649   26.0381 C   0  0  0  0  0  0  0  0  0  0  0  0
  -21.1269  -31.8122   25.2529 C   0  0  0  0  0  0  0  0  0  0  0  0
  -19.6780  -27.9001   19.8245 C   0  0  0  0  0  0  0  0  0  0  0  0
  -29.7869  -23.8105   18.2506 C   0  0  0  0  0  0  0  0  0  0  0  0
  -28.2363  -25.6855   19.0840 C   0  0  0  0  0  0  0  0  0  1  0  0
  -22.0207  -30.0760   23.6471 C   0  0  1  0  0  0  0  0  0  0  0  0
  -18.9538  -28.4188   22.1580 C   0  0  2  0  0  0  0  0  0  0  0  0
  -30.3160  -22.3975   18.5117 C   0  0  1  0  0  0  0  0  0  0  0  0
  -22.0237  -30.5617   25.1241 C   0  0  0  0  0  0  0  0  0  0  0  0
  -29.8020  -19.8606   19.7796 N   0  0  0  0  0  0  0  0  0  0  0  0
  -26.3457  -11.0101   20.8264 N   0  0  0  0  0  0  0  0  0  0  0  0
  -27.2244  -11.6793   20.0608 N   0  0  0  0  0  0  0  0  0  0  0  0
  -23.7362  -30.6978   21.9755 N   0  0  0  0  0  0  0  0  0  0  0  0
  -29.0858  -14.6154   21.6412 N   0  0  0  0  0  0  0  0  0  0  0  0
  -27.7673  -12.1866   17.8116 N   0  0  0  0  0  0  0  0  0  0  0  0
  -24.0988   -9.5795   17.4354 N   0  0  0  0  0  0  0  0  0  0  0  0
  -29.2906  -16.1972   19.9038 N   0  0  0  0  0  0  0  0  0  0  0  0
  -29.3260  -21.4223   18.1003 N   0  0  0  0  0  0  0  0  0  0  0  0
  -25.5194  -33.5298   22.3866 N   0  0  0  0  0  0  0  0  0  0  0  0
  -20.6964  -29.7532   23.1269 N   0  0  0  0  0  0  0  0  0  0  0  0
  -18.8461  -27.5010   20.9888 N   0  3  0  0  0  0  0  0  0  0  0  0
  -25.6786  -10.7520   16.2572 O   0  0  0  0  0  0  0  0  0  0  0  0
  -26.4684  -31.4036   22.4192 O   0  0  0  0  0  0  0  0  0  0  0  0
  -28.5097  -23.6304   20.2981 O   0  0  0  0  0  0  0  0  0  0  0  0
  -22.0788  -32.2093   22.6115 O   0  0  0  0  0  0  0  0  0  0  0  0
  -21.1701  -27.5516   22.5740 O   0  0  0  0  0  0  0  0  0  0  0  0
  -30.6856  -16.2803   21.7555 O   0  0  0  0  0  0  0  0  0  0  0  0
  -21.2287   -7.3072   21.6347 O   0  0  0  0  0  0  0  0  0  0  0  0
  -27.3478  -26.0454   20.1410 O   0  0  0  0  0  0  0  0  0  1  0  0
  -22.2112   -3.5560   25.5549 F   0  0  0  0  0  0  0  0  0  0  0  0
  -20.7920   -4.6179   21.1658 F   0  0  0  0  0  0  0  0  0  0  0  0
  -28.3070  -16.8506   17.3677 F   0  0  0  0  0  0  0  0  0  0  0  0
  1  2  1  0  0  0  0
  1  5  2  0  0  0  0
  2  6  2  0  0  0  0
  3  8  2  0  0  0  0
  3 16  1  0  0  0  0
  4  9  1  0  0  0  0
  4 16  2  0  0  0  0
  5 18  1  0  0  0  0
  6 20  1  0  0  0  0
  7 10  2  0  0  0  0
  7 19  1  0  0  0  0
  8 24  1  0  0  0  0
  9 24  2  0  0  0  0
 10 25  1  0  0  0  0
 11 12  2  0  0  0  0
 11 26  1  0  0  0  0
 12 27  1  0  0  0  0
 13 21  1  0  0  0  0
 13 25  2  0  0  0  0
 14 27  2  0  0  0  0
 14 28  1  0  0  0  0
 15 23  1  0  0  0  0
 15 64  2  0  0  0  0
 16 30  1  0  0  0  0
 17 30  1  0  0  0  0
 17 32  2  0  0  0  0
 17 33  1  0  0  0  0
 18 20  2  0  0  0  0
 18 39  1  0  0  0  0
 19 21  2  0  0  0  0
 19 40  1  0  0  0  0
 20 48  1  0  0  0  0
 21 41  1  0  0  0  0
 22 29  1  0  0  0  0
 22 31  2  0  0  0  0
 22 51  1  0  0  0  0
 23 29  2  0  0  0  0
 23 71  1  0  0  0  0
 24 82  1  0  0  0  0
 25 83  1  0  0  0  0
 26 28  2  0  0  0  0
 26 82  1  0  0  0  0
 27 84  1  0  0  0  0
 28 85  1  0  0  0  0
 29 86  1  0  0  0  0
 30 65  2  0  0  0  0
 31 64  1  0  0  0  0
 31 72  1  0  0  0  0
 32 66  1  0  0  0  0
 32 69  1  0  0  0  0
 33 70  1  0  0  0  0
 33 76  2  0  0  0  0
 34 49  1  0  0  0  0
 34 73  1  0  0  0  0
 34 77  2  0  0  0  0
 35 58  1  0  0  0  0
 35 59  1  0  0  0  0
 35 78  2  0  0  0  0
 36 60  1  0  0  0  0
 36 67  1  0  0  0  0
 36 79  2  0  0  0  0
 37 61  1  0  0  0  0
 37 74  1  0  0  0  0
 37 80  2  0  0  0  0
 38 68  1  0  0  0  0
 38 71  1  0  0  0  0
 38 81  2  0  0  0  0
 39 42  1  0  0  0  0
 40 49  1  0  0  0  0
 41 67  1  0  0  0  0
 42 44  1  0  0  0  0
 43 45  1  0  0  0  0
 43 46  1  0  0  0  0
 44 48  1  0  0  0  0
 45 50  1  0  0  0  0
 46 68  1  0  0  0  0
 47 50  1  0  0  0  0
 47 68  1  0  0  0  0
 48 73  1  0  0  0  0
 49 67  1  0  0  0  0
 50 66  1  0  0  0  0
 52 61  1  0  0  0  0
 53 62  1  0  0  0  0
 54 63  1  0  0  0  0
 55 63  1  0  0  0  0
 56 63  1  0  0  0  0
 57 75  1  0  0  0  0
 58 62  1  0  0  0  0
 59 83  1  0  0  0  0
 60 63  1  0  0  0  0
 60 74  1  0  0  0  0
 61 75  1  0  0  0  0
 62 72  1  0  0  0  0
 65 66  1  0  0  0  0
M  CHG  1  75   1
M  ISO  4  38 100  59 101  71 100  83 101
M  END
> <Batch ID>
0177

> <Smiles>
CNC(C)C(=O)NC(C(=O)N1Cc2cc([101O:1][101CH2:1]C(=O)CC(C)Nc3ncc([100NH:0][100C:0](=O)N4CCCC(n5nc(-c6ccc(Oc7ccc(F)cc7F)cc6)c(C(N)=O)c5N)C4)c(F)c3C)ccc2CC1C(=O)NC1CCCc2ccccc21)C(C)(C)C

> <Shape>
0.362

> <Color>
0.116

> <Negative vol penalty>
0.000

$$$$

  -OEChem-04052304413D

 86 94  0     1  0  0  0  0  0999 V2000
  -22.1199  -34.5133   21.3979 C   0  0  0  0  0  0  0  0  0  0  0  0
  -23.2201  -33.6619   21.4095 C   0  0  0  0  0  0  0  0  0  0  0  0
  -24.2734  -13.8549   20.8343 C   0  0  0  0  0  0  0  0  0  0  0  0
  -26.5439  -13.4959   20.0904 C   0  0  0  0  0  0  0  0  0  0  0  0
  -20.9302  -34.1215   22.0102 C   0  0  0  0  0  0  0  0  0  0  0  0
  -23.1315  -32.4186   22.0346 C   0  0  0  0  0  0  0  0  0  0  0  0
  -25.1498  -28.6982   19.2542 C   0  0  0  0  0  0  0  0  0  0  0  0
  -24.2311  -12.5531   21.3334 C   0  0  0  0  0  0  0  0  0  0  0  0
  -26.5016  -12.1941   20.5896 C   0  0  0  0  0  0  0  0  0  0  0  0
  -26.5397  -28.5889   19.2498 C   0  0  0  0  0  0  0  0  0  0  0  0
  -23.8121   -9.4298   20.1112 C   0  0  0  0  0  0  0  0  0  0  0  0
  -22.6744   -8.6695   19.8408 C   0  0  0  0  0  0  0  0  0  0  0  0
  -26.3984  -26.8032   20.8655 C   0  0  0  0  0  0  0  0  0  0  0  0
  -22.2622   -8.4433   22.2106 C   0  0  0  0  0  0  0  0  0  0  0  0
  -25.4298  -14.3263   20.2127 C   0  0  0  0  0  0  0  0  0  0  0  0
  -25.8819  -16.8313   20.3809 C   0  0  0  0  0  0  0  0  0  0  0  0
  -20.8239  -32.8687   22.6347 C   0  0  0  0  0  0  0  0  0  0  0  0
  -24.3731  -27.8668   20.0739 C   0  0  0  0  0  0  0  0  0  0  0  0
  -21.9396  -32.0102   22.6571 C   0  0  0  0  0  0  0  0  0  0  0  0
  -24.9987  -26.9023   20.8766 C   0  0  0  0  0  0  0  0  0  0  0  0
  -25.3452  -11.7227   21.2111 C   0  0  0  0  0  0  0  0  0  0  0  0
  -27.1644  -27.6433   20.0576 C   0  0  0  0  0  0  0  0  0  0  0  0
  -24.1749   -9.6968   21.4314 C   0  0  0  0  0  0  0  0  0  0  0  0
  -21.8994   -8.1762   20.8904 C   0  0  0  0  0  0  0  0  0  0  0  0
  -23.4000   -9.2036   22.4810 C   0  0  0  0  0  0  0  0  0  0  0  0
  -25.4739  -15.6707   19.6964 C   0  0  0  0  0  0  0  0  0  0  0  0
  -28.8931  -23.4283   14.1658 C   0  0  0  0  0  0  0  0  0  0  0  0
  -29.5037  -23.1558   15.3648 C   0  0  0  0  0  0  0  0  0  0  0  0
  -25.7407  -17.8405   19.4601 C   0  0  0  0  0  0  0  0  0  0  0  0
  -28.0739  -21.6348   14.8975 C   0  0  0  0  0  0  0  0  0  0  0  0
  -29.0965  -26.6768   19.1612 C   0  0  0  0  0  0  0  0  0  1  0  0
  -26.3470  -16.9834   21.7286 C   0  0  0  0  0  0  0  0  0  0  0  0
  -30.4188  -26.4922   19.0724 C   0  0  0  0  0  0  0  0  0  0  0  0
  -30.9568  -25.5301   18.0596 C   0  0  0  0  0  0  0  0  0  0  0  0
  -22.3620  -28.3433   22.4889 C   0  0  0  0  0  0  0  0  0  0  0  0
  -21.8625  -25.1520   22.1915 C   0  0  0  0  0  0  0  0  0  0  0  0
  -23.0365  -22.1200   21.1545 C   0  0  0  0  0  0  0  0  0  0  0  0
  -26.3828  -19.8618   14.3118 C   0  0  0  0  0  0  0  0  0  0  0  0
  -19.5319  -32.5086   23.3244 C   0  0  0  0  0  0  0  0  0  0  0  0
  -22.8734  -27.9792   20.0472 C   0  0  0  0  0  0  0  0  0  0  0  0
  -24.2090  -25.9720   21.7595 C   0  0  0  0  0  0  0  0  0  0  0  0
  -19.4039  -31.0205   23.6396 C   0  0  0  0  0  0  0  0  0  0  0  0
  -23.4956  -17.8701   14.9236 C   0  0  0  0  0  0  0  0  0  0  0  0
  -20.6912  -30.4950   24.2668 C   0  0  0  0  0  0  0  0  0  0  0  0
  -23.7864  -17.2158   16.2761 C   0  0  0  0  0  0  0  0  0  0  0  0
  -24.7575  -17.9974   14.0721 C   0  0  0  0  0  0  0  0  0  0  0  0
  -26.1781  -18.0097   16.0847 C   0  0  0  0  0  0  0  0  0  0  0  0
  -21.8750  -30.6434   23.3033 C   0  0  1  0  0  0  0  0  0  0  0  0
  -22.2105  -27.4290   21.3062 C   0  0  1  0  0  0  0  0  0  0  0  0
  -24.9491  -17.9189   17.0039 C   0  0  2  0  0  0  0  0  0  0  0  0
  -29.1070  -24.5620   13.2550 C   0  0  0  0  0  0  0  0  0  0  0  0
  -22.4186  -19.6889   21.0802 C   0  0  0  0  0  0  0  0  0  0  0  0
  -22.4983  -24.9020   25.1652 C   0  0  0  0  0  0  0  0  0  0  0  0
  -22.8001  -22.4404   24.8226 C   0  0  0  0  0  0  0  0  0  0  0  0
  -20.5824  -23.4959   24.3863 C   0  0  0  0  0  0  0  0  0  0  0  0
  -23.1357  -22.0658   18.1971 C   0  0  0  0  0  0  0  0  0  0  0  0
  -29.9313  -24.8176   17.1864 C   0  0  0  0  0  0  0  0  0  0  0  0
  -22.4905  -23.9121   22.7807 C   0  0  1  0  0  0  0  0  0  0  0  0
  -22.3906  -21.0156   20.3373 C   0  0  2  0  0  0  0  0  0  0  0  0
  -30.5646  -23.8312   16.2008 C   0  0  0  0  0  0  0  0  0  0  0  0
  -22.1081  -23.7063   24.2736 C   0  0  0  0  0  0  0  0  0  0  0  0
  -25.1014  -15.9185   18.4379 N   0  0  0  0  0  0  0  0  0  0  0  0
  -27.9781  -22.4501   13.8716 N   0  0  0  0  0  0  0  0  0  0  0  0
  -25.2746  -17.2464   18.3244 N   0  0  0  0  0  0  0  0  0  0  0  0
  -22.7458  -26.1251   21.7031 N   0  0  0  0  0  0  0  0  0  0  0  0
  -25.8140  -18.6769   14.8250 N   0  0  0  0  0  0  0  0  0  0  0  0
  -25.9709  -19.1694   19.5193 N   0  0  0  0  0  0  0  0  0  0  0  0
  -26.4314  -15.8430   22.5390 N   0  0  0  0  0  0  0  0  0  0  0  0
  -27.3547  -20.4364   15.1303 N   0  0  0  0  0  0  0  0  0  0  0  0
  -21.8380  -29.6070   22.2939 N   0  0  0  0  0  0  0  0  0  0  0  0
  -22.1085  -22.8070   21.9082 N   0  0  0  0  0  0  0  0  0  0  0  0
  -23.1063  -20.8439   19.0415 N   0  3  0  0  0  0  0  0  0  0  0  0
  -26.6623  -18.1000   22.2053 O   0  0  0  0  0  0  0  0  0  0  0  0
  -32.1656  -25.3354   17.9484 O   0  0  0  0  0  0  0  0  0  0  0  0
  -22.9122  -27.9322   23.5038 O   0  0  0  0  0  0  0  0  0  0  0  0
  -20.6333  -25.2502   22.1590 O   0  0  0  0  0  0  0  0  0  0  0  0
  -24.2439  -22.3478   21.1296 O   0  0  0  0  0  0  0  0  0  0  0  0
  -26.0141  -20.3470   13.2391 O   0  0  0  0  0  0  0  0  0  0  0  0
  -28.9797  -21.9948   15.8476 O   0  0  0  0  0  0  0  0  0  0  0  0
  -31.3206  -27.1539   19.8777 O   0  0  0  0  0  0  0  0  0  0  0  0
  -25.3043  -10.4524   21.6982 O   0  0  0  0  0  0  0  0  0  0  0  0
  -28.5209  -27.5349   20.0557 O   0  0  0  0  0  0  0  0  0  1  0  0
  -20.8061   -7.4475   20.6306 F   0  0  0  0  0  0  0  0  0  0  0  0
  -23.7429   -9.4578   23.7513 F   0  0  0  0  0  0  0  0  0  0  0  0
  -31.4642  -24.5092   15.4298 F   0  0  0  0  0  0  0  0  0  0  0  0
  -31.3041  -22.9286   16.9093 F   0  0  0  0  0  0  0  0  0  0  0  0
  1  2  1  0  0  0  0
  1  5  2  0  0  0  0
  2  6  2  0  0  0  0
  3  8  2  0  0  0  0
  3 15  1  0  0  0  0
  4  9  1  0  0  0  0
  4 15  2  0  0  0  0
  5 17  1  0  0  0  0
  6 19  1  0  0  0  0
  7 10  2  0  0  0  0
  7 18  1  0  0  0  0
  8 21  1  0  0  0  0
  9 21  2  0  0  0  0
 10 22  1  0  0  0  0
 11 12  2  0  0  0  0
 11 23  1  0  0  0  0
 12 24  1  0  0  0  0
 13 20  1  0  0  0  0
 13 22  2  0  0  0  0
 14 24  2  0  0  0  0
 14 25  1  0  0  0  0
 15 26  1  0  0  0  0
 16 26  1  0  0  0  0
 16 29  2  0  0  0  0
 16 32  1  0  0  0  0
 17 19  2  0  0  0  0
 17 39  1  0  0  0  0
 18 20  2  0  0  0  0
 18 40  1  0  0  0  0
 19 48  1  0  0  0  0
 20 41  1  0  0  0  0
 21 81  1  0  0  0  0
 22 82  1  0  0  0  0
 23 25  2  0  0  0  0
 23 81  1  0  0  0  0
 24 83  1  0  0  0  0
 25 84  1  0  0  0  0
 26 62  2  0  0  0  0
 27 28  2  0  0  0  0
 27 51  1  0  0  0  0
 27 63  1  0  0  0  0
 28 60  1  0  0  0  0
 28 79  1  0  0  0  0
 29 64  1  0  0  0  0
 29 67  1  0  0  0  0
 30 63  2  0  0  0  0
 30 69  1  0  0  0  0
 30 79  1  0  0  0  0
 31 33  2  0  0  0  0
 31 82  1  0  0  0  0
 32 68  1  0  0  0  0
 32 73  2  0  0  0  0
 33 34  1  0  0  0  0
 33 80  1  0  0  0  0
 34 57  1  0  0  0  0
 34 74  2  0  0  0  0
 35 49  1  0  0  0  0
 35 70  1  0  0  0  0
 35 75  2  0  0  0  0
 36 58  1  0  0  0  0
 36 65  1  0  0  0  0
 36 76  2  0  0  0  0
 37 59  1  0  0  0  0
 37 71  1  0  0  0  0
 37 77  2  0  0  0  0
 38 66  1  0  0  0  0
 38 69  1  0  0  0  0
 38 78  2  0  0  0  0
 39 42  1  0  0  0  0
 40 49  1  0  0  0  0
 41 65  1  0  0  0  0
 42 44  1  0  0  0  0
 43 45  1  0  0  0  0
 43 46  1  0  0  0  0
 44 48  1  0  0  0  0
 45 50  1  0  0  0  0
 46 66  1  0  0  0  0
 47 50  1  0  0  0  0
 47 66  1  0  0  0  0
 48 70  1  0  0  0  0
 49 65  1  0  0  0  0
 50 64  1  0  0  0  0
 52 59  1  0  0  0  0
 53 61  1  0  0  0  0
 54 61  1  0  0  0  0
 55 61  1  0  0  0  0
 56 72  1  0  0  0  0
 57 60  1  0  0  0  0
 58 61  1  0  0  0  0
 58 71  1  0  0  0  0
 59 72  1  0  0  0  0
 60 85  1  0  0  0  0
 60 86  1  0  0  0  0
 62 64  1  0  0  0  0
M  CHG  1  72   1
M  ISO  4  31 101  38 100  69 100  82 101
M  END
> <Batch ID>
0177

> <Smiles>
CNC(C)C(=O)NC(C(=O)N1Cc2cc([101O:1][101CH2:1]C(=O)C(=O)CC(F)(F)c3oc([100NH:0][100C:0](=O)N4CCCC(n5nc(-c6ccc(Oc7ccc(F)cc7F)cc6)c(C(N)=O)c5N)C4)nc3C)ccc2CC1C(=O)NC1CCCc2ccccc21)C(C)(C)C

> <Shape>
0.180

> <Color>
0.079

> <Negative vol penalty>
0.000

$$$$

  -OEChem-04052304413D

 85 93  0     1  0  0  0  0  0999 V2000
  -19.9744  -22.5647   20.1792 C   0  0  0  0  0  0  0  0  0  0  0  0
  -21.3623  -22.4689   20.1738 C   0  0  0  0  0  0  0  0  0  0  0  0
  -23.2092   -9.9775   22.5663 C   0  0  0  0  0  0  0  0  0  0  0  0
  -23.6742   -9.7422   20.2071 C   0  0  0  0  0  0  0  0  0  0  0  0
  -19.3482  -23.6347   19.5414 C   0  0  0  0  0  0  0  0  0  0  0  0
  -22.1247  -23.4427   19.5297 C   0  0  0  0  0  0  0  0  0  0  0  0
  -27.6211  -25.5382   21.2339 C   0  0  0  0  0  0  0  0  0  0  0  0
  -22.4332   -8.8191   22.5289 C   0  0  0  0  0  0  0  0  0  0  0  0
  -22.8982   -8.5837   20.1698 C   0  0  0  0  0  0  0  0  0  0  0  0
  -28.9141  -25.2308   20.8125 C   0  0  0  0  0  0  0  0  0  0  0  0
  -22.9460   -5.4771   22.5045 C   0  0  0  0  0  0  0  0  0  0  0  0
  -23.1247   -4.5439   23.5257 C   0  0  0  0  0  0  0  0  0  0  0  0
  -28.8646  -27.1147   19.3066 C   0  0  0  0  0  0  0  0  0  0  0  0
  -28.2618  -19.6052   18.0876 C   0  0  0  0  0  0  0  0  0  0  0  0
  -20.8049   -4.7881   24.1549 C   0  0  0  0  0  0  0  0  0  0  0  0
  -29.4089  -17.6677   18.0773 C   0  0  0  0  0  0  0  0  0  0  0  0
  -23.8297  -10.4391   21.4054 C   0  0  0  0  0  0  0  0  0  0  0  0
  -26.0111  -11.7272   21.7059 C   0  0  0  0  0  0  0  0  0  0  0  0
  -20.1037  -24.6272   18.8974 C   0  0  0  0  0  0  0  0  0  0  0  0
  -26.9349  -26.6315   20.6859 C   0  0  0  0  0  0  0  0  0  0  0  0
  -21.5080  -24.5263   18.8816 C   0  0  0  0  0  0  0  0  0  0  0  0
  -27.5640  -27.4353   19.7246 C   0  0  0  0  0  0  0  0  0  0  0  0
  -28.1752  -18.2158   18.3506 C   0  0  0  0  0  0  0  0  0  0  0  0
  -22.2777   -8.1222   21.3307 C   0  0  0  0  0  0  0  0  0  0  0  0
  -29.5349  -26.0174   19.8466 C   0  0  0  0  0  0  0  0  0  0  0  0
  -21.6967   -6.0659   22.3086 C   0  0  0  0  0  0  0  0  0  0  0  0
  -22.0542   -4.1994   24.3508 C   0  0  0  0  0  0  0  0  0  0  0  0
  -20.6262   -5.7214   23.1338 C   0  0  0  0  0  0  0  0  0  0  0  0
  -24.6310  -11.6360   21.4432 C   0  0  0  0  0  0  0  0  0  0  0  0
  -29.5459  -19.8638   17.6613 C   0  0  0  0  0  0  0  0  0  0  0  0
  -26.2879  -13.0701   21.6257 C   0  0  0  0  0  0  0  0  0  0  0  0
  -26.9581  -10.6906   21.9965 C   0  0  0  0  0  0  0  0  0  0  0  0
  -30.4703  -23.4062   16.7811 C   0  0  0  0  0  0  0  0  0  0  0  0
  -29.5331  -22.3275   17.2443 C   0  0  0  0  0  0  0  0  0  0  0  0
  -24.2611  -26.9876   19.0045 C   0  0  0  0  0  0  0  0  0  0  0  0
  -24.8811  -30.1443   19.4210 C   0  0  0  0  0  0  0  0  0  0  0  0
  -27.1830  -32.5889   20.0311 C   0  0  0  0  0  0  0  0  0  0  0  0
  -25.7790  -18.0059   19.0995 C   0  0  0  0  0  0  0  0  0  0  0  0
  -19.3802  -25.7399   18.1811 C   0  0  0  0  0  0  0  0  0  0  0  0
  -25.5508  -26.9656   21.1706 C   0  0  0  0  0  0  0  0  0  0  0  0
  -26.8781  -28.6321   19.1198 C   0  0  0  0  0  0  0  0  0  0  0  0
  -20.2750  -26.9295   17.8427 C   0  0  0  0  0  0  0  0  0  0  0  0
  -23.1874  -17.0618   21.3510 C   0  0  0  0  0  0  0  0  0  0  0  0
  -21.5879  -26.4526   17.2297 C   0  0  0  0  0  0  0  0  0  0  0  0
  -23.4455  -15.5735   21.5973 C   0  0  0  0  0  0  0  0  0  0  0  0
  -23.4938  -17.4593   19.9081 C   0  0  0  0  0  0  0  0  0  0  0  0
  -25.0894  -15.5964   19.6779 C   0  0  0  0  0  0  0  0  0  0  0  0
  -22.3704  -25.5759   18.2149 C   0  0  1  0  0  0  0  0  0  0  0  0
  -24.7522  -27.7969   20.1713 C   0  0  1  0  0  0  0  0  0  0  0  0
  -24.8568  -15.1621   21.1343 C   0  0  2  0  0  0  0  0  0  0  0  0
  -27.3959  -35.0772   20.2760 C   0  0  0  0  0  0  0  0  0  0  0  0
  -24.6635  -30.4584   16.3938 C   0  0  0  0  0  0  0  0  0  0  0  0
  -25.7968  -32.6801   16.6129 C   0  0  0  0  0  0  0  0  0  0  0  0
  -23.5915  -32.2930   17.7127 C   0  0  0  0  0  0  0  0  0  0  0  0
  -31.6183  -18.4992   17.2774 C   0  0  0  0  0  0  0  0  0  0  0  0
  -28.1549  -32.3481   22.8161 C   0  0  0  0  0  0  0  0  0  0  0  0
  -31.7082  -23.6331   17.6187 C   0  0  0  0  0  0  0  0  0  0  0  0
  -32.1894  -25.0804   17.5863 C   0  0  0  0  0  0  0  0  0  0  0  0
  -31.1381  -26.0621   18.0906 C   0  0  0  0  0  0  0  0  0  1  0  0
  -25.6598  -31.1903   18.6605 C   0  0  1  0  0  0  0  0  0  0  0  0
  -27.1784  -33.7576   20.9998 C   0  0  2  0  0  0  0  0  0  0  0  0
  -24.9404  -31.6318   17.3548 C   0  0  0  0  0  0  0  0  0  0  0  0
  -24.0702  -12.8263   21.2134 N   0  0  0  0  0  0  0  0  0  0  0  0
  -30.2341  -18.6787   17.6587 N   0  0  0  0  0  0  0  0  0  0  0  0
  -25.1029  -13.6780   21.3316 N   0  0  0  0  0  0  0  0  0  0  0  0
  -25.5231  -28.9141   19.6218 N   0  0  0  0  0  0  0  0  0  0  0  0
  -24.8486  -17.0415   19.5410 N   0  0  0  0  0  0  0  0  0  0  0  0
  -27.4269  -13.7784   21.7788 N   0  0  0  0  0  0  0  0  0  0  0  0
  -26.5052   -9.3650   22.0402 N   0  0  0  0  0  0  0  0  0  0  0  0
  -27.0443  -17.4962   18.8100 N   0  0  0  0  0  0  0  0  0  0  0  0
  -30.1378  -21.0892   17.2758 N   0  0  0  0  0  0  0  0  0  0  0  0
  -23.0289  -26.3965   19.2086 N   0  0  0  0  0  0  0  0  0  0  0  0
  -25.9105  -32.2768   19.6013 N   0  0  0  0  0  0  0  0  0  0  0  0
  -28.2584  -33.5941   22.0137 N   0  3  0  0  0  0  0  0  0  0  0  0
  -28.1668  -10.9344   22.2271 O   0  0  0  0  0  0  0  0  0  0  0  0
  -30.1722  -24.0065   15.7594 O   0  0  0  0  0  0  0  0  0  0  0  0
  -28.3901  -22.6701   17.4980 O   0  0  0  0  0  0  0  0  0  0  0  0
  -24.9484  -26.9068   17.9932 O   0  0  0  0  0  0  0  0  0  0  0  0
  -23.7478  -30.4114   19.8284 O   0  0  0  0  0  0  0  0  0  0  0  0
  -28.2127  -32.0129   19.6869 O   0  0  0  0  0  0  0  0  0  0  0  0
  -25.4836  -19.2005   19.0125 O   0  0  0  0  0  0  0  0  0  0  0  0
  -21.5207   -6.9916   21.2939 O   0  0  0  0  0  0  0  0  0  0  0  0
  -30.7967  -25.7193   19.4330 O   0  0  0  0  0  0  0  0  0  1  0  0
  -22.2256   -3.3020   25.3304 F   0  0  0  0  0  0  0  0  0  0  0  0
  -19.4234   -6.2828   22.9496 F   0  0  0  0  0  0  0  0  0  0  0  0
  1  2  1  0  0  0  0
  1  5  2  0  0  0  0
  2  6  2  0  0  0  0
  3  8  2  0  0  0  0
  3 17  1  0  0  0  0
  4  9  1  0  0  0  0
  4 17  2  0  0  0  0
  5 19  1  0  0  0  0
  6 21  1  0  0  0  0
  7 10  2  0  0  0  0
  7 20  1  0  0  0  0
  8 24  1  0  0  0  0
  9 24  2  0  0  0  0
 10 25  1  0  0  0  0
 11 12  2  0  0  0  0
 11 26  1  0  0  0  0
 12 27  1  0  0  0  0
 13 22  1  0  0  0  0
 13 25  2  0  0  0  0
 14 23  1  0  0  0  0
 14 30  2  0  0  0  0
 15 27  2  0  0  0  0
 15 28  1  0  0  0  0
 16 23  2  0  0  0  0
 16 64  1  0  0  0  0
 17 29  1  0  0  0  0
 18 29  1  0  0  0  0
 18 31  2  0  0  0  0
 18 32  1  0  0  0  0
 19 21  2  0  0  0  0
 19 39  1  0  0  0  0
 20 22  2  0  0  0  0
 20 40  1  0  0  0  0
 21 48  1  0  0  0  0
 22 41  1  0  0  0  0
 23 70  1  0  0  0  0
 24 82  1  0  0  0  0
 25 83  1  0  0  0  0
 26 28  2  0  0  0  0
 26 82  1  0  0  0  0
 27 84  1  0  0  0  0
 28 85  1  0  0  0  0
 29 63  2  0  0  0  0
 30 64  1  0  0  0  0
 30 71  1  0  0  0  0
 31 65  1  0  0  0  0
 31 68  1  0  0  0  0
 32 69  1  0  0  0  0
 32 75  2  0  0  0  0
 33 34  1  0  0  0  0
 33 57  1  0  0  0  0
 33 76  2  0  0  0  0
 34 71  1  0  0  0  0
 34 77  2  0  0  0  0
 35 49  1  0  0  0  0
 35 72  1  0  0  0  0
 35 78  2  0  0  0  0
 36 60  1  0  0  0  0
 36 66  1  0  0  0  0
 36 79  2  0  0  0  0
 37 61  1  0  0  0  0
 37 73  1  0  0  0  0
 37 80  2  0  0  0  0
 38 67  1  0  0  0  0
 38 70  1  0  0  0  0
 38 81  2  0  0  0  0
 39 42  1  0  0  0  0
 40 49  1  0  0  0  0
 41 66  1  0  0  0  0
 42 44  1  0  0  0  0
 43 45  1  0  0  0  0
 43 46  1  0  0  0  0
 44 48  1  0  0  0  0
 45 50  1  0  0  0  0
 46 67  1  0  0  0  0
 47 50  1  0  0  0  0
 47 67  1  0  0  0  0
 48 72  1  0  0  0  0
 49 66  1  0  0  0  0
 50 65  1  0  0  0  0
 51 61  1  0  0  0  0
 52 62  1  0  0  0  0
 53 62  1  0  0  0  0
 54 62  1  0  0  0  0
 55 64  1  0  0  0  0
 56 74  1  0  0  0  0
 57 58  1  0  0  0  0
 58 59  1  0  0  0  0
 59 83  1  0  0  0  0
 60 62  1  0  0  0  0
 60 73  1  0  0  0  0
 61 74  1  0  0  0  0
 63 65  1  0  0  0  0
M  CHG  1  74   1
M  ISO  4  38 100  59 101  70 100  83 101
M  END
> <Batch ID>
0177

> <Smiles>
CNC(C)C(=O)NC(C(=O)N1Cc2cc([101O:1][101CH2:1]CCC(=O)C(=O)Nc3cc([100NH:0][100C:0](=O)N4CCCC(n5nc(-c6ccc(Oc7ccc(F)cc7F)cc6)c(C(N)=O)c5N)C4)cn3C)ccc2CC1C(=O)NC1CCCc2ccccc21)C(C)(C)C

> <Shape>
0.210

> <Color>
0.096

> <Negative vol penalty>
0.000

$$$$

  -OEChem-04052304413D

 88 96  0     1  0  0  0  0  0999 V2000
  -27.1525  -34.7992   26.9157 C   0  0  0  0  0  0  0  0  0  0  0  0
  -27.7282  -33.9030   26.0209 C   0  0  0  0  0  0  0  0  0  0  0  0
  -24.6406   -9.0683   21.7084 C   0  0  0  0  0  0  0  0  0  0  0  0
  -23.5729  -10.8066   23.0026 C   0  0  0  0  0  0  0  0  0  0  0  0
  -25.8718  -34.5607   27.4127 C   0  0  0  0  0  0  0  0  0  0  0  0
  -27.0240  -32.7670   25.6234 C   0  0  0  0  0  0  0  0  0  0  0  0
  -27.1757  -30.0789   20.1227 C   0  0  0  0  0  0  0  0  0  0  0  0
  -24.1150   -8.1046   22.5690 C   0  0  0  0  0  0  0  0  0  0  0  0
  -23.0472   -9.8430   23.8633 C   0  0  0  0  0  0  0  0  0  0  0  0
  -27.8728  -28.9731   19.6381 C   0  0  0  0  0  0  0  0  0  0  0  0
  -21.1531   -6.5473   23.0535 C   0  0  0  0  0  0  0  0  0  0  0  0
  -20.5820   -5.4102   22.4822 C   0  0  0  0  0  0  0  0  0  0  0  0
  -25.9488  -27.5814   20.0634 C   0  0  0  0  0  0  0  0  0  0  0  0
  -22.1837   -4.0227   23.6424 C   0  0  0  0  0  0  0  0  0  0  0  0
  -24.3696  -10.4193   21.9252 C   0  0  0  0  0  0  0  0  0  0  0  0
  -26.2150  -20.9402   19.0052 C   0  0  0  0  0  0  0  0  0  0  0  0
  -24.3199  -11.9235   19.8655 C   0  0  0  0  0  0  0  0  0  0  0  0
  -25.1477  -33.4263   27.0135 C   0  0  0  0  0  0  0  0  0  0  0  0
  -25.8615  -29.9420   20.5923 C   0  0  0  0  0  0  0  0  0  0  0  0
  -25.7330  -32.5124   26.1165 C   0  0  0  0  0  0  0  0  0  0  0  0
  -25.2364  -28.6876   20.5511 C   0  0  0  0  0  0  0  0  0  0  0  0
  -26.1534  -19.5185   18.9324 C   0  0  0  0  0  0  0  0  0  0  0  0
  -23.3183   -8.4919   23.6465 C   0  0  0  0  0  0  0  0  0  0  0  0
  -27.2604  -27.7235   19.6110 C   0  0  0  0  0  0  0  0  0  0  0  0
  -22.2396   -6.4221   23.9193 C   0  0  0  0  0  0  0  0  0  0  0  0
  -21.0973   -4.1479   22.7766 C   0  0  0  0  0  0  0  0  0  0  0  0
  -22.7549   -5.1598   24.2138 C   0  0  0  0  0  0  0  0  0  0  0  0
  -24.9127  -11.4152   21.0369 C   0  0  0  0  0  0  0  0  0  0  0  0
  -25.2284  -12.8371   19.3895 C   0  0  0  0  0  0  0  0  0  0  0  0
  -27.3742  -21.3777   19.6070 C   0  0  0  0  0  0  0  0  0  0  0  0
  -27.2682  -18.9236   19.4812 C   0  0  0  0  0  0  0  0  0  0  0  0
  -25.2053  -21.8475   18.5191 C   0  0  0  0  0  0  0  0  0  0  0  0
  -23.0607  -11.5990   19.2617 C   0  0  0  0  0  0  0  0  0  0  0  0
  -29.2086  -24.5021   20.6226 C   0  0  0  0  0  0  0  0  0  0  0  0
  -29.0404  -23.0158   20.4920 C   0  0  0  0  0  0  0  0  0  0  0  0
  -24.4206  -30.3922   23.3896 C   0  0  0  0  0  0  0  0  0  0  0  0
  -21.7422  -29.7690   21.6692 C   0  0  0  0  0  0  0  0  0  0  0  0
  -20.3366  -28.3063   18.9248 C   0  0  0  0  0  0  0  0  0  0  0  0
  -28.7851  -17.0443   20.1977 C   0  0  0  0  0  0  0  0  0  0  0  0
  -23.7853  -33.1863   27.6142 C   0  0  0  0  0  0  0  0  0  0  0  0
  -25.1139  -31.1498   21.0871 C   0  0  0  0  0  0  0  0  0  0  0  0
  -23.8202  -28.4914   21.0248 C   0  0  0  0  0  0  0  0  0  0  0  0
  -22.9577  -32.1534   26.8537 C   0  0  0  0  0  0  0  0  0  0  0  0
  -30.0121  -13.7511   20.7690 C   0  0  0  0  0  0  0  0  0  0  0  0
  -23.8001  -30.9213   26.5388 C   0  0  0  0  0  0  0  0  0  0  0  0
  -28.7460  -12.8916   20.7933 C   0  0  0  0  0  0  0  0  0  0  0  0
  -29.7819  -15.1182   21.4108 C   0  0  0  0  0  0  0  0  0  0  0  0
  -27.3742  -15.0115   20.8997 C   0  0  0  0  0  0  0  0  0  0  0  0
  -24.9909  -31.2817   25.6423 C   0  0  1  0  0  0  0  0  0  0  0  0
  -23.9583  -30.7970   22.0185 C   0  0  1  0  0  0  0  0  0  0  0  0
  -27.5392  -13.6494   20.2061 C   0  0  2  0  0  0  0  0  0  0  0  0
  -25.0213  -18.7652   18.3365 C   0  0  0  0  0  0  0  0  0  0  0  0
  -23.1021  -23.1828   19.1291 C   0  0  0  0  0  0  0  0  0  0  0  0
  -18.1200  -27.9339   17.8090 C   0  0  0  0  0  0  0  0  0  0  0  0
  -21.0659  -27.6262   23.7333 C   0  0  0  0  0  0  0  0  0  0  0  0
  -19.4178  -26.6768   22.1051 C   0  0  0  0  0  0  0  0  0  0  0  0
  -19.1159  -28.9956   22.9739 C   0  0  0  0  0  0  0  0  0  0  0  0
  -21.1848  -29.7647   16.4932 C   0  0  0  0  0  0  0  0  0  0  0  0
  -24.5260  -22.8108   19.5122 C   0  0  0  0  0  0  0  0  0  0  0  0
  -29.8489  -25.2111   19.4495 C   0  0  0  0  0  0  0  0  0  0  0  0
  -29.3564  -26.6429   19.3028 C   0  0  0  0  0  0  0  0  0  1  0  0
  -20.9646  -28.5245   21.3149 C   0  0  1  0  0  0  0  0  0  0  0  0
  -19.3456  -28.8296   17.9009 C   0  0  2  0  0  0  0  0  0  0  0  0
  -20.1684  -27.9588   22.5246 C   0  0  0  0  0  0  0  0  0  0  0  0
  -26.1055  -11.9605   21.2895 N   0  0  0  0  0  0  0  0  0  0  0  0
  -26.2697  -12.8208   20.2702 N   0  0  0  0  0  0  0  0  0  0  0  0
  -23.1331  -29.7015   21.5055 N   0  0  0  0  0  0  0  0  0  0  0  0
  -28.6256  -15.7790   20.8014 N   0  0  0  0  0  0  0  0  0  0  0  0
  -25.2302  -13.6446   18.3077 N   0  0  0  0  0  0  0  0  0  0  0  0
  -22.2502  -10.6383   19.8819 N   0  0  0  0  0  0  0  0  0  0  0  0
  -27.8492  -22.6806   19.8854 N   0  0  0  0  0  0  0  0  0  0  0  0
  -27.6236  -17.5593   19.6229 N   0  0  0  0  0  0  0  0  0  0  0  0
  -24.5592  -31.4475   24.2710 N   0  0  0  0  0  0  0  0  0  0  0  0
  -20.1368  -28.8738   20.1655 N   0  0  0  0  0  0  0  0  0  0  0  0
  -19.9798  -28.8980   16.5540 N   0  3  0  0  0  0  0  0  0  0  0  0
  -24.8435  -21.8985   17.3242 O   0  0  0  0  0  0  0  0  0  0  0  0
  -22.6732  -12.1327   18.1947 O   0  0  0  0  0  0  0  0  0  0  0  0
  -28.8083  -25.0220   21.6531 O   0  0  0  0  0  0  0  0  0  0  0  0
  -29.9582  -22.3242   20.9009 O   0  0  0  0  0  0  0  0  0  0  0  0
  -24.6344  -29.2099   23.6306 O   0  0  0  0  0  0  0  0  0  0  0  0
  -21.1372  -30.7667   22.0694 O   0  0  0  0  0  0  0  0  0  0  0  0
  -21.1992  -27.4743   18.6523 O   0  0  0  0  0  0  0  0  0  0  0  0
  -29.8781  -17.6157   20.1671 O   0  0  0  0  0  0  0  0  0  0  0  0
  -22.8050   -7.5519   24.4863 O   0  0  0  0  0  0  0  0  0  0  0  0
  -27.9388  -26.6424   19.1391 O   0  0  0  0  0  0  0  0  0  1  0  0
  -20.5477   -3.0560   22.2291 F   0  0  0  0  0  0  0  0  0  0  0  0
  -23.7978   -5.0331   25.0457 F   0  0  0  0  0  0  0  0  0  0  0  0
  -28.3824  -20.0773   20.0812 S   0  0  0  0  0  0  0  0  0  0  0  0
  1  2  1  0  0  0  0
  1  5  2  0  0  0  0
  2  6  2  0  0  0  0
  3  8  2  0  0  0  0
  3 15  1  0  0  0  0
  4  9  1  0  0  0  0
  4 15  2  0  0  0  0
  5 18  1  0  0  0  0
  6 20  1  0  0  0  0
  7 10  2  0  0  0  0
  7 19  1  0  0  0  0
  8 23  1  0  0  0  0
  9 23  2  0  0  0  0
 10 24  1  0  0  0  0
 11 12  2  0  0  0  0
 11 25  1  0  0  0  0
 12 26  1  0  0  0  0
 13 21  1  0  0  0  0
 13 24  2  0  0  0  0
 14 26  2  0  0  0  0
 14 27  1  0  0  0  0
 15 28  1  0  0  0  0
 16 22  1  0  0  0  0
 16 30  2  0  0  0  0
 16 32  1  0  0  0  0
 17 28  1  0  0  0  0
 17 29  2  0  0  0  0
 17 33  1  0  0  0  0
 18 20  2  0  0  0  0
 18 40  1  0  0  0  0
 19 21  2  0  0  0  0
 19 41  1  0  0  0  0
 20 49  1  0  0  0  0
 21 42  1  0  0  0  0
 22 31  2  0  0  0  0
 22 52  1  0  0  0  0
 23 84  1  0  0  0  0
 24 85  1  0  0  0  0
 25 27  2  0  0  0  0
 25 84  1  0  0  0  0
 26 86  1  0  0  0  0
 27 87  1  0  0  0  0
 28 65  2  0  0  0  0
 29 66  1  0  0  0  0
 29 69  1  0  0  0  0
 30 71  1  0  0  0  0
 30 88  1  0  0  0  0
 31 72  1  0  0  0  0
 31 88  1  0  0  0  0
 32 59  1  0  0  0  0
 32 76  2  0  0  0  0
 33 70  1  0  0  0  0
 33 77  2  0  0  0  0
 34 35  1  0  0  0  0
 34 60  1  0  0  0  0
 34 78  2  0  0  0  0
 35 71  1  0  0  0  0
 35 79  2  0  0  0  0
 36 50  1  0  0  0  0
 36 73  1  0  0  0  0
 36 80  2  0  0  0  0
 37 62  1  0  0  0  0
 37 67  1  0  0  0  0
 37 81  2  0  0  0  0
 38 63  1  0  0  0  0
 38 74  1  0  0  0  0
 38 82  2  0  0  0  0
 39 68  1  0  0  0  0
 39 72  1  0  0  0  0
 39 83  2  0  0  0  0
 40 43  1  0  0  0  0
 41 50  1  0  0  0  0
 42 67  1  0  0  0  0
 43 45  1  0  0  0  0
 44 46  1  0  0  0  0
 44 47  1  0  0  0  0
 45 49  1  0  0  0  0
 46 51  1  0  0  0  0
 47 68  1  0  0  0  0
 48 51  1  0  0  0  0
 48 68  1  0  0  0  0
 49 73  1  0  0  0  0
 50 67  1  0  0  0  0
 51 66  1  0  0  0  0
 53 59  1  0  0  0  0
 54 63  1  0  0  0  0
 55 64  1  0  0  0  0
 56 64  1  0  0  0  0
 57 64  1  0  0  0  0
 58 75  1  0  0  0  0
 60 61  1  0  0  0  0
 61 85  1  0  0  0  0
 62 64  1  0  0  0  0
 62 74  1  0  0  0  0
 63 75  1  0  0  0  0
 65 66  1  0  0  0  0
M  CHG  1  75   1
M  ISO  4  39 100  61 101  72 100  85 101
M  END
> <Batch ID>
0177

> <Smiles>
CCC(=O)c1c(NC(=O)C(=O)C[101CH2:1][101O:1]c2ccc3c(c2)CN(C(=O)C(NC(=O)C(C)NC)C(C)(C)C)C(C(=O)NC2CCCc4ccccc42)C3)sc([100NH:0][100C:0](=O)N2CCCC(n3nc(-c4ccc(Oc5ccc(F)cc5F)cc4)c(C(N)=O)c3N)C2)c1C

> <Shape>
0.335

> <Color>
0.092

> <Negative vol penalty>
0.000

$$$$

  -OEChem-04052304413D

 89 97  0     1  0  0  0  0  0999 V2000
  -25.3070  -38.0929   21.2411 C   0  0  0  0  0  0  0  0  0  0  0  0
  -25.9766  -37.1406   20.4795 C   0  0  0  0  0  0  0  0  0  0  0  0
  -24.8267   -9.1151   21.6202 C   0  0  0  0  0  0  0  0  0  0  0  0
  -23.2284  -10.6280   20.6233 C   0  0  0  0  0  0  0  0  0  0  0  0
  -24.8031  -37.7520   22.4956 C   0  0  0  0  0  0  0  0  0  0  0  0
  -26.1438  -35.8470   20.9725 C   0  0  0  0  0  0  0  0  0  0  0  0
  -26.5306  -29.0407   18.7722 C   0  0  0  0  0  0  0  0  0  0  0  0
  -23.8242   -8.5958   22.4393 C   0  0  0  0  0  0  0  0  0  0  0  0
  -22.2259  -10.1087   21.4424 C   0  0  0  0  0  0  0  0  0  0  0  0
  -27.3495  -27.9178   18.8830 C   0  0  0  0  0  0  0  0  0  0  0  0
  -21.2575   -6.4130   22.1559 C   0  0  0  0  0  0  0  0  0  0  0  0
  -21.1810   -5.0265   22.2871 C   0  0  0  0  0  0  0  0  0  0  0  0
  -26.3676  -27.4209   21.0297 C   0  0  0  0  0  0  0  0  0  0  0  0
  -21.5302   -5.2326   24.6688 C   0  0  0  0  0  0  0  0  0  0  0  0
  -24.5288  -10.1313   20.7122 C   0  0  0  0  0  0  0  0  0  0  0  0
  -25.9351  -10.2169   18.5856 C   0  0  0  0  0  0  0  0  0  0  0  0
  -24.9558  -36.4509   23.0001 C   0  0  0  0  0  0  0  0  0  0  0  0
  -25.6302  -29.3688   19.7960 C   0  0  0  0  0  0  0  0  0  0  0  0
  -25.6427  -35.4887   22.2355 C   0  0  0  0  0  0  0  0  0  0  0  0
  -25.5365  -28.5470   20.9283 C   0  0  0  0  0  0  0  0  0  0  0  0
  -22.5238   -9.0925   22.3504 C   0  0  0  0  0  0  0  0  0  0  0  0
  -27.2702  -27.1094   20.0131 C   0  0  0  0  0  0  0  0  0  0  0  0
  -21.4704   -7.2094   23.2811 C   0  0  0  0  0  0  0  0  0  0  0  0
  -21.3173   -4.4363   23.5435 C   0  0  0  0  0  0  0  0  0  0  0  0
  -21.6067   -6.6192   24.5376 C   0  0  0  0  0  0  0  0  0  0  0  0
  -25.5641  -10.6685   19.8663 C   0  0  0  0  0  0  0  0  0  0  0  0
  -26.6453  -20.1711   17.8655 C   0  0  0  0  0  0  0  0  0  0  0  0
  -26.9587  -11.0522   18.2101 C   0  0  0  0  0  0  0  0  0  0  0  0
  -25.3862  -19.7424   17.5009 C   0  0  0  0  0  0  0  0  0  0  0  0
  -26.7758  -18.1067   18.5945 C   0  0  0  0  0  0  0  0  0  0  0  0
  -25.4020   -9.1387   17.8051 C   0  0  0  0  0  0  0  0  0  0  0  0
  -27.1684  -21.5409   17.6269 C   0  0  0  0  0  0  0  0  0  0  0  0
  -25.2687  -31.8439   21.7573 C   0  0  0  0  0  0  0  0  0  0  0  0
  -28.6698  -23.8798   19.1453 C   0  0  0  0  0  0  0  0  0  0  0  0
  -22.5690  -30.2666   22.6210 C   0  0  0  0  0  0  0  0  0  0  0  0
  -20.8843  -27.3059   22.8295 C   0  0  0  0  0  0  0  0  0  0  0  0
  -28.4529  -16.6277   19.7547 C   0  0  0  0  0  0  0  0  0  0  0  0
  -24.4354  -36.1423   24.3817 C   0  0  0  0  0  0  0  0  0  0  0  0
  -24.7348  -30.5684   19.6492 C   0  0  0  0  0  0  0  0  0  0  0  0
  -24.5720  -28.8443   22.0463 C   0  0  0  0  0  0  0  0  0  0  0  0
  -24.3269  -34.6475   24.6719 C   0  0  0  0  0  0  0  0  0  0  0  0
  -30.4838  -13.7185   20.0535 C   0  0  0  0  0  0  0  0  0  0  0  0
  -25.5977  -33.9254   24.2355 C   0  0  0  0  0  0  0  0  0  0  0  0
  -29.4873  -12.5651   19.9168 C   0  0  0  0  0  0  0  0  0  0  0  0
  -29.8851  -14.8977   20.8182 C   0  0  0  0  0  0  0  0  0  0  0  0
  -27.6052  -14.2338   20.1621 C   0  0  0  0  0  0  0  0  0  0  0  0
  -25.8224  -34.0681   22.7253 C   0  0  1  0  0  0  0  0  0  0  0  0
  -24.2192  -31.0961   20.9846 C   0  0  1  0  0  0  0  0  0  0  0  0
  -28.1411  -13.0485   19.3426 C   0  0  2  0  0  0  0  0  0  0  0  0
  -18.7118  -26.3268   23.6161 C   0  0  0  0  0  0  0  0  0  0  0  0
  -30.8542  -21.3383   15.9392 C   0  0  0  0  0  0  0  0  0  0  0  0
  -30.7559  -23.7964   15.5130 C   0  0  0  0  0  0  0  0  0  0  0  0
  -32.8047  -22.7972   16.5297 C   0  0  0  0  0  0  0  0  0  0  0  0
  -23.5329  -30.4550   25.5099 C   0  0  0  0  0  0  0  0  0  0  0  0
  -21.8669  -28.6843   26.1079 C   0  0  0  0  0  0  0  0  0  0  0  0
  -21.0869  -30.8717   25.1970 C   0  0  0  0  0  0  0  0  0  0  0  0
  -20.1804  -26.3841   20.1067 C   0  0  0  0  0  0  0  0  0  0  0  0
  -28.4507  -25.3625   18.9128 C   0  0  0  0  0  0  0  0  0  1  0  0
  -30.6309  -22.9790   17.8776 C   0  0  0  0  0  0  0  0  0  0  0  0
  -29.1004  -23.0679   17.9294 C   0  0  1  0  0  0  0  0  0  0  0  0
  -22.2256  -29.2224   23.6558 C   0  0  1  0  0  0  0  0  0  0  0  0
  -19.4681  -26.9232   22.4392 C   0  0  2  0  0  0  0  0  0  0  0  0
  -31.2713  -22.7152   16.4852 C   0  0  0  0  0  0  0  0  0  0  0  0
  -22.1977  -29.8036   25.0976 C   0  0  0  0  0  0  0  0  0  0  0  0
  -26.2928  -11.7098   20.2769 N   0  0  0  0  0  0  0  0  0  0  0  0
  -27.4434  -19.2347   18.4931 N   0  0  0  0  0  0  0  0  0  0  0  0
  -27.1321  -11.9193   19.2484 N   0  0  0  0  0  0  0  0  0  0  0  0
  -23.7223  -30.0319   21.8590 N   0  0  0  0  0  0  0  0  0  0  0  0
  -28.6138  -15.3037   20.2150 N   0  0  0  0  0  0  0  0  0  0  0  0
  -27.7185  -11.1220   17.0964 N   0  0  0  0  0  0  0  0  0  0  0  0
  -24.4072  -20.4443   16.8788 N   0  0  0  0  0  0  0  0  0  0  0  0
  -24.3517   -8.3813   18.3413 N   0  0  0  0  0  0  0  0  0  0  0  0
  -27.2139  -16.8885   19.1705 N   0  0  0  0  0  0  0  0  0  0  0  0
  -28.4635  -21.7850   18.0664 N   0  0  0  0  0  0  0  0  0  0  0  0
  -24.9539  -33.1677   21.9977 N   0  0  0  0  0  0  0  0  0  0  0  0
  -20.9658  -28.6232   23.2286 N   0  0  0  0  0  0  0  0  0  0  0  0
  -19.4876  -25.9209   21.3365 N   0  3  0  0  0  0  0  0  0  0  0  0
  -25.8550   -8.8450   16.6728 O   0  0  0  0  0  0  0  0  0  0  0  0
  -26.4450  -22.3739   17.0871 O   0  0  0  0  0  0  0  0  0  0  0  0
  -26.2879  -31.2624   22.1106 O   0  0  0  0  0  0  0  0  0  0  0  0
  -28.5403  -23.3730   20.2599 O   0  0  0  0  0  0  0  0  0  0  0  0
  -21.8369  -31.2505   22.4887 O   0  0  0  0  0  0  0  0  0  0  0  0
  -21.8236  -26.5144   22.7882 O   0  0  0  0  0  0  0  0  0  0  0  0
  -29.3582  -17.4609   19.8457 O   0  0  0  0  0  0  0  0  0  0  0  0
  -21.5453   -8.5859   23.1493 O   0  0  0  0  0  0  0  0  0  0  0  0
  -28.0688  -26.0131   20.1241 O   0  0  0  0  0  0  0  0  0  1  0  0
  -21.2423   -3.1048   23.6696 F   0  0  0  0  0  0  0  0  0  0  0  0
  -21.8102   -7.3791   25.6224 F   0  0  0  0  0  0  0  0  0  0  0  0
  -25.1831  -18.1013   17.9557 S   0  0  0  0  0  0  0  0  0  0  0  0
  1  2  1  0  0  0  0
  1  5  2  0  0  0  0
  2  6  2  0  0  0  0
  3  8  2  0  0  0  0
  3 15  1  0  0  0  0
  4  9  1  0  0  0  0
  4 15  2  0  0  0  0
  5 17  1  0  0  0  0
  6 19  1  0  0  0  0
  7 10  2  0  0  0  0
  7 18  1  0  0  0  0
  8 21  1  0  0  0  0
  9 21  2  0  0  0  0
 10 22  1  0  0  0  0
 11 12  2  0  0  0  0
 11 23  1  0  0  0  0
 12 24  1  0  0  0  0
 13 20  1  0  0  0  0
 13 22  2  0  0  0  0
 14 24  2  0  0  0  0
 14 25  1  0  0  0  0
 15 26  1  0  0  0  0
 16 26  1  0  0  0  0
 16 28  2  0  0  0  0
 16 31  1  0  0  0  0
 17 19  2  0  0  0  0
 17 38  1  0  0  0  0
 18 20  2  0  0  0  0
 18 39  1  0  0  0  0
 19 47  1  0  0  0  0
 20 40  1  0  0  0  0
 21 85  1  0  0  0  0
 22 86  1  0  0  0  0
 23 25  2  0  0  0  0
 23 85  1  0  0  0  0
 24 87  1  0  0  0  0
 25 88  1  0  0  0  0
 26 65  2  0  0  0  0
 27 29  2  0  0  0  0
 27 32  1  0  0  0  0
 27 66  1  0  0  0  0
 28 67  1  0  0  0  0
 28 70  1  0  0  0  0
 29 71  1  0  0  0  0
 29 89  1  0  0  0  0
 30 66  2  0  0  0  0
 30 73  1  0  0  0  0
 30 89  1  0  0  0  0
 31 72  1  0  0  0  0
 31 78  2  0  0  0  0
 32 74  1  0  0  0  0
 32 79  2  0  0  0  0
 33 48  1  0  0  0  0
 33 75  1  0  0  0  0
 33 80  2  0  0  0  0
 34 58  1  0  0  0  0
 34 60  1  0  0  0  0
 34 81  2  0  0  0  0
 35 61  1  0  0  0  0
 35 68  1  0  0  0  0
 35 82  2  0  0  0  0
 36 62  1  0  0  0  0
 36 76  1  0  0  0  0
 36 83  2  0  0  0  0
 37 69  1  0  0  0  0
 37 73  1  0  0  0  0
 37 84  2  0  0  0  0
 38 41  1  0  0  0  0
 39 48  1  0  0  0  0
 40 68  1  0  0  0  0
 41 43  1  0  0  0  0
 42 44  1  0  0  0  0
 42 45  1  0  0  0  0
 43 47  1  0  0  0  0
 44 49  1  0  0  0  0
 45 69  1  0  0  0  0
 46 49  1  0  0  0  0
 46 69  1  0  0  0  0
 47 75  1  0  0  0  0
 48 68  1  0  0  0  0
 49 67  1  0  0  0  0
 50 62  1  0  0  0  0
 51 63  1  0  0  0  0
 52 63  1  0  0  0  0
 53 63  1  0  0  0  0
 54 64  1  0  0  0  0
 55 64  1  0  0  0  0
 56 64  1  0  0  0  0
 57 77  1  0  0  0  0
 58 86  1  0  0  0  0
 59 60  1  0  0  0  0
 59 63  1  0  0  0  0
 60 74  1  0  0  0  0
 61 64  1  0  0  0  0
 61 76  1  0  0  0  0
 62 77  1  0  0  0  0
 65 67  1  0  0  0  0
M  CHG  1  77   1
M  ISO  4  37 100  58 101  73 100  86 101
M  END
> <Batch ID>
0177

> <Smiles>
CNC(C)C(=O)NC(C(=O)N1Cc2cc([101O:1][101CH2:1]C(=O)C(CC(C)(C)C)NC(=O)c3nc([100NH:0][100C:0](=O)N4CCCC(n5nc(-c6ccc(Oc7ccc(F)cc7F)cc6)c(C(N)=O)c5N)C4)sc3N)ccc2CC1C(=O)NC1CCCc2ccccc21)C(C)(C)C

> <Shape>
0.336

> <Color>
0.092

> <Negative vol penalty>
0.000

$$$$

  -OEChem-04052304413D

 86 94  0     1  0  0  0  0  0999 V2000
  -35.4931  -30.1725   16.8091 C   0  0  0  0  0  0  0  0  0  0  0  0
  -35.4421  -29.4720   18.0100 C   0  0  0  0  0  0  0  0  0  0  0  0
  -23.0095   -9.9174   19.9322 C   0  0  0  0  0  0  0  0  0  0  0  0
  -23.7648   -9.8627   22.2264 C   0  0  0  0  0  0  0  0  0  0  0  0
  -34.4131  -30.1240   15.9287 C   0  0  0  0  0  0  0  0  0  0  0  0
  -34.3105  -28.7234   18.3317 C   0  0  0  0  0  0  0  0  0  0  0  0
  -34.1488  -23.4365   21.4184 C   0  0  0  0  0  0  0  0  0  0  0  0
  -22.2497   -8.7691   20.1550 C   0  0  0  0  0  0  0  0  0  0  0  0
  -23.0050   -8.7144   22.4493 C   0  0  0  0  0  0  0  0  0  0  0  0
  -33.8794  -23.1376   22.7533 C   0  0  0  0  0  0  0  0  0  0  0  0
  -23.2522   -5.4021   21.8181 C   0  0  0  0  0  0  0  0  0  0  0  0
  -23.8523   -4.3528   22.5139 C   0  0  0  0  0  0  0  0  0  0  0  0
  -31.5856  -22.6619   22.1777 C   0  0  0  0  0  0  0  0  0  0  0  0
  -22.1500   -4.5111   24.2210 C   0  0  0  0  0  0  0  0  0  0  0  0
  -30.5599  -18.1889   24.2337 C   0  0  0  0  0  0  0  0  0  0  0  0
  -32.0703  -16.4928   22.7213 C   0  0  0  0  0  0  0  0  0  0  0  0
  -23.7672  -10.4642   20.9679 C   0  0  0  0  0  0  0  0  0  0  0  0
  -24.1432  -12.9865   20.9051 C   0  0  0  0  0  0  0  0  0  0  0  0
  -33.2716  -29.3667   16.2354 C   0  0  0  0  0  0  0  0  0  0  0  0
  -33.1342  -23.3608   20.4534 C   0  0  0  0  0  0  0  0  0  0  0  0
  -33.2136  -28.6659   17.4552 C   0  0  0  0  0  0  0  0  0  0  0  0
  -31.8453  -22.9579   20.8308 C   0  0  0  0  0  0  0  0  0  0  0  0
  -30.6959  -16.4810   22.5459 C   0  0  0  0  0  0  0  0  0  0  0  0
  -22.2473   -8.1676   21.4135 C   0  0  0  0  0  0  0  0  0  0  0  0
  -32.5970  -22.7530   23.1336 C   0  0  0  0  0  0  0  0  0  0  0  0
  -22.1009   -6.0061   22.3237 C   0  0  0  0  0  0  0  0  0  0  0  0
  -23.3013   -3.9072   23.7153 C   0  0  0  0  0  0  0  0  0  0  0  0
  -21.5499   -5.5605   23.5252 C   0  0  0  0  0  0  0  0  0  0  0  0
  -29.9335  -17.3482   23.3204 C   0  0  0  0  0  0  0  0  0  0  0  0
  -24.5527  -11.6500   20.7383 C   0  0  0  0  0  0  0  0  0  0  0  0
  -31.9403  -18.1242   24.3337 C   0  0  0  0  0  0  0  0  0  0  0  0
  -25.2461  -13.7291   20.5606 C   0  0  0  0  0  0  0  0  0  0  0  0
  -22.8790  -13.5100   21.3333 C   0  0  0  0  0  0  0  0  0  0  0  0
  -32.9412  -20.6585   26.9310 C   0  0  0  0  0  0  0  0  0  0  0  0
  -31.9517  -19.8907   26.1004 C   0  0  0  0  0  0  0  0  0  0  0  0
  -31.7395  -25.4418   18.4969 C   0  0  0  0  0  0  0  0  0  0  0  0
  -30.2728  -22.7862   17.3485 C   0  0  0  0  0  0  0  0  0  0  0  0
  -29.2428  -19.5791   17.8967 C   0  0  0  0  0  0  0  0  0  0  0  0
  -30.7256  -14.6965   20.7679 C   0  0  0  0  0  0  0  0  0  0  0  0
  -32.1098  -29.3828   15.2738 C   0  0  0  0  0  0  0  0  0  0  0  0
  -33.4474  -23.6606   19.0131 C   0  0  0  0  0  0  0  0  0  0  0  0
  -30.7259  -22.8414   19.8299 C   0  0  0  0  0  0  0  0  0  0  0  0
  -31.1003  -28.2644   15.5193 C   0  0  0  0  0  0  0  0  0  0  0  0
  -29.5834  -12.3516   18.3443 C   0  0  0  0  0  0  0  0  0  0  0  0
  -30.7662  -28.1633   17.0042 C   0  0  0  0  0  0  0  0  0  0  0  0
  -28.1391  -12.0700   18.7648 C   0  0  0  0  0  0  0  0  0  0  0  0
  -30.4991  -12.5411   19.5523 C   0  0  0  0  0  0  0  0  0  0  0  0
  -28.5994  -13.2601   20.9462 C   0  0  0  0  0  0  0  0  0  0  0  0
  -32.0137  -27.8227   17.8284 C   0  0  1  0  0  0  0  0  0  0  0  0
  -32.2148  -24.0473   18.2016 C   0  0  1  0  0  0  0  0  0  0  0  0
  -27.6267  -13.1265   19.7632 C   0  0  2  0  0  0  0  0  0  0  0  0
  -28.0377  -17.6798   16.7843 C   0  0  0  0  0  0  0  0  0  0  0  0
  -27.6131  -24.2106   17.8035 C   0  0  0  0  0  0  0  0  0  0  0  0
  -26.4693  -21.9934   17.5932 C   0  0  0  0  0  0  0  0  0  0  0  0
  -27.7532  -22.9204   15.6657 C   0  0  0  0  0  0  0  0  0  0  0  0
  -31.6071  -17.8099   18.0952 C   0  0  0  0  0  0  0  0  0  0  0  0
  -33.4134  -22.5702   25.3598 C   0  0  0  0  0  0  0  0  0  1  0  0
  -32.9778  -22.1664   26.7621 C   0  0  2  0  0  0  0  0  0  0  0  0
  -29.0034  -22.0386   17.6785 C   0  0  1  0  0  0  0  0  0  0  0  0
  -29.3893  -18.3179   17.0645 C   0  0  2  0  0  0  0  0  0  0  0  0
  -27.7302  -22.7947   17.2046 C   0  0  0  0  0  0  0  0  0  0  0  0
  -32.7144  -17.2949   23.5984 N   0  0  0  0  0  0  0  0  0  0  0  0
  -25.8170  -11.5465   20.3201 N   0  0  0  0  0  0  0  0  0  0  0  0
  -26.2115  -12.8274   20.2212 N   0  0  0  0  0  0  0  0  0  0  0  0
  -31.0804  -23.1512   18.4349 N   0  0  0  0  0  0  0  0  0  0  0  0
  -29.9524  -13.5594   20.4516 N   0  0  0  0  0  0  0  0  0  0  0  0
  -25.4746  -15.0589   20.5178 N   0  0  0  0  0  0  0  0  0  0  0  0
  -21.8542  -12.6072   21.6484 N   0  0  0  0  0  0  0  0  0  0  0  0
  -30.0891  -15.6117   21.6058 N   0  0  0  0  0  0  0  0  0  0  0  0
  -32.5675  -18.9821   25.2667 N   0  0  0  0  0  0  0  0  0  0  0  0
  -32.3277  -26.4148   17.7116 N   0  0  0  0  0  0  0  0  0  0  0  0
  -29.1544  -20.7053   17.1061 N   0  0  0  0  0  0  0  0  0  0  0  0
  -30.2400  -17.3231   17.7770 N   0  3  0  0  0  0  0  0  0  0  0  0
  -22.6593  -14.7421   21.4179 O   0  0  0  0  0  0  0  0  0  0  0  0
  -33.6410  -20.0120   27.6980 O   0  0  0  0  0  0  0  0  0  0  0  0
  -30.7754  -20.1789   26.2465 O   0  0  0  0  0  0  0  0  0  0  0  0
  -30.9001  -25.6215   19.3714 O   0  0  0  0  0  0  0  0  0  0  0  0
  -30.5415  -23.0307   16.1697 O   0  0  0  0  0  0  0  0  0  0  0  0
  -29.2065  -19.5661   19.1251 O   0  0  0  0  0  0  0  0  0  0  0  0
  -31.8578  -14.8604   20.3061 O   0  0  0  0  0  0  0  0  0  0  0  0
  -33.9349  -22.6729   27.6823 O   0  0  0  0  0  0  0  0  0  0  0  0
  -21.5058   -7.0473   21.6313 O   0  0  0  0  0  0  0  0  0  0  0  0
  -32.3313  -22.4613   24.4360 O   0  0  0  0  0  0  0  0  0  1  0  0
  -23.8768   -2.8985   24.3827 F   0  0  0  0  0  0  0  0  0  0  0  0
  -20.4433   -6.1360   24.0153 F   0  0  0  0  0  0  0  0  0  0  0  0
  -28.5994  -17.3815   23.1951 F   0  0  0  0  0  0  0  0  0  0  0  0
  1  2  1  0  0  0  0
  1  5  2  0  0  0  0
  2  6  2  0  0  0  0
  3  8  2  0  0  0  0
  3 17  1  0  0  0  0
  4  9  1  0  0  0  0
  4 17  2  0  0  0  0
  5 19  1  0  0  0  0
  6 21  1  0  0  0  0
  7 10  2  0  0  0  0
  7 20  1  0  0  0  0
  8 24  1  0  0  0  0
  9 24  2  0  0  0  0
 10 25  1  0  0  0  0
 11 12  2  0  0  0  0
 11 26  1  0  0  0  0
 12 27  1  0  0  0  0
 13 22  1  0  0  0  0
 13 25  2  0  0  0  0
 14 27  2  0  0  0  0
 14 28  1  0  0  0  0
 15 29  2  0  0  0  0
 15 31  1  0  0  0  0
 16 23  2  0  0  0  0
 16 62  1  0  0  0  0
 17 30  1  0  0  0  0
 18 30  1  0  0  0  0
 18 32  2  0  0  0  0
 18 33  1  0  0  0  0
 19 21  2  0  0  0  0
 19 40  1  0  0  0  0
 20 22  2  0  0  0  0
 20 41  1  0  0  0  0
 21 49  1  0  0  0  0
 22 42  1  0  0  0  0
 23 29  1  0  0  0  0
 23 69  1  0  0  0  0
 24 82  1  0  0  0  0
 25 83  1  0  0  0  0
 26 28  2  0  0  0  0
 26 82  1  0  0  0  0
 27 84  1  0  0  0  0
 28 85  1  0  0  0  0
 29 86  1  0  0  0  0
 30 63  2  0  0  0  0
 31 62  2  0  0  0  0
 31 70  1  0  0  0  0
 32 64  1  0  0  0  0
 32 67  1  0  0  0  0
 33 68  1  0  0  0  0
 33 74  2  0  0  0  0
 34 35  1  0  0  0  0
 34 58  1  0  0  0  0
 34 75  2  0  0  0  0
 35 70  1  0  0  0  0
 35 76  2  0  0  0  0
 36 50  1  0  0  0  0
 36 71  1  0  0  0  0
 36 77  2  0  0  0  0
 37 59  1  0  0  0  0
 37 65  1  0  0  0  0
 37 78  2  0  0  0  0
 38 60  1  0  0  0  0
 38 72  1  0  0  0  0
 38 79  2  0  0  0  0
 39 66  1  0  0  0  0
 39 69  1  0  0  0  0
 39 80  2  0  0  0  0
 40 43  1  0  0  0  0
 41 50  1  0  0  0  0
 42 65  1  0  0  0  0
 43 45  1  0  0  0  0
 44 46  1  0  0  0  0
 44 47  1  0  0  0  0
 45 49  1  0  0  0  0
 46 51  1  0  0  0  0
 47 66  1  0  0  0  0
 48 51  1  0  0  0  0
 48 66  1  0  0  0  0
 49 71  1  0  0  0  0
 50 65  1  0  0  0  0
 51 64  1  0  0  0  0
 52 60  1  0  0  0  0
 53 61  1  0  0  0  0
 54 61  1  0  0  0  0
 55 61  1  0  0  0  0
 56 73  1  0  0  0  0
 57 58  1  0  0  0  0
 57 83  1  0  0  0  0
 58 81  1  0  0  0  0
 59 61  1  0  0  0  0
 59 72  1  0  0  0  0
 60 73  1  0  0  0  0
 63 64  1  0  0  0  0
M  CHG  1  73   1
M  ISO  4  39 100  57 101  69 100  83 101
M  END
> <Batch ID>
0177

> <Smiles>
CNC(C)C(=O)NC(C(=O)N1Cc2cc([101O:1][101CH2:1]C(O)C(=O)C(=O)Nc3cc(F)c([100NH:0][100C:0](=O)N4CCCC(n5nc(-c6ccc(Oc7ccc(F)cc7F)cc6)c(C(N)=O)c5N)C4)cn3)ccc2CC1C(=O)NC1CCCc2ccccc21)C(C)(C)C

> <Shape>
0.231

> <Color>
0.206

> <Negative vol penalty>
0.000

$$$$

  -OEChem-04052304413D

 87 95  0     1  0  0  0  0  0999 V2000
  -26.9613  -33.6562   25.7362 C   0  0  0  0  0  0  0  0  0  0  0  0
  -27.3006  -32.4416   25.1489 C   0  0  0  0  0  0  0  0  0  0  0  0
  -24.5505   -9.5829   21.8119 C   0  0  0  0  0  0  0  0  0  0  0  0
  -22.8162  -10.4225   20.3544 C   0  0  0  0  0  0  0  0  0  0  0  0
  -25.6303  -33.9312   26.0473 C   0  0  0  0  0  0  0  0  0  0  0  0
  -26.3090  -31.5007   24.8733 C   0  0  0  0  0  0  0  0  0  0  0  0
  -26.7981  -29.4558   20.2663 C   0  0  0  0  0  0  0  0  0  0  0  0
  -23.5971   -8.8626   22.5315 C   0  0  0  0  0  0  0  0  0  0  0  0
  -21.8627   -9.7022   21.0739 C   0  0  0  0  0  0  0  0  0  0  0  0
  -27.7693  -28.4681   20.1079 C   0  0  0  0  0  0  0  0  0  0  0  0
  -21.8694   -5.9771   22.1824 C   0  0  0  0  0  0  0  0  0  0  0  0
  -22.1679   -4.6547   22.5106 C   0  0  0  0  0  0  0  0  0  0  0  0
  -26.0625  -26.7716   20.2747 C   0  0  0  0  0  0  0  0  0  0  0  0
  -32.6912  -20.7106   22.5874 C   0  0  0  0  0  0  0  0  0  0  0  0
  -21.9666   -5.1918   24.8575 C   0  0  0  0  0  0  0  0  0  0  0  0
  -24.1600  -10.3630   20.7234 C   0  0  0  0  0  0  0  0  0  0  0  0
  -25.8739  -10.6691   18.8589 C   0  0  0  0  0  0  0  0  0  0  0  0
  -24.6207  -32.9971   25.7665 C   0  0  0  0  0  0  0  0  0  0  0  0
  -25.4510  -29.1078   20.4413 C   0  0  0  0  0  0  0  0  0  0  0  0
  -24.9635  -31.7628   25.1821 C   0  0  0  0  0  0  0  0  0  0  0  0
  -25.0758  -27.7568   20.4326 C   0  0  0  0  0  0  0  0  0  0  0  0
  -32.5503  -19.3023   22.5756 C   0  0  0  0  0  0  0  0  0  0  0  0
  -22.2532   -8.9222   22.1625 C   0  0  0  0  0  0  0  0  0  0  0  0
  -27.4020  -27.1257   20.1150 C   0  0  0  0  0  0  0  0  0  0  0  0
  -21.6196   -6.9069   23.1917 C   0  0  0  0  0  0  0  0  0  0  0  0
  -22.2164   -4.2620   23.8481 C   0  0  0  0  0  0  0  0  0  0  0  0
  -21.6681   -6.5142   24.5293 C   0  0  0  0  0  0  0  0  0  0  0  0
  -25.1443  -11.1077   19.9801 C   0  0  0  0  0  0  0  0  0  0  0  0
  -31.2197  -19.0536   22.3312 C   0  0  0  0  0  0  0  0  0  0  0  0
  -26.6694  -11.7385   18.5270 C   0  0  0  0  0  0  0  0  0  0  0  0
  -31.4367  -21.2220   22.3492 C   0  0  0  0  0  0  0  0  0  0  0  0
  -30.5785  -17.7965   22.2255 C   0  0  0  0  0  0  0  0  0  0  0  0
  -29.2503  -17.5704   21.9595 C   0  0  0  0  0  0  0  0  0  0  0  0
  -25.8360   -9.4078   18.1782 C   0  0  0  0  0  0  0  0  0  0  0  0
  -29.5530  -24.4574   21.9723 C   0  0  0  0  0  0  0  0  0  0  0  0
  -28.7310  -16.1908   21.8706 C   0  0  0  0  0  0  0  0  0  0  0  0
  -29.6750  -22.9614   22.0123 C   0  0  0  0  0  0  0  0  0  0  0  0
  -23.3087  -29.5244   22.7522 C   0  0  0  0  0  0  0  0  0  0  0  0
  -21.2832  -28.2305   20.5738 C   0  0  0  0  0  0  0  0  0  0  0  0
  -20.8668  -26.2718   17.8103 C   0  0  0  0  0  0  0  0  0  0  0  0
  -23.2022  -33.3199   26.1641 C   0  0  0  0  0  0  0  0  0  0  0  0
  -24.4120  -30.1860   20.5841 C   0  0  0  0  0  0  0  0  0  0  0  0
  -23.6404  -27.3313   20.5966 C   0  0  0  0  0  0  0  0  0  0  0  0
  -22.1633  -32.4223   25.4967 C   0  0  0  0  0  0  0  0  0  0  0  0
  -26.8413  -16.5006   18.7456 C   0  0  0  0  0  0  0  0  0  0  0  0
  -22.5883  -30.9597   25.5812 C   0  0  0  0  0  0  0  0  0  0  0  0
  -26.2199  -15.1105   18.6392 C   0  0  0  0  0  0  0  0  0  0  0  0
  -26.9645  -16.9622   20.1970 C   0  0  0  0  0  0  0  0  0  0  0  0
  -27.0750  -14.6079   20.9622 C   0  0  0  0  0  0  0  0  0  0  0  0
  -23.9131  -30.7268   24.8450 C   0  0  1  0  0  0  0  0  0  0  0  0
  -23.1384  -29.7014   21.2699 C   0  0  1  0  0  0  0  0  0  0  0  0
  -26.9847  -14.1040   19.5133 C   0  0  1  0  0  0  0  0  0  0  0  0
  -19.0902  -25.3696   16.2848 C   0  0  0  0  0  0  0  0  0  0  0  0
  -20.4881  -26.1978   22.7059 C   0  0  0  0  0  0  0  0  0  0  0  0
  -19.4779  -24.7964   20.8937 C   0  0  0  0  0  0  0  0  0  0  0  0
  -18.5847  -27.0813   21.3454 C   0  0  0  0  0  0  0  0  0  0  0  0
  -22.0319  -27.6360   15.4564 C   0  0  0  0  0  0  0  0  0  0  0  0
  -30.3348  -25.1662   20.8882 C   0  0  0  0  0  0  0  0  0  0  0  0
  -29.6601  -26.4535   20.4391 C   0  0  0  0  0  0  0  0  0  1  0  0
  -33.6281  -18.3162   22.7868 C   0  0  0  0  0  0  0  0  0  0  0  0
  -20.8383  -26.8302   20.2272 C   0  0  1  0  0  0  0  0  0  0  0  0
  -20.0862  -26.4930   16.5272 C   0  0  2  0  0  0  0  0  0  0  0  0
  -19.8746  -26.2341   21.2919 C   0  0  0  0  0  0  0  0  0  0  0  0
  -25.4493  -12.3583   20.3367 N   0  0  0  0  0  0  0  0  0  0  0  0
  -26.3794  -12.7145   19.4345 N   0  0  0  0  0  0  0  0  0  0  0  0
  -27.6477  -15.9572   21.0253 N   0  0  0  0  0  0  0  0  0  0  0  0
  -22.6622  -28.4224   20.7391 N   0  0  0  0  0  0  0  0  0  0  0  0
  -27.5816  -11.9297   17.5505 N   0  0  0  0  0  0  0  0  0  0  0  0
  -24.9615   -8.4196   18.6507 N   0  0  0  0  0  0  0  0  0  0  0  0
  -30.9699  -22.5534   22.2494 N   0  0  0  0  0  0  0  0  0  0  0  0
  -23.6944  -30.6737   23.4154 N   0  0  0  0  0  0  0  0  0  0  0  0
  -20.2738  -26.9019   18.8839 N   0  0  0  0  0  0  0  0  0  0  0  0
  -21.0129  -26.5591   15.3620 N   0  3  0  0  0  0  0  0  0  0  0  0
  -26.5680   -9.1584   17.1906 O   0  0  0  0  0  0  0  0  0  0  0  0
  -28.8287  -24.9821   22.8046 O   0  0  0  0  0  0  0  0  0  0  0  0
  -29.2858  -15.3291   22.5549 O   0  0  0  0  0  0  0  0  0  0  0  0
  -28.6453  -22.3252   21.8617 O   0  0  0  0  0  0  0  0  0  0  0  0
  -23.1038  -28.4268   23.2572 O   0  0  0  0  0  0  0  0  0  0  0  0
  -20.4390  -29.1229   20.6863 O   0  0  0  0  0  0  0  0  0  0  0  0
  -21.8973  -25.6037   17.8563 O   0  0  0  0  0  0  0  0  0  0  0  0
  -30.5341  -20.2185   22.1918 O   0  0  0  0  0  0  0  0  0  0  0  0
  -21.3227   -8.2192   22.8642 O   0  0  0  0  0  0  0  0  0  0  0  0
  -28.3480  -26.1596   19.9613 O   0  0  0  0  0  0  0  0  0  1  0  0
  -22.5015   -2.9917   24.1631 F   0  0  0  0  0  0  0  0  0  0  0  0
  -21.4279   -7.4027   25.5033 F   0  0  0  0  0  0  0  0  0  0  0  0
  -33.7612  -17.4849   21.7130 F   0  0  0  0  0  0  0  0  0  0  0  0
  -33.3618  -17.5076   23.8531 F   0  0  0  0  0  0  0  0  0  0  0  0
  1  2  1  0  0  0  0
  1  5  2  0  0  0  0
  2  6  2  0  0  0  0
  3  8  2  0  0  0  0
  3 16  1  0  0  0  0
  4  9  1  0  0  0  0
  4 16  2  0  0  0  0
  5 18  1  0  0  0  0
  6 20  1  0  0  0  0
  7 10  2  0  0  0  0
  7 19  1  0  0  0  0
  8 23  1  0  0  0  0
  9 23  2  0  0  0  0
 10 24  1  0  0  0  0
 11 12  2  0  0  0  0
 11 25  1  0  0  0  0
 12 26  1  0  0  0  0
 13 21  1  0  0  0  0
 13 24  2  0  0  0  0
 14 22  1  0  0  0  0
 14 31  2  0  0  0  0
 15 26  2  0  0  0  0
 15 27  1  0  0  0  0
 16 28  1  0  0  0  0
 17 28  1  0  0  0  0
 17 30  2  0  0  0  0
 17 34  1  0  0  0  0
 18 20  2  0  0  0  0
 18 41  1  0  0  0  0
 19 21  2  0  0  0  0
 19 42  1  0  0  0  0
 20 50  1  0  0  0  0
 21 43  1  0  0  0  0
 22 29  2  0  0  0  0
 22 60  1  0  0  0  0
 23 82  1  0  0  0  0
 24 83  1  0  0  0  0
 25 27  2  0  0  0  0
 25 82  1  0  0  0  0
 26 84  1  0  0  0  0
 27 85  1  0  0  0  0
 28 64  2  0  0  0  0
 29 32  1  0  0  0  0
 29 81  1  0  0  0  0
 30 65  1  0  0  0  0
 30 68  1  0  0  0  0
 31 70  1  0  0  0  0
 31 81  1  0  0  0  0
 32 33  2  0  0  0  0
 33 36  1  0  0  0  0
 34 69  1  0  0  0  0
 34 74  2  0  0  0  0
 35 37  1  0  0  0  0
 35 58  1  0  0  0  0
 35 75  2  0  0  0  0
 36 66  1  0  0  0  0
 36 76  2  0  0  0  0
 37 70  1  0  0  0  0
 37 77  2  0  0  0  0
 38 51  1  0  0  0  0
 38 71  1  0  0  0  0
 38 78  2  0  0  0  0
 39 61  1  0  0  0  0
 39 67  1  0  0  0  0
 39 79  2  0  0  0  0
 40 62  1  0  0  0  0
 40 72  1  0  0  0  0
 40 80  2  0  0  0  0
 41 44  1  0  0  0  0
 42 51  1  0  0  0  0
 43 67  1  0  0  0  0
 44 46  1  0  0  0  0
 45 47  1  0  0  0  0
 45 48  1  0  0  0  0
 46 50  1  0  0  0  0
 47 52  1  0  0  0  0
 48 66  1  0  0  0  0
 49 52  1  0  0  0  0
 49 66  1  0  0  0  0
 50 71  1  0  0  0  0
 51 67  1  0  0  0  0
 52 65  1  0  0  0  0
 53 62  1  0  0  0  0
 54 63  1  0  0  0  0
 55 63  1  0  0  0  0
 56 63  1  0  0  0  0
 57 73  1  0  0  0  0
 58 59  1  0  0  0  0
 59 83  1  0  0  0  0
 60 86  1  0  0  0  0
 60 87  1  0  0  0  0
 61 63  1  0  0  0  0
 61 72  1  0  0  0  0
 62 73  1  0  0  0  0
 64 65  1  0  0  0  0
M  CHG  1  73   1
M  ISO  4  33 100  36 100  59 101  83 101
M  END
> <Batch ID>
0177

> <Smiles>
CNC(C)C(=O)NC(C(=O)N1Cc2cc([101O:1][101CH2:1]CC(=O)C(=O)Nc3cc(C(F)F)c(C=[100CH:0][100C:0](=O)N4CCCC(n5nc(-c6ccc(Oc7ccc(F)cc7F)cc6)c(C(N)=O)c5N)C4)o3)ccc2CC1C(=O)NC1CCCc2ccccc21)C(C)(C)C

> <Shape>
0.292

> <Color>
0.087

> <Negative vol penalty>
0.000

$$$$

  -OEChem-04052304413D

 87 95  0     1  0  0  0  0  0999 V2000
  -24.2771   -6.2821   24.0775 C   0  0  0  0  0  0  0  0  0  0  0  0
  -25.3974   -7.1044   24.0117 C   0  0  0  0  0  0  0  0  0  0  0  0
  -23.5616  -29.7721   21.3149 C   0  0  0  0  0  0  0  0  0  0  0  0
  -23.1549  -29.6651   23.6940 C   0  0  0  0  0  0  0  0  0  0  0  0
  -23.2044   -6.4969   23.2131 C   0  0  0  0  0  0  0  0  0  0  0  0
  -25.4461   -8.1413   23.0807 C   0  0  0  0  0  0  0  0  0  0  0  0
  -28.0513  -14.7594   22.2262 C   0  0  0  0  0  0  0  0  0  0  0  0
  -22.2243  -30.1063   21.1013 C   0  0  0  0  0  0  0  0  0  0  0  0
  -21.8176  -29.9994   23.4804 C   0  0  0  0  0  0  0  0  0  0  0  0
  -28.8180  -15.5083   21.3345 C   0  0  0  0  0  0  0  0  0  0  0  0
  -18.2143  -30.4716   23.5332 C   0  0  0  0  0  0  0  0  0  0  0  0
  -17.2456  -29.7426   24.2231 C   0  0  0  0  0  0  0  0  0  0  0  0
  -26.8729  -15.8346   19.9455 C   0  0  0  0  0  0  0  0  0  0  0  0
  -18.0201  -27.7130   23.1658 C   0  0  0  0  0  0  0  0  0  0  0  0
  -24.0269  -29.5514   22.6113 C   0  0  0  0  0  0  0  0  0  0  0  0
  -26.4805  -30.0898   23.0558 C   0  0  0  0  0  0  0  0  0  0  0  0
  -23.2360   -7.5430   22.2775 C   0  0  0  0  0  0  0  0  0  0  0  0
  -26.6898  -14.5329   21.9782 C   0  0  0  0  0  0  0  0  0  0  0  0
  -24.3734   -8.3694   22.2020 C   0  0  0  0  0  0  0  0  0  0  0  0
  -26.0906  -15.0846   20.8369 C   0  0  0  0  0  0  0  0  0  0  0  0
  -21.3523  -30.2200   22.1840 C   0  0  0  0  0  0  0  0  0  0  0  0
  -28.2295  -16.0436   20.1925 C   0  0  0  0  0  0  0  0  0  0  0  0
  -19.0858  -29.8213   22.6596 C   0  0  0  0  0  0  0  0  0  0  0  0
  -17.1486  -28.3633   24.0394 C   0  0  0  0  0  0  0  0  0  0  0  0
  -18.9887  -28.4420   22.4759 C   0  0  0  0  0  0  0  0  0  0  0  0
  -25.4080  -29.2056   22.8325 C   0  0  0  0  0  0  0  0  0  0  0  0
  -30.8010  -24.6793   18.6101 C   0  0  0  0  0  0  0  0  0  0  0  0
  -31.6056  -24.7014   17.4902 C   0  0  0  0  0  0  0  0  0  0  0  0
  -27.5738  -29.2722   23.2068 C   0  0  0  0  0  0  0  0  0  0  0  0
  -30.7767  -22.5363   18.1442 C   0  0  0  0  0  0  0  0  0  0  0  0
  -29.0518  -18.1300   19.5281 C   0  0  0  0  0  0  0  0  0  1  0  0
  -26.4878  -31.5220   23.1210 C   0  0  0  0  0  0  0  0  0  0  0  0
  -29.7512  -18.9592   18.7440 C   0  0  0  0  0  0  0  0  0  0  0  0
  -29.7661  -20.4239   19.0644 C   0  0  0  0  0  0  0  0  0  0  0  0
  -24.8994  -11.9545   21.4784 C   0  0  0  0  0  0  0  0  0  0  0  0
  -22.4695  -14.1012   21.5779 C   0  0  0  0  0  0  0  0  0  0  0  0
  -32.3832  -26.5883   20.6701 C   0  0  0  0  0  0  0  0  0  0  0  0
  -21.4426  -17.3341   21.2032 C   0  0  0  0  0  0  0  0  0  0  0  0
  -30.6591  -25.0900   21.7323 C   0  0  0  0  0  0  0  0  0  0  0  0
  -22.0723   -7.7067   21.3321 C   0  0  0  0  0  0  0  0  0  0  0  0
  -25.8705  -13.7454   22.9636 C   0  0  0  0  0  0  0  0  0  0  0  0
  -24.6282  -14.8876   20.5352 C   0  0  0  0  0  0  0  0  0  0  0  0
  -22.0457   -9.0607   20.6276 C   0  0  0  0  0  0  0  0  0  0  0  0
  -27.8909  -24.2574   23.7724 C   0  0  0  0  0  0  0  0  0  0  0  0
  -23.4289   -9.4083   20.0867 C   0  0  0  0  0  0  0  0  0  0  0  0
  -27.0808  -25.5542   23.7325 C   0  0  0  0  0  0  0  0  0  0  0  0
  -28.4968  -23.9279   22.4086 C   0  0  0  0  0  0  0  0  0  0  0  0
  -28.5043  -26.3197   21.7871 C   0  0  0  0  0  0  0  0  0  0  0  0
  -24.4533   -9.5201   21.2224 C   0  0  1  0  0  0  0  0  0  0  0  0
  -24.6102  -13.1452   22.3480 C   0  0  1  0  0  0  0  0  0  0  0  0
  -27.9113  -26.7131   23.1501 C   0  0  1  0  0  0  0  0  0  0  0  0
  -32.2724  -25.8356   16.8201 C   0  0  0  0  0  0  0  0  0  0  0  0
  -32.9663  -26.9717   22.0099 C   0  0  0  0  0  0  0  0  0  0  0  0
  -19.3907  -18.7745   21.3132 C   0  0  0  0  0  0  0  0  0  0  0  0
  -21.5627  -13.0114   18.8760 C   0  0  0  0  0  0  0  0  0  0  0  0
  -20.1470  -15.0584   18.6040 C   0  0  0  0  0  0  0  0  0  0  0  0
  -19.7083  -13.4819   20.4867 C   0  0  0  0  0  0  0  0  0  0  0  0
  -22.5751  -18.9821   23.3850 C   0  0  0  0  0  0  0  0  0  0  0  0
  -30.4065  -25.8676   19.4388 C   0  0  0  0  0  0  0  0  0  0  0  0
  -21.7587  -14.9593   20.5593 C   0  0  1  0  0  0  0  0  0  0  0  0
  -20.5834  -18.2262   22.0810 C   0  0  2  0  0  0  0  0  0  0  0  0
  -20.8222  -14.1300   19.6359 C   0  0  0  0  0  0  0  0  0  0  0  0
  -25.7858  -27.9245   22.8400 N   0  0  0  0  0  0  0  0  0  0  0  0
  -30.3244  -23.4387   18.9864 N   0  0  0  0  0  0  0  0  0  0  0  0
  -27.1079  -27.9977   23.0697 N   0  0  0  0  0  0  0  0  0  0  0  0
  -23.8706  -14.1049   21.5257 N   0  0  0  0  0  0  0  0  0  0  0  0
  -29.2634  -25.0729   21.8999 N   0  0  0  0  0  0  0  0  0  0  0  0
  -28.8786  -29.5263   23.4420 N   0  0  0  0  0  0  0  0  0  0  0  0
  -25.2768  -32.2051   22.9439 N   0  0  0  0  0  0  0  0  0  0  0  0
  -30.5423  -21.1869   18.1575 N   0  0  0  0  0  0  0  0  0  0  0  0
  -24.3071  -10.7839   21.9123 N   0  0  0  0  0  0  0  0  0  0  0  0
  -21.0796  -16.0083   21.3121 N   0  0  0  0  0  0  0  0  0  0  0  0
  -31.1381  -25.9220   20.6960 N   0  0  0  0  0  0  0  0  0  0  0  0
  -21.3829  -19.3759   22.5909 N   0  3  0  0  0  0  0  0  0  0  0  0
  -27.5399  -32.1774   23.3137 O   0  0  0  0  0  0  0  0  0  0  0  0
  -29.1494  -20.8642   20.0286 O   0  0  0  0  0  0  0  0  0  0  0  0
  -25.6063  -12.0882   20.4864 O   0  0  0  0  0  0  0  0  0  0  0  0
  -21.8062  -13.4570   22.3944 O   0  0  0  0  0  0  0  0  0  0  0  0
  -33.0032  -26.8478   19.6358 O   0  0  0  0  0  0  0  0  0  0  0  0
  -22.3431  -17.7702   20.4894 O   0  0  0  0  0  0  0  0  0  0  0  0
  -31.4346  -24.4346   22.4365 O   0  0  0  0  0  0  0  0  0  0  0  0
  -30.4642  -18.5189   17.6474 O   0  0  0  0  0  0  0  0  0  0  0  0
  -20.0474  -30.5463   21.9760 O   0  0  0  0  0  0  0  0  0  0  0  0
  -28.9810  -16.7795   19.3141 O   0  0  0  0  0  0  0  0  0  1  0  0
  -16.2193  -27.6632   24.7032 F   0  0  0  0  0  0  0  0  0  0  0  0
  -19.8240  -27.8115   21.6389 F   0  0  0  0  0  0  0  0  0  0  0  0
  -31.7810  -23.1097   16.8762 S   0  0  0  0  0  0  0  0  0  0  0  0
  1  2  1  0  0  0  0
  1  5  2  0  0  0  0
  2  6  2  0  0  0  0
  3  8  2  0  0  0  0
  3 15  1  0  0  0  0
  4  9  1  0  0  0  0
  4 15  2  0  0  0  0
  5 17  1  0  0  0  0
  6 19  1  0  0  0  0
  7 10  2  0  0  0  0
  7 18  1  0  0  0  0
  8 21  1  0  0  0  0
  9 21  2  0  0  0  0
 10 22  1  0  0  0  0
 11 12  2  0  0  0  0
 11 23  1  0  0  0  0
 12 24  1  0  0  0  0
 13 20  1  0  0  0  0
 13 22  2  0  0  0  0
 14 24  2  0  0  0  0
 14 25  1  0  0  0  0
 15 26  1  0  0  0  0
 16 26  1  0  0  0  0
 16 29  2  0  0  0  0
 16 32  1  0  0  0  0
 17 19  2  0  0  0  0
 17 40  1  0  0  0  0
 18 20  2  0  0  0  0
 18 41  1  0  0  0  0
 19 49  1  0  0  0  0
 20 42  1  0  0  0  0
 21 83  1  0  0  0  0
 22 84  1  0  0  0  0
 23 25  2  0  0  0  0
 23 83  1  0  0  0  0
 24 85  1  0  0  0  0
 25 86  1  0  0  0  0
 26 63  2  0  0  0  0
 27 28  2  0  0  0  0
 27 59  1  0  0  0  0
 27 64  1  0  0  0  0
 28 52  1  0  0  0  0
 28 87  1  0  0  0  0
 29 65  1  0  0  0  0
 29 68  1  0  0  0  0
 30 64  2  0  0  0  0
 30 70  1  0  0  0  0
 30 87  1  0  0  0  0
 31 33  2  0  0  0  0
 31 84  1  0  0  0  0
 32 69  1  0  0  0  0
 32 75  2  0  0  0  0
 33 34  1  0  0  0  0
 33 82  1  0  0  0  0
 34 70  1  0  0  0  0
 34 76  2  0  0  0  0
 35 50  1  0  0  0  0
 35 71  1  0  0  0  0
 35 77  2  0  0  0  0
 36 60  1  0  0  0  0
 36 66  1  0  0  0  0
 36 78  2  0  0  0  0
 37 53  1  0  0  0  0
 37 73  1  0  0  0  0
 37 79  2  0  0  0  0
 38 61  1  0  0  0  0
 38 72  1  0  0  0  0
 38 80  2  0  0  0  0
 39 67  1  0  0  0  0
 39 73  1  0  0  0  0
 39 81  2  0  0  0  0
 40 43  1  0  0  0  0
 41 50  1  0  0  0  0
 42 66  1  0  0  0  0
 43 45  1  0  0  0  0
 44 46  1  0  0  0  0
 44 47  1  0  0  0  0
 45 49  1  0  0  0  0
 46 51  1  0  0  0  0
 47 67  1  0  0  0  0
 48 51  1  0  0  0  0
 48 67  1  0  0  0  0
 49 71  1  0  0  0  0
 50 66  1  0  0  0  0
 51 65  1  0  0  0  0
 54 61  1  0  0  0  0
 55 62  1  0  0  0  0
 56 62  1  0  0  0  0
 57 62  1  0  0  0  0
 58 74  1  0  0  0  0
 59 73  1  0  0  0  0
 60 62  1  0  0  0  0
 60 72  1  0  0  0  0
 61 74  1  0  0  0  0
 63 65  1  0  0  0  0
M  CHG  1  74   1
M  ISO  4  31 101  39 100  73 100  84 101
M  END
> <Batch ID>
0177

> <Smiles>
CNC(C)C(=O)NC(C(=O)N1Cc2cc([101O:1][101CH2:1]C(=O)C(=O)Nc3nc(C[100N:0](C(C)=O)[100C:0](=O)N4CCCC(n5nc(-c6ccc(Oc7ccc(F)cc7F)cc6)c(C(N)=O)c5N)C4)c(C)s3)ccc2CC1C(=O)NC1CCCc2ccccc21)C(C)(C)C

> <Shape>
0.276

> <Color>
0.060

> <Negative vol penalty>
0.000

$$$$

  -OEChem-04052304413D

 86 94  0     1  0  0  0  0  0999 V2000
  -22.9034  -33.2585   15.3527 C   0  0  0  0  0  0  0  0  0  0  0  0
  -22.6789  -31.9787   15.8498 C   0  0  0  0  0  0  0  0  0  0  0  0
  -23.2310   -9.8714   20.7545 C   0  0  0  0  0  0  0  0  0  0  0  0
  -24.5270   -8.5991   22.3478 C   0  0  0  0  0  0  0  0  0  0  0  0
  -23.7747  -34.1204   16.0174 C   0  0  0  0  0  0  0  0  0  0  0  0
  -23.3265  -31.5597   17.0115 C   0  0  0  0  0  0  0  0  0  0  0  0
  -21.0978  -27.8308   21.3281 C   0  0  0  0  0  0  0  0  0  0  0  0
  -22.3558   -8.7954   20.6070 C   0  0  0  0  0  0  0  0  0  0  0  0
  -23.6517   -7.5230   22.2004 C   0  0  0  0  0  0  0  0  0  0  0  0
  -21.2652  -26.4676   21.5677 C   0  0  0  0  0  0  0  0  0  0  0  0
  -20.5855   -6.6381   23.3119 C   0  0  0  0  0  0  0  0  0  0  0  0
  -20.1546   -5.9917   24.4704 C   0  0  0  0  0  0  0  0  0  0  0  0
  -23.0097  -26.9673   23.1572 C   0  0  0  0  0  0  0  0  0  0  0  0
  -26.6656  -19.1147   22.0632 C   0  0  0  0  0  0  0  0  0  0  0  0
  -21.1216   -3.9248   23.6769 C   0  0  0  0  0  0  0  0  0  0  0  0
  -27.5511  -19.5244   19.4884 C   0  0  0  0  0  0  0  0  0  0  0  0
  -24.3166   -9.7733   21.6248 C   0  0  0  0  0  0  0  0  0  0  0  0
  -28.0959  -18.4856   20.2298 C   0  0  0  0  0  0  0  0  0  0  0  0
  -25.1220  -11.9409   22.7020 C   0  0  0  0  0  0  0  0  0  0  0  0
  -24.4259  -33.7151   17.1931 C   0  0  0  0  0  0  0  0  0  0  0  0
  -21.8938  -28.7736   21.9943 C   0  0  0  0  0  0  0  0  0  0  0  0
  -24.2084  -32.4165   17.6918 C   0  0  0  0  0  0  0  0  0  0  0  0
  -22.8486  -28.3420   22.9261 C   0  0  0  0  0  0  0  0  0  0  0  0
  -27.6454  -18.2823   21.5306 C   0  0  0  0  0  0  0  0  0  0  0  0
  -22.5661   -7.6212   21.3300 C   0  0  0  0  0  0  0  0  0  0  0  0
  -22.2232  -26.0355   22.4802 C   0  0  0  0  0  0  0  0  0  0  0  0
  -21.2844   -5.9278   22.3358 C   0  0  0  0  0  0  0  0  0  0  0  0
  -20.4227   -4.6351   24.6529 C   0  0  0  0  0  0  0  0  0  0  0  0
  -21.5525   -4.5711   22.5183 C   0  0  0  0  0  0  0  0  0  0  0  0
  -25.2214  -10.8843   21.7771 C   0  0  0  0  0  0  0  0  0  0  0  0
  -26.2166  -12.7288   22.4421 C   0  0  0  0  0  0  0  0  0  0  0  0
  -26.1570  -20.1377   21.2755 C   0  0  0  0  0  0  0  0  0  0  0  0
  -23.2854  -24.0222   21.9423 C   0  0  0  0  0  0  0  0  0  1  0  0
  -29.1393  -17.6266   19.6131 C   0  0  0  0  0  0  0  0  0  0  0  0
  -24.1291  -12.1881   23.7064 C   0  0  0  0  0  0  0  0  0  0  0  0
  -23.5277  -22.7138   22.0866 C   0  0  0  0  0  0  0  0  0  0  0  0
  -24.5320  -22.0566   21.1878 C   0  0  0  0  0  0  0  0  0  0  0  0
  -24.0046  -30.9697   21.0856 C   0  0  0  0  0  0  0  0  0  0  0  0
  -23.9435  -31.7671   24.2293 C   0  0  0  0  0  0  0  0  0  0  0  0
  -23.3314  -30.8142   27.4486 C   0  0  0  0  0  0  0  0  0  0  0  0
  -29.6481  -15.3018   18.9347 C   0  0  0  0  0  0  0  0  0  0  0  0
  -25.3951  -34.6654   17.8506 C   0  0  0  0  0  0  0  0  0  0  0  0
  -21.6825  -30.2417   21.7445 C   0  0  0  0  0  0  0  0  0  0  0  0
  -23.7147  -29.3148   23.6825 C   0  0  0  0  0  0  0  0  0  0  0  0
  -25.7535  -34.2759   19.2824 C   0  0  0  0  0  0  0  0  0  0  0  0
  -30.2781  -11.8761   19.5384 C   0  0  0  0  0  0  0  0  0  0  0  0
  -26.0814  -32.7885   19.3649 C   0  0  0  0  0  0  0  0  0  0  0  0
  -29.0143  -11.3980   20.2585 C   0  0  0  0  0  0  0  0  0  0  0  0
  -29.9570  -12.8917   18.4429 C   0  0  0  0  0  0  0  0  0  0  0  0
  -27.8821  -13.5551   19.5885 C   0  0  0  0  0  0  0  0  0  0  0  0
  -24.8732  -31.9341   18.9628 C   0  0  1  0  0  0  0  0  0  0  0  0
  -22.9007  -31.0893   22.0980 C   0  0  1  0  0  0  0  0  0  0  0  0
  -28.1590  -12.5840   20.7476 C   0  0  1  0  0  0  0  0  0  0  0  0
  -23.4078  -31.6726   29.8055 C   0  0  0  0  0  0  0  0  0  0  0  0
  -26.9814  -31.4821   24.2320 C   0  0  0  0  0  0  0  0  0  0  0  0
  -26.9023  -31.4058   26.7332 C   0  0  0  0  0  0  0  0  0  0  0  0
  -26.1163  -33.4410   25.5238 C   0  0  0  0  0  0  0  0  0  0  0  0
  -20.4230  -30.4062   27.8147 C   0  0  0  0  0  0  0  0  0  0  0  0
  -24.7126  -31.3393   25.4559 C   0  0  1  0  0  0  0  0  0  0  0  0
  -22.5488  -31.4816   28.5652 C   0  0  2  0  0  0  0  0  0  0  0  0
  -26.1633  -31.8984   25.4707 C   0  0  0  0  0  0  0  0  0  0  0  0
  -26.2943  -10.9885   20.9884 N   0  0  0  0  0  0  0  0  0  0  0  0
  -26.8791  -12.1201   21.4171 N   0  0  0  0  0  0  0  0  0  0  0  0
  -26.6087  -20.3110   20.0259 N   0  3  0  0  0  0  0  0  0  0  0  0
  -23.4746  -30.7393   23.3989 N   0  0  0  0  0  0  0  0  0  0  0  0
  -29.1536  -13.9870   18.9889 N   0  0  0  0  0  0  0  0  0  0  0  0
  -28.1693  -17.2386   22.3247 N   0  0  0  0  0  0  0  0  0  0  0  0
  -26.6674  -13.8760   22.9927 N   0  0  0  0  0  0  0  0  0  0  0  0
  -23.0715  -11.2779   23.8386 N   0  0  0  0  0  0  0  0  0  0  0  0
  -25.1599  -20.9875   21.8122 N   0  0  0  0  0  0  0  0  0  0  0  0
  -28.8256  -16.2703   19.5208 N   0  0  0  0  0  0  0  0  0  0  0  0
  -23.9140  -31.8742   20.0449 N   0  0  0  0  0  0  0  0  0  0  0  0
  -23.9061  -31.7400   26.6037 N   0  0  0  0  0  0  0  0  0  0  0  0
  -21.3662  -30.6537   28.9354 N   0  3  0  0  0  0  0  0  0  0  0  0
  -30.1709  -18.1453   19.1953 O   0  0  0  0  0  0  0  0  0  0  0  0
  -24.1694  -13.1952   24.4531 O   0  0  0  0  0  0  0  0  0  0  0  0
  -24.7229  -22.4687   20.0487 O   0  0  0  0  0  0  0  0  0  0  0  0
  -24.8749  -30.1206   21.2383 O   0  0  0  0  0  0  0  0  0  0  0  0
  -23.7593  -32.9687   24.0196 O   0  0  0  0  0  0  0  0  0  0  0  0
  -23.4266  -29.5938   27.3393 O   0  0  0  0  0  0  0  0  0  0  0  0
  -30.7446  -15.5844   18.4414 O   0  0  0  0  0  0  0  0  0  0  0  0
  -22.8888  -21.9407   23.0346 O   0  0  0  0  0  0  0  0  0  0  0  0
  -21.7122   -6.5711   21.1866 O   0  0  0  0  0  0  0  0  0  0  0  0
  -22.3892  -24.7055   22.7155 O   0  0  0  0  0  0  0  0  0  1  0  0
  -20.0102   -4.0149   25.7662 F   0  0  0  0  0  0  0  0  0  0  0  0
  -22.2245   -3.8838   21.5846 F   0  0  0  0  0  0  0  0  0  0  0  0
  1  2  1  0  0  0  0
  1  5  2  0  0  0  0
  2  6  2  0  0  0  0
  3  8  2  0  0  0  0
  3 17  1  0  0  0  0
  4  9  1  0  0  0  0
  4 17  2  0  0  0  0
  5 20  1  0  0  0  0
  6 22  1  0  0  0  0
  7 10  2  0  0  0  0
  7 21  1  0  0  0  0
  8 25  1  0  0  0  0
  9 25  2  0  0  0  0
 10 26  1  0  0  0  0
 11 12  2  0  0  0  0
 11 27  1  0  0  0  0
 12 28  1  0  0  0  0
 13 23  1  0  0  0  0
 13 26  2  0  0  0  0
 14 24  2  0  0  0  0
 14 32  1  0  0  0  0
 15 28  2  0  0  0  0
 15 29  1  0  0  0  0
 16 18  2  0  0  0  0
 16 64  1  0  0  0  0
 17 30  1  0  0  0  0
 18 24  1  0  0  0  0
 18 34  1  0  0  0  0
 19 30  1  0  0  0  0
 19 31  2  0  0  0  0
 19 35  1  0  0  0  0
 20 22  2  0  0  0  0
 20 42  1  0  0  0  0
 21 23  2  0  0  0  0
 21 43  1  0  0  0  0
 22 51  1  0  0  0  0
 23 44  1  0  0  0  0
 24 67  1  0  0  0  0
 25 83  1  0  0  0  0
 26 84  1  0  0  0  0
 27 29  2  0  0  0  0
 27 83  1  0  0  0  0
 28 85  1  0  0  0  0
 29 86  1  0  0  0  0
 30 62  2  0  0  0  0
 31 63  1  0  0  0  0
 31 68  1  0  0  0  0
 32 64  2  0  0  0  0
 32 70  1  0  0  0  0
 33 36  2  0  0  0  0
 33 84  1  0  0  0  0
 34 71  1  0  0  0  0
 34 75  2  0  0  0  0
 35 69  1  0  0  0  0
 35 76  2  0  0  0  0
 36 37  1  0  0  0  0
 36 82  1  0  0  0  0
 37 70  1  0  0  0  0
 37 77  2  0  0  0  0
 38 52  1  0  0  0  0
 38 72  1  0  0  0  0
 38 78  2  0  0  0  0
 39 59  1  0  0  0  0
 39 65  1  0  0  0  0
 39 79  2  0  0  0  0
 40 60  1  0  0  0  0
 40 73  1  0  0  0  0
 40 80  2  0  0  0  0
 41 66  1  0  0  0  0
 41 71  1  0  0  0  0
 41 81  2  0  0  0  0
 42 45  1  0  0  0  0
 43 52  1  0  0  0  0
 44 65  1  0  0  0  0
 45 47  1  0  0  0  0
 46 48  1  0  0  0  0
 46 49  1  0  0  0  0
 47 51  1  0  0  0  0
 48 53  1  0  0  0  0
 49 66  1  0  0  0  0
 50 53  1  0  0  0  0
 50 66  1  0  0  0  0
 51 72  1  0  0  0  0
 52 65  1  0  0  0  0
 53 63  1  0  0  0  0
 54 60  1  0  0  0  0
 55 61  1  0  0  0  0
 56 61  1  0  0  0  0
 57 61  1  0  0  0  0
 58 74  1  0  0  0  0
 59 61  1  0  0  0  0
 59 73  1  0  0  0  0
 60 74  1  0  0  0  0
 62 63  1  0  0  0  0
M  CHG  2  64   1  74   1
M  ISO  4  33 101  41 100  71 100  84 101
M  END
> <Batch ID>
0177

> <Smiles>
CNC(C)C(=O)NC(C(=O)N1Cc2cc([101O:1][101CH2:1]C(=O)C(=O)Nc3cc(N)c(C(=O)[100NH:0][100C:0](=O)N4CCCC(n5nc(-c6ccc(Oc7ccc(F)cc7F)cc6)c(C(N)=O)c5N)C4)cn3)ccc2CC1C(=O)NC1CCCc2ccccc21)C(C)(C)C

> <Shape>
0.258

> <Color>
0.091

> <Negative vol penalty>
0.000

$$$$

  -OEChem-04052304413D

 88 96  0     1  0  0  0  0  0999 V2000
  -16.1240  -27.7291   21.8164 C   0  0  0  0  0  0  0  0  0  0  0  0
  -17.3700  -27.1206   21.7040 C   0  0  0  0  0  0  0  0  0  0  0  0
  -23.6588   -9.6547   21.9230 C   0  0  0  0  0  0  0  0  0  0  0  0
  -24.2126  -11.0371   23.8255 C   0  0  0  0  0  0  0  0  0  0  0  0
  -16.0183  -29.1174   21.7418 C   0  0  0  0  0  0  0  0  0  0  0  0
  -18.5109  -27.8999   21.5159 C   0  0  0  0  0  0  0  0  0  0  0  0
  -22.3645  -26.4452   24.4618 C   0  0  0  0  0  0  0  0  0  0  0  0
  -23.1094   -8.6989   22.7774 C   0  0  0  0  0  0  0  0  0  0  0  0
  -23.6632  -10.0812   24.6799 C   0  0  0  0  0  0  0  0  0  0  0  0
  -23.0790  -25.3161   24.0641 C   0  0  0  0  0  0  0  0  0  0  0  0
  -24.2258   -6.2380   24.8077 C   0  0  0  0  0  0  0  0  0  0  0  0
  -24.5490   -4.9009   24.5766 C   0  0  0  0  0  0  0  0  0  0  0  0
  -24.8003  -26.7357   23.1469 C   0  0  0  0  0  0  0  0  0  0  0  0
  -22.2097   -4.3915   24.2518 C   0  0  0  0  0  0  0  0  0  0  0  0
  -24.2105  -10.8238   22.4470 C   0  0  0  0  0  0  0  0  0  0  0  0
  -24.1153  -12.8997   20.9674 C   0  0  0  0  0  0  0  0  0  0  0  0
  -17.1597  -29.9147   21.5624 C   0  0  0  0  0  0  0  0  0  0  0  0
  -22.8581  -27.7304   24.1949 C   0  0  0  0  0  0  0  0  0  0  0  0
  -18.4202  -29.3000   21.4375 C   0  0  0  0  0  0  0  0  0  0  0  0
  -24.0913  -27.8795   23.5445 C   0  0  0  0  0  0  0  0  0  0  0  0
  -23.1116   -8.9121   24.1559 C   0  0  0  0  0  0  0  0  0  0  0  0
  -24.2957  -25.4612   23.4040 C   0  0  0  0  0  0  0  0  0  0  0  0
  -22.8945   -6.6518   24.7610 C   0  0  0  0  0  0  0  0  0  0  0  0
  -23.5410   -3.9777   24.2986 C   0  0  0  0  0  0  0  0  0  0  0  0
  -21.8865   -5.7286   24.4830 C   0  0  0  0  0  0  0  0  0  0  0  0
  -24.7787  -11.8113   21.5649 C   0  0  0  0  0  0  0  0  0  0  0  0
  -29.2858  -20.3364   19.2845 C   0  0  0  0  0  0  0  0  0  0  0  0
  -30.4928  -19.8459   18.8324 C   0  0  0  0  0  0  0  0  0  0  0  0
  -25.0862  -13.5298   20.2280 C   0  0  0  0  0  0  0  0  0  0  0  0
  -29.6164  -17.9641   19.5399 C   0  0  0  0  0  0  0  0  0  0  0  0
  -22.7439  -13.3051   21.0715 C   0  0  0  0  0  0  0  0  0  0  0  0
  -28.7424  -21.7191   19.2905 C   0  0  0  0  0  0  0  0  0  0  0  0
  -21.8401  -30.2160   22.4951 C   0  0  0  0  0  0  0  0  0  0  0  0
  -25.9417  -23.1543   21.1393 C   0  0  0  0  0  0  0  0  0  0  0  0
  -24.4120  -31.6806   23.8226 C   0  0  0  0  0  0  0  0  0  0  0  0
  -27.4954  -31.3844   25.2551 C   0  0  0  0  0  0  0  0  0  0  0  0
  -30.2525  -15.5299   19.6688 C   0  0  0  0  0  0  0  0  0  0  0  0
  -16.9900  -31.4084   21.4406 C   0  0  0  0  0  0  0  0  0  0  0  0
  -22.0882  -28.9381   24.6542 C   0  0  0  0  0  0  0  0  0  0  0  0
  -24.6747  -29.2370   23.2523 C   0  0  0  0  0  0  0  0  0  0  0  0
  -18.2921  -32.1856   21.6152 C   0  0  0  0  0  0  0  0  0  0  0  0
  -29.7770  -12.0618   19.0181 C   0  0  0  0  0  0  0  0  0  0  0  0
  -19.4085  -31.5483   20.7939 C   0  0  0  0  0  0  0  0  0  0  0  0
  -28.3796  -11.7770   19.5735 C   0  0  0  0  0  0  0  0  0  0  0  0
  -30.5351  -13.0701   19.8797 C   0  0  0  0  0  0  0  0  0  0  0  0
  -28.4229  -14.0415   20.6948 C   0  0  0  0  0  0  0  0  0  0  0  0
  -19.6840  -30.1128   21.2577 C   0  0  1  0  0  0  0  0  0  0  0  0
  -22.4373  -30.2016   23.8738 C   0  0  1  0  0  0  0  0  0  0  0  0
  -27.5965  -13.0806   19.8246 C   0  0  2  0  0  0  0  0  0  0  0  0
  -29.3680  -32.7607   26.2020 C   0  0  0  0  0  0  0  0  0  0  0  0
  -25.2847  -32.4328   20.9972 C   0  0  0  0  0  0  0  0  0  0  0  0
  -27.5602  -32.9400   21.9100 C   0  0  0  0  0  0  0  0  0  0  0  0
  -25.5835  -34.2420   22.6978 C   0  0  0  0  0  0  0  0  0  0  0  0
  -27.2215  -30.1325   27.9228 C   0  0  0  0  0  0  0  0  0  0  0  0
  -25.8093  -24.4876   21.8493 C   0  0  0  0  0  0  0  0  0  1  0  0
  -26.8000  -23.1448   19.8828 C   0  0  2  0  0  0  0  0  0  0  0  0
  -25.8642  -31.8424   23.4429 C   0  0  1  0  0  0  0  0  0  0  0  0
  -28.0867  -32.0015   26.5097 C   0  0  2  0  0  0  0  0  0  0  0  0
  -26.0615  -32.8386   22.2656 C   0  0  0  0  0  0  0  0  0  0  0  0
  -25.9532  -23.3878   18.6533 C   0  0  0  0  0  0  0  0  0  0  0  0
  -26.0712  -11.7504   21.2336 N   0  0  0  0  0  0  0  0  0  0  0  0
  -30.6844  -18.4858   18.9783 N   0  0  0  0  0  0  0  0  0  0  0  0
  -26.2277  -12.8084   20.4199 N   0  0  0  0  0  0  0  0  0  0  0  0
  -23.8812  -30.3873   23.7156 N   0  0  0  0  0  0  0  0  0  0  0  0
  -29.7339  -14.2810   20.0713 N   0  0  0  0  0  0  0  0  0  0  0  0
  -31.4579  -20.6141   18.2724 N   0  0  0  0  0  0  0  0  0  0  0  0
  -25.0664  -14.6250   19.4390 N   0  0  0  0  0  0  0  0  0  0  0  0
  -21.8817  -12.5452   21.8737 N   0  0  0  0  0  0  0  0  0  0  0  0
  -29.3879  -16.6053   19.8705 N   0  0  0  0  0  0  0  0  0  0  0  0
  -27.4710  -21.8725   19.8285 N   0  0  0  0  0  0  0  0  0  0  0  0
  -20.4619  -30.1165   22.4780 N   0  0  0  0  0  0  0  0  0  0  0  0
  -26.5666  -32.2160   24.6658 N   0  0  0  0  0  0  0  0  0  0  0  0
  -28.3969  -30.9424   27.5112 N   0  3  0  0  0  0  0  0  0  0  0  0
  -22.2926  -14.3017   20.4580 O   0  0  0  0  0  0  0  0  0  0  0  0
  -29.4148  -22.6301   18.8147 O   0  0  0  0  0  0  0  0  0  0  0  0
  -22.5750  -30.3117   21.5193 O   0  0  0  0  0  0  0  0  0  0  0  0
  -25.3614  -22.1457   21.5419 O   0  0  0  0  0  0  0  0  0  0  0  0
  -23.7743  -32.6641   24.2069 O   0  0  0  0  0  0  0  0  0  0  0  0
  -27.8272  -30.2772   24.8373 O   0  0  0  0  0  0  0  0  0  0  0  0
  -31.3697  -15.6339   19.1559 O   0  0  0  0  0  0  0  0  0  0  0  0
  -22.5753   -7.9797   24.9899 O   0  0  0  0  0  0  0  0  0  0  0  0
  -24.9948  -24.3607   23.0142 O   0  0  0  0  0  0  0  0  0  1  0  0
  -23.8517   -2.6941   24.0751 F   0  0  0  0  0  0  0  0  0  0  0  0
  -20.6059   -6.1205   24.4356 F   0  0  0  0  0  0  0  0  0  0  0  0
  -26.7028  -23.3467   17.5297 F   0  0  0  0  0  0  0  0  0  0  0  0
  -25.3375  -24.5888   18.6953 F   0  0  0  0  0  0  0  0  0  0  0  0
  -24.9970  -22.4393   18.5326 F   0  0  0  0  0  0  0  0  0  0  0  0
  -28.3436  -19.0512   19.9185 S   0  0  0  0  0  0  0  0  0  0  0  0
  1  2  1  0  0  0  0
  1  5  2  0  0  0  0
  2  6  2  0  0  0  0
  3  8  2  0  0  0  0
  3 15  1  0  0  0  0
  4  9  1  0  0  0  0
  4 15  2  0  0  0  0
  5 17  1  0  0  0  0
  6 19  1  0  0  0  0
  7 10  2  0  0  0  0
  7 18  1  0  0  0  0
  8 21  1  0  0  0  0
  9 21  2  0  0  0  0
 10 22  1  0  0  0  0
 11 12  2  0  0  0  0
 11 23  1  0  0  0  0
 12 24  1  0  0  0  0
 13 20  1  0  0  0  0
 13 22  2  0  0  0  0
 14 24  2  0  0  0  0
 14 25  1  0  0  0  0
 15 26  1  0  0  0  0
 16 26  1  0  0  0  0
 16 29  2  0  0  0  0
 16 31  1  0  0  0  0
 17 19  2  0  0  0  0
 17 38  1  0  0  0  0
 18 20  2  0  0  0  0
 18 39  1  0  0  0  0
 19 47  1  0  0  0  0
 20 40  1  0  0  0  0
 21 81  1  0  0  0  0
 22 82  1  0  0  0  0
 23 25  2  0  0  0  0
 23 81  1  0  0  0  0
 24 83  1  0  0  0  0
 25 84  1  0  0  0  0
 26 61  2  0  0  0  0
 27 28  2  0  0  0  0
 27 32  1  0  0  0  0
 27 88  1  0  0  0  0
 28 62  1  0  0  0  0
 28 66  1  0  0  0  0
 29 63  1  0  0  0  0
 29 67  1  0  0  0  0
 30 62  2  0  0  0  0
 30 69  1  0  0  0  0
 30 88  1  0  0  0  0
 31 68  1  0  0  0  0
 31 74  2  0  0  0  0
 32 70  1  0  0  0  0
 32 75  2  0  0  0  0
 33 48  1  0  0  0  0
 33 71  1  0  0  0  0
 33 76  2  0  0  0  0
 34 55  1  0  0  0  0
 34 56  1  0  0  0  0
 34 77  2  0  0  0  0
 35 57  1  0  0  0  0
 35 64  1  0  0  0  0
 35 78  2  0  0  0  0
 36 58  1  0  0  0  0
 36 72  1  0  0  0  0
 36 79  2  0  0  0  0
 37 65  1  0  0  0  0
 37 69  1  0  0  0  0
 37 80  2  0  0  0  0
 38 41  1  0  0  0  0
 39 48  1  0  0  0  0
 40 64  1  0  0  0  0
 41 43  1  0  0  0  0
 42 44  1  0  0  0  0
 42 45  1  0  0  0  0
 43 47  1  0  0  0  0
 44 49  1  0  0  0  0
 45 65  1  0  0  0  0
 46 49  1  0  0  0  0
 46 65  1  0  0  0  0
 47 71  1  0  0  0  0
 48 64  1  0  0  0  0
 49 63  1  0  0  0  0
 50 58  1  0  0  0  0
 51 59  1  0  0  0  0
 52 59  1  0  0  0  0
 53 59  1  0  0  0  0
 54 73  1  0  0  0  0
 55 82  1  0  0  0  0
 56 60  1  0  0  0  0
 56 70  1  0  0  0  0
 57 59  1  0  0  0  0
 57 72  1  0  0  0  0
 58 73  1  0  0  0  0
 60 85  1  0  0  0  0
 60 86  1  0  0  0  0
 60 87  1  0  0  0  0
 61 63  1  0  0  0  0
M  CHG  1  73   1
M  ISO  4  37 100  55 101  69 100  82 101
M  END
> <Batch ID>
0177

> <Smiles>
CNC(C)C(=O)NC(C(=O)N1Cc2cc([101O:1][101CH2:1]C(=O)C(NC(=O)c3sc([100NH:0][100C:0](=O)N4CCCC(n5nc(-c6ccc(Oc7ccc(F)cc7F)cc6)c(C(N)=O)c5N)C4)nc3N)C(F)(F)F)ccc2CC1C(=O)NC1CCCc2ccccc21)C(C)(C)C

> <Shape>
0.287

> <Color>
0.126

> <Negative vol penalty>
0.000

$$$$

  -OEChem-04052304413D

 91 99  0     1  0  0  0  0  0999 V2000
  -36.0345  -20.6383    6.0890 C   0  0  0  0  0  0  0  0  0  0  0  0
  -37.2149  -20.7038    6.8223 C   0  0  0  0  0  0  0  0  0  0  0  0
  -23.0012   -9.8929   19.9812 C   0  0  0  0  0  0  0  0  0  0  0  0
  -23.7269   -9.9464   22.2850 C   0  0  0  0  0  0  0  0  0  0  0  0
  -34.9497  -21.4393    6.4434 C   0  0  0  0  0  0  0  0  0  0  0  0
  -37.3116  -21.5712    7.9098 C   0  0  0  0  0  0  0  0  0  0  0  0
  -38.8169  -19.0960   14.5051 C   0  0  0  0  0  0  0  0  0  0  0  0
  -22.2360   -8.7578   20.2486 C   0  0  0  0  0  0  0  0  0  0  0  0
  -22.9616   -8.8114   22.5525 C   0  0  0  0  0  0  0  0  0  0  0  0
  -39.3086  -18.7257   15.7570 C   0  0  0  0  0  0  0  0  0  0  0  0
  -23.2094   -5.4723   22.0832 C   0  0  0  0  0  0  0  0  0  0  0  0
  -23.7982   -4.4563   22.8360 C   0  0  0  0  0  0  0  0  0  0  0  0
  -39.0508  -20.9984   16.5422 C   0  0  0  0  0  0  0  0  0  0  0  0
  -29.7571  -17.7027   22.6655 C   0  0  0  0  0  0  0  0  0  0  0  0
  -22.0745   -4.6988   24.5114 C   0  0  0  0  0  0  0  0  0  0  0  0
  -23.7468  -10.4872   20.9994 C   0  0  0  0  0  0  0  0  0  0  0  0
  -24.1294  -13.0030   20.8213 C   0  0  0  0  0  0  0  0  0  0  0  0
  -35.0299  -22.3099    7.5417 C   0  0  0  0  0  0  0  0  0  0  0  0
  -38.4254  -20.4171   14.2714 C   0  0  0  0  0  0  0  0  0  0  0  0
  -36.2274  -22.3856    8.2784 C   0  0  0  0  0  0  0  0  0  0  0  0
  -38.5459  -21.3724   15.2941 C   0  0  0  0  0  0  0  0  0  0  0  0
  -30.2448  -18.9400   23.0712 C   0  0  0  0  0  0  0  0  0  0  0  0
  -31.5198  -19.3389   22.6857 C   0  0  0  0  0  0  0  0  0  0  0  0
  -22.2161   -8.2170   21.5343 C   0  0  0  0  0  0  0  0  0  0  0  0
  -39.4255  -19.6747   16.7730 C   0  0  0  0  0  0  0  0  0  0  0  0
  -22.0531   -6.1016   22.5446 C   0  0  0  0  0  0  0  0  0  0  0  0
  -23.2307   -4.0695   24.0501 C   0  0  0  0  0  0  0  0  0  0  0  0
  -21.4857   -5.7148   23.7586 C   0  0  0  0  0  0  0  0  0  0  0  0
  -24.5379  -11.6594   20.7236 C   0  0  0  0  0  0  0  0  0  0  0  0
  -30.5774  -16.9077   21.8813 C   0  0  0  0  0  0  0  0  0  0  0  0
  -32.2612  -18.4706   21.9008 C   0  0  0  0  0  0  0  0  0  0  0  0
  -25.2383  -13.7265   20.4560 C   0  0  0  0  0  0  0  0  0  0  0  0
  -22.8610  -13.5484   21.2077 C   0  0  0  0  0  0  0  0  0  0  0  0
  -37.0166  -22.9122   11.8495 C   0  0  0  0  0  0  0  0  0  0  0  0
  -38.0680  -18.9742   19.5137 C   0  0  0  0  0  0  0  0  0  0  0  0
  -35.7387  -23.4976   14.5761 C   0  0  0  0  0  0  0  0  0  0  0  0
  -34.4620  -18.1474   20.7200 C   0  0  0  0  0  0  0  0  0  0  0  0
  -34.2480  -23.5447   17.6441 C   0  0  0  0  0  0  0  0  0  0  0  0
  -30.7168  -14.6936   20.6878 C   0  0  0  0  0  0  0  0  0  0  0  0
  -33.8471  -23.1907    7.8577 C   0  0  0  0  0  0  0  0  0  0  0  0
  -37.9480  -20.8741   12.9197 C   0  0  0  0  0  0  0  0  0  0  0  0
  -38.1450  -22.7894   14.9867 C   0  0  0  0  0  0  0  0  0  0  0  0
  -33.9037  -23.8095    9.2520 C   0  0  0  0  0  0  0  0  0  0  0  0
  -29.6005  -12.2376   18.3641 C   0  0  0  0  0  0  0  0  0  0  0  0
  -35.2884  -24.3894    9.5228 C   0  0  0  0  0  0  0  0  0  0  0  0
  -28.1503  -11.9788   18.7789 C   0  0  0  0  0  0  0  0  0  0  0  0
  -30.5011  -12.4830   19.5735 C   0  0  0  0  0  0  0  0  0  0  0  0
  -28.5852  -13.2709   20.9069 C   0  0  0  0  0  0  0  0  0  0  0  0
  -36.3626  -23.2959    9.4797 C   0  0  1  0  0  0  0  0  0  0  0  0
  -36.8610  -21.9610   12.9994 C   0  0  1  0  0  0  0  0  0  0  0  0
  -27.6275  -13.0825   19.7190 C   0  0  2  0  0  0  0  0  0  0  0  0
  -29.3830  -19.8183   23.9169 C   0  0  0  0  0  0  0  0  0  0  0  0
  -40.1246  -17.5111   19.5763 C   0  0  0  0  0  0  0  0  0  0  0  0
  -32.5154  -24.7808   18.9735 C   0  0  0  0  0  0  0  0  0  0  0  0
  -37.6947  -25.8040   14.9737 C   0  0  0  0  0  0  0  0  0  0  0  0
  -36.3643  -26.4931   16.9795 C   0  0  0  0  0  0  0  0  0  0  0  0
  -35.3043  -26.4946   14.7214 C   0  0  0  0  0  0  0  0  0  0  0  0
  -32.5947  -21.1117   17.9700 C   0  0  0  0  0  0  0  0  0  0  0  0
  -36.7739  -18.1921   19.6800 C   0  0  0  0  0  0  0  0  0  0  0  0
  -35.7502  -18.9358   20.5316 C   0  0  0  0  0  0  0  0  0  0  0  0
  -39.1704  -18.3042   18.7002 C   0  0  2  0  0  0  0  0  0  1  0  0
  -35.7986  -24.2906   15.8571 C   0  0  1  0  0  0  0  0  0  0  0  0
  -32.7874  -23.6006   18.0539 C   0  0  2  0  0  0  0  0  0  0  0  0
  -32.0606  -20.6639   23.1115 C   0  0  0  0  0  0  0  0  0  0  0  0
  -36.3014  -25.7444   15.6311 C   0  0  0  0  0  0  0  0  0  0  0  0
  -25.8072  -11.5339   20.3272 N   0  0  0  0  0  0  0  0  0  0  0  0
  -31.8214  -17.2610   21.4871 N   0  0  0  0  0  0  0  0  0  0  0  0
  -26.2058  -12.8080   20.1725 N   0  0  0  0  0  0  0  0  0  0  0  0
  -36.8962  -22.8007   14.2088 N   0  0  0  0  0  0  0  0  0  0  0  0
  -29.9451  -13.5440   20.4161 N   0  0  0  0  0  0  0  0  0  0  0  0
  -25.4703  -15.0524   20.3528 N   0  0  0  0  0  0  0  0  0  0  0  0
  -21.8302  -12.6634   21.5522 N   0  0  0  0  0  0  0  0  0  0  0  0
  -33.5606  -18.8643   21.5016 N   0  0  0  0  0  0  0  0  0  0  0  0
  -30.0717  -15.6487   21.4728 N   0  0  0  0  0  0  0  0  0  0  0  0
  -36.3479  -22.5244   10.7041 N   0  0  0  0  0  0  0  0  0  0  0  0
  -34.4700  -24.2037   16.4535 N   0  0  0  0  0  0  0  0  0  0  0  0
  -32.4012  -22.3503   18.7671 N   0  3  0  0  0  0  0  0  0  0  0  0
  -22.6429  -14.7835   21.2305 O   0  0  0  0  0  0  0  0  0  0  0  0
  -37.6923  -23.9248   11.9902 O   0  0  0  0  0  0  0  0  0  0  0  0
  -38.2206  -20.0933   20.0043 O   0  0  0  0  0  0  0  0  0  0  0  0
  -34.6970  -23.4988   13.9142 O   0  0  0  0  0  0  0  0  0  0  0  0
  -34.3016  -17.0356   20.2273 O   0  0  0  0  0  0  0  0  0  0  0  0
  -35.1068  -22.9766   18.3152 O   0  0  0  0  0  0  0  0  0  0  0  0
  -31.8552  -14.8333   20.2334 O   0  0  0  0  0  0  0  0  0  0  0  0
  -21.4693   -7.1096   21.7957 O   0  0  0  0  0  0  0  0  0  0  0  0
  -39.9020  -19.3055   17.9942 O   0  0  0  0  0  0  0  0  0  1  0  0
  -23.7954   -3.0928   24.7721 F   0  0  0  0  0  0  0  0  0  0  0  0
  -20.3743   -6.3148   24.2065 F   0  0  0  0  0  0  0  0  0  0  0  0
  -31.1934  -21.3859   23.8801 F   0  0  0  0  0  0  0  0  0  0  0  0
  -33.2042  -20.5734   23.8517 F   0  0  0  0  0  0  0  0  0  0  0  0
  -32.3702  -21.4673   22.0533 F   0  0  0  0  0  0  0  0  0  0  0  0
  1  2  1  0  0  0  0
  1  5  2  0  0  0  0
  2  6  2  0  0  0  0
  3  8  2  0  0  0  0
  3 16  1  0  0  0  0
  4  9  1  0  0  0  0
  4 16  2  0  0  0  0
  5 18  1  0  0  0  0
  6 20  1  0  0  0  0
  7 10  2  0  0  0  0
  7 19  1  0  0  0  0
  8 24  1  0  0  0  0
  9 24  2  0  0  0  0
 10 25  1  0  0  0  0
 11 12  2  0  0  0  0
 11 26  1  0  0  0  0
 12 27  1  0  0  0  0
 13 21  1  0  0  0  0
 13 25  2  0  0  0  0
 14 22  2  0  0  0  0
 14 30  1  0  0  0  0
 15 27  2  0  0  0  0
 15 28  1  0  0  0  0
 16 29  1  0  0  0  0
 17 29  1  0  0  0  0
 17 32  2  0  0  0  0
 17 33  1  0  0  0  0
 18 20  2  0  0  0  0
 18 40  1  0  0  0  0
 19 21  2  0  0  0  0
 19 41  1  0  0  0  0
 20 49  1  0  0  0  0
 21 42  1  0  0  0  0
 22 23  1  0  0  0  0
 22 52  1  0  0  0  0
 23 31  2  0  0  0  0
 23 64  1  0  0  0  0
 24 85  1  0  0  0  0
 25 86  1  0  0  0  0
 26 28  2  0  0  0  0
 26 85  1  0  0  0  0
 27 87  1  0  0  0  0
 28 88  1  0  0  0  0
 29 66  2  0  0  0  0
 30 67  2  0  0  0  0
 30 74  1  0  0  0  0
 31 67  1  0  0  0  0
 31 73  1  0  0  0  0
 32 68  1  0  0  0  0
 32 71  1  0  0  0  0
 33 72  1  0  0  0  0
 33 78  2  0  0  0  0
 34 50  1  0  0  0  0
 34 75  1  0  0  0  0
 34 79  2  0  0  0  0
 35 59  1  0  0  0  0
 35 61  1  0  0  0  0
 35 80  2  0  0  0  0
 36 62  1  0  0  0  0
 36 69  1  0  0  0  0
 36 81  2  0  0  0  0
 37 60  1  0  0  0  0
 37 73  1  0  0  0  0
 37 82  2  0  0  0  0
 38 63  1  0  0  0  0
 38 76  1  0  0  0  0
 38 83  2  0  0  0  0
 39 70  1  0  0  0  0
 39 74  1  0  0  0  0
 39 84  2  0  0  0  0
 40 43  1  0  0  0  0
 41 50  1  0  0  0  0
 42 69  1  0  0  0  0
 43 45  1  0  0  0  0
 44 46  1  0  0  0  0
 44 47  1  0  0  0  0
 45 49  1  0  0  0  0
 46 51  1  0  0  0  0
 47 70  1  0  0  0  0
 48 51  1  0  0  0  0
 48 70  1  0  0  0  0
 49 75  1  0  0  0  0
 50 69  1  0  0  0  0
 51 68  1  0  0  0  0
 53 61  1  0  0  0  0
 54 63  1  0  0  0  0
 55 65  1  0  0  0  0
 56 65  1  0  0  0  0
 57 65  1  0  0  0  0
 58 77  1  0  0  0  0
 59 60  1  0  0  0  0
 61 86  1  0  0  0  0
 62 65  1  0  0  0  0
 62 76  1  0  0  0  0
 63 77  1  0  0  0  0
 64 89  1  0  0  0  0
 64 90  1  0  0  0  0
 64 91  1  0  0  0  0
 66 68  1  0  0  0  0
M  CHG  1  77   1
M  ISO  4  39 100  61 101  74 100  86 101
M  END
> <Batch ID>
0177

> <Smiles>
CNC(C)C(=O)NC(C(=O)N1Cc2cc([101O:1][101CH:1](C)C(=O)CCC(=O)Nc3nc([100NH:0][100C:0](=O)N4CCCC(n5nc(-c6ccc(Oc7ccc(F)cc7F)cc6)c(C(N)=O)c5N)C4)cc(C)c3C(F)(F)F)ccc2CC1C(=O)NC1CCCc2ccccc21)C(C)(C)C

> <Shape>
0.174

> <Color>
0.190

> <Negative vol penalty>
0.000

$$$$

  -OEChem-04052304413D

 86 94  0     1  0  0  0  0  0999 V2000
  -24.6814  -21.9653   16.0049 C   0  0  0  0  0  0  0  0  0  0  0  0
  -25.1162  -20.6695   15.7501 C   0  0  0  0  0  0  0  0  0  0  0  0
  -26.4629  -28.1223   18.9156 C   0  0  0  0  0  0  0  0  0  0  0  0
  -26.3788  -27.2765   21.1772 C   0  0  0  0  0  0  0  0  0  0  0  0
  -24.3765  -22.3503   17.3087 C   0  0  0  0  0  0  0  0  0  0  0  0
  -25.2347  -19.7550   16.7971 C   0  0  0  0  0  0  0  0  0  0  0  0
  -27.3265  -14.0322   16.8402 C   0  0  0  0  0  0  0  0  0  0  0  0
  -25.3369  -28.9063   19.1669 C   0  0  0  0  0  0  0  0  0  0  0  0
  -25.2528  -28.0605   21.4285 C   0  0  0  0  0  0  0  0  0  0  0  0
  -28.5414  -13.3822   17.0529 C   0  0  0  0  0  0  0  0  0  0  0  0
  -22.5708  -30.1121   22.7761 C   0  0  0  0  0  0  0  0  0  0  0  0
  -22.5301  -30.8247   23.9745 C   0  0  0  0  0  0  0  0  0  0  0  0
  -27.9175  -12.9798   19.3481 C   0  0  0  0  0  0  0  0  0  0  0  0
  -24.5373  -32.0095   23.3382 C   0  0  0  0  0  0  0  0  0  0  0  0
  -29.1652  -17.2997   23.6111 C   0  0  0  0  0  0  0  0  0  0  0  0
  -28.7451  -19.5685   22.9326 C   0  0  0  0  0  0  0  0  0  0  0  0
  -26.9838  -27.3074   19.9207 C   0  0  0  0  0  0  0  0  0  0  0  0
  -29.4941  -26.8593   19.8474 C   0  0  0  0  0  0  0  0  0  0  0  0
  -24.5036  -21.4430   18.3735 C   0  0  0  0  0  0  0  0  0  0  0  0
  -26.4010  -14.1707   17.8846 C   0  0  0  0  0  0  0  0  0  0  0  0
  -24.9088  -20.1174   18.1166 C   0  0  0  0  0  0  0  0  0  0  0  0
  -26.6904  -13.6298   19.1455 C   0  0  0  0  0  0  0  0  0  0  0  0
  -24.7319  -28.8755   20.4233 C   0  0  0  0  0  0  0  0  0  0  0  0
  -28.8383  -12.8584   18.3077 C   0  0  0  0  0  0  0  0  0  0  0  0
  -23.5948  -30.3482   21.8587 C   0  0  0  0  0  0  0  0  0  0  0  0
  -23.5133  -31.7733   24.2555 C   0  0  0  0  0  0  0  0  0  0  0  0
  -24.5779  -31.2969   22.1397 C   0  0  0  0  0  0  0  0  0  0  0  0
  -28.8807  -18.6202   23.9404 C   0  0  0  0  0  0  0  0  0  0  0  0
  -28.1465  -26.4969   19.6616 C   0  0  0  0  0  0  0  0  0  0  0  0
  -29.3035  -16.9811   22.2698 C   0  0  0  0  0  0  0  0  0  0  0  0
  -28.9024  -19.1484   21.6216 C   0  0  0  0  0  0  0  0  0  0  0  0
  -30.2047  -25.7498   19.4598 C   0  0  0  0  0  0  0  0  0  0  0  0
  -30.4087  -15.5180   20.6021 C   0  0  0  0  0  0  0  0  0  0  0  0
  -30.0534  -28.0891   20.3277 C   0  0  0  0  0  0  0  0  0  0  0  0
  -25.0980  -16.6331   19.4152 C   0  0  0  0  0  0  0  0  0  0  0  0
  -31.9085  -14.5500   19.1808 C   0  0  0  0  0  0  0  0  0  0  0  0
  -23.3262  -14.3141   20.8313 C   0  0  0  0  0  0  0  0  0  0  0  0
  -23.0340  -11.0359   21.7338 C   0  0  0  0  0  0  0  0  0  0  0  0
  -28.8777  -19.9283   19.2263 C   0  0  0  0  0  0  0  0  0  0  0  0
  -24.1527  -21.9105   19.7640 C   0  0  0  0  0  0  0  0  0  0  0  0
  -25.0836  -14.8511   17.6318 C   0  0  0  0  0  0  0  0  0  0  0  0
  -25.7222  -13.7342   20.2944 C   0  0  0  0  0  0  0  0  0  0  0  0
  -24.7299  -21.0152   20.8555 C   0  0  0  0  0  0  0  0  0  0  0  0
  -29.9497  -21.9782   16.5197 C   0  0  0  0  0  0  0  0  0  0  0  0
  -24.4125  -19.5581   20.5545 C   0  0  0  0  0  0  0  0  0  0  0  0
  -29.7373  -23.4026   17.0374 C   0  0  0  0  0  0  0  0  0  0  0  0
  -28.8515  -21.0307   16.9994 C   0  0  0  0  0  0  0  0  0  0  0  0
  -28.4177  -22.4458   18.9688 C   0  0  0  0  0  0  0  0  0  0  0  0
  -25.0746  -19.1144   19.2439 C   0  0  1  0  0  0  0  0  0  0  0  0
  -24.4336  -15.3861   18.9041 C   0  0  1  0  0  0  0  0  0  0  0  0
  -29.5343  -23.4225   18.5652 C   0  0  2  0  0  0  0  0  0  0  0  0
  -21.4899   -9.4474   22.9128 C   0  0  0  0  0  0  0  0  0  0  0  0
  -31.6273  -11.4819   16.9004 C   0  0  0  0  0  0  0  0  0  0  0  0
  -24.2064  -15.4576   23.5197 C   0  0  0  0  0  0  0  0  0  0  0  0
  -23.4469  -13.3282   24.5954 C   0  0  0  0  0  0  0  0  0  0  0  0
  -21.8012  -14.7813   23.4109 C   0  0  0  0  0  0  0  0  0  0  0  0
  -22.7001   -9.3761   19.3064 C   0  0  0  0  0  0  0  0  0  0  0  0
  -29.6120  -15.5621   21.8761 C   0  0  0  0  0  0  0  0  0  0  0  0
  -32.2319  -13.1543   18.6803 C   0  0  0  0  0  0  0  0  0  0  0  0
  -23.4785  -13.4543   22.0628 C   0  0  1  0  0  0  0  0  0  0  0  0
  -21.8952  -10.0449   21.5743 C   0  0  2  0  0  0  0  0  0  0  0  0
  -31.1384  -12.6551   17.7386 C   0  0  2  0  0  0  0  0  0  1  0  0
  -23.2525  -14.2549   23.3763 C   0  0  0  0  0  0  0  0  0  0  0  0
  -28.0069  -25.2542   19.1921 N   0  0  0  0  0  0  0  0  0  0  0  0
  -29.1789  -17.8746   21.2629 N   0  0  0  0  0  0  0  0  0  0  0  0
  -31.2239  -14.5422   20.3768 N   0  0  0  0  0  0  0  0  0  0  0  0
  -29.2759  -24.8262   19.0797 N   0  0  0  0  0  0  0  0  0  0  0  0
  -24.4502  -14.4140   19.9991 N   0  0  0  0  0  0  0  0  0  0  0  0
  -28.7192  -21.1000   18.4563 N   0  0  0  0  0  0  0  0  0  0  0  0
  -31.5273  -25.4838   19.4103 N   0  0  0  0  0  0  0  0  0  0  0  0
  -29.1805  -29.1266   20.6824 N   0  0  0  0  0  0  0  0  0  0  0  0
  -28.7623  -20.1227   20.6024 N   0  0  0  0  0  0  0  0  0  0  0  0
  -24.5831  -17.8017   18.8875 N   0  0  0  0  0  0  0  0  0  0  0  0
  -22.5710  -12.3256   21.8873 N   0  0  0  0  0  0  0  0  0  0  0  0
  -22.2987   -8.9339   20.6666 N   0  3  0  0  0  0  0  0  0  0  0  0
  -31.2912  -28.2685   20.4234 O   0  0  0  0  0  0  0  0  0  0  0  0
  -26.0094  -16.5418   20.2293 O   0  0  0  0  0  0  0  0  0  0  0  0
  -32.2389  -15.5408   18.5309 O   0  0  0  0  0  0  0  0  0  0  0  0
  -22.2474  -14.8707   20.6120 O   0  0  0  0  0  0  0  0  0  0  0  0
  -24.2160  -10.6991   21.7270 O   0  0  0  0  0  0  0  0  0  0  0  0
  -29.1263  -18.8380   18.7053 O   0  0  0  0  0  0  0  0  0  0  0  0
  -23.6333  -29.6405   20.6690 O   0  0  0  0  0  0  0  0  0  0  0  0
  -30.0237  -12.2240   18.5182 O   0  0  0  0  0  0  0  0  0  1  0  0
  -23.4733  -32.4586   25.4057 F   0  0  0  0  0  0  0  0  0  0  0  0
  -25.5635  -31.5288   21.2618 F   0  0  0  0  0  0  0  0  0  0  0  0
  -28.7374  -18.9766   25.2234 F   0  0  0  0  0  0  0  0  0  0  0  0
  1  2  1  0  0  0  0
  1  5  2  0  0  0  0
  2  6  2  0  0  0  0
  3  8  2  0  0  0  0
  3 17  1  0  0  0  0
  4  9  1  0  0  0  0
  4 17  2  0  0  0  0
  5 19  1  0  0  0  0
  6 21  1  0  0  0  0
  7 10  2  0  0  0  0
  7 20  1  0  0  0  0
  8 23  1  0  0  0  0
  9 23  2  0  0  0  0
 10 24  1  0  0  0  0
 11 12  2  0  0  0  0
 11 25  1  0  0  0  0
 12 26  1  0  0  0  0
 13 22  1  0  0  0  0
 13 24  2  0  0  0  0
 14 26  2  0  0  0  0
 14 27  1  0  0  0  0
 15 28  2  0  0  0  0
 15 30  1  0  0  0  0
 16 28  1  0  0  0  0
 16 31  2  0  0  0  0
 17 29  1  0  0  0  0
 18 29  1  0  0  0  0
 18 32  2  0  0  0  0
 18 34  1  0  0  0  0
 19 21  2  0  0  0  0
 19 40  1  0  0  0  0
 20 22  2  0  0  0  0
 20 41  1  0  0  0  0
 21 49  1  0  0  0  0
 22 42  1  0  0  0  0
 23 82  1  0  0  0  0
 24 83  1  0  0  0  0
 25 27  2  0  0  0  0
 25 82  1  0  0  0  0
 26 84  1  0  0  0  0
 27 85  1  0  0  0  0
 28 86  1  0  0  0  0
 29 64  2  0  0  0  0
 30 58  1  0  0  0  0
 30 65  2  0  0  0  0
 31 65  1  0  0  0  0
 31 72  1  0  0  0  0
 32 67  1  0  0  0  0
 32 70  1  0  0  0  0
 33 58  1  0  0  0  0
 33 66  2  0  0  0  0
 34 71  1  0  0  0  0
 34 76  2  0  0  0  0
 35 50  1  0  0  0  0
 35 73  1  0  0  0  0
 35 77  2  0  0  0  0
 36 59  1  0  0  0  0
 36 66  1  0  0  0  0
 36 78  2  0  0  0  0
 37 60  1  0  0  0  0
 37 68  1  0  0  0  0
 37 79  2  0  0  0  0
 38 61  1  0  0  0  0
 38 74  1  0  0  0  0
 38 80  2  0  0  0  0
 39 69  1  0  0  0  0
 39 72  1  0  0  0  0
 39 81  2  0  0  0  0
 40 43  1  0  0  0  0
 41 50  1  0  0  0  0
 42 68  1  0  0  0  0
 43 45  1  0  0  0  0
 44 46  1  0  0  0  0
 44 47  1  0  0  0  0
 45 49  1  0  0  0  0
 46 51  1  0  0  0  0
 47 69  1  0  0  0  0
 48 51  1  0  0  0  0
 48 69  1  0  0  0  0
 49 73  1  0  0  0  0
 50 68  1  0  0  0  0
 51 67  1  0  0  0  0
 52 61  1  0  0  0  0
 53 62  1  0  0  0  0
 54 63  1  0  0  0  0
 55 63  1  0  0  0  0
 56 63  1  0  0  0  0
 57 75  1  0  0  0  0
 59 62  1  0  0  0  0
 60 63  1  0  0  0  0
 60 74  1  0  0  0  0
 61 75  1  0  0  0  0
 62 83  1  0  0  0  0
 64 67  1  0  0  0  0
M  CHG  1  75   1
M  ISO  4  39 100  62 101  72 100  83 101
M  END
> <Batch ID>
0177

> <Smiles>
CNC(C)C(=O)NC(C(=O)N1Cc2cc([101O:1][101CH:1](C)CC(=O)NC=Cc3cc(F)cc([100NH:0][100C:0](=O)N4CCCC(n5nc(-c6ccc(Oc7ccc(F)cc7F)cc6)c(C(N)=O)c5N)C4)n3)ccc2CC1C(=O)NC1CCCc2ccccc21)C(C)(C)C

> <Shape>
0.291

> <Color>
0.073

> <Negative vol penalty>
0.000

$$$$

  -OEChem-04052304413D

 85 93  0     1  0  0  0  0  0999 V2000
  -22.8127  -23.9336   19.1997 C   0  0  0  0  0  0  0  0  0  0  0  0
  -23.8772  -23.2408   19.7672 C   0  0  0  0  0  0  0  0  0  0  0  0
  -20.2857  -27.7268   23.5806 C   0  0  0  0  0  0  0  0  0  0  0  0
  -20.0412  -26.2802   21.6611 C   0  0  0  0  0  0  0  0  0  0  0  0
  -21.5209  -23.4160   19.2848 C   0  0  0  0  0  0  0  0  0  0  0  0
  -23.6504  -22.0303   20.4212 C   0  0  0  0  0  0  0  0  0  0  0  0
  -27.0387  -18.4811   19.1692 C   0  0  0  0  0  0  0  0  0  0  0  0
  -18.9086  -27.9486   23.5888 C   0  0  0  0  0  0  0  0  0  0  0  0
  -18.6641  -26.5019   21.6693 C   0  0  0  0  0  0  0  0  0  0  0  0
  -28.2952  -18.5609   19.7680 C   0  0  0  0  0  0  0  0  0  0  0  0
  -16.6799  -29.8364   21.8878 C   0  0  0  0  0  0  0  0  0  0  0  0
  -16.2365  -31.1484   22.0542 C   0  0  0  0  0  0  0  0  0  0  0  0
  -27.6444  -16.8570   21.3467 C   0  0  0  0  0  0  0  0  0  0  0  0
  -15.0580  -30.4957   24.0598 C   0  0  0  0  0  0  0  0  0  0  0  0
  -20.8520  -26.8927   22.6167 C   0  0  0  0  0  0  0  0  0  0  0  0
  -22.9765  -25.6478   23.2833 C   0  0  0  0  0  0  0  0  0  0  0  0
  -21.2795  -22.1938   19.9318 C   0  0  0  0  0  0  0  0  0  0  0  0
  -26.0702  -17.5949   19.6623 C   0  0  0  0  0  0  0  0  0  0  0  0
  -22.3540  -21.4965   20.5162 C   0  0  0  0  0  0  0  0  0  0  0  0
  -26.3772  -16.7660   20.7508 C   0  0  0  0  0  0  0  0  0  0  0  0
  -18.0978  -27.3361   22.6332 C   0  0  0  0  0  0  0  0  0  0  0  0
  -28.5972  -17.7509   20.8587 C   0  0  0  0  0  0  0  0  0  0  0  0
  -16.3123  -28.8540   22.8073 C   0  0  0  0  0  0  0  0  0  0  0  0
  -15.4256  -31.4780   23.1402 C   0  0  0  0  0  0  0  0  0  0  0  0
  -15.5014  -29.1837   23.8933 C   0  0  0  0  0  0  0  0  0  0  0  0
  -22.2745  -26.6637   22.6073 C   0  0  0  0  0  0  0  0  0  0  0  0
  -31.4126  -23.4405   20.4196 C   0  0  0  0  0  0  0  0  0  0  0  0
  -31.7069  -24.2843   19.3691 C   0  0  0  0  0  0  0  0  0  0  0  0
  -24.2925  -25.8618   22.9534 C   0  0  0  0  0  0  0  0  0  0  0  0
  -29.7701  -25.1372   19.9445 C   0  0  0  0  0  0  0  0  0  0  0  0
  -22.4831  -24.6039   24.1334 C   0  0  0  0  0  0  0  0  0  0  0  0
  -32.1751  -22.3002   20.9899 C   0  0  0  0  0  0  0  0  0  0  0  0
  -23.1721  -17.9168   20.9277 C   0  0  0  0  0  0  0  0  0  0  0  0
  -31.4006  -19.2546   22.5994 C   0  0  0  0  0  0  0  0  0  0  0  0
  -23.1740  -14.6763   20.7810 C   0  0  0  0  0  0  0  0  0  0  0  0
  -24.9793  -11.7824   20.6649 C   0  0  0  0  0  0  0  0  0  0  0  0
  -28.2511  -27.0076   19.2091 C   0  0  0  0  0  0  0  0  0  0  0  0
  -19.8594  -21.6976   20.0396 C   0  0  0  0  0  0  0  0  0  0  0  0
  -24.7287  -17.5017   18.9884 C   0  0  0  0  0  0  0  0  0  0  0  0
  -25.3796  -15.7835   21.3055 C   0  0  0  0  0  0  0  0  0  0  0  0
  -19.7566  -20.2238   20.4238 C   0  0  0  0  0  0  0  0  0  0  0  0
  -26.5114  -29.7716   20.6272 C   0  0  0  0  0  0  0  0  0  0  0  0
  -20.6881  -19.9100   21.5903 C   0  0  0  0  0  0  0  0  0  0  0  0
  -25.3118  -29.1259   21.3244 C   0  0  0  0  0  0  0  0  0  0  0  0
  -26.8570  -29.0617   19.3194 C   0  0  0  0  0  0  0  0  0  0  0  0
  -25.8500  -26.9646   20.1301 C   0  0  0  0  0  0  0  0  0  0  0  0
  -22.1517  -20.1681   21.2124 C   0  0  1  0  0  0  0  0  0  0  0  0
  -23.6427  -16.9314   19.8955 C   0  0  1  0  0  0  0  0  0  0  0  0
  -25.5045  -27.6051   21.4844 C   0  0  2  0  0  0  0  0  0  0  0  0
  -32.4462  -20.8788   24.2060 C   0  0  0  0  0  0  0  0  0  0  0  0
  -24.7021   -9.2895   20.5891 C   0  0  0  0  0  0  0  0  0  0  0  0
  -22.4739  -14.6662   23.7508 C   0  0  0  0  0  0  0  0  0  0  0  0
  -23.1395  -12.2539   23.8282 C   0  0  0  0  0  0  0  0  0  0  0  0
  -21.2393  -12.9759   22.3822 C   0  0  0  0  0  0  0  0  0  0  0  0
  -26.3605  -11.5919   18.0544 C   0  0  0  0  0  0  0  0  0  0  0  0
  -30.4884  -19.0885   21.3973 C   0  0  0  0  0  0  0  0  0  1  0  0
  -32.2113  -20.5429   22.7411 C   0  0  2  0  0  0  0  0  0  0  0  0
  -23.6037  -13.5644   21.7074 C   0  0  1  0  0  0  0  0  0  0  0  0
  -24.8675  -10.5607   19.7709 C   0  0  2  0  0  0  0  0  0  0  0  0
  -22.6325  -13.3849   22.9082 C   0  0  0  0  0  0  0  0  0  0  0  0
  -23.0781  -27.4637   21.9014 N   0  0  0  0  0  0  0  0  0  0  0  0
  -30.7661  -25.2576   19.0950 N   0  0  0  0  0  0  0  0  0  0  0  0
  -24.2986  -26.9506   22.1321 N   0  0  0  0  0  0  0  0  0  0  0  0
  -24.0796  -15.7340   20.6163 N   0  0  0  0  0  0  0  0  0  0  0  0
  -27.0291  -27.6256   19.5490 N   0  0  0  0  0  0  0  0  0  0  0  0
  -32.8371  -24.2001   18.6270 N   0  0  0  0  0  0  0  0  0  0  0  0
  -25.4335  -25.2229   23.2887 N   0  0  0  0  0  0  0  0  0  0  0  0
  -21.1032  -24.5286   24.3668 N   0  0  0  0  0  0  0  0  0  0  0  0
  -28.5974  -25.9287   20.0219 N   0  0  0  0  0  0  0  0  0  0  0  0
  -31.5855  -21.6488   22.0661 N   0  0  0  0  0  0  0  0  0  0  0  0
  -22.6617  -19.0863   20.3975 N   0  0  0  0  0  0  0  0  0  0  0  0
  -23.7522  -12.3749   20.8759 N   0  0  0  0  0  0  0  0  0  0  0  0
  -26.0890  -10.4218   18.9285 N   0  3  0  0  0  0  0  0  0  0  0  0
  -23.2450  -23.7729   24.6832 O   0  0  0  0  0  0  0  0  0  0  0  0
  -33.2678  -22.0093   20.5104 O   0  0  0  0  0  0  0  0  0  0  0  0
  -23.2639  -17.6361   22.1170 O   0  0  0  0  0  0  0  0  0  0  0  0
  -31.5293  -18.3463   23.4249 O   0  0  0  0  0  0  0  0  0  0  0  0
  -22.0785  -14.6054   20.2185 O   0  0  0  0  0  0  0  0  0  0  0  0
  -26.0477  -12.1701   21.1326 O   0  0  0  0  0  0  0  0  0  0  0  0
  -28.9530  -27.4231   18.2835 O   0  0  0  0  0  0  0  0  0  0  0  0
  -16.7540  -27.5521   22.6411 O   0  0  0  0  0  0  0  0  0  0  0  0
  -29.8227  -17.8272   21.4455 O   0  0  0  0  0  0  0  0  0  1  0  0
  -15.0011  -32.7383   23.3007 F   0  0  0  0  0  0  0  0  0  0  0  0
  -15.1459  -28.2445   24.7806 F   0  0  0  0  0  0  0  0  0  0  0  0
  -29.8996  -23.8753   21.1002 S   0  0  0  0  0  0  0  0  0  0  0  0
  1  2  1  0  0  0  0
  1  5  2  0  0  0  0
  2  6  2  0  0  0  0
  3  8  2  0  0  0  0
  3 15  1  0  0  0  0
  4  9  1  0  0  0  0
  4 15  2  0  0  0  0
  5 17  1  0  0  0  0
  6 19  1  0  0  0  0
  7 10  2  0  0  0  0
  7 18  1  0  0  0  0
  8 21  1  0  0  0  0
  9 21  2  0  0  0  0
 10 22  1  0  0  0  0
 11 12  2  0  0  0  0
 11 23  1  0  0  0  0
 12 24  1  0  0  0  0
 13 20  1  0  0  0  0
 13 22  2  0  0  0  0
 14 24  2  0  0  0  0
 14 25  1  0  0  0  0
 15 26  1  0  0  0  0
 16 26  1  0  0  0  0
 16 29  2  0  0  0  0
 16 31  1  0  0  0  0
 17 19  2  0  0  0  0
 17 38  1  0  0  0  0
 18 20  2  0  0  0  0
 18 39  1  0  0  0  0
 19 47  1  0  0  0  0
 20 40  1  0  0  0  0
 21 81  1  0  0  0  0
 22 82  1  0  0  0  0
 23 25  2  0  0  0  0
 23 81  1  0  0  0  0
 24 83  1  0  0  0  0
 25 84  1  0  0  0  0
 26 61  2  0  0  0  0
 27 28  2  0  0  0  0
 27 32  1  0  0  0  0
 27 85  1  0  0  0  0
 28 62  1  0  0  0  0
 28 66  1  0  0  0  0
 29 63  1  0  0  0  0
 29 67  1  0  0  0  0
 30 62  2  0  0  0  0
 30 69  1  0  0  0  0
 30 85  1  0  0  0  0
 31 68  1  0  0  0  0
 31 74  2  0  0  0  0
 32 70  1  0  0  0  0
 32 75  2  0  0  0  0
 33 48  1  0  0  0  0
 33 71  1  0  0  0  0
 33 76  2  0  0  0  0
 34 56  1  0  0  0  0
 34 57  1  0  0  0  0
 34 77  2  0  0  0  0
 35 58  1  0  0  0  0
 35 64  1  0  0  0  0
 35 78  2  0  0  0  0
 36 59  1  0  0  0  0
 36 72  1  0  0  0  0
 36 79  2  0  0  0  0
 37 65  1  0  0  0  0
 37 69  1  0  0  0  0
 37 80  2  0  0  0  0
 38 41  1  0  0  0  0
 39 48  1  0  0  0  0
 40 64  1  0  0  0  0
 41 43  1  0  0  0  0
 42 44  1  0  0  0  0
 42 45  1  0  0  0  0
 43 47  1  0  0  0  0
 44 49  1  0  0  0  0
 45 65  1  0  0  0  0
 46 49  1  0  0  0  0
 46 65  1  0  0  0  0
 47 71  1  0  0  0  0
 48 64  1  0  0  0  0
 49 63  1  0  0  0  0
 50 57  1  0  0  0  0
 51 59  1  0  0  0  0
 52 60  1  0  0  0  0
 53 60  1  0  0  0  0
 54 60  1  0  0  0  0
 55 73  1  0  0  0  0
 56 82  1  0  0  0  0
 57 70  1  0  0  0  0
 58 60  1  0  0  0  0
 58 72  1  0  0  0  0
 59 73  1  0  0  0  0
 61 63  1  0  0  0  0
M  CHG  1  73   1
M  ISO  4  37 100  56 101  69 100  82 101
M  END
> <Batch ID>
0177

> <Smiles>
CNC(C)C(=O)NC(C(=O)N1Cc2cc([101O:1][101CH2:1]C(=O)C(C)NC(=O)c3sc([100NH:0][100C:0](=O)N4CCCC(n5nc(-c6ccc(Oc7ccc(F)cc7F)cc6)c(C(N)=O)c5N)C4)nc3N)ccc2CC1C(=O)NC1CCCc2ccccc21)C(C)(C)C

> <Shape>
0.204

> <Color>
0.071

> <Negative vol penalty>
0.000

$$$$

  -OEChem-04052304413D

 86 94  0     1  0  0  0  0  0999 V2000
  -30.6461  -36.0246   20.9549 C   0  0  0  0  0  0  0  0  0  0  0  0
  -30.5553  -34.6369   20.9927 C   0  0  0  0  0  0  0  0  0  0  0  0
  -24.2825   -8.4851   20.4383 C   0  0  0  0  0  0  0  0  0  0  0  0
  -22.8514  -10.3132   21.1069 C   0  0  0  0  0  0  0  0  0  0  0  0
  -29.7184  -36.8018   21.6472 C   0  0  0  0  0  0  0  0  0  0  0  0
  -29.5373  -34.0256   21.7238 C   0  0  0  0  0  0  0  0  0  0  0  0
  -27.3260  -30.2418   19.1865 C   0  0  0  0  0  0  0  0  0  0  0  0
  -23.3194   -7.5732   20.8698 C   0  0  0  0  0  0  0  0  0  0  0  0
  -21.8881   -9.4012   21.5383 C   0  0  0  0  0  0  0  0  0  0  0  0
  -28.0077  -29.0268   19.1335 C   0  0  0  0  0  0  0  0  0  0  0  0
  -21.3865   -4.7610   22.1264 C   0  0  0  0  0  0  0  0  0  0  0  0
  -21.8168   -3.6683   22.8790 C   0  0  0  0  0  0  0  0  0  0  0  0
  -26.6049  -28.1696   20.8989 C   0  0  0  0  0  0  0  0  0  0  0  0
  -27.6272  -19.8888   18.9885 C   0  0  0  0  0  0  0  0  0  0  0  0
  -29.0413  -18.9613   21.2073 C   0  0  0  0  0  0  0  0  0  0  0  0
  -22.6949   -5.1693   24.5562 C   0  0  0  0  0  0  0  0  0  0  0  0
  -24.0486   -9.8551   20.5569 C   0  0  0  0  0  0  0  0  0  0  0  0
  -25.1651  -11.3627   18.8282 C   0  0  0  0  0  0  0  0  0  0  0  0
  -28.6828  -36.1999   22.3792 C   0  0  0  0  0  0  0  0  0  0  0  0
  -26.2841  -30.4338   20.1052 C   0  0  0  0  0  0  0  0  0  0  0  0
  -28.5957  -34.7955   22.4277 C   0  0  0  0  0  0  0  0  0  0  0  0
  -25.9099  -29.3871   20.9599 C   0  0  0  0  0  0  0  0  0  0  0  0
  -28.2126  -20.7960   19.8715 C   0  0  0  0  0  0  0  0  0  0  0  0
  -28.4558  -18.0540   20.3243 C   0  0  0  0  0  0  0  0  0  0  0  0
  -22.1221   -8.0312   21.4198 C   0  0  0  0  0  0  0  0  0  0  0  0
  -27.6491  -27.9914   19.9918 C   0  0  0  0  0  0  0  0  0  0  0  0
  -21.6104   -6.0579   22.5887 C   0  0  0  0  0  0  0  0  0  0  0  0
  -22.4710   -3.8724   24.0939 C   0  0  0  0  0  0  0  0  0  0  0  0
  -28.9197  -20.3323   20.9809 C   0  0  0  0  0  0  0  0  0  0  0  0
  -27.7488  -18.5177   19.2149 C   0  0  0  0  0  0  0  0  0  0  0  0
  -22.2646   -6.2620   23.8036 C   0  0  0  0  0  0  0  0  0  0  0  0
  -25.0434  -10.7977   20.1118 C   0  0  0  0  0  0  0  0  0  0  0  0
  -26.2596  -12.1876   18.9185 C   0  0  0  0  0  0  0  0  0  0  0  0
  -24.3607  -11.1601   17.6588 C   0  0  0  0  0  0  0  0  0  0  0  0
  -27.4974  -24.2920   18.6781 C   0  0  0  0  0  0  0  0  0  0  0  0
  -27.4180  -22.7947   18.6001 C   0  0  0  0  0  0  0  0  0  0  0  0
  -25.7856  -32.3996   22.5528 C   0  0  0  0  0  0  0  0  0  0  0  0
  -22.8439  -31.0326   22.5474 C   0  0  0  0  0  0  0  0  0  0  0  0
  -20.8948  -28.3554   21.7226 C   0  0  0  0  0  0  0  0  0  0  0  0
  -29.2480  -16.0380   21.6105 C   0  0  0  0  0  0  0  0  0  0  0  0
  -27.7318  -37.0808   23.1501 C   0  0  0  0  0  0  0  0  0  0  0  0
  -25.5410  -31.7413   20.1315 C   0  0  0  0  0  0  0  0  0  0  0  0
  -24.7851  -29.5356   21.9504 C   0  0  0  0  0  0  0  0  0  0  0  0
  -26.4607  -36.3619   23.5950 C   0  0  0  0  0  0  0  0  0  0  0  0
  -29.7506  -12.6422   22.5556 C   0  0  0  0  0  0  0  0  0  0  0  0
  -26.8006  -35.0082   24.2103 C   0  0  0  0  0  0  0  0  0  0  0  0
  -28.5807  -11.9061   21.8985 C   0  0  0  0  0  0  0  0  0  0  0  0
  -29.3388  -14.0233   23.0623 C   0  0  0  0  0  0  0  0  0  0  0  0
  -27.5178  -14.1458   21.4076 C   0  0  0  0  0  0  0  0  0  0  0  0
  -27.4910  -34.0958   23.1894 C   0  0  1  0  0  0  0  0  0  0  0  0
  -24.8356  -32.0011   21.4590 C   0  0  1  0  0  0  0  0  0  0  0  0
  -27.9000  -12.7759   20.8236 C   0  0  2  0  0  0  0  0  0  0  0  0
  -18.5362  -27.5129   21.8799 C   0  0  0  0  0  0  0  0  0  0  0  0
  -23.2685  -30.4029   25.5026 C   0  0  0  0  0  0  0  0  0  0  0  0
  -21.3707  -28.7765   25.3571 C   0  0  0  0  0  0  0  0  0  0  0  0
  -20.9695  -31.2005   24.9258 C   0  0  0  0  0  0  0  0  0  0  0  0
  -20.6289  -28.2054   18.7788 C   0  0  0  0  0  0  0  0  0  0  0  0
  -28.8815  -24.8966   18.5898 C   0  0  0  0  0  0  0  0  0  0  0  0
  -28.8540  -26.4148   18.6808 C   0  0  0  0  0  0  0  0  0  1  0  0
  -22.2237  -29.8277   23.2127 C   0  0  1  0  0  0  0  0  0  0  0  0
  -19.5472  -28.2660   21.0294 C   0  0  2  0  0  0  0  0  0  0  0  0
  -21.9806  -30.0494   24.7323 C   0  0  0  0  0  0  0  0  0  0  0  0
  -25.9855  -11.2272   20.9557 N   0  0  0  0  0  0  0  0  0  0  0  0
  -26.7096  -12.0708   20.2007 N   0  0  0  0  0  0  0  0  0  0  0  0
  -24.0931  -30.8351   21.9422 N   0  0  0  0  0  0  0  0  0  0  0  0
  -28.7049  -14.7920   21.9889 N   0  0  0  0  0  0  0  0  0  0  0  0
  -26.8714  -12.9942   18.0254 N   0  0  0  0  0  0  0  0  0  0  0  0
  -23.2741  -10.2787   17.7398 N   0  0  0  0  0  0  0  0  0  0  0  0
  -28.0872  -22.1856   19.6397 N   0  0  0  0  0  0  0  0  0  0  0  0
  -28.5805  -16.6619   20.5570 N   0  0  0  0  0  0  0  0  0  0  0  0
  -26.5201  -33.5363   22.2736 N   0  0  0  0  0  0  0  0  0  0  0  0
  -21.0170  -29.5181   22.4535 N   0  0  0  0  0  0  0  0  0  0  0  0
  -19.6820  -27.5597   19.7240 N   0  3  0  0  0  0  0  0  0  0  0  0
  -24.6084  -11.7308   16.5695 O   0  0  0  0  0  0  0  0  0  0  0  0
  -26.4458  -24.9028   18.7945 O   0  0  0  0  0  0  0  0  0  0  0  0
  -26.7728  -22.3293   17.6755 O   0  0  0  0  0  0  0  0  0  0  0  0
  -25.8465  -31.7266   23.5751 O   0  0  0  0  0  0  0  0  0  0  0  0
  -22.2389  -32.1075   22.5579 O   0  0  0  0  0  0  0  0  0  0  0  0
  -21.7517  -27.4794   21.6283 O   0  0  0  0  0  0  0  0  0  0  0  0
  -30.2490  -16.5037   22.1610 O   0  0  0  0  0  0  0  0  0  0  0  0
  -21.1819   -7.1416   21.8407 O   0  0  0  0  0  0  0  0  0  0  0  0
  -28.3133  -26.8047   19.9425 O   0  0  0  0  0  0  0  0  0  1  0  0
  -22.8828   -2.8230   24.8172 F   0  0  0  0  0  0  0  0  0  0  0  0
  -29.4871  -21.1953   21.8358 F   0  0  0  0  0  0  0  0  0  0  0  0
  -27.1822  -17.6549   18.3593 F   0  0  0  0  0  0  0  0  0  0  0  0
  -22.4816   -7.5055   24.2534 F   0  0  0  0  0  0  0  0  0  0  0  0
  1  2  1  0  0  0  0
  1  5  2  0  0  0  0
  2  6  2  0  0  0  0
  3  8  2  0  0  0  0
  3 17  1  0  0  0  0
  4  9  1  0  0  0  0
  4 17  2  0  0  0  0
  5 19  1  0  0  0  0
  6 21  1  0  0  0  0
  7 10  2  0  0  0  0
  7 20  1  0  0  0  0
  8 25  1  0  0  0  0
  9 25  2  0  0  0  0
 10 26  1  0  0  0  0
 11 12  2  0  0  0  0
 11 27  1  0  0  0  0
 12 28  1  0  0  0  0
 13 22  1  0  0  0  0
 13 26  2  0  0  0  0
 14 23  1  0  0  0  0
 14 30  2  0  0  0  0
 15 24  2  0  0  0  0
 15 29  1  0  0  0  0
 16 28  2  0  0  0  0
 16 31  1  0  0  0  0
 17 32  1  0  0  0  0
 18 32  1  0  0  0  0
 18 33  2  0  0  0  0
 18 34  1  0  0  0  0
 19 21  2  0  0  0  0
 19 41  1  0  0  0  0
 20 22  2  0  0  0  0
 20 42  1  0  0  0  0
 21 50  1  0  0  0  0
 22 43  1  0  0  0  0
 23 29  2  0  0  0  0
 23 69  1  0  0  0  0
 24 30  1  0  0  0  0
 24 70  1  0  0  0  0
 25 81  1  0  0  0  0
 26 82  1  0  0  0  0
 27 31  2  0  0  0  0
 27 81  1  0  0  0  0
 28 83  1  0  0  0  0
 29 84  1  0  0  0  0
 30 85  1  0  0  0  0
 31 86  1  0  0  0  0
 32 63  2  0  0  0  0
 33 64  1  0  0  0  0
 33 67  1  0  0  0  0
 34 68  1  0  0  0  0
 34 74  2  0  0  0  0
 35 36  1  0  0  0  0
 35 58  1  0  0  0  0
 35 75  2  0  0  0  0
 36 69  1  0  0  0  0
 36 76  2  0  0  0  0
 37 51  1  0  0  0  0
 37 71  1  0  0  0  0
 37 77  2  0  0  0  0
 38 60  1  0  0  0  0
 38 65  1  0  0  0  0
 38 78  2  0  0  0  0
 39 61  1  0  0  0  0
 39 72  1  0  0  0  0
 39 79  2  0  0  0  0
 40 66  1  0  0  0  0
 40 70  1  0  0  0  0
 40 80  2  0  0  0  0
 41 44  1  0  0  0  0
 42 51  1  0  0  0  0
 43 65  1  0  0  0  0
 44 46  1  0  0  0  0
 45 47  1  0  0  0  0
 45 48  1  0  0  0  0
 46 50  1  0  0  0  0
 47 52  1  0  0  0  0
 48 66  1  0  0  0  0
 49 52  1  0  0  0  0
 49 66  1  0  0  0  0
 50 71  1  0  0  0  0
 51 65  1  0  0  0  0
 52 64  1  0  0  0  0
 53 61  1  0  0  0  0
 54 62  1  0  0  0  0
 55 62  1  0  0  0  0
 56 62  1  0  0  0  0
 57 73  1  0  0  0  0
 58 59  1  0  0  0  0
 59 82  1  0  0  0  0
 60 62  1  0  0  0  0
 60 72  1  0  0  0  0
 61 73  1  0  0  0  0
 63 64  1  0  0  0  0
M  CHG  1  73   1
M  ISO  4  40 100  59 101  70 100  82 101
M  END
> <Batch ID>
0177

> <Smiles>
CNC(C)C(=O)NC(C(=O)N1Cc2cc([101O:1][101CH2:1]CC(=O)C(=O)Nc3cc(F)c([100NH:0][100C:0](=O)N4CCCC(n5nc(-c6ccc(Oc7ccc(F)cc7F)cc6)c(C(N)=O)c5N)C4)cc3F)ccc2CC1C(=O)NC1CCCc2ccccc21)C(C)(C)C

> <Shape>
0.319

> <Color>
0.111

> <Negative vol penalty>
0.000

$$$$

  -OEChem-04052304413D

 90 98  0     1  0  0  0  0  0999 V2000
  -30.1142  -35.1578   23.5239 C   0  0  0  0  0  0  0  0  0  0  0  0
  -29.5770  -33.8745   23.5188 C   0  0  0  0  0  0  0  0  0  0  0  0
  -22.3925   -9.9970   22.7083 C   0  0  0  0  0  0  0  0  0  0  0  0
  -23.8794   -9.7503   20.8200 C   0  0  0  0  0  0  0  0  0  0  0  0
  -29.2947  -36.2542   23.7893 C   0  0  0  0  0  0  0  0  0  0  0  0
  -28.2202  -33.6867   23.7801 C   0  0  0  0  0  0  0  0  0  0  0  0
  -26.0538  -30.4332   20.5605 C   0  0  0  0  0  0  0  0  0  0  0  0
  -21.8975   -8.7120   22.4864 C   0  0  0  0  0  0  0  0  0  0  0  0
  -23.3844   -8.4652   20.5982 C   0  0  0  0  0  0  0  0  0  0  0  0
  -26.2770  -29.0748   20.7816 C   0  0  0  0  0  0  0  0  0  0  0  0
  -22.8672   -5.5300   23.0927 C   0  0  0  0  0  0  0  0  0  0  0  0
  -22.7163   -4.6936   24.1987 C   0  0  0  0  0  0  0  0  0  0  0  0
  -24.1147  -28.8974   21.8363 C   0  0  0  0  0  0  0  0  0  0  0  0
  -20.3495   -4.5212   23.7453 C   0  0  0  0  0  0  0  0  0  0  0  0
  -28.6322  -18.3477   20.4372 C   0  0  0  0  0  0  0  0  0  0  0  0
  -23.3834  -10.5162   21.8750 C   0  0  0  0  0  0  0  0  0  0  0  0
  -24.9862  -12.2064   22.9151 C   0  0  0  0  0  0  0  0  0  0  0  0
  -27.9253  -36.0806   24.0444 C   0  0  0  0  0  0  0  0  0  0  0  0
  -24.8620  -31.0372   20.9861 C   0  0  0  0  0  0  0  0  0  0  0  0
  -27.3820  -34.7817   24.0504 C   0  0  0  0  0  0  0  0  0  0  0  0
  -23.8778  -30.2630   21.6171 C   0  0  0  0  0  0  0  0  0  0  0  0
  -29.5115  -20.5597   20.0927 C   0  0  0  0  0  0  0  0  0  0  0  0
  -22.3934   -7.9460   21.4315 C   0  0  0  0  0  0  0  0  0  0  0  0
  -25.3086  -28.3073   21.4221 C   0  0  0  0  0  0  0  0  0  0  0  0
  -21.7592   -5.8621   22.3130 C   0  0  0  0  0  0  0  0  0  0  0  0
  -21.4575   -4.1891   24.5250 C   0  0  0  0  0  0  0  0  0  0  0  0
  -20.5004   -5.3576   22.6394 C   0  0  0  0  0  0  0  0  0  0  0  0
  -29.7065  -19.2304   20.4509 C   0  0  0  0  0  0  0  0  0  0  0  0
  -23.8948  -11.8438   22.1033 C   0  0  0  0  0  0  0  0  0  0  0  0
  -28.2330  -20.9532   19.7316 C   0  0  0  0  0  0  0  0  0  0  0  0
  -27.3930  -18.8403   20.0609 C   0  0  0  0  0  0  0  0  0  0  0  0
  -25.0635  -13.5726   22.7963 C   0  0  0  0  0  0  0  0  0  0  0  0
  -25.8528  -11.3821   23.7058 C   0  0  0  0  0  0  0  0  0  0  0  0
  -27.9363  -22.3559   19.3423 C   0  0  0  0  0  0  0  0  0  0  0  0
  -24.1287  -33.3542   23.0349 C   0  0  0  0  0  0  0  0  0  0  0  0
  -25.9644  -24.8279   20.6211 C   0  0  0  0  0  0  0  0  0  0  0  0
  -21.1400  -32.9236   21.8497 C   0  0  0  0  0  0  0  0  0  0  0  0
  -18.9049  -30.8567   20.3073 C   0  0  0  0  0  0  0  0  0  0  0  0
  -24.9805  -18.2059   19.7095 C   0  0  0  0  0  0  0  0  0  0  0  0
  -27.0888  -37.2919   24.3727 C   0  0  0  0  0  0  0  0  0  0  0  0
  -24.6253  -32.4979   20.7163 C   0  0  0  0  0  0  0  0  0  0  0  0
  -22.5728  -30.8592   22.0753 C   0  0  0  0  0  0  0  0  0  0  0  0
  -25.5866  -37.0407   24.2702 C   0  0  0  0  0  0  0  0  0  0  0  0
  -21.8378  -16.8880   20.7409 C   0  0  0  0  0  0  0  0  0  0  0  0
  -25.2148  -35.7355   24.9667 C   0  0  0  0  0  0  0  0  0  0  0  0
  -22.1826  -15.4880   21.2541 C   0  0  0  0  0  0  0  0  0  0  0  0
  -22.6847  -17.2723   19.5290 C   0  0  0  0  0  0  0  0  0  0  0  0
  -24.4796  -15.7374   20.2301 C   0  0  0  0  0  0  0  0  0  0  0  0
  -25.9100  -34.5396   24.3048 C   0  0  1  0  0  0  0  0  0  0  0  0
  -23.5920  -33.1185   21.6514 C   0  0  1  0  0  0  0  0  0  0  0  0
  -23.6976  -15.3316   21.4901 C   0  0  2  0  0  0  0  0  0  0  0  0
  -16.5284  -30.7722   19.5059 C   0  0  0  0  0  0  0  0  0  0  0  0
  -25.3298  -23.3862   17.0178 C   0  0  0  0  0  0  0  0  0  0  0  0
  -24.5382  -25.5702   17.9443 C   0  0  0  0  0  0  0  0  0  0  0  0
  -23.7997  -23.4208   18.9844 C   0  0  0  0  0  0  0  0  0  0  0  0
  -20.1849  -32.5739   24.7264 C   0  0  0  0  0  0  0  0  0  0  0  0
  -18.0725  -31.5729   23.8298 C   0  0  0  0  0  0  0  0  0  0  0  0
  -18.6635  -33.9333   23.2801 C   0  0  0  0  0  0  0  0  0  0  0  0
  -19.7441  -30.4226   17.5026 C   0  0  0  0  0  0  0  0  0  0  0  0
  -26.3479  -26.2943   20.6986 C   0  0  0  0  0  0  0  0  0  1  0  0
  -26.2065  -24.1336   19.2816 C   0  0  2  0  0  0  0  0  0  0  0  0
  -19.9635  -32.0482   22.2084 C   0  0  1  0  0  0  0  0  0  0  0  0
  -17.9699  -31.0813   19.1327 C   0  0  2  0  0  0  0  0  0  0  0  0
  -24.9888  -24.1444   18.3154 C   0  0  0  0  0  0  0  0  0  0  0  0
  -19.2464  -32.5209   23.5044 C   0  0  0  0  0  0  0  0  0  0  0  0
  -23.3199  -12.8948   21.5126 N   0  0  0  0  0  0  0  0  0  0  0  0
  -27.1649  -20.1248   19.7064 N   0  0  0  0  0  0  0  0  0  0  0  0
  -24.0528  -13.9313   21.9537 N   0  0  0  0  0  0  0  0  0  0  0  0
  -22.3910  -32.2929   21.7943 N   0  0  0  0  0  0  0  0  0  0  0  0
  -24.1084  -17.1031   19.8277 N   0  0  0  0  0  0  0  0  0  0  0  0
  -30.5902  -21.4624   20.1056 N   0  0  0  0  0  0  0  0  0  0  0  0
  -25.8967  -14.4901   23.3316 N   0  0  0  0  0  0  0  0  0  0  0  0
  -25.6333   -9.9979   23.7147 N   0  0  0  0  0  0  0  0  0  0  0  0
  -26.3047  -17.9331   20.0510 N   0  0  0  0  0  0  0  0  0  0  0  0
  -26.6539  -22.8041   19.6214 N   0  0  0  0  0  0  0  0  0  0  0  0
  -25.2359  -34.1799   23.0757 N   0  0  0  0  0  0  0  0  0  0  0  0
  -19.1054  -32.0144   21.0290 N   0  0  0  0  0  0  0  0  0  0  0  0
  -18.3567  -30.2082   17.9885 N   0  3  0  0  0  0  0  0  0  0  0  0
  -26.7837  -11.8605   24.3971 O   0  0  0  0  0  0  0  0  0  0  0  0
  -28.8080  -23.0226   18.7906 O   0  0  0  0  0  0  0  0  0  0  0  0
  -23.5781  -32.8272   23.9945 O   0  0  0  0  0  0  0  0  0  0  0  0
  -25.4998  -24.2325   21.5938 O   0  0  0  0  0  0  0  0  0  0  0  0
  -20.9547  -34.1214   21.6201 O   0  0  0  0  0  0  0  0  0  0  0  0
  -19.4043  -29.7629   20.5615 O   0  0  0  0  0  0  0  0  0  0  0  0
  -24.5768  -19.3179   19.3593 O   0  0  0  0  0  0  0  0  0  0  0  0
  -21.9108   -6.6920   21.2149 O   0  0  0  0  0  0  0  0  0  0  0  0
  -25.5241  -26.9814   21.6397 O   0  0  0  0  0  0  0  0  0  1  0  0
  -21.3130   -3.3847   25.5862 F   0  0  0  0  0  0  0  0  0  0  0  0
  -19.4325   -5.6721   21.8934 F   0  0  0  0  0  0  0  0  0  0  0  0
  -30.9211  -18.7910   20.8090 F   0  0  0  0  0  0  0  0  0  0  0  0
  1  2  1  0  0  0  0
  1  5  2  0  0  0  0
  2  6  2  0  0  0  0
  3  8  2  0  0  0  0
  3 16  1  0  0  0  0
  4  9  1  0  0  0  0
  4 16  2  0  0  0  0
  5 18  1  0  0  0  0
  6 20  1  0  0  0  0
  7 10  2  0  0  0  0
  7 19  1  0  0  0  0
  8 23  1  0  0  0  0
  9 23  2  0  0  0  0
 10 24  1  0  0  0  0
 11 12  2  0  0  0  0
 11 25  1  0  0  0  0
 12 26  1  0  0  0  0
 13 21  1  0  0  0  0
 13 24  2  0  0  0  0
 14 26  2  0  0  0  0
 14 27  1  0  0  0  0
 15 28  2  0  0  0  0
 15 31  1  0  0  0  0
 16 29  1  0  0  0  0
 17 29  1  0  0  0  0
 17 32  2  0  0  0  0
 17 33  1  0  0  0  0
 18 20  2  0  0  0  0
 18 40  1  0  0  0  0
 19 21  2  0  0  0  0
 19 41  1  0  0  0  0
 20 49  1  0  0  0  0
 21 42  1  0  0  0  0
 22 28  1  0  0  0  0
 22 30  2  0  0  0  0
 22 71  1  0  0  0  0
 23 86  1  0  0  0  0
 24 87  1  0  0  0  0
 25 27  2  0  0  0  0
 25 86  1  0  0  0  0
 26 88  1  0  0  0  0
 27 89  1  0  0  0  0
 28 90  1  0  0  0  0
 29 66  2  0  0  0  0
 30 34  1  0  0  0  0
 30 67  1  0  0  0  0
 31 67  2  0  0  0  0
 31 74  1  0  0  0  0
 32 68  1  0  0  0  0
 32 72  1  0  0  0  0
 33 73  1  0  0  0  0
 33 79  2  0  0  0  0
 34 75  1  0  0  0  0
 34 80  2  0  0  0  0
 35 50  1  0  0  0  0
 35 76  1  0  0  0  0
 35 81  2  0  0  0  0
 36 60  1  0  0  0  0
 36 61  1  0  0  0  0
 36 82  2  0  0  0  0
 37 62  1  0  0  0  0
 37 69  1  0  0  0  0
 37 83  2  0  0  0  0
 38 63  1  0  0  0  0
 38 77  1  0  0  0  0
 38 84  2  0  0  0  0
 39 70  1  0  0  0  0
 39 74  1  0  0  0  0
 39 85  2  0  0  0  0
 40 43  1  0  0  0  0
 41 50  1  0  0  0  0
 42 69  1  0  0  0  0
 43 45  1  0  0  0  0
 44 46  1  0  0  0  0
 44 47  1  0  0  0  0
 45 49  1  0  0  0  0
 46 51  1  0  0  0  0
 47 70  1  0  0  0  0
 48 51  1  0  0  0  0
 48 70  1  0  0  0  0
 49 76  1  0  0  0  0
 50 69  1  0  0  0  0
 51 68  1  0  0  0  0
 52 63  1  0  0  0  0
 53 64  1  0  0  0  0
 54 64  1  0  0  0  0
 55 64  1  0  0  0  0
 56 65  1  0  0  0  0
 57 65  1  0  0  0  0
 58 65  1  0  0  0  0
 59 78  1  0  0  0  0
 60 87  1  0  0  0  0
 61 64  1  0  0  0  0
 61 75  1  0  0  0  0
 62 65  1  0  0  0  0
 62 77  1  0  0  0  0
 63 78  1  0  0  0  0
 66 68  1  0  0  0  0
M  CHG  1  78   1
M  ISO  4  39 100  60 101  74 100  87 101
M  END
> <Batch ID>
0177

> <Smiles>
CNC(C)C(=O)NC(C(=O)N1Cc2cc([101O:1][101CH2:1]C(=O)C(NC(=O)c3nc([100NH:0][100C:0](=O)N4CCCC(n5nc(-c6ccc(Oc7ccc(F)cc7F)cc6)c(C(N)=O)c5N)C4)cc(F)c3N)C(C)(C)C)ccc2CC1C(=O)NC1CCCc2ccccc21)C(C)(C)C

> <Shape>
0.229

> <Color>
0.092

> <Negative vol penalty>
0.000

$$$$

  -OEChem-04052304413D

 87 95  0     1  0  0  0  0  0999 V2000
  -28.3332  -36.6280   18.9927 C   0  0  0  0  0  0  0  0  0  0  0  0
  -28.5324  -35.2833   18.6970 C   0  0  0  0  0  0  0  0  0  0  0  0
  -23.1959   -9.9052   21.2278 C   0  0  0  0  0  0  0  0  0  0  0  0
  -23.9530  -10.7155   23.3743 C   0  0  0  0  0  0  0  0  0  0  0  0
  -27.9050  -37.0048   20.2649 C   0  0  0  0  0  0  0  0  0  0  0  0
  -28.3046  -34.3146   19.6737 C   0  0  0  0  0  0  0  0  0  0  0  0
  -26.1105  -28.6623   18.8118 C   0  0  0  0  0  0  0  0  0  0  0  0
  -22.5062   -8.8715   21.8613 C   0  0  0  0  0  0  0  0  0  0  0  0
  -23.2633   -9.6817   24.0078 C   0  0  0  0  0  0  0  0  0  0  0  0
  -26.7343  -27.4200   18.7059 C   0  0  0  0  0  0  0  0  0  0  0  0
  -19.5972   -8.4797   23.5397 C   0  0  0  0  0  0  0  0  0  0  0  0
  -18.2942   -8.2157   23.1177 C   0  0  0  0  0  0  0  0  0  0  0  0
  -26.3290  -27.0235   21.0507 C   0  0  0  0  0  0  0  0  0  0  0  0
  -18.9445   -5.9681   22.5158 C   0  0  0  0  0  0  0  0  0  0  0  0
  -31.5259  -18.1606   20.2003 C   0  0  0  0  0  0  0  0  0  0  0  0
  -23.9193  -10.8272   21.9843 C   0  0  0  0  0  0  0  0  0  0  0  0
  -24.1435  -13.1778   21.0189 C   0  0  0  0  0  0  0  0  0  0  0  0
  -27.6625  -36.0395   21.2549 C   0  0  0  0  0  0  0  0  0  0  0  0
  -25.6000  -29.0999   20.0423 C   0  0  0  0  0  0  0  0  0  0  0  0
  -27.8740  -34.6789   20.9608 C   0  0  0  0  0  0  0  0  0  0  0  0
  -25.6968  -28.2707   21.1689 C   0  0  0  0  0  0  0  0  0  0  0  0
  -22.5399   -8.7597   23.2513 C   0  0  0  0  0  0  0  0  0  0  0  0
  -26.8462  -26.6016   19.8261 C   0  0  0  0  0  0  0  0  0  0  0  0
  -20.5739   -7.4879   23.4497 C   0  0  0  0  0  0  0  0  0  0  0  0
  -17.9678   -6.9599   22.6058 C   0  0  0  0  0  0  0  0  0  0  0  0
  -20.2475   -6.2321   22.9378 C   0  0  0  0  0  0  0  0  0  0  0  0
  -24.6324  -11.8950   21.3304 C   0  0  0  0  0  0  0  0  0  0  0  0
  -25.1999  -13.8090   20.4089 C   0  0  0  0  0  0  0  0  0  0  0  0
  -30.3674  -17.5536   20.6173 C   0  0  0  0  0  0  0  0  0  0  0  0
  -30.2720  -19.6603   20.9758 C   0  0  0  0  0  0  0  0  0  0  0  0
  -22.8502  -13.7479   21.2594 C   0  0  0  0  0  0  0  0  0  0  0  0
  -29.6891  -20.9505   21.4261 C   0  0  0  0  0  0  0  0  0  0  0  0
  -26.2108  -31.5419   21.9834 C   0  0  0  0  0  0  0  0  0  0  0  0
  -29.2786  -23.9968   20.5037 C   0  0  0  0  0  0  0  0  0  0  0  0
  -23.6447  -30.3925   23.6010 C   0  0  0  0  0  0  0  0  0  0  0  0
  -21.6303  -27.7351   24.3271 C   0  0  0  0  0  0  0  0  0  0  0  0
  -30.6116  -15.0919   20.1409 C   0  0  0  0  0  0  0  0  0  0  0  0
  -27.2460  -36.4985   22.6298 C   0  0  0  0  0  0  0  0  0  0  0  0
  -24.9061  -30.4313   20.1339 C   0  0  0  0  0  0  0  0  0  0  0  0
  -25.1472  -28.6854   22.5084 C   0  0  0  0  0  0  0  0  0  0  0  0
  -26.6669  -35.3822   23.4952 C   0  0  0  0  0  0  0  0  0  0  0  0
  -29.6121  -11.9765   18.7366 C   0  0  0  0  0  0  0  0  0  0  0  0
  -27.5456  -34.1376   23.4195 C   0  0  0  0  0  0  0  0  0  0  0  0
  -28.1872  -11.7831   19.2606 C   0  0  0  0  0  0  0  0  0  0  0  0
  -30.5147  -12.6355   19.7780 C   0  0  0  0  0  0  0  0  0  0  0  0
  -28.5753  -13.6971   20.8646 C   0  0  0  0  0  0  0  0  0  0  0  0
  -27.6137  -33.5968   21.9862 C   0  0  1  0  0  0  0  0  0  0  0  0
  -24.8796  -30.9951   21.5512 C   0  0  1  0  0  0  0  0  0  0  0  0
  -27.6123  -13.0958   19.8278 C   0  0  2  0  0  0  0  0  0  0  0  0
  -19.6381  -27.0938   25.7118 C   0  0  0  0  0  0  0  0  0  0  0  0
  -25.3996  -30.3385   26.0965 C   0  0  0  0  0  0  0  0  0  0  0  0
  -23.7053  -28.8407   27.1707 C   0  0  0  0  0  0  0  0  0  0  0  0
  -23.0656  -31.1507   26.4799 C   0  0  0  0  0  0  0  0  0  0  0  0
  -20.0492  -27.0189   21.9300 C   0  0  0  0  0  0  0  0  0  0  0  0
  -28.1216  -24.8984   20.8885 C   0  0  0  0  0  0  0  0  0  1  0  0
  -30.0699  -23.3917   21.6540 C   0  0  2  0  0  0  0  0  0  0  0  0
  -23.4418  -29.3866   24.7083 C   0  0  1  0  0  0  0  0  0  0  0  0
  -20.1190  -27.5959   24.3592 C   0  0  2  0  0  0  0  0  0  0  0  0
  -23.9152  -29.9219   26.0892 C   0  0  0  0  0  0  0  0  0  0  0  0
  -31.2495  -24.2679   22.0125 C   0  0  0  0  0  0  0  0  0  0  0  0
  -31.4588  -19.5106   20.4323 N   0  0  0  0  0  0  0  0  0  0  0  0
  -25.9007  -11.7200   20.9497 N   0  0  0  0  0  0  0  0  0  0  0  0
  -26.2176  -12.9011   20.3925 N   0  0  0  0  0  0  0  0  0  0  0  0
  -24.4832  -29.9988   22.5485 N   0  0  0  0  0  0  0  0  0  0  0  0
  -29.9079  -13.8755   20.2670 N   0  0  0  0  0  0  0  0  0  0  0  0
  -25.3483  -15.0465   19.8902 N   0  0  0  0  0  0  0  0  0  0  0  0
  -21.8814  -12.9613   21.8973 N   0  0  0  0  0  0  0  0  0  0  0  0
  -29.9214  -16.2086   20.6112 N   0  0  0  0  0  0  0  0  0  0  0  0
  -30.4846  -22.0749   21.2465 N   0  0  0  0  0  0  0  0  0  0  0  0
  -26.4040  -32.8717   21.6616 N   0  0  0  0  0  0  0  0  0  0  0  0
  -22.0331  -29.0099   24.6645 N   0  0  0  0  0  0  0  0  0  0  0  0
  -19.6649  -26.6364   23.3132 N   0  3  0  0  0  0  0  0  0  0  0  0
  -22.5569  -14.9147   20.9040 O   0  0  0  0  0  0  0  0  0  0  0  0
  -28.5733  -20.9582   21.9394 O   0  0  0  0  0  0  0  0  0  0  0  0
  -27.0032  -30.8117   22.5669 O   0  0  0  0  0  0  0  0  0  0  0  0
  -29.5770  -23.7929   19.3266 O   0  0  0  0  0  0  0  0  0  0  0  0
  -23.0744  -31.4845   23.6639 O   0  0  0  0  0  0  0  0  0  0  0  0
  -22.3789  -26.8049   24.0358 O   0  0  0  0  0  0  0  0  0  0  0  0
  -31.7319  -15.1433   19.6269 O   0  0  0  0  0  0  0  0  0  0  0  0
  -29.5475  -18.5173   21.1219 O   0  0  0  0  0  0  0  0  0  0  0  0
  -21.8668   -7.7513   23.8698 O   0  0  0  0  0  0  0  0  0  0  0  0
  -27.4553  -25.3888   19.7258 O   0  0  0  0  0  0  0  0  0  1  0  0
  -16.7161   -6.7061   22.2020 F   0  0  0  0  0  0  0  0  0  0  0  0
  -21.1812   -5.2749   22.8500 F   0  0  0  0  0  0  0  0  0  0  0  0
  -31.9774  -23.7202   23.0107 F   0  0  0  0  0  0  0  0  0  0  0  0
  -30.8604  -25.4976   22.4120 F   0  0  0  0  0  0  0  0  0  0  0  0
  -32.0745  -24.4216   20.9521 F   0  0  0  0  0  0  0  0  0  0  0  0
  1  2  1  0  0  0  0
  1  5  2  0  0  0  0
  2  6  2  0  0  0  0
  3  8  2  0  0  0  0
  3 16  1  0  0  0  0
  4  9  1  0  0  0  0
  4 16  2  0  0  0  0
  5 18  1  0  0  0  0
  6 20  1  0  0  0  0
  7 10  2  0  0  0  0
  7 19  1  0  0  0  0
  8 22  1  0  0  0  0
  9 22  2  0  0  0  0
 10 23  1  0  0  0  0
 11 12  2  0  0  0  0
 11 24  1  0  0  0  0
 12 25  1  0  0  0  0
 13 21  1  0  0  0  0
 13 23  2  0  0  0  0
 14 25  2  0  0  0  0
 14 26  1  0  0  0  0
 15 29  2  0  0  0  0
 15 61  1  0  0  0  0
 16 27  1  0  0  0  0
 17 27  1  0  0  0  0
 17 28  2  0  0  0  0
 17 31  1  0  0  0  0
 18 20  2  0  0  0  0
 18 38  1  0  0  0  0
 19 21  2  0  0  0  0
 19 39  1  0  0  0  0
 20 47  1  0  0  0  0
 21 40  1  0  0  0  0
 22 81  1  0  0  0  0
 23 82  1  0  0  0  0
 24 26  2  0  0  0  0
 24 81  1  0  0  0  0
 25 83  1  0  0  0  0
 26 84  1  0  0  0  0
 27 62  2  0  0  0  0
 28 63  1  0  0  0  0
 28 66  1  0  0  0  0
 29 68  1  0  0  0  0
 29 80  1  0  0  0  0
 30 32  1  0  0  0  0
 30 61  2  0  0  0  0
 30 80  1  0  0  0  0
 31 67  1  0  0  0  0
 31 73  2  0  0  0  0
 32 69  1  0  0  0  0
 32 74  2  0  0  0  0
 33 48  1  0  0  0  0
 33 70  1  0  0  0  0
 33 75  2  0  0  0  0
 34 55  1  0  0  0  0
 34 56  1  0  0  0  0
 34 76  2  0  0  0  0
 35 57  1  0  0  0  0
 35 64  1  0  0  0  0
 35 77  2  0  0  0  0
 36 58  1  0  0  0  0
 36 71  1  0  0  0  0
 36 78  2  0  0  0  0
 37 65  1  0  0  0  0
 37 68  1  0  0  0  0
 37 79  2  0  0  0  0
 38 41  1  0  0  0  0
 39 48  1  0  0  0  0
 40 64  1  0  0  0  0
 41 43  1  0  0  0  0
 42 44  1  0  0  0  0
 42 45  1  0  0  0  0
 43 47  1  0  0  0  0
 44 49  1  0  0  0  0
 45 65  1  0  0  0  0
 46 49  1  0  0  0  0
 46 65  1  0  0  0  0
 47 70  1  0  0  0  0
 48 64  1  0  0  0  0
 49 63  1  0  0  0  0
 50 58  1  0  0  0  0
 51 59  1  0  0  0  0
 52 59  1  0  0  0  0
 53 59  1  0  0  0  0
 54 72  1  0  0  0  0
 55 82  1  0  0  0  0
 56 60  1  0  0  0  0
 56 69  1  0  0  0  0
 57 59  1  0  0  0  0
 57 71  1  0  0  0  0
 58 72  1  0  0  0  0
 60 85  1  0  0  0  0
 60 86  1  0  0  0  0
 60 87  1  0  0  0  0
 62 63  1  0  0  0  0
M  CHG  1  72   1
M  ISO  4  37 100  55 101  68 100  82 101
M  END
> <Batch ID>
0177

> <Smiles>
CNC(C)C(=O)NC(C(=O)N1Cc2cc([101O:1][101CH2:1]C(=O)C(NC(=O)c3ncc([100NH:0][100C:0](=O)N4CCCC(n5nc(-c6ccc(Oc7ccc(F)cc7F)cc6)c(C(N)=O)c5N)C4)o3)C(F)(F)F)ccc2CC1C(=O)NC1CCCc2ccccc21)C(C)(C)C

> <Shape>
0.308

> <Color>
0.187

> <Negative vol penalty>
0.000

$$$$

  -OEChem-04052304413D

 88 96  0     1  0  0  0  0  0999 V2000
  -30.0623  -34.5149   25.8508 C   0  0  0  0  0  0  0  0  0  0  0  0
  -29.4136  -33.3525   25.4463 C   0  0  0  0  0  0  0  0  0  0  0  0
  -24.7285   -8.7602   21.0946 C   0  0  0  0  0  0  0  0  0  0  0  0
  -24.4763  -10.0450   23.1251 C   0  0  0  0  0  0  0  0  0  0  0  0
  -29.3255  -35.6715   26.1024 C   0  0  0  0  0  0  0  0  0  0  0  0
  -28.0275  -33.3458   25.2942 C   0  0  0  0  0  0  0  0  0  0  0  0
  -26.5520  -31.0453   21.0310 C   0  0  0  0  0  0  0  0  0  0  0  0
  -24.4947   -7.5852   21.8090 C   0  0  0  0  0  0  0  0  0  0  0  0
  -24.2425   -8.8700   23.8395 C   0  0  0  0  0  0  0  0  0  0  0  0
  -26.5519  -29.6511   21.0270 C   0  0  0  0  0  0  0  0  0  0  0  0
  -23.6069   -4.2795   23.0334 C   0  0  0  0  0  0  0  0  0  0  0  0
  -22.7345   -3.3446   22.4763 C   0  0  0  0  0  0  0  0  0  0  0  0
  -24.1704  -29.6562   21.4109 C   0  0  0  0  0  0  0  0  0  0  0  0
  -20.9596   -4.9835   22.5052 C   0  0  0  0  0  0  0  0  0  0  0  0
  -28.0834  -19.9397   19.7214 C   0  0  0  0  0  0  0  0  0  0  0  0
  -24.7194   -9.9901   21.7527 C   0  0  0  0  0  0  0  0  0  0  0  0
  -24.0043  -12.0188   20.3813 C   0  0  0  0  0  0  0  0  0  0  0  0
  -27.9307  -35.6816   25.9440 C   0  0  0  0  0  0  0  0  0  0  0  0
  -25.3610  -31.7566   21.2362 C   0  0  0  0  0  0  0  0  0  0  0  0
  -27.2712  -34.5033   25.5452 C   0  0  0  0  0  0  0  0  0  0  0  0
  -24.1576  -31.0594   21.4145 C   0  0  0  0  0  0  0  0  0  0  0  0
  -24.2516   -7.6401   23.1814 C   0  0  0  0  0  0  0  0  0  0  0  0
  -25.3615  -28.9563   21.2199 C   0  0  0  0  0  0  0  0  0  0  0  0
  -23.1556   -5.5665   23.3265 C   0  0  0  0  0  0  0  0  0  0  0  0
  -21.4108   -3.6965   22.2122 C   0  0  0  0  0  0  0  0  0  0  0  0
  -21.8320   -5.9184   23.0623 C   0  0  0  0  0  0  0  0  0  0  0  0
  -24.9614  -11.2041   21.0154 C   0  0  0  0  0  0  0  0  0  0  0  0
  -27.2415  -21.0674   19.6824 C   0  0  0  0  0  0  0  0  0  0  0  0
  -27.2529  -18.9032   20.0712 C   0  0  0  0  0  0  0  0  0  0  0  0
  -24.7361  -13.0403   19.8268 C   0  0  0  0  0  0  0  0  0  0  0  0
  -22.5810  -11.8659   20.3008 C   0  0  0  0  0  0  0  0  0  0  0  0
  -27.6198  -22.4663   19.3553 C   0  0  0  0  0  0  0  0  0  0  0  0
  -24.3195  -33.8003   23.4366 C   0  0  0  0  0  0  0  0  0  0  0  0
  -25.8364  -25.5979   19.9331 C   0  0  0  0  0  0  0  0  0  0  0  0
  -21.7772  -34.0530   21.4378 C   0  0  0  0  0  0  0  0  0  0  0  0
  -19.8771  -32.6486   18.9753 C   0  0  0  0  0  0  0  0  0  0  0  0
  -28.7545  -16.8817   20.1419 C   0  0  0  0  0  0  0  0  0  0  0  0
  -27.1719  -36.9427   26.2733 C   0  0  0  0  0  0  0  0  0  0  0  0
  -25.3735  -33.2604   21.2110 C   0  0  0  0  0  0  0  0  0  0  0  0
  -22.8487  -31.7760   21.6187 C   0  0  0  0  0  0  0  0  0  0  0  0
  -25.7466  -36.9563   25.7268 C   0  0  0  0  0  0  0  0  0  0  0  0
  -29.7368  -13.5764   19.2548 C   0  0  0  0  0  0  0  0  0  0  0  0
  -25.0484  -35.6329   26.0236 C   0  0  0  0  0  0  0  0  0  0  0  0
  -28.5033  -12.7316   19.5816 C   0  0  0  0  0  0  0  0  0  0  0  0
  -29.9389  -14.7009   20.2689 C   0  0  0  0  0  0  0  0  0  0  0  0
  -27.5353  -14.7174   20.8090 C   0  0  0  0  0  0  0  0  0  0  0  0
  -25.7717  -34.4633   25.3451 C   0  0  1  0  0  0  0  0  0  0  0  0
  -24.1866  -33.8802   21.9421 C   0  0  1  0  0  0  0  0  0  0  0  0
  -27.2535  -13.6118   19.7786 C   0  0  2  0  0  0  0  0  0  0  0  0
  -17.8425  -33.0778   17.5704 C   0  0  0  0  0  0  0  0  0  0  0  0
  -19.9937  -33.4023   23.8265 C   0  0  0  0  0  0  0  0  0  0  0  0
  -18.1381  -32.9120   22.2187 C   0  0  0  0  0  0  0  0  0  0  0  0
  -19.1167  -35.2038   22.3299 C   0  0  0  0  0  0  0  0  0  0  0  0
  -24.7935  -18.7653   20.5772 C   0  0  0  0  0  0  0  0  0  0  0  0
  -21.4442  -32.5430   16.4669 C   0  0  0  0  0  0  0  0  0  0  0  0
  -26.3409  -26.9456   20.4114 C   0  0  0  0  0  0  0  0  0  1  0  0
  -26.7951  -24.7891   19.0716 C   0  0  2  0  0  0  0  0  0  0  0  0
  -20.4593  -33.3320   21.2879 C   0  0  1  0  0  0  0  0  0  0  0  0
  -19.3549  -33.2070   17.6638 C   0  0  2  0  0  0  0  0  0  0  0  0
  -19.4518  -33.6987   22.4139 C   0  0  0  0  0  0  0  0  0  0  0  0
  -26.5651  -25.0719   17.6036 C   0  0  0  0  0  0  0  0  0  0  0  0
  -26.2063  -11.6680   20.8770 N   0  0  0  0  0  0  0  0  0  0  0  0
  -25.9735  -20.7749   19.9833 N   0  0  0  0  0  0  0  0  0  0  0  0
  -26.0364  -12.7852   20.1496 N   0  0  0  0  0  0  0  0  0  0  0  0
  -26.0124  -19.4516   20.2146 N   0  0  0  0  0  0  0  0  0  0  0  0
  -22.9137  -33.2465   21.5921 N   0  0  0  0  0  0  0  0  0  0  0  0
  -28.7154  -15.4951   20.3999 N   0  0  0  0  0  0  0  0  0  0  0  0
  -24.3877  -14.1229   19.0994 N   0  0  0  0  0  0  0  0  0  0  0  0
  -21.9914  -10.7592   20.9269 N   0  0  0  0  0  0  0  0  0  0  0  0
  -27.5242  -17.5263   20.2666 N   0  0  0  0  0  0  0  0  0  0  0  0
  -26.5917  -23.3997   19.3879 N   0  0  0  0  0  0  0  0  0  0  0  0
  -25.4499  -34.4197   23.9348 N   0  0  0  0  0  0  0  0  0  0  0  0
  -19.9835  -33.6272   19.9408 N   0  0  0  0  0  0  0  0  0  0  0  0
  -19.9607  -32.4792   16.5131 N   0  3  0  0  0  0  0  0  0  0  0  0
  -21.8553  -12.6775   19.6777 O   0  0  0  0  0  0  0  0  0  0  0  0
  -28.7849  -22.7195   19.0602 O   0  0  0  0  0  0  0  0  0  0  0  0
  -23.4594  -33.2210   24.0896 O   0  0  0  0  0  0  0  0  0  0  0  0
  -24.7037  -25.1976   20.2028 O   0  0  0  0  0  0  0  0  0  0  0  0
  -21.7983  -35.2860   21.4116 O   0  0  0  0  0  0  0  0  0  0  0  0
  -20.1587  -31.4622   19.1290 O   0  0  0  0  0  0  0  0  0  0  0  0
  -29.7967  -17.4503   19.8065 O   0  0  0  0  0  0  0  0  0  0  0  0
  -24.0232   -6.4938   23.8788 O   0  0  0  0  0  0  0  0  0  0  0  0
  -25.3587  -27.5955   21.2171 O   0  0  0  0  0  0  0  0  0  1  0  0
  -20.5736   -2.7991   21.6757 F   0  0  0  0  0  0  0  0  0  0  0  0
  -21.3930   -7.1536   23.3406 F   0  0  0  0  0  0  0  0  0  0  0  0
  -27.3895  -24.3316   16.8300 F   0  0  0  0  0  0  0  0  0  0  0  0
  -26.7731  -26.3717   17.3026 F   0  0  0  0  0  0  0  0  0  0  0  0
  -25.2973  -24.7648   17.2473 F   0  0  0  0  0  0  0  0  0  0  0  0
  1  2  1  0  0  0  0
  1  5  2  0  0  0  0
  2  6  2  0  0  0  0
  3  8  2  0  0  0  0
  3 16  1  0  0  0  0
  4  9  1  0  0  0  0
  4 16  2  0  0  0  0
  5 18  1  0  0  0  0
  6 20  1  0  0  0  0
  7 10  2  0  0  0  0
  7 19  1  0  0  0  0
  8 22  1  0  0  0  0
  9 22  2  0  0  0  0
 10 23  1  0  0  0  0
 11 12  2  0  0  0  0
 11 24  1  0  0  0  0
 12 25  1  0  0  0  0
 13 21  1  0  0  0  0
 13 23  2  0  0  0  0
 14 25  2  0  0  0  0
 14 26  1  0  0  0  0
 15 28  1  0  0  0  0
 15 29  2  0  0  0  0
 16 27  1  0  0  0  0
 17 27  1  0  0  0  0
 17 30  2  0  0  0  0
 17 31  1  0  0  0  0
 18 20  2  0  0  0  0
 18 38  1  0  0  0  0
 19 21  2  0  0  0  0
 19 39  1  0  0  0  0
 20 47  1  0  0  0  0
 21 40  1  0  0  0  0
 22 82  1  0  0  0  0
 23 83  1  0  0  0  0
 24 26  2  0  0  0  0
 24 82  1  0  0  0  0
 25 84  1  0  0  0  0
 26 85  1  0  0  0  0
 27 62  2  0  0  0  0
 28 32  1  0  0  0  0
 28 63  2  0  0  0  0
 29 65  1  0  0  0  0
 29 70  1  0  0  0  0
 30 64  1  0  0  0  0
 30 68  1  0  0  0  0
 31 69  1  0  0  0  0
 31 75  2  0  0  0  0
 32 71  1  0  0  0  0
 32 76  2  0  0  0  0
 33 48  1  0  0  0  0
 33 72  1  0  0  0  0
 33 77  2  0  0  0  0
 34 56  1  0  0  0  0
 34 57  1  0  0  0  0
 34 78  2  0  0  0  0
 35 58  1  0  0  0  0
 35 66  1  0  0  0  0
 35 79  2  0  0  0  0
 36 59  1  0  0  0  0
 36 73  1  0  0  0  0
 36 80  2  0  0  0  0
 37 67  1  0  0  0  0
 37 70  1  0  0  0  0
 37 81  2  0  0  0  0
 38 41  1  0  0  0  0
 39 48  1  0  0  0  0
 40 66  1  0  0  0  0
 41 43  1  0  0  0  0
 42 44  1  0  0  0  0
 42 45  1  0  0  0  0
 43 47  1  0  0  0  0
 44 49  1  0  0  0  0
 45 67  1  0  0  0  0
 46 49  1  0  0  0  0
 46 67  1  0  0  0  0
 47 72  1  0  0  0  0
 48 66  1  0  0  0  0
 49 64  1  0  0  0  0
 50 59  1  0  0  0  0
 51 60  1  0  0  0  0
 52 60  1  0  0  0  0
 53 60  1  0  0  0  0
 54 65  1  0  0  0  0
 55 74  1  0  0  0  0
 56 83  1  0  0  0  0
 57 61  1  0  0  0  0
 57 71  1  0  0  0  0
 58 60  1  0  0  0  0
 58 73  1  0  0  0  0
 59 74  1  0  0  0  0
 61 86  1  0  0  0  0
 61 87  1  0  0  0  0
 61 88  1  0  0  0  0
 62 64  1  0  0  0  0
 63 65  1  0  0  0  0
M  CHG  1  74   1
M  ISO  4  37 100  56 101  70 100  83 101
M  END
> <Batch ID>
0177

> <Smiles>
CNC(C)C(=O)NC(C(=O)N1Cc2cc([101O:1][101CH2:1]C(=O)C(NC(=O)c3cc([100NH:0][100C:0](=O)N4CCCC(n5nc(-c6ccc(Oc7ccc(F)cc7F)cc6)c(C(N)=O)c5N)C4)n(C)n3)C(F)(F)F)ccc2CC1C(=O)NC1CCCc2ccccc21)C(C)(C)C

> <Shape>
0.246

> <Color>
0.097

> <Negative vol penalty>
0.000

$$$$

  -OEChem-04052304413D

 87 95  0     1  0  0  0  0  0999 V2000
  -24.2857  -34.7495   14.3780 C   0  0  0  0  0  0  0  0  0  0  0  0
  -24.4534  -33.3948   14.6466 C   0  0  0  0  0  0  0  0  0  0  0  0
  -23.1874   -9.7966   21.1533 C   0  0  0  0  0  0  0  0  0  0  0  0
  -23.9275  -10.5483   23.3268 C   0  0  0  0  0  0  0  0  0  0  0  0
  -25.0138  -35.6968   15.0965 C   0  0  0  0  0  0  0  0  0  0  0  0
  -25.3503  -32.9867   15.6333 C   0  0  0  0  0  0  0  0  0  0  0  0
  -24.7614  -28.1812   19.3837 C   0  0  0  0  0  0  0  0  0  0  0  0
  -22.5033   -8.7388   21.7520 C   0  0  0  0  0  0  0  0  0  0  0  0
  -23.2433   -9.4905   23.9256 C   0  0  0  0  0  0  0  0  0  0  0  0
  -25.2862  -26.8901   19.3436 C   0  0  0  0  0  0  0  0  0  0  0  0
  -23.2472   -5.7054   23.0442 C   0  0  0  0  0  0  0  0  0  0  0  0
  -23.3756   -4.4421   22.4671 C   0  0  0  0  0  0  0  0  0  0  0  0
  -27.0780  -27.5796   20.8041 C   0  0  0  0  0  0  0  0  0  0  0  0
  -20.9886   -4.3662   22.1019 C   0  0  0  0  0  0  0  0  0  0  0  0
  -23.8996  -10.7014   21.9407 C   0  0  0  0  0  0  0  0  0  0  0  0
  -24.1089  -13.0816   21.0471 C   0  0  0  0  0  0  0  0  0  0  0  0
  -25.9129  -35.3006   16.0991 C   0  0  0  0  0  0  0  0  0  0  0  0
  -25.3981  -29.1855   20.1269 C   0  0  0  0  0  0  0  0  0  0  0  0
  -26.0921  -33.9296   16.3650 C   0  0  0  0  0  0  0  0  0  0  0  0
  -26.5578  -28.8819   20.8541 C   0  0  0  0  0  0  0  0  0  0  0  0
  -22.5312   -8.5857   23.1382 C   0  0  0  0  0  0  0  0  0  0  0  0
  -26.4462  -26.5899   20.0515 C   0  0  0  0  0  0  0  0  0  0  0  0
  -21.9894   -6.2991   23.1503 C   0  0  0  0  0  0  0  0  0  0  0  0
  -22.2464   -3.7725   21.9959 C   0  0  0  0  0  0  0  0  0  0  0  0
  -20.8601   -5.6295   22.6791 C   0  0  0  0  0  0  0  0  0  0  0  0
  -24.6069  -11.7940   21.3227 C   0  0  0  0  0  0  0  0  0  0  0  0
  -30.3007  -19.9022   21.1541 C   0  0  0  0  0  0  0  0  0  0  0  0
  -31.4263  -19.3816   20.5507 C   0  0  0  0  0  0  0  0  0  0  0  0
  -25.1630  -13.7394   20.4617 C   0  0  0  0  0  0  0  0  0  0  0  0
  -30.2859  -17.5225   20.7811 C   0  0  0  0  0  0  0  0  0  0  0  0
  -22.8097  -13.6337   21.2981 C   0  0  0  0  0  0  0  0  0  0  0  0
  -29.9617  -21.2982   21.5329 C   0  0  0  0  0  0  0  0  0  0  0  0
  -26.7563  -31.9731   19.4283 C   0  0  0  0  0  0  0  0  0  0  0  0
  -27.3544  -22.7093   23.7687 C   0  0  0  0  0  0  0  0  0  0  0  0
  -27.5423  -23.3855   21.3337 C   0  0  0  0  0  0  0  0  0  0  0  0
  -26.9795  -32.2301   22.6542 C   0  0  0  0  0  0  0  0  0  0  0  0
  -27.1070  -30.6634   25.6835 C   0  0  0  0  0  0  0  0  0  0  0  0
  -30.5651  -15.0737   20.2597 C   0  0  0  0  0  0  0  0  0  0  0  0
  -26.7126  -36.3590   16.8167 C   0  0  0  0  0  0  0  0  0  0  0  0
  -24.8044  -30.5665   20.1815 C   0  0  0  0  0  0  0  0  0  0  0  0
  -27.2681  -29.9192   21.6835 C   0  0  0  0  0  0  0  0  0  0  0  0
  -27.3657  -35.8610   18.1035 C   0  0  0  0  0  0  0  0  0  0  0  0
  -29.5982  -11.9937   18.7577 C   0  0  0  0  0  0  0  0  0  0  0  0
  -28.0505  -34.5182   17.8696 C   0  0  0  0  0  0  0  0  0  0  0  0
  -28.1725  -11.7731   19.2685 C   0  0  0  0  0  0  0  0  0  0  0  0
  -30.4903  -12.6285   19.8230 C   0  0  0  0  0  0  0  0  0  0  0  0
  -28.5369  -13.6413   20.9310 C   0  0  0  0  0  0  0  0  0  0  0  0
  -27.0371  -33.4487   17.4447 C   0  0  1  0  0  0  0  0  0  0  0  0
  -25.8217  -31.6397   20.5565 C   0  0  1  0  0  0  0  0  0  0  0  0
  -27.5840  -13.0635   19.8718 C   0  0  2  0  0  0  0  0  0  0  0  0
  -27.3675  -23.8518   24.7524 C   0  0  0  0  0  0  0  0  0  0  0  0
  -27.3289  -31.1363   28.1380 C   0  0  0  0  0  0  0  0  0  0  0  0
  -29.9614  -32.7583   22.2805 C   0  0  0  0  0  0  0  0  0  0  0  0
  -30.2808  -32.2779   24.7168 C   0  0  0  0  0  0  0  0  0  0  0  0
  -28.8549  -34.1959   24.0020 C   0  0  0  0  0  0  0  0  0  0  0  0
  -24.4718  -29.4523   26.2731 C   0  0  0  0  0  0  0  0  0  0  0  0
  -27.6756  -24.8862   21.1659 C   0  0  0  0  0  0  0  0  0  1  0  0
  -28.2425  -22.7791   22.5366 C   0  0  2  0  0  0  0  0  0  0  0  0
  -28.0047  -31.8355   23.6897 C   0  0  1  0  0  0  0  0  0  0  0  0
  -26.3643  -30.9201   26.9823 C   0  0  2  0  0  0  0  0  0  0  0  0
  -29.2634  -32.7476   23.6552 C   0  0  0  0  0  0  0  0  0  0  0  0
  -25.8784  -11.6408   20.9433 N   0  0  0  0  0  0  0  0  0  0  0  0
  -31.4198  -18.0171   20.3364 N   0  0  0  0  0  0  0  0  0  0  0  0
  -26.1882  -12.8407   20.4233 N   0  0  0  0  0  0  0  0  0  0  0  0
  -26.6522  -31.2564   21.7000 N   0  0  0  0  0  0  0  0  0  0  0  0
  -29.8709  -13.8483   20.3458 N   0  0  0  0  0  0  0  0  0  0  0  0
  -32.4938  -20.1259   20.1742 N   0  0  0  0  0  0  0  0  0  0  0  0
  -25.3036  -14.9930   19.9810 N   0  0  0  0  0  0  0  0  0  0  0  0
  -21.8444  -12.8204   21.9072 N   0  0  0  0  0  0  0  0  0  0  0  0
  -29.8634  -16.1702   20.7597 N   0  0  0  0  0  0  0  0  0  0  0  0
  -28.7228  -21.4861   22.1359 N   0  0  0  0  0  0  0  0  0  0  0  0
  -26.2949  -32.9716   18.5918 N   0  0  0  0  0  0  0  0  0  0  0  0
  -27.3079  -31.8270   24.9715 N   0  0  0  0  0  0  0  0  0  0  0  0
  -25.4855  -29.7630   27.3138 N   0  3  0  0  0  0  0  0  0  0  0  0
  -22.5086  -14.8082   20.9763 O   0  0  0  0  0  0  0  0  0  0  0  0
  -30.7598  -22.1980   21.2842 O   0  0  0  0  0  0  0  0  0  0  0  0
  -27.8182  -31.3703   19.3253 O   0  0  0  0  0  0  0  0  0  0  0  0
  -26.5991  -21.7493   23.9418 O   0  0  0  0  0  0  0  0  0  0  0  0
  -26.8755  -22.7018   20.5565 O   0  0  0  0  0  0  0  0  0  0  0  0
  -26.4821  -33.3581   22.6950 O   0  0  0  0  0  0  0  0  0  0  0  0
  -27.4757  -29.5433   25.3371 O   0  0  0  0  0  0  0  0  0  0  0  0
  -31.6874  -15.1495   19.7532 O   0  0  0  0  0  0  0  0  0  0  0  0
  -21.8636   -7.5537   23.7228 O   0  0  0  0  0  0  0  0  0  0  0  0
  -26.9610  -25.3307   20.0135 O   0  0  0  0  0  0  0  0  0  1  0  0
  -22.3701   -2.5600   21.4403 F   0  0  0  0  0  0  0  0  0  0  0  0
  -19.6493   -6.1953   22.7772 F   0  0  0  0  0  0  0  0  0  0  0  0
  -29.1814  -18.6415   21.4687 S   0  0  0  0  0  0  0  0  0  0  0  0
  1  2  1  0  0  0  0
  1  5  2  0  0  0  0
  2  6  2  0  0  0  0
  3  8  2  0  0  0  0
  3 15  1  0  0  0  0
  4  9  1  0  0  0  0
  4 15  2  0  0  0  0
  5 17  1  0  0  0  0
  6 19  1  0  0  0  0
  7 10  2  0  0  0  0
  7 18  1  0  0  0  0
  8 21  1  0  0  0  0
  9 21  2  0  0  0  0
 10 22  1  0  0  0  0
 11 12  2  0  0  0  0
 11 23  1  0  0  0  0
 12 24  1  0  0  0  0
 13 20  1  0  0  0  0
 13 22  2  0  0  0  0
 14 24  2  0  0  0  0
 14 25  1  0  0  0  0
 15 26  1  0  0  0  0
 16 26  1  0  0  0  0
 16 29  2  0  0  0  0
 16 31  1  0  0  0  0
 17 19  2  0  0  0  0
 17 39  1  0  0  0  0
 18 20  2  0  0  0  0
 18 40  1  0  0  0  0
 19 48  1  0  0  0  0
 20 41  1  0  0  0  0
 21 83  1  0  0  0  0
 22 84  1  0  0  0  0
 23 25  2  0  0  0  0
 23 83  1  0  0  0  0
 24 85  1  0  0  0  0
 25 86  1  0  0  0  0
 26 62  2  0  0  0  0
 27 28  2  0  0  0  0
 27 32  1  0  0  0  0
 27 87  1  0  0  0  0
 28 63  1  0  0  0  0
 28 67  1  0  0  0  0
 29 64  1  0  0  0  0
 29 68  1  0  0  0  0
 30 63  2  0  0  0  0
 30 70  1  0  0  0  0
 30 87  1  0  0  0  0
 31 69  1  0  0  0  0
 31 75  2  0  0  0  0
 32 71  1  0  0  0  0
 32 76  2  0  0  0  0
 33 49  1  0  0  0  0
 33 72  1  0  0  0  0
 33 77  2  0  0  0  0
 34 51  1  0  0  0  0
 34 58  1  0  0  0  0
 34 78  2  0  0  0  0
 35 57  1  0  0  0  0
 35 58  1  0  0  0  0
 35 79  2  0  0  0  0
 36 59  1  0  0  0  0
 36 65  1  0  0  0  0
 36 80  2  0  0  0  0
 37 60  1  0  0  0  0
 37 73  1  0  0  0  0
 37 81  2  0  0  0  0
 38 66  1  0  0  0  0
 38 70  1  0  0  0  0
 38 82  2  0  0  0  0
 39 42  1  0  0  0  0
 40 49  1  0  0  0  0
 41 65  1  0  0  0  0
 42 44  1  0  0  0  0
 43 45  1  0  0  0  0
 43 46  1  0  0  0  0
 44 48  1  0  0  0  0
 45 50  1  0  0  0  0
 46 66  1  0  0  0  0
 47 50  1  0  0  0  0
 47 66  1  0  0  0  0
 48 72  1  0  0  0  0
 49 65  1  0  0  0  0
 50 64  1  0  0  0  0
 52 60  1  0  0  0  0
 53 61  1  0  0  0  0
 54 61  1  0  0  0  0
 55 61  1  0  0  0  0
 56 74  1  0  0  0  0
 57 84  1  0  0  0  0
 58 71  1  0  0  0  0
 59 61  1  0  0  0  0
 59 73  1  0  0  0  0
 60 74  1  0  0  0  0
 62 64  1  0  0  0  0
M  CHG  1  74   1
M  ISO  4  38 100  57 101  70 100  84 101
M  END
> <Batch ID>
0177

> <Smiles>
CNC(C)C(=O)NC(C(=O)N1Cc2cc([101O:1][101CH2:1]C(=O)C(NC(=O)c3sc([100NH:0][100C:0](=O)N4CCCC(n5nc(-c6ccc(Oc7ccc(F)cc7F)cc6)c(C(N)=O)c5N)C4)nc3N)C(C)=O)ccc2CC1C(=O)NC1CCCc2ccccc21)C(C)(C)C

> <Shape>
0.294

> <Color>
0.162

> <Negative vol penalty>
0.000

$$$$

  -OEChem-04052304413D

 84 92  0     1  0  0  0  0  0999 V2000
  -18.6535  -28.4212   21.6418 C   0  0  0  0  0  0  0  0  0  0  0  0
  -19.6031  -27.4075   21.5635 C   0  0  0  0  0  0  0  0  0  0  0  0
  -23.0417   -9.7441   20.1014 C   0  0  0  0  0  0  0  0  0  0  0  0
  -23.7142   -9.9819   22.4097 C   0  0  0  0  0  0  0  0  0  0  0  0
  -18.5514  -29.1912   22.7996 C   0  0  0  0  0  0  0  0  0  0  0  0
  -20.4519  -27.1640   22.6426 C   0  0  0  0  0  0  0  0  0  0  0  0
  -22.6201  -21.7356   24.4693 C   0  0  0  0  0  0  0  0  0  0  0  0
  -22.2917   -8.6167   20.4360 C   0  0  0  0  0  0  0  0  0  0  0  0
  -22.9641   -8.8545   22.7444 C   0  0  0  0  0  0  0  0  0  0  0  0
  -23.8375  -21.0911   24.2539 C   0  0  0  0  0  0  0  0  0  0  0  0
  -21.5166   -5.8292   24.1452 C   0  0  0  0  0  0  0  0  0  0  0  0
  -22.1053   -4.8851   24.9864 C   0  0  0  0  0  0  0  0  0  0  0  0
  -24.6444  -21.9212   26.3703 C   0  0  0  0  0  0  0  0  0  0  0  0
  -23.8730   -4.5505   23.3739 C   0  0  0  0  0  0  0  0  0  0  0  0
  -31.7181  -17.4596   21.3382 C   0  0  0  0  0  0  0  0  0  0  0  0
  -23.7530  -10.4267   21.0883 C   0  0  0  0  0  0  0  0  0  0  0  0
  -24.0932  -12.9297   20.7322 C   0  0  0  0  0  0  0  0  0  0  0  0
  -19.3930  -28.9507   23.8971 C   0  0  0  0  0  0  0  0  0  0  0  0
  -22.4092  -22.4879   25.6337 C   0  0  0  0  0  0  0  0  0  0  0  0
  -20.3619  -27.9324   23.8157 C   0  0  0  0  0  0  0  0  0  0  0  0
  -23.4225  -22.5721   26.5993 C   0  0  0  0  0  0  0  0  0  0  0  0
  -30.4534  -17.0197   21.6616 C   0  0  0  0  0  0  0  0  0  0  0  0
  -22.2528   -8.1719   21.7575 C   0  0  0  0  0  0  0  0  0  0  0  0
  -24.8509  -21.1863   25.2032 C   0  0  0  0  0  0  0  0  0  0  0  0
  -22.1060   -6.1339   22.9182 C   0  0  0  0  0  0  0  0  0  0  0  0
  -23.2835   -4.2458   24.6008 C   0  0  0  0  0  0  0  0  0  0  0  0
  -23.2842   -5.4946   22.5326 C   0  0  0  0  0  0  0  0  0  0  0  0
  -29.7118  -18.0028   22.3784 C   0  0  0  0  0  0  0  0  0  0  0  0
  -24.5285  -11.5910   20.7431 C   0  0  0  0  0  0  0  0  0  0  0  0
  -30.4382  -19.1566   22.5758 C   0  0  0  0  0  0  0  0  0  0  0  0
  -25.1965  -13.6464   20.3378 C   0  0  0  0  0  0  0  0  0  0  0  0
  -22.8065  -13.4766   21.0502 C   0  0  0  0  0  0  0  0  0  0  0  0
  -30.0327  -20.4058   23.2702 C   0  0  0  0  0  0  0  0  0  0  0  0
  -21.7880  -25.5442   26.2478 C   0  0  0  0  0  0  0  0  0  0  0  0
  -21.4722  -24.4648   29.2905 C   0  0  0  0  0  0  0  0  0  0  0  0
  -22.2426  -22.0894   31.6165 C   0  0  0  0  0  0  0  0  0  0  0  0
  -30.6496  -14.7376   20.6129 C   0  0  0  0  0  0  0  0  0  0  0  0
  -19.2770  -29.8403   25.1095 C   0  0  0  0  0  0  0  0  0  0  0  0
  -21.0808  -23.1550   25.8634 C   0  0  0  0  0  0  0  0  0  0  0  0
  -23.2391  -23.3507   27.8755 C   0  0  0  0  0  0  0  0  0  0  0  0
  -19.9629  -29.2725   26.3494 C   0  0  0  0  0  0  0  0  0  0  0  0
  -29.6316  -12.0950   18.4548 C   0  0  0  0  0  0  0  0  0  0  0  0
  -21.3562  -28.7589   26.0006 C   0  0  0  0  0  0  0  0  0  0  0  0
  -28.1774  -11.8384   18.8569 C   0  0  0  0  0  0  0  0  0  0  0  0
  -30.4999  -12.4469   19.6614 C   0  0  0  0  0  0  0  0  0  0  0  0
  -28.5403  -13.2925   20.8918 C   0  0  0  0  0  0  0  0  0  0  0  0
  -21.2841  -27.6216   24.9746 C   0  0  1  0  0  0  0  0  0  0  0  0
  -21.1586  -24.3184   26.8472 C   0  0  1  0  0  0  0  0  0  0  0  0
  -27.6132  -12.9978   19.7013 C   0  0  2  0  0  0  0  0  0  0  0  0
  -21.8692  -21.4980   34.0265 C   0  0  0  0  0  0  0  0  0  0  0  0
  -27.5692  -22.5156   23.4571 C   0  0  0  0  0  0  0  0  0  0  0  0
  -27.7920  -20.2044   26.6011 C   0  0  0  0  0  0  0  0  0  0  0  0
  -23.4869  -26.5993   30.1239 C   0  0  0  0  0  0  0  0  0  0  0  0
  -23.7869  -25.3728   32.2858 C   0  0  0  0  0  0  0  0  0  0  0  0
  -21.5570  -26.3185   31.6894 C   0  0  0  0  0  0  0  0  0  0  0  0
  -20.9011  -19.5489   30.9057 C   0  0  0  0  0  0  0  0  0  0  0  0
  -22.4069  -24.2786   30.4612 C   0  0  1  0  0  0  0  0  0  0  0  0
  -21.3755  -21.3228   32.5988 C   0  0  2  0  0  0  0  0  0  0  0  0
  -28.2006  -21.5675   24.4742 C   0  0  1  0  0  0  0  0  0  0  0  0
  -27.2006  -21.1589   25.5699 C   0  0  1  0  0  0  0  0  0  1  0  0
  -22.8139  -25.6291   31.1152 C   0  0  0  0  0  0  0  0  0  0  0  0
  -25.8085  -11.4621   20.3840 N   0  0  0  0  0  0  0  0  0  0  0  0
  -26.1870  -12.7290   20.1437 N   0  0  0  0  0  0  0  0  0  0  0  0
  -21.9247  -23.9903   28.0511 N   0  0  0  0  0  0  0  0  0  0  0  0
  -29.9056  -13.5559   20.4110 N   0  0  0  0  0  0  0  0  0  0  0  0
  -25.4064  -14.9654   20.1415 N   0  0  0  0  0  0  0  0  0  0  0  0
  -21.7847  -12.5990   21.4375 N   0  0  0  0  0  0  0  0  0  0  0  0
  -29.9695  -15.7349   21.3110 N   0  0  0  0  0  0  0  0  0  0  0  0
  -28.7492  -20.4173   23.7927 N   0  0  0  0  0  0  0  0  0  0  0  0
  -20.8916  -26.3855   25.6169 N   0  0  0  0  0  0  0  0  0  0  0  0
  -21.7428  -23.3506   31.3702 N   0  0  0  0  0  0  0  0  0  0  0  0
  -21.3854  -19.8686   32.2733 N   0  3  0  0  0  0  0  0  0  0  0  0
  -22.5653  -14.7054   20.9768 O   0  0  0  0  0  0  0  0  0  0  0  0
  -30.8229  -21.3444   23.3269 O   0  0  0  0  0  0  0  0  0  0  0  0
  -22.9970  -25.7147   26.3515 O   0  0  0  0  0  0  0  0  0  0  0  0
  -20.3778  -25.0047   29.4703 O   0  0  0  0  0  0  0  0  0  0  0  0
  -23.2635  -21.6179   31.1204 O   0  0  0  0  0  0  0  0  0  0  0  0
  -31.7952  -14.8663   20.1735 O   0  0  0  0  0  0  0  0  0  0  0  0
  -21.5208   -7.0720   22.0845 O   0  0  0  0  0  0  0  0  0  0  0  0
  -26.0404  -20.5588   24.9952 O   0  0  0  0  0  0  0  0  0  1  0  0
  -23.8495   -3.3403   25.4095 F   0  0  0  0  0  0  0  0  0  0  0  0
  -23.8558   -5.7840   21.3556 F   0  0  0  0  0  0  0  0  0  0  0  0
  -28.4600  -17.8265   22.8082 F   0  0  0  0  0  0  0  0  0  0  0  0
  -32.0073  -19.0518   21.8981 S   0  0  0  0  0  0  0  0  0  0  0  0
  1  2  1  0  0  0  0
  1  5  2  0  0  0  0
  2  6  2  0  0  0  0
  3  8  2  0  0  0  0
  3 16  1  0  0  0  0
  4  9  1  0  0  0  0
  4 16  2  0  0  0  0
  5 18  1  0  0  0  0
  6 20  1  0  0  0  0
  7 10  2  0  0  0  0
  7 19  1  0  0  0  0
  8 23  1  0  0  0  0
  9 23  2  0  0  0  0
 10 24  1  0  0  0  0
 11 12  2  0  0  0  0
 11 25  1  0  0  0  0
 12 26  1  0  0  0  0
 13 21  1  0  0  0  0
 13 24  2  0  0  0  0
 14 26  2  0  0  0  0
 14 27  1  0  0  0  0
 15 22  2  0  0  0  0
 15 84  1  0  0  0  0
 16 29  1  0  0  0  0
 17 29  1  0  0  0  0
 17 31  2  0  0  0  0
 17 32  1  0  0  0  0
 18 20  2  0  0  0  0
 18 38  1  0  0  0  0
 19 21  2  0  0  0  0
 19 39  1  0  0  0  0
 20 47  1  0  0  0  0
 21 40  1  0  0  0  0
 22 28  1  0  0  0  0
 22 68  1  0  0  0  0
 23 79  1  0  0  0  0
 24 80  1  0  0  0  0
 25 27  2  0  0  0  0
 25 79  1  0  0  0  0
 26 81  1  0  0  0  0
 27 82  1  0  0  0  0
 28 30  2  0  0  0  0
 28 83  1  0  0  0  0
 29 62  2  0  0  0  0
 30 33  1  0  0  0  0
 30 84  1  0  0  0  0
 31 63  1  0  0  0  0
 31 66  1  0  0  0  0
 32 67  1  0  0  0  0
 32 73  2  0  0  0  0
 33 69  1  0  0  0  0
 33 74  2  0  0  0  0
 34 48  1  0  0  0  0
 34 70  1  0  0  0  0
 34 75  2  0  0  0  0
 35 57  1  0  0  0  0
 35 64  1  0  0  0  0
 35 76  2  0  0  0  0
 36 58  1  0  0  0  0
 36 71  1  0  0  0  0
 36 77  2  0  0  0  0
 37 65  1  0  0  0  0
 37 68  1  0  0  0  0
 37 78  2  0  0  0  0
 38 41  1  0  0  0  0
 39 48  1  0  0  0  0
 40 64  1  0  0  0  0
 41 43  1  0  0  0  0
 42 44  1  0  0  0  0
 42 45  1  0  0  0  0
 43 47  1  0  0  0  0
 44 49  1  0  0  0  0
 45 65  1  0  0  0  0
 46 49  1  0  0  0  0
 46 65  1  0  0  0  0
 47 70  1  0  0  0  0
 48 64  1  0  0  0  0
 49 63  1  0  0  0  0
 50 58  1  0  0  0  0
 51 59  1  0  0  0  0
 52 60  1  0  0  0  0
 53 61  1  0  0  0  0
 54 61  1  0  0  0  0
 55 61  1  0  0  0  0
 56 72  1  0  0  0  0
 57 61  1  0  0  0  0
 57 71  1  0  0  0  0
 58 72  1  0  0  0  0
 59 60  1  0  0  0  0
 59 69  1  0  0  0  0
 60 80  1  0  0  0  0
 62 63  1  0  0  0  0
M  CHG  1  72   1
M  ISO  4  37 100  60 101  68 100  80 101
M  END
> <Batch ID>
0177

> <Smiles>
CNC(C)C(=O)NC(C(=O)N1Cc2cc([101O:1][101CH:1](C)C(C)NC(=O)c3scc([100NH:0][100C:0](=O)N4CCCC(n5nc(-c6ccc(Oc7ccc(F)cc7F)cc6)c(C(N)=O)c5N)C4)c3F)ccc2CC1C(=O)NC1CCCc2ccccc21)C(C)(C)C

> <Shape>
0.218

> <Color>
0.208

> <Negative vol penalty>
0.000

$$$$

  -OEChem-04052304413D

 87 95  0     1  0  0  0  0  0999 V2000
  -29.1078  -31.5367   21.6254 C   0  0  0  0  0  0  0  0  0  0  0  0
  -28.5396  -30.2670   21.6485 C   0  0  0  0  0  0  0  0  0  0  0  0
  -22.7173  -11.8493   18.9165 C   0  0  0  0  0  0  0  0  0  0  0  0
  -22.8734  -10.2046   20.6794 C   0  0  0  0  0  0  0  0  0  0  0  0
  -28.4194  -32.6172   22.1755 C   0  0  0  0  0  0  0  0  0  0  0  0
  -27.2832  -30.0769   22.2226 C   0  0  0  0  0  0  0  0  0  0  0  0
  -24.2734  -27.1542   19.3865 C   0  0  0  0  0  0  0  0  0  0  0  0
  -21.6101  -11.1823   18.3923 C   0  0  0  0  0  0  0  0  0  0  0  0
  -21.7661   -9.5376   20.1552 C   0  0  0  0  0  0  0  0  0  0  0  0
  -24.4946  -25.7785   19.4326 C   0  0  0  0  0  0  0  0  0  0  0  0
  -18.3058  -10.9305   19.0640 C   0  0  0  0  0  0  0  0  0  0  0  0
  -17.2059  -11.6995   18.6840 C   0  0  0  0  0  0  0  0  0  0  0  0
  -29.5255  -19.9734   21.7752 C   0  0  0  0  0  0  0  0  0  0  0  0
  -22.6540  -25.5402   20.9736 C   0  0  0  0  0  0  0  0  0  0  0  0
  -17.4193  -10.8856   16.4192 C   0  0  0  0  0  0  0  0  0  0  0  0
  -23.3490  -11.3604   20.0601 C   0  0  0  0  0  0  0  0  0  0  0  0
  -30.5696  -19.0064   21.7043 C   0  0  0  0  0  0  0  0  0  0  0  0
  -24.4900  -13.0776   21.5624 C   0  0  0  0  0  0  0  0  0  0  0  0
  -27.1497  -32.4420   22.7480 C   0  0  0  0  0  0  0  0  0  0  0  0
  -23.2460  -27.7357   20.1434 C   0  0  0  0  0  0  0  0  0  0  0  0
  -26.5778  -31.1559   22.7820 C   0  0  0  0  0  0  0  0  0  0  0  0
  -22.4202  -26.9232   20.9334 C   0  0  0  0  0  0  0  0  0  0  0  0
  -21.1345  -10.0265   19.0117 C   0  0  0  0  0  0  0  0  0  0  0  0
  -23.6867  -24.9716   20.2285 C   0  0  0  0  0  0  0  0  0  0  0  0
  -18.9625  -10.1391   18.1216 C   0  0  0  0  0  0  0  0  0  0  0  0
  -16.7626  -11.6771   17.3617 C   0  0  0  0  0  0  0  0  0  0  0  0
  -18.5192  -10.1167   16.7992 C   0  0  0  0  0  0  0  0  0  0  0  0
  -24.4932  -12.0485   20.6017 C   0  0  0  0  0  0  0  0  0  0  0  0
  -30.2610  -17.9738   20.8464 C   0  0  0  0  0  0  0  0  0  0  0  0
  -25.8164  -13.3889   21.7365 C   0  0  0  0  0  0  0  0  0  0  0  0
  -28.4587  -19.6431   20.9685 C   0  0  0  0  0  0  0  0  0  0  0  0
  -25.1177  -23.1861   20.7131 C   0  0  0  0  0  0  0  0  0  1  0  0
  -31.8111  -19.0801   22.4311 C   0  0  0  0  0  0  0  0  0  0  0  0
  -23.3867  -13.6967   22.2370 C   0  0  0  0  0  0  0  0  0  0  0  0
  -31.0613  -16.7749   20.4870 C   0  0  0  0  0  0  0  0  0  0  0  0
  -25.4364  -21.8890   20.8000 C   0  0  0  0  0  0  0  0  0  0  0  0
  -26.7995  -21.5062   21.2937 C   0  0  0  0  0  0  0  0  0  0  0  0
  -23.1249  -29.8724   22.4936 C   0  0  0  0  0  0  0  0  0  0  0  0
  -19.9227  -29.5930   22.0576 C   0  0  0  0  0  0  0  0  0  0  0  0
  -17.3028  -27.7044   20.9548 C   0  0  0  0  0  0  0  0  0  0  0  0
  -30.8830  -14.4207   19.7458 C   0  0  0  0  0  0  0  0  0  0  0  0
  -26.4645  -33.6317   23.3725 C   0  0  0  0  0  0  0  0  0  0  0  0
  -23.0033  -29.2179   20.0620 C   0  0  0  0  0  0  0  0  0  0  0  0
  -21.2909  -27.4957   21.7491 C   0  0  0  0  0  0  0  0  0  0  0  0
  -24.9753  -33.4128   23.6264 C   0  0  0  0  0  0  0  0  0  0  0  0
  -29.9969  -11.0205   20.1339 C   0  0  0  0  0  0  0  0  0  0  0  0
  -24.7394  -32.0566   24.2837 C   0  0  0  0  0  0  0  0  0  0  0  0
  -28.4860  -11.0667   20.3776 C   0  0  0  0  0  0  0  0  0  0  0  0
  -30.4388  -12.0659   19.1107 C   0  0  0  0  0  0  0  0  0  0  0  0
  -28.4948  -13.4817   19.6347 C   0  0  0  0  0  0  0  0  0  0  0  0
  -25.2061  -30.9140   23.3737 C   0  0  1  0  0  0  0  0  0  0  0  0
  -22.2556  -29.7683   21.2725 C   0  0  1  0  0  0  0  0  0  0  0  0
  -28.0099  -12.4952   20.7094 C   0  0  1  0  0  0  0  0  0  0  0  0
  -32.3591  -20.4459   22.7583 C   0  0  0  0  0  0  0  0  0  0  0  0
  -14.8006  -27.7264   20.7654 C   0  0  0  0  0  0  0  0  0  0  0  0
  -19.6940  -29.0036   25.0426 C   0  0  0  0  0  0  0  0  0  0  0  0
  -17.3908  -28.1175   24.6202 C   0  0  0  0  0  0  0  0  0  0  0  0
  -17.9135  -30.5083   24.1369 C   0  0  0  0  0  0  0  0  0  0  0  0
  -17.4085  -27.5084   18.0036 C   0  0  0  0  0  0  0  0  0  0  0  0
  -18.8399  -28.7067   22.6242 C   0  0  1  0  0  0  0  0  0  0  0  0
  -16.1159  -28.0460   20.0721 C   0  0  2  0  0  0  0  0  0  0  0  0
  -18.4820  -29.0732   24.0922 C   0  0  0  0  0  0  0  0  0  0  0  0
  -25.7240  -11.7276   20.1940 N   0  0  0  0  0  0  0  0  0  0  0  0
  -26.5065  -12.5599   20.9018 N   0  0  0  0  0  0  0  0  0  0  0  0
  -21.0977  -28.9512   21.6411 N   0  0  0  0  0  0  0  0  0  0  0  0
  -29.9567  -13.3916   19.5023 N   0  0  0  0  0  0  0  0  0  0  0  0
  -26.4480  -14.2882   22.5205 N   0  0  0  0  0  0  0  0  0  0  0  0
  -22.0897  -13.2564   21.9400 N   0  0  0  0  0  0  0  0  0  0  0  0
  -27.2314  -20.3100   20.7376 N   0  0  0  0  0  0  0  0  0  0  0  0
  -30.3254  -15.6369   20.1556 N   0  0  0  0  0  0  0  0  0  0  0  0
  -24.2373  -30.6748   22.3255 N   0  0  0  0  0  0  0  0  0  0  0  0
  -17.7169  -28.7903   21.6967 N   0  0  0  0  0  0  0  0  0  0  0  0
  -16.1768  -27.2723   18.7999 N   0  3  0  0  0  0  0  0  0  0  0  0
  -32.4810  -18.1080   22.8129 O   0  0  0  0  0  0  0  0  0  0  0  0
  -23.5453  -14.6245   23.0662 O   0  0  0  0  0  0  0  0  0  0  0  0
  -32.2861  -16.8586   20.4630 O   0  0  0  0  0  0  0  0  0  0  0  0
  -27.4017  -22.2145   22.0934 O   0  0  0  0  0  0  0  0  0  0  0  0
  -22.8090  -29.2705   23.5132 O   0  0  0  0  0  0  0  0  0  0  0  0
  -19.7302  -30.8090   21.9805 O   0  0  0  0  0  0  0  0  0  0  0  0
  -17.8094  -26.5850   20.9860 O   0  0  0  0  0  0  0  0  0  0  0  0
  -32.1034  -14.2601   19.6442 O   0  0  0  0  0  0  0  0  0  0  0  0
  -24.5567  -20.8838   20.4531 O   0  0  0  0  0  0  0  0  0  0  0  0
  -20.0539   -9.3756   18.5005 O   0  0  0  0  0  0  0  0  0  0  0  0
  -23.9009  -23.6285   20.2758 O   0  0  0  0  0  0  0  0  0  1  0  0
  -15.7054  -12.4144   16.9973 F   0  0  0  0  0  0  0  0  0  0  0  0
  -19.1453   -9.3574   15.8896 F   0  0  0  0  0  0  0  0  0  0  0  0
  -28.7181  -18.1723   20.1307 S   0  0  0  0  0  0  0  0  0  0  0  0
  1  2  1  0  0  0  0
  1  5  2  0  0  0  0
  2  6  2  0  0  0  0
  3  8  2  0  0  0  0
  3 16  1  0  0  0  0
  4  9  1  0  0  0  0
  4 16  2  0  0  0  0
  5 19  1  0  0  0  0
  6 21  1  0  0  0  0
  7 10  2  0  0  0  0
  7 20  1  0  0  0  0
  8 23  1  0  0  0  0
  9 23  2  0  0  0  0
 10 24  1  0  0  0  0
 11 12  2  0  0  0  0
 11 25  1  0  0  0  0
 12 26  1  0  0  0  0
 13 17  1  0  0  0  0
 13 31  2  0  0  0  0
 14 22  1  0  0  0  0
 14 24  2  0  0  0  0
 15 26  2  0  0  0  0
 15 27  1  0  0  0  0
 16 28  1  0  0  0  0
 17 29  2  0  0  0  0
 17 33  1  0  0  0  0
 18 28  1  0  0  0  0
 18 30  2  0  0  0  0
 18 34  1  0  0  0  0
 19 21  2  0  0  0  0
 19 42  1  0  0  0  0
 20 22  2  0  0  0  0
 20 43  1  0  0  0  0
 21 51  1  0  0  0  0
 22 44  1  0  0  0  0
 23 83  1  0  0  0  0
 24 84  1  0  0  0  0
 25 27  2  0  0  0  0
 25 83  1  0  0  0  0
 26 85  1  0  0  0  0
 27 86  1  0  0  0  0
 28 63  2  0  0  0  0
 29 35  1  0  0  0  0
 29 87  1  0  0  0  0
 30 64  1  0  0  0  0
 30 67  1  0  0  0  0
 31 69  1  0  0  0  0
 31 87  1  0  0  0  0
 32 36  2  0  0  0  0
 32 84  1  0  0  0  0
 33 54  1  0  0  0  0
 33 74  2  0  0  0  0
 34 68  1  0  0  0  0
 34 75  2  0  0  0  0
 35 70  1  0  0  0  0
 35 76  2  0  0  0  0
 36 37  1  0  0  0  0
 36 82  1  0  0  0  0
 37 69  1  0  0  0  0
 37 77  2  0  0  0  0
 38 52  1  0  0  0  0
 38 71  1  0  0  0  0
 38 78  2  0  0  0  0
 39 60  1  0  0  0  0
 39 65  1  0  0  0  0
 39 79  2  0  0  0  0
 40 61  1  0  0  0  0
 40 72  1  0  0  0  0
 40 80  2  0  0  0  0
 41 66  1  0  0  0  0
 41 70  1  0  0  0  0
 41 81  2  0  0  0  0
 42 45  1  0  0  0  0
 43 52  1  0  0  0  0
 44 65  1  0  0  0  0
 45 47  1  0  0  0  0
 46 48  1  0  0  0  0
 46 49  1  0  0  0  0
 47 51  1  0  0  0  0
 48 53  1  0  0  0  0
 49 66  1  0  0  0  0
 50 53  1  0  0  0  0
 50 66  1  0  0  0  0
 51 71  1  0  0  0  0
 52 65  1  0  0  0  0
 53 64  1  0  0  0  0
 55 61  1  0  0  0  0
 56 62  1  0  0  0  0
 57 62  1  0  0  0  0
 58 62  1  0  0  0  0
 59 73  1  0  0  0  0
 60 62  1  0  0  0  0
 60 72  1  0  0  0  0
 61 73  1  0  0  0  0
 63 64  1  0  0  0  0
M  CHG  1  73   1
M  ISO  4  32 101  41 100  70 100  84 101
M  END
> <Batch ID>
0177

> <Smiles>
CNC(C)C(=O)NC(C(=O)N1Cc2cc([101O:1][101CH2:1]C(=O)C(=O)Nc3cc(C(C)=O)c(C(=O)[100NH:0][100C:0](=O)N4CCCC(n5nc(-c6ccc(Oc7ccc(F)cc7F)cc6)c(C(N)=O)c5N)C4)s3)ccc2CC1C(=O)NC1CCCc2ccccc21)C(C)(C)C

> <Shape>
0.273

> <Color>
0.080

> <Negative vol penalty>
0.000

$$$$

  -OEChem-04052304413D

 84 92  0     1  0  0  0  0  0999 V2000
  -24.9838  -22.4223   12.0774 C   0  0  0  0  0  0  0  0  0  0  0  0
  -24.0559  -21.8773   12.9576 C   0  0  0  0  0  0  0  0  0  0  0  0
  -27.3417  -23.1418   20.2652 C   0  0  0  0  0  0  0  0  0  0  0  0
  -29.3700  -23.3782   18.9740 C   0  0  0  0  0  0  0  0  0  0  0  0
  -25.6479  -23.6005   12.4122 C   0  0  0  0  0  0  0  0  0  0  0  0
  -23.7830  -22.5164   14.1675 C   0  0  0  0  0  0  0  0  0  0  0  0
  -20.0988  -20.6990   16.8743 C   0  0  0  0  0  0  0  0  0  0  0  0
  -27.3575  -24.5091   20.5403 C   0  0  0  0  0  0  0  0  0  0  0  0
  -29.3857  -24.7456   19.2490 C   0  0  0  0  0  0  0  0  0  0  0  0
  -20.1925  -19.4879   17.5586 C   0  0  0  0  0  0  0  0  0  0  0  0
  -26.5437  -27.3796   18.9494 C   0  0  0  0  0  0  0  0  0  0  0  0
  -25.3440  -28.0799   18.8242 C   0  0  0  0  0  0  0  0  0  0  0  0
  -20.4990  -20.6882   19.6285 C   0  0  0  0  0  0  0  0  0  0  0  0
  -25.8271  -14.2574   20.7004 C   0  0  0  0  0  0  0  0  0  0  0  0
  -25.4637  -28.7019   21.1557 C   0  0  0  0  0  0  0  0  0  0  0  0
  -24.3833  -12.4361   20.6756 C   0  0  0  0  0  0  0  0  0  0  0  0
  -28.3480  -22.5763   19.4821 C   0  0  0  0  0  0  0  0  0  0  0  0
  -27.3246  -20.4416   18.5316 C   0  0  0  0  0  0  0  0  0  0  0  0
  -25.3917  -24.2470   13.6325 C   0  0  0  0  0  0  0  0  0  0  0  0
  -20.2155  -21.9157   17.5615 C   0  0  0  0  0  0  0  0  0  0  0  0
  -24.4254  -23.7192   14.5130 C   0  0  0  0  0  0  0  0  0  0  0  0
  -20.4038  -21.9134   18.9510 C   0  0  0  0  0  0  0  0  0  0  0  0
  -24.4760  -13.8099   20.6342 C   0  0  0  0  0  0  0  0  0  0  0  0
  -28.3794  -25.3110   20.0322 C   0  0  0  0  0  0  0  0  0  0  0  0
  -20.3955  -19.4824   18.9355 C   0  0  0  0  0  0  0  0  0  0  0  0
  -27.2035  -27.3404   20.1778 C   0  0  0  0  0  0  0  0  0  0  0  0
  -24.8039  -28.7410   19.9273 C   0  0  0  0  0  0  0  0  0  0  0  0
  -26.6635  -28.0016   21.2809 C   0  0  0  0  0  0  0  0  0  0  0  0
  -28.3327  -21.1638   19.1980 C   0  0  0  0  0  0  0  0  0  0  0  0
  -26.7157  -13.2085   20.7902 C   0  0  0  0  0  0  0  0  0  0  0  0
  -27.7824  -19.1468   18.5169 C   0  0  0  0  0  0  0  0  0  0  0  0
  -21.7246  -17.7371   19.7468 C   0  0  0  0  0  0  0  0  0  1  0  0
  -26.0852  -20.9003   17.9756 C   0  0  0  0  0  0  0  0  0  0  0  0
  -28.1981  -13.2485   20.8775 C   0  0  0  0  0  0  0  0  0  0  0  0
  -21.9316  -16.5796   20.3864 C   0  0  0  0  0  0  0  0  0  0  0  0
  -23.3284  -16.0442   20.4877 C   0  0  0  0  0  0  0  0  0  0  0  0
  -22.2331  -24.3695   17.4512 C   0  0  0  0  0  0  0  0  0  0  0  0
  -20.1415  -25.6809   19.5555 C   0  0  0  0  0  0  0  0  0  0  0  0
  -17.7240  -25.2030   21.9165 C   0  0  0  0  0  0  0  0  0  0  0  0
  -30.1379  -14.7813   20.9853 C   0  0  0  0  0  0  0  0  0  0  0  0
  -26.1333  -25.5238   13.9409 C   0  0  0  0  0  0  0  0  0  0  0  0
  -20.0854  -23.2137   16.8126 C   0  0  0  0  0  0  0  0  0  0  0  0
  -20.5154  -23.1925   19.7383 C   0  0  0  0  0  0  0  0  0  0  0  0
  -26.1069  -25.8836   15.4228 C   0  0  0  0  0  0  0  0  0  0  0  0
  -32.3247  -17.2421   19.6973 C   0  0  0  0  0  0  0  0  0  0  0  0
  -24.6818  -25.8099   15.9503 C   0  0  0  0  0  0  0  0  0  0  0  0
  -31.3991  -18.4221   19.3889 C   0  0  0  0  0  0  0  0  0  0  0  0
  -31.9102  -16.5146   20.9755 C   0  0  0  0  0  0  0  0  0  0  0  0
  -29.5834  -17.2752   20.7201 C   0  0  0  0  0  0  0  0  0  0  0  0
  -24.1349  -24.3804   15.8481 C   0  0  1  0  0  0  0  0  0  0  0  0
  -20.7331  -24.3894   17.5377 C   0  0  1  0  0  0  0  0  0  0  0  0
  -29.9169  -17.9974   19.4047 C   0  0  1  0  0  0  0  0  0  0  0  0
  -16.2284  -26.4646   23.4879 C   0  0  0  0  0  0  0  0  0  0  0  0
  -22.5117  -26.1726   21.4129 C   0  0  0  0  0  0  0  0  0  0  0  0
  -20.8840  -26.5323   23.2809 C   0  0  0  0  0  0  0  0  0  0  0  0
  -20.8654  -28.0519   21.3027 C   0  0  0  0  0  0  0  0  0  0  0  0
  -15.2804  -24.1514   20.6196 C   0  0  0  0  0  0  0  0  0  0  0  0
  -20.0005  -25.6887   21.0585 C   0  0  1  0  0  0  0  0  0  0  0  0
  -16.3607  -25.8432   22.1061 C   0  0  2  0  0  0  0  0  0  0  0  0
  -21.0653  -26.5871   21.7489 C   0  0  0  0  0  0  0  0  0  0  0  0
  -29.3538  -20.3918   19.5792 N   0  0  0  0  0  0  0  0  0  0  0  0
  -28.9897  -19.1711   19.1510 N   0  0  0  0  0  0  0  0  0  0  0  0
  -20.3880  -24.4357   18.9600 N   0  0  0  0  0  0  0  0  0  0  0  0
  -30.4971  -16.1382   20.9070 N   0  0  0  0  0  0  0  0  0  0  0  0
  -27.2660  -18.0011   18.0237 N   0  0  0  0  0  0  0  0  0  0  0  0
  -26.0685  -21.3244   16.6399 N   0  0  0  0  0  0  0  0  0  0  0  0
  -23.3458  -14.6571   20.5376 N   0  0  0  0  0  0  0  0  0  0  0  0
  -28.7679  -14.5219   20.8672 N   0  0  0  0  0  0  0  0  0  0  0  0
  -22.7224  -24.3920   16.1591 N   0  0  0  0  0  0  0  0  0  0  0  0
  -18.6215  -26.0749   21.3371 N   0  0  0  0  0  0  0  0  0  0  0  0
  -15.2837  -24.8261   21.9432 N   0  3  0  0  0  0  0  0  0  0  0  0
  -25.0275  -20.9484   18.6482 O   0  0  0  0  0  0  0  0  0  0  0  0
  -28.8192  -12.1952   20.9907 O   0  0  0  0  0  0  0  0  0  0  0  0
  -24.2927  -16.8012   20.5178 O   0  0  0  0  0  0  0  0  0  0  0  0
  -22.8972  -24.3378   18.4806 O   0  0  0  0  0  0  0  0  0  0  0  0
  -20.0296  -26.7394   18.9321 O   0  0  0  0  0  0  0  0  0  0  0  0
  -17.9694  -24.0466   22.2524 O   0  0  0  0  0  0  0  0  0  0  0  0
  -30.9681  -13.8756   21.1110 O   0  0  0  0  0  0  0  0  0  0  0  0
  -20.9067  -15.8555   20.9609 O   0  0  0  0  0  0  0  0  0  0  0  0
  -28.3950  -26.6454   20.3003 O   0  0  0  0  0  0  0  0  0  0  0  0
  -20.4880  -18.3017   19.6058 O   0  0  0  0  0  0  0  0  0  1  0  0
  -23.6525  -29.4148   19.8065 F   0  0  0  0  0  0  0  0  0  0  0  0
  -27.2933  -27.9685   22.4633 F   0  0  0  0  0  0  0  0  0  0  0  0
  -25.9209  -11.6917   20.7940 S   0  0  0  0  0  0  0  0  0  0  0  0
  1  2  1  0  0  0  0
  1  5  2  0  0  0  0
  2  6  2  0  0  0  0
  3  8  2  0  0  0  0
  3 17  1  0  0  0  0
  4  9  1  0  0  0  0
  4 17  2  0  0  0  0
  5 19  1  0  0  0  0
  6 21  1  0  0  0  0
  7 10  2  0  0  0  0
  7 20  1  0  0  0  0
  8 24  1  0  0  0  0
  9 24  2  0  0  0  0
 10 25  1  0  0  0  0
 11 12  2  0  0  0  0
 11 26  1  0  0  0  0
 12 27  1  0  0  0  0
 13 22  1  0  0  0  0
 13 25  2  0  0  0  0
 14 23  1  0  0  0  0
 14 30  2  0  0  0  0
 15 27  2  0  0  0  0
 15 28  1  0  0  0  0
 16 23  2  0  0  0  0
 16 84  1  0  0  0  0
 17 29  1  0  0  0  0
 18 29  1  0  0  0  0
 18 31  2  0  0  0  0
 18 33  1  0  0  0  0
 19 21  2  0  0  0  0
 19 41  1  0  0  0  0
 20 22  2  0  0  0  0
 20 42  1  0  0  0  0
 21 50  1  0  0  0  0
 22 43  1  0  0  0  0
 23 67  1  0  0  0  0
 24 80  1  0  0  0  0
 25 81  1  0  0  0  0
 26 28  2  0  0  0  0
 26 80  1  0  0  0  0
 27 82  1  0  0  0  0
 28 83  1  0  0  0  0
 29 61  2  0  0  0  0
 30 34  1  0  0  0  0
 30 84  1  0  0  0  0
 31 62  1  0  0  0  0
 31 65  1  0  0  0  0
 32 35  2  0  0  0  0
 32 81  1  0  0  0  0
 33 66  1  0  0  0  0
 33 72  2  0  0  0  0
 34 68  1  0  0  0  0
 34 73  2  0  0  0  0
 35 36  1  0  0  0  0
 35 79  1  0  0  0  0
 36 67  1  0  0  0  0
 36 74  2  0  0  0  0
 37 51  1  0  0  0  0
 37 69  1  0  0  0  0
 37 75  2  0  0  0  0
 38 58  1  0  0  0  0
 38 63  1  0  0  0  0
 38 76  2  0  0  0  0
 39 59  1  0  0  0  0
 39 70  1  0  0  0  0
 39 77  2  0  0  0  0
 40 64  1  0  0  0  0
 40 68  1  0  0  0  0
 40 78  2  0  0  0  0
 41 44  1  0  0  0  0
 42 51  1  0  0  0  0
 43 63  1  0  0  0  0
 44 46  1  0  0  0  0
 45 47  1  0  0  0  0
 45 48  1  0  0  0  0
 46 50  1  0  0  0  0
 47 52  1  0  0  0  0
 48 64  1  0  0  0  0
 49 52  1  0  0  0  0
 49 64  1  0  0  0  0
 50 69  1  0  0  0  0
 51 63  1  0  0  0  0
 52 62  1  0  0  0  0
 53 59  1  0  0  0  0
 54 60  1  0  0  0  0
 55 60  1  0  0  0  0
 56 60  1  0  0  0  0
 57 71  1  0  0  0  0
 58 60  1  0  0  0  0
 58 70  1  0  0  0  0
 59 71  1  0  0  0  0
 61 62  1  0  0  0  0
M  CHG  1  71   1
M  ISO  4  32 101  40 100  68 100  81 101
M  END
> <Batch ID>
0177

> <Smiles>
CNC(C)C(=O)NC(C(=O)N1Cc2cc([101O:1][101CH2:1]C(=O)C(=O)Nc3csc(C(=O)[100NH:0][100C:0](=O)N4CCCC(n5nc(-c6ccc(Oc7ccc(F)cc7F)cc6)c(C(N)=O)c5N)C4)c3)ccc2CC1C(=O)NC1CCCc2ccccc21)C(C)(C)C

> <Shape>
0.209

> <Color>
0.067

> <Negative vol penalty>
0.000

$$$$

  -OEChem-04052304413D

 87 95  0     1  0  0  0  0  0999 V2000
  -27.5896  -32.6178   27.4720 C   0  0  0  0  0  0  0  0  0  0  0  0
  -27.8105  -31.5849   26.5666 C   0  0  0  0  0  0  0  0  0  0  0  0
  -23.5046   -8.9892   21.3543 C   0  0  0  0  0  0  0  0  0  0  0  0
  -24.2292   -9.8481   23.4931 C   0  0  0  0  0  0  0  0  0  0  0  0
  -26.2872  -33.0209   27.7637 C   0  0  0  0  0  0  0  0  0  0  0  0
  -26.7290  -30.9537   25.9532 C   0  0  0  0  0  0  0  0  0  0  0  0
  -27.4380  -30.2752   20.9851 C   0  0  0  0  0  0  0  0  0  0  0  0
  -23.5728   -7.6885   21.8535 C   0  0  0  0  0  0  0  0  0  0  0  0
  -24.2973   -8.5474   23.9923 C   0  0  0  0  0  0  0  0  0  0  0  0
  -28.2637  -29.2207   20.5980 C   0  0  0  0  0  0  0  0  0  0  0  0
  -21.6928   -5.6686   23.8076 C   0  0  0  0  0  0  0  0  0  0  0  0
  -20.6296   -4.8103   23.5277 C   0  0  0  0  0  0  0  0  0  0  0  0
  -26.3165  -27.8765   20.1281 C   0  0  0  0  0  0  0  0  0  0  0  0
  -28.9339  -18.2598   22.0364 C   0  0  0  0  0  0  0  0  0  0  0  0
  -22.1425   -3.3060   22.3939 C   0  0  0  0  0  0  0  0  0  0  0  0
  -28.6991  -18.0125   24.8052 C   0  0  0  0  0  0  0  0  0  0  0  0
  -23.8328  -10.0690   22.1741 C   0  0  0  0  0  0  0  0  0  0  0  0
  -22.6528  -12.2778   21.6879 C   0  0  0  0  0  0  0  0  0  0  0  0
  -25.1895  -32.4008   27.1463 C   0  0  0  0  0  0  0  0  0  0  0  0
  -26.0431  -30.1344   20.9570 C   0  0  0  0  0  0  0  0  0  0  0  0
  -25.4106  -31.3480   26.2379 C   0  0  0  0  0  0  0  0  0  0  0  0
  -25.4753  -28.9316   20.5130 C   0  0  0  0  0  0  0  0  0  0  0  0
  -29.1245  -19.3732   22.8546 C   0  0  0  0  0  0  0  0  0  0  0  0
  -28.6257  -17.0227   22.6025 C   0  0  0  0  0  0  0  0  0  0  0  0
  -23.9691   -7.4676   23.1724 C   0  0  0  0  0  0  0  0  0  0  0  0
  -27.7030  -28.0201   20.1721 C   0  0  0  0  0  0  0  0  0  0  0  0
  -22.9809   -5.3457   23.3806 C   0  0  0  0  0  0  0  0  0  0  0  0
  -20.8544   -3.6290   22.8209 C   0  0  0  0  0  0  0  0  0  0  0  0
  -29.0072  -19.2496   24.2390 C   0  0  0  0  0  0  0  0  0  0  0  0
  -28.5084  -16.8991   23.9869 C   0  0  0  0  0  0  0  0  0  0  0  0
  -23.2057   -4.1644   22.6738 C   0  0  0  0  0  0  0  0  0  0  0  0
  -23.7631  -11.4128   21.6589 C   0  0  0  0  0  0  0  0  0  0  0  0
  -23.0959  -13.4258   21.0777 C   0  0  0  0  0  0  0  0  0  0  0  0
  -21.3385  -12.0629   22.2189 C   0  0  0  0  0  0  0  0  0  0  0  0
  -29.9196  -22.3509   20.6916 C   0  0  0  0  0  0  0  0  0  0  0  0
  -29.5867  -20.9068   20.9368 C   0  0  0  0  0  0  0  0  0  0  0  0
  -23.7339  -30.2354   23.1390 C   0  0  0  0  0  0  0  0  0  0  0  0
  -21.8041  -30.0042   20.5419 C   0  0  0  0  0  0  0  0  0  0  0  0
  -21.4237  -29.0333   17.2923 C   0  0  0  0  0  0  0  0  0  0  0  0
  -28.5140  -15.8464   20.3776 C   0  0  0  0  0  0  0  0  0  0  0  0
  -23.7982  -32.8393   27.5291 C   0  0  0  0  0  0  0  0  0  0  0  0
  -25.1659  -31.2905   21.3524 C   0  0  0  0  0  0  0  0  0  0  0  0
  -23.9834  -28.7365   20.4450 C   0  0  0  0  0  0  0  0  0  0  0  0
  -22.7218  -32.3705   26.5535 C   0  0  0  0  0  0  0  0  0  0  0  0
  -26.2319  -14.9512   17.7954 C   0  0  0  0  0  0  0  0  0  0  0  0
  -22.9126  -30.8950   26.2167 C   0  0  0  0  0  0  0  0  0  0  0  0
  -25.2352  -14.0258   18.4972 C   0  0  0  0  0  0  0  0  0  0  0  0
  -27.6538  -14.7541   18.3180 C   0  0  0  0  0  0  0  0  0  0  0  0
  -26.8023  -13.9292   20.4776 C   0  0  0  0  0  0  0  0  0  0  0  0
  -24.2643  -30.6554   25.5334 C   0  0  1  0  0  0  0  0  0  0  0  0
  -23.7640  -30.8604   21.7729 C   0  0  1  0  0  0  0  0  0  0  0  0
  -25.3461  -14.1371   20.0305 C   0  0  2  0  0  0  0  0  0  0  0  0
  -19.7211  -28.9380   15.4513 C   0  0  0  0  0  0  0  0  0  0  0  0
  -20.4757  -27.6150   21.8973 C   0  0  0  0  0  0  0  0  0  0  0  0
  -19.4849  -26.9980   19.6824 C   0  0  0  0  0  0  0  0  0  0  0  0
  -18.8942  -29.1747   20.7481 C   0  0  0  0  0  0  0  0  0  0  0  0
  -23.0420  -30.7923   15.5471 C   0  0  0  0  0  0  0  0  0  0  0  0
  -28.7524  -23.2885   20.4813 C   0  0  0  0  0  0  0  0  0  0  0  0
  -29.1865  -24.7293   20.2305 C   0  0  0  0  0  0  0  0  0  0  0  0
  -28.0079  -25.6678   19.9996 C   0  0  0  0  0  0  0  0  0  1  0  0
  -21.1995  -28.8650   19.7573 C   0  0  1  0  0  0  0  0  0  0  0  0
  -20.8379  -29.7497   16.0890 C   0  0  2  0  0  0  0  0  0  0  0  0
  -20.0417  -28.1659   20.5243 C   0  0  0  0  0  0  0  0  0  0  0  0
  -24.8311  -11.9640   21.0762 N   0  0  0  0  0  0  0  0  0  0  0  0
  -24.3940  -13.1877   20.7334 N   0  0  0  0  0  0  0  0  0  0  0  0
  -23.1679  -29.8942   20.8481 N   0  0  0  0  0  0  0  0  0  0  0  0
  -27.6823  -14.8777   19.7771 N   0  0  0  0  0  0  0  0  0  0  0  0
  -22.4979  -14.6055   20.8074 N   0  0  0  0  0  0  0  0  0  0  0  0
  -21.0516  -10.8259   22.8120 N   0  0  0  0  0  0  0  0  0  0  0  0
  -29.4373  -20.6263   22.2780 N   0  0  0  0  0  0  0  0  0  0  0  0
  -28.4330  -15.8932   21.7689 N   0  0  0  0  0  0  0  0  0  0  0  0
  -24.2066  -31.0573   24.1442 N   0  0  0  0  0  0  0  0  0  0  0  0
  -20.8108  -29.4202   18.4653 N   0  0  0  0  0  0  0  0  0  0  0  0
  -21.8924  -29.9856   15.0627 N   0  3  0  0  0  0  0  0  0  0  0  0
  -20.4400  -12.9359   22.1543 O   0  0  0  0  0  0  0  0  0  0  0  0
  -31.1013  -22.6618   20.6954 O   0  0  0  0  0  0  0  0  0  0  0  0
  -29.5205  -20.1879   19.9534 O   0  0  0  0  0  0  0  0  0  0  0  0
  -23.3116  -29.0927   23.2714 O   0  0  0  0  0  0  0  0  0  0  0  0
  -21.0943  -30.9599   20.8648 O   0  0  0  0  0  0  0  0  0  0  0  0
  -22.3315  -28.2098   17.2005 O   0  0  0  0  0  0  0  0  0  0  0  0
  -29.2240  -16.5988   19.7054 O   0  0  0  0  0  0  0  0  0  0  0  0
  -24.0356   -6.1986   23.6599 O   0  0  0  0  0  0  0  0  0  0  0  0
  -28.5067  -26.9890   19.7943 O   0  0  0  0  0  0  0  0  0  1  0  0
  -19.8336   -2.8040   22.5535 F   0  0  0  0  0  0  0  0  0  0  0  0
  -29.1883  -20.3126   25.0355 F   0  0  0  0  0  0  0  0  0  0  0  0
  -28.2126  -15.7153   24.5423 F   0  0  0  0  0  0  0  0  0  0  0  0
  -24.4412   -3.8483   22.2620 F   0  0  0  0  0  0  0  0  0  0  0  0
  1  2  1  0  0  0  0
  1  5  2  0  0  0  0
  2  6  2  0  0  0  0
  3  8  2  0  0  0  0
  3 17  1  0  0  0  0
  4  9  1  0  0  0  0
  4 17  2  0  0  0  0
  5 19  1  0  0  0  0
  6 21  1  0  0  0  0
  7 10  2  0  0  0  0
  7 20  1  0  0  0  0
  8 25  1  0  0  0  0
  9 25  2  0  0  0  0
 10 26  1  0  0  0  0
 11 12  2  0  0  0  0
 11 27  1  0  0  0  0
 12 28  1  0  0  0  0
 13 22  1  0  0  0  0
 13 26  2  0  0  0  0
 14 23  1  0  0  0  0
 14 24  2  0  0  0  0
 15 28  2  0  0  0  0
 15 31  1  0  0  0  0
 16 29  1  0  0  0  0
 16 30  2  0  0  0  0
 17 32  1  0  0  0  0
 18 32  1  0  0  0  0
 18 33  2  0  0  0  0
 18 34  1  0  0  0  0
 19 21  2  0  0  0  0
 19 41  1  0  0  0  0
 20 22  2  0  0  0  0
 20 42  1  0  0  0  0
 21 50  1  0  0  0  0
 22 43  1  0  0  0  0
 23 29  2  0  0  0  0
 23 70  1  0  0  0  0
 24 30  1  0  0  0  0
 24 71  1  0  0  0  0
 25 82  1  0  0  0  0
 26 83  1  0  0  0  0
 27 31  2  0  0  0  0
 27 82  1  0  0  0  0
 28 84  1  0  0  0  0
 29 85  1  0  0  0  0
 30 86  1  0  0  0  0
 31 87  1  0  0  0  0
 32 64  2  0  0  0  0
 33 65  1  0  0  0  0
 33 68  1  0  0  0  0
 34 69  1  0  0  0  0
 34 75  2  0  0  0  0
 35 36  1  0  0  0  0
 35 58  1  0  0  0  0
 35 76  2  0  0  0  0
 36 70  1  0  0  0  0
 36 77  2  0  0  0  0
 37 51  1  0  0  0  0
 37 72  1  0  0  0  0
 37 78  2  0  0  0  0
 38 61  1  0  0  0  0
 38 66  1  0  0  0  0
 38 79  2  0  0  0  0
 39 62  1  0  0  0  0
 39 73  1  0  0  0  0
 39 80  2  0  0  0  0
 40 67  1  0  0  0  0
 40 71  1  0  0  0  0
 40 81  2  0  0  0  0
 41 44  1  0  0  0  0
 42 51  1  0  0  0  0
 43 66  1  0  0  0  0
 44 46  1  0  0  0  0
 45 47  1  0  0  0  0
 45 48  1  0  0  0  0
 46 50  1  0  0  0  0
 47 52  1  0  0  0  0
 48 67  1  0  0  0  0
 49 52  1  0  0  0  0
 49 67  1  0  0  0  0
 50 72  1  0  0  0  0
 51 66  1  0  0  0  0
 52 65  1  0  0  0  0
 53 62  1  0  0  0  0
 54 63  1  0  0  0  0
 55 63  1  0  0  0  0
 56 63  1  0  0  0  0
 57 74  1  0  0  0  0
 58 59  1  0  0  0  0
 59 60  1  0  0  0  0
 60 83  1  0  0  0  0
 61 63  1  0  0  0  0
 61 73  1  0  0  0  0
 62 74  1  0  0  0  0
 64 65  1  0  0  0  0
M  CHG  1  74   1
M  ISO  4  40 100  60 101  71 100  83 101
M  END
> <Batch ID>
0177

> <Smiles>
CNC(C)C(=O)NC(C(=O)N1Cc2cc([101O:1][101CH2:1]CCC(=O)C(=O)Nc3cc([100NH:0][100C:0](=O)N4CCCC(n5nc(-c6ccc(Oc7ccc(F)cc7F)cc6)c(C(N)=O)c5N)C4)c(F)cc3F)ccc2CC1C(=O)NC1CCCc2ccccc21)C(C)(C)C

> <Shape>
0.294

> <Color>
0.112

> <Negative vol penalty>
0.000

$$$$

  -OEChem-04052304413D

 88 96  0     1  0  0  0  0  0999 V2000
  -26.4173  -34.6362   21.7614 C   0  0  0  0  0  0  0  0  0  0  0  0
  -26.3983  -33.3792   22.3574 C   0  0  0  0  0  0  0  0  0  0  0  0
  -23.0337   -9.9410   19.9216 C   0  0  0  0  0  0  0  0  0  0  0  0
  -23.8475   -9.8421   22.1943 C   0  0  0  0  0  0  0  0  0  0  0  0
  -25.7357  -34.8489   20.5639 C   0  0  0  0  0  0  0  0  0  0  0  0
  -25.6967  -32.3346   21.7567 C   0  0  0  0  0  0  0  0  0  0  0  0
  -28.3267  -28.0074   21.7006 C   0  0  0  0  0  0  0  0  0  0  0  0
  -22.2957   -8.7768   20.1352 C   0  0  0  0  0  0  0  0  0  0  0  0
  -23.1095   -8.6780   22.4079 C   0  0  0  0  0  0  0  0  0  0  0  0
  -28.3798  -27.2791   22.8883 C   0  0  0  0  0  0  0  0  0  0  0  0
  -23.3864   -5.3857   21.6901 C   0  0  0  0  0  0  0  0  0  0  0  0
  -24.0185   -4.3287   22.3449 C   0  0  0  0  0  0  0  0  0  0  0  0
  -26.6555  -25.8107   22.0580 C   0  0  0  0  0  0  0  0  0  0  0  0
  -22.3579   -4.4213   24.0974 C   0  0  0  0  0  0  0  0  0  0  0  0
  -23.8096  -10.4737   20.9511 C   0  0  0  0  0  0  0  0  0  0  0  0
  -24.1491  -13.0020   20.9405 C   0  0  0  0  0  0  0  0  0  0  0  0
  -25.0334  -33.8039   19.9432 C   0  0  0  0  0  0  0  0  0  0  0  0
  -27.4284  -27.6487   20.6854 C   0  0  0  0  0  0  0  0  0  0  0  0
  -25.0040  -32.5339   20.5504 C   0  0  0  0  0  0  0  0  0  0  0  0
  -26.5947  -26.5344   20.8573 C   0  0  0  0  0  0  0  0  0  0  0  0
  -22.3335   -8.1453   21.3783 C   0  0  0  0  0  0  0  0  0  0  0  0
  -27.5421  -26.1823   23.0683 C   0  0  0  0  0  0  0  0  0  0  0  0
  -22.2401   -5.9606   22.2389 C   0  0  0  0  0  0  0  0  0  0  0  0
  -23.5042   -3.8465   23.5485 C   0  0  0  0  0  0  0  0  0  0  0  0
  -21.7259   -5.4784   23.4425 C   0  0  0  0  0  0  0  0  0  0  0  0
  -24.5727  -11.6759   20.7309 C   0  0  0  0  0  0  0  0  0  0  0  0
  -31.8237  -18.6899   22.4335 C   0  0  0  0  0  0  0  0  0  0  0  0
  -25.2325  -13.7685   20.5868 C   0  0  0  0  0  0  0  0  0  0  0  0
  -30.7402  -19.0212   23.2198 C   0  0  0  0  0  0  0  0  0  0  0  0
  -30.5771  -16.9300   22.0354 C   0  0  0  0  0  0  0  0  0  0  0  0
  -22.8889  -13.4966   21.4128 C   0  0  0  0  0  0  0  0  0  0  0  0
  -29.3834  -21.6498   25.5471 C   0  0  0  0  0  0  0  0  0  0  0  0
  -29.3266  -20.3533   24.7914 C   0  0  0  0  0  0  0  0  0  0  0  0
  -24.9683  -29.0713   19.2613 C   0  0  0  0  0  0  0  0  0  0  0  0
  -25.0536  -26.4459   17.3580 C   0  0  0  0  0  0  0  0  0  0  0  0
  -25.9526  -23.1766   16.9701 C   0  0  0  0  0  0  0  0  0  0  0  0
  -30.7015  -14.8096   20.6808 C   0  0  0  0  0  0  0  0  0  0  0  0
  -24.2725  -34.0940   18.6737 C   0  0  0  0  0  0  0  0  0  0  0  0
  -27.4022  -28.4284   19.3994 C   0  0  0  0  0  0  0  0  0  0  0  0
  -25.6269  -26.0958   19.7899 C   0  0  0  0  0  0  0  0  0  0  0  0
  -23.8638  -32.8383   17.9080 C   0  0  0  0  0  0  0  0  0  0  0  0
  -29.5309  -12.5075   18.2298 C   0  0  0  0  0  0  0  0  0  0  0  0
  -23.2578  -31.8084   18.8562 C   0  0  0  0  0  0  0  0  0  0  0  0
  -28.1018  -12.1950   18.6793 C   0  0  0  0  0  0  0  0  0  0  0  0
  -30.4742  -12.6810   19.4189 C   0  0  0  0  0  0  0  0  0  0  0  0
  -28.6006  -13.3388   20.8770 C   0  0  0  0  0  0  0  0  0  0  0  0
  -24.2747  -31.3692   19.9165 C   0  0  1  0  0  0  0  0  0  0  0  0
  -26.0871  -28.2840   18.6398 C   0  0  1  0  0  0  0  0  0  0  0  0
  -27.6002  -13.2196   19.7157 C   0  0  2  0  0  0  0  0  0  0  0  0
  -33.2663  -19.9589   20.8018 C   0  0  0  0  0  0  0  0  0  0  0  0
  -34.3222  -18.7702   22.7581 C   0  0  0  0  0  0  0  0  0  0  0  0
  -25.8562  -21.2897   15.3185 C   0  0  0  0  0  0  0  0  0  0  0  0
  -22.0978  -26.0404   17.9975 C   0  0  0  0  0  0  0  0  0  0  0  0
  -22.3038  -23.6994   17.1339 C   0  0  0  0  0  0  0  0  0  0  0  0
  -22.7142  -25.6302   15.6087 C   0  0  0  0  0  0  0  0  0  0  0  0
  -28.9030  -22.9784   16.8488 C   0  0  0  0  0  0  0  0  0  0  0  0
  -28.8732  -22.8750   24.8225 C   0  0  0  0  0  0  0  0  0  0  0  0
  -28.8460  -25.4194   24.9052 C   0  0  0  0  0  0  0  0  0  1  0  0
  -33.0505  -19.4947   22.2605 C   0  0  0  0  0  0  0  0  0  0  0  0
  -24.4164  -25.0778   17.3945 C   0  0  1  0  0  0  0  0  0  0  0  0
  -26.6757  -22.4574   15.8457 C   0  0  2  0  0  0  0  0  0  0  0  0
  -28.9648  -24.1235   25.6945 C   0  0  1  0  0  0  0  0  0  0  0  0
  -22.8998  -25.1211   17.0547 C   0  0  0  0  0  0  0  0  0  0  0  0
  -25.8273  -11.6007   20.2789 N   0  0  0  0  0  0  0  0  0  0  0  0
  -31.7322  -17.4909   21.7539 N   0  0  0  0  0  0  0  0  0  0  0  0
  -26.2013  -12.8892   20.2015 N   0  0  0  0  0  0  0  0  0  0  0  0
  -25.6342  -26.8942   18.5529 N   0  0  0  0  0  0  0  0  0  0  0  0
  -29.9364  -13.6694   20.3562 N   0  0  0  0  0  0  0  0  0  0  0  0
  -25.4414  -15.1021   20.5707 N   0  0  0  0  0  0  0  0  0  0  0  0
  -21.8851  -12.5719   21.7313 N   0  0  0  0  0  0  0  0  0  0  0  0
  -30.4649  -20.1364   24.0450 N   0  0  0  0  0  0  0  0  0  0  0  0
  -30.0739  -15.6950   21.5565 N   0  0  0  0  0  0  0  0  0  0  0  0
  -25.2179  -30.4273   19.3528 N   0  0  0  0  0  0  0  0  0  0  0  0
  -25.2051  -24.2362   16.5012 N   0  0  0  0  0  0  0  0  0  0  0  0
  -27.9863  -21.9337   16.3242 N   0  3  0  0  0  0  0  0  0  0  0  0
  -22.6544  -14.7230   21.5328 O   0  0  0  0  0  0  0  0  0  0  0  0
  -29.8364  -21.6175   26.6813 O   0  0  0  0  0  0  0  0  0  0  0  0
  -28.3058  -19.6963   24.9110 O   0  0  0  0  0  0  0  0  0  0  0  0
  -23.9533  -28.4916   19.6291 O   0  0  0  0  0  0  0  0  0  0  0  0
  -25.0430  -27.0900   16.3060 O   0  0  0  0  0  0  0  0  0  0  0  0
  -26.0390  -22.8307   18.1463 O   0  0  0  0  0  0  0  0  0  0  0  0
  -31.8193  -15.0008   20.1951 O   0  0  0  0  0  0  0  0  0  0  0  0
  -21.6133   -7.0094   21.5872 O   0  0  0  0  0  0  0  0  0  0  0  0
  -27.5915  -25.4702   24.2269 O   0  0  0  0  0  0  0  0  0  1  0  0
  -24.1104   -2.8304   24.1765 F   0  0  0  0  0  0  0  0  0  0  0  0
  -20.6243   -6.0259   23.9741 F   0  0  0  0  0  0  0  0  0  0  0  0
  -27.9395  -24.0886   26.5952 F   0  0  0  0  0  0  0  0  0  0  0  0
  -29.5517  -17.7896   23.1099 S   0  0  0  0  0  0  0  0  0  0  0  0
  1  2  1  0  0  0  0
  1  5  2  0  0  0  0
  2  6  2  0  0  0  0
  3  8  2  0  0  0  0
  3 15  1  0  0  0  0
  4  9  1  0  0  0  0
  4 15  2  0  0  0  0
  5 17  1  0  0  0  0
  6 19  1  0  0  0  0
  7 10  2  0  0  0  0
  7 18  1  0  0  0  0
  8 21  1  0  0  0  0
  9 21  2  0  0  0  0
 10 22  1  0  0  0  0
 11 12  2  0  0  0  0
 11 23  1  0  0  0  0
 12 24  1  0  0  0  0
 13 20  1  0  0  0  0
 13 22  2  0  0  0  0
 14 24  2  0  0  0  0
 14 25  1  0  0  0  0
 15 26  1  0  0  0  0
 16 26  1  0  0  0  0
 16 28  2  0  0  0  0
 16 31  1  0  0  0  0
 17 19  2  0  0  0  0
 17 38  1  0  0  0  0
 18 20  2  0  0  0  0
 18 39  1  0  0  0  0
 19 47  1  0  0  0  0
 20 40  1  0  0  0  0
 21 83  1  0  0  0  0
 22 84  1  0  0  0  0
 23 25  2  0  0  0  0
 23 83  1  0  0  0  0
 24 85  1  0  0  0  0
 25 86  1  0  0  0  0
 26 64  2  0  0  0  0
 27 29  2  0  0  0  0
 27 59  1  0  0  0  0
 27 65  1  0  0  0  0
 28 66  1  0  0  0  0
 28 69  1  0  0  0  0
 29 71  1  0  0  0  0
 29 88  1  0  0  0  0
 30 65  2  0  0  0  0
 30 72  1  0  0  0  0
 30 88  1  0  0  0  0
 31 70  1  0  0  0  0
 31 76  2  0  0  0  0
 32 33  1  0  0  0  0
 32 57  1  0  0  0  0
 32 77  2  0  0  0  0
 33 71  1  0  0  0  0
 33 78  2  0  0  0  0
 34 48  1  0  0  0  0
 34 73  1  0  0  0  0
 34 79  2  0  0  0  0
 35 60  1  0  0  0  0
 35 67  1  0  0  0  0
 35 80  2  0  0  0  0
 36 61  1  0  0  0  0
 36 74  1  0  0  0  0
 36 81  2  0  0  0  0
 37 68  1  0  0  0  0
 37 72  1  0  0  0  0
 37 82  2  0  0  0  0
 38 41  1  0  0  0  0
 39 48  1  0  0  0  0
 40 67  1  0  0  0  0
 41 43  1  0  0  0  0
 42 44  1  0  0  0  0
 42 45  1  0  0  0  0
 43 47  1  0  0  0  0
 44 49  1  0  0  0  0
 45 68  1  0  0  0  0
 46 49  1  0  0  0  0
 46 68  1  0  0  0  0
 47 73  1  0  0  0  0
 48 67  1  0  0  0  0
 49 66  1  0  0  0  0
 50 59  1  0  0  0  0
 51 59  1  0  0  0  0
 52 61  1  0  0  0  0
 53 63  1  0  0  0  0
 54 63  1  0  0  0  0
 55 63  1  0  0  0  0
 56 75  1  0  0  0  0
 57 62  1  0  0  0  0
 58 62  1  0  0  0  0
 58 84  1  0  0  0  0
 60 63  1  0  0  0  0
 60 74  1  0  0  0  0
 61 75  1  0  0  0  0
 62 87  1  0  0  0  0
 64 66  1  0  0  0  0
M  CHG  1  75   1
M  ISO  4  37 100  58 101  72 100  84 101
M  END
> <Batch ID>
0177

> <Smiles>
CNC(C)C(=O)NC(C(=O)N1Cc2cc([101O:1][101CH2:1]C(F)CC(=O)C(=O)Nc3sc([100NH:0][100C:0](=O)N4CCCC(n5nc(-c6ccc(Oc7ccc(F)cc7F)cc6)c(C(N)=O)c5N)C4)nc3C(C)C)ccc2CC1C(=O)NC1CCCc2ccccc21)C(C)(C)C

> <Shape>
0.244

> <Color>
0.187

> <Negative vol penalty>
0.000

$$$$

  -OEChem-04052304413D

 87 95  0     1  0  0  0  0  0999 V2000
  -19.8279   -8.4348   19.7135 C   0  0  0  0  0  0  0  0  0  0  0  0
  -19.4806   -9.7085   20.1521 C   0  0  0  0  0  0  0  0  0  0  0  0
  -29.9243  -26.8620   21.5270 C   0  0  0  0  0  0  0  0  0  0  0  0
  -28.3108  -25.1123   21.9424 C   0  0  0  0  0  0  0  0  0  0  0  0
  -21.1193   -7.9539   19.9252 C   0  0  0  0  0  0  0  0  0  0  0  0
  -20.4243  -10.5018   20.8036 C   0  0  0  0  0  0  0  0  0  0  0  0
  -20.9762  -16.5918   20.4686 C   0  0  0  0  0  0  0  0  0  0  0  0
  -30.8611  -26.1831   22.3062 C   0  0  0  0  0  0  0  0  0  0  0  0
  -29.2477  -24.4334   22.7215 C   0  0  0  0  0  0  0  0  0  0  0  0
  -20.5481  -17.6200   21.3072 C   0  0  0  0  0  0  0  0  0  0  0  0
  -31.9364  -22.4494   22.2161 C   0  0  0  0  0  0  0  0  0  0  0  0
  -32.0680  -21.0751   22.0177 C   0  0  0  0  0  0  0  0  0  0  0  0
  -22.7210  -17.6629   22.3541 C   0  0  0  0  0  0  0  0  0  0  0  0
  -17.9029  -27.1072   22.9153 C   0  0  0  0  0  0  0  0  0  0  0  0
  -20.2493  -26.7938   22.4898 C   0  0  0  0  0  0  0  0  0  0  0  0
  -31.4625  -20.6842   24.3237 C   0  0  0  0  0  0  0  0  0  0  0  0
  -28.6491  -26.3266   21.3452 C   0  0  0  0  0  0  0  0  0  0  0  0
  -27.4693  -26.8936   19.1556 C   0  0  0  0  0  0  0  0  0  0  0  0
  -22.0822   -8.7454   20.5711 C   0  0  0  0  0  0  0  0  0  0  0  0
  -22.2787  -16.0832   20.5739 C   0  0  0  0  0  0  0  0  0  0  0  0
  -21.7295  -10.0305   21.0254 C   0  0  0  0  0  0  0  0  0  0  0  0
  -23.1640  -16.6299   21.5139 C   0  0  0  0  0  0  0  0  0  0  0  0
  -18.9863  -26.2585   22.7173 C   0  0  0  0  0  0  0  0  0  0  0  0
  -30.5228  -24.9688   22.9034 C   0  0  0  0  0  0  0  0  0  0  0  0
  -21.4195  -18.1537   22.2521 C   0  0  0  0  0  0  0  0  0  0  0  0
  -31.5679  -22.9412   23.4683 C   0  0  0  0  0  0  0  0  0  0  0  0
  -31.8310  -20.1924   23.0715 C   0  0  0  0  0  0  0  0  0  0  0  0
  -31.3309  -22.0586   24.5221 C   0  0  0  0  0  0  0  0  0  0  0  0
  -27.6808  -27.0277   20.5409 C   0  0  0  0  0  0  0  0  0  0  0  0
  -18.1334  -28.4729   22.8765 C   0  0  0  0  0  0  0  0  0  0  0  0
  -20.3746  -28.1735   22.4699 C   0  0  0  0  0  0  0  0  0  0  0  0
  -26.4477  -27.7686   18.8779 C   0  0  0  0  0  0  0  0  0  0  0  0
  -28.1366  -26.0531   18.2048 C   0  0  0  0  0  0  0  0  0  0  0  0
  -23.5291  -13.2475   21.2808 C   0  0  0  0  0  0  0  0  0  0  0  0
  -20.1786  -21.4325   23.1498 C   0  0  0  0  0  0  0  0  0  0  0  0
  -26.3133  -14.7142   20.4938 C   0  0  0  0  0  0  0  0  0  0  0  0
  -19.7715  -23.8738   22.5758 C   0  0  0  0  0  0  0  0  0  0  0  0
  -28.0603  -17.6269   20.1612 C   0  0  0  0  0  0  0  0  0  0  0  0
  -22.0223  -30.0566   22.1774 C   0  0  0  0  0  0  0  0  0  0  0  0
  -23.4516   -8.1644   20.8193 C   0  0  0  0  0  0  0  0  0  0  0  0
  -22.7336  -14.9921   19.6438 C   0  0  0  0  0  0  0  0  0  0  0  0
  -24.5789  -16.1329   21.6534 C   0  0  0  0  0  0  0  0  0  0  0  0
  -24.5005   -9.2116   21.1846 C   0  0  0  0  0  0  0  0  0  0  0  0
  -24.5166  -31.8766   20.4045 C   0  0  0  0  0  0  0  0  0  0  0  0
  -23.9548  -10.1684   22.2398 C   0  0  0  0  0  0  0  0  0  0  0  0
  -25.5891  -30.8261   20.1069 C   0  0  0  0  0  0  0  0  0  0  0  0
  -23.8766  -31.6612   21.7747 C   0  0  0  0  0  0  0  0  0  0  0  0
  -24.4230  -29.2598   21.7113 C   0  0  0  0  0  0  0  0  0  0  0  0
  -22.7324  -10.9305   21.7140 C   0  0  1  0  0  0  0  0  0  0  0  0
  -23.9194  -14.2002   20.1864 C   0  0  1  0  0  0  0  0  0  0  0  0
  -25.0509  -29.3968   20.3146 C   0  0  2  0  0  0  0  0  0  0  0  0
  -16.8338  -29.8025   24.5561 C   0  0  0  0  0  0  0  0  0  0  0  0
  -29.9668  -19.1425   19.5566 C   0  0  0  0  0  0  0  0  0  0  0  0
  -27.4002  -13.8295   23.2041 C   0  0  0  0  0  0  0  0  0  0  0  0
  -29.2488  -15.4953   22.9284 C   0  0  0  0  0  0  0  0  0  0  0  0
  -29.0182  -13.6114   21.3096 C   0  0  0  0  0  0  0  0  0  0  0  0
  -27.0544  -17.9825   17.4006 C   0  0  0  0  0  0  0  0  0  0  0  0
  -19.1904  -22.4762   22.6722 C   0  0  0  0  0  0  0  0  0  0  0  0
  -20.0130  -20.0466   22.5597 C   0  0  0  0  0  0  0  0  0  1  0  0
  -16.9944  -29.4135   23.0882 C   0  0  1  0  0  0  0  0  0  0  0  0
  -27.3515  -15.5114   21.2459 C   0  0  1  0  0  0  0  0  0  0  0  0
  -28.9334  -18.1551   19.0372 C   0  0  2  0  0  0  0  0  0  0  0  0
  -28.2275  -14.6202   22.1709 C   0  0  0  0  0  0  0  0  0  0  0  0
  -26.8596  -27.9180   21.1041 N   0  0  0  0  0  0  0  0  0  0  0  0
  -19.3457  -29.0299   22.6581 N   0  0  0  0  0  0  0  0  0  0  0  0
  -26.1222  -28.3512   20.0674 N   0  0  0  0  0  0  0  0  0  0  0  0
  -24.9745  -15.0606   20.7255 N   0  0  0  0  0  0  0  0  0  0  0  0
  -23.3860  -30.2867   21.8978 N   0  0  0  0  0  0  0  0  0  0  0  0
  -25.8050  -28.0889   17.7348 N   0  0  0  0  0  0  0  0  0  0  0  0
  -29.1638  -25.2148   18.6593 N   0  0  0  0  0  0  0  0  0  0  0  0
  -18.8036  -24.8550   22.7451 N   0  0  0  0  0  0  0  0  0  0  0  0
  -21.6657  -28.7099   22.2390 N   0  0  0  0  0  0  0  0  0  0  0  0
  -23.1451  -11.9992   20.8296 N   0  0  0  0  0  0  0  0  0  0  0  0
  -28.1059  -16.2511   20.2398 N   0  0  0  0  0  0  0  0  0  0  0  0
  -28.0985  -18.8440   18.0128 N   0  3  0  0  0  0  0  0  0  0  0  0
  -27.8421  -26.0577   16.9855 O   0  0  0  0  0  0  0  0  0  0  0  0
  -23.5744  -13.6172   22.4483 O   0  0  0  0  0  0  0  0  0  0  0  0
  -21.0575  -21.6892   23.9714 O   0  0  0  0  0  0  0  0  0  0  0  0
  -26.6770  -13.8220   19.7236 O   0  0  0  0  0  0  0  0  0  0  0  0
  -20.9762  -24.0315   22.3963 O   0  0  0  0  0  0  0  0  0  0  0  0
  -27.4065  -18.3616   20.8982 O   0  0  0  0  0  0  0  0  0  0  0  0
  -21.2239  -30.9858   22.3226 O   0  0  0  0  0  0  0  0  0  0  0  0
  -31.4368  -24.3059   23.6635 O   0  0  0  0  0  0  0  0  0  0  0  0
  -21.0040  -19.1569   23.0723 O   0  0  0  0  0  0  0  0  0  1  0  0
  -31.9560  -18.8726   22.8804 F   0  0  0  0  0  0  0  0  0  0  0  0
  -30.9754  -22.5250   25.7271 F   0  0  0  0  0  0  0  0  0  0  0  0
  -17.1194  -30.5811   22.3780 F   0  0  0  0  0  0  0  0  0  0  0  0
  1  2  1  0  0  0  0
  1  5  2  0  0  0  0
  2  6  2  0  0  0  0
  3  8  2  0  0  0  0
  3 17  1  0  0  0  0
  4  9  1  0  0  0  0
  4 17  2  0  0  0  0
  5 19  1  0  0  0  0
  6 21  1  0  0  0  0
  7 10  2  0  0  0  0
  7 20  1  0  0  0  0
  8 24  1  0  0  0  0
  9 24  2  0  0  0  0
 10 25  1  0  0  0  0
 11 12  2  0  0  0  0
 11 26  1  0  0  0  0
 12 27  1  0  0  0  0
 13 22  1  0  0  0  0
 13 25  2  0  0  0  0
 14 23  2  0  0  0  0
 14 30  1  0  0  0  0
 15 23  1  0  0  0  0
 15 31  2  0  0  0  0
 16 27  2  0  0  0  0
 16 28  1  0  0  0  0
 17 29  1  0  0  0  0
 18 29  1  0  0  0  0
 18 32  2  0  0  0  0
 18 33  1  0  0  0  0
 19 21  2  0  0  0  0
 19 40  1  0  0  0  0
 20 22  2  0  0  0  0
 20 41  1  0  0  0  0
 21 49  1  0  0  0  0
 22 42  1  0  0  0  0
 23 71  1  0  0  0  0
 24 83  1  0  0  0  0
 25 84  1  0  0  0  0
 26 28  2  0  0  0  0
 26 83  1  0  0  0  0
 27 85  1  0  0  0  0
 28 86  1  0  0  0  0
 29 64  2  0  0  0  0
 30 60  1  0  0  0  0
 30 65  2  0  0  0  0
 31 65  1  0  0  0  0
 31 72  1  0  0  0  0
 32 66  1  0  0  0  0
 32 69  1  0  0  0  0
 33 70  1  0  0  0  0
 33 76  2  0  0  0  0
 34 50  1  0  0  0  0
 34 73  1  0  0  0  0
 34 77  2  0  0  0  0
 35 58  1  0  0  0  0
 35 59  1  0  0  0  0
 35 78  2  0  0  0  0
 36 61  1  0  0  0  0
 36 67  1  0  0  0  0
 36 79  2  0  0  0  0
 37 58  1  0  0  0  0
 37 71  1  0  0  0  0
 37 80  2  0  0  0  0
 38 62  1  0  0  0  0
 38 74  1  0  0  0  0
 38 81  2  0  0  0  0
 39 68  1  0  0  0  0
 39 72  1  0  0  0  0
 39 82  2  0  0  0  0
 40 43  1  0  0  0  0
 41 50  1  0  0  0  0
 42 67  1  0  0  0  0
 43 45  1  0  0  0  0
 44 46  1  0  0  0  0
 44 47  1  0  0  0  0
 45 49  1  0  0  0  0
 46 51  1  0  0  0  0
 47 68  1  0  0  0  0
 48 51  1  0  0  0  0
 48 68  1  0  0  0  0
 49 73  1  0  0  0  0
 50 67  1  0  0  0  0
 51 66  1  0  0  0  0
 52 60  1  0  0  0  0
 53 62  1  0  0  0  0
 54 63  1  0  0  0  0
 55 63  1  0  0  0  0
 56 63  1  0  0  0  0
 57 75  1  0  0  0  0
 59 84  1  0  0  0  0
 60 87  1  0  0  0  0
 61 63  1  0  0  0  0
 61 74  1  0  0  0  0
 62 75  1  0  0  0  0
 64 66  1  0  0  0  0
M  CHG  1  75   1
M  ISO  4  39 100  59 101  72 100  84 101
M  END
> <Batch ID>
0177

> <Smiles>
CNC(C)C(=O)NC(C(=O)N1Cc2cc([101O:1][101CH2:1]C(=O)CC(=O)Nc3cc([100NH:0][100C:0](=O)N4CCCC(n5nc(-c6ccc(Oc7ccc(F)cc7F)cc6)c(C(N)=O)c5N)C4)nc(C(C)F)c3)ccc2CC1C(=O)NC1CCCc2ccccc21)C(C)(C)C

> <Shape>
0.259

> <Color>
0.065

> <Negative vol penalty>
0.000

$$$$

  -OEChem-04052304413D

 88 96  0     1  0  0  0  0  0999 V2000
  -23.1569  -17.2451   19.8304 C   0  0  0  0  0  0  0  0  0  0  0  0
  -24.0075  -18.3393   19.9512 C   0  0  0  0  0  0  0  0  0  0  0  0
  -26.5480  -12.5646   20.9488 C   0  0  0  0  0  0  0  0  0  0  0  0
  -25.2809  -13.9381   19.4174 C   0  0  0  0  0  0  0  0  0  0  0  0
  -21.8393  -17.4305   19.4141 C   0  0  0  0  0  0  0  0  0  0  0  0
  -23.5412  -19.6196   19.6547 C   0  0  0  0  0  0  0  0  0  0  0  0
  -25.1429  -24.8504   22.4076 C   0  0  0  0  0  0  0  0  0  0  0  0
  -25.3722  -11.9348   21.3568 C   0  0  0  0  0  0  0  0  0  0  0  0
  -24.1051  -13.3083   19.8254 C   0  0  0  0  0  0  0  0  0  0  0  0
  -26.0519  -25.8505   22.0651 C   0  0  0  0  0  0  0  0  0  0  0  0
  -22.7481   -9.7149   22.5405 C   0  0  0  0  0  0  0  0  0  0  0  0
  -22.7645   -8.3253   22.6600 C   0  0  0  0  0  0  0  0  0  0  0  0
  -24.2620  -27.1307   21.0769 C   0  0  0  0  0  0  0  0  0  0  0  0
  -23.3232   -8.1306   20.3175 C   0  0  0  0  0  0  0  0  0  0  0  0
  -26.5023  -13.5663   19.9791 C   0  0  0  0  0  0  0  0  0  0  0  0
  -28.5679  -13.8303   18.5055 C   0  0  0  0  0  0  0  0  0  0  0  0
  -21.3538  -18.7148   19.1216 C   0  0  0  0  0  0  0  0  0  0  0  0
  -23.7861  -24.9783   22.0770 C   0  0  0  0  0  0  0  0  0  0  0  0
  -22.2162  -19.8222   19.2328 C   0  0  0  0  0  0  0  0  0  0  0  0
  -23.3374  -26.1320   21.4185 C   0  0  0  0  0  0  0  0  0  0  0  0
  -24.1508  -12.3066   20.7951 C   0  0  0  0  0  0  0  0  0  0  0  0
  -25.6121  -26.9895   21.3971 C   0  0  0  0  0  0  0  0  0  0  0  0
  -23.0192  -10.3124   21.3096 C   0  0  0  0  0  0  0  0  0  0  0  0
  -23.0521   -7.5331   21.5485 C   0  0  0  0  0  0  0  0  0  0  0  0
  -23.3068   -9.5202   20.1981 C   0  0  0  0  0  0  0  0  0  0  0  0
  -27.7165  -14.2176   19.5576 C   0  0  0  0  0  0  0  0  0  0  0  0
  -27.5340  -23.2816   17.1490 C   0  0  0  0  0  0  0  0  0  0  0  0
  -28.5274  -23.8199   17.9398 C   0  0  0  0  0  0  0  0  0  0  0  0
  -29.5721  -14.7673   18.5137 C   0  0  0  0  0  0  0  0  0  0  0  0
  -28.5813  -21.7625   18.6976 C   0  0  0  0  0  0  0  0  0  0  0  0
  -28.4605  -12.7226   17.6015 C   0  0  0  0  0  0  0  0  0  0  0  0
  -21.7567  -23.3422   20.2581 C   0  0  0  0  0  0  0  0  0  0  0  0
  -28.4990  -28.5038   19.8057 C   0  0  0  0  0  0  0  0  0  0  0  0
  -19.5842  -25.4011   21.5085 C   0  0  0  0  0  0  0  0  0  0  0  0
  -18.9592  -28.4307   22.9500 C   0  0  0  0  0  0  0  0  0  0  0  0
  -29.9348  -25.7909   18.6306 C   0  0  0  0  0  0  0  0  0  0  0  0
  -29.8591  -20.4268   20.4092 C   0  0  0  0  0  0  0  0  0  0  0  0
  -19.9355  -18.8601   18.6297 C   0  0  0  0  0  0  0  0  0  0  0  0
  -22.8137  -23.9027   22.4772 C   0  0  0  0  0  0  0  0  0  0  0  0
  -21.8878  -26.3268   21.0590 C   0  0  0  0  0  0  0  0  0  0  0  0
  -19.4118  -20.2925   18.6953 C   0  0  0  0  0  0  0  0  0  0  0  0
  -31.9150  -17.7196   21.4682 C   0  0  0  0  0  0  0  0  0  0  0  0
  -20.4421  -21.2640   18.1285 C   0  0  0  0  0  0  0  0  0  0  0  0
  -31.1521  -16.4793   20.9973 C   0  0  0  0  0  0  0  0  0  0  0  0
  -30.9690  -18.8199   21.9457 C   0  0  0  0  0  0  0  0  0  0  0  0
  -29.1570  -17.9548   20.5183 C   0  0  0  0  0  0  0  0  0  0  0  0
  -21.7402  -21.2294   18.9441 C   0  0  1  0  0  0  0  0  0  0  0  0
  -21.5417  -23.9038   21.6350 C   0  0  1  0  0  0  0  0  0  0  0  0
  -30.0653  -16.8436   19.9669 C   0  0  2  0  0  0  0  0  0  0  0  0
  -27.5147  -24.4467   14.9138 C   0  0  0  0  0  0  0  0  0  0  0  0
  -25.7990  -25.0441   16.6616 C   0  0  0  0  0  0  0  0  0  0  0  0
  -17.0806  -29.8455   23.8256 C   0  0  0  0  0  0  0  0  0  0  0  0
  -18.7583  -26.0702   18.6484 C   0  0  0  0  0  0  0  0  0  0  0  0
  -17.6065  -28.1099   19.5322 C   0  0  0  0  0  0  0  0  0  0  0  0
  -16.8571  -25.8438   20.2573 C   0  0  0  0  0  0  0  0  0  0  0  0
  -20.1095  -28.4757   25.6765 C   0  0  0  0  0  0  0  0  0  0  0  0
  -29.9448  -28.1815   19.4547 C   0  0  0  0  0  0  0  0  0  0  0  0
  -27.8404  -27.5636   20.7964 C   0  0  0  0  0  0  0  0  0  1  0  0
  -26.6941  -23.9110   16.1095 C   0  0  0  0  0  0  0  0  0  0  0  0
  -19.0507  -26.7587   21.1195 C   0  0  1  0  0  0  0  0  0  0  0  0
  -18.1450  -28.8160   24.1719 C   0  0  2  0  0  0  0  0  0  0  0  0
  -30.0942  -27.2577   18.2457 C   0  0  1  0  0  0  0  0  0  0  0  0
  -18.0959  -26.6914   19.8943 C   0  0  0  0  0  0  0  0  0  0  0  0
  -28.1428  -15.3150   20.1885 N   0  0  0  0  0  0  0  0  0  0  0  0
  -29.1288  -22.9504   18.8287 N   0  0  0  0  0  0  0  0  0  0  0  0
  -29.2730  -15.6253   19.5309 N   0  0  0  0  0  0  0  0  0  0  0  0
  -20.9769  -25.2442   21.4660 N   0  0  0  0  0  0  0  0  0  0  0  0
  -29.9695  -19.1150   20.9167 N   0  0  0  0  0  0  0  0  0  0  0  0
  -30.6730  -14.9327   17.7501 N   0  0  0  0  0  0  0  0  0  0  0  0
  -27.3659  -11.8572   17.7322 N   0  0  0  0  0  0  0  0  0  0  0  0
  -28.9395  -25.1724   17.8794 N   0  0  0  0  0  0  0  0  0  0  0  0
  -28.8966  -20.5800   19.4117 N   0  0  0  0  0  0  0  0  0  0  0  0
  -21.5836  -21.9738   20.1753 N   0  0  0  0  0  0  0  0  0  0  0  0
  -18.4417  -27.3177   22.3216 N   0  0  0  0  0  0  0  0  0  0  0  0
  -19.0302  -29.3908   25.2240 N   0  3  0  0  0  0  0  0  0  0  0  0
  -29.3189  -12.4972   16.7150 O   0  0  0  0  0  0  0  0  0  0  0  0
  -22.0560  -24.0949   19.3385 O   0  0  0  0  0  0  0  0  0  0  0  0
  -27.8917  -29.4534   19.3138 O   0  0  0  0  0  0  0  0  0  0  0  0
  -18.7949  -24.5148   21.8446 O   0  0  0  0  0  0  0  0  0  0  0  0
  -19.9525  -29.0568   22.5869 O   0  0  0  0  0  0  0  0  0  0  0  0
  -30.6438  -25.2746   19.4900 O   0  0  0  0  0  0  0  0  0  0  0  0
  -30.5849  -21.3407   20.8092 O   0  0  0  0  0  0  0  0  0  0  0  0
  -23.0032  -11.6922   21.1928 O   0  0  0  0  0  0  0  0  0  0  0  0
  -26.4974  -27.9669   21.0611 O   0  0  0  0  0  0  0  0  0  1  0  0
  -23.0694   -6.1987   21.6637 F   0  0  0  0  0  0  0  0  0  0  0  0
  -23.5691  -10.0885   19.0132 F   0  0  0  0  0  0  0  0  0  0  0  0
  -27.3378  -21.6195   17.5236 S   0  0  0  0  0  0  0  0  0  0  0  0
  -31.7300  -27.4139   17.5400 Cl  0  0  0  0  0  0  0  0  0  0  0  0
  1  2  1  0  0  0  0
  1  5  2  0  0  0  0
  2  6  2  0  0  0  0
  3  8  2  0  0  0  0
  3 15  1  0  0  0  0
  4  9  1  0  0  0  0
  4 15  2  0  0  0  0
  5 17  1  0  0  0  0
  6 19  1  0  0  0  0
  7 10  2  0  0  0  0
  7 18  1  0  0  0  0
  8 21  1  0  0  0  0
  9 21  2  0  0  0  0
 10 22  1  0  0  0  0
 11 12  2  0  0  0  0
 11 23  1  0  0  0  0
 12 24  1  0  0  0  0
 13 20  1  0  0  0  0
 13 22  2  0  0  0  0
 14 24  2  0  0  0  0
 14 25  1  0  0  0  0
 15 26  1  0  0  0  0
 16 26  1  0  0  0  0
 16 29  2  0  0  0  0
 16 31  1  0  0  0  0
 17 19  2  0  0  0  0
 17 38  1  0  0  0  0
 18 20  2  0  0  0  0
 18 39  1  0  0  0  0
 19 47  1  0  0  0  0
 20 40  1  0  0  0  0
 21 83  1  0  0  0  0
 22 84  1  0  0  0  0
 23 25  2  0  0  0  0
 23 83  1  0  0  0  0
 24 85  1  0  0  0  0
 25 86  1  0  0  0  0
 26 64  2  0  0  0  0
 27 28  2  0  0  0  0
 27 59  1  0  0  0  0
 27 87  1  0  0  0  0
 28 65  1  0  0  0  0
 28 71  1  0  0  0  0
 29 66  1  0  0  0  0
 29 69  1  0  0  0  0
 30 65  2  0  0  0  0
 30 72  1  0  0  0  0
 30 87  1  0  0  0  0
 31 70  1  0  0  0  0
 31 76  2  0  0  0  0
 32 48  1  0  0  0  0
 32 73  1  0  0  0  0
 32 77  2  0  0  0  0
 33 57  1  0  0  0  0
 33 58  1  0  0  0  0
 33 78  2  0  0  0  0
 34 60  1  0  0  0  0
 34 67  1  0  0  0  0
 34 79  2  0  0  0  0
 35 61  1  0  0  0  0
 35 74  1  0  0  0  0
 35 80  2  0  0  0  0
 36 62  1  0  0  0  0
 36 71  1  0  0  0  0
 36 81  2  0  0  0  0
 37 68  1  0  0  0  0
 37 72  1  0  0  0  0
 37 82  2  0  0  0  0
 38 41  1  0  0  0  0
 39 48  1  0  0  0  0
 40 67  1  0  0  0  0
 41 43  1  0  0  0  0
 42 44  1  0  0  0  0
 42 45  1  0  0  0  0
 43 47  1  0  0  0  0
 44 49  1  0  0  0  0
 45 68  1  0  0  0  0
 46 49  1  0  0  0  0
 46 68  1  0  0  0  0
 47 73  1  0  0  0  0
 48 67  1  0  0  0  0
 49 66  1  0  0  0  0
 50 59  1  0  0  0  0
 51 59  1  0  0  0  0
 52 61  1  0  0  0  0
 53 63  1  0  0  0  0
 54 63  1  0  0  0  0
 55 63  1  0  0  0  0
 56 75  1  0  0  0  0
 57 62  1  0  0  0  0
 58 84  1  0  0  0  0
 60 63  1  0  0  0  0
 60 74  1  0  0  0  0
 61 75  1  0  0  0  0
 62 88  1  0  0  0  0
 64 66  1  0  0  0  0
M  CHG  1  75   1
M  ISO  4  37 100  58 101  72 100  84 101
M  END
> <Batch ID>
0177

> <Smiles>
CNC(C)C(=O)NC(C(=O)N1Cc2cc([101O:1][101CH2:1]C(=O)CC(Cl)C(=O)Nc3nc([100NH:0][100C:0](=O)N4CCCC(n5nc(-c6ccc(Oc7ccc(F)cc7F)cc6)c(C(N)=O)c5N)C4)sc3C(C)C)ccc2CC1C(=O)NC1CCCc2ccccc21)C(C)(C)C

> <Shape>
0.249

> <Color>
0.067

> <Negative vol penalty>
0.000

$$$$

  -OEChem-04052304413D

 90 98  0     1  0  0  0  0  0999 V2000
  -21.7901  -32.8351   25.9157 C   0  0  0  0  0  0  0  0  0  0  0  0
  -22.8829  -32.1907   25.3448 C   0  0  0  0  0  0  0  0  0  0  0  0
  -23.6536  -13.7445   19.6377 C   0  0  0  0  0  0  0  0  0  0  0  0
  -25.2628  -14.4541   21.2943 C   0  0  0  0  0  0  0  0  0  0  0  0
  -20.5232  -32.2582   25.8378 C   0  0  0  0  0  0  0  0  0  0  0  0
  -22.7096  -30.9683   24.6967 C   0  0  0  0  0  0  0  0  0  0  0  0
  -25.1709  -30.7471   20.2765 C   0  0  0  0  0  0  0  0  0  0  0  0
  -24.0486  -12.4195   19.8216 C   0  0  0  0  0  0  0  0  0  0  0  0
  -25.6577  -13.1290   21.4782 C   0  0  0  0  0  0  0  0  0  0  0  0
  -26.5455  -30.5189   20.3238 C   0  0  0  0  0  0  0  0  0  0  0  0
  -23.5051   -9.9463   22.0624 C   0  0  0  0  0  0  0  0  0  0  0  0
  -22.5043   -8.9814   22.1764 C   0  0  0  0  0  0  0  0  0  0  0  0
  -26.1708  -28.1920   19.8096 C   0  0  0  0  0  0  0  0  0  0  0  0
  -23.3786   -7.8448   20.2319 C   0  0  0  0  0  0  0  0  0  0  0  0
  -24.2607  -14.7619   20.3740 C   0  0  0  0  0  0  0  0  0  0  0  0
  -22.8387  -16.8196   20.8751 C   0  0  0  0  0  0  0  0  0  0  0  0
  -20.3327  -31.0328   25.1800 C   0  0  0  0  0  0  0  0  0  0  0  0
  -24.2837  -29.6954   20.0056 C   0  0  0  0  0  0  0  0  0  0  0  0
  -21.4392  -30.3738   24.6111 C   0  0  0  0  0  0  0  0  0  0  0  0
  -24.7856  -28.4100   19.7568 C   0  0  0  0  0  0  0  0  0  0  0  0
  -25.0506  -12.1117   20.7419 C   0  0  0  0  0  0  0  0  0  0  0  0
  -27.0454  -29.2407   20.0932 C   0  0  0  0  0  0  0  0  0  0  0  0
  -24.4427   -9.8605   21.0331 C   0  0  0  0  0  0  0  0  0  0  0  0
  -22.4411   -7.9307   21.2612 C   0  0  0  0  0  0  0  0  0  0  0  0
  -24.3794   -8.8098   20.1179 C   0  0  0  0  0  0  0  0  0  0  0  0
  -23.8536  -16.1309   20.1841 C   0  0  0  0  0  0  0  0  0  0  0  0
  -30.1762  -23.0145   20.9751 C   0  0  0  0  0  0  0  0  0  0  0  0
  -30.0236  -23.6972   19.7866 C   0  0  0  0  0  0  0  0  0  0  0  0
  -22.8461  -18.0800   20.3293 C   0  0  0  0  0  0  0  0  0  0  0  0
  -28.6133  -22.0604   19.4101 C   0  0  0  0  0  0  0  0  0  0  0  0
  -21.9674  -16.3612   21.9173 C   0  0  0  0  0  0  0  0  0  0  0  0
  -21.9167  -28.2915   21.5962 C   0  0  0  0  0  0  0  0  0  0  0  0
  -32.5098  -22.9711   21.9425 C   0  0  0  0  0  0  0  0  0  0  0  0
  -31.3053  -24.7959   17.1587 C   0  0  0  0  0  0  0  0  0  0  0  0
  -21.4993  -26.7043   18.7983 C   0  0  0  0  0  0  0  0  0  0  0  0
  -22.8486  -25.6000   15.8646 C   0  0  0  0  0  0  0  0  0  0  0  0
  -27.0523  -21.3130   17.5795 C   0  0  0  0  0  0  0  0  0  0  0  0
  -18.9524  -30.4251   25.1626 C   0  0  0  0  0  0  0  0  0  0  0  0
  -22.8055  -29.9635   19.9317 C   0  0  0  0  0  0  0  0  0  0  0  0
  -23.8767  -27.2511   19.4417 C   0  0  0  0  0  0  0  0  0  0  0  0
  -18.7907  -29.3102   24.1325 C   0  0  0  0  0  0  0  0  0  0  0  0
  -23.8735  -20.3946   16.2646 C   0  0  0  0  0  0  0  0  0  0  0  0
  -19.9695  -28.3445   24.2016 C   0  0  0  0  0  0  0  0  0  0  0  0
  -23.4125  -19.2638   17.1871 C   0  0  0  0  0  0  0  0  0  0  0  0
  -25.3800  -20.3456   16.0165 C   0  0  0  0  0  0  0  0  0  0  0  0
  -25.7469  -19.1718   18.1512 C   0  0  0  0  0  0  0  0  0  0  0  0
  -21.2874  -29.0586   23.8780 C   0  0  1  0  0  0  0  0  0  0  0  0
  -21.9597  -28.7136   20.1548 C   0  0  1  0  0  0  0  0  0  0  0  0
  -24.2463  -19.2180   18.4826 C   0  0  2  0  0  0  0  0  0  0  0  0
  -33.4237  -23.1716   23.1238 C   0  0  0  0  0  0  0  0  0  0  0  0
  -30.7460  -24.8501   15.7582 C   0  0  0  0  0  0  0  0  0  0  0  0
  -22.2725  -24.2978   13.7982 C   0  0  0  0  0  0  0  0  0  0  0  0
  -21.6665  -24.1072   20.3911 C   0  0  0  0  0  0  0  0  0  0  0  0
  -22.0408  -22.8906   18.2352 C   0  0  0  0  0  0  0  0  0  0  0  0
  -19.9084  -24.1288   18.6126 C   0  0  0  0  0  0  0  0  0  0  0  0
  -31.0871  -29.2401   19.5231 C   0  0  0  0  0  0  0  0  0  0  0  0
  -23.4077  -27.9160   14.1088 C   0  0  0  0  0  0  0  0  0  0  0  0
  -31.0325  -23.3070   22.1431 C   0  0  0  0  0  0  0  0  0  0  0  0
  -31.0736  -27.0121   18.3606 C   0  0  0  0  0  0  0  0  0  0  0  0
  -28.8992  -27.9742   19.3086 C   0  0  0  0  0  0  0  0  0  1  0  0
  -30.5484  -25.5745   18.2291 C   0  0  2  0  0  0  0  0  0  0  0  0
  -22.0394  -25.4263   18.2032 C   0  0  1  0  0  0  0  0  0  0  0  0
  -22.3482  -25.6775   14.4335 C   0  0  2  0  0  0  0  0  0  0  0  0
  -21.4310  -24.1594   18.8684 C   0  0  0  0  0  0  0  0  0  0  0  0
  -30.4182  -27.8651   19.4672 C   0  0  2  0  0  0  0  0  0  0  0  0
  -24.4613  -16.8906   19.2690 N   0  0  0  0  0  0  0  0  0  0  0  0
  -29.1281  -23.1513   18.8877 N   0  0  0  0  0  0  0  0  0  0  0  0
  -23.8265  -18.0698   19.3812 N   0  0  0  0  0  0  0  0  0  0  0  0
  -22.4388  -27.5624   19.3870 N   0  0  0  0  0  0  0  0  0  0  0  0
  -26.1051  -20.3085   17.2884 N   0  0  0  0  0  0  0  0  0  0  0  0
  -22.1095  -19.1848   20.5726 N   0  0  0  0  0  0  0  0  0  0  0  0
  -22.0941  -15.0375   22.3602 N   0  0  0  0  0  0  0  0  0  0  0  0
  -30.7088  -24.8600   19.4742 N   0  0  0  0  0  0  0  0  0  0  0  0
  -27.6546  -21.1922   18.8314 N   0  0  0  0  0  0  0  0  0  0  0  0
  -21.4177  -29.2565   22.4503 N   0  0  0  0  0  0  0  0  0  0  0  0
  -21.8082  -25.5158   16.7655 N   0  0  0  0  0  0  0  0  0  0  0  0
  -23.2585  -26.5241   13.6115 N   0  3  0  0  0  0  0  0  0  0  0  0
  -21.0910  -17.0985   22.4290 O   0  0  0  0  0  0  0  0  0  0  0  0
  -22.3059  -27.1728   21.9101 O   0  0  0  0  0  0  0  0  0  0  0  0
  -32.9465  -22.5548   20.8702 O   0  0  0  0  0  0  0  0  0  0  0  0
  -32.3135  -24.1351   17.4077 O   0  0  0  0  0  0  0  0  0  0  0  0
  -20.2893  -26.9360   18.7364 O   0  0  0  0  0  0  0  0  0  0  0  0
  -24.0430  -25.6091   16.1540 O   0  0  0  0  0  0  0  0  0  0  0  0
  -27.2902  -22.2294   16.7885 O   0  0  0  0  0  0  0  0  0  0  0  0
  -25.4361  -10.8188   20.9217 O   0  0  0  0  0  0  0  0  0  0  0  0
  -28.3867  -29.0151   20.1394 O   0  0  0  0  0  0  0  0  0  1  0  0
  -21.4809   -7.0033   21.3717 F   0  0  0  0  0  0  0  0  0  0  0  0
  -25.2780   -8.7214   19.1277 F   0  0  0  0  0  0  0  0  0  0  0  0
  -30.6639  -27.2597   20.6689 F   0  0  0  0  0  0  0  0  0  0  0  0
  -29.1607  -21.6324   20.9792 S   0  0  0  0  0  0  0  0  0  0  0  0
  1  2  1  0  0  0  0
  1  5  2  0  0  0  0
  2  6  2  0  0  0  0
  3  8  2  0  0  0  0
  3 15  1  0  0  0  0
  4  9  1  0  0  0  0
  4 15  2  0  0  0  0
  5 17  1  0  0  0  0
  6 19  1  0  0  0  0
  7 10  2  0  0  0  0
  7 18  1  0  0  0  0
  8 21  1  0  0  0  0
  9 21  2  0  0  0  0
 10 22  1  0  0  0  0
 11 12  2  0  0  0  0
 11 23  1  0  0  0  0
 12 24  1  0  0  0  0
 13 20  1  0  0  0  0
 13 22  2  0  0  0  0
 14 24  2  0  0  0  0
 14 25  1  0  0  0  0
 15 26  1  0  0  0  0
 16 26  1  0  0  0  0
 16 29  2  0  0  0  0
 16 31  1  0  0  0  0
 17 19  2  0  0  0  0
 17 38  1  0  0  0  0
 18 20  2  0  0  0  0
 18 39  1  0  0  0  0
 19 47  1  0  0  0  0
 20 40  1  0  0  0  0
 21 85  1  0  0  0  0
 22 86  1  0  0  0  0
 23 25  2  0  0  0  0
 23 85  1  0  0  0  0
 24 87  1  0  0  0  0
 25 88  1  0  0  0  0
 26 66  2  0  0  0  0
 27 28  2  0  0  0  0
 27 58  1  0  0  0  0
 27 90  1  0  0  0  0
 28 67  1  0  0  0  0
 28 73  1  0  0  0  0
 29 68  1  0  0  0  0
 29 71  1  0  0  0  0
 30 67  2  0  0  0  0
 30 74  1  0  0  0  0
 30 90  1  0  0  0  0
 31 72  1  0  0  0  0
 31 78  2  0  0  0  0
 32 48  1  0  0  0  0
 32 75  1  0  0  0  0
 32 79  2  0  0  0  0
 33 50  1  0  0  0  0
 33 58  1  0  0  0  0
 33 80  2  0  0  0  0
 34 51  1  0  0  0  0
 34 61  1  0  0  0  0
 34 81  2  0  0  0  0
 35 62  1  0  0  0  0
 35 69  1  0  0  0  0
 35 82  2  0  0  0  0
 36 63  1  0  0  0  0
 36 76  1  0  0  0  0
 36 83  2  0  0  0  0
 37 70  1  0  0  0  0
 37 74  1  0  0  0  0
 37 84  2  0  0  0  0
 38 41  1  0  0  0  0
 39 48  1  0  0  0  0
 40 69  1  0  0  0  0
 41 43  1  0  0  0  0
 42 44  1  0  0  0  0
 42 45  1  0  0  0  0
 43 47  1  0  0  0  0
 44 49  1  0  0  0  0
 45 70  1  0  0  0  0
 46 49  1  0  0  0  0
 46 70  1  0  0  0  0
 47 75  1  0  0  0  0
 48 69  1  0  0  0  0
 49 68  1  0  0  0  0
 52 63  1  0  0  0  0
 53 64  1  0  0  0  0
 54 64  1  0  0  0  0
 55 64  1  0  0  0  0
 56 65  1  0  0  0  0
 57 77  1  0  0  0  0
 59 61  1  0  0  0  0
 59 65  1  0  0  0  0
 60 65  1  0  0  0  0
 60 86  1  0  0  0  0
 61 73  1  0  0  0  0
 62 64  1  0  0  0  0
 62 76  1  0  0  0  0
 63 77  1  0  0  0  0
 65 89  1  0  0  0  0
 66 68  1  0  0  0  0
M  CHG  1  77   1
M  ISO  4  37 100  60 101  74 100  86 101
M  END
> <Batch ID>
0177

> <Smiles>
CNC(C)C(=O)NC(C(=O)N1Cc2cc([101O:1][101CH2:1]C(C)(F)CC(Nc3nc([100NH:0][100C:0](=O)N4CCCC(n5nc(-c6ccc(Oc7ccc(F)cc7F)cc6)c(C(N)=O)c5N)C4)sc3CC(C)=O)C(C)=O)ccc2CC1C(=O)NC1CCCc2ccccc21)C(C)(C)C

> <Shape>
0.216

> <Color>
0.070

> <Negative vol penalty>
0.000

$$$$

  -OEChem-04052304413D

 87 95  0     1  0  0  0  0  0999 V2000
  -24.9374  -34.5060   15.2672 C   0  0  0  0  0  0  0  0  0  0  0  0
  -24.8824  -33.1265   15.4387 C   0  0  0  0  0  0  0  0  0  0  0  0
  -23.4039   -9.2229   19.7884 C   0  0  0  0  0  0  0  0  0  0  0  0
  -23.4153  -10.3533   21.9236 C   0  0  0  0  0  0  0  0  0  0  0  0
  -25.4461  -35.3140   16.2832 C   0  0  0  0  0  0  0  0  0  0  0  0
  -25.3372  -32.5541   16.6261 C   0  0  0  0  0  0  0  0  0  0  0  0
  -23.0568  -27.6175   19.4431 C   0  0  0  0  0  0  0  0  0  0  0  0
  -22.5889   -8.2243   20.3213 C   0  0  0  0  0  0  0  0  0  0  0  0
  -22.6001   -9.3547   22.4566 C   0  0  0  0  0  0  0  0  0  0  0  0
  -23.4485  -26.2796   19.4548 C   0  0  0  0  0  0  0  0  0  0  0  0
  -19.3243   -8.5260   22.4084 C   0  0  0  0  0  0  0  0  0  0  0  0
  -18.2408   -8.9249   23.1910 C   0  0  0  0  0  0  0  0  0  0  0  0
  -24.6665  -26.6604   21.5019 C   0  0  0  0  0  0  0  0  0  0  0  0
  -29.0957  -18.2275   20.3796 C   0  0  0  0  0  0  0  0  0  0  0  0
  -19.1408   -7.6934   25.0647 C   0  0  0  0  0  0  0  0  0  0  0  0
  -23.8172  -10.2874   20.5896 C   0  0  0  0  0  0  0  0  0  0  0  0
  -24.2463  -12.5093   19.4120 C   0  0  0  0  0  0  0  0  0  0  0  0
  -25.8985  -34.7520   17.4874 C   0  0  0  0  0  0  0  0  0  0  0  0
  -23.4766  -28.4910   20.4566 C   0  0  0  0  0  0  0  0  0  0  0  0
  -25.8538  -33.3552   17.6587 C   0  0  0  0  0  0  0  0  0  0  0  0
  -24.2766  -28.0083   21.5022 C   0  0  0  0  0  0  0  0  0  0  0  0
  -29.4462  -19.5707   20.3014 C   0  0  0  0  0  0  0  0  0  0  0  0
  -22.1869   -8.2902   21.6554 C   0  0  0  0  0  0  0  0  0  0  0  0
  -24.2559  -25.8015   20.4828 C   0  0  0  0  0  0  0  0  0  0  0  0
  -20.3160   -7.7106   22.9538 C   0  0  0  0  0  0  0  0  0  0  0  0
  -18.1491   -8.5086   24.5192 C   0  0  0  0  0  0  0  0  0  0  0  0
  -20.2243   -7.2944   24.2820 C   0  0  0  0  0  0  0  0  0  0  0  0
  -30.7797  -19.9270   20.1337 C   0  0  0  0  0  0  0  0  0  0  0  0
  -24.6596  -11.3190   20.0398 C   0  0  0  0  0  0  0  0  0  0  0  0
  -30.1084  -17.2865   20.2853 C   0  0  0  0  0  0  0  0  0  0  0  0
  -31.7170  -18.9099   20.0506 C   0  0  0  0  0  0  0  0  0  0  0  0
  -25.4168  -13.1423   19.0717 C   0  0  0  0  0  0  0  0  0  0  0  0
  -25.8041  -24.1615   19.8627 C   0  0  0  0  0  0  0  0  0  1  0  0
  -22.9227  -12.9991   19.1593 C   0  0  0  0  0  0  0  0  0  0  0  0
  -26.2765  -22.9111   19.8133 C   0  0  0  0  0  0  0  0  0  0  0  0
  -27.5495  -22.6603   19.0965 C   0  0  0  0  0  0  0  0  0  0  0  0
  -28.0455  -21.2467   19.0634 C   0  0  0  0  0  0  0  0  0  0  0  0
  -25.2292  -31.1411   20.5502 C   0  0  0  0  0  0  0  0  0  0  0  0
  -24.3278  -31.1616   23.6662 C   0  0  0  0  0  0  0  0  0  0  0  0
  -23.2484  -29.3985   26.3816 C   0  0  0  0  0  0  0  0  0  0  0  0
  -30.5852  -14.8129   20.2963 C   0  0  0  0  0  0  0  0  0  0  0  0
  -26.4839  -35.6617   18.5383 C   0  0  0  0  0  0  0  0  0  0  0  0
  -23.0233  -29.9251   20.4439 C   0  0  0  0  0  0  0  0  0  0  0  0
  -24.7376  -28.9004   22.6248 C   0  0  0  0  0  0  0  0  0  0  0  0
  -26.5983  -35.0092   19.9136 C   0  0  0  0  0  0  0  0  0  0  0  0
  -30.1963  -11.4761   19.1166 C   0  0  0  0  0  0  0  0  0  0  0  0
  -27.2029  -33.6139   19.7938 C   0  0  0  0  0  0  0  0  0  0  0  0
  -28.6871  -11.2357   19.2000 C   0  0  0  0  0  0  0  0  0  0  0  0
  -30.6995  -12.3306   20.2787 C   0  0  0  0  0  0  0  0  0  0  0  0
  -28.4782  -13.3602   20.5527 C   0  0  0  0  0  0  0  0  0  0  0  0
  -26.3146  -32.6990   18.9421 C   0  0  1  0  0  0  0  0  0  0  0  0
  -23.9330  -30.8465   21.2507 C   0  0  1  0  0  0  0  0  0  0  0  0
  -27.9142  -12.5585   19.3683 C   0  0  2  0  0  0  0  0  0  0  0  0
  -22.6350  -29.6829   28.7982 C   0  0  0  0  0  0  0  0  0  0  0  0
  -27.2849  -31.3628   24.3906 C   0  0  0  0  0  0  0  0  0  0  0  0
  -26.6865  -30.6922   26.7274 C   0  0  0  0  0  0  0  0  0  0  0  0
  -25.7736  -32.8050   25.7655 C   0  0  0  0  0  0  0  0  0  0  0  0
  -20.4796  -28.4662   25.9085 C   0  0  0  0  0  0  0  0  0  0  0  0
  -28.3834  -20.6331   20.3991 C   0  0  0  0  0  0  0  0  0  0  0  0
  -24.8863  -30.5845   24.9445 C   0  0  1  0  0  0  0  0  0  0  0  0
  -22.1224  -29.6553   27.3667 C   0  0  2  0  0  0  0  0  0  0  0  0
  -26.1509  -31.3445   25.4349 C   0  0  0  0  0  0  0  0  0  0  0  0
  -25.9888  -11.2004   20.0961 N   0  0  0  0  0  0  0  0  0  0  0  0
  -31.4146  -17.5942   20.1222 N   0  0  0  0  0  0  0  0  0  0  0  0
  -26.4209  -12.3243   19.4993 N   0  0  0  0  0  0  0  0  0  0  0  0
  -24.2731  -30.2962   22.5644 N   0  0  0  0  0  0  0  0  0  0  0  0
  -29.9236  -13.5691   20.3740 N   0  0  0  0  0  0  0  0  0  0  0  0
  -25.6747  -14.3132   18.4513 N   0  0  0  0  0  0  0  0  0  0  0  0
  -21.8323  -12.2229   19.5751 N   0  0  0  0  0  0  0  0  0  0  0  0
  -29.7408  -15.9204   20.3661 N   0  0  0  0  0  0  0  0  0  0  0  0
  -25.1788  -32.2383   19.7117 N   0  0  0  0  0  0  0  0  0  0  0  0
  -23.7861  -30.5744   25.9026 N   0  0  0  0  0  0  0  0  0  0  0  0
  -21.0866  -28.5893   27.2589 N   0  3  0  0  0  0  0  0  0  0  0  0
  -22.7131  -14.0849   18.5671 O   0  0  0  0  0  0  0  0  0  0  0  0
  -28.2138  -23.5017   18.5123 O   0  0  0  0  0  0  0  0  0  0  0  0
  -28.1624  -20.7202   17.9674 O   0  0  0  0  0  0  0  0  0  0  0  0
  -26.2034  -30.4269   20.7564 O   0  0  0  0  0  0  0  0  0  0  0  0
  -23.9472  -32.3348   23.6479 O   0  0  0  0  0  0  0  0  0  0  0  0
  -23.6168  -28.2678   26.0710 O   0  0  0  0  0  0  0  0  0  0  0  0
  -31.8077  -14.8896   20.1493 O   0  0  0  0  0  0  0  0  0  0  0  0
  -25.6342  -21.8402   20.3942 O   0  0  0  0  0  0  0  0  0  0  0  0
  -21.3914   -7.3161   22.1757 O   0  0  0  0  0  0  0  0  0  0  0  0
  -24.6403  -24.4961   20.4962 O   0  0  0  0  0  0  0  0  0  1  0  0
  -17.1094   -8.8931   25.2711 F   0  0  0  0  0  0  0  0  0  0  0  0
  -21.1745   -6.5120   24.8119 F   0  0  0  0  0  0  0  0  0  0  0  0
  -31.1549  -21.2093   20.0546 F   0  0  0  0  0  0  0  0  0  0  0  0
  -33.0076  -19.2403   19.8890 F   0  0  0  0  0  0  0  0  0  0  0  0
  1  2  1  0  0  0  0
  1  5  2  0  0  0  0
  2  6  2  0  0  0  0
  3  8  2  0  0  0  0
  3 16  1  0  0  0  0
  4  9  1  0  0  0  0
  4 16  2  0  0  0  0
  5 18  1  0  0  0  0
  6 20  1  0  0  0  0
  7 10  2  0  0  0  0
  7 19  1  0  0  0  0
  8 23  1  0  0  0  0
  9 23  2  0  0  0  0
 10 24  1  0  0  0  0
 11 12  2  0  0  0  0
 11 25  1  0  0  0  0
 12 26  1  0  0  0  0
 13 21  1  0  0  0  0
 13 24  2  0  0  0  0
 14 22  1  0  0  0  0
 14 30  2  0  0  0  0
 15 26  2  0  0  0  0
 15 27  1  0  0  0  0
 16 29  1  0  0  0  0
 17 29  1  0  0  0  0
 17 32  2  0  0  0  0
 17 34  1  0  0  0  0
 18 20  2  0  0  0  0
 18 42  1  0  0  0  0
 19 21  2  0  0  0  0
 19 43  1  0  0  0  0
 20 51  1  0  0  0  0
 21 44  1  0  0  0  0
 22 28  2  0  0  0  0
 22 59  1  0  0  0  0
 23 82  1  0  0  0  0
 24 83  1  0  0  0  0
 25 27  2  0  0  0  0
 25 82  1  0  0  0  0
 26 84  1  0  0  0  0
 27 85  1  0  0  0  0
 28 31  1  0  0  0  0
 28 86  1  0  0  0  0
 29 63  2  0  0  0  0
 30 64  1  0  0  0  0
 30 70  1  0  0  0  0
 31 64  2  0  0  0  0
 31 87  1  0  0  0  0
 32 65  1  0  0  0  0
 32 68  1  0  0  0  0
 33 35  2  0  0  0  0
 33 83  1  0  0  0  0
 34 69  1  0  0  0  0
 34 74  2  0  0  0  0
 35 36  1  0  0  0  0
 35 81  1  0  0  0  0
 36 37  1  0  0  0  0
 36 75  2  0  0  0  0
 37 59  1  0  0  0  0
 37 76  2  0  0  0  0
 38 52  1  0  0  0  0
 38 71  1  0  0  0  0
 38 77  2  0  0  0  0
 39 60  1  0  0  0  0
 39 66  1  0  0  0  0
 39 78  2  0  0  0  0
 40 61  1  0  0  0  0
 40 72  1  0  0  0  0
 40 79  2  0  0  0  0
 41 67  1  0  0  0  0
 41 70  1  0  0  0  0
 41 80  2  0  0  0  0
 42 45  1  0  0  0  0
 43 52  1  0  0  0  0
 44 66  1  0  0  0  0
 45 47  1  0  0  0  0
 46 48  1  0  0  0  0
 46 49  1  0  0  0  0
 47 51  1  0  0  0  0
 48 53  1  0  0  0  0
 49 67  1  0  0  0  0
 50 53  1  0  0  0  0
 50 67  1  0  0  0  0
 51 71  1  0  0  0  0
 52 66  1  0  0  0  0
 53 65  1  0  0  0  0
 54 61  1  0  0  0  0
 55 62  1  0  0  0  0
 56 62  1  0  0  0  0
 57 62  1  0  0  0  0
 58 73  1  0  0  0  0
 60 62  1  0  0  0  0
 60 72  1  0  0  0  0
 61 73  1  0  0  0  0
 63 65  1  0  0  0  0
M  CHG  1  73   1
M  ISO  4  33 101  41 100  70 100  83 101
M  END
> <Batch ID>
0177

> <Smiles>
CNC(C)C(=O)NC(C(=O)N1Cc2cc([101O:1][101CH2:1]C(=O)C(=O)C(=O)Cc3cc([100NH:0][100C:0](=O)N4CCCC(n5nc(-c6ccc(Oc7ccc(F)cc7F)cc6)c(C(N)=O)c5N)C4)nc(F)c3F)ccc2CC1C(=O)NC1CCCc2ccccc21)C(C)(C)C

> <Shape>
0.251

> <Color>
0.132

> <Negative vol penalty>
0.000

$$$$

  -OEChem-04052304413D

 88 96  0     1  0  0  0  0  0999 V2000
  -25.0347  -38.1926   21.9249 C   0  0  0  0  0  0  0  0  0  0  0  0
  -25.7679  -37.3085   21.1399 C   0  0  0  0  0  0  0  0  0  0  0  0
  -24.7021   -9.1933   21.7574 C   0  0  0  0  0  0  0  0  0  0  0  0
  -24.0317   -8.8422   19.4630 C   0  0  0  0  0  0  0  0  0  0  0  0
  -24.4743  -37.7573   23.1251 C   0  0  0  0  0  0  0  0  0  0  0  0
  -25.9419  -35.9887   21.5552 C   0  0  0  0  0  0  0  0  0  0  0  0
  -26.6186  -29.3553   18.9368 C   0  0  0  0  0  0  0  0  0  0  0  0
  -23.5308   -8.5746   22.1943 C   0  0  0  0  0  0  0  0  0  0  0  0
  -22.8605   -8.2234   19.8999 C   0  0  0  0  0  0  0  0  0  0  0  0
  -27.4591  -28.2459   19.0179 C   0  0  0  0  0  0  0  0  0  0  0  0
  -20.8876   -6.7653   23.9134 C   0  0  0  0  0  0  0  0  0  0  0  0
  -20.9927   -5.8335   24.9460 C   0  0  0  0  0  0  0  0  0  0  0  0
  -26.3783  -27.5848   21.0707 C   0  0  0  0  0  0  0  0  0  0  0  0
  -33.5393  -20.2324   18.6212 C   0  0  0  0  0  0  0  0  0  0  0  0
  -22.4665   -4.4893   23.5828 C   0  0  0  0  0  0  0  0  0  0  0  0
  -24.9525   -9.3272   20.3917 C   0  0  0  0  0  0  0  0  0  0  0  0
  -27.3998   -9.3520   19.6720 C   0  0  0  0  0  0  0  0  0  0  0  0
  -24.6334  -36.4291   23.5505 C   0  0  0  0  0  0  0  0  0  0  0  0
  -25.6573  -29.5941   19.9294 C   0  0  0  0  0  0  0  0  0  0  0  0
  -25.3841  -35.5356   22.7628 C   0  0  0  0  0  0  0  0  0  0  0  0
  -25.5251  -28.6965   20.9985 C   0  0  0  0  0  0  0  0  0  0  0  0
  -33.5671  -18.8331   18.8318 C   0  0  0  0  0  0  0  0  0  0  0  0
  -22.6100   -8.0896   21.2656 C   0  0  0  0  0  0  0  0  0  0  0  0
  -27.3410  -27.3620   20.0865 C   0  0  0  0  0  0  0  0  0  0  0  0
  -21.5719   -6.5591   22.7155 C   0  0  0  0  0  0  0  0  0  0  0  0
  -21.7822   -4.6955   24.7807 C   0  0  0  0  0  0  0  0  0  0  0  0
  -22.3613   -5.4211   22.5502 C   0  0  0  0  0  0  0  0  0  0  0  0
  -26.1620   -9.9667   19.9398 C   0  0  0  0  0  0  0  0  0  0  0  0
  -32.2891  -18.4759   19.1937 C   0  0  0  0  0  0  0  0  0  0  0  0
  -28.2162  -10.3825   19.2749 C   0  0  0  0  0  0  0  0  0  0  0  0
  -32.2462  -20.6305   18.8691 C   0  0  0  0  0  0  0  0  0  0  0  0
  -31.8077  -17.1834   19.5104 C   0  0  0  0  0  0  0  0  0  0  0  0
  -30.5205  -16.8452   19.8492 C   0  0  0  0  0  0  0  0  0  0  0  0
  -30.0461  -23.6759   18.9242 C   0  0  0  0  0  0  0  0  0  0  0  0
  -27.7777   -7.9726   19.7732 C   0  0  0  0  0  0  0  0  0  0  0  0
  -28.8471  -24.2474   19.1227 C   0  0  0  0  0  0  0  0  0  0  0  0
  -30.1704  -15.4413   20.1444 C   0  0  0  0  0  0  0  0  0  0  0  0
  -30.3009  -22.2101   19.0902 C   0  0  0  0  0  0  0  0  0  0  0  0
  -25.1294  -31.9237   22.0265 C   0  0  0  0  0  0  0  0  0  0  0  0
  -22.4292  -30.2329   22.6366 C   0  0  0  0  0  0  0  0  0  0  0  0
  -20.8124  -27.2285   22.5582 C   0  0  0  0  0  0  0  0  0  0  0  0
  -24.0488  -36.0172   24.8785 C   0  0  0  0  0  0  0  0  0  0  0  0
  -24.7405  -30.7808   19.8133 C   0  0  0  0  0  0  0  0  0  0  0  0
  -24.4956  -28.8969   22.0795 C   0  0  0  0  0  0  0  0  0  0  0  0
  -23.9636  -34.5043   25.0635 C   0  0  0  0  0  0  0  0  0  0  0  0
  -27.1574  -15.1651   18.0763 C   0  0  0  0  0  0  0  0  0  0  0  0
  -25.2737  -33.8413   24.6503 C   0  0  0  0  0  0  0  0  0  0  0  0
  -26.7088  -13.7424   18.3994 C   0  0  0  0  0  0  0  0  0  0  0  0
  -27.8030  -15.8485   19.2807 C   0  0  0  0  0  0  0  0  0  0  0  0
  -28.4808  -13.6481   20.1970 C   0  0  0  0  0  0  0  0  0  0  0  0
  -25.5741  -34.0898   23.1672 C   0  0  1  0  0  0  0  0  0  0  0  0
  -24.1418  -31.2064   21.1504 C   0  0  1  0  0  0  0  0  0  0  0  0
  -27.8708  -12.9252   18.9859 C   0  0  1  0  0  0  0  0  0  0  0  0
  -18.6272  -26.1511   23.1595 C   0  0  0  0  0  0  0  0  0  0  0  0
  -23.2341  -30.2486   25.5797 C   0  0  0  0  0  0  0  0  0  0  0  0
  -21.5848  -28.4055   25.9687 C   0  0  0  0  0  0  0  0  0  0  0  0
  -20.7982  -30.6312   25.1623 C   0  0  0  0  0  0  0  0  0  0  0  0
  -20.2770  -26.4758   19.7464 C   0  0  0  0  0  0  0  0  0  0  0  0
  -28.6223  -25.7192   18.9396 C   0  0  0  0  0  0  0  0  0  1  0  0
  -22.0585  -29.1144   23.5803 C   0  0  1  0  0  0  0  0  0  0  0  0
  -19.4290  -26.8416   22.0672 C   0  0  2  0  0  0  0  0  0  0  0  0
  -34.7431  -17.9527   18.6878 C   0  0  0  0  0  0  0  0  0  0  0  0
  -21.9397  -29.5969   25.0536 C   0  0  0  0  0  0  0  0  0  0  0  0
  -26.1854  -11.2857   19.7305 N   0  0  0  0  0  0  0  0  0  0  0  0
  -27.4479  -11.5082   19.3272 N   0  0  0  0  0  0  0  0  0  0  0  0
  -28.8723  -15.0213   19.8597 N   0  0  0  0  0  0  0  0  0  0  0  0
  -23.6268  -30.0753   21.9247 N   0  0  0  0  0  0  0  0  0  0  0  0
  -29.5093  -10.4267   18.8896 N   0  0  0  0  0  0  0  0  0  0  0  0
  -26.8157   -7.0456   20.1969 N   0  0  0  0  0  0  0  0  0  0  0  0
  -31.6295  -21.9050   18.8194 N   0  0  0  0  0  0  0  0  0  0  0  0
  -24.7685  -33.2212   22.3360 N   0  0  0  0  0  0  0  0  0  0  0  0
  -20.8389  -28.5176   23.0468 N   0  0  0  0  0  0  0  0  0  0  0  0
  -19.5324  -25.9161   20.9037 N   0  3  0  0  0  0  0  0  0  0  0  0
  -28.9388   -7.5764   19.5118 O   0  0  0  0  0  0  0  0  0  0  0  0
  -31.0487  -14.7263   20.6304 O   0  0  0  0  0  0  0  0  0  0  0  0
  -29.4118  -21.4364   19.4232 O   0  0  0  0  0  0  0  0  0  0  0  0
  -26.1431  -31.3426   22.3958 O   0  0  0  0  0  0  0  0  0  0  0  0
  -21.6801  -31.2071   22.5296 O   0  0  0  0  0  0  0  0  0  0  0  0
  -21.7725  -26.4624   22.5161 O   0  0  0  0  0  0  0  0  0  0  0  0
  -31.4778  -19.5656   19.2187 O   0  0  0  0  0  0  0  0  0  0  0  0
  -27.7338  -23.5179   19.4901 O   0  0  0  0  0  0  0  0  0  0  0  0
  -21.4671   -7.4856   21.6916 O   0  0  0  0  0  0  0  0  0  0  0  0
  -28.1605  -26.2787   20.1684 O   0  0  0  0  0  0  0  0  0  1  0  0
  -21.8843   -3.8015   25.7730 F   0  0  0  0  0  0  0  0  0  0  0  0
  -23.0220   -5.2182   21.4021 F   0  0  0  0  0  0  0  0  0  0  0  0
  -35.8912  -18.6039   18.3126 F   0  0  0  0  0  0  0  0  0  0  0  0
  -35.0886  -17.2842   19.8351 F   0  0  0  0  0  0  0  0  0  0  0  0
  -34.5713  -16.9711   17.7463 F   0  0  0  0  0  0  0  0  0  0  0  0
  1  2  1  0  0  0  0
  1  5  2  0  0  0  0
  2  6  2  0  0  0  0
  3  8  2  0  0  0  0
  3 16  1  0  0  0  0
  4  9  1  0  0  0  0
  4 16  2  0  0  0  0
  5 18  1  0  0  0  0
  6 20  1  0  0  0  0
  7 10  2  0  0  0  0
  7 19  1  0  0  0  0
  8 23  1  0  0  0  0
  9 23  2  0  0  0  0
 10 24  1  0  0  0  0
 11 12  2  0  0  0  0
 11 25  1  0  0  0  0
 12 26  1  0  0  0  0
 13 21  1  0  0  0  0
 13 24  2  0  0  0  0
 14 22  1  0  0  0  0
 14 31  2  0  0  0  0
 15 26  2  0  0  0  0
 15 27  1  0  0  0  0
 16 28  1  0  0  0  0
 17 28  1  0  0  0  0
 17 30  2  0  0  0  0
 17 35  1  0  0  0  0
 18 20  2  0  0  0  0
 18 42  1  0  0  0  0
 19 21  2  0  0  0  0
 19 43  1  0  0  0  0
 20 51  1  0  0  0  0
 21 44  1  0  0  0  0
 22 29  2  0  0  0  0
 22 62  1  0  0  0  0
 23 82  1  0  0  0  0
 24 83  1  0  0  0  0
 25 27  2  0  0  0  0
 25 82  1  0  0  0  0
 26 84  1  0  0  0  0
 27 85  1  0  0  0  0
 28 64  2  0  0  0  0
 29 32  1  0  0  0  0
 29 80  1  0  0  0  0
 30 65  1  0  0  0  0
 30 68  1  0  0  0  0
 31 70  1  0  0  0  0
 31 80  1  0  0  0  0
 32 33  2  0  0  0  0
 33 37  1  0  0  0  0
 34 36  2  0  0  0  0
 34 38  1  0  0  0  0
 35 69  1  0  0  0  0
 35 74  2  0  0  0  0
 36 59  1  0  0  0  0
 36 81  1  0  0  0  0
 37 66  1  0  0  0  0
 37 75  2  0  0  0  0
 38 70  1  0  0  0  0
 38 76  2  0  0  0  0
 39 52  1  0  0  0  0
 39 71  1  0  0  0  0
 39 77  2  0  0  0  0
 40 60  1  0  0  0  0
 40 67  1  0  0  0  0
 40 78  2  0  0  0  0
 41 61  1  0  0  0  0
 41 72  1  0  0  0  0
 41 79  2  0  0  0  0
 42 45  1  0  0  0  0
 43 52  1  0  0  0  0
 44 67  1  0  0  0  0
 45 47  1  0  0  0  0
 46 48  1  0  0  0  0
 46 49  1  0  0  0  0
 47 51  1  0  0  0  0
 48 53  1  0  0  0  0
 49 66  1  0  0  0  0
 50 53  1  0  0  0  0
 50 66  1  0  0  0  0
 51 71  1  0  0  0  0
 52 67  1  0  0  0  0
 53 65  1  0  0  0  0
 54 61  1  0  0  0  0
 55 63  1  0  0  0  0
 56 63  1  0  0  0  0
 57 63  1  0  0  0  0
 58 73  1  0  0  0  0
 59 83  1  0  0  0  0
 60 63  1  0  0  0  0
 60 72  1  0  0  0  0
 61 73  1  0  0  0  0
 62 86  1  0  0  0  0
 62 87  1  0  0  0  0
 62 88  1  0  0  0  0
 64 65  1  0  0  0  0
M  CHG  1  73   1
M  ISO  4  33 100  37 100  59 101  83 101
M  END
> <Batch ID>
0177

> <Smiles>
CNC(C)C(=O)NC(C(=O)N1Cc2cc([101O:1][101CH2:1]C(=O)CC(=O)Nc3cc(C(F)(F)F)c(C=[100CH:0][100C:0](=O)N4CCCC(n5nc(-c6ccc(Oc7ccc(F)cc7F)cc6)c(C(N)=O)c5N)C4)o3)ccc2CC1C(=O)NC1CCCc2ccccc21)C(C)(C)C

> <Shape>
0.319

> <Color>
0.113

> <Negative vol penalty>
0.000

$$$$

  -OEChem-04052304413D

 86 94  0     1  0  0  0  0  0999 V2000
  -27.9107  -37.4263   22.7739 C   0  0  0  0  0  0  0  0  0  0  0  0
  -28.3578  -36.1107   22.7056 C   0  0  0  0  0  0  0  0  0  0  0  0
  -24.4818   -8.5330   21.4243 C   0  0  0  0  0  0  0  0  0  0  0  0
  -23.3797  -10.2484   22.7204 C   0  0  0  0  0  0  0  0  0  0  0  0
  -26.5767  -37.6931   23.0790 C   0  0  0  0  0  0  0  0  0  0  0  0
  -27.4712  -35.0610   22.9435 C   0  0  0  0  0  0  0  0  0  0  0  0
  -27.4692  -29.5614   20.2489 C   0  0  0  0  0  0  0  0  0  0  0  0
  -24.0820   -7.5734   22.3544 C   0  0  0  0  0  0  0  0  0  0  0  0
  -22.9799   -9.2888   23.6505 C   0  0  0  0  0  0  0  0  0  0  0  0
  -27.9646  -28.3209   20.6485 C   0  0  0  0  0  0  0  0  0  0  0  0
  -23.0447   -4.6175   24.1987 C   0  0  0  0  0  0  0  0  0  0  0  0
  -22.5229   -3.4194   23.7109 C   0  0  0  0  0  0  0  0  0  0  0  0
  -25.7774  -27.7183   21.4683 C   0  0  0  0  0  0  0  0  0  0  0  0
  -20.7537   -4.6393   22.6070 C   0  0  0  0  0  0  0  0  0  0  0  0
  -24.1307   -9.8705   21.6074 C   0  0  0  0  0  0  0  0  0  0  0  0
  -23.8424  -11.2788   19.4999 C   0  0  0  0  0  0  0  0  0  0  0  0
  -25.6711  -36.6459   23.3112 C   0  0  0  0  0  0  0  0  0  0  0  0
  -26.1245  -29.8944   20.4663 C   0  0  0  0  0  0  0  0  0  0  0  0
  -26.1241  -35.3140   23.2533 C   0  0  0  0  0  0  0  0  0  0  0  0
  -25.2668  -28.9627   21.0682 C   0  0  0  0  0  0  0  0  0  0  0  0
  -26.1447  -19.6829   22.3639 C   0  0  0  0  0  0  0  0  0  0  0  0
  -26.2184  -18.2751   22.5709 C   0  0  0  0  0  0  0  0  0  0  0  0
  -23.3311   -7.9513   23.4674 C   0  0  0  0  0  0  0  0  0  0  0  0
  -27.1193  -27.4003   21.2609 C   0  0  0  0  0  0  0  0  0  0  0  0
  -22.4209   -5.8265   23.8907 C   0  0  0  0  0  0  0  0  0  0  0  0
  -21.3775   -3.4303   22.9151 C   0  0  0  0  0  0  0  0  0  0  0  0
  -21.2754   -5.8374   23.0948 C   0  0  0  0  0  0  0  0  0  0  0  0
  -24.5438  -10.8623   20.6473 C   0  0  0  0  0  0  0  0  0  0  0  0
  -24.6517  -12.2308   18.9295 C   0  0  0  0  0  0  0  0  0  0  0  0
  -27.1591  -20.1404   21.5520 C   0  0  0  0  0  0  0  0  0  0  0  0
  -27.2864  -17.7101   21.9090 C   0  0  0  0  0  0  0  0  0  0  0  0
  -22.5729  -10.8441   18.9949 C   0  0  0  0  0  0  0  0  0  0  0  0
  -28.5308  -23.2868   19.9845 C   0  0  0  0  0  0  0  0  0  0  0  0
  -28.6506  -24.1462   21.0160 C   0  0  0  0  0  0  0  0  0  0  0  0
  -28.5173  -21.8132   20.2619 C   0  0  0  0  0  0  0  0  0  0  0  0
  -24.6101  -32.1327   22.1397 C   0  0  0  0  0  0  0  0  0  0  0  0
  -21.9882  -30.8946   20.6854 C   0  0  0  0  0  0  0  0  0  0  0  0
  -20.5150  -28.2258   19.1512 C   0  0  0  0  0  0  0  0  0  0  0  0
  -28.8368  -15.8827   21.1326 C   0  0  0  0  0  0  0  0  0  0  0  0
  -24.2495  -36.9848   23.6841 C   0  0  0  0  0  0  0  0  0  0  0  0
  -25.5993  -31.2263   20.0052 C   0  0  0  0  0  0  0  0  0  0  0  0
  -23.8103  -29.2636   21.3059 C   0  0  0  0  0  0  0  0  0  0  0  0
  -23.2882  -35.8061   23.5541 C   0  0  0  0  0  0  0  0  0  0  0  0
  -29.2572  -13.4830   18.5361 C   0  0  0  0  0  0  0  0  0  0  0  0
  -23.8887  -34.5551   24.1875 C   0  0  0  0  0  0  0  0  0  0  0  0
  -28.0293  -12.5802   18.6745 C   0  0  0  0  0  0  0  0  0  0  0  0
  -29.7786  -13.9438   19.8961 C   0  0  0  0  0  0  0  0  0  0  0  0
  -27.5474  -13.6690   20.9037 C   0  0  0  0  0  0  0  0  0  0  0  0
  -25.1870  -34.1476   23.4806 C   0  0  1  0  0  0  0  0  0  0  0  0
  -24.3344  -31.6571   20.7413 C   0  0  1  0  0  0  0  0  0  0  0  0
  -26.9471  -13.2321   19.5574 C   0  0  2  0  0  0  0  0  0  0  0  0
  -25.0991  -20.5567   22.9529 C   0  0  0  0  0  0  0  0  0  0  0  0
  -25.2562  -17.5064   23.3996 C   0  0  0  0  0  0  0  0  0  0  0  0
  -28.4283  -23.6435   18.5325 C   0  0  0  0  0  0  0  0  0  0  0  0
  -18.3520  -27.5026   18.1043 C   0  0  0  0  0  0  0  0  0  0  0  0
  -20.7566  -30.5722   23.4584 C   0  0  0  0  0  0  0  0  0  0  0  0
  -19.0705  -29.0186   22.4525 C   0  0  0  0  0  0  0  0  0  0  0  0
  -19.1759  -31.3959   21.7042 C   0  0  0  0  0  0  0  0  0  0  0  0
  -21.8041  -27.7686   16.5267 C   0  0  0  0  0  0  0  0  0  0  0  0
  -28.6793  -25.6429   20.8947 C   0  0  0  0  0  0  0  0  0  1  0  0
  -21.0052  -29.7954   21.0087 C   0  0  1  0  0  0  0  0  0  0  0  0
  -19.7218  -28.1170   17.8615 C   0  0  2  0  0  0  0  0  0  0  0  0
  -20.0299  -30.1903   22.1534 C   0  0  0  0  0  0  0  0  0  0  0  0
  -25.7090  -11.4975   20.7982 N   0  0  0  0  0  0  0  0  0  0  0  0
  -25.7461  -12.3228   19.7382 N   0  0  0  0  0  0  0  0  0  0  0  0
  -23.3458  -30.5818   20.8431 N   0  0  0  0  0  0  0  0  0  0  0  0
  -28.6995  -14.5550   20.6752 N   0  0  0  0  0  0  0  0  0  0  0  0
  -24.5268  -12.9898   17.8201 N   0  0  0  0  0  0  0  0  0  0  0  0
  -21.8738   -9.8580   19.7043 N   0  0  0  0  0  0  0  0  0  0  0  0
  -27.4690  -21.4420   21.0906 N   0  0  0  0  0  0  0  0  0  0  0  0
  -27.7337  -16.3677   21.8343 N   0  0  0  0  0  0  0  0  0  0  0  0
  -24.8938  -33.4821   22.2294 N   0  0  0  0  0  0  0  0  0  0  0  0
  -20.3459  -29.4550   19.7527 N   0  0  0  0  0  0  0  0  0  0  0  0
  -20.4495  -27.2684   16.8759 N   0  3  0  0  0  0  0  0  0  0  0  0
  -22.0808  -11.3043   17.9368 O   0  0  0  0  0  0  0  0  0  0  0  0
  -29.3562  -21.0969   19.7265 O   0  0  0  0  0  0  0  0  0  0  0  0
  -24.5671  -31.3348   23.0687 O   0  0  0  0  0  0  0  0  0  0  0  0
  -21.5672  -31.9882   20.3001 O   0  0  0  0  0  0  0  0  0  0  0  0
  -21.2117  -27.3105   19.5839 O   0  0  0  0  0  0  0  0  0  0  0  0
  -29.8467  -16.5500   20.8943 O   0  0  0  0  0  0  0  0  0  0  0  0
  -28.8170  -23.6761   22.3106 O   0  0  0  0  0  0  0  0  0  0  0  0
  -22.9406   -7.0152   24.3751 O   0  0  0  0  0  0  0  0  0  0  0  0
  -27.6004  -26.1891   21.6524 O   0  0  0  0  0  0  0  0  0  1  0  0
  -20.8774   -2.2798   22.4455 F   0  0  0  0  0  0  0  0  0  0  0  0
  -20.6725   -6.9959   22.7946 F   0  0  0  0  0  0  0  0  0  0  0  0
  -28.1946  -18.8751   21.0429 S   0  0  0  0  0  0  0  0  0  0  0  0
  1  2  1  0  0  0  0
  1  5  2  0  0  0  0
  2  6  2  0  0  0  0
  3  8  2  0  0  0  0
  3 15  1  0  0  0  0
  4  9  1  0  0  0  0
  4 15  2  0  0  0  0
  5 17  1  0  0  0  0
  6 19  1  0  0  0  0
  7 10  2  0  0  0  0
  7 18  1  0  0  0  0
  8 23  1  0  0  0  0
  9 23  2  0  0  0  0
 10 24  1  0  0  0  0
 11 12  2  0  0  0  0
 11 25  1  0  0  0  0
 12 26  1  0  0  0  0
 13 20  1  0  0  0  0
 13 24  2  0  0  0  0
 14 26  2  0  0  0  0
 14 27  1  0  0  0  0
 15 28  1  0  0  0  0
 16 28  1  0  0  0  0
 16 29  2  0  0  0  0
 16 32  1  0  0  0  0
 17 19  2  0  0  0  0
 17 40  1  0  0  0  0
 18 20  2  0  0  0  0
 18 41  1  0  0  0  0
 19 49  1  0  0  0  0
 20 42  1  0  0  0  0
 21 22  1  0  0  0  0
 21 30  2  0  0  0  0
 21 52  1  0  0  0  0
 22 31  2  0  0  0  0
 22 53  1  0  0  0  0
 23 82  1  0  0  0  0
 24 83  1  0  0  0  0
 25 27  2  0  0  0  0
 25 82  1  0  0  0  0
 26 84  1  0  0  0  0
 27 85  1  0  0  0  0
 28 64  2  0  0  0  0
 29 65  1  0  0  0  0
 29 68  1  0  0  0  0
 30 70  1  0  0  0  0
 30 86  1  0  0  0  0
 31 71  1  0  0  0  0
 31 86  1  0  0  0  0
 32 69  1  0  0  0  0
 32 75  2  0  0  0  0
 33 34  2  0  0  0  0
 33 35  1  0  0  0  0
 33 54  1  0  0  0  0
 34 60  1  0  0  0  0
 34 81  1  0  0  0  0
 35 70  1  0  0  0  0
 35 76  2  0  0  0  0
 36 50  1  0  0  0  0
 36 72  1  0  0  0  0
 36 77  2  0  0  0  0
 37 61  1  0  0  0  0
 37 66  1  0  0  0  0
 37 78  2  0  0  0  0
 38 62  1  0  0  0  0
 38 73  1  0  0  0  0
 38 79  2  0  0  0  0
 39 67  1  0  0  0  0
 39 71  1  0  0  0  0
 39 80  2  0  0  0  0
 40 43  1  0  0  0  0
 41 50  1  0  0  0  0
 42 66  1  0  0  0  0
 43 45  1  0  0  0  0
 44 46  1  0  0  0  0
 44 47  1  0  0  0  0
 45 49  1  0  0  0  0
 46 51  1  0  0  0  0
 47 67  1  0  0  0  0
 48 51  1  0  0  0  0
 48 67  1  0  0  0  0
 49 72  1  0  0  0  0
 50 66  1  0  0  0  0
 51 65  1  0  0  0  0
 55 62  1  0  0  0  0
 56 63  1  0  0  0  0
 57 63  1  0  0  0  0
 58 63  1  0  0  0  0
 59 74  1  0  0  0  0
 60 83  1  0  0  0  0
 61 63  1  0  0  0  0
 61 73  1  0  0  0  0
 62 74  1  0  0  0  0
 64 65  1  0  0  0  0
M  CHG  1  74   1
M  ISO  4  39 100  60 101  71 100  83 101
M  END
> <Batch ID>
0177

> <Smiles>
CNC(C)C(=O)NC(C(=O)N1Cc2cc([101O:1][101CH2:1]C(=O)C(C)C(=O)Nc3sc([100NH:0][100C:0](=O)N4CCCC(n5nc(-c6ccc(Oc7ccc(F)cc7F)cc6)c(C(N)=O)c5N)C4)c(C)c3C)ccc2CC1C(=O)NC1CCCc2ccccc21)C(C)(C)C

> <Shape>
0.311

> <Color>
0.080

> <Negative vol penalty>
0.000

$$$$

  -OEChem-04052304413D

 90 98  0     1  0  0  0  0  0999 V2000
  -20.4012   -8.8586   18.6907 C   0  0  0  0  0  0  0  0  0  0  0  0
  -20.3300  -10.2091   19.0171 C   0  0  0  0  0  0  0  0  0  0  0  0
  -28.6684  -26.2866   19.8494 C   0  0  0  0  0  0  0  0  0  0  0  0
  -26.6071  -25.5036   18.8620 C   0  0  0  0  0  0  0  0  0  0  0  0
  -21.3494   -8.0429   19.3066 C   0  0  0  0  0  0  0  0  0  0  0  0
  -21.2063  -10.7444   19.9604 C   0  0  0  0  0  0  0  0  0  0  0  0
  -23.1792  -15.1699   18.4879 C   0  0  0  0  0  0  0  0  0  0  0  0
  -29.2520  -25.0408   19.6190 C   0  0  0  0  0  0  0  0  0  0  0  0
  -27.1906  -24.2578   18.6315 C   0  0  0  0  0  0  0  0  0  0  0  0
  -22.3706  -16.2992   18.6088 C   0  0  0  0  0  0  0  0  0  0  0  0
  -28.0226  -20.7586   18.1090 C   0  0  0  0  0  0  0  0  0  0  0  0
  -27.2761  -19.6241   18.4270 C   0  0  0  0  0  0  0  0  0  0  0  0
  -23.5125  -16.8908   20.6497 C   0  0  0  0  0  0  0  0  0  0  0  0
  -27.1674  -20.3416   20.7314 C   0  0  0  0  0  0  0  0  0  0  0  0
  -18.7608  -29.3404   23.4732 C   0  0  0  0  0  0  0  0  0  0  0  0
  -27.3459  -26.5180   19.4710 C   0  0  0  0  0  0  0  0  0  0  0  0
  -26.7357  -28.9140   18.8428 C   0  0  0  0  0  0  0  0  0  0  0  0
  -22.2442   -8.5705   20.2509 C   0  0  0  0  0  0  0  0  0  0  0  0
  -24.1548  -14.8862   19.4544 C   0  0  0  0  0  0  0  0  0  0  0  0
  -22.1665   -9.9347   20.5905 C   0  0  0  0  0  0  0  0  0  0  0  0
  -24.3339  -15.7587   20.5374 C   0  0  0  0  0  0  0  0  0  0  0  0
  -28.5131  -24.0264   19.0100 C   0  0  0  0  0  0  0  0  0  0  0  0
  -22.5353  -17.1583   19.6914 C   0  0  0  0  0  0  0  0  0  0  0  0
  -28.3417  -21.6846   19.1022 C   0  0  0  0  0  0  0  0  0  0  0  0
  -26.8484  -19.4156   19.7382 C   0  0  0  0  0  0  0  0  0  0  0  0
  -27.9140  -21.4761   20.4134 C   0  0  0  0  0  0  0  0  0  0  0  0
  -26.7423  -27.8044   19.7092 C   0  0  0  0  0  0  0  0  0  0  0  0
  -17.5846  -28.9098   22.8305 C   0  0  0  0  0  0  0  0  0  0  0  0
  -19.7775  -28.8830   22.6710 C   0  0  0  0  0  0  0  0  0  0  0  0
  -26.0398  -29.8801   19.5274 C   0  0  0  0  0  0  0  0  0  0  0  0
  -27.3075  -29.0583   17.5359 C   0  0  0  0  0  0  0  0  0  0  0  0
  -24.6652  -12.5024   21.4942 C   0  0  0  0  0  0  0  0  0  0  0  0
  -20.4478  -26.1974   20.8445 C   0  0  0  0  0  0  0  0  0  0  0  0
  -27.4221  -14.1092   22.0772 C   0  0  0  0  0  0  0  0  0  0  0  0
  -21.6538  -23.1942   19.9808 C   0  0  0  0  0  0  0  0  0  0  0  0
  -29.1166  -17.0710   22.0211 C   0  0  0  0  0  0  0  0  0  0  0  0
  -21.8855  -29.6518   23.8163 C   0  0  0  0  0  0  0  0  0  0  0  0
  -23.2208   -7.6396   20.9249 C   0  0  0  0  0  0  0  0  0  0  0  0
  -25.0370  -13.6784   19.2953 C   0  0  0  0  0  0  0  0  0  0  0  0
  -25.3806  -15.5099   21.5914 C   0  0  0  0  0  0  0  0  0  0  0  0
  -24.3596   -8.3639   21.6382 C   0  0  0  0  0  0  0  0  0  0  0  0
  -25.0276  -31.3182   23.9818 C   0  0  0  0  0  0  0  0  0  0  0  0
  -23.8171   -9.5187   22.4742 C   0  0  0  0  0  0  0  0  0  0  0  0
  -25.8212  -30.7116   22.8223 C   0  0  0  0  0  0  0  0  0  0  0  0
  -24.1356  -30.2814   24.6623 C   0  0  0  0  0  0  0  0  0  0  0  0
  -24.0363  -28.9362   22.6008 C   0  0  0  0  0  0  0  0  0  0  0  0
  -23.1161  -10.5577   21.5907 C   0  0  1  0  0  0  0  0  0  0  0  0
  -25.6526  -13.2107   20.6105 C   0  0  1  0  0  0  0  0  0  0  0  0
  -24.9005  -29.9572   21.8430 C   0  0  2  0  0  0  0  0  0  0  0  0
  -15.8026  -30.6247   23.3180 C   0  0  0  0  0  0  0  0  0  0  0  0
  -15.8735  -28.4728   24.6292 C   0  0  0  0  0  0  0  0  0  0  0  0
  -31.0583  -18.6471   22.2294 C   0  0  0  0  0  0  0  0  0  0  0  0
  -26.6804  -14.0563   25.0365 C   0  0  0  0  0  0  0  0  0  0  0  0
  -28.3863  -15.8473   25.4245 C   0  0  0  0  0  0  0  0  0  0  0  0
  -29.0957  -13.6181   24.5583 C   0  0  0  0  0  0  0  0  0  0  0  0
  -23.1302  -24.4307   21.5857 C   0  0  0  0  0  0  0  0  0  0  0  0
  -29.9376  -16.6144   19.2146 C   0  0  0  0  0  0  0  0  0  0  0  0
  -19.8466  -27.5439   20.4771 C   0  0  0  0  0  0  0  0  0  0  0  0
  -21.6545  -25.6964   20.0722 C   0  0  0  0  0  0  0  0  0  0  0  0
  -22.2451  -21.9152   20.5592 C   0  0  0  0  0  0  0  0  0  0  0  0
  -21.6731  -20.6572   19.9092 C   0  0  0  0  0  0  0  0  0  0  0  0
  -22.3121  -19.3946   20.4693 C   0  0  0  0  0  0  0  0  0  1  0  0
  -16.1943  -29.1283   23.2644 C   0  0  0  0  0  0  0  0  0  0  0  0
  -27.8427  -15.1986   23.0339 C   0  0  1  0  0  0  0  0  0  0  0  0
  -30.4990  -17.4311   21.5074 C   0  0  2  0  0  0  0  0  0  0  0  0
  -27.9802  -14.6840   24.4946 C   0  0  0  0  0  0  0  0  0  0  0  0
  -26.1016  -28.0425   20.8568 N   0  0  0  0  0  0  0  0  0  0  0  0
  -17.8300  -28.2312   21.7066 N   0  0  0  0  0  0  0  0  0  0  0  0
  -25.6860  -29.3128   20.7162 N   0  0  0  0  0  0  0  0  0  0  0  0
  -19.1721  -28.2319   21.6367 N   0  0  0  0  0  0  0  0  0  0  0  0
  -26.2142  -14.3123   21.3950 N   0  0  0  0  0  0  0  0  0  0  0  0
  -23.2886  -29.6103   23.6738 N   0  0  0  0  0  0  0  0  0  0  0  0
  -25.7022  -31.1511   19.2225 N   0  0  0  0  0  0  0  0  0  0  0  0
  -27.9890  -27.9668   16.9805 N   0  0  0  0  0  0  0  0  0  0  0  0
  -21.1832  -29.0068   22.7987 N   0  0  0  0  0  0  0  0  0  0  0  0
  -24.0910  -11.3869   20.9150 N   0  0  0  0  0  0  0  0  0  0  0  0
  -29.0662  -15.7736   22.4853 N   0  0  0  0  0  0  0  0  0  0  0  0
  -22.1269  -24.3935   20.5242 N   0  0  0  0  0  0  0  0  0  0  0  0
  -30.4471  -17.7331   20.0490 N   0  3  0  0  0  0  0  0  0  0  0  0
  -27.2308  -30.1290   16.8868 O   0  0  0  0  0  0  0  0  0  0  0  0
  -24.4419  -12.9350   22.6187 O   0  0  0  0  0  0  0  0  0  0  0  0
  -19.9834  -25.4999   21.7503 O   0  0  0  0  0  0  0  0  0  0  0  0
  -28.1424  -13.1180   21.9350 O   0  0  0  0  0  0  0  0  0  0  0  0
  -20.8074  -23.1424   19.0845 O   0  0  0  0  0  0  0  0  0  0  0  0
  -28.1766  -17.8628   22.0149 O   0  0  0  0  0  0  0  0  0  0  0  0
  -21.3458  -30.2412   24.7562 O   0  0  0  0  0  0  0  0  0  0  0  0
  -29.0823  -22.8108   18.7848 O   0  0  0  0  0  0  0  0  0  0  0  0
  -21.7469  -18.2609   19.8122 O   0  0  0  0  0  0  0  0  0  1  0  0
  -26.1301  -18.3269   20.0431 F   0  0  0  0  0  0  0  0  0  0  0  0
  -28.2164  -22.3627   21.3717 F   0  0  0  0  0  0  0  0  0  0  0  0
  1  2  1  0  0  0  0
  1  5  2  0  0  0  0
  2  6  2  0  0  0  0
  3  8  2  0  0  0  0
  3 16  1  0  0  0  0
  4  9  1  0  0  0  0
  4 16  2  0  0  0  0
  5 18  1  0  0  0  0
  6 20  1  0  0  0  0
  7 10  2  0  0  0  0
  7 19  1  0  0  0  0
  8 22  1  0  0  0  0
  9 22  2  0  0  0  0
 10 23  1  0  0  0  0
 11 12  2  0  0  0  0
 11 24  1  0  0  0  0
 12 25  1  0  0  0  0
 13 21  1  0  0  0  0
 13 23  2  0  0  0  0
 14 25  2  0  0  0  0
 14 26  1  0  0  0  0
 15 28  1  0  0  0  0
 15 29  2  0  0  0  0
 16 27  1  0  0  0  0
 17 27  1  0  0  0  0
 17 30  2  0  0  0  0
 17 31  1  0  0  0  0
 18 20  2  0  0  0  0
 18 38  1  0  0  0  0
 19 21  2  0  0  0  0
 19 39  1  0  0  0  0
 20 47  1  0  0  0  0
 21 40  1  0  0  0  0
 22 87  1  0  0  0  0
 23 88  1  0  0  0  0
 24 26  2  0  0  0  0
 24 87  1  0  0  0  0
 25 89  1  0  0  0  0
 26 90  1  0  0  0  0
 27 67  2  0  0  0  0
 28 63  1  0  0  0  0
 28 68  2  0  0  0  0
 29 70  1  0  0  0  0
 29 75  1  0  0  0  0
 30 69  1  0  0  0  0
 30 73  1  0  0  0  0
 31 74  1  0  0  0  0
 31 80  2  0  0  0  0
 32 48  1  0  0  0  0
 32 76  1  0  0  0  0
 32 81  2  0  0  0  0
 33 58  1  0  0  0  0
 33 59  1  0  0  0  0
 33 82  2  0  0  0  0
 34 64  1  0  0  0  0
 34 71  1  0  0  0  0
 34 83  2  0  0  0  0
 35 60  1  0  0  0  0
 35 78  1  0  0  0  0
 35 84  2  0  0  0  0
 36 65  1  0  0  0  0
 36 77  1  0  0  0  0
 36 85  2  0  0  0  0
 37 72  1  0  0  0  0
 37 75  1  0  0  0  0
 37 86  2  0  0  0  0
 38 41  1  0  0  0  0
 39 48  1  0  0  0  0
 40 71  1  0  0  0  0
 41 43  1  0  0  0  0
 42 44  1  0  0  0  0
 42 45  1  0  0  0  0
 43 47  1  0  0  0  0
 44 49  1  0  0  0  0
 45 72  1  0  0  0  0
 46 49  1  0  0  0  0
 46 72  1  0  0  0  0
 47 76  1  0  0  0  0
 48 71  1  0  0  0  0
 49 69  1  0  0  0  0
 50 63  1  0  0  0  0
 51 63  1  0  0  0  0
 52 65  1  0  0  0  0
 53 66  1  0  0  0  0
 54 66  1  0  0  0  0
 55 66  1  0  0  0  0
 56 78  1  0  0  0  0
 57 79  1  0  0  0  0
 58 70  1  0  0  0  0
 59 78  1  0  0  0  0
 60 61  1  0  0  0  0
 61 62  1  0  0  0  0
 62 88  1  0  0  0  0
 64 66  1  0  0  0  0
 64 77  1  0  0  0  0
 65 79  1  0  0  0  0
 67 69  1  0  0  0  0
 68 70  1  0  0  0  0
M  CHG  1  79   1
M  ISO  4  37 100  62 101  75 100  88 101
M  END
> <Batch ID>
0177

> <Smiles>
CNC(C)C(=O)NC(C(=O)N1Cc2cc([101O:1][101CH2:1]CCC(=O)N(C)CC(=O)Cn3nc(C(C)C)cc3[100NH:0][100C:0](=O)N3CCCC(n4nc(-c5ccc(Oc6ccc(F)cc6F)cc5)c(C(N)=O)c4N)C3)ccc2CC1C(=O)NC1CCCc2ccccc21)C(C)(C)C

> <Shape>
0.281

> <Color>
0.067

> <Negative vol penalty>
0.000

$$$$

  -OEChem-04052304413D

 85 93  0     1  0  0  0  0  0999 V2000
  -23.4171  -23.5640   21.4351 C   0  0  0  0  0  0  0  0  0  0  0  0
  -24.5436  -22.7532   21.5302 C   0  0  0  0  0  0  0  0  0  0  0  0
  -22.0637  -28.5691   21.0067 C   0  0  0  0  0  0  0  0  0  0  0  0
  -23.3433  -28.0440   22.9876 C   0  0  0  0  0  0  0  0  0  0  0  0
  -22.1676  -23.0649   21.8005 C   0  0  0  0  0  0  0  0  0  0  0  0
  -24.4214  -21.4432   21.9919 C   0  0  0  0  0  0  0  0  0  0  0  0
  -27.0361  -18.1407   19.1809 C   0  0  0  0  0  0  0  0  0  0  0  0
  -20.8811  -28.4212   21.7313 C   0  0  0  0  0  0  0  0  0  0  0  0
  -22.1606  -27.8961   23.7123 C   0  0  0  0  0  0  0  0  0  0  0  0
  -28.4133  -18.0779   19.3887 C   0  0  0  0  0  0  0  0  0  0  0  0
  -19.0647  -30.2352   23.9319 C   0  0  0  0  0  0  0  0  0  0  0  0
  -18.0761  -31.2048   23.7642 C   0  0  0  0  0  0  0  0  0  0  0  0
  -28.1115  -16.1120   20.7537 C   0  0  0  0  0  0  0  0  0  0  0  0
  -16.5450  -29.5082   22.9805 C   0  0  0  0  0  0  0  0  0  0  0  0
  -23.2948  -28.3805   21.6348 C   0  0  0  0  0  0  0  0  0  0  0  0
  -25.2672  -29.7112   20.7147 C   0  0  0  0  0  0  0  0  0  0  0  0
  -22.0286  -21.7450   22.2578 C   0  0  0  0  0  0  0  0  0  0  0  0
  -26.1838  -17.1945   19.7678 C   0  0  0  0  0  0  0  0  0  0  0  0
  -23.1691  -20.9264   22.3651 C   0  0  0  0  0  0  0  0  0  0  0  0
  -26.7241  -16.1635   20.5497 C   0  0  0  0  0  0  0  0  0  0  0  0
  -20.9295  -28.0847   23.0841 C   0  0  0  0  0  0  0  0  0  0  0  0
  -28.9509  -17.0651   20.1776 C   0  0  0  0  0  0  0  0  0  0  0  0
  -18.7934  -28.9021   23.6238 C   0  0  0  0  0  0  0  0  0  0  0  0
  -16.8162  -30.8413   23.2885 C   0  0  0  0  0  0  0  0  0  0  0  0
  -17.5336  -28.5386   23.1481 C   0  0  0  0  0  0  0  0  0  0  0  0
  -24.5168  -28.5326   20.8867 C   0  0  0  0  0  0  0  0  0  0  0  0
  -32.2421  -22.6082   21.7184 C   0  0  0  0  0  0  0  0  0  0  0  0
  -26.3282  -29.3312   19.9296 C   0  0  0  0  0  0  0  0  0  0  0  0
  -31.9207  -23.1554   22.9429 C   0  0  0  0  0  0  0  0  0  0  0  0
  -30.4405  -23.7090   21.1250 C   0  0  0  0  0  0  0  0  0  0  0  0
  -25.0266  -31.0314   21.2195 C   0  0  0  0  0  0  0  0  0  0  0  0
  -32.2280  -18.1251   21.2533 C   0  0  0  0  0  0  0  0  0  0  0  0
  -32.6992  -19.3882   21.9126 C   0  0  0  0  0  0  0  0  0  0  0  0
  -23.7979  -17.3199   21.8643 C   0  0  0  0  0  0  0  0  0  0  0  0
  -23.5135  -14.1707   21.1404 C   0  0  0  0  0  0  0  0  0  0  0  0
  -24.9876  -11.3204   19.9787 C   0  0  0  0  0  0  0  0  0  0  0  0
  -29.0823  -24.1035   19.0402 C   0  0  0  0  0  0  0  0  0  0  0  0
  -20.6644  -21.2650   22.6861 C   0  0  0  0  0  0  0  0  0  0  0  0
  -24.7031  -17.2605   19.5121 C   0  0  0  0  0  0  0  0  0  0  0  0
  -25.8541  -15.1113   21.1857 C   0  0  0  0  0  0  0  0  0  0  0  0
  -20.5643  -19.7468   22.8106 C   0  0  0  0  0  0  0  0  0  0  0  0
  -27.5463  -26.1495   16.5640 C   0  0  0  0  0  0  0  0  0  0  0  0
  -21.7625  -19.1937   23.5755 C   0  0  0  0  0  0  0  0  0  0  0  0
  -26.6680  -27.1041   17.3763 C   0  0  0  0  0  0  0  0  0  0  0  0
  -27.5751  -24.7487   17.1729 C   0  0  0  0  0  0  0  0  0  0  0  0
  -27.0612  -25.6516   19.4067 C   0  0  0  0  0  0  0  0  0  0  0  0
  -23.0734  -19.4920   22.8379 C   0  0  1  0  0  0  0  0  0  0  0  0
  -23.8799  -16.5456   20.5792 C   0  0  1  0  0  0  0  0  0  0  0  0
  -27.0529  -27.0918   18.8687 C   0  0  2  0  0  0  0  0  0  0  0  0
  -34.3689  -22.3052   20.3853 C   0  0  0  0  0  0  0  0  0  0  0  0
  -24.5130   -8.8959   19.5383 C   0  0  0  0  0  0  0  0  0  0  0  0
  -23.6878  -13.5957   24.1319 C   0  0  0  0  0  0  0  0  0  0  0  0
  -24.1639  -11.2020   23.5733 C   0  0  0  0  0  0  0  0  0  0  0  0
  -21.9912  -12.2288   22.9040 C   0  0  0  0  0  0  0  0  0  0  0  0
  -25.5512  -11.6154   17.0883 C   0  0  0  0  0  0  0  0  0  0  0  0
  -31.0125  -18.2351   20.3700 C   0  0  0  0  0  0  0  0  0  1  0  0
  -33.4215  -21.7068   21.4231 C   0  0  2  0  0  0  0  0  0  0  0  0
  -24.1036  -12.8915   21.6830 C   0  0  1  0  0  0  0  0  0  0  0  0
  -24.5345  -10.2987   18.9514 C   0  0  2  0  0  0  0  0  0  0  0  0
  -23.5031  -12.5003   23.0628 C   0  0  0  0  0  0  0  0  0  0  0  0
  -25.0554  -27.4825   20.2611 N   0  0  0  0  0  0  0  0  0  0  0  0
  -31.3942  -22.9243   20.6749 N   0  0  0  0  0  0  0  0  0  0  0  0
  -26.1554  -28.0001   19.6882 N   0  0  0  0  0  0  0  0  0  0  0  0
  -24.4120  -15.2224   20.9112 N   0  0  0  0  0  0  0  0  0  0  0  0
  -27.9515  -24.8151   18.5867 N   0  0  0  0  0  0  0  0  0  0  0  0
  -27.3828  -30.0093   19.4291 N   0  0  0  0  0  0  0  0  0  0  0  0
  -32.5741  -23.0094   24.1212 N   0  0  0  0  0  0  0  0  0  0  0  0
  -23.8898  -31.2476   22.0102 N   0  0  0  0  0  0  0  0  0  0  0  0
  -29.3615  -24.2685   20.3965 N   0  0  0  0  0  0  0  0  0  0  0  0
  -32.9866  -20.3911   21.0155 N   0  0  0  0  0  0  0  0  0  0  0  0
  -23.2475  -18.5800   21.7278 N   0  0  0  0  0  0  0  0  0  0  0  0
  -23.9194  -11.8841   20.6439 N   0  0  0  0  0  0  0  0  0  0  0  0
  -25.4520  -10.3029   17.7771 N   0  3  0  0  0  0  0  0  0  0  0  0
  -25.7882  -31.9946   20.9630 O   0  0  0  0  0  0  0  0  0  0  0  0
  -32.8711  -17.1069   21.4600 O   0  0  0  0  0  0  0  0  0  0  0  0
  -32.7503  -19.4085   23.1322 O   0  0  0  0  0  0  0  0  0  0  0  0
  -24.2025  -16.8111   22.9031 O   0  0  0  0  0  0  0  0  0  0  0  0
  -22.3012  -14.2321   20.9211 O   0  0  0  0  0  0  0  0  0  0  0  0
  -26.1709  -11.5886   20.1743 O   0  0  0  0  0  0  0  0  0  0  0  0
  -29.7694  -23.4213   18.2757 O   0  0  0  0  0  0  0  0  0  0  0  0
  -19.7757  -27.9405   23.7916 O   0  0  0  0  0  0  0  0  0  0  0  0
  -30.2947  -17.0018   20.3826 O   0  0  0  0  0  0  0  0  0  1  0  0
  -15.8665  -31.7723   23.1290 F   0  0  0  0  0  0  0  0  0  0  0  0
  -17.2668  -27.2592   22.8516 F   0  0  0  0  0  0  0  0  0  0  0  0
  -30.5022  -24.1076   22.7930 S   0  0  0  0  0  0  0  0  0  0  0  0
  1  2  1  0  0  0  0
  1  5  2  0  0  0  0
  2  6  2  0  0  0  0
  3  8  2  0  0  0  0
  3 15  1  0  0  0  0
  4  9  1  0  0  0  0
  4 15  2  0  0  0  0
  5 17  1  0  0  0  0
  6 19  1  0  0  0  0
  7 10  2  0  0  0  0
  7 18  1  0  0  0  0
  8 21  1  0  0  0  0
  9 21  2  0  0  0  0
 10 22  1  0  0  0  0
 11 12  2  0  0  0  0
 11 23  1  0  0  0  0
 12 24  1  0  0  0  0
 13 20  1  0  0  0  0
 13 22  2  0  0  0  0
 14 24  2  0  0  0  0
 14 25  1  0  0  0  0
 15 26  1  0  0  0  0
 16 26  1  0  0  0  0
 16 28  2  0  0  0  0
 16 31  1  0  0  0  0
 17 19  2  0  0  0  0
 17 38  1  0  0  0  0
 18 20  2  0  0  0  0
 18 39  1  0  0  0  0
 19 47  1  0  0  0  0
 20 40  1  0  0  0  0
 21 81  1  0  0  0  0
 22 82  1  0  0  0  0
 23 25  2  0  0  0  0
 23 81  1  0  0  0  0
 24 83  1  0  0  0  0
 25 84  1  0  0  0  0
 26 61  2  0  0  0  0
 27 29  2  0  0  0  0
 27 57  1  0  0  0  0
 27 62  1  0  0  0  0
 28 63  1  0  0  0  0
 28 66  1  0  0  0  0
 29 67  1  0  0  0  0
 29 85  1  0  0  0  0
 30 62  2  0  0  0  0
 30 69  1  0  0  0  0
 30 85  1  0  0  0  0
 31 68  1  0  0  0  0
 31 74  2  0  0  0  0
 32 33  1  0  0  0  0
 32 56  1  0  0  0  0
 32 75  2  0  0  0  0
 33 70  1  0  0  0  0
 33 76  2  0  0  0  0
 34 48  1  0  0  0  0
 34 71  1  0  0  0  0
 34 77  2  0  0  0  0
 35 58  1  0  0  0  0
 35 64  1  0  0  0  0
 35 78  2  0  0  0  0
 36 59  1  0  0  0  0
 36 72  1  0  0  0  0
 36 79  2  0  0  0  0
 37 65  1  0  0  0  0
 37 69  1  0  0  0  0
 37 80  2  0  0  0  0
 38 41  1  0  0  0  0
 39 48  1  0  0  0  0
 40 64  1  0  0  0  0
 41 43  1  0  0  0  0
 42 44  1  0  0  0  0
 42 45  1  0  0  0  0
 43 47  1  0  0  0  0
 44 49  1  0  0  0  0
 45 65  1  0  0  0  0
 46 49  1  0  0  0  0
 46 65  1  0  0  0  0
 47 71  1  0  0  0  0
 48 64  1  0  0  0  0
 49 63  1  0  0  0  0
 50 57  1  0  0  0  0
 51 59  1  0  0  0  0
 52 60  1  0  0  0  0
 53 60  1  0  0  0  0
 54 60  1  0  0  0  0
 55 73  1  0  0  0  0
 56 82  1  0  0  0  0
 57 70  1  0  0  0  0
 58 60  1  0  0  0  0
 58 72  1  0  0  0  0
 59 73  1  0  0  0  0
 61 63  1  0  0  0  0
M  CHG  1  73   1
M  ISO  4  37 100  56 101  69 100  82 101
M  END
> <Batch ID>
0177

> <Smiles>
CNC(C)C(=O)NC(C(=O)N1Cc2cc([101O:1][101CH2:1]C(=O)C(=O)NC(C)c3nc([100NH:0][100C:0](=O)N4CCCC(n5nc(-c6ccc(Oc7ccc(F)cc7F)cc6)c(C(N)=O)c5N)C4)sc3N)ccc2CC1C(=O)NC1CCCc2ccccc21)C(C)(C)C

> <Shape>
0.227

> <Color>
0.070

> <Negative vol penalty>
0.000

$$$$

  -OEChem-04052304413D

 86 94  0     1  0  0  0  0  0999 V2000
  -44.1563  -20.2925   24.8191 C   0  0  0  0  0  0  0  0  0  0  0  0
  -42.9978  -20.2518   24.0498 C   0  0  0  0  0  0  0  0  0  0  0  0
  -23.0002   -9.8920   19.9820 C   0  0  0  0  0  0  0  0  0  0  0  0
  -23.7259   -9.9451   22.2858 C   0  0  0  0  0  0  0  0  0  0  0  0
  -44.0723  -20.2102   26.2084 C   0  0  0  0  0  0  0  0  0  0  0  0
  -41.7548  -20.1276   24.6694 C   0  0  0  0  0  0  0  0  0  0  0  0
  -38.2996  -23.2894   22.7434 C   0  0  0  0  0  0  0  0  0  0  0  0
  -22.2343   -8.7573   20.2495 C   0  0  0  0  0  0  0  0  0  0  0  0
  -22.9600   -8.8105   22.5533 C   0  0  0  0  0  0  0  0  0  0  0  0
  -37.7202  -22.9344   21.5260 C   0  0  0  0  0  0  0  0  0  0  0  0
  -23.2058   -5.4713   22.0840 C   0  0  0  0  0  0  0  0  0  0  0  0
  -23.7940   -4.4550   22.8367 C   0  0  0  0  0  0  0  0  0  0  0  0
  -35.7771  -22.1143   22.6968 C   0  0  0  0  0  0  0  0  0  0  0  0
  -22.0704   -4.6984   24.5122 C   0  0  0  0  0  0  0  0  0  0  0  0
  -30.3041  -18.9145   23.0361 C   0  0  0  0  0  0  0  0  0  0  0  0
  -23.7461  -10.4859   21.0002 C   0  0  0  0  0  0  0  0  0  0  0  0
  -24.1301  -13.0015   20.8221 C   0  0  0  0  0  0  0  0  0  0  0  0
  -42.8270  -20.0946   26.8458 C   0  0  0  0  0  0  0  0  0  0  0  0
  -37.6256  -23.0491   23.9493 C   0  0  0  0  0  0  0  0  0  0  0  0
  -41.6542  -20.0423   26.0684 C   0  0  0  0  0  0  0  0  0  0  0  0
  -36.3490  -22.4695   23.9280 C   0  0  0  0  0  0  0  0  0  0  0  0
  -22.2141   -8.2166   21.5351 C   0  0  0  0  0  0  0  0  0  0  0  0
  -36.4600  -22.3442   21.5027 C   0  0  0  0  0  0  0  0  0  0  0  0
  -22.0499   -6.1012   22.5454 C   0  0  0  0  0  0  0  0  0  0  0  0
  -23.2263   -4.0685   24.0508 C   0  0  0  0  0  0  0  0  0  0  0  0
  -21.4822   -5.7148   23.7594 C   0  0  0  0  0  0  0  0  0  0  0  0
  -29.7680  -17.6988   22.6633 C   0  0  0  0  0  0  0  0  0  0  0  0
  -24.5379  -11.6576   20.7245 C   0  0  0  0  0  0  0  0  0  0  0  0
  -30.5804  -16.9025   21.8822 C   0  0  0  0  0  0  0  0  0  0  0  0
  -25.2394  -13.7243   20.4569 C   0  0  0  0  0  0  0  0  0  0  0  0
  -32.2312  -18.4648   21.9176 C   0  0  0  0  0  0  0  0  0  0  0  0
  -22.8620  -13.5476   21.2085 C   0  0  0  0  0  0  0  0  0  0  0  0
  -35.6900  -18.9161   20.5059 C   0  0  0  0  0  0  0  0  0  0  0  0
  -34.4186  -18.1554   20.7506 C   0  0  0  0  0  0  0  0  0  0  0  0
  -38.2077  -21.2908   26.5326 C   0  0  0  0  0  0  0  0  0  0  0  0
  -35.5424  -22.7599   27.6554 C   0  0  0  0  0  0  0  0  0  0  0  0
  -32.6109  -24.3653   26.9661 C   0  0  0  0  0  0  0  0  0  0  0  0
  -30.7185  -14.6883   20.6887 C   0  0  0  0  0  0  0  0  0  0  0  0
  -42.7898  -19.9613   28.3477 C   0  0  0  0  0  0  0  0  0  0  0  0
  -38.2528  -23.4623   25.2525 C   0  0  0  0  0  0  0  0  0  0  0  0
  -35.5751  -22.2088   25.1935 C   0  0  0  0  0  0  0  0  0  0  0  0
  -41.4078  -20.2083   28.9471 C   0  0  0  0  0  0  0  0  0  0  0  0
  -29.6008  -12.2330   18.3650 C   0  0  0  0  0  0  0  0  0  0  0  0
  -40.3417  -19.4526   28.1601 C   0  0  0  0  0  0  0  0  0  0  0  0
  -28.1504  -11.9750   18.7797 C   0  0  0  0  0  0  0  0  0  0  0  0
  -30.5015  -12.4778   19.5743 C   0  0  0  0  0  0  0  0  0  0  0  0
  -28.5861  -13.2668   20.9077 C   0  0  0  0  0  0  0  0  0  0  0  0
  -40.2857  -19.9332   26.7050 C   0  0  1  0  0  0  0  0  0  0  0  0
  -37.6958  -22.7012   26.4516 C   0  0  1  0  0  0  0  0  0  0  0  0
  -27.6282  -13.0790   19.7199 C   0  0  2  0  0  0  0  0  0  0  0  0
  -30.6281  -25.4149   28.0905 C   0  0  0  0  0  0  0  0  0  0  0  0
  -36.9494  -21.7116   18.1837 C   0  0  0  0  0  0  0  0  0  0  0  0
  -34.4208  -19.9875   28.2600 C   0  0  0  0  0  0  0  0  0  0  0  0
  -32.1528  -21.0271   28.4694 C   0  0  0  0  0  0  0  0  0  0  0  0
  -33.9800  -21.6997   30.0288 C   0  0  0  0  0  0  0  0  0  0  0  0
  -33.1976  -27.0149   25.7853 C   0  0  0  0  0  0  0  0  0  0  0  0
  -35.7050  -19.8295   19.2989 C   0  0  0  0  0  0  0  0  0  0  0  0
  -34.0627  -22.4630   27.6199 C   0  0  1  0  0  0  0  0  0  0  0  0
  -32.0141  -25.6506   27.5105 C   0  0  2  0  0  0  0  0  0  0  0  0
  -36.5976  -21.0523   19.5107 C   0  0  2  0  0  0  0  0  0  1  0  0
  -33.6692  -21.2973   28.5707 C   0  0  0  0  0  0  0  0  0  0  0  0
  -31.5369  -19.3311   22.6798 N   0  0  0  0  0  0  0  0  0  0  0  0
  -25.8071  -11.5314   20.3280 N   0  0  0  0  0  0  0  0  0  0  0  0
  -31.8219  -17.2554   21.4891 N   0  0  0  0  0  0  0  0  0  0  0  0
  -26.2064  -12.8053   20.1733 N   0  0  0  0  0  0  0  0  0  0  0  0
  -36.2335  -22.6248   26.4429 N   0  0  0  0  0  0  0  0  0  0  0  0
  -29.9462  -13.5392   20.4169 N   0  0  0  0  0  0  0  0  0  0  0  0
  -25.4722  -15.0501   20.3537 N   0  0  0  0  0  0  0  0  0  0  0  0
  -21.8307  -12.6632   21.5530 N   0  0  0  0  0  0  0  0  0  0  0  0
  -30.0739  -15.6438   21.4736 N   0  0  0  0  0  0  0  0  0  0  0  0
  -33.5286  -18.8681   21.5248 N   0  0  0  0  0  0  0  0  0  0  0  0
  -39.5837  -21.1957   26.6165 N   0  0  0  0  0  0  0  0  0  0  0  0
  -33.3865  -23.7232   27.9080 N   0  0  0  0  0  0  0  0  0  0  0  0
  -31.9038  -26.6695   26.4286 N   0  3  0  0  0  0  0  0  0  0  0  0
  -22.6447  -14.7828   21.2314 O   0  0  0  0  0  0  0  0  0  0  0  0
  -36.6046  -18.7463   21.2978 O   0  0  0  0  0  0  0  0  0  0  0  0
  -34.3316  -17.0557   20.2297 O   0  0  0  0  0  0  0  0  0  0  0  0
  -37.4130  -20.3580   26.5214 O   0  0  0  0  0  0  0  0  0  0  0  0
  -36.0645  -23.1060   28.7180 O   0  0  0  0  0  0  0  0  0  0  0  0
  -32.4062  -23.9686   25.8210 O   0  0  0  0  0  0  0  0  0  0  0  0
  -31.8570  -14.8274   20.2342 O   0  0  0  0  0  0  0  0  0  0  0  0
  -21.4667   -7.1096   21.7965 O   0  0  0  0  0  0  0  0  0  0  0  0
  -35.8925  -21.9961   20.3158 O   0  0  0  0  0  0  0  0  0  1  0  0
  -23.7904   -3.0914   24.7729 F   0  0  0  0  0  0  0  0  0  0  0  0
  -20.3712   -6.3154   24.2073 F   0  0  0  0  0  0  0  0  0  0  0  0
  -28.5398  -17.3297   23.0419 F   0  0  0  0  0  0  0  0  0  0  0  0
  1  2  1  0  0  0  0
  1  5  2  0  0  0  0
  2  6  2  0  0  0  0
  3  8  2  0  0  0  0
  3 16  1  0  0  0  0
  4  9  1  0  0  0  0
  4 16  2  0  0  0  0
  5 18  1  0  0  0  0
  6 20  1  0  0  0  0
  7 10  2  0  0  0  0
  7 19  1  0  0  0  0
  8 22  1  0  0  0  0
  9 22  2  0  0  0  0
 10 23  1  0  0  0  0
 11 12  2  0  0  0  0
 11 24  1  0  0  0  0
 12 25  1  0  0  0  0
 13 21  1  0  0  0  0
 13 23  2  0  0  0  0
 14 25  2  0  0  0  0
 14 26  1  0  0  0  0
 15 27  1  0  0  0  0
 15 62  2  0  0  0  0
 16 28  1  0  0  0  0
 17 28  1  0  0  0  0
 17 30  2  0  0  0  0
 17 32  1  0  0  0  0
 18 20  2  0  0  0  0
 18 39  1  0  0  0  0
 19 21  2  0  0  0  0
 19 40  1  0  0  0  0
 20 48  1  0  0  0  0
 21 41  1  0  0  0  0
 22 82  1  0  0  0  0
 23 83  1  0  0  0  0
 24 26  2  0  0  0  0
 24 82  1  0  0  0  0
 25 84  1  0  0  0  0
 26 85  1  0  0  0  0
 27 29  2  0  0  0  0
 27 86  1  0  0  0  0
 28 63  2  0  0  0  0
 29 64  1  0  0  0  0
 29 70  1  0  0  0  0
 30 65  1  0  0  0  0
 30 68  1  0  0  0  0
 31 62  1  0  0  0  0
 31 64  2  0  0  0  0
 31 71  1  0  0  0  0
 32 69  1  0  0  0  0
 32 75  2  0  0  0  0
 33 34  1  0  0  0  0
 33 57  1  0  0  0  0
 33 76  2  0  0  0  0
 34 71  1  0  0  0  0
 34 77  2  0  0  0  0
 35 49  1  0  0  0  0
 35 72  1  0  0  0  0
 35 78  2  0  0  0  0
 36 58  1  0  0  0  0
 36 66  1  0  0  0  0
 36 79  2  0  0  0  0
 37 59  1  0  0  0  0
 37 73  1  0  0  0  0
 37 80  2  0  0  0  0
 38 67  1  0  0  0  0
 38 70  1  0  0  0  0
 38 81  2  0  0  0  0
 39 42  1  0  0  0  0
 40 49  1  0  0  0  0
 41 66  1  0  0  0  0
 42 44  1  0  0  0  0
 43 45  1  0  0  0  0
 43 46  1  0  0  0  0
 44 48  1  0  0  0  0
 45 50  1  0  0  0  0
 46 67  1  0  0  0  0
 47 50  1  0  0  0  0
 47 67  1  0  0  0  0
 48 72  1  0  0  0  0
 49 66  1  0  0  0  0
 50 65  1  0  0  0  0
 51 59  1  0  0  0  0
 52 60  1  0  0  0  0
 53 61  1  0  0  0  0
 54 61  1  0  0  0  0
 55 61  1  0  0  0  0
 56 74  1  0  0  0  0
 57 60  1  0  0  0  0
 58 61  1  0  0  0  0
 58 73  1  0  0  0  0
 59 74  1  0  0  0  0
 60 83  1  0  0  0  0
 63 65  1  0  0  0  0
M  CHG  1  74   1
M  ISO  4  38 100  60 101  70 100  83 101
M  END
> <Batch ID>
0177

> <Smiles>
CNC(C)C(=O)NC(C(=O)N1Cc2cc([101O:1][101CH:1](C)CC(=O)C(=O)Nc3ncc(F)c([100NH:0][100C:0](=O)N4CCCC(n5nc(-c6ccc(Oc7ccc(F)cc7F)cc6)c(C(N)=O)c5N)C4)n3)ccc2CC1C(=O)NC1CCCc2ccccc21)C(C)(C)C

> <Shape>
0.175

> <Color>
0.186

> <Negative vol penalty>
0.000

$$$$

  -OEChem-04052304413D

 87 95  0     1  0  0  0  0  0999 V2000
  -33.5609  -32.8681   16.5272 C   0  0  0  0  0  0  0  0  0  0  0  0
  -32.6562  -31.8138   16.5999 C   0  0  0  0  0  0  0  0  0  0  0  0
  -24.4387   -8.8842   20.5766 C   0  0  0  0  0  0  0  0  0  0  0  0
  -22.7711  -10.5993   20.9151 C   0  0  0  0  0  0  0  0  0  0  0  0
  -33.8115  -33.6490   17.6548 C   0  0  0  0  0  0  0  0  0  0  0  0
  -32.0025  -31.5390   17.8005 C   0  0  0  0  0  0  0  0  0  0  0  0
  -26.2840  -29.4567   18.4859 C   0  0  0  0  0  0  0  0  0  0  0  0
  -23.5169   -7.9116   20.9637 C   0  0  0  0  0  0  0  0  0  0  0  0
  -21.8492   -9.6267   21.3021 C   0  0  0  0  0  0  0  0  0  0  0  0
  -25.7715  -28.1801   18.7125 C   0  0  0  0  0  0  0  0  0  0  0  0
  -22.2233   -6.7138   23.8475 C   0  0  0  0  0  0  0  0  0  0  0  0
  -22.6557   -5.7292   24.7359 C   0  0  0  0  0  0  0  0  0  0  0  0
  -25.6946  -28.6378   21.0798 C   0  0  0  0  0  0  0  0  0  0  0  0
  -22.1428   -4.0274   23.0994 C   0  0  0  0  0  0  0  0  0  0  0  0
  -24.0658  -10.2282   20.5524 C   0  0  0  0  0  0  0  0  0  0  0  0
  -25.2491  -11.7157   18.8510 C   0  0  0  0  0  0  0  0  0  0  0  0
  -33.1533  -33.3897   18.8672 C   0  0  0  0  0  0  0  0  0  0  0  0
  -26.5163  -30.3310   19.5574 C   0  0  0  0  0  0  0  0  0  0  0  0
  -32.2455  -32.3163   18.9457 C   0  0  0  0  0  0  0  0  0  0  0  0
  -26.2077  -29.9259   20.8638 C   0  0  0  0  0  0  0  0  0  0  0  0
  -22.2222   -8.2828   21.3264 C   0  0  0  0  0  0  0  0  0  0  0  0
  -25.4794  -27.7694   20.0099 C   0  0  0  0  0  0  0  0  0  0  0  0
  -21.7505   -6.3552   22.5851 C   0  0  0  0  0  0  0  0  0  0  0  0
  -22.6155   -4.3860   24.3619 C   0  0  0  0  0  0  0  0  0  0  0  0
  -21.7103   -5.0120   22.2111 C   0  0  0  0  0  0  0  0  0  0  0  0
  -25.0177  -11.2334   20.1532 C   0  0  0  0  0  0  0  0  0  0  0  0
  -29.0347  -20.6022   19.2791 C   0  0  0  0  0  0  0  0  0  0  0  0
  -28.1381  -20.4428   18.2434 C   0  0  0  0  0  0  0  0  0  0  0  0
  -26.2421  -12.6523   19.0032 C   0  0  0  0  0  0  0  0  0  0  0  0
  -28.1998  -18.6597   19.8618 C   0  0  0  0  0  0  0  0  0  0  0  0
  -24.6224  -11.3497   17.6145 C   0  0  0  0  0  0  0  0  0  0  0  0
  -25.7186  -22.9271   19.2275 C   0  0  0  0  0  0  0  0  0  0  0  0
  -25.3709  -24.1644   20.0294 C   0  0  0  0  0  0  0  0  0  0  0  0
  -29.0844  -31.7548   20.7745 C   0  0  0  0  0  0  0  0  0  0  0  0
  -26.3796  -21.7922   17.0599 C   0  0  0  0  0  0  0  0  0  0  0  0
  -26.8926  -33.2374   22.6508 C   0  0  0  0  0  0  0  0  0  0  0  0
  -23.7881  -33.1938   24.0675 C   0  0  0  0  0  0  0  0  0  0  0  0
  -28.4941  -16.9685   21.7055 C   0  0  0  0  0  0  0  0  0  0  0  0
  -33.4922  -34.2316   20.0718 C   0  0  0  0  0  0  0  0  0  0  0  0
  -27.0445  -31.7144   19.2936 C   0  0  0  0  0  0  0  0  0  0  0  0
  -26.4198  -30.8339   22.0466 C   0  0  0  0  0  0  0  0  0  0  0  0
  -32.4778  -34.1086   21.2058 C   0  0  0  0  0  0  0  0  0  0  0  0
  -29.1843  -13.7171   22.9820 C   0  0  0  0  0  0  0  0  0  0  0  0
  -32.1374  -32.6438   21.4610 C   0  0  0  0  0  0  0  0  0  0  0  0
  -28.1809  -12.8208   22.2528 C   0  0  0  0  0  0  0  0  0  0  0  0
  -28.5853  -15.0813   23.3196 C   0  0  0  0  0  0  0  0  0  0  0  0
  -26.9864  -14.8998   21.4543 C   0  0  0  0  0  0  0  0  0  0  0  0
  -31.4981  -32.0023   20.2235 C   0  0  1  0  0  0  0  0  0  0  0  0
  -27.7245  -32.3363   20.5094 C   0  0  1  0  0  0  0  0  0  0  0  0
  -27.5649  -13.5383   21.0357 C   0  0  2  0  0  0  0  0  0  0  0  0
  -29.9417  -21.7515   19.4750 C   0  0  0  0  0  0  0  0  0  0  0  0
  -22.2948  -34.5264   25.5814 C   0  0  0  0  0  0  0  0  0  0  0  0
  -28.5152  -32.3109   25.0629 C   0  0  0  0  0  0  0  0  0  0  0  0
  -26.5332  -32.8220   26.5047 C   0  0  0  0  0  0  0  0  0  0  0  0
  -27.6477  -34.6509   25.2257 C   0  0  0  0  0  0  0  0  0  0  0  0
  -21.7410  -33.5176   21.9548 C   0  0  0  0  0  0  0  0  0  0  0  0
  -26.0479  -23.0922   17.7668 C   0  0  0  0  0  0  0  0  0  0  0  0
  -25.3648  -25.4957   19.3222 C   0  0  0  0  0  0  0  0  0  1  0  0
  -27.8350  -21.3455   17.0708 C   0  0  2  0  0  0  0  0  0  0  0  0
  -26.2549  -32.9428   23.9870 C   0  0  1  0  0  0  0  0  0  0  0  0
  -22.6999  -34.2497   24.1419 C   0  0  2  0  0  0  0  0  0  0  0  0
  -27.2354  -33.1636   25.1732 C   0  0  0  0  0  0  0  0  0  0  0  0
  -25.8008  -11.8155   21.0654 N   0  0  0  0  0  0  0  0  0  0  0  0
  -29.0712  -19.5809   20.2083 N   0  0  0  0  0  0  0  0  0  0  0  0
  -26.5340  -12.6731   20.3353 N   0  0  0  0  0  0  0  0  0  0  0  0
  -26.9441  -32.1745   21.7378 N   0  0  0  0  0  0  0  0  0  0  0  0
  -28.0249  -15.7034   22.1180 N   0  0  0  0  0  0  0  0  0  0  0  0
  -26.8854  -13.4519   18.1261 N   0  0  0  0  0  0  0  0  0  0  0  0
  -23.6205  -10.3700   17.6375 N   0  0  0  0  0  0  0  0  0  0  0  0
  -27.9113  -17.4449   20.5316 N   0  0  0  0  0  0  0  0  0  0  0  0
  -30.1106  -32.3977   20.1090 N   0  0  0  0  0  0  0  0  0  0  0  0
  -25.0464  -33.7575   24.0511 N   0  0  0  0  0  0  0  0  0  0  0  0
  -28.1897  -20.7214   15.7562 N   0  3  0  0  0  0  0  0  0  0  0  0
  -21.4924  -33.8028   23.3914 N   0  3  0  0  0  0  0  0  0  0  0  0
  -24.9529  -11.8642   16.5192 O   0  0  0  0  0  0  0  0  0  0  0  0
  -25.7107  -21.8555   19.8194 O   0  0  0  0  0  0  0  0  0  0  0  0
  -25.1052  -24.0113   21.2147 O   0  0  0  0  0  0  0  0  0  0  0  0
  -29.1946  -30.7950   21.5283 O   0  0  0  0  0  0  0  0  0  0  0  0
  -25.4906  -21.1208   16.5335 O   0  0  0  0  0  0  0  0  0  0  0  0
  -27.3225  -34.3709   22.4227 O   0  0  0  0  0  0  0  0  0  0  0  0
  -23.5462  -31.9894   24.0317 O   0  0  0  0  0  0  0  0  0  0  0  0
  -29.3695  -17.5717   22.3315 O   0  0  0  0  0  0  0  0  0  0  0  0
  -21.3224   -7.3339   21.7039 O   0  0  0  0  0  0  0  0  0  0  0  0
  -24.9797  -26.5237   20.2340 O   0  0  0  0  0  0  0  0  0  1  0  0
  -23.0322   -3.4408   25.2145 F   0  0  0  0  0  0  0  0  0  0  0  0
  -21.2584   -4.6614   20.9992 F   0  0  0  0  0  0  0  0  0  0  0  0
  -27.3027  -18.9566   18.4292 S   0  0  0  0  0  0  0  0  0  0  0  0
  1  2  1  0  0  0  0
  1  5  2  0  0  0  0
  2  6  2  0  0  0  0
  3  8  2  0  0  0  0
  3 15  1  0  0  0  0
  4  9  1  0  0  0  0
  4 15  2  0  0  0  0
  5 17  1  0  0  0  0
  6 19  1  0  0  0  0
  7 10  2  0  0  0  0
  7 18  1  0  0  0  0
  8 21  1  0  0  0  0
  9 21  2  0  0  0  0
 10 22  1  0  0  0  0
 11 12  2  0  0  0  0
 11 23  1  0  0  0  0
 12 24  1  0  0  0  0
 13 20  1  0  0  0  0
 13 22  2  0  0  0  0
 14 24  2  0  0  0  0
 14 25  1  0  0  0  0
 15 26  1  0  0  0  0
 16 26  1  0  0  0  0
 16 29  2  0  0  0  0
 16 31  1  0  0  0  0
 17 19  2  0  0  0  0
 17 39  1  0  0  0  0
 18 20  2  0  0  0  0
 18 40  1  0  0  0  0
 19 48  1  0  0  0  0
 20 41  1  0  0  0  0
 21 83  1  0  0  0  0
 22 84  1  0  0  0  0
 23 25  2  0  0  0  0
 23 83  1  0  0  0  0
 24 85  1  0  0  0  0
 25 86  1  0  0  0  0
 26 63  2  0  0  0  0
 27 28  2  0  0  0  0
 27 51  1  0  0  0  0
 27 64  1  0  0  0  0
 28 59  1  0  0  0  0
 28 87  1  0  0  0  0
 29 65  1  0  0  0  0
 29 68  1  0  0  0  0
 30 64  2  0  0  0  0
 30 70  1  0  0  0  0
 30 87  1  0  0  0  0
 31 69  1  0  0  0  0
 31 75  2  0  0  0  0
 32 33  1  0  0  0  0
 32 57  1  0  0  0  0
 32 76  2  0  0  0  0
 33 58  1  0  0  0  0
 33 77  2  0  0  0  0
 34 49  1  0  0  0  0
 34 71  1  0  0  0  0
 34 78  2  0  0  0  0
 35 57  1  0  0  0  0
 35 59  1  0  0  0  0
 35 79  2  0  0  0  0
 36 60  1  0  0  0  0
 36 66  1  0  0  0  0
 36 80  2  0  0  0  0
 37 61  1  0  0  0  0
 37 72  1  0  0  0  0
 37 81  2  0  0  0  0
 38 67  1  0  0  0  0
 38 70  1  0  0  0  0
 38 82  2  0  0  0  0
 39 42  1  0  0  0  0
 40 49  1  0  0  0  0
 41 66  1  0  0  0  0
 42 44  1  0  0  0  0
 43 45  1  0  0  0  0
 43 46  1  0  0  0  0
 44 48  1  0  0  0  0
 45 50  1  0  0  0  0
 46 67  1  0  0  0  0
 47 50  1  0  0  0  0
 47 67  1  0  0  0  0
 48 71  1  0  0  0  0
 49 66  1  0  0  0  0
 50 65  1  0  0  0  0
 52 61  1  0  0  0  0
 53 62  1  0  0  0  0
 54 62  1  0  0  0  0
 55 62  1  0  0  0  0
 56 74  1  0  0  0  0
 58 84  1  0  0  0  0
 59 73  1  0  0  0  0
 60 62  1  0  0  0  0
 60 72  1  0  0  0  0
 61 74  1  0  0  0  0
 63 65  1  0  0  0  0
M  CHG  2  73   1  74   1
M  ISO  4  38 100  58 101  70 100  84 101
M  END
> <Batch ID>
0177

> <Smiles>
CNC(C)C(=O)NC(C(=O)N1Cc2cc([101O:1][101CH2:1]C(=O)C(=O)CC(=O)C(N)c3sc([100NH:0][100C:0](=O)N4CCCC(n5nc(-c6ccc(Oc7ccc(F)cc7F)cc6)c(C(N)=O)c5N)C4)nc3C)ccc2CC1C(=O)NC1CCCc2ccccc21)C(C)(C)C

> <Shape>
0.233

> <Color>
0.117

> <Negative vol penalty>
0.000

$$$$

  -OEChem-04052304413D

 84 92  0     1  0  0  0  0  0999 V2000
  -41.9378  -27.8384   21.9245 C   0  0  0  0  0  0  0  0  0  0  0  0
  -41.1176  -26.7188   21.8291 C   0  0  0  0  0  0  0  0  0  0  0  0
  -23.0752   -9.8660   19.9422 C   0  0  0  0  0  0  0  0  0  0  0  0
  -23.8350   -9.8755   22.2356 C   0  0  0  0  0  0  0  0  0  0  0  0
  -41.6924  -28.9514   21.1215 C   0  0  0  0  0  0  0  0  0  0  0  0
  -40.0507  -26.7120   20.9312 C   0  0  0  0  0  0  0  0  0  0  0  0
  -39.7344  -22.3827   18.3230 C   0  0  0  0  0  0  0  0  0  0  0  0
  -22.3316   -8.7129   20.1933 C   0  0  0  0  0  0  0  0  0  0  0  0
  -23.0915   -8.7224   22.4867 C   0  0  0  0  0  0  0  0  0  0  0  0
  -39.1806  -21.2837   18.9782 C   0  0  0  0  0  0  0  0  0  0  0  0
  -19.8636   -7.9242   23.0900 C   0  0  0  0  0  0  0  0  0  0  0  0
  -19.1066   -7.8852   24.2609 C   0  0  0  0  0  0  0  0  0  0  0  0
  -37.0816  -21.6810   17.8579 C   0  0  0  0  0  0  0  0  0  0  0  0
  -20.3486   -5.9488   24.9993 C   0  0  0  0  0  0  0  0  0  0  0  0
  -23.8269  -10.4473   20.9633 C   0  0  0  0  0  0  0  0  0  0  0  0
  -24.1680  -12.9724   20.8408 C   0  0  0  0  0  0  0  0  0  0  0  0
  -40.6278  -28.9545   20.2064 C   0  0  0  0  0  0  0  0  0  0  0  0
  -38.9614  -23.1470   17.4371 C   0  0  0  0  0  0  0  0  0  0  0  0
  -39.7900  -27.8266   20.1161 C   0  0  0  0  0  0  0  0  0  0  0  0
  -37.6286  -22.7878   17.1908 C   0  0  0  0  0  0  0  0  0  0  0  0
  -22.3398   -8.1411   21.4655 C   0  0  0  0  0  0  0  0  0  0  0  0
  -37.8532  -20.9344   18.7479 C   0  0  0  0  0  0  0  0  0  0  0  0
  -20.8630   -6.9755   22.8736 C   0  0  0  0  0  0  0  0  0  0  0  0
  -19.3491   -6.8975   25.2156 C   0  0  0  0  0  0  0  0  0  0  0  0
  -21.1055   -5.9878   23.8283 C   0  0  0  0  0  0  0  0  0  0  0  0
  -24.5957  -11.6382   20.7044 C   0  0  0  0  0  0  0  0  0  0  0  0
  -31.8080  -18.7290   22.2450 C   0  0  0  0  0  0  0  0  0  0  0  0
  -25.2599  -13.7219   20.4768 C   0  0  0  0  0  0  0  0  0  0  0  0
  -30.7062  -19.0954   22.9893 C   0  0  0  0  0  0  0  0  0  0  0  0
  -30.5707  -16.9514   21.8997 C   0  0  0  0  0  0  0  0  0  0  0  0
  -34.2326  -18.9567   21.8789 C   0  0  0  0  0  0  0  0  0  0  0  0
  -22.8974  -13.4883   21.2592 C   0  0  0  0  0  0  0  0  0  0  0  0
  -33.0334  -19.5343   22.0744 C   0  0  0  0  0  0  0  0  0  0  0  0
  -35.5135  -19.7094   21.7055 C   0  0  0  0  0  0  0  0  0  0  0  0
  -37.9978  -26.1745   17.3391 C   0  0  0  0  0  0  0  0  0  0  0  0
  -36.8732  -25.3144   14.4206 C   0  0  0  0  0  0  0  0  0  0  0  0
  -35.8073  -22.8237   12.3452 C   0  0  0  0  0  0  0  0  0  0  0  0
  -30.7259  -14.7692   20.6506 C   0  0  0  0  0  0  0  0  0  0  0  0
  -40.3732  -30.1989   19.3932 C   0  0  0  0  0  0  0  0  0  0  0  0
  -39.5813  -24.3136   16.7180 C   0  0  0  0  0  0  0  0  0  0  0  0
  -36.7621  -23.5635   16.2337 C   0  0  0  0  0  0  0  0  0  0  0  0
  -39.4492  -29.9684   18.2001 C   0  0  0  0  0  0  0  0  0  0  0  0
  -29.6121  -12.3528   18.2845 C   0  0  0  0  0  0  0  0  0  0  0  0
  -38.2282  -29.1560   18.6197 C   0  0  0  0  0  0  0  0  0  0  0  0
  -28.1725  -12.0613   18.7144 C   0  0  0  0  0  0  0  0  0  0  0  0
  -30.5272  -12.5830   19.4860 C   0  0  0  0  0  0  0  0  0  0  0  0
  -28.6200  -13.3082   20.8666 C   0  0  0  0  0  0  0  0  0  0  0  0
  -38.6378  -27.7715   19.1365 C   0  0  1  0  0  0  0  0  0  0  0  0
  -38.5529  -25.3285   16.2283 C   0  0  1  0  0  0  0  0  0  0  0  0
  -27.6472  -13.1336   19.6889 C   0  0  2  0  0  0  0  0  0  0  0  0
  -34.9154  -22.4335   10.0323 C   0  0  0  0  0  0  0  0  0  0  0  0
  -34.1527  -26.3872   15.2913 C   0  0  0  0  0  0  0  0  0  0  0  0
  -33.1260  -25.1374   13.3803 C   0  0  0  0  0  0  0  0  0  0  0  0
  -34.7888  -26.9435   12.9375 C   0  0  0  0  0  0  0  0  0  0  0  0
  -38.1010  -21.0969   11.6266 C   0  0  0  0  0  0  0  0  0  0  0  0
  -36.7503  -18.8482   21.4970 C   0  0  0  0  0  0  0  0  0  0  0  0
  -37.8271  -19.5456   20.6783 C   0  0  0  0  0  0  0  0  0  1  0  0
  -35.5764  -24.7425   13.9006 C   0  0  1  0  0  0  0  0  0  0  0  0
  -36.1587  -22.4924   10.9060 C   0  0  2  0  0  0  0  0  0  0  0  0
  -34.4265  -25.7890   13.8970 C   0  0  0  0  0  0  0  0  0  0  0  0
  -25.8605  -11.5423   20.2862 N   0  0  0  0  0  0  0  0  0  0  0  0
  -31.7322  -17.4997   21.6198 N   0  0  0  0  0  0  0  0  0  0  0  0
  -26.2371  -12.8258   20.1566 N   0  0  0  0  0  0  0  0  0  0  0  0
  -37.4121  -24.6996   15.5596 N   0  0  0  0  0  0  0  0  0  0  0  0
  -29.9679  -13.6145   20.3624 N   0  0  0  0  0  0  0  0  0  0  0  0
  -25.4699  -15.0533   20.4025 N   0  0  0  0  0  0  0  0  0  0  0  0
  -30.5093  -20.2321   23.7028 N   0  0  0  0  0  0  0  0  0  0  0  0
  -21.8857  -12.5791   21.5974 N   0  0  0  0  0  0  0  0  0  0  0  0
  -30.0782  -15.6948   21.4681 N   0  0  0  0  0  0  0  0  0  0  0  0
  -38.9543  -26.8927   18.0311 N   0  0  0  0  0  0  0  0  0  0  0  0
  -35.8758  -24.1792   12.5885 N   0  0  0  0  0  0  0  0  0  0  0  0
  -36.8482  -21.1733   10.8317 N   0  3  0  0  0  0  0  0  0  0  0  0
  -22.6607  -14.7189   21.3154 O   0  0  0  0  0  0  0  0  0  0  0  0
  -35.5538  -20.9358   21.7311 O   0  0  0  0  0  0  0  0  0  0  0  0
  -36.7910  -26.1767   17.5516 O   0  0  0  0  0  0  0  0  0  0  0  0
  -37.3927  -26.2668   13.8335 O   0  0  0  0  0  0  0  0  0  0  0  0
  -35.4991  -21.9663   13.1700 O   0  0  0  0  0  0  0  0  0  0  0  0
  -31.8549  -14.9378   20.1828 O   0  0  0  0  0  0  0  0  0  0  0  0
  -32.8213  -20.8943   22.1577 O   0  0  0  0  0  0  0  0  0  0  0  0
  -21.6141   -7.0160   21.7110 O   0  0  0  0  0  0  0  0  0  0  0  0
  -37.3101  -19.8625   19.3865 O   0  0  0  0  0  0  0  0  0  1  0  0
  -18.6232   -6.8611   26.3407 F   0  0  0  0  0  0  0  0  0  0  0  0
  -22.0651   -5.0744   23.6266 F   0  0  0  0  0  0  0  0  0  0  0  0
  -29.5204  -17.8590   22.9086 S   0  0  0  0  0  0  0  0  0  0  0  0
  1  2  1  0  0  0  0
  1  5  2  0  0  0  0
  2  6  2  0  0  0  0
  3  8  2  0  0  0  0
  3 15  1  0  0  0  0
  4  9  1  0  0  0  0
  4 15  2  0  0  0  0
  5 17  1  0  0  0  0
  6 19  1  0  0  0  0
  7 10  2  0  0  0  0
  7 18  1  0  0  0  0
  8 21  1  0  0  0  0
  9 21  2  0  0  0  0
 10 22  1  0  0  0  0
 11 12  2  0  0  0  0
 11 23  1  0  0  0  0
 12 24  1  0  0  0  0
 13 20  1  0  0  0  0
 13 22  2  0  0  0  0
 14 24  2  0  0  0  0
 14 25  1  0  0  0  0
 15 26  1  0  0  0  0
 16 26  1  0  0  0  0
 16 28  2  0  0  0  0
 16 32  1  0  0  0  0
 17 19  2  0  0  0  0
 17 39  1  0  0  0  0
 18 20  2  0  0  0  0
 18 40  1  0  0  0  0
 19 48  1  0  0  0  0
 20 41  1  0  0  0  0
 21 80  1  0  0  0  0
 22 81  1  0  0  0  0
 23 25  2  0  0  0  0
 23 80  1  0  0  0  0
 24 82  1  0  0  0  0
 25 83  1  0  0  0  0
 26 61  2  0  0  0  0
 27 29  2  0  0  0  0
 27 33  1  0  0  0  0
 27 62  1  0  0  0  0
 28 63  1  0  0  0  0
 28 66  1  0  0  0  0
 29 67  1  0  0  0  0
 29 84  1  0  0  0  0
 30 62  2  0  0  0  0
 30 69  1  0  0  0  0
 30 84  1  0  0  0  0
 31 33  2  0  0  0  0
 31 34  1  0  0  0  0
 32 68  1  0  0  0  0
 32 73  2  0  0  0  0
 33 79  1  0  0  0  0
 34 56  1  0  0  0  0
 34 74  2  0  0  0  0
 35 49  1  0  0  0  0
 35 70  1  0  0  0  0
 35 75  2  0  0  0  0
 36 58  1  0  0  0  0
 36 64  1  0  0  0  0
 36 76  2  0  0  0  0
 37 59  1  0  0  0  0
 37 71  1  0  0  0  0
 37 77  2  0  0  0  0
 38 65  1  0  0  0  0
 38 69  1  0  0  0  0
 38 78  2  0  0  0  0
 39 42  1  0  0  0  0
 40 49  1  0  0  0  0
 41 64  1  0  0  0  0
 42 44  1  0  0  0  0
 43 45  1  0  0  0  0
 43 46  1  0  0  0  0
 44 48  1  0  0  0  0
 45 50  1  0  0  0  0
 46 65  1  0  0  0  0
 47 50  1  0  0  0  0
 47 65  1  0  0  0  0
 48 70  1  0  0  0  0
 49 64  1  0  0  0  0
 50 63  1  0  0  0  0
 51 59  1  0  0  0  0
 52 60  1  0  0  0  0
 53 60  1  0  0  0  0
 54 60  1  0  0  0  0
 55 72  1  0  0  0  0
 56 57  1  0  0  0  0
 57 81  1  0  0  0  0
 58 60  1  0  0  0  0
 58 71  1  0  0  0  0
 59 72  1  0  0  0  0
 61 63  1  0  0  0  0
M  CHG  1  72   1
M  ISO  4  38 100  57 101  69 100  81 101
M  END
> <Batch ID>
0177

> <Smiles>
CNC(C)C(=O)NC(C(=O)N1Cc2cc([101O:1][101CH2:1]CC(=O)CC(=O)c3nc([100NH:0][100C:0](=O)N4CCCC(n5nc(-c6ccc(Oc7ccc(F)cc7F)cc6)c(C(N)=O)c5N)C4)sc3N)ccc2CC1C(=O)NC1CCCc2ccccc21)C(C)(C)C

> <Shape>
0.168

> <Color>
0.180

> <Negative vol penalty>
0.000

$$$$

  -OEChem-04052304413D

 88 96  0     1  0  0  0  0  0999 V2000
  -27.6967  -34.3781   21.9190 C   0  0  0  0  0  0  0  0  0  0  0  0
  -27.8830  -32.9998   21.8876 C   0  0  0  0  0  0  0  0  0  0  0  0
  -17.7670  -17.3855   20.9466 C   0  0  0  0  0  0  0  0  0  0  0  0
  -19.6784  -18.8628   20.9142 C   0  0  0  0  0  0  0  0  0  0  0  0
  -26.5130  -34.9090   22.4296 C   0  0  0  0  0  0  0  0  0  0  0  0
  -26.8859  -32.1516   22.3680 C   0  0  0  0  0  0  0  0  0  0  0  0
  -26.0314  -28.2205   19.2920 C   0  0  0  0  0  0  0  0  0  0  0  0
  -17.1082  -18.2568   21.8141 C   0  0  0  0  0  0  0  0  0  0  0  0
  -19.0196  -19.7341   21.7817 C   0  0  0  0  0  0  0  0  0  0  0  0
  -26.9416  -27.1654   19.3393 C   0  0  0  0  0  0  0  0  0  0  0  0
  -15.4149  -21.1757   21.6017 C   0  0  0  0  0  0  0  0  0  0  0  0
  -14.0791  -21.4725   21.3316 C   0  0  0  0  0  0  0  0  0  0  0  0
  -27.3454  -15.8943   20.1870 C   0  0  0  0  0  0  0  0  0  0  0  0
  -25.4209  -25.9242   20.7414 C   0  0  0  0  0  0  0  0  0  0  0  0
  -13.4436  -20.5677   23.4798 C   0  0  0  0  0  0  0  0  0  0  0  0
  -19.0521  -17.6885   20.4967 C   0  0  0  0  0  0  0  0  0  0  0  0
  -28.6955  -16.2234   20.1379 C   0  0  0  0  0  0  0  0  0  0  0  0
  -19.6992  -16.8023   18.1937 C   0  0  0  0  0  0  0  0  0  0  0  0
  -25.4969  -34.0665   22.9075 C   0  0  0  0  0  0  0  0  0  0  0  0
  -24.8117  -28.1395   19.9793 C   0  0  0  0  0  0  0  0  0  0  0  0
  -25.6879  -32.6717   22.8867 C   0  0  0  0  0  0  0  0  0  0  0  0
  -24.4959  -26.9785   20.6992 C   0  0  0  0  0  0  0  0  0  0  0  0
  -17.7345  -19.4311   22.2316 C   0  0  0  0  0  0  0  0  0  0  0  0
  -26.6377  -26.0183   20.0664 C   0  0  0  0  0  0  0  0  0  0  0  0
  -15.7652  -20.5749   22.8109 C   0  0  0  0  0  0  0  0  0  0  0  0
  -13.0934  -21.1685   22.2706 C   0  0  0  0  0  0  0  0  0  0  0  0
  -14.7795  -20.2709   23.7499 C   0  0  0  0  0  0  0  0  0  0  0  0
  -29.6535  -15.2186   20.2151 C   0  0  0  0  0  0  0  0  0  0  0  0
  -19.7333  -16.7886   19.6010 C   0  0  0  0  0  0  0  0  0  0  0  0
  -27.0082  -14.5564   20.3129 C   0  0  0  0  0  0  0  0  0  0  0  0
  -29.2129  -13.9108   20.3399 C   0  0  0  0  0  0  0  0  0  0  0  0
  -20.5042  -15.7539   17.8205 C   0  0  0  0  0  0  0  0  0  0  0  0
  -29.1100  -17.6487   20.0022 C   0  0  0  0  0  0  0  0  0  0  0  0
  -19.0021  -17.6839   17.3035 C   0  0  0  0  0  0  0  0  0  0  0  0
  -23.4525  -29.7814   22.3373 C   0  0  0  0  0  0  0  0  0  0  0  0
  -28.5182  -20.1475   19.7979 C   0  0  0  0  0  0  0  0  0  0  0  0
  -27.8932  -22.6439   19.6182 C   0  0  0  0  0  0  0  0  0  0  0  0
  -20.9085  -27.8829   21.6694 C   0  0  0  0  0  0  0  0  0  0  0  0
  -19.7435  -24.9540   20.3612 C   0  0  0  0  0  0  0  0  0  0  0  0
  -25.0661  -12.9608   20.4837 C   0  0  0  0  0  0  0  0  0  0  0  0
  -24.2541  -34.6883   23.4938 C   0  0  0  0  0  0  0  0  0  0  0  0
  -23.8292  -29.2754   19.8964 C   0  0  0  0  0  0  0  0  0  0  0  0
  -23.1912  -26.8337   21.4378 C   0  0  0  0  0  0  0  0  0  0  0  0
  -23.0925  -33.7084   23.6377 C   0  0  0  0  0  0  0  0  0  0  0  0
  -22.0346  -11.4801   19.3458 C   0  0  0  0  0  0  0  0  0  0  0  0
  -23.5710  -32.4014   24.2619 C   0  0  0  0  0  0  0  0  0  0  0  0
  -21.0993  -12.6752   19.1483 C   0  0  0  0  0  0  0  0  0  0  0  0
  -22.9457  -11.6673   20.5577 C   0  0  0  0  0  0  0  0  0  0  0  0
  -22.7716  -14.1180   20.3766 C   0  0  0  0  0  0  0  0  0  0  0  0
  -24.6194  -31.7181   23.3757 C   0  0  1  0  0  0  0  0  0  0  0  0
  -22.8379  -29.2937   21.0558 C   0  0  1  0  0  0  0  0  0  0  0  0
  -21.8793  -14.0044   19.1297 C   0  0  2  0  0  0  0  0  0  0  0  0
  -17.6205  -23.6677   19.9928 C   0  0  0  0  0  0  0  0  0  0  0  0
  -20.8596  -27.1220   24.6238 C   0  0  0  0  0  0  0  0  0  0  0  0
  -19.3971  -25.1794   24.0277 C   0  0  0  0  0  0  0  0  0  0  0  0
  -18.6069  -27.5081   23.6086 C   0  0  0  0  0  0  0  0  0  0  0  0
  -20.1001  -24.9814   17.4234 C   0  0  0  0  0  0  0  0  0  0  0  0
  -28.0317  -18.7131   19.9205 C   0  0  0  0  0  0  0  0  0  0  0  0
  -27.4316  -21.2040   19.7239 C   0  0  0  0  0  0  0  0  0  0  0  0
  -26.9865  -23.6740   20.2636 C   0  0  0  0  0  0  0  0  0  1  0  0
  -20.4260  -26.5347   22.1473 C   0  0  1  0  0  0  0  0  0  0  0  0
  -18.6059  -24.6625   19.3993 C   0  0  2  0  0  0  0  0  0  0  0  0
  -19.8479  -26.5892   23.5896 C   0  0  0  0  0  0  0  0  0  0  0  0
  -20.4993  -15.8091   20.0887 N   0  0  0  0  0  0  0  0  0  0  0  0
  -27.9103  -13.5525   20.3909 N   0  0  0  0  0  0  0  0  0  0  0  0
  -20.9538  -15.1974   18.9817 N   0  0  0  0  0  0  0  0  0  0  0  0
  -22.2662  -27.9741   21.3316 N   0  0  0  0  0  0  0  0  0  0  0  0
  -23.6553  -12.9453   20.4694 N   0  0  0  0  0  0  0  0  0  0  0  0
  -30.1985  -12.8959   20.4180 N   0  0  0  0  0  0  0  0  0  0  0  0
  -20.8642  -15.2629   16.6156 N   0  0  0  0  0  0  0  0  0  0  0  0
  -18.2192  -18.7077   17.8542 N   0  0  0  0  0  0  0  0  0  0  0  0
  -25.6301  -14.2303   20.3610 N   0  0  0  0  0  0  0  0  0  0  0  0
  -23.9821  -31.0553   22.2581 N   0  0  0  0  0  0  0  0  0  0  0  0
  -19.4811  -26.0595   21.1425 N   0  0  0  0  0  0  0  0  0  0  0  0
  -19.1359  -24.0966   18.1265 N   0  3  0  0  0  0  0  0  0  0  0  0
  -30.3070  -17.9167   19.9358 O   0  0  0  0  0  0  0  0  0  0  0  0
  -19.0584  -17.5572   16.0567 O   0  0  0  0  0  0  0  0  0  0  0  0
  -23.4453  -29.0563   23.3251 O   0  0  0  0  0  0  0  0  0  0  0  0
  -29.7124  -20.4386   19.8346 O   0  0  0  0  0  0  0  0  0  0  0  0
  -28.9151  -22.9710   19.0171 O   0  0  0  0  0  0  0  0  0  0  0  0
  -20.1086  -28.8187   21.5917 O   0  0  0  0  0  0  0  0  0  0  0  0
  -20.7613  -24.2674   20.4168 O   0  0  0  0  0  0  0  0  0  0  0  0
  -25.7257  -11.9218   20.5691 O   0  0  0  0  0  0  0  0  0  0  0  0
  -17.0919  -20.2816   23.0779 O   0  0  0  0  0  0  0  0  0  0  0  0
  -27.5246  -24.9873   20.1147 O   0  0  0  0  0  0  0  0  0  1  0  0
  -11.8108  -21.4550   22.0117 F   0  0  0  0  0  0  0  0  0  0  0  0
  -15.1101  -19.6947   24.9138 F   0  0  0  0  0  0  0  0  0  0  0  0
  -30.9608  -15.5102   20.1678 F   0  0  0  0  0  0  0  0  0  0  0  0
  1  2  1  0  0  0  0
  1  5  2  0  0  0  0
  2  6  2  0  0  0  0
  3  8  2  0  0  0  0
  3 16  1  0  0  0  0
  4  9  1  0  0  0  0
  4 16  2  0  0  0  0
  5 19  1  0  0  0  0
  6 21  1  0  0  0  0
  7 10  2  0  0  0  0
  7 20  1  0  0  0  0
  8 23  1  0  0  0  0
  9 23  2  0  0  0  0
 10 24  1  0  0  0  0
 11 12  2  0  0  0  0
 11 25  1  0  0  0  0
 12 26  1  0  0  0  0
 13 17  1  0  0  0  0
 13 30  2  0  0  0  0
 14 22  1  0  0  0  0
 14 24  2  0  0  0  0
 15 26  2  0  0  0  0
 15 27  1  0  0  0  0
 16 29  1  0  0  0  0
 17 28  2  0  0  0  0
 17 33  1  0  0  0  0
 18 29  1  0  0  0  0
 18 32  2  0  0  0  0
 18 34  1  0  0  0  0
 19 21  2  0  0  0  0
 19 41  1  0  0  0  0
 20 22  2  0  0  0  0
 20 42  1  0  0  0  0
 21 50  1  0  0  0  0
 22 43  1  0  0  0  0
 23 84  1  0  0  0  0
 24 85  1  0  0  0  0
 25 27  2  0  0  0  0
 25 84  1  0  0  0  0
 26 86  1  0  0  0  0
 27 87  1  0  0  0  0
 28 31  1  0  0  0  0
 28 88  1  0  0  0  0
 29 64  2  0  0  0  0
 30 65  1  0  0  0  0
 30 72  1  0  0  0  0
 31 65  2  0  0  0  0
 31 69  1  0  0  0  0
 32 66  1  0  0  0  0
 32 70  1  0  0  0  0
 33 58  1  0  0  0  0
 33 76  2  0  0  0  0
 34 71  1  0  0  0  0
 34 77  2  0  0  0  0
 35 51  1  0  0  0  0
 35 73  1  0  0  0  0
 35 78  2  0  0  0  0
 36 58  1  0  0  0  0
 36 59  1  0  0  0  0
 36 79  2  0  0  0  0
 37 59  1  0  0  0  0
 37 60  1  0  0  0  0
 37 80  2  0  0  0  0
 38 61  1  0  0  0  0
 38 67  1  0  0  0  0
 38 81  2  0  0  0  0
 39 62  1  0  0  0  0
 39 74  1  0  0  0  0
 39 82  2  0  0  0  0
 40 68  1  0  0  0  0
 40 72  1  0  0  0  0
 40 83  2  0  0  0  0
 41 44  1  0  0  0  0
 42 51  1  0  0  0  0
 43 67  1  0  0  0  0
 44 46  1  0  0  0  0
 45 47  1  0  0  0  0
 45 48  1  0  0  0  0
 46 50  1  0  0  0  0
 47 52  1  0  0  0  0
 48 68  1  0  0  0  0
 49 52  1  0  0  0  0
 49 68  1  0  0  0  0
 50 73  1  0  0  0  0
 51 67  1  0  0  0  0
 52 66  1  0  0  0  0
 53 62  1  0  0  0  0
 54 63  1  0  0  0  0
 55 63  1  0  0  0  0
 56 63  1  0  0  0  0
 57 75  1  0  0  0  0
 60 85  1  0  0  0  0
 61 63  1  0  0  0  0
 61 74  1  0  0  0  0
 62 75  1  0  0  0  0
 64 66  1  0  0  0  0
M  CHG  1  75   1
M  ISO  4  40 100  60 101  72 100  85 101
M  END
> <Batch ID>
0177

> <Smiles>
CNC(C)C(=O)NC(C(=O)N1Cc2cc([101O:1][101CH2:1]C(=O)CC(=O)CC(=O)c3cc([100NH:0][100C:0](=O)N4CCCC(n5nc(-c6ccc(Oc7ccc(F)cc7F)cc6)c(C(N)=O)c5N)C4)nc(N)c3F)ccc2CC1C(=O)NC1CCCc2ccccc21)C(C)(C)C

> <Shape>
0.245

> <Color>
0.093

> <Negative vol penalty>
0.000

$$$$

  -OEChem-04052304413D

 88 96  0     1  0  0  0  0  0999 V2000
  -29.0475  -34.6268   13.8821 C   0  0  0  0  0  0  0  0  0  0  0  0
  -28.5698  -33.3694   14.2372 C   0  0  0  0  0  0  0  0  0  0  0  0
  -23.1650   -9.7049   21.2723 C   0  0  0  0  0  0  0  0  0  0  0  0
  -23.8989  -10.5168   23.4263 C   0  0  0  0  0  0  0  0  0  0  0  0
  -29.8683  -35.3330   14.7605 C   0  0  0  0  0  0  0  0  0  0  0  0
  -28.9136  -32.8169   15.4705 C   0  0  0  0  0  0  0  0  0  0  0  0
  -25.4158  -29.2448   19.0077 C   0  0  0  0  0  0  0  0  0  0  0  0
  -22.4803   -8.6632   21.8982 C   0  0  0  0  0  0  0  0  0  0  0  0
  -23.2142   -9.4751   24.0522 C   0  0  0  0  0  0  0  0  0  0  0  0
  -25.3601  -27.8625   19.1807 C   0  0  0  0  0  0  0  0  0  0  0  0
  -23.2238   -5.6672   23.2750 C   0  0  0  0  0  0  0  0  0  0  0  0
  -23.3549   -4.3887   22.7331 C   0  0  0  0  0  0  0  0  0  0  0  0
  -26.7985  -28.0520   21.1080 C   0  0  0  0  0  0  0  0  0  0  0  0
  -20.9688   -4.3004   22.3642 C   0  0  0  0  0  0  0  0  0  0  0  0
  -23.8743  -10.6317   22.0364 C   0  0  0  0  0  0  0  0  0  0  0  0
  -24.0837  -12.9867   21.0784 C   0  0  0  0  0  0  0  0  0  0  0  0
  -30.2144  -34.7930   16.0092 C   0  0  0  0  0  0  0  0  0  0  0  0
  -26.1733  -30.0412   19.8785 C   0  0  0  0  0  0  0  0  0  0  0  0
  -29.7409  -33.5160   16.3658 C   0  0  0  0  0  0  0  0  0  0  0  0
  -26.8601  -29.4444   20.9454 C   0  0  0  0  0  0  0  0  0  0  0  0
  -22.5049   -8.5483   23.2881 C   0  0  0  0  0  0  0  0  0  0  0  0
  -26.0539  -27.2656   20.2293 C   0  0  0  0  0  0  0  0  0  0  0  0
  -21.9652   -6.2624   23.3616 C   0  0  0  0  0  0  0  0  0  0  0  0
  -22.2274   -3.7053   22.2776 C   0  0  0  0  0  0  0  0  0  0  0  0
  -20.8377   -5.5790   22.9061 C   0  0  0  0  0  0  0  0  0  0  0  0
  -24.5822  -11.7077   21.3904 C   0  0  0  0  0  0  0  0  0  0  0  0
  -30.2681  -19.8141   21.0118 C   0  0  0  0  0  0  0  0  0  0  0  0
  -31.3960  -19.2782   20.4264 C   0  0  0  0  0  0  0  0  0  0  0  0
  -25.1386  -13.6292   20.4777 C   0  0  0  0  0  0  0  0  0  0  0  0
  -30.2572  -17.4248   20.7059 C   0  0  0  0  0  0  0  0  0  0  0  0
  -28.4395  -23.1017   21.0395 C   0  0  0  0  0  0  0  0  0  0  0  0
  -22.7834  -13.5442   21.3108 C   0  0  0  0  0  0  0  0  0  0  0  0
  -29.9344  -21.2149   21.3477 C   0  0  0  0  0  0  0  0  0  0  0  0
  -28.7226  -21.8276   20.7191 C   0  0  0  0  0  0  0  0  0  0  0  0
  -27.2783  -23.8658   20.4901 C   0  0  0  0  0  0  0  0  0  0  0  0
  -28.6809  -31.9666   19.5484 C   0  0  0  0  0  0  0  0  0  0  0  0
  -28.0901  -32.6299   22.6682 C   0  0  0  0  0  0  0  0  0  0  0  0
  -26.7300  -31.6324   25.6351 C   0  0  0  0  0  0  0  0  0  0  0  0
  -30.5399  -14.9629   20.2526 C   0  0  0  0  0  0  0  0  0  0  0  0
  -31.1429  -35.5736   16.9054 C   0  0  0  0  0  0  0  0  0  0  0  0
  -26.2015  -31.5338   19.6942 C   0  0  0  0  0  0  0  0  0  0  0  0
  -27.6713  -30.2571   21.9200 C   0  0  0  0  0  0  0  0  0  0  0  0
  -31.1551  -35.0782   18.3493 C   0  0  0  0  0  0  0  0  0  0  0  0
  -29.5797  -11.8418   18.8334 C   0  0  0  0  0  0  0  0  0  0  0  0
  -31.2713  -33.5578   18.3911 C   0  0  0  0  0  0  0  0  0  0  0  0
  -28.1529  -11.6339   19.3464 C   0  0  0  0  0  0  0  0  0  0  0  0
  -30.4686  -12.5066   19.8830 C   0  0  0  0  0  0  0  0  0  0  0  0
  -28.5115  -13.5474   20.9579 C   0  0  0  0  0  0  0  0  0  0  0  0
  -30.0714  -32.8937   17.7051 C   0  0  1  0  0  0  0  0  0  0  0  0
  -27.4200  -32.1919   20.3340 C   0  0  1  0  0  0  0  0  0  0  0  0
  -27.5617  -12.9399   19.9126 C   0  0  2  0  0  0  0  0  0  0  0  0
  -26.4384  -32.3709   28.0156 C   0  0  0  0  0  0  0  0  0  0  0  0
  -31.0057  -31.9344   23.2386 C   0  0  0  0  0  0  0  0  0  0  0  0
  -30.4172  -31.7627   25.6661 C   0  0  0  0  0  0  0  0  0  0  0  0
  -30.1504  -33.9358   24.4705 C   0  0  0  0  0  0  0  0  0  0  0  0
  -23.7797  -31.6086   25.4029 C   0  0  0  0  0  0  0  0  0  0  0  0
  -27.1436  -25.2913   20.9847 C   0  0  0  0  0  0  0  0  0  1  0  0
  -28.5377  -32.0494   23.9880 C   0  0  1  0  0  0  0  0  0  0  0  0
  -25.8288  -32.3518   26.6225 C   0  0  2  0  0  0  0  0  0  0  0  0
  -32.5858  -20.0314   19.9795 C   0  0  0  0  0  0  0  0  0  0  0  0
  -30.0141  -32.4048   24.3214 C   0  0  0  0  0  0  0  0  0  0  0  0
  -25.8548  -11.5454   21.0185 N   0  0  0  0  0  0  0  0  0  0  0  0
  -31.3918  -17.9082   20.2505 N   0  0  0  0  0  0  0  0  0  0  0  0
  -26.1648  -12.7308   20.4666 N   0  0  0  0  0  0  0  0  0  0  0  0
  -27.6728  -31.7119   21.6941 N   0  0  0  0  0  0  0  0  0  0  0  0
  -29.8467  -13.7396   20.3705 N   0  0  0  0  0  0  0  0  0  0  0  0
  -25.2793  -14.8693   19.9632 N   0  0  0  0  0  0  0  0  0  0  0  0
  -21.8173  -12.7470   21.9396 N   0  0  0  0  0  0  0  0  0  0  0  0
  -29.8360  -16.0720   20.7205 N   0  0  0  0  0  0  0  0  0  0  0  0
  -28.9147  -32.9186   18.5746 N   0  0  0  0  0  0  0  0  0  0  0  0
  -27.5736  -32.5067   24.9830 N   0  0  0  0  0  0  0  0  0  0  0  0
  -24.5021  -31.6774   26.6992 N   0  3  0  0  0  0  0  0  0  0  0  0
  -22.4820  -14.7091   20.9562 O   0  0  0  0  0  0  0  0  0  0  0  0
  -30.6711  -21.8333   22.1093 O   0  0  0  0  0  0  0  0  0  0  0  0
  -26.4876  -23.3720   19.6915 O   0  0  0  0  0  0  0  0  0  0  0  0
  -29.3899  -31.0013   19.8077 O   0  0  0  0  0  0  0  0  0  0  0  0
  -28.1032  -33.8532   22.5101 O   0  0  0  0  0  0  0  0  0  0  0  0
  -26.6921  -30.4162   25.4625 O   0  0  0  0  0  0  0  0  0  0  0  0
  -31.6635  -15.0259   19.7470 O   0  0  0  0  0  0  0  0  0  0  0  0
  -28.0018  -21.0566   19.8348 O   0  0  0  0  0  0  0  0  0  0  0  0
  -21.8368   -7.5321   23.8992 O   0  0  0  0  0  0  0  0  0  0  0  0
  -26.0018  -25.9165   20.4001 O   0  0  0  0  0  0  0  0  0  1  0  0
  -22.3537   -2.4781   21.7558 F   0  0  0  0  0  0  0  0  0  0  0  0
  -19.6261   -6.1460   22.9856 F   0  0  0  0  0  0  0  0  0  0  0  0
  -32.5061  -21.3843   20.1911 F   0  0  0  0  0  0  0  0  0  0  0  0
  -33.7517  -19.6557   20.5966 F   0  0  0  0  0  0  0  0  0  0  0  0
  -32.8365  -19.8976   18.6389 F   0  0  0  0  0  0  0  0  0  0  0  0
  -29.1494  -18.5613   21.3586 S   0  0  0  0  0  0  0  0  0  0  0  0
  1  2  1  0  0  0  0
  1  5  2  0  0  0  0
  2  6  2  0  0  0  0
  3  8  2  0  0  0  0
  3 15  1  0  0  0  0
  4  9  1  0  0  0  0
  4 15  2  0  0  0  0
  5 17  1  0  0  0  0
  6 19  1  0  0  0  0
  7 10  2  0  0  0  0
  7 18  1  0  0  0  0
  8 21  1  0  0  0  0
  9 21  2  0  0  0  0
 10 22  1  0  0  0  0
 11 12  2  0  0  0  0
 11 23  1  0  0  0  0
 12 24  1  0  0  0  0
 13 20  1  0  0  0  0
 13 22  2  0  0  0  0
 14 24  2  0  0  0  0
 14 25  1  0  0  0  0
 15 26  1  0  0  0  0
 16 26  1  0  0  0  0
 16 29  2  0  0  0  0
 16 32  1  0  0  0  0
 17 19  2  0  0  0  0
 17 40  1  0  0  0  0
 18 20  2  0  0  0  0
 18 41  1  0  0  0  0
 19 49  1  0  0  0  0
 20 42  1  0  0  0  0
 21 81  1  0  0  0  0
 22 82  1  0  0  0  0
 23 25  2  0  0  0  0
 23 81  1  0  0  0  0
 24 83  1  0  0  0  0
 25 84  1  0  0  0  0
 26 62  2  0  0  0  0
 27 28  2  0  0  0  0
 27 33  1  0  0  0  0
 27 88  1  0  0  0  0
 28 60  1  0  0  0  0
 28 63  1  0  0  0  0
 29 64  1  0  0  0  0
 29 67  1  0  0  0  0
 30 63  2  0  0  0  0
 30 69  1  0  0  0  0
 30 88  1  0  0  0  0
 31 34  2  0  0  0  0
 31 35  1  0  0  0  0
 32 68  1  0  0  0  0
 32 73  2  0  0  0  0
 33 34  1  0  0  0  0
 33 74  2  0  0  0  0
 34 80  1  0  0  0  0
 35 57  1  0  0  0  0
 35 75  2  0  0  0  0
 36 50  1  0  0  0  0
 36 70  1  0  0  0  0
 36 76  2  0  0  0  0
 37 58  1  0  0  0  0
 37 65  1  0  0  0  0
 37 77  2  0  0  0  0
 38 59  1  0  0  0  0
 38 71  1  0  0  0  0
 38 78  2  0  0  0  0
 39 66  1  0  0  0  0
 39 69  1  0  0  0  0
 39 79  2  0  0  0  0
 40 43  1  0  0  0  0
 41 50  1  0  0  0  0
 42 65  1  0  0  0  0
 43 45  1  0  0  0  0
 44 46  1  0  0  0  0
 44 47  1  0  0  0  0
 45 49  1  0  0  0  0
 46 51  1  0  0  0  0
 47 66  1  0  0  0  0
 48 51  1  0  0  0  0
 48 66  1  0  0  0  0
 49 70  1  0  0  0  0
 50 65  1  0  0  0  0
 51 64  1  0  0  0  0
 52 59  1  0  0  0  0
 53 61  1  0  0  0  0
 54 61  1  0  0  0  0
 55 61  1  0  0  0  0
 56 72  1  0  0  0  0
 57 82  1  0  0  0  0
 58 61  1  0  0  0  0
 58 71  1  0  0  0  0
 59 72  1  0  0  0  0
 60 85  1  0  0  0  0
 60 86  1  0  0  0  0
 60 87  1  0  0  0  0
 62 64  1  0  0  0  0
M  CHG  1  72   1
M  ISO  4  39 100  57 101  69 100  82 101
M  END
> <Batch ID>
0177

> <Smiles>
CNC(C)C(=O)NC(C(=O)N1Cc2cc([101O:1][101CH2:1]C(=O)CC(=O)C(=O)c3sc([100NH:0][100C:0](=O)N4CCCC(n5nc(-c6ccc(Oc7ccc(F)cc7F)cc6)c(C(N)=O)c5N)C4)nc3C(F)(F)F)ccc2CC1C(=O)NC1CCCc2ccccc21)C(C)(C)C

> <Shape>
0.284

> <Color>
0.170

> <Negative vol penalty>
0.000

$$$$

  -OEChem-04052304413D

 88 96  0     1  0  0  0  0  0999 V2000
  -17.7868  -15.0794   24.2974 C   0  0  0  0  0  0  0  0  0  0  0  0
  -18.7348  -15.7763   25.0397 C   0  0  0  0  0  0  0  0  0  0  0  0
  -22.0313  -28.2768   21.1095 C   0  0  0  0  0  0  0  0  0  0  0  0
  -23.1751  -27.5284   23.1016 C   0  0  0  0  0  0  0  0  0  0  0  0
  -18.1839  -14.0256   23.4753 C   0  0  0  0  0  0  0  0  0  0  0  0
  -20.0804  -15.4191   24.9612 C   0  0  0  0  0  0  0  0  0  0  0  0
  -24.9097  -19.1731   25.2632 C   0  0  0  0  0  0  0  0  0  0  0  0
  -20.8086  -28.1734   21.7727 C   0  0  0  0  0  0  0  0  0  0  0  0
  -21.9524  -27.4250   23.7649 C   0  0  0  0  0  0  0  0  0  0  0  0
  -25.7719  -19.5102   26.3056 C   0  0  0  0  0  0  0  0  0  0  0  0
  -19.0303  -29.9753   24.0140 C   0  0  0  0  0  0  0  0  0  0  0  0
  -18.1247  -31.0266   23.8716 C   0  0  0  0  0  0  0  0  0  0  0  0
  -31.9412  -21.4741   22.6558 C   0  0  0  0  0  0  0  0  0  0  0  0
  -27.3419  -17.8479   25.5366 C   0  0  0  0  0  0  0  0  0  0  0  0
  -16.5109  -29.5064   22.9116 C   0  0  0  0  0  0  0  0  0  0  0  0
  -31.7999  -21.3488   21.2831 C   0  0  0  0  0  0  0  0  0  0  0  0
  -23.2146  -27.9543   21.7740 C   0  0  0  0  0  0  0  0  0  0  0  0
  -25.3203  -29.1867   21.0291 C   0  0  0  0  0  0  0  0  0  0  0  0
  -19.5362  -13.6615   23.3793 C   0  0  0  0  0  0  0  0  0  0  0  0
  -25.2528  -18.1616   24.3546 C   0  0  0  0  0  0  0  0  0  0  0  0
  -20.4958  -14.3586   24.1381 C   0  0  0  0  0  0  0  0  0  0  0  0
  -26.4834  -17.5016   24.4820 C   0  0  0  0  0  0  0  0  0  0  0  0
  -31.0560  -22.3098   23.3276 C   0  0  0  0  0  0  0  0  0  0  0  0
  -20.7691  -27.7475   23.1003 C   0  0  0  0  0  0  0  0  0  0  0  0
  -26.9869  -18.8456   26.4442 C   0  0  0  0  0  0  0  0  0  0  0  0
  -18.6762  -28.6896   23.6051 C   0  0  0  0  0  0  0  0  0  0  0  0
  -30.0704  -22.9850   22.6163 C   0  0  0  0  0  0  0  0  0  0  0  0
  -16.8650  -30.7921   23.3204 C   0  0  0  0  0  0  0  0  0  0  0  0
  -17.4165  -28.4551   23.0539 C   0  0  0  0  0  0  0  0  0  0  0  0
  -24.4780  -28.0603   21.0893 C   0  0  0  0  0  0  0  0  0  0  0  0
  -30.0129  -22.7922   21.2454 C   0  0  0  0  0  0  0  0  0  0  0  0
  -26.3858  -28.7781   20.2648 C   0  0  0  0  0  0  0  0  0  0  0  0
  -25.1544  -30.4861   21.6119 C   0  0  0  0  0  0  0  0  0  0  0  0
  -24.0070  -15.3494   23.5528 C   0  0  0  0  0  0  0  0  0  0  0  0
  -30.0340  -20.0000   28.0340 C   0  0  0  0  0  0  0  0  0  0  0  0
  -26.3263  -15.4071   21.2857 C   0  0  0  0  0  0  0  0  0  0  0  0
  -32.0980  -21.8571   25.5752 C   0  0  0  0  0  0  0  0  0  0  0  0
  -29.3636  -16.5927   20.2777 C   0  0  0  0  0  0  0  0  0  0  0  0
  -28.7859  -23.4232   19.1376 C   0  0  0  0  0  0  0  0  0  0  0  0
  -19.9115  -12.4850   22.5135 C   0  0  0  0  0  0  0  0  0  0  0  0
  -24.3236  -17.8282   23.2197 C   0  0  0  0  0  0  0  0  0  0  0  0
  -26.9077  -16.4224   23.5210 C   0  0  0  0  0  0  0  0  0  0  0  0
  -21.4035  -12.4114   22.1992 C   0  0  0  0  0  0  0  0  0  0  0  0
  -27.5214  -25.7364   16.7444 C   0  0  0  0  0  0  0  0  0  0  0  0
  -22.2270  -12.6279   23.4648 C   0  0  0  0  0  0  0  0  0  0  0  0
  -26.6790  -26.7009   17.5824 C   0  0  0  0  0  0  0  0  0  0  0  0
  -27.4187  -24.3011   17.2575 C   0  0  0  0  0  0  0  0  0  0  0  0
  -26.8694  -25.0945   19.5241 C   0  0  0  0  0  0  0  0  0  0  0  0
  -21.9680  -14.0169   24.0607 C   0  0  1  0  0  0  0  0  0  0  0  0
  -24.5465  -16.4280   22.6566 C   0  0  1  0  0  0  0  0  0  0  0  0
  -26.9921  -26.5629   19.0852 C   0  0  2  0  0  0  0  0  0  0  0  0
  -31.3189  -16.9927   18.7565 C   0  0  0  0  0  0  0  0  0  0  0  0
  -27.2117  -12.6690   22.3001 C   0  0  0  0  0  0  0  0  0  0  0  0
  -29.3703  -12.9897   21.0729 C   0  0  0  0  0  0  0  0  0  0  0  0
  -27.2198  -12.9120   19.8111 C   0  0  0  0  0  0  0  0  0  0  0  0
  -28.0984  -18.9909   19.0915 C   0  0  0  0  0  0  0  0  0  0  0  0
  -27.9802  -23.2199   23.7262 C   0  0  0  0  0  0  0  0  0  0  0  0
  -31.5444  -19.9035   27.8801 C   0  0  0  0  0  0  0  0  0  0  0  0
  -29.2273  -19.0020   27.2265 C   0  0  0  0  0  0  0  0  0  1  0  0
  -31.8693  -22.2914   27.0182 C   0  0  0  0  0  0  0  0  0  0  0  0
  -32.2712  -21.2386   28.0537 C   0  0  0  0  0  0  0  0  0  0  0  0
  -27.7617  -14.9452   21.2127 C   0  0  1  0  0  0  0  0  0  0  0  0
  -29.8249  -17.1907   18.9609 C   0  0  2  0  0  0  0  0  0  0  0  0
  -27.8823  -13.3980   21.1186 C   0  0  0  0  0  0  0  0  0  0  0  0
  -30.8551  -21.9885   20.5580 N   0  0  0  0  0  0  0  0  0  0  0  0
  -24.9662  -27.0147   20.4167 N   0  0  0  0  0  0  0  0  0  0  0  0
  -26.1269  -27.4824   19.9266 N   0  0  0  0  0  0  0  0  0  0  0  0
  -25.9620  -16.1280   22.4317 N   0  0  0  0  0  0  0  0  0  0  0  0
  -27.7329  -24.2471   18.6869 N   0  0  0  0  0  0  0  0  0  0  0  0
  -27.5096  -29.4043   19.8557 N   0  0  0  0  0  0  0  0  0  0  0  0
  -24.0010  -30.7371   22.3675 N   0  0  0  0  0  0  0  0  0  0  0  0
  -31.1705  -22.4600   24.7301 N   0  0  0  0  0  0  0  0  0  0  0  0
  -29.0131  -23.4784   20.5124 N   0  0  0  0  0  0  0  0  0  0  0  0
  -22.6842  -15.0288   23.3140 N   0  0  0  0  0  0  0  0  0  0  0  0
  -28.3643  -15.6607   20.0932 N   0  0  0  0  0  0  0  0  0  0  0  0
  -29.5354  -18.6521   18.9259 N   0  3  0  0  0  0  0  0  0  0  0  0
  -25.9960  -31.4026   21.4533 O   0  0  0  0  0  0  0  0  0  0  0  0
  -24.7372  -14.8442   24.3974 O   0  0  0  0  0  0  0  0  0  0  0  0
  -29.4940  -20.8139   28.7813 O   0  0  0  0  0  0  0  0  0  0  0  0
  -25.5585  -15.1443   20.3567 O   0  0  0  0  0  0  0  0  0  0  0  0
  -33.0065  -21.0960   25.2595 O   0  0  0  0  0  0  0  0  0  0  0  0
  -29.8443  -16.9170   21.3613 O   0  0  0  0  0  0  0  0  0  0  0  0
  -29.4557  -22.7412   18.3578 O   0  0  0  0  0  0  0  0  0  0  0  0
  -19.5761  -27.6468   23.7478 O   0  0  0  0  0  0  0  0  0  0  0  0
  -29.1921  -23.8062   23.2530 O   0  0  0  0  0  0  0  0  0  0  0  0
  -27.8301  -19.1723   27.4612 O   0  0  0  0  0  0  0  0  0  1  0  0
  -15.9948  -31.8015   23.1852 F   0  0  0  0  0  0  0  0  0  0  0  0
  -17.0702  -27.2218   22.6604 F   0  0  0  0  0  0  0  0  0  0  0  0
  1  2  1  0  0  0  0
  1  5  2  0  0  0  0
  2  6  2  0  0  0  0
  3  8  2  0  0  0  0
  3 17  1  0  0  0  0
  4  9  1  0  0  0  0
  4 17  2  0  0  0  0
  5 19  1  0  0  0  0
  6 21  1  0  0  0  0
  7 10  2  0  0  0  0
  7 20  1  0  0  0  0
  8 24  1  0  0  0  0
  9 24  2  0  0  0  0
 10 25  1  0  0  0  0
 11 12  2  0  0  0  0
 11 26  1  0  0  0  0
 12 28  1  0  0  0  0
 13 16  2  0  0  0  0
 13 23  1  0  0  0  0
 14 22  1  0  0  0  0
 14 25  2  0  0  0  0
 15 28  2  0  0  0  0
 15 29  1  0  0  0  0
 16 65  1  0  0  0  0
 17 30  1  0  0  0  0
 18 30  1  0  0  0  0
 18 32  2  0  0  0  0
 18 33  1  0  0  0  0
 19 21  2  0  0  0  0
 19 40  1  0  0  0  0
 20 22  2  0  0  0  0
 20 41  1  0  0  0  0
 21 49  1  0  0  0  0
 22 42  1  0  0  0  0
 23 27  2  0  0  0  0
 23 72  1  0  0  0  0
 24 84  1  0  0  0  0
 25 86  1  0  0  0  0
 26 29  2  0  0  0  0
 26 84  1  0  0  0  0
 27 31  1  0  0  0  0
 27 85  1  0  0  0  0
 28 87  1  0  0  0  0
 29 88  1  0  0  0  0
 30 66  2  0  0  0  0
 31 65  2  0  0  0  0
 31 73  1  0  0  0  0
 32 67  1  0  0  0  0
 32 70  1  0  0  0  0
 33 71  1  0  0  0  0
 33 77  2  0  0  0  0
 34 50  1  0  0  0  0
 34 74  1  0  0  0  0
 34 78  2  0  0  0  0
 35 58  1  0  0  0  0
 35 59  1  0  0  0  0
 35 79  2  0  0  0  0
 36 62  1  0  0  0  0
 36 68  1  0  0  0  0
 36 80  2  0  0  0  0
 37 60  1  0  0  0  0
 37 72  1  0  0  0  0
 37 81  2  0  0  0  0
 38 63  1  0  0  0  0
 38 75  1  0  0  0  0
 38 82  2  0  0  0  0
 39 69  1  0  0  0  0
 39 73  1  0  0  0  0
 39 83  2  0  0  0  0
 40 43  1  0  0  0  0
 41 50  1  0  0  0  0
 42 68  1  0  0  0  0
 43 45  1  0  0  0  0
 44 46  1  0  0  0  0
 44 47  1  0  0  0  0
 45 49  1  0  0  0  0
 46 51  1  0  0  0  0
 47 69  1  0  0  0  0
 48 51  1  0  0  0  0
 48 69  1  0  0  0  0
 49 74  1  0  0  0  0
 50 68  1  0  0  0  0
 51 67  1  0  0  0  0
 52 63  1  0  0  0  0
 53 64  1  0  0  0  0
 54 64  1  0  0  0  0
 55 64  1  0  0  0  0
 56 76  1  0  0  0  0
 57 85  1  0  0  0  0
 58 61  1  0  0  0  0
 59 86  1  0  0  0  0
 60 61  1  0  0  0  0
 62 64  1  0  0  0  0
 62 75  1  0  0  0  0
 63 76  1  0  0  0  0
 66 67  1  0  0  0  0
M  CHG  1  76   1
M  ISO  4  39 100  59 101  73 100  86 101
M  END
> <Batch ID>
0177

> <Smiles>
CNC(C)C(=O)NC(C(=O)N1Cc2cc([101O:1][101CH2:1]C(=O)CCCC(=O)Nc3ccnc([100NH:0][100C:0](=O)N4CCCC(n5nc(-c6ccc(Oc7ccc(F)cc7F)cc6)c(C(N)=O)c5N)C4)c3OC)ccc2CC1C(=O)NC1CCCc2ccccc21)C(C)(C)C

> <Shape>
0.221

> <Color>
0.055

> <Negative vol penalty>
0.000

$$$$

  -OEChem-04052304413D

 86 94  0     1  0  0  0  0  0999 V2000
  -30.6461  -36.0246   20.9549 C   0  0  0  0  0  0  0  0  0  0  0  0
  -30.5553  -34.6369   20.9927 C   0  0  0  0  0  0  0  0  0  0  0  0
  -24.2825   -8.4851   20.4383 C   0  0  0  0  0  0  0  0  0  0  0  0
  -22.8514  -10.3132   21.1069 C   0  0  0  0  0  0  0  0  0  0  0  0
  -29.7184  -36.8018   21.6472 C   0  0  0  0  0  0  0  0  0  0  0  0
  -29.5373  -34.0256   21.7238 C   0  0  0  0  0  0  0  0  0  0  0  0
  -27.3260  -30.2418   19.1865 C   0  0  0  0  0  0  0  0  0  0  0  0
  -23.3194   -7.5732   20.8698 C   0  0  0  0  0  0  0  0  0  0  0  0
  -21.8881   -9.4012   21.5383 C   0  0  0  0  0  0  0  0  0  0  0  0
  -28.0077  -29.0268   19.1335 C   0  0  0  0  0  0  0  0  0  0  0  0
  -21.3865   -4.7610   22.1264 C   0  0  0  0  0  0  0  0  0  0  0  0
  -21.8168   -3.6683   22.8790 C   0  0  0  0  0  0  0  0  0  0  0  0
  -26.6049  -28.1696   20.8989 C   0  0  0  0  0  0  0  0  0  0  0  0
  -27.6272  -19.8888   18.9885 C   0  0  0  0  0  0  0  0  0  0  0  0
  -29.0413  -18.9613   21.2073 C   0  0  0  0  0  0  0  0  0  0  0  0
  -22.6949   -5.1693   24.5562 C   0  0  0  0  0  0  0  0  0  0  0  0
  -24.0486   -9.8551   20.5569 C   0  0  0  0  0  0  0  0  0  0  0  0
  -25.1651  -11.3627   18.8282 C   0  0  0  0  0  0  0  0  0  0  0  0
  -28.6828  -36.1999   22.3792 C   0  0  0  0  0  0  0  0  0  0  0  0
  -26.2841  -30.4338   20.1052 C   0  0  0  0  0  0  0  0  0  0  0  0
  -28.5957  -34.7955   22.4277 C   0  0  0  0  0  0  0  0  0  0  0  0
  -25.9099  -29.3871   20.9599 C   0  0  0  0  0  0  0  0  0  0  0  0
  -28.2126  -20.7960   19.8715 C   0  0  0  0  0  0  0  0  0  0  0  0
  -28.4558  -18.0540   20.3243 C   0  0  0  0  0  0  0  0  0  0  0  0
  -22.1221   -8.0312   21.4198 C   0  0  0  0  0  0  0  0  0  0  0  0
  -27.6491  -27.9914   19.9918 C   0  0  0  0  0  0  0  0  0  0  0  0
  -21.6104   -6.0579   22.5887 C   0  0  0  0  0  0  0  0  0  0  0  0
  -22.4710   -3.8724   24.0939 C   0  0  0  0  0  0  0  0  0  0  0  0
  -28.9197  -20.3323   20.9809 C   0  0  0  0  0  0  0  0  0  0  0  0
  -27.7488  -18.5177   19.2149 C   0  0  0  0  0  0  0  0  0  0  0  0
  -22.2646   -6.2620   23.8036 C   0  0  0  0  0  0  0  0  0  0  0  0
  -25.0434  -10.7977   20.1118 C   0  0  0  0  0  0  0  0  0  0  0  0
  -26.2596  -12.1876   18.9185 C   0  0  0  0  0  0  0  0  0  0  0  0
  -24.3607  -11.1601   17.6588 C   0  0  0  0  0  0  0  0  0  0  0  0
  -27.4974  -24.2920   18.6781 C   0  0  0  0  0  0  0  0  0  0  0  0
  -27.4180  -22.7947   18.6001 C   0  0  0  0  0  0  0  0  0  0  0  0
  -25.7856  -32.3996   22.5528 C   0  0  0  0  0  0  0  0  0  0  0  0
  -22.8439  -31.0326   22.5474 C   0  0  0  0  0  0  0  0  0  0  0  0
  -20.8948  -28.3554   21.7226 C   0  0  0  0  0  0  0  0  0  0  0  0
  -29.2480  -16.0380   21.6105 C   0  0  0  0  0  0  0  0  0  0  0  0
  -27.7318  -37.0808   23.1501 C   0  0  0  0  0  0  0  0  0  0  0  0
  -25.5410  -31.7413   20.1315 C   0  0  0  0  0  0  0  0  0  0  0  0
  -24.7851  -29.5356   21.9504 C   0  0  0  0  0  0  0  0  0  0  0  0
  -26.4607  -36.3619   23.5950 C   0  0  0  0  0  0  0  0  0  0  0  0
  -29.7506  -12.6422   22.5556 C   0  0  0  0  0  0  0  0  0  0  0  0
  -26.8006  -35.0082   24.2103 C   0  0  0  0  0  0  0  0  0  0  0  0
  -28.5807  -11.9061   21.8985 C   0  0  0  0  0  0  0  0  0  0  0  0
  -29.3388  -14.0233   23.0623 C   0  0  0  0  0  0  0  0  0  0  0  0
  -27.5178  -14.1458   21.4076 C   0  0  0  0  0  0  0  0  0  0  0  0
  -27.4910  -34.0958   23.1894 C   0  0  1  0  0  0  0  0  0  0  0  0
  -24.8356  -32.0011   21.4590 C   0  0  1  0  0  0  0  0  0  0  0  0
  -27.9000  -12.7759   20.8236 C   0  0  2  0  0  0  0  0  0  0  0  0
  -18.5362  -27.5129   21.8799 C   0  0  0  0  0  0  0  0  0  0  0  0
  -23.2685  -30.4029   25.5026 C   0  0  0  0  0  0  0  0  0  0  0  0
  -21.3707  -28.7765   25.3571 C   0  0  0  0  0  0  0  0  0  0  0  0
  -20.9695  -31.2005   24.9258 C   0  0  0  0  0  0  0  0  0  0  0  0
  -20.6289  -28.2054   18.7788 C   0  0  0  0  0  0  0  0  0  0  0  0
  -28.8815  -24.8966   18.5898 C   0  0  0  0  0  0  0  0  0  0  0  0
  -28.8540  -26.4148   18.6808 C   0  0  0  0  0  0  0  0  0  1  0  0
  -22.2237  -29.8277   23.2127 C   0  0  1  0  0  0  0  0  0  0  0  0
  -19.5472  -28.2660   21.0294 C   0  0  2  0  0  0  0  0  0  0  0  0
  -21.9806  -30.0494   24.7323 C   0  0  0  0  0  0  0  0  0  0  0  0
  -25.9855  -11.2272   20.9557 N   0  0  0  0  0  0  0  0  0  0  0  0
  -26.7096  -12.0708   20.2007 N   0  0  0  0  0  0  0  0  0  0  0  0
  -24.0931  -30.8351   21.9422 N   0  0  0  0  0  0  0  0  0  0  0  0
  -28.7049  -14.7920   21.9889 N   0  0  0  0  0  0  0  0  0  0  0  0
  -26.8714  -12.9942   18.0254 N   0  0  0  0  0  0  0  0  0  0  0  0
  -23.2741  -10.2787   17.7398 N   0  0  0  0  0  0  0  0  0  0  0  0
  -28.0872  -22.1856   19.6397 N   0  0  0  0  0  0  0  0  0  0  0  0
  -28.5805  -16.6619   20.5570 N   0  0  0  0  0  0  0  0  0  0  0  0
  -26.5201  -33.5363   22.2736 N   0  0  0  0  0  0  0  0  0  0  0  0
  -21.0170  -29.5181   22.4535 N   0  0  0  0  0  0  0  0  0  0  0  0
  -19.6820  -27.5597   19.7240 N   0  3  0  0  0  0  0  0  0  0  0  0
  -24.6084  -11.7308   16.5695 O   0  0  0  0  0  0  0  0  0  0  0  0
  -26.4458  -24.9028   18.7945 O   0  0  0  0  0  0  0  0  0  0  0  0
  -26.7728  -22.3293   17.6755 O   0  0  0  0  0  0  0  0  0  0  0  0
  -25.8465  -31.7266   23.5751 O   0  0  0  0  0  0  0  0  0  0  0  0
  -22.2389  -32.1075   22.5579 O   0  0  0  0  0  0  0  0  0  0  0  0
  -21.7517  -27.4794   21.6283 O   0  0  0  0  0  0  0  0  0  0  0  0
  -30.2490  -16.5037   22.1610 O   0  0  0  0  0  0  0  0  0  0  0  0
  -21.1819   -7.1416   21.8407 O   0  0  0  0  0  0  0  0  0  0  0  0
  -28.3133  -26.8047   19.9425 O   0  0  0  0  0  0  0  0  0  1  0  0
  -22.8828   -2.8230   24.8172 F   0  0  0  0  0  0  0  0  0  0  0  0
  -29.4871  -21.1953   21.8358 F   0  0  0  0  0  0  0  0  0  0  0  0
  -27.1822  -17.6549   18.3593 F   0  0  0  0  0  0  0  0  0  0  0  0
  -22.4816   -7.5055   24.2534 F   0  0  0  0  0  0  0  0  0  0  0  0
  1  2  1  0  0  0  0
  1  5  2  0  0  0  0
  2  6  2  0  0  0  0
  3  8  2  0  0  0  0
  3 17  1  0  0  0  0
  4  9  1  0  0  0  0
  4 17  2  0  0  0  0
  5 19  1  0  0  0  0
  6 21  1  0  0  0  0
  7 10  2  0  0  0  0
  7 20  1  0  0  0  0
  8 25  1  0  0  0  0
  9 25  2  0  0  0  0
 10 26  1  0  0  0  0
 11 12  2  0  0  0  0
 11 27  1  0  0  0  0
 12 28  1  0  0  0  0
 13 22  1  0  0  0  0
 13 26  2  0  0  0  0
 14 23  1  0  0  0  0
 14 30  2  0  0  0  0
 15 24  2  0  0  0  0
 15 29  1  0  0  0  0
 16 28  2  0  0  0  0
 16 31  1  0  0  0  0
 17 32  1  0  0  0  0
 18 32  1  0  0  0  0
 18 33  2  0  0  0  0
 18 34  1  0  0  0  0
 19 21  2  0  0  0  0
 19 41  1  0  0  0  0
 20 22  2  0  0  0  0
 20 42  1  0  0  0  0
 21 50  1  0  0  0  0
 22 43  1  0  0  0  0
 23 29  2  0  0  0  0
 23 69  1  0  0  0  0
 24 30  1  0  0  0  0
 24 70  1  0  0  0  0
 25 81  1  0  0  0  0
 26 82  1  0  0  0  0
 27 31  2  0  0  0  0
 27 81  1  0  0  0  0
 28 83  1  0  0  0  0
 29 84  1  0  0  0  0
 30 85  1  0  0  0  0
 31 86  1  0  0  0  0
 32 63  2  0  0  0  0
 33 64  1  0  0  0  0
 33 67  1  0  0  0  0
 34 68  1  0  0  0  0
 34 74  2  0  0  0  0
 35 36  1  0  0  0  0
 35 58  1  0  0  0  0
 35 75  2  0  0  0  0
 36 69  1  0  0  0  0
 36 76  2  0  0  0  0
 37 51  1  0  0  0  0
 37 71  1  0  0  0  0
 37 77  2  0  0  0  0
 38 60  1  0  0  0  0
 38 65  1  0  0  0  0
 38 78  2  0  0  0  0
 39 61  1  0  0  0  0
 39 72  1  0  0  0  0
 39 79  2  0  0  0  0
 40 66  1  0  0  0  0
 40 70  1  0  0  0  0
 40 80  2  0  0  0  0
 41 44  1  0  0  0  0
 42 51  1  0  0  0  0
 43 65  1  0  0  0  0
 44 46  1  0  0  0  0
 45 47  1  0  0  0  0
 45 48  1  0  0  0  0
 46 50  1  0  0  0  0
 47 52  1  0  0  0  0
 48 66  1  0  0  0  0
 49 52  1  0  0  0  0
 49 66  1  0  0  0  0
 50 71  1  0  0  0  0
 51 65  1  0  0  0  0
 52 64  1  0  0  0  0
 53 61  1  0  0  0  0
 54 62  1  0  0  0  0
 55 62  1  0  0  0  0
 56 62  1  0  0  0  0
 57 73  1  0  0  0  0
 58 59  1  0  0  0  0
 59 82  1  0  0  0  0
 60 62  1  0  0  0  0
 60 72  1  0  0  0  0
 61 73  1  0  0  0  0
 63 64  1  0  0  0  0
M  CHG  1  73   1
M  ISO  4  40 100  59 101  70 100  82 101
M  END
> <Batch ID>
0177

> <Smiles>
CNC(C)C(=O)NC(C(=O)N1Cc2cc([101O:1][101CH2:1]CC(=O)C(=O)Nc3cc(F)c([100NH:0][100C:0](=O)N4CCCC(n5nc(-c6ccc(Oc7ccc(F)cc7F)cc6)c(C(N)=O)c5N)C4)cc3F)ccc2CC1C(=O)NC1CCCc2ccccc21)C(C)(C)C

> <Shape>
0.319

> <Color>
0.111

> <Negative vol penalty>
0.000

$$$$

  -OEChem-04052304413D

 84 92  0     1  0  0  0  0  0999 V2000
  -28.6274  -18.6390   17.4565 C   0  0  0  0  0  0  0  0  0  0  0  0
  -27.5622  -19.5331   17.4175 C   0  0  0  0  0  0  0  0  0  0  0  0
  -26.1207  -15.5277   22.8867 C   0  0  0  0  0  0  0  0  0  0  0  0
  -25.6585  -17.3385   21.3556 C   0  0  0  0  0  0  0  0  0  0  0  0
  -29.6278  -18.7898   18.4158 C   0  0  0  0  0  0  0  0  0  0  0  0
  -27.4963  -20.5779   18.3386 C   0  0  0  0  0  0  0  0  0  0  0  0
  -25.2637  -27.3580   18.9398 C   0  0  0  0  0  0  0  0  0  0  0  0
  -26.4089  -14.6901   21.8092 C   0  0  0  0  0  0  0  0  0  0  0  0
  -25.9468  -16.5009   20.2781 C   0  0  0  0  0  0  0  0  0  0  0  0
  -24.4690  -28.1620   19.7558 C   0  0  0  0  0  0  0  0  0  0  0  0
  -28.9894  -14.1552   19.6908 C   0  0  0  0  0  0  0  0  0  0  0  0
  -30.1295  -13.3564   19.7775 C   0  0  0  0  0  0  0  0  0  0  0  0
  -26.2954  -28.3711   21.3179 C   0  0  0  0  0  0  0  0  0  0  0  0
  -28.7597  -11.3779   19.5627 C   0  0  0  0  0  0  0  0  0  0  0  0
  -19.8102  -25.7115   25.9851 C   0  0  0  0  0  0  0  0  0  0  0  0
  -25.7454  -16.8519   22.6599 C   0  0  0  0  0  0  0  0  0  0  0  0
  -26.3475  -18.5409   24.4743 C   0  0  0  0  0  0  0  0  0  0  0  0
  -29.5791  -19.8427   19.3431 C   0  0  0  0  0  0  0  0  0  0  0  0
  -26.5788  -27.0451   19.3126 C   0  0  0  0  0  0  0  0  0  0  0  0
  -28.4963  -20.7421   19.3121 C   0  0  0  0  0  0  0  0  0  0  0  0
  -27.1055  -27.5650   20.5035 C   0  0  0  0  0  0  0  0  0  0  0  0
  -26.3220  -15.1767   20.5049 C   0  0  0  0  0  0  0  0  0  0  0  0
  -24.9839  -28.6663   20.9465 C   0  0  0  0  0  0  0  0  0  0  0  0
  -27.7343  -13.5654   19.5400 C   0  0  0  0  0  0  0  0  0  0  0  0
  -30.0147  -11.9678   19.7135 C   0  0  0  0  0  0  0  0  0  0  0  0
  -27.6195  -12.1767   19.4760 C   0  0  0  0  0  0  0  0  0  0  0  0
  -25.4470  -17.7174   23.7725 C   0  0  0  0  0  0  0  0  0  0  0  0
  -20.8465  -26.1161   25.1699 C   0  0  0  0  0  0  0  0  0  0  0  0
  -25.5771  -19.1547   25.4315 C   0  0  0  0  0  0  0  0  0  0  0  0
  -20.6990  -23.7474   25.5822 C   0  0  0  0  0  0  0  0  0  0  0  0
  -27.7547  -18.7339   24.2785 C   0  0  0  0  0  0  0  0  0  0  0  0
  -28.1425  -24.3591   19.9790 C   0  0  0  0  0  0  0  0  0  0  0  0
  -22.1813  -29.5706   23.0613 C   0  0  0  0  0  0  0  0  0  0  0  0
  -30.7069  -26.3419   20.1011 C   0  0  0  0  0  0  0  0  0  0  0  0
  -31.9050  -29.5037   20.5642 C   0  0  0  0  0  0  0  0  0  0  0  0
  -20.2845  -21.3387   26.1928 C   0  0  0  0  0  0  0  0  0  0  0  0
  -30.6591  -19.9372   20.3915 C   0  0  0  0  0  0  0  0  0  0  0  0
  -27.4317  -26.1985   18.4081 C   0  0  0  0  0  0  0  0  0  0  0  0
  -28.5178  -27.2753   20.9390 C   0  0  0  0  0  0  0  0  0  0  0  0
  -30.7097  -21.2917   21.0935 C   0  0  0  0  0  0  0  0  0  0  0  0
  -21.2107  -18.1776   27.5442 C   0  0  0  0  0  0  0  0  0  0  0  0
  -29.3084  -21.7329   21.5040 C   0  0  0  0  0  0  0  0  0  0  0  0
  -22.4857  -17.8157   26.7790 C   0  0  0  0  0  0  0  0  0  0  0  0
  -20.2001  -18.8983   26.6538 C   0  0  0  0  0  0  0  0  0  0  0  0
  -21.9990  -19.7109   25.1796 C   0  0  0  0  0  0  0  0  0  0  0  0
  -28.4024  -21.9028   20.2786 C   0  0  1  0  0  0  0  0  0  0  0  0
  -28.5880  -25.5220   19.1381 C   0  0  1  0  0  0  0  0  0  0  0  0
  -23.0734  -19.0409   26.0516 C   0  0  2  0  0  0  0  0  0  0  0  0
  -34.0485  -30.8063   20.6419 C   0  0  0  0  0  0  0  0  0  0  0  0
  -19.9515  -29.6378   21.8802 C   0  0  0  0  0  0  0  0  0  0  0  0
  -20.1385  -30.3835   24.2756 C   0  0  0  0  0  0  0  0  0  0  0  0
  -31.2880  -25.2156   22.8766 C   0  0  0  0  0  0  0  0  0  0  0  0
  -32.8040  -27.1678   23.2751 C   0  0  0  0  0  0  0  0  0  0  0  0
  -33.3095  -25.5520   21.4431 C   0  0  0  0  0  0  0  0  0  0  0  0
  -31.0886  -31.2057   18.2849 C   0  0  0  0  0  0  0  0  0  0  0  0
  -21.2261  -27.4930   24.7106 C   0  0  0  0  0  0  0  0  0  0  0  0
  -22.8030  -29.2150   21.7202 C   0  0  0  0  0  0  0  0  0  1  0  0
  -31.3758  -27.1594   21.1796 C   0  0  1  0  0  0  0  0  0  0  0  0
  -32.8980  -30.3313   19.7682 C   0  0  2  0  0  0  0  0  0  0  0  0
  -20.6635  -29.4148   23.2176 C   0  0  0  0  0  0  0  0  0  0  0  0
  -32.1670  -26.2777   22.1866 C   0  0  0  0  0  0  0  0  0  0  0  0
  -19.7238  -24.3536   26.2223 N   0  0  0  0  0  0  0  0  0  0  0  0
  -24.1998  -17.7982   24.2438 N   0  0  0  0  0  0  0  0  0  0  0  0
  -24.3112  -18.6797   25.2520 N   0  0  0  0  0  0  0  0  0  0  0  0
  -29.3102  -26.4375   20.0238 N   0  0  0  0  0  0  0  0  0  0  0  0
  -20.8263  -20.0501   26.0010 N   0  0  0  0  0  0  0  0  0  0  0  0
  -25.8657  -20.0489   26.4008 N   0  0  0  0  0  0  0  0  0  0  0  0
  -28.3895  -18.0249   23.2496 N   0  0  0  0  0  0  0  0  0  0  0  0
  -20.9833  -22.3596   25.5494 N   0  0  0  0  0  0  0  0  0  0  0  0
  -28.6941  -23.1492   19.6033 N   0  0  0  0  0  0  0  0  0  0  0  0
  -32.1887  -28.1563   20.4912 N   0  0  0  0  0  0  0  0  0  0  0  0
  -32.2259  -31.5268   19.1851 N   0  3  0  0  0  0  0  0  0  0  0  0
  -20.3257  -28.0234   23.6593 N   0  3  0  0  0  0  0  0  0  0  0  0
  -28.4323  -19.4996   25.0052 O   0  0  0  0  0  0  0  0  0  0  0  0
  -27.3577  -24.5461   20.9014 O   0  0  0  0  0  0  0  0  0  0  0  0
  -22.8880  -29.9332   24.0048 O   0  0  0  0  0  0  0  0  0  0  0  0
  -31.3987  -25.6498   19.3501 O   0  0  0  0  0  0  0  0  0  0  0  0
  -30.9733  -30.0029   21.1914 O   0  0  0  0  0  0  0  0  0  0  0  0
  -19.2909  -21.5263   26.8996 O   0  0  0  0  0  0  0  0  0  0  0  0
  -26.6034  -14.3598   19.4533 O   0  0  0  0  0  0  0  0  0  0  0  0
  -24.2102  -29.4507   21.7453 O   0  0  0  0  0  0  0  0  0  1  0  0
  -31.1099  -11.2009   19.7952 F   0  0  0  0  0  0  0  0  0  0  0  0
  -26.4167  -11.6043   19.3300 F   0  0  0  0  0  0  0  0  0  0  0  0
  -21.7572  -24.7493   24.6760 S   0  0  0  0  0  0  0  0  0  0  0  0
  1  2  1  0  0  0  0
  1  5  2  0  0  0  0
  2  6  2  0  0  0  0
  3  8  2  0  0  0  0
  3 16  1  0  0  0  0
  4  9  1  0  0  0  0
  4 16  2  0  0  0  0
  5 18  1  0  0  0  0
  6 20  1  0  0  0  0
  7 10  2  0  0  0  0
  7 19  1  0  0  0  0
  8 22  1  0  0  0  0
  9 22  2  0  0  0  0
 10 23  1  0  0  0  0
 11 12  2  0  0  0  0
 11 24  1  0  0  0  0
 12 25  1  0  0  0  0
 13 21  1  0  0  0  0
 13 23  2  0  0  0  0
 14 25  2  0  0  0  0
 14 26  1  0  0  0  0
 15 28  2  0  0  0  0
 15 62  1  0  0  0  0
 16 27  1  0  0  0  0
 17 27  1  0  0  0  0
 17 29  2  0  0  0  0
 17 31  1  0  0  0  0
 18 20  2  0  0  0  0
 18 37  1  0  0  0  0
 19 21  2  0  0  0  0
 19 38  1  0  0  0  0
 20 46  1  0  0  0  0
 21 39  1  0  0  0  0
 22 80  1  0  0  0  0
 23 81  1  0  0  0  0
 24 26  2  0  0  0  0
 24 80  1  0  0  0  0
 25 82  1  0  0  0  0
 26 83  1  0  0  0  0
 27 63  2  0  0  0  0
 28 56  1  0  0  0  0
 28 84  1  0  0  0  0
 29 64  1  0  0  0  0
 29 67  1  0  0  0  0
 30 62  2  0  0  0  0
 30 69  1  0  0  0  0
 30 84  1  0  0  0  0
 31 68  1  0  0  0  0
 31 74  2  0  0  0  0
 32 47  1  0  0  0  0
 32 70  1  0  0  0  0
 32 75  2  0  0  0  0
 33 57  1  0  0  0  0
 33 60  1  0  0  0  0
 33 76  2  0  0  0  0
 34 58  1  0  0  0  0
 34 65  1  0  0  0  0
 34 77  2  0  0  0  0
 35 59  1  0  0  0  0
 35 71  1  0  0  0  0
 35 78  2  0  0  0  0
 36 66  1  0  0  0  0
 36 69  1  0  0  0  0
 36 79  2  0  0  0  0
 37 40  1  0  0  0  0
 38 47  1  0  0  0  0
 39 65  1  0  0  0  0
 40 42  1  0  0  0  0
 41 43  1  0  0  0  0
 41 44  1  0  0  0  0
 42 46  1  0  0  0  0
 43 48  1  0  0  0  0
 44 66  1  0  0  0  0
 45 48  1  0  0  0  0
 45 66  1  0  0  0  0
 46 70  1  0  0  0  0
 47 65  1  0  0  0  0
 48 64  1  0  0  0  0
 49 59  1  0  0  0  0
 50 60  1  0  0  0  0
 51 60  1  0  0  0  0
 52 61  1  0  0  0  0
 53 61  1  0  0  0  0
 54 61  1  0  0  0  0
 55 72  1  0  0  0  0
 56 73  1  0  0  0  0
 57 81  1  0  0  0  0
 58 61  1  0  0  0  0
 58 71  1  0  0  0  0
 59 72  1  0  0  0  0
 60 73  1  0  0  0  0
 63 64  1  0  0  0  0
M  CHG  2  72   1  73   1
M  ISO  4  36 100  57 101  69 100  81 101
M  END
> <Batch ID>
0177

> <Smiles>
CNC(C)C(=O)NC(C(=O)N1Cc2cc([101O:1][101CH2:1]C(=O)C(C)(C)NCc3cnc([100NH:0][100C:0](=O)N4CCCC(n5nc(-c6ccc(Oc7ccc(F)cc7F)cc6)c(C(N)=O)c5N)C4)s3)ccc2CC1C(=O)NC1CCCc2ccccc21)C(C)(C)C

> <Shape>
0.212

> <Color>
0.046

> <Negative vol penalty>
0.000

$$$$

  -OEChem-04052304413D

 86 94  0     1  0  0  0  0  0999 V2000
  -19.9178  -30.8086   21.9424 C   0  0  0  0  0  0  0  0  0  0  0  0
  -21.2241  -30.3305   21.9257 C   0  0  0  0  0  0  0  0  0  0  0  0
  -26.3931  -12.8526   21.6456 C   0  0  0  0  0  0  0  0  0  0  0  0
  -25.8529  -13.8950   19.5341 C   0  0  0  0  0  0  0  0  0  0  0  0
  -18.8582  -29.9308   22.1672 C   0  0  0  0  0  0  0  0  0  0  0  0
  -21.4717  -28.9742   22.1350 C   0  0  0  0  0  0  0  0  0  0  0  0
  -24.8383  -27.0855   18.8572 C   0  0  0  0  0  0  0  0  0  0  0  0
  -25.1429  -12.2342   21.6602 C   0  0  0  0  0  0  0  0  0  0  0  0
  -24.6027  -13.2766   19.5486 C   0  0  0  0  0  0  0  0  0  0  0  0
  -26.1838  -27.3607   19.0969 C   0  0  0  0  0  0  0  0  0  0  0  0
  -23.6687   -9.5615   20.2053 C   0  0  0  0  0  0  0  0  0  0  0  0
  -23.6177   -8.2107   20.5490 C   0  0  0  0  0  0  0  0  0  0  0  0
  -26.4531  -25.1686   20.0674 C   0  0  0  0  0  0  0  0  0  0  0  0
  -22.1825   -8.7407   22.4189 C   0  0  0  0  0  0  0  0  0  0  0  0
  -26.7481  -13.6830   20.5826 C   0  0  0  0  0  0  0  0  0  0  0  0
  -29.2310  -13.8183   20.0131 C   0  0  0  0  0  0  0  0  0  0  0  0
  -19.0922  -28.5615   22.3697 C   0  0  0  0  0  0  0  0  0  0  0  0
  -24.2865  -25.8518   19.2313 C   0  0  0  0  0  0  0  0  0  0  0  0
  -20.4143  -28.0775   22.3641 C   0  0  0  0  0  0  0  0  0  0  0  0
  -25.1008  -24.8793   19.8289 C   0  0  0  0  0  0  0  0  0  0  0  0
  -24.2477  -12.4462   20.6117 C   0  0  0  0  0  0  0  0  0  0  0  0
  -26.9908  -26.4033   19.7047 C   0  0  0  0  0  0  0  0  0  0  0  0
  -22.9767  -10.5020   20.9685 C   0  0  0  0  0  0  0  0  0  0  0  0
  -22.8745   -7.8002   21.6558 C   0  0  0  0  0  0  0  0  0  0  0  0
  -22.2336  -10.0916   22.0753 C   0  0  0  0  0  0  0  0  0  0  0  0
  -28.0391  -14.3225   20.5672 C   0  0  0  0  0  0  0  0  0  0  0  0
  -29.5587  -23.5730   17.8115 C   0  0  0  0  0  0  0  0  0  0  0  0
  -30.1637  -14.7968   20.2566 C   0  0  0  0  0  0  0  0  0  0  0  0
  -28.9507  -22.8628   16.7976 C   0  0  0  0  0  0  0  0  0  0  0  0
  -29.2801  -21.6690   18.8637 C   0  0  0  0  0  0  0  0  0  0  0  0
  -29.4734  -12.5766   19.3386 C   0  0  0  0  0  0  0  0  0  0  0  0
  -29.9998  -24.9865   17.6848 C   0  0  0  0  0  0  0  0  0  0  0  0
  -21.9935  -24.9345   21.2324 C   0  0  0  0  0  0  0  0  0  0  0  0
  -22.5657  -22.0174   19.9342 C   0  0  0  0  0  0  0  0  0  0  0  0
  -24.7405  -19.9403   18.3207 C   0  0  0  0  0  0  0  0  0  0  0  0
  -29.7596  -20.6933   21.1362 C   0  0  0  0  0  0  0  0  0  0  0  0
  -17.9182  -27.6590   22.6559 C   0  0  0  0  0  0  0  0  0  0  0  0
  -22.8396  -25.5604   18.9415 C   0  0  0  0  0  0  0  0  0  0  0  0
  -24.5618  -23.5317   20.2311 C   0  0  0  0  0  0  0  0  0  0  0  0
  -18.2378  -26.1749   22.4964 C   0  0  0  0  0  0  0  0  0  0  0  0
  -31.1921  -18.3029   23.3524 C   0  0  0  0  0  0  0  0  0  0  0  0
  -19.5545  -25.8350   23.1875 C   0  0  0  0  0  0  0  0  0  0  0  0
  -30.6595  -16.9645   22.8355 C   0  0  0  0  0  0  0  0  0  0  0  0
  -30.1501  -19.4133   23.2301 C   0  0  0  0  0  0  0  0  0  0  0  0
  -29.0365  -18.2364   21.3743 C   0  0  0  0  0  0  0  0  0  0  0  0
  -20.7214  -26.6090   22.5624 C   0  0  1  0  0  0  0  0  0  0  0  0
  -22.2611  -24.4640   19.8308 C   0  0  1  0  0  0  0  0  0  0  0  0
  -30.0727  -17.1015   21.4169 C   0  0  2  0  0  0  0  0  0  0  0  0
  -24.9372  -17.6035   17.4274 C   0  0  0  0  0  0  0  0  0  0  0  0
  -22.9421  -20.9661   22.7738 C   0  0  0  0  0  0  0  0  0  0  0  0
  -24.0428  -18.9380   21.8024 C   0  0  0  0  0  0  0  0  0  0  0  0
  -21.6613  -19.4433   21.2588 C   0  0  0  0  0  0  0  0  0  0  0  0
  -25.1520  -20.9084   15.5544 C   0  0  0  0  0  0  0  0  0  0  0  0
  -28.9587  -27.5600   19.0375 C   0  0  0  0  0  0  0  0  0  1  0  0
  -23.4915  -20.8683   20.2529 C   0  0  1  0  0  0  0  0  0  0  0  0
  -24.5652  -19.0433   17.1087 C   0  0  2  0  0  0  0  0  0  0  0  0
  -30.6599  -25.6618   18.8775 C   0  0  0  0  0  0  0  0  0  0  0  0
  -23.0444  -20.0799   21.5163 C   0  0  0  0  0  0  0  0  0  0  0  0
  -30.4215  -27.1637   18.9402 C   0  0  0  0  0  0  0  0  0  0  0  0
  -28.1974  -15.5276   21.1210 N   0  0  0  0  0  0  0  0  0  0  0  0
  -29.7480  -22.8903   18.9972 N   0  0  0  0  0  0  0  0  0  0  0  0
  -29.4997  -15.7888   20.9163 N   0  0  0  0  0  0  0  0  0  0  0  0
  -23.1394  -23.2967   19.9325 N   0  0  0  0  0  0  0  0  0  0  0  0
  -29.6422  -19.4868   21.8584 N   0  0  0  0  0  0  0  0  0  0  0  0
  -31.4788  -14.8967   19.9687 N   0  0  0  0  0  0  0  0  0  0  0  0
  -28.4038  -11.6860   19.1735 N   0  0  0  0  0  0  0  0  0  0  0  0
  -29.2712  -20.6340   19.8314 N   0  0  0  0  0  0  0  0  0  0  0  0
  -21.1182  -26.0009   21.3105 N   0  0  0  0  0  0  0  0  0  0  0  0
  -23.5708  -20.0598   19.0411 N   0  0  0  0  0  0  0  0  0  0  0  0
  -25.4263  -19.5139   15.9871 N   0  3  0  0  0  0  0  0  0  0  0  0
  -30.6087  -12.2588   18.9100 O   0  0  0  0  0  0  0  0  0  0  0  0
  -29.8612  -25.5521   16.6027 O   0  0  0  0  0  0  0  0  0  0  0  0
  -22.5395  -24.3707   22.1736 O   0  0  0  0  0  0  0  0  0  0  0  0
  -21.3789  -21.7876   19.6885 O   0  0  0  0  0  0  0  0  0  0  0  0
  -25.8091  -20.4781   18.6025 O   0  0  0  0  0  0  0  0  0  0  0  0
  -30.2815  -21.6965   21.6292 O   0  0  0  0  0  0  0  0  0  0  0  0
  -23.0278  -11.8427   20.6255 O   0  0  0  0  0  0  0  0  0  0  0  0
  -28.3043  -26.6696   19.9405 O   0  0  0  0  0  0  0  0  0  1  0  0
  -22.8243   -6.5028   21.9848 F   0  0  0  0  0  0  0  0  0  0  0  0
  -21.5657  -10.9903   22.8115 F   0  0  0  0  0  0  0  0  0  0  0  0
  -28.6751  -23.3330   15.5781 F   0  0  0  0  0  0  0  0  0  0  0  0
  -30.2370  -25.1247   20.0568 F   0  0  0  0  0  0  0  0  0  0  0  0
  -32.0072  -25.4580   18.8294 F   0  0  0  0  0  0  0  0  0  0  0  0
  -31.0742  -27.6488   20.0326 F   0  0  0  0  0  0  0  0  0  0  0  0
  -30.9870  -27.7618   17.8612 F   0  0  0  0  0  0  0  0  0  0  0  0
  -28.5991  -21.2739   17.3389 S   0  0  0  0  0  0  0  0  0  0  0  0
  1  2  1  0  0  0  0
  1  5  2  0  0  0  0
  2  6  2  0  0  0  0
  3  8  2  0  0  0  0
  3 15  1  0  0  0  0
  4  9  1  0  0  0  0
  4 15  2  0  0  0  0
  5 17  1  0  0  0  0
  6 19  1  0  0  0  0
  7 10  2  0  0  0  0
  7 18  1  0  0  0  0
  8 21  1  0  0  0  0
  9 21  2  0  0  0  0
 10 22  1  0  0  0  0
 11 12  2  0  0  0  0
 11 23  1  0  0  0  0
 12 24  1  0  0  0  0
 13 20  1  0  0  0  0
 13 22  2  0  0  0  0
 14 24  2  0  0  0  0
 14 25  1  0  0  0  0
 15 26  1  0  0  0  0
 16 26  1  0  0  0  0
 16 28  2  0  0  0  0
 16 31  1  0  0  0  0
 17 19  2  0  0  0  0
 17 37  1  0  0  0  0
 18 20  2  0  0  0  0
 18 38  1  0  0  0  0
 19 46  1  0  0  0  0
 20 39  1  0  0  0  0
 21 77  1  0  0  0  0
 22 78  1  0  0  0  0
 23 25  2  0  0  0  0
 23 77  1  0  0  0  0
 24 79  1  0  0  0  0
 25 80  1  0  0  0  0
 26 60  2  0  0  0  0
 27 29  2  0  0  0  0
 27 32  1  0  0  0  0
 27 61  1  0  0  0  0
 28 62  1  0  0  0  0
 28 65  1  0  0  0  0
 29 81  1  0  0  0  0
 29 86  1  0  0  0  0
 30 61  2  0  0  0  0
 30 67  1  0  0  0  0
 30 86  1  0  0  0  0
 31 66  1  0  0  0  0
 31 71  2  0  0  0  0
 32 57  1  0  0  0  0
 32 72  2  0  0  0  0
 33 47  1  0  0  0  0
 33 68  1  0  0  0  0
 33 73  2  0  0  0  0
 34 55  1  0  0  0  0
 34 63  1  0  0  0  0
 34 74  2  0  0  0  0
 35 56  1  0  0  0  0
 35 69  1  0  0  0  0
 35 75  2  0  0  0  0
 36 64  1  0  0  0  0
 36 67  1  0  0  0  0
 36 76  2  0  0  0  0
 37 40  1  0  0  0  0
 38 47  1  0  0  0  0
 39 63  1  0  0  0  0
 40 42  1  0  0  0  0
 41 43  1  0  0  0  0
 41 44  1  0  0  0  0
 42 46  1  0  0  0  0
 43 48  1  0  0  0  0
 44 64  1  0  0  0  0
 45 48  1  0  0  0  0
 45 64  1  0  0  0  0
 46 68  1  0  0  0  0
 47 63  1  0  0  0  0
 48 62  1  0  0  0  0
 49 56  1  0  0  0  0
 50 58  1  0  0  0  0
 51 58  1  0  0  0  0
 52 58  1  0  0  0  0
 53 70  1  0  0  0  0
 54 59  1  0  0  0  0
 54 78  1  0  0  0  0
 55 58  1  0  0  0  0
 55 69  1  0  0  0  0
 56 70  1  0  0  0  0
 57 59  1  0  0  0  0
 57 82  1  0  0  0  0
 57 83  1  0  0  0  0
 59 84  1  0  0  0  0
 59 85  1  0  0  0  0
 60 62  1  0  0  0  0
M  CHG  1  70   1
M  ISO  4  36 100  54 101  67 100  78 101
M  END
> <Batch ID>
0177

> <Smiles>
CNC(C)C(=O)NC(C(=O)N1Cc2cc([101O:1][101CH2:1]C(F)(F)C(F)(F)C(=O)c3nc([100NH:0][100C:0](=O)N4CCCC(n5nc(-c6ccc(Oc7ccc(F)cc7F)cc6)c(C(N)=O)c5N)C4)sc3F)ccc2CC1C(=O)NC1CCCc2ccccc21)C(C)(C)C

> <Shape>
0.294

> <Color>
0.096

> <Negative vol penalty>
0.000

$$$$

  -OEChem-04052304413D

 86 94  0     1  0  0  0  0  0999 V2000
  -17.5664  -31.9544   25.6964 C   0  0  0  0  0  0  0  0  0  0  0  0
  -18.6516  -31.2928   26.2619 C   0  0  0  0  0  0  0  0  0  0  0  0
  -24.3558   -8.9662   20.1683 C   0  0  0  0  0  0  0  0  0  0  0  0
  -22.8759  -10.5467   21.2402 C   0  0  0  0  0  0  0  0  0  0  0  0
  -17.1008  -31.5779   24.4373 C   0  0  0  0  0  0  0  0  0  0  0  0
  -19.2713  -30.2534   25.5690 C   0  0  0  0  0  0  0  0  0  0  0  0
  -25.6990  -27.2442   24.5961 C   0  0  0  0  0  0  0  0  0  0  0  0
  -23.5794   -7.9123   20.6503 C   0  0  0  0  0  0  0  0  0  0  0  0
  -22.0994   -9.4928   21.7221 C   0  0  0  0  0  0  0  0  0  0  0  0
  -26.3248  -25.9996   24.6501 C   0  0  0  0  0  0  0  0  0  0  0  0
  -23.1774   -6.2439   23.5622 C   0  0  0  0  0  0  0  0  0  0  0  0
  -23.8425   -5.1529   24.1216 C   0  0  0  0  0  0  0  0  0  0  0  0
  -25.4842  -25.4880   22.4477 C   0  0  0  0  0  0  0  0  0  0  0  0
  -22.8575   -3.7008   22.4608 C   0  0  0  0  0  0  0  0  0  0  0  0
  -24.0040  -10.2834   20.4634 C   0  0  0  0  0  0  0  0  0  0  0  0
  -24.6497  -12.0547   18.7449 C   0  0  0  0  0  0  0  0  0  0  0  0
  -17.7211  -30.5398   23.7244 C   0  0  0  0  0  0  0  0  0  0  0  0
  -24.9507  -27.6163   23.4700 C   0  0  0  0  0  0  0  0  0  0  0  0
  -18.8127  -29.8617   24.2998 C   0  0  0  0  0  0  0  0  0  0  0  0
  -24.8519  -26.7389   22.3808 C   0  0  0  0  0  0  0  0  0  0  0  0
  -22.4512   -8.1757   21.4271 C   0  0  0  0  0  0  0  0  0  0  0  0
  -26.2151  -25.1201   23.5770 C   0  0  0  0  0  0  0  0  0  0  0  0
  -22.3523   -6.0633   22.4521 C   0  0  0  0  0  0  0  0  0  0  0  0
  -23.6826   -3.8814   23.5709 C   0  0  0  0  0  0  0  0  0  0  0  0
  -22.1923   -4.7918   21.9014 C   0  0  0  0  0  0  0  0  0  0  0  0
  -24.8060  -11.3724   19.9663 C   0  0  0  0  0  0  0  0  0  0  0  0
  -28.4724  -20.9087   19.4316 C   0  0  0  0  0  0  0  0  0  0  0  0
  -25.6519  -12.9939   18.7456 C   0  0  0  0  0  0  0  0  0  0  0  0
  -27.3102  -20.8740   18.6897 C   0  0  0  0  0  0  0  0  0  0  0  0
  -27.8283  -18.8706   19.9228 C   0  0  0  0  0  0  0  0  0  0  0  0
  -23.6849  -11.8572   17.7029 C   0  0  0  0  0  0  0  0  0  0  0  0
  -29.3716  -22.0742   19.4969 C   0  0  0  0  0  0  0  0  0  0  0  0
  -21.9045  -28.3581   22.9460 C   0  0  0  0  0  0  0  0  0  0  0  0
  -22.9907  -29.0514   19.9691 C   0  0  0  0  0  0  0  0  0  0  0  0
  -25.3559  -28.5551   17.5594 C   0  0  0  0  0  0  0  0  0  0  0  0
  -28.6352  -16.9317   21.3141 C   0  0  0  0  0  0  0  0  0  0  0  0
  -17.1526  -30.1368   22.3869 C   0  0  0  0  0  0  0  0  0  0  0  0
  -24.3038  -28.9732   23.4162 C   0  0  0  0  0  0  0  0  0  0  0  0
  -24.0771  -27.0987   21.1403 C   0  0  0  0  0  0  0  0  0  0  0  0
  -18.1001  -29.2743   21.5572 C   0  0  0  0  0  0  0  0  0  0  0  0
  -29.6405  -13.5525   21.8116 C   0  0  0  0  0  0  0  0  0  0  0  0
  -18.7011  -28.1649   22.4145 C   0  0  0  0  0  0  0  0  0  0  0  0
  -28.4595  -12.7402   21.2754 C   0  0  0  0  0  0  0  0  0  0  0  0
  -29.1789  -14.8264   22.5171 C   0  0  0  0  0  0  0  0  0  0  0  0
  -27.1018  -14.8702   21.1931 C   0  0  0  0  0  0  0  0  0  0  0  0
  -19.5270  -28.7457   23.5686 C   0  0  1  0  0  0  0  0  0  0  0  0
  -23.1400  -29.0417   22.4322 C   0  0  1  0  0  0  0  0  0  0  0  0
  -27.5202  -13.6104   20.4175 C   0  0  2  0  0  0  0  0  0  0  0  0
  -25.9544  -29.2305   15.2179 C   0  0  0  0  0  0  0  0  0  0  0  0
  -31.3649  -23.3834   20.1912 C   0  0  0  0  0  0  0  0  0  0  0  0
  -31.6295  -20.9047   19.9621 C   0  0  0  0  0  0  0  0  0  0  0  0
  -20.8267  -27.1947   18.8829 C   0  0  0  0  0  0  0  0  0  0  0  0
  -22.0500  -27.1606   16.6988 C   0  0  0  0  0  0  0  0  0  0  0  0
  -21.1376  -29.3078   17.5818 C   0  0  0  0  0  0  0  0  0  0  0  0
  -27.9157  -29.7542   18.4358 C   0  0  0  0  0  0  0  0  0  0  0  0
  -29.3232  -22.9835   22.3793 C   0  0  0  0  0  0  0  0  0  0  0  0
  -28.9173  -22.7120   23.8327 C   0  0  0  0  0  0  0  0  0  0  0  0
  -30.2444  -21.8753   21.8482 C   0  0  0  0  0  0  0  0  0  0  0  0
  -28.0232  -23.8100   24.3959 C   0  0  0  0  0  0  0  0  0  1  0  0
  -23.1636  -28.2746   18.6863 C   0  0  1  0  0  0  0  0  0  0  0  0
  -26.1360  -29.5312   16.6975 C   0  0  2  0  0  0  0  0  0  0  0  0
  -30.6539  -22.0268   20.3538 C   0  0  0  0  0  0  0  0  0  0  0  0
  -21.8075  -27.9766   17.9865 C   0  0  0  0  0  0  0  0  0  0  0  0
  -25.8271  -11.8383   20.6903 N   0  0  0  0  0  0  0  0  0  0  0  0
  -28.7708  -19.7610   20.1396 N   0  0  0  0  0  0  0  0  0  0  0  0
  -26.3217  -12.8234   19.9214 N   0  0  0  0  0  0  0  0  0  0  0  0
  -23.4574  -28.4342   21.1382 N   0  0  0  0  0  0  0  0  0  0  0  0
  -28.2964  -15.6020   21.6428 N   0  0  0  0  0  0  0  0  0  0  0  0
  -26.0168  -13.9406   17.8551 N   0  0  0  0  0  0  0  0  0  0  0  0
  -22.7251  -10.8486   17.8634 N   0  0  0  0  0  0  0  0  0  0  0  0
  -27.7381  -17.5584   20.4497 N   0  0  0  0  0  0  0  0  0  0  0  0
  -20.8161  -29.1971   23.0905 N   0  0  0  0  0  0  0  0  0  0  0  0
  -24.1021  -29.0374   17.8704 N   0  0  0  0  0  0  0  0  0  0  0  0
  -27.5897  -29.4572   17.0172 N   0  3  0  0  0  0  0  0  0  0  0  0
  -23.6843  -12.5438   16.6530 O   0  0  0  0  0  0  0  0  0  0  0  0
  -29.0504  -23.0595   18.8334 O   0  0  0  0  0  0  0  0  0  0  0  0
  -21.9360  -27.1580   23.1916 O   0  0  0  0  0  0  0  0  0  0  0  0
  -22.4674  -30.1680   19.9340 O   0  0  0  0  0  0  0  0  0  0  0  0
  -25.8116  -27.4713   17.9177 O   0  0  0  0  0  0  0  0  0  0  0  0
  -29.6609  -17.4653   21.7444 O   0  0  0  0  0  0  0  0  0  0  0  0
  -21.6932   -7.1476   21.8974 O   0  0  0  0  0  0  0  0  0  0  0  0
  -26.8244  -23.9043   23.6275 O   0  0  0  0  0  0  0  0  0  1  0  0
  -24.3226   -2.8341   24.1073 F   0  0  0  0  0  0  0  0  0  0  0  0
  -21.4019   -4.6123   20.8343 F   0  0  0  0  0  0  0  0  0  0  0  0
  -26.8399  -21.8725   17.9374 F   0  0  0  0  0  0  0  0  0  0  0  0
  -26.5534  -19.3465   18.8773 S   0  0  0  0  0  0  0  0  0  0  0  0
  1  2  1  0  0  0  0
  1  5  2  0  0  0  0
  2  6  2  0  0  0  0
  3  8  2  0  0  0  0
  3 15  1  0  0  0  0
  4  9  1  0  0  0  0
  4 15  2  0  0  0  0
  5 17  1  0  0  0  0
  6 19  1  0  0  0  0
  7 10  2  0  0  0  0
  7 18  1  0  0  0  0
  8 21  1  0  0  0  0
  9 21  2  0  0  0  0
 10 22  1  0  0  0  0
 11 12  2  0  0  0  0
 11 23  1  0  0  0  0
 12 24  1  0  0  0  0
 13 20  1  0  0  0  0
 13 22  2  0  0  0  0
 14 24  2  0  0  0  0
 14 25  1  0  0  0  0
 15 26  1  0  0  0  0
 16 26  1  0  0  0  0
 16 28  2  0  0  0  0
 16 31  1  0  0  0  0
 17 19  2  0  0  0  0
 17 37  1  0  0  0  0
 18 20  2  0  0  0  0
 18 38  1  0  0  0  0
 19 46  1  0  0  0  0
 20 39  1  0  0  0  0
 21 81  1  0  0  0  0
 22 82  1  0  0  0  0
 23 25  2  0  0  0  0
 23 81  1  0  0  0  0
 24 83  1  0  0  0  0
 25 84  1  0  0  0  0
 26 64  2  0  0  0  0
 27 29  2  0  0  0  0
 27 32  1  0  0  0  0
 27 65  1  0  0  0  0
 28 66  1  0  0  0  0
 28 69  1  0  0  0  0
 29 85  1  0  0  0  0
 29 86  1  0  0  0  0
 30 65  2  0  0  0  0
 30 71  1  0  0  0  0
 30 86  1  0  0  0  0
 31 70  1  0  0  0  0
 31 75  2  0  0  0  0
 32 62  1  0  0  0  0
 32 76  2  0  0  0  0
 33 47  1  0  0  0  0
 33 72  1  0  0  0  0
 33 77  2  0  0  0  0
 34 60  1  0  0  0  0
 34 67  1  0  0  0  0
 34 78  2  0  0  0  0
 35 61  1  0  0  0  0
 35 73  1  0  0  0  0
 35 79  2  0  0  0  0
 36 68  1  0  0  0  0
 36 71  1  0  0  0  0
 36 80  2  0  0  0  0
 37 40  1  0  0  0  0
 38 47  1  0  0  0  0
 39 67  1  0  0  0  0
 40 42  1  0  0  0  0
 41 43  1  0  0  0  0
 41 44  1  0  0  0  0
 42 46  1  0  0  0  0
 43 48  1  0  0  0  0
 44 68  1  0  0  0  0
 45 48  1  0  0  0  0
 45 68  1  0  0  0  0
 46 72  1  0  0  0  0
 47 67  1  0  0  0  0
 48 66  1  0  0  0  0
 49 61  1  0  0  0  0
 50 62  1  0  0  0  0
 51 62  1  0  0  0  0
 52 63  1  0  0  0  0
 53 63  1  0  0  0  0
 54 63  1  0  0  0  0
 55 74  1  0  0  0  0
 56 57  1  0  0  0  0
 56 58  1  0  0  0  0
 57 59  1  0  0  0  0
 58 62  1  0  0  0  0
 59 82  1  0  0  0  0
 60 63  1  0  0  0  0
 60 73  1  0  0  0  0
 61 74  1  0  0  0  0
 64 66  1  0  0  0  0
M  CHG  1  74   1
M  ISO  4  36 100  59 101  71 100  82 101
M  END
> <Batch ID>
0177

> <Smiles>
CNC(C)C(=O)NC(C(=O)N1Cc2cc([101O:1][101CH2:1]CCCC(C)(C)C(=O)c3nc([100NH:0][100C:0](=O)N4CCCC(n5nc(-c6ccc(Oc7ccc(F)cc7F)cc6)c(C(N)=O)c5N)C4)sc3F)ccc2CC1C(=O)NC1CCCc2ccccc21)C(C)(C)C

> <Shape>
0.240

> <Color>
0.105

> <Negative vol penalty>
0.000

$$$$

  -OEChem-04052304413D

 84 92  0     1  0  0  0  0  0999 V2000
  -22.0655  -11.4427   19.9503 C   0  0  0  0  0  0  0  0  0  0  0  0
  -21.6644  -12.7713   20.0466 C   0  0  0  0  0  0  0  0  0  0  0  0
  -30.2918  -28.6371   19.7465 C   0  0  0  0  0  0  0  0  0  0  0  0
  -29.2261  -26.5142   20.1876 C   0  0  0  0  0  0  0  0  0  0  0  0
  -23.3722  -11.0846   20.2792 C   0  0  0  0  0  0  0  0  0  0  0  0
  -22.5695  -13.7426   20.4729 C   0  0  0  0  0  0  0  0  0  0  0  0
  -22.4074  -17.9305   17.6303 C   0  0  0  0  0  0  0  0  0  0  0  0
  -31.5429  -28.0443   19.9161 C   0  0  0  0  0  0  0  0  0  0  0  0
  -30.4772  -25.9213   20.3571 C   0  0  0  0  0  0  0  0  0  0  0  0
  -21.3572  -18.8175   17.8627 C   0  0  0  0  0  0  0  0  0  0  0  0
  -32.9720  -24.7676   18.3910 C   0  0  0  0  0  0  0  0  0  0  0  0
  -33.1923  -23.5354   17.7757 C   0  0  0  0  0  0  0  0  0  0  0  0
  -20.3092  -26.7542   21.7095 C   0  0  0  0  0  0  0  0  0  0  0  0
  -22.8301  -20.2087   19.1721 C   0  0  0  0  0  0  0  0  0  0  0  0
  -33.6206  -22.5349   19.9327 C   0  0  0  0  0  0  0  0  0  0  0  0
  -18.2933  -27.8693   23.1719 C   0  0  0  0  0  0  0  0  0  0  0  0
  -29.1333  -27.8721   19.8823 C   0  0  0  0  0  0  0  0  0  0  0  0
  -19.0438  -26.1789   21.6766 C   0  0  0  0  0  0  0  0  0  0  0  0
  -27.1104  -28.6016   18.5100 C   0  0  0  0  0  0  0  0  0  0  0  0
  -24.2966  -12.0535   20.7006 C   0  0  0  0  0  0  0  0  0  0  0  0
  -23.6762  -18.1707   18.1770 C   0  0  0  0  0  0  0  0  0  0  0  0
  -23.8895  -13.3969   20.8091 C   0  0  0  0  0  0  0  0  0  0  0  0
  -23.8953  -19.3245   18.9430 C   0  0  0  0  0  0  0  0  0  0  0  0
  -31.6357  -26.6864   20.2213 C   0  0  0  0  0  0  0  0  0  0  0  0
  -21.5677  -19.9553   18.6361 C   0  0  0  0  0  0  0  0  0  0  0  0
  -33.0761  -24.8836   19.7772 C   0  0  0  0  0  0  0  0  0  0  0  0
  -33.5165  -22.4190   18.5465 C   0  0  0  0  0  0  0  0  0  0  0  0
  -33.4004  -23.7672   20.5480 C   0  0  0  0  0  0  0  0  0  0  0  0
  -18.0111  -26.7410   22.4189 C   0  0  0  0  0  0  0  0  0  0  0  0
  -27.8406  -28.4841   19.7079 C   0  0  0  0  0  0  0  0  0  0  0  0
  -20.4885  -27.8820   22.4941 C   0  0  0  0  0  0  0  0  0  0  0  0
  -25.9579  -29.2546   18.8732 C   0  0  0  0  0  0  0  0  0  0  0  0
  -19.7761  -24.0787   20.6190 C   0  0  0  0  0  0  0  0  0  0  0  0
  -18.8022  -24.9760   20.8554 C   0  0  0  0  0  0  0  0  0  0  0  0
  -27.4440  -28.1598   17.1874 C   0  0  0  0  0  0  0  0  0  0  0  0
  -19.5988  -22.8389   19.8038 C   0  0  0  0  0  0  0  0  0  0  0  0
  -25.5603  -16.6413   20.2301 C   0  0  0  0  0  0  0  0  0  0  0  0
  -27.6730  -18.9664   19.4222 C   0  0  0  0  0  0  0  0  0  0  0  0
  -28.1936  -22.1169   18.2178 C   0  0  0  0  0  0  0  0  0  0  0  0
  -22.1874  -29.5878   23.2358 C   0  0  0  0  0  0  0  0  0  0  0  0
  -25.6847  -11.6113   21.0906 C   0  0  0  0  0  0  0  0  0  0  0  0
  -24.8054  -17.2179   17.8948 C   0  0  0  0  0  0  0  0  0  0  0  0
  -25.2438  -19.6387   19.5357 C   0  0  0  0  0  0  0  0  0  0  0  0
  -26.6882  -12.7585   21.1750 C   0  0  0  0  0  0  0  0  0  0  0  0
  -24.6283  -32.1200   22.6817 C   0  0  0  0  0  0  0  0  0  0  0  0
  -26.0944  -13.9314   21.9486 C   0  0  0  0  0  0  0  0  0  0  0  0
  -25.6350  -31.4536   21.7412 C   0  0  0  0  0  0  0  0  0  0  0  0
  -24.0737  -31.1348   23.7090 C   0  0  0  0  0  0  0  0  0  0  0  0
  -24.5172  -29.2349   22.2047 C   0  0  0  0  0  0  0  0  0  0  0  0
  -24.8492  -14.4832   21.2438 C   0  0  1  0  0  0  0  0  0  0  0  0
  -25.9253  -17.2959   18.9278 C   0  0  1  0  0  0  0  0  0  0  0  0
  -25.0548  -30.1722   21.1111 C   0  0  2  0  0  0  0  0  0  0  0  0
  -29.4717  -24.1117   17.3905 C   0  0  0  0  0  0  0  0  0  0  0  0
  -27.9738  -19.5543   22.4011 C   0  0  0  0  0  0  0  0  0  0  0  0
  -29.0291  -21.7413   21.7919 C   0  0  0  0  0  0  0  0  0  0  0  0
  -30.1134  -19.6017   21.1072 C   0  0  0  0  0  0  0  0  0  0  0  0
  -28.1787  -21.1167   15.4323 C   0  0  0  0  0  0  0  0  0  0  0  0
  -20.8304  -21.9680   19.6663 C   0  0  0  0  0  0  0  0  0  1  0  0
  -27.9957  -20.3459   19.9437 C   0  0  1  0  0  0  0  0  0  0  0  0
  -29.1418  -22.6457   17.1567 C   0  0  2  0  0  0  0  0  0  0  0  0
  -28.7520  -20.3042   21.3016 C   0  0  0  0  0  0  0  0  0  0  0  0
  -19.5097  -28.4564   23.2288 N   0  0  0  0  0  0  0  0  0  0  0  0
  -27.2054  -29.0197   20.7537 N   0  0  0  0  0  0  0  0  0  0  0  0
  -26.0639  -29.4801   20.2141 N   0  0  0  0  0  0  0  0  0  0  0  0
  -26.3145  -18.6734   19.2366 N   0  0  0  0  0  0  0  0  0  0  0  0
  -23.5374  -29.9479   23.0392 N   0  0  0  0  0  0  0  0  0  0  0  0
  -24.8744  -29.6523   18.1730 N   0  0  0  0  0  0  0  0  0  0  0  0
  -28.6676  -27.5054   16.9903 N   0  0  0  0  0  0  0  0  0  0  0  0
  -21.7816  -28.4605   22.5222 N   0  0  0  0  0  0  0  0  0  0  0  0
  -25.2298  -15.3046   20.1147 N   0  0  0  0  0  0  0  0  0  0  0  0
  -28.7211  -21.0264   18.8764 N   0  0  0  0  0  0  0  0  0  0  0  0
  -28.5319  -22.5111   15.8036 N   0  3  0  0  0  0  0  0  0  0  0  0
  -26.6869  -28.3547   16.2064 O   0  0  0  0  0  0  0  0  0  0  0  0
  -18.5277  -22.5464   19.2805 O   0  0  0  0  0  0  0  0  0  0  0  0
  -25.5786  -17.2999   21.2634 O   0  0  0  0  0  0  0  0  0  0  0  0
  -28.5927  -18.1805   19.1814 O   0  0  0  0  0  0  0  0  0  0  0  0
  -27.0964  -22.6230   18.4425 O   0  0  0  0  0  0  0  0  0  0  0  0
  -21.4387  -30.2478   23.9609 O   0  0  0  0  0  0  0  0  0  0  0  0
  -17.5071  -24.8686   20.3939 O   0  0  0  0  0  0  0  0  0  0  0  0
  -32.8564  -26.1075   20.3866 O   0  0  0  0  0  0  0  0  0  0  0  0
  -20.5442  -20.8224   18.8651 O   0  0  0  0  0  0  0  0  0  1  0  0
  -33.7265  -21.2354   17.9557 F   0  0  0  0  0  0  0  0  0  0  0  0
  -33.5006  -23.8721   21.8802 F   0  0  0  0  0  0  0  0  0  0  0  0
  -16.7774  -26.2201   22.4155 F   0  0  0  0  0  0  0  0  0  0  0  0
  1  2  1  0  0  0  0
  1  5  2  0  0  0  0
  2  6  2  0  0  0  0
  3  8  2  0  0  0  0
  3 17  1  0  0  0  0
  4  9  1  0  0  0  0
  4 17  2  0  0  0  0
  5 20  1  0  0  0  0
  6 22  1  0  0  0  0
  7 10  2  0  0  0  0
  7 21  1  0  0  0  0
  8 24  1  0  0  0  0
  9 24  2  0  0  0  0
 10 25  1  0  0  0  0
 11 12  2  0  0  0  0
 11 26  1  0  0  0  0
 12 27  1  0  0  0  0
 13 18  1  0  0  0  0
 13 31  2  0  0  0  0
 14 23  1  0  0  0  0
 14 25  2  0  0  0  0
 15 27  2  0  0  0  0
 15 28  1  0  0  0  0
 16 29  1  0  0  0  0
 16 62  2  0  0  0  0
 17 30  1  0  0  0  0
 18 29  2  0  0  0  0
 18 34  1  0  0  0  0
 19 30  1  0  0  0  0
 19 32  2  0  0  0  0
 19 35  1  0  0  0  0
 20 22  2  0  0  0  0
 20 41  1  0  0  0  0
 21 23  2  0  0  0  0
 21 42  1  0  0  0  0
 22 50  1  0  0  0  0
 23 43  1  0  0  0  0
 24 80  1  0  0  0  0
 25 81  1  0  0  0  0
 26 28  2  0  0  0  0
 26 80  1  0  0  0  0
 27 82  1  0  0  0  0
 28 83  1  0  0  0  0
 29 84  1  0  0  0  0
 30 63  2  0  0  0  0
 31 62  1  0  0  0  0
 31 69  1  0  0  0  0
 32 64  1  0  0  0  0
 32 67  1  0  0  0  0
 33 34  2  0  0  0  0
 33 36  1  0  0  0  0
 34 79  1  0  0  0  0
 35 68  1  0  0  0  0
 35 73  2  0  0  0  0
 36 58  1  0  0  0  0
 36 74  2  0  0  0  0
 37 51  1  0  0  0  0
 37 70  1  0  0  0  0
 37 75  2  0  0  0  0
 38 59  1  0  0  0  0
 38 65  1  0  0  0  0
 38 76  2  0  0  0  0
 39 60  1  0  0  0  0
 39 71  1  0  0  0  0
 39 77  2  0  0  0  0
 40 66  1  0  0  0  0
 40 69  1  0  0  0  0
 40 78  2  0  0  0  0
 41 44  1  0  0  0  0
 42 51  1  0  0  0  0
 43 65  1  0  0  0  0
 44 46  1  0  0  0  0
 45 47  1  0  0  0  0
 45 48  1  0  0  0  0
 46 50  1  0  0  0  0
 47 52  1  0  0  0  0
 48 66  1  0  0  0  0
 49 52  1  0  0  0  0
 49 66  1  0  0  0  0
 50 70  1  0  0  0  0
 51 65  1  0  0  0  0
 52 64  1  0  0  0  0
 53 60  1  0  0  0  0
 54 61  1  0  0  0  0
 55 61  1  0  0  0  0
 56 61  1  0  0  0  0
 57 72  1  0  0  0  0
 58 81  1  0  0  0  0
 59 61  1  0  0  0  0
 59 71  1  0  0  0  0
 60 72  1  0  0  0  0
 63 64  1  0  0  0  0
M  CHG  1  72   1
M  ISO  4  40 100  58 101  69 100  81 101
M  END
> <Batch ID>
0177

> <Smiles>
CNC(C)C(=O)NC(C(=O)N1Cc2cc([101O:1][101CH2:1]C(=O)CC(=O)c3cc([100NH:0][100C:0](=O)N4CCCC(n5nc(-c6ccc(Oc7ccc(F)cc7F)cc6)c(C(N)=O)c5N)C4)ncc3F)ccc2CC1C(=O)NC1CCCc2ccccc21)C(C)(C)C

> <Shape>
0.246

> <Color>
0.060

> <Negative vol penalty>
0.000

$$$$

  -OEChem-04052304413D

 88 96  0     1  0  0  0  0  0999 V2000
  -28.4345  -11.3081   19.1518 C   0  0  0  0  0  0  0  0  0  0  0  0
  -27.9223  -11.9627   20.2674 C   0  0  0  0  0  0  0  0  0  0  0  0
  -26.2500  -27.5397   21.3129 C   0  0  0  0  0  0  0  0  0  0  0  0
  -25.3719  -28.2515   19.1776 C   0  0  0  0  0  0  0  0  0  0  0  0
  -29.4857  -11.8762   18.4333 C   0  0  0  0  0  0  0  0  0  0  0  0
  -28.4618  -13.1853   20.6658 C   0  0  0  0  0  0  0  0  0  0  0  0
  -26.5789  -19.3940   23.7027 C   0  0  0  0  0  0  0  0  0  0  0  0
  -27.5186  -27.4098   20.7480 C   0  0  0  0  0  0  0  0  0  0  0  0
  -26.6406  -28.1216   18.6126 C   0  0  0  0  0  0  0  0  0  0  0  0
  -26.9462  -20.2346   24.7526 C   0  0  0  0  0  0  0  0  0  0  0  0
  -30.0736  -29.4422   19.8680 C   0  0  0  0  0  0  0  0  0  0  0  0
  -31.1564  -29.9570   20.5807 C   0  0  0  0  0  0  0  0  0  0  0  0
  -28.7078  -21.1590   23.3883 C   0  0  0  0  0  0  0  0  0  0  0  0
  -32.1466  -27.7549   20.6668 C   0  0  0  0  0  0  0  0  0  0  0  0
  -25.1766  -27.9605   20.5277 C   0  0  0  0  0  0  0  0  0  0  0  0
  -23.3182  -29.2405   21.7176 C   0  0  0  0  0  0  0  0  0  0  0  0
  -30.0320  -13.1110   18.8174 C   0  0  0  0  0  0  0  0  0  0  0  0
  -27.2814  -19.4220   22.4894 C   0  0  0  0  0  0  0  0  0  0  0  0
  -29.5222  -13.7697   19.9526 C   0  0  0  0  0  0  0  0  0  0  0  0
  -28.3458  -20.3196   22.3236 C   0  0  0  0  0  0  0  0  0  0  0  0
  -27.7140  -27.7007   19.3979 C   0  0  0  0  0  0  0  0  0  0  0  0
  -28.0126  -21.1152   24.5965 C   0  0  0  0  0  0  0  0  0  0  0  0
  -30.0272  -28.0837   19.5547 C   0  0  0  0  0  0  0  0  0  0  0  0
  -32.1929  -29.1134   20.9801 C   0  0  0  0  0  0  0  0  0  0  0  0
  -31.0638  -27.2401   19.9541 C   0  0  0  0  0  0  0  0  0  0  0  0
  -23.8657  -28.0944   21.1106 C   0  0  0  0  0  0  0  0  0  0  0  0
  -21.5688  -23.2188   26.6734 C   0  0  0  0  0  0  0  0  0  0  0  0
  -21.4535  -23.2280   28.0477 C   0  0  0  0  0  0  0  0  0  0  0  0
  -22.0585  -28.8549   22.1060 C   0  0  0  0  0  0  0  0  0  0  0  0
  -23.6833  -23.5064   27.1797 C   0  0  0  0  0  0  0  0  0  0  0  0
  -23.8966  -30.5379   21.9127 C   0  0  0  0  0  0  0  0  0  0  0  0
  -20.4246  -23.0500   25.7411 C   0  0  0  0  0  0  0  0  0  0  0  0
  -29.0079  -17.3175   20.8480 C   0  0  0  0  0  0  0  0  0  0  0  0
  -29.0475  -19.6744   18.6196 C   0  0  0  0  0  0  0  0  0  0  0  0
  -25.8835  -23.7729   25.9829 C   0  0  0  0  0  0  0  0  0  0  0  0
  -28.7860  -23.0043   17.9195 C   0  0  0  0  0  0  0  0  0  0  0  0
  -19.6181  -23.6091   23.4694 C   0  0  0  0  0  0  0  0  0  0  0  0
  -31.1989  -13.6627   18.0374 C   0  0  0  0  0  0  0  0  0  0  0  0
  -26.8557  -18.5278   21.3573 C   0  0  0  0  0  0  0  0  0  0  0  0
  -29.1195  -20.4028   21.0341 C   0  0  0  0  0  0  0  0  0  0  0  0
  -31.4654  -15.1419   18.3046 C   0  0  0  0  0  0  0  0  0  0  0  0
  -18.5406  -25.8190   20.9293 C   0  0  0  0  0  0  0  0  0  0  0  0
  -31.4399  -15.4267   19.8029 C   0  0  0  0  0  0  0  0  0  0  0  0
  -19.7271  -26.7701   20.7510 C   0  0  0  0  0  0  0  0  0  0  0  0
  -18.9976  -24.3859   21.1985 C   0  0  0  0  0  0  0  0  0  0  0  0
  -21.1362  -25.1821   22.1209 C   0  0  0  0  0  0  0  0  0  0  0  0
  -30.0642  -15.1094   20.4015 C   0  0  1  0  0  0  0  0  0  0  0  0
  -27.9677  -18.2771   20.3433 C   0  0  1  0  0  0  0  0  0  0  0  0
  -20.7285  -26.6502   21.9173 C   0  0  1  0  0  0  0  0  0  0  0  0
  -28.9010  -24.6312   16.0124 C   0  0  0  0  0  0  0  0  0  0  0  0
  -29.7209  -23.9158   25.5386 C   0  0  0  0  0  0  0  0  0  0  0  0
  -32.0893  -19.4352   18.6021 C   0  0  0  0  0  0  0  0  0  0  0  0
  -32.1875  -21.6548   17.4480 C   0  0  0  0  0  0  0  0  0  0  0  0
  -31.0527  -19.7266   16.3449 C   0  0  0  0  0  0  0  0  0  0  0  0
  -25.9913  -23.8798   18.3458 C   0  0  0  0  0  0  0  0  0  0  0  0
  -27.3456  -23.9721   26.3702 C   0  0  0  0  0  0  0  0  0  0  0  0
  -29.9474  -20.8494   18.3221 C   0  0  1  0  0  0  0  0  0  0  0  0
  -27.9956  -23.7520   16.8609 C   0  0  2  0  0  0  0  0  0  0  0  0
  -28.3199  -23.3411   25.3754 C   0  0  2  0  0  0  0  0  0  1  0  0
  -20.2607  -23.0869   28.9073 C   0  0  0  0  0  0  0  0  0  0  0  0
  -31.3061  -20.4138   17.7044 C   0  0  0  0  0  0  0  0  0  0  0  0
  -23.0229  -27.0582   21.1112 N   0  0  0  0  0  0  0  0  0  0  0  0
  -22.8466  -23.3787   26.1739 N   0  0  0  0  0  0  0  0  0  0  0  0
  -21.9331  -27.5518   21.7234 N   0  0  0  0  0  0  0  0  0  0  0  0
  -28.6690  -19.5037   19.9588 N   0  0  0  0  0  0  0  0  0  0  0  0
  -19.9353  -24.3573   22.3224 N   0  0  0  0  0  0  0  0  0  0  0  0
  -21.0571  -29.5066   22.7343 N   0  0  0  0  0  0  0  0  0  0  0  0
  -25.2010  -30.7639   21.4525 N   0  0  0  0  0  0  0  0  0  0  0  0
  -25.0854  -23.6890   27.1208 N   0  0  0  0  0  0  0  0  0  0  0  0
  -20.5579  -23.6804   24.5037 N   0  0  0  0  0  0  0  0  0  0  0  0
  -29.1235  -16.1653   20.0940 N   0  0  0  0  0  0  0  0  0  0  0  0
  -29.1718  -21.7550   17.4815 N   0  0  0  0  0  0  0  0  0  0  0  0
  -26.9642  -24.6176   17.4996 N   0  3  0  0  0  0  0  0  0  0  0  0
  -23.2812  -31.4641   22.4930 O   0  0  0  0  0  0  0  0  0  0  0  0
  -19.4721  -22.3545   26.0831 O   0  0  0  0  0  0  0  0  0  0  0  0
  -29.6585  -17.6020   21.8468 O   0  0  0  0  0  0  0  0  0  0  0  0
  -28.6876  -18.9394   17.6966 O   0  0  0  0  0  0  0  0  0  0  0  0
  -25.5207  -23.7043   24.8133 O   0  0  0  0  0  0  0  0  0  0  0  0
  -29.0394  -23.4822   19.0231 O   0  0  0  0  0  0  0  0  0  0  0  0
  -18.5707  -22.9638   23.5788 O   0  0  0  0  0  0  0  0  0  0  0  0
  -28.9519  -27.5743   18.8463 O   0  0  0  0  0  0  0  0  0  0  0  0
  -28.3736  -21.9362   25.6200 O   0  0  0  0  0  0  0  0  0  1  0  0
  -33.2335  -29.6082   21.6633 F   0  0  0  0  0  0  0  0  0  0  0  0
  -31.0254  -25.9344   19.6550 F   0  0  0  0  0  0  0  0  0  0  0  0
  -19.0870  -22.9209   28.2168 F   0  0  0  0  0  0  0  0  0  0  0  0
  -20.3093  -22.0160   29.7631 F   0  0  0  0  0  0  0  0  0  0  0  0
  -20.0451  -24.1739   29.7136 F   0  0  0  0  0  0  0  0  0  0  0  0
  -23.0018  -23.4431   28.7534 S   0  0  0  0  0  0  0  0  0  0  0  0
  1  2  1  0  0  0  0
  1  5  2  0  0  0  0
  2  6  2  0  0  0  0
  3  8  2  0  0  0  0
  3 15  1  0  0  0  0
  4  9  1  0  0  0  0
  4 15  2  0  0  0  0
  5 17  1  0  0  0  0
  6 19  1  0  0  0  0
  7 10  2  0  0  0  0
  7 18  1  0  0  0  0
  8 21  1  0  0  0  0
  9 21  2  0  0  0  0
 10 22  1  0  0  0  0
 11 12  2  0  0  0  0
 11 23  1  0  0  0  0
 12 24  1  0  0  0  0
 13 20  1  0  0  0  0
 13 22  2  0  0  0  0
 14 24  2  0  0  0  0
 14 25  1  0  0  0  0
 15 26  1  0  0  0  0
 16 26  1  0  0  0  0
 16 29  2  0  0  0  0
 16 31  1  0  0  0  0
 17 19  2  0  0  0  0
 17 38  1  0  0  0  0
 18 20  2  0  0  0  0
 18 39  1  0  0  0  0
 19 47  1  0  0  0  0
 20 40  1  0  0  0  0
 21 81  1  0  0  0  0
 22 82  1  0  0  0  0
 23 25  2  0  0  0  0
 23 81  1  0  0  0  0
 24 83  1  0  0  0  0
 25 84  1  0  0  0  0
 26 62  2  0  0  0  0
 27 28  2  0  0  0  0
 27 32  1  0  0  0  0
 27 63  1  0  0  0  0
 28 60  1  0  0  0  0
 28 88  1  0  0  0  0
 29 64  1  0  0  0  0
 29 67  1  0  0  0  0
 30 63  2  0  0  0  0
 30 69  1  0  0  0  0
 30 88  1  0  0  0  0
 31 68  1  0  0  0  0
 31 74  2  0  0  0  0
 32 70  1  0  0  0  0
 32 75  2  0  0  0  0
 33 48  1  0  0  0  0
 33 71  1  0  0  0  0
 33 76  2  0  0  0  0
 34 57  1  0  0  0  0
 34 65  1  0  0  0  0
 34 77  2  0  0  0  0
 35 56  1  0  0  0  0
 35 69  1  0  0  0  0
 35 78  2  0  0  0  0
 36 58  1  0  0  0  0
 36 72  1  0  0  0  0
 36 79  2  0  0  0  0
 37 66  1  0  0  0  0
 37 70  1  0  0  0  0
 37 80  2  0  0  0  0
 38 41  1  0  0  0  0
 39 48  1  0  0  0  0
 40 65  1  0  0  0  0
 41 43  1  0  0  0  0
 42 44  1  0  0  0  0
 42 45  1  0  0  0  0
 43 47  1  0  0  0  0
 44 49  1  0  0  0  0
 45 66  1  0  0  0  0
 46 49  1  0  0  0  0
 46 66  1  0  0  0  0
 47 71  1  0  0  0  0
 48 65  1  0  0  0  0
 49 64  1  0  0  0  0
 50 58  1  0  0  0  0
 51 59  1  0  0  0  0
 52 61  1  0  0  0  0
 53 61  1  0  0  0  0
 54 61  1  0  0  0  0
 55 73  1  0  0  0  0
 56 59  1  0  0  0  0
 57 61  1  0  0  0  0
 57 72  1  0  0  0  0
 58 73  1  0  0  0  0
 59 82  1  0  0  0  0
 60 85  1  0  0  0  0
 60 86  1  0  0  0  0
 60 87  1  0  0  0  0
 62 64  1  0  0  0  0
M  CHG  1  73   1
M  ISO  4  37 100  59 101  70 100  82 101
M  END
> <Batch ID>
0177

> <Smiles>
CNC(C)C(=O)NC(C(=O)N1Cc2cc([101O:1][101CH:1](C)CC(=O)Nc3nc(C(=O)[100NH:0][100C:0](=O)N4CCCC(n5nc(-c6ccc(Oc7ccc(F)cc7F)cc6)c(C(N)=O)c5N)C4)c(C(F)(F)F)s3)ccc2CC1C(=O)NC1CCCc2ccccc21)C(C)(C)C

> <Shape>
0.217

> <Color>
0.062

> <Negative vol penalty>
0.000

$$$$

  -OEChem-04052304413D

 85 93  0     1  0  0  0  0  0999 V2000
  -18.2644  -30.5120   21.5996 C   0  0  0  0  0  0  0  0  0  0  0  0
  -19.6452  -30.5152   21.4297 C   0  0  0  0  0  0  0  0  0  0  0  0
  -26.6460  -13.0411   20.3546 C   0  0  0  0  0  0  0  0  0  0  0  0
  -25.0590  -14.8496   20.1355 C   0  0  0  0  0  0  0  0  0  0  0  0
  -17.6220  -29.3620   22.0565 C   0  0  0  0  0  0  0  0  0  0  0  0
  -20.3846  -29.3685   21.7177 C   0  0  0  0  0  0  0  0  0  0  0  0
  -25.4047  -27.3995   18.8148 C   0  0  0  0  0  0  0  0  0  0  0  0
  -31.0930  -24.1519   21.1512 C   0  0  0  0  0  0  0  0  0  0  0  0
  -25.6218  -12.1172   20.1476 C   0  0  0  0  0  0  0  0  0  0  0  0
  -24.0347  -13.9256   19.9284 C   0  0  0  0  0  0  0  0  0  0  0  0
  -26.7630  -27.5135   19.1076 C   0  0  0  0  0  0  0  0  0  0  0  0
  -23.3611   -9.2711   20.0341 C   0  0  0  0  0  0  0  0  0  0  0  0
  -23.3083   -8.1598   20.8753 C   0  0  0  0  0  0  0  0  0  0  0  0
  -30.5092  -22.9260   21.4503 C   0  0  0  0  0  0  0  0  0  0  0  0
  -26.7194  -25.3296   20.1314 C   0  0  0  0  0  0  0  0  0  0  0  0
  -23.0624   -9.6179   22.7860 C   0  0  0  0  0  0  0  0  0  0  0  0
  -26.3646  -14.4073   20.3486 C   0  0  0  0  0  0  0  0  0  0  0  0
  -28.2386  -15.9605   19.5846 C   0  0  0  0  0  0  0  0  0  0  0  0
  -18.3528  -28.1976   22.3410 C   0  0  0  0  0  0  0  0  0  0  0  0
  -24.6899  -26.2524   19.1884 C   0  0  0  0  0  0  0  0  0  0  0  0
  -19.7515  -28.2023   22.1801 C   0  0  0  0  0  0  0  0  0  0  0  0
  -25.3527  -25.2025   19.8398 C   0  0  0  0  0  0  0  0  0  0  0  0
  -31.7371  -24.8715   22.1516 C   0  0  0  0  0  0  0  0  0  0  0  0
  -24.3162  -12.5594   19.9344 C   0  0  0  0  0  0  0  0  0  0  0  0
  -27.4199  -26.4797   19.7686 C   0  0  0  0  0  0  0  0  0  0  0  0
  -23.2647  -10.5559   20.5687 C   0  0  0  0  0  0  0  0  0  0  0  0
  -23.1589   -8.3332   22.2513 C   0  0  0  0  0  0  0  0  0  0  0  0
  -23.1152  -10.7292   21.9447 C   0  0  0  0  0  0  0  0  0  0  0  0
  -27.4221  -15.3622   20.5630 C   0  0  0  0  0  0  0  0  0  0  0  0
  -30.5963  -22.4672   22.7549 C   0  0  0  0  0  0  0  0  0  0  0  0
  -31.7691  -24.3257   23.4248 C   0  0  0  0  0  0  0  0  0  0  0  0
  -29.0778  -16.7840   20.2944 C   0  0  0  0  0  0  0  0  0  0  0  0
  -28.2383  -15.7872   18.1613 C   0  0  0  0  0  0  0  0  0  0  0  0
  -22.2212  -25.6729   21.1050 C   0  0  0  0  0  0  0  0  0  0  0  0
  -31.5598  -26.9383   20.7465 C   0  0  0  0  0  0  0  0  0  0  0  0
  -22.4813  -22.6764   19.8900 C   0  0  0  0  0  0  0  0  0  0  0  0
  -24.4469  -20.3092   18.4137 C   0  0  0  0  0  0  0  0  0  0  0  0
  -29.9636  -20.5670   24.2829 C   0  0  0  0  0  0  0  0  0  0  0  0
  -17.6199  -26.9936   22.8775 C   0  0  0  0  0  0  0  0  0  0  0  0
  -23.2311  -26.1335   18.8414 C   0  0  0  0  0  0  0  0  0  0  0  0
  -24.6352  -23.9414   20.2443 C   0  0  0  0  0  0  0  0  0  0  0  0
  -18.4319  -25.7031   22.8028 C   0  0  0  0  0  0  0  0  0  0  0  0
  -29.8975  -17.1484   25.2761 C   0  0  0  0  0  0  0  0  0  0  0  0
  -19.8496  -25.9339   23.3163 C   0  0  0  0  0  0  0  0  0  0  0  0
  -29.3148  -16.4282   24.0580 C   0  0  0  0  0  0  0  0  0  0  0  0
  -29.2501  -18.5155   25.4901 C   0  0  0  0  0  0  0  0  0  0  0  0
  -28.6799  -18.6786   23.0990 C   0  0  0  0  0  0  0  0  0  0  0  0
  -20.5853  -26.9703   22.4582 C   0  0  1  0  0  0  0  0  0  0  0  0
  -22.4858  -25.1387   19.7258 C   0  0  1  0  0  0  0  0  0  0  0  0
  -29.3465  -17.3248   22.8047 C   0  0  2  0  0  0  0  0  0  0  0  0
  -34.4841  -27.4293   21.0557 C   0  0  0  0  0  0  0  0  0  0  0  0
  -24.3898  -17.9446   17.5755 C   0  0  0  0  0  0  0  0  0  0  0  0
  -22.6083  -21.6574   22.7632 C   0  0  0  0  0  0  0  0  0  0  0  0
  -23.4888  -19.4863   21.8805 C   0  0  0  0  0  0  0  0  0  0  0  0
  -21.2122  -20.2662   21.2237 C   0  0  0  0  0  0  0  0  0  0  0  0
  -25.0878  -21.1509   15.6497 C   0  0  0  0  0  0  0  0  0  0  0  0
  -30.4283  -27.8297   21.2489 C   0  0  0  0  0  0  0  0  0  0  0  0
  -33.8517  -26.0869   21.4010 C   0  0  0  0  0  0  0  0  0  0  0  0
  -29.2551  -27.9022   20.2831 C   0  0  0  0  0  0  0  0  0  1  0  0
  -32.3731  -26.2077   21.8216 C   0  0  2  0  0  0  0  0  0  0  0  0
  -23.2441  -21.4308   20.2711 C   0  0  1  0  0  0  0  0  0  0  0  0
  -24.2119  -19.4108   17.2129 C   0  0  2  0  0  0  0  0  0  0  0  0
  -22.6517  -20.7346   21.5289 C   0  0  0  0  0  0  0  0  0  0  0  0
  -27.7162  -15.7709   21.8002 N   0  0  0  0  0  0  0  0  0  0  0  0
  -31.2134  -23.1379   23.7533 N   0  0  0  0  0  0  0  0  0  0  0  0
  -28.7269  -16.6346   21.6039 N   0  0  0  0  0  0  0  0  0  0  0  0
  -23.2082  -23.8754   19.8885 N   0  0  0  0  0  0  0  0  0  0  0  0
  -29.3212  -19.3109   24.2625 N   0  0  0  0  0  0  0  0  0  0  0  0
  -32.4248  -25.0551   24.4478 N   0  0  0  0  0  0  0  0  0  0  0  0
  -30.0744  -17.6142   19.9200 N   0  0  0  0  0  0  0  0  0  0  0  0
  -27.3096  -14.9027   17.5961 N   0  0  0  0  0  0  0  0  0  0  0  0
  -29.9979  -21.2171   23.0498 N   0  0  0  0  0  0  0  0  0  0  0  0
  -21.0353  -26.3729   21.2192 N   0  0  0  0  0  0  0  0  0  0  0  0
  -23.2725  -20.5890   19.0799 N   0  0  0  0  0  0  0  0  0  0  0  0
  -25.1697  -19.7444   16.1210 N   0  3  0  0  0  0  0  0  0  0  0  0
  -29.0489  -16.3862   17.4145 O   0  0  0  0  0  0  0  0  0  0  0  0
  -23.0321  -25.4640   21.9997 O   0  0  0  0  0  0  0  0  0  0  0  0
  -31.7945  -26.7937   19.5466 O   0  0  0  0  0  0  0  0  0  0  0  0
  -21.2862  -22.5879   19.5973 O   0  0  0  0  0  0  0  0  0  0  0  0
  -25.5614  -20.7187   18.7314 O   0  0  0  0  0  0  0  0  0  0  0  0
  -30.4714  -21.0194   25.3122 O   0  0  0  0  0  0  0  0  0  0  0  0
  -23.3165  -11.6581   19.7321 O   0  0  0  0  0  0  0  0  0  0  0  0
  -28.7456  -26.5887   20.0562 O   0  0  0  0  0  0  0  0  0  1  0  0
  -23.1066   -7.2658   23.0589 F   0  0  0  0  0  0  0  0  0  0  0  0
  -23.0208  -11.9610   22.4641 F   0  0  0  0  0  0  0  0  0  0  0  0
  1  2  1  0  0  0  0
  1  5  2  0  0  0  0
  2  6  2  0  0  0  0
  3  9  2  0  0  0  0
  3 17  1  0  0  0  0
  4 10  1  0  0  0  0
  4 17  2  0  0  0  0
  5 19  1  0  0  0  0
  6 21  1  0  0  0  0
  7 11  2  0  0  0  0
  7 20  1  0  0  0  0
  8 14  2  0  0  0  0
  8 23  1  0  0  0  0
  9 24  1  0  0  0  0
 10 24  2  0  0  0  0
 11 25  1  0  0  0  0
 12 13  2  0  0  0  0
 12 26  1  0  0  0  0
 13 27  1  0  0  0  0
 14 30  1  0  0  0  0
 15 22  1  0  0  0  0
 15 25  2  0  0  0  0
 16 27  2  0  0  0  0
 16 28  1  0  0  0  0
 17 29  1  0  0  0  0
 18 29  1  0  0  0  0
 18 32  2  0  0  0  0
 18 33  1  0  0  0  0
 19 21  2  0  0  0  0
 19 39  1  0  0  0  0
 20 22  2  0  0  0  0
 20 40  1  0  0  0  0
 21 48  1  0  0  0  0
 22 41  1  0  0  0  0
 23 31  2  0  0  0  0
 23 60  1  0  0  0  0
 24 82  1  0  0  0  0
 25 83  1  0  0  0  0
 26 28  2  0  0  0  0
 26 82  1  0  0  0  0
 27 84  1  0  0  0  0
 28 85  1  0  0  0  0
 29 64  2  0  0  0  0
 30 65  2  0  0  0  0
 30 72  1  0  0  0  0
 31 65  1  0  0  0  0
 31 69  1  0  0  0  0
 32 66  1  0  0  0  0
 32 70  1  0  0  0  0
 33 71  1  0  0  0  0
 33 76  2  0  0  0  0
 34 49  1  0  0  0  0
 34 73  1  0  0  0  0
 34 77  2  0  0  0  0
 35 57  1  0  0  0  0
 35 60  1  0  0  0  0
 35 78  2  0  0  0  0
 36 61  1  0  0  0  0
 36 67  1  0  0  0  0
 36 79  2  0  0  0  0
 37 62  1  0  0  0  0
 37 74  1  0  0  0  0
 37 80  2  0  0  0  0
 38 68  1  0  0  0  0
 38 72  1  0  0  0  0
 38 81  2  0  0  0  0
 39 42  1  0  0  0  0
 40 49  1  0  0  0  0
 41 67  1  0  0  0  0
 42 44  1  0  0  0  0
 43 45  1  0  0  0  0
 43 46  1  0  0  0  0
 44 48  1  0  0  0  0
 45 50  1  0  0  0  0
 46 68  1  0  0  0  0
 47 50  1  0  0  0  0
 47 68  1  0  0  0  0
 48 73  1  0  0  0  0
 49 67  1  0  0  0  0
 50 66  1  0  0  0  0
 51 58  1  0  0  0  0
 52 62  1  0  0  0  0
 53 63  1  0  0  0  0
 54 63  1  0  0  0  0
 55 63  1  0  0  0  0
 56 75  1  0  0  0  0
 57 59  1  0  0  0  0
 58 60  1  0  0  0  0
 59 83  1  0  0  0  0
 61 63  1  0  0  0  0
 61 74  1  0  0  0  0
 62 75  1  0  0  0  0
 64 66  1  0  0  0  0
M  CHG  1  75   1
M  ISO  4  38 100  59 101  72 100  83 101
M  END
> <Batch ID>
0177

> <Smiles>
CCC(C(=O)C[101CH2:1][101O:1]c1ccc2c(c1)CN(C(=O)C(NC(=O)C(C)NC)C(C)(C)C)C(C(=O)NC1CCCc3ccccc31)C2)c1ccc([100NH:0][100C:0](=O)N2CCCC(n3nc(-c4ccc(Oc5ccc(F)cc5F)cc4)c(C(N)=O)c3N)C2)nc1N

> <Shape>
0.195

> <Color>
0.069

> <Negative vol penalty>
0.000

$$$$

  -OEChem-04052304413D

 91 99  0     1  0  0  0  0  0999 V2000
  -23.9599  -21.4063   27.5849 C   0  0  0  0  0  0  0  0  0  0  0  0
  -24.0973  -21.5397   26.2069 C   0  0  0  0  0  0  0  0  0  0  0  0
  -23.0784   -9.8672   19.9443 C   0  0  0  0  0  0  0  0  0  0  0  0
  -23.8348   -9.8838   22.2387 C   0  0  0  0  0  0  0  0  0  0  0  0
  -23.6801  -22.5254   28.3680 C   0  0  0  0  0  0  0  0  0  0  0  0
  -23.9540  -22.7923   25.6112 C   0  0  0  0  0  0  0  0  0  0  0  0
  -27.5528  -23.7322   22.1746 C   0  0  0  0  0  0  0  0  0  0  0  0
  -29.3058  -18.1067   20.3012 C   0  0  0  0  0  0  0  0  0  0  0  0
  -29.0482  -19.1392   19.3995 C   0  0  0  0  0  0  0  0  0  0  0  0
  -22.3360   -8.7138   20.1973 C   0  0  0  0  0  0  0  0  0  0  0  0
  -23.0924   -8.7303   22.4918 C   0  0  0  0  0  0  0  0  0  0  0  0
  -27.4129  -23.1299   20.9250 C   0  0  0  0  0  0  0  0  0  0  0  0
  -19.8646   -7.9295   23.0923 C   0  0  0  0  0  0  0  0  0  0  0  0
  -19.1059   -7.8926   24.2622 C   0  0  0  0  0  0  0  0  0  0  0  0
  -26.5410  -25.1950   20.0339 C   0  0  0  0  0  0  0  0  0  0  0  0
  -31.2736  -20.0084   19.7588 C   0  0  0  0  0  0  0  0  0  0  0  0
  -20.3493   -5.9599   25.0076 C   0  0  0  0  0  0  0  0  0  0  0  0
  -23.8279  -10.4522   20.9650 C   0  0  0  0  0  0  0  0  0  0  0  0
  -24.1658  -12.9774   20.8363 C   0  0  0  0  0  0  0  0  0  0  0  0
  -23.5428  -23.7939   27.7826 C   0  0  0  0  0  0  0  0  0  0  0  0
  -27.1771  -25.0696   22.3661 C   0  0  0  0  0  0  0  0  0  0  0  0
  -23.6708  -23.9292   26.3870 C   0  0  0  0  0  0  0  0  0  0  0  0
  -26.6795  -25.8127   21.2862 C   0  0  0  0  0  0  0  0  0  0  0  0
  -30.5474  -18.0251   20.9318 C   0  0  0  0  0  0  0  0  0  0  0  0
  -31.5312  -18.9759   20.6606 C   0  0  0  0  0  0  0  0  0  0  0  0
  -30.0320  -20.0901   19.1282 C   0  0  0  0  0  0  0  0  0  0  0  0
  -22.3430   -8.1454   21.4710 C   0  0  0  0  0  0  0  0  0  0  0  0
  -26.9042  -23.8604   19.8551 C   0  0  0  0  0  0  0  0  0  0  0  0
  -20.8656   -6.9816   22.8800 C   0  0  0  0  0  0  0  0  0  0  0  0
  -19.3483   -6.9079   25.2199 C   0  0  0  0  0  0  0  0  0  0  0  0
  -21.1080   -5.9968   23.8377 C   0  0  0  0  0  0  0  0  0  0  0  0
  -24.5954  -11.6434   20.7041 C   0  0  0  0  0  0  0  0  0  0  0  0
  -25.2573  -13.7273   20.4719 C   0  0  0  0  0  0  0  0  0  0  0  0
  -22.8939  -13.4927   21.2514 C   0  0  0  0  0  0  0  0  0  0  0  0
  -25.0300  -26.5591   24.1758 C   0  0  0  0  0  0  0  0  0  0  0  0
  -26.4667  -29.2220   23.0066 C   0  0  0  0  0  0  0  0  0  0  0  0
  -28.5990  -21.3669   17.4974 C   0  0  0  0  0  0  0  0  0  0  0  0
  -28.3180  -30.6645   20.5290 C   0  0  0  0  0  0  0  0  0  0  0  0
  -30.7391  -14.7559   20.6649 C   0  0  0  0  0  0  0  0  0  0  0  0
  -23.1936  -24.9664   28.6646 C   0  0  0  0  0  0  0  0  0  0  0  0
  -27.3593  -25.7125   23.7137 C   0  0  0  0  0  0  0  0  0  0  0  0
  -26.2806  -27.2575   21.4346 C   0  0  0  0  0  0  0  0  0  0  0  0
  -23.4277  -26.3202   27.9991 C   0  0  0  0  0  0  0  0  0  0  0  0
  -29.6090  -12.3609   18.2851 C   0  0  0  0  0  0  0  0  0  0  0  0
  -22.8564  -26.3257   26.5848 C   0  0  0  0  0  0  0  0  0  0  0  0
  -28.1714  -12.0664   18.7169 C   0  0  0  0  0  0  0  0  0  0  0  0
  -30.5240  -12.5876   19.4866 C   0  0  0  0  0  0  0  0  0  0  0  0
  -28.6189  -13.3206   20.8676 C   0  0  0  0  0  0  0  0  0  0  0  0
  -23.5470  -25.2753   25.7067 C   0  0  1  0  0  0  0  0  0  0  0  0
  -26.4636  -26.9299   23.9209 C   0  0  1  0  0  0  0  0  0  0  0  0
  -27.6468  -13.1402   19.6891 C   0  0  2  0  0  0  0  0  0  0  0  0
  -32.8684  -18.9074   21.3222 C   0  0  0  0  0  0  0  0  0  0  0  0
  -29.3019  -32.8654   19.8322 C   0  0  0  0  0  0  0  0  0  0  0  0
  -23.7032  -30.1790   22.1363 C   0  0  0  0  0  0  0  0  0  0  0  0
  -24.8270  -31.8525   20.6515 C   0  0  0  0  0  0  0  0  0  0  0  0
  -25.1604  -31.9568   23.1214 C   0  0  0  0  0  0  0  0  0  0  0  0
  -27.5893  -24.2006   15.0583 C   0  0  0  0  0  0  0  0  0  0  0  0
  -31.0746  -29.5905   20.6124 C   0  0  0  0  0  0  0  0  0  0  0  0
  -28.7382  -22.6064   16.6180 C   0  0  0  0  0  0  0  0  0  0  0  0
  -26.8883  -24.1196   17.4911 C   0  0  0  0  0  0  0  0  0  1  0  0
  -30.7997  -16.9111   21.8940 C   0  0  1  0  0  0  0  0  0  0  0  0
  -26.2619  -30.1046   21.7991 C   0  0  1  0  0  0  0  0  0  0  0  0
  -29.5414  -31.5620   20.5782 C   0  0  2  0  0  0  0  0  0  0  0  0
  -24.9937  -30.9954   21.9244 C   0  0  0  0  0  0  0  0  0  0  0  0
  -27.4161  -23.3189   16.2963 C   0  0  1  0  0  0  0  0  0  0  0  0
  -30.4370  -17.2618   23.3381 C   0  0  0  0  0  0  0  0  0  0  0  0
  -25.8611  -11.5480   20.2880 N   0  0  0  0  0  0  0  0  0  0  0  0
  -26.2361  -12.8317   20.1556 N   0  0  0  0  0  0  0  0  0  0  0  0
  -26.4717  -27.8395   22.7733 N   0  0  0  0  0  0  0  0  0  0  0  0
  -29.9704  -13.6184   20.3679 N   0  0  0  0  0  0  0  0  0  0  0  0
  -25.4657  -15.0589   20.3944 N   0  0  0  0  0  0  0  0  0  0  0  0
  -21.8829  -12.5832   21.5904 N   0  0  0  0  0  0  0  0  0  0  0  0
  -29.7717  -21.1368   18.2118 N   0  0  0  0  0  0  0  0  0  0  0  0
  -24.8463  -25.7486   25.2798 N   0  0  0  0  0  0  0  0  0  0  0  0
  -27.5025  -30.8523   21.6249 N   0  0  0  0  0  0  0  0  0  0  0  0
  -30.1372  -15.6868   21.5026 N   0  0  0  0  0  0  0  0  0  0  0  0
  -30.7122  -30.8761   19.9620 N   0  3  0  0  0  0  0  0  0  0  0  0
  -22.6556  -14.7232   21.3039 O   0  0  0  0  0  0  0  0  0  0  0  0
  -24.1551  -26.9785   23.4273 O   0  0  0  0  0  0  0  0  0  0  0  0
  -26.6238  -29.7404   24.1149 O   0  0  0  0  0  0  0  0  0  0  0  0
  -27.5821  -20.6811   17.5022 O   0  0  0  0  0  0  0  0  0  0  0  0
  -28.1052  -29.8784   19.6086 O   0  0  0  0  0  0  0  0  0  0  0  0
  -31.8755  -14.9316   20.2123 O   0  0  0  0  0  0  0  0  0  0  0  0
  -21.6185   -7.0200   21.7184 O   0  0  0  0  0  0  0  0  0  0  0  0
  -26.7659  -23.2747   18.6346 O   0  0  0  0  0  0  0  0  0  1  0  0
  -18.6207   -6.8735   26.3440 F   0  0  0  0  0  0  0  0  0  0  0  0
  -22.0691   -5.0841   23.6398 F   0  0  0  0  0  0  0  0  0  0  0  0
  -26.4862  -22.3695   15.9773 F   0  0  0  0  0  0  0  0  0  0  0  0
  -31.1585  -18.3024   23.8050 F   0  0  0  0  0  0  0  0  0  0  0  0
  -29.1289  -17.5902   23.4508 F   0  0  0  0  0  0  0  0  0  0  0  0
  -30.6540  -16.2071   24.1558 F   0  0  0  0  0  0  0  0  0  0  0  0
  1  2  1  0  0  0  0
  1  5  2  0  0  0  0
  2  6  2  0  0  0  0
  3 10  2  0  0  0  0
  3 18  1  0  0  0  0
  4 11  1  0  0  0  0
  4 18  2  0  0  0  0
  5 20  1  0  0  0  0
  6 22  1  0  0  0  0
  7 12  2  0  0  0  0
  7 21  1  0  0  0  0
  8  9  2  0  0  0  0
  8 24  1  0  0  0  0
  9 26  1  0  0  0  0
 10 27  1  0  0  0  0
 11 27  2  0  0  0  0
 12 28  1  0  0  0  0
 13 14  2  0  0  0  0
 13 29  1  0  0  0  0
 14 30  1  0  0  0  0
 15 23  1  0  0  0  0
 15 28  2  0  0  0  0
 16 25  1  0  0  0  0
 16 26  2  0  0  0  0
 17 30  2  0  0  0  0
 17 31  1  0  0  0  0
 18 32  1  0  0  0  0
 19 32  1  0  0  0  0
 19 33  2  0  0  0  0
 19 34  1  0  0  0  0
 20 22  2  0  0  0  0
 20 40  1  0  0  0  0
 21 23  2  0  0  0  0
 21 41  1  0  0  0  0
 22 49  1  0  0  0  0
 23 42  1  0  0  0  0
 24 25  2  0  0  0  0
 24 61  1  0  0  0  0
 25 52  1  0  0  0  0
 26 73  1  0  0  0  0
 27 84  1  0  0  0  0
 28 85  1  0  0  0  0
 29 31  2  0  0  0  0
 29 84  1  0  0  0  0
 30 86  1  0  0  0  0
 31 87  1  0  0  0  0
 32 67  2  0  0  0  0
 33 68  1  0  0  0  0
 33 71  1  0  0  0  0
 34 72  1  0  0  0  0
 34 78  2  0  0  0  0
 35 50  1  0  0  0  0
 35 74  1  0  0  0  0
 35 79  2  0  0  0  0
 36 62  1  0  0  0  0
 36 69  1  0  0  0  0
 36 80  2  0  0  0  0
 37 59  1  0  0  0  0
 37 73  1  0  0  0  0
 37 81  2  0  0  0  0
 38 63  1  0  0  0  0
 38 75  1  0  0  0  0
 38 82  2  0  0  0  0
 39 70  1  0  0  0  0
 39 76  1  0  0  0  0
 39 83  2  0  0  0  0
 40 43  1  0  0  0  0
 41 50  1  0  0  0  0
 42 69  1  0  0  0  0
 43 45  1  0  0  0  0
 44 46  1  0  0  0  0
 44 47  1  0  0  0  0
 45 49  1  0  0  0  0
 46 51  1  0  0  0  0
 47 70  1  0  0  0  0
 48 51  1  0  0  0  0
 48 70  1  0  0  0  0
 49 74  1  0  0  0  0
 50 69  1  0  0  0  0
 51 68  1  0  0  0  0
 53 63  1  0  0  0  0
 54 64  1  0  0  0  0
 55 64  1  0  0  0  0
 56 64  1  0  0  0  0
 57 65  1  0  0  0  0
 58 77  1  0  0  0  0
 59 65  1  0  0  0  0
 60 65  1  0  0  0  0
 60 85  1  0  0  0  0
 61 66  1  0  0  0  0
 61 76  1  0  0  0  0
 62 64  1  0  0  0  0
 62 75  1  0  0  0  0
 63 77  1  0  0  0  0
 65 88  1  0  0  0  0
 66 89  1  0  0  0  0
 66 90  1  0  0  0  0
 66 91  1  0  0  0  0
 67 68  1  0  0  0  0
M  CHG  1  77   1
M  ISO  4  39 100  60 101  76 100  85 101
M  END
> <Batch ID>
0177

> <Smiles>
CNC(C)C(=O)NC(C(=O)N1Cc2cc([101O:1][101CH2:1]C(C)(F)CC(=O)Nc3ccc(C([100NH:0][100C:0](=O)N4CCCC(n5nc(-c6ccc(Oc7ccc(F)cc7F)cc6)c(C(N)=O)c5N)C4)C(F)(F)F)c(C)c3)ccc2CC1C(=O)NC1CCCc2ccccc21)C(C)(C)C

> <Shape>
0.264

> <Color>
0.192

> <Negative vol penalty>
0.000

$$$$

  -OEChem-04052304413D

 85 93  0     1  0  0  0  0  0999 V2000
  -24.1727  -35.1121   19.7852 C   0  0  0  0  0  0  0  0  0  0  0  0
  -25.0177  -34.0391   20.0497 C   0  0  0  0  0  0  0  0  0  0  0  0
  -22.9030  -10.9539   22.8234 C   0  0  0  0  0  0  0  0  0  0  0  0
  -25.2371  -10.6938   22.2565 C   0  0  0  0  0  0  0  0  0  0  0  0
  -22.9144  -35.1709   20.3830 C   0  0  0  0  0  0  0  0  0  0  0  0
  -24.6053  -33.0247   20.9131 C   0  0  0  0  0  0  0  0  0  0  0  0
  -25.6386  -28.4044   19.1159 C   0  0  0  0  0  0  0  0  0  0  0  0
  -22.6718   -9.6211   22.4831 C   0  0  0  0  0  0  0  0  0  0  0  0
  -25.0059   -9.3609   21.9162 C   0  0  0  0  0  0  0  0  0  0  0  0
  -26.9540  -27.9565   19.2295 C   0  0  0  0  0  0  0  0  0  0  0  0
  -23.1357   -6.5771   23.8801 C   0  0  0  0  0  0  0  0  0  0  0  0
  -22.3591   -5.8113   24.7497 C   0  0  0  0  0  0  0  0  0  0  0  0
  -26.3389  -26.6607   21.1690 C   0  0  0  0  0  0  0  0  0  0  0  0
  -20.7627   -5.4195   22.9791 C   0  0  0  0  0  0  0  0  0  0  0  0
  -29.9354  -18.2705   20.6531 C   0  0  0  0  0  0  0  0  0  0  0  0
  -30.5640  -20.4993   21.3023 C   0  0  0  0  0  0  0  0  0  0  0  0
  -24.1857  -11.4903   22.7100 C   0  0  0  0  0  0  0  0  0  0  0  0
  -24.7882  -13.3718   24.3238 C   0  0  0  0  0  0  0  0  0  0  0  0
  -22.4826  -34.1519   21.2466 C   0  0  0  0  0  0  0  0  0  0  0  0
  -24.6642  -27.9917   20.0360 C   0  0  0  0  0  0  0  0  0  0  0  0
  -23.3407  -33.0706   21.5240 C   0  0  0  0  0  0  0  0  0  0  0  0
  -25.0113  -27.1027   21.0633 C   0  0  0  0  0  0  0  0  0  0  0  0
  -23.7233   -8.8246   22.0295 C   0  0  0  0  0  0  0  0  0  0  0  0
  -27.3050  -27.0868   20.2579 C   0  0  0  0  0  0  0  0  0  0  0  0
  -22.7257   -6.7641   22.5600 C   0  0  0  0  0  0  0  0  0  0  0  0
  -21.1727   -5.2325   24.2992 C   0  0  0  0  0  0  0  0  0  0  0  0
  -21.5392   -6.1853   22.1095 C   0  0  0  0  0  0  0  0  0  0  0  0
  -30.6365  -19.1245   21.4971 C   0  0  0  0  0  0  0  0  0  0  0  0
  -24.4250  -12.8671   23.0608 C   0  0  0  0  0  0  0  0  0  0  0  0
  -29.1821  -18.8367   19.6374 C   0  0  0  0  0  0  0  0  0  0  0  0
  -29.7828  -20.9658   20.2574 C   0  0  0  0  0  0  0  0  0  0  0  0
  -24.8941  -14.7280   24.1342 C   0  0  0  0  0  0  0  0  0  0  0  0
  -25.0100  -12.6768   25.5581 C   0  0  0  0  0  0  0  0  0  0  0  0
  -30.0162  -24.7203   20.3463 C   0  0  0  0  0  0  0  0  0  0  0  0
  -30.3500  -23.3340   20.8163 C   0  0  0  0  0  0  0  0  0  0  0  0
  -22.8113  -29.4686   22.1548 C   0  0  0  0  0  0  0  0  0  0  0  0
  -21.5145  -26.5150   22.4969 C   0  0  0  0  0  0  0  0  0  0  0  0
  -21.8855  -23.1356   22.1988 C   0  0  0  0  0  0  0  0  0  0  0  0
  -26.0131  -18.0955   19.3114 C   0  0  0  0  0  0  0  0  0  0  0  0
  -21.1327  -34.2829   21.9062 C   0  0  0  0  0  0  0  0  0  0  0  0
  -23.2439  -28.4628   19.8838 C   0  0  0  0  0  0  0  0  0  0  0  0
  -23.9982  -26.6138   22.0649 C   0  0  0  0  0  0  0  0  0  0  0  0
  -20.6235  -32.9792   22.5156 C   0  0  0  0  0  0  0  0  0  0  0  0
  -23.1611  -18.2780   21.4351 C   0  0  0  0  0  0  0  0  0  0  0  0
  -21.7249  -32.3025   23.3254 C   0  0  0  0  0  0  0  0  0  0  0  0
  -23.1944  -16.9575   22.2065 C   0  0  0  0  0  0  0  0  0  0  0  0
  -23.6315  -18.1012   19.9930 C   0  0  0  0  0  0  0  0  0  0  0  0
  -24.9842  -16.1381   20.6178 C   0  0  0  0  0  0  0  0  0  0  0  0
  -22.9195  -31.9384   22.4355 C   0  0  1  0  0  0  0  0  0  0  0  0
  -22.4458  -28.3837   21.1816 C   0  0  1  0  0  0  0  0  0  0  0  0
  -24.5716  -16.2765   22.0932 C   0  0  2  0  0  0  0  0  0  0  0  0
  -20.6663  -20.9777   22.5918 C   0  0  0  0  0  0  0  0  0  0  0  0
  -22.0264  -26.7743   25.4937 C   0  0  0  0  0  0  0  0  0  0  0  0
  -21.6916  -24.3012   25.6942 C   0  0  0  0  0  0  0  0  0  0  0  0
  -19.8244  -25.7502   24.8963 C   0  0  0  0  0  0  0  0  0  0  0  0
  -22.0059  -22.4111   19.3319 C   0  0  0  0  0  0  0  0  0  0  0  0
  -28.4170  -17.9505   18.7121 C   0  0  0  0  0  0  0  0  0  0  0  0
  -28.7848  -25.3541   20.9389 C   0  0  0  0  0  0  0  0  0  1  0  0
  -21.7961  -25.3188   23.3737 C   0  0  1  0  0  0  0  0  0  0  0  0
  -20.9889  -22.0738   21.5881 C   0  0  2  0  0  0  0  0  0  0  0  0
  -21.3544  -25.5467   24.8469 C   0  0  0  0  0  0  0  0  0  0  0  0
  -24.3079  -13.8248   22.1371 N   0  0  0  0  0  0  0  0  0  0  0  0
  -29.0874  -20.1672   19.4170 N   0  0  0  0  0  0  0  0  0  0  0  0
  -24.5990  -14.9448   22.8203 N   0  0  0  0  0  0  0  0  0  0  0  0
  -22.6240  -27.1078   21.8777 N   0  0  0  0  0  0  0  0  0  0  0  0
  -24.9439  -17.4514   19.9556 N   0  0  0  0  0  0  0  0  0  0  0  0
  -25.2098  -15.7443   24.9647 N   0  0  0  0  0  0  0  0  0  0  0  0
  -24.8586  -11.2836   25.5770 N   0  0  0  0  0  0  0  0  0  0  0  0
  -29.7161  -22.3659   20.0679 N   0  0  0  0  0  0  0  0  0  0  0  0
  -22.6312  -30.7480   21.6647 N   0  0  0  0  0  0  0  0  0  0  0  0
  -21.1550  -24.1789   22.7272 N   0  0  0  0  0  0  0  0  0  0  0  0
  -27.2237  -17.4137   19.3275 N   0  0  0  0  0  0  0  0  0  0  0  0
  -21.6534  -21.4504   20.4088 N   0  3  0  0  0  0  0  0  0  0  0  0
  -25.3170  -13.2754   26.6169 O   0  0  0  0  0  0  0  0  0  0  0  0
  -30.7485  -25.2249   19.5086 O   0  0  0  0  0  0  0  0  0  0  0  0
  -31.0912  -23.2480   21.7813 O   0  0  0  0  0  0  0  0  0  0  0  0
  -23.2246  -29.1672   23.2683 O   0  0  0  0  0  0  0  0  0  0  0  0
  -20.3520  -26.9046   22.3606 O   0  0  0  0  0  0  0  0  0  0  0  0
  -23.1113  -23.0466   22.2097 O   0  0  0  0  0  0  0  0  0  0  0  0
  -25.8986  -19.1990   18.7672 O   0  0  0  0  0  0  0  0  0  0  0  0
  -23.4981   -7.5240   21.6976 O   0  0  0  0  0  0  0  0  0  0  0  0
  -28.5883  -26.6486   20.3715 O   0  0  0  0  0  0  0  0  0  1  0  0
  -20.4279   -4.4959   25.1340 F   0  0  0  0  0  0  0  0  0  0  0  0
  -21.1408   -6.3605   20.8421 F   0  0  0  0  0  0  0  0  0  0  0  0
  -31.3780  -18.6243   22.4939 F   0  0  0  0  0  0  0  0  0  0  0  0
  1  2  1  0  0  0  0
  1  5  2  0  0  0  0
  2  6  2  0  0  0  0
  3  8  2  0  0  0  0
  3 17  1  0  0  0  0
  4  9  1  0  0  0  0
  4 17  2  0  0  0  0
  5 19  1  0  0  0  0
  6 21  1  0  0  0  0
  7 10  2  0  0  0  0
  7 20  1  0  0  0  0
  8 23  1  0  0  0  0
  9 23  2  0  0  0  0
 10 24  1  0  0  0  0
 11 12  2  0  0  0  0
 11 25  1  0  0  0  0
 12 26  1  0  0  0  0
 13 22  1  0  0  0  0
 13 24  2  0  0  0  0
 14 26  2  0  0  0  0
 14 27  1  0  0  0  0
 15 28  1  0  0  0  0
 15 30  2  0  0  0  0
 16 28  2  0  0  0  0
 16 31  1  0  0  0  0
 17 29  1  0  0  0  0
 18 29  1  0  0  0  0
 18 32  2  0  0  0  0
 18 33  1  0  0  0  0
 19 21  2  0  0  0  0
 19 40  1  0  0  0  0
 20 22  2  0  0  0  0
 20 41  1  0  0  0  0
 21 49  1  0  0  0  0
 22 42  1  0  0  0  0
 23 81  1  0  0  0  0
 24 82  1  0  0  0  0
 25 27  2  0  0  0  0
 25 81  1  0  0  0  0
 26 83  1  0  0  0  0
 27 84  1  0  0  0  0
 28 85  1  0  0  0  0
 29 62  2  0  0  0  0
 30 57  1  0  0  0  0
 30 63  1  0  0  0  0
 31 63  2  0  0  0  0
 31 69  1  0  0  0  0
 32 64  1  0  0  0  0
 32 67  1  0  0  0  0
 33 68  1  0  0  0  0
 33 74  2  0  0  0  0
 34 35  1  0  0  0  0
 34 58  1  0  0  0  0
 34 75  2  0  0  0  0
 35 69  1  0  0  0  0
 35 76  2  0  0  0  0
 36 50  1  0  0  0  0
 36 70  1  0  0  0  0
 36 77  2  0  0  0  0
 37 59  1  0  0  0  0
 37 65  1  0  0  0  0
 37 78  2  0  0  0  0
 38 60  1  0  0  0  0
 38 71  1  0  0  0  0
 38 79  2  0  0  0  0
 39 66  1  0  0  0  0
 39 72  1  0  0  0  0
 39 80  2  0  0  0  0
 40 43  1  0  0  0  0
 41 50  1  0  0  0  0
 42 65  1  0  0  0  0
 43 45  1  0  0  0  0
 44 46  1  0  0  0  0
 44 47  1  0  0  0  0
 45 49  1  0  0  0  0
 46 51  1  0  0  0  0
 47 66  1  0  0  0  0
 48 51  1  0  0  0  0
 48 66  1  0  0  0  0
 49 70  1  0  0  0  0
 50 65  1  0  0  0  0
 51 64  1  0  0  0  0
 52 60  1  0  0  0  0
 53 61  1  0  0  0  0
 54 61  1  0  0  0  0
 55 61  1  0  0  0  0
 56 73  1  0  0  0  0
 57 72  1  0  0  0  0
 58 82  1  0  0  0  0
 59 61  1  0  0  0  0
 59 71  1  0  0  0  0
 60 73  1  0  0  0  0
 62 64  1  0  0  0  0
M  CHG  1  73   1
M  ISO  4  39 100  58 101  72 100  82 101
M  END
> <Batch ID>
0177

> <Smiles>
CNC(C)C(=O)NC(C(=O)N1Cc2cc([101O:1][101CH2:1]C(=O)C(=O)Nc3cc(F)cc(C[100NH:0][100C:0](=O)N4CCCC(n5nc(-c6ccc(Oc7ccc(F)cc7F)cc6)c(C(N)=O)c5N)C4)n3)ccc2CC1C(=O)NC1CCCc2ccccc21)C(C)(C)C

> <Shape>
0.208

> <Color>
0.084

> <Negative vol penalty>
0.000

$$$$

  -OEChem-04052304413D

 85 93  0     1  0  0  0  0  0999 V2000
  -27.2544  -27.1477   14.2011 C   0  0  0  0  0  0  0  0  0  0  0  0
  -27.5769  -25.8110   14.4126 C   0  0  0  0  0  0  0  0  0  0  0  0
  -20.6253  -24.0125   18.2382 C   0  0  0  0  0  0  0  0  0  0  0  0
  -22.0315  -24.0051   20.2028 C   0  0  0  0  0  0  0  0  0  0  0  0
  -27.6528  -28.1141   15.1238 C   0  0  0  0  0  0  0  0  0  0  0  0
  -28.2990  -25.4401   15.5464 C   0  0  0  0  0  0  0  0  0  0  0  0
  -27.7110  -20.2554   18.7525 C   0  0  0  0  0  0  0  0  0  0  0  0
  -20.1837  -25.2961   18.5590 C   0  0  0  0  0  0  0  0  0  0  0  0
  -21.5899  -25.2888   20.5236 C   0  0  0  0  0  0  0  0  0  0  0  0
  -28.4327  -19.0625   18.7475 C   0  0  0  0  0  0  0  0  0  0  0  0
  -18.8621  -26.7057   21.9315 C   0  0  0  0  0  0  0  0  0  0  0  0
  -18.5095  -26.9572   23.2573 C   0  0  0  0  0  0  0  0  0  0  0  0
  -29.7415  -19.8537   20.6130 C   0  0  0  0  0  0  0  0  0  0  0  0
  -20.2068  -28.6720   23.3835 C   0  0  0  0  0  0  0  0  0  0  0  0
  -21.5492  -23.3669   19.0601 C   0  0  0  0  0  0  0  0  0  0  0  0
  -23.1148  -21.6970   17.9343 C   0  0  0  0  0  0  0  0  0  0  0  0
  -28.3718  -27.7536   16.2743 C   0  0  0  0  0  0  0  0  0  0  0  0
  -28.0069  -21.2625   19.6823 C   0  0  0  0  0  0  0  0  0  0  0  0
  -28.7085  -26.4027   16.4846 C   0  0  0  0  0  0  0  0  0  0  0  0
  -29.0204  -21.0574   20.6293 C   0  0  0  0  0  0  0  0  0  0  0  0
  -20.6661  -25.9343   19.7017 C   0  0  0  0  0  0  0  0  0  0  0  0
  -29.4500  -18.8627   19.6760 C   0  0  0  0  0  0  0  0  0  0  0  0
  -19.8872  -27.4373   21.3316 C   0  0  0  0  0  0  0  0  0  0  0  0
  -19.1818  -27.9404   23.9834 C   0  0  0  0  0  0  0  0  0  0  0  0
  -20.5595  -28.4204   22.0576 C   0  0  0  0  0  0  0  0  0  0  0  0
  -22.0052  -22.0407   18.7295 C   0  0  0  0  0  0  0  0  0  0  0  0
  -27.1922  -13.7560   21.4823 C   0  0  0  0  0  0  0  0  0  0  0  0
  -26.2132  -12.8804   21.0616 C   0  0  0  0  0  0  0  0  0  0  0  0
  -23.1196  -20.3235   17.9268 C   0  0  0  0  0  0  0  0  0  0  0  0
  -25.0254  -14.7241   21.0699 C   0  0  0  0  0  0  0  0  0  0  0  0
  -24.0571  -22.5435   17.2625 C   0  0  0  0  0  0  0  0  0  0  0  0
  -29.0166  -24.2701   19.4862 C   0  0  0  0  0  0  0  0  0  0  0  0
  -30.0455  -15.2901   19.8941 C   0  0  0  0  0  0  0  0  0  0  0  0
  -28.5099  -24.2388   22.6901 C   0  0  0  0  0  0  0  0  0  0  0  0
  -28.2450  -22.4170   25.5637 C   0  0  0  0  0  0  0  0  0  0  0  0
  -22.6642  -15.4367   20.5564 C   0  0  0  0  0  0  0  0  0  0  0  0
  -28.8216  -28.8396   17.2192 C   0  0  0  0  0  0  0  0  0  0  0  0
  -27.2014  -22.5327   19.6917 C   0  0  0  0  0  0  0  0  0  0  0  0
  -29.3638  -22.0990   21.6616 C   0  0  0  0  0  0  0  0  0  0  0  0
  -29.2597  -28.3161   18.5846 C   0  0  0  0  0  0  0  0  0  0  0  0
  -19.6421  -17.0088   19.5210 C   0  0  0  0  0  0  0  0  0  0  0  0
  -30.1849  -27.1141   18.4236 C   0  0  0  0  0  0  0  0  0  0  0  0
  -20.0787  -18.4298   19.1574 C   0  0  0  0  0  0  0  0  0  0  0  0
  -20.4108  -16.4702   20.7263 C   0  0  0  0  0  0  0  0  0  0  0  0
  -22.3097  -17.9657   20.2502 C   0  0  0  0  0  0  0  0  0  0  0  0
  -29.4691  -25.9579   17.7149 C   0  0  1  0  0  0  0  0  0  0  0  0
  -27.9308  -23.6980   20.3530 C   0  0  1  0  0  0  0  0  0  0  0  0
  -21.6091  -18.5267   19.0020 C   0  0  2  0  0  0  0  0  0  0  0  0
  -28.8135  -12.4988   22.9600 C   0  0  0  0  0  0  0  0  0  0  0  0
  -30.1516  -13.2939   18.3448 C   0  0  0  0  0  0  0  0  0  0  0  0
  -27.8651  -22.6737   28.0309 C   0  0  0  0  0  0  0  0  0  0  0  0
  -31.3791  -25.2206   23.0273 C   0  0  0  0  0  0  0  0  0  0  0  0
  -31.2501  -24.5541   25.4371 C   0  0  0  0  0  0  0  0  0  0  0  0
  -29.7183  -26.3101   24.5469 C   0  0  0  0  0  0  0  0  0  0  0  0
  -25.7741  -20.7908   25.4700 C   0  0  0  0  0  0  0  0  0  0  0  0
  -29.4760  -16.5276   19.2259 C   0  0  0  0  0  0  0  0  0  1  0  0
  -28.6425  -13.5091   21.8284 C   0  0  1  0  0  0  0  0  0  0  0  0
  -29.4206  -13.9623   19.4986 C   0  0  1  0  0  0  0  0  0  0  0  0
  -29.3432  -23.8947   23.9009 C   0  0  1  0  0  0  0  0  0  0  0  0
  -27.2136  -22.4366   26.6774 C   0  0  2  0  0  0  0  0  0  0  0  0
  -30.4177  -24.9758   24.2075 C   0  0  0  0  0  0  0  0  0  0  0  0
  -21.3524  -20.9718   19.1934 N   0  0  0  0  0  0  0  0  0  0  0  0
  -24.9699  -13.4337   20.8250 N   0  0  0  0  0  0  0  0  0  0  0  0
  -22.0538  -19.9429   18.6881 N   0  0  0  0  0  0  0  0  0  0  0  0
  -28.5519  -23.3266   21.6261 N   0  0  0  0  0  0  0  0  0  0  0  0
  -21.8536  -16.5904   20.5058 N   0  0  0  0  0  0  0  0  0  0  0  0
  -26.4178  -11.5537   20.8819 N   0  0  0  0  0  0  0  0  0  0  0  0
  -23.9313  -19.4163   17.3433 N   0  0  0  0  0  0  0  0  0  0  0  0
  -23.9061  -23.9323   17.3748 N   0  0  0  0  0  0  0  0  0  0  0  0
  -23.9794  -15.6731   20.9552 N   0  0  0  0  0  0  0  0  0  0  0  0
  -28.5880  -25.2698   18.6339 N   0  0  0  0  0  0  0  0  0  0  0  0
  -28.4022  -23.6614   24.9912 N   0  0  0  0  0  0  0  0  0  0  0  0
  -26.4820  -21.1393   26.7287 N   0  3  0  0  0  0  0  0  0  0  0  0
  -29.4379  -13.0379   20.6644 N   0  3  0  0  0  0  0  0  0  0  0  0
  -24.9952  -22.0820   16.5693 O   0  0  0  0  0  0  0  0  0  0  0  0
  -30.1590  -23.8378   19.5846 O   0  0  0  0  0  0  0  0  0  0  0  0
  -30.9526  -15.3643   20.7228 O   0  0  0  0  0  0  0  0  0  0  0  0
  -27.8406  -25.2749   22.6912 O   0  0  0  0  0  0  0  0  0  0  0  0
  -28.8533  -21.4002   25.2370 O   0  0  0  0  0  0  0  0  0  0  0  0
  -22.2315  -14.3252   20.2411 O   0  0  0  0  0  0  0  0  0  0  0  0
  -20.2356  -27.1869   20.0149 O   0  0  0  0  0  0  0  0  0  0  0  0
  -30.1564  -17.6996   19.6730 O   0  0  0  0  0  0  0  0  0  1  0  0
  -18.8420  -28.1829   25.2561 F   0  0  0  0  0  0  0  0  0  0  0  0
  -21.5443  -29.1272   21.4863 F   0  0  0  0  0  0  0  0  0  0  0  0
  -26.5415  -15.3393   21.5876 S   0  0  0  0  0  0  0  0  0  0  0  0
  1  2  1  0  0  0  0
  1  5  2  0  0  0  0
  2  6  2  0  0  0  0
  3  8  2  0  0  0  0
  3 15  1  0  0  0  0
  4  9  1  0  0  0  0
  4 15  2  0  0  0  0
  5 17  1  0  0  0  0
  6 19  1  0  0  0  0
  7 10  2  0  0  0  0
  7 18  1  0  0  0  0
  8 21  1  0  0  0  0
  9 21  2  0  0  0  0
 10 22  1  0  0  0  0
 11 12  2  0  0  0  0
 11 23  1  0  0  0  0
 12 24  1  0  0  0  0
 13 20  1  0  0  0  0
 13 22  2  0  0  0  0
 14 24  2  0  0  0  0
 14 25  1  0  0  0  0
 15 26  1  0  0  0  0
 16 26  1  0  0  0  0
 16 29  2  0  0  0  0
 16 31  1  0  0  0  0
 17 19  2  0  0  0  0
 17 37  1  0  0  0  0
 18 20  2  0  0  0  0
 18 38  1  0  0  0  0
 19 46  1  0  0  0  0
 20 39  1  0  0  0  0
 21 81  1  0  0  0  0
 22 82  1  0  0  0  0
 23 25  2  0  0  0  0
 23 81  1  0  0  0  0
 24 83  1  0  0  0  0
 25 84  1  0  0  0  0
 26 62  2  0  0  0  0
 27 28  2  0  0  0  0
 27 57  1  0  0  0  0
 27 85  1  0  0  0  0
 28 63  1  0  0  0  0
 28 67  1  0  0  0  0
 29 64  1  0  0  0  0
 29 68  1  0  0  0  0
 30 63  2  0  0  0  0
 30 70  1  0  0  0  0
 30 85  1  0  0  0  0
 31 69  1  0  0  0  0
 31 75  2  0  0  0  0
 32 47  1  0  0  0  0
 32 71  1  0  0  0  0
 32 76  2  0  0  0  0
 33 56  1  0  0  0  0
 33 58  1  0  0  0  0
 33 77  2  0  0  0  0
 34 59  1  0  0  0  0
 34 65  1  0  0  0  0
 34 78  2  0  0  0  0
 35 60  1  0  0  0  0
 35 72  1  0  0  0  0
 35 79  2  0  0  0  0
 36 66  1  0  0  0  0
 36 70  1  0  0  0  0
 36 80  2  0  0  0  0
 37 40  1  0  0  0  0
 38 47  1  0  0  0  0
 39 65  1  0  0  0  0
 40 42  1  0  0  0  0
 41 43  1  0  0  0  0
 41 44  1  0  0  0  0
 42 46  1  0  0  0  0
 43 48  1  0  0  0  0
 44 66  1  0  0  0  0
 45 48  1  0  0  0  0
 45 66  1  0  0  0  0
 46 71  1  0  0  0  0
 47 65  1  0  0  0  0
 48 64  1  0  0  0  0
 49 57  1  0  0  0  0
 50 58  1  0  0  0  0
 51 60  1  0  0  0  0
 52 61  1  0  0  0  0
 53 61  1  0  0  0  0
 54 61  1  0  0  0  0
 55 73  1  0  0  0  0
 56 82  1  0  0  0  0
 57 74  1  0  0  0  0
 58 74  1  0  0  0  0
 59 61  1  0  0  0  0
 59 72  1  0  0  0  0
 60 73  1  0  0  0  0
 62 64  1  0  0  0  0
M  CHG  2  73   1  74   1
M  ISO  4  36 100  56 101  70 100  82 101
M  END
> <Batch ID>
0177

> <Smiles>
CNC(C)C(=O)NC(C(=O)N1Cc2cc([101O:1][101CH2:1]C(=O)C(C)NC(C)c3sc([100NH:0][100C:0](=O)N4CCCC(n5nc(-c6ccc(Oc7ccc(F)cc7F)cc6)c(C(N)=O)c5N)C4)nc3N)ccc2CC1C(=O)NC1CCCc2ccccc21)C(C)(C)C

> <Shape>
0.187

> <Color>
0.069

> <Negative vol penalty>
0.000

$$$$

  -OEChem-04052304413D

 85 93  0     1  0  0  0  0  0999 V2000
  -29.0618  -31.2039   15.9146 C   0  0  0  0  0  0  0  0  0  0  0  0
  -29.1127  -31.0565   17.2971 C   0  0  0  0  0  0  0  0  0  0  0  0
  -22.9577   -9.8280   20.1058 C   0  0  0  0  0  0  0  0  0  0  0  0
  -23.6513  -10.0540   22.4090 C   0  0  0  0  0  0  0  0  0  0  0  0
  -29.2351  -30.0935   15.0895 C   0  0  0  0  0  0  0  0  0  0  0  0
  -29.3360  -29.7983   17.8552 C   0  0  0  0  0  0  0  0  0  0  0  0
  -32.4501  -26.6652   23.4946 C   0  0  0  0  0  0  0  0  0  0  0  0
  -22.1763   -8.7249   20.4493 C   0  0  0  0  0  0  0  0  0  0  0  0
  -22.8698   -8.9509   22.7526 C   0  0  0  0  0  0  0  0  0  0  0  0
  -32.1658  -25.7620   24.5179 C   0  0  0  0  0  0  0  0  0  0  0  0
  -23.0874   -5.5831   22.5485 C   0  0  0  0  0  0  0  0  0  0  0  0
  -23.6543   -4.6232   23.3869 C   0  0  0  0  0  0  0  0  0  0  0  0
  -32.5303  -23.9288   22.9929 C   0  0  0  0  0  0  0  0  0  0  0  0
  -21.9098   -5.0127   25.0124 C   0  0  0  0  0  0  0  0  0  0  0  0
  -23.6953  -10.4926   21.0856 C   0  0  0  0  0  0  0  0  0  0  0  0
  -24.1080  -12.9830   20.7179 C   0  0  0  0  0  0  0  0  0  0  0  0
  -29.4703  -28.8227   15.6376 C   0  0  0  0  0  0  0  0  0  0  0  0
  -32.7664  -26.2064   22.2078 C   0  0  0  0  0  0  0  0  0  0  0  0
  -29.5113  -28.6697   17.0366 C   0  0  0  0  0  0  0  0  0  0  0  0
  -32.8207  -24.8281   21.9557 C   0  0  0  0  0  0  0  0  0  0  0  0
  -22.1323   -8.2863   21.7727 C   0  0  0  0  0  0  0  0  0  0  0  0
  -32.2031  -24.3936   24.2665 C   0  0  0  0  0  0  0  0  0  0  0  0
  -21.9317   -6.2579   22.9421 C   0  0  0  0  0  0  0  0  0  0  0  0
  -23.0655   -4.3380   24.6188 C   0  0  0  0  0  0  0  0  0  0  0  0
  -21.3429   -5.9726   24.1740 C   0  0  0  0  0  0  0  0  0  0  0  0
  -24.5031  -11.6319   20.7313 C   0  0  0  0  0  0  0  0  0  0  0  0
  -31.8584  -18.6675   21.7670 C   0  0  0  0  0  0  0  0  0  0  0  0
  -25.2299  -13.6648   20.3140 C   0  0  0  0  0  0  0  0  0  0  0  0
  -30.7462  -19.1357   22.4347 C   0  0  0  0  0  0  0  0  0  0  0  0
  -30.5831  -16.8944   21.5672 C   0  0  0  0  0  0  0  0  0  0  0  0
  -22.8403  -13.5694   21.0416 C   0  0  0  0  0  0  0  0  0  0  0  0
  -29.3526  -22.1105   24.2704 C   0  0  0  0  0  0  0  0  0  0  0  0
  -29.2961  -20.7159   23.7165 C   0  0  0  0  0  0  0  0  0  0  0  0
  -31.4563  -26.5213   19.3289 C   0  0  0  0  0  0  0  0  0  0  0  0
  -34.1375  -24.9691   18.3676 C   0  0  0  0  0  0  0  0  0  0  0  0
  -36.7137  -22.8750   19.1579 C   0  0  0  0  0  0  0  0  0  0  0  0
  -30.7149  -14.5927   20.5519 C   0  0  0  0  0  0  0  0  0  0  0  0
  -29.6046  -27.6440   14.7063 C   0  0  0  0  0  0  0  0  0  0  0  0
  -33.0967  -27.1930   21.1215 C   0  0  0  0  0  0  0  0  0  0  0  0
  -33.1747  -24.2839   20.5967 C   0  0  0  0  0  0  0  0  0  0  0  0
  -30.2098  -26.4096   15.3696 C   0  0  0  0  0  0  0  0  0  0  0  0
  -29.6046  -11.9742   18.4099 C   0  0  0  0  0  0  0  0  0  0  0  0
  -29.5489  -26.1509   16.7199 C   0  0  0  0  0  0  0  0  0  0  0  0
  -28.1459  -11.7629   18.8218 C   0  0  0  0  0  0  0  0  0  0  0  0
  -30.4906  -12.3042   19.6098 C   0  0  0  0  0  0  0  0  0  0  0  0
  -28.5649  -13.2126   20.8490 C   0  0  0  0  0  0  0  0  0  0  0  0
  -29.7761  -27.3254   17.6793 C   0  0  1  0  0  0  0  0  0  0  0  0
  -32.9036  -26.6245   19.7191 C   0  0  1  0  0  0  0  0  0  0  0  0
  -27.6220  -12.9417   19.6653 C   0  0  2  0  0  0  0  0  0  0  0  0
  -33.1152  -19.4112   21.5437 C   0  0  0  0  0  0  0  0  0  0  0  0
  -38.7252  -21.7602   18.1536 C   0  0  0  0  0  0  0  0  0  0  0  0
  -30.8043  -23.9117   27.3432 C   0  0  0  0  0  0  0  0  0  0  0  0
  -32.3202  -22.9586   16.9657 C   0  0  0  0  0  0  0  0  0  0  0  0
  -34.2764  -21.4037   16.8110 C   0  0  0  0  0  0  0  0  0  0  0  0
  -34.3502  -23.6163   15.6615 C   0  0  0  0  0  0  0  0  0  0  0  0
  -38.5517  -24.2443   21.0303 C   0  0  0  0  0  0  0  0  0  0  0  0
  -29.9180  -22.2566   25.6670 C   0  0  0  0  0  0  0  0  0  0  0  0
  -34.5268  -23.5225   18.1818 C   0  0  1  0  0  0  0  0  0  0  0  0
  -38.2074  -22.9760   18.9063 C   0  0  2  0  0  0  0  0  0  0  0  0
  -30.6335  -23.5930   25.8638 C   0  0  2  0  0  0  0  0  0  1  0  0
  -33.8598  -22.8852   16.9302 C   0  0  0  0  0  0  0  0  0  0  0  0
  -25.7764  -11.4633   20.3649 N   0  0  0  0  0  0  0  0  0  0  0  0
  -31.7669  -17.3823   21.2692 N   0  0  0  0  0  0  0  0  0  0  0  0
  -26.1912  -12.7174   20.1174 N   0  0  0  0  0  0  0  0  0  0  0  0
  -33.4835  -25.2887   19.5659 N   0  0  0  0  0  0  0  0  0  0  0  0
  -29.9346  -13.4331   20.3589 N   0  0  0  0  0  0  0  0  0  0  0  0
  -25.4780  -14.9762   20.1114 N   0  0  0  0  0  0  0  0  0  0  0  0
  -21.7951  -12.7242   21.4385 N   0  0  0  0  0  0  0  0  0  0  0  0
  -30.4616  -20.3676   23.0685 N   0  0  0  0  0  0  0  0  0  0  0  0
  -30.0694  -15.6125   21.2504 N   0  0  0  0  0  0  0  0  0  0  0  0
  -31.1155  -27.2801   18.2254 N   0  0  0  0  0  0  0  0  0  0  0  0
  -35.9853  -23.4915   18.1626 N   0  0  0  0  0  0  0  0  0  0  0  0
  -38.9444  -23.0785   20.1975 N   0  3  0  0  0  0  0  0  0  0  0  0
  -22.6356  -14.8046   20.9649 O   0  0  0  0  0  0  0  0  0  0  0  0
  -28.9480  -23.0136   23.5542 O   0  0  0  0  0  0  0  0  0  0  0  0
  -28.2728  -20.0860   23.9267 O   0  0  0  0  0  0  0  0  0  0  0  0
  -30.7046  -25.8050   19.9798 O   0  0  0  0  0  0  0  0  0  0  0  0
  -34.4102  -25.7869   17.4852 O   0  0  0  0  0  0  0  0  0  0  0  0
  -36.2404  -22.3031   20.1374 O   0  0  0  0  0  0  0  0  0  0  0  0
  -31.8611  -14.6853   20.1050 O   0  0  0  0  0  0  0  0  0  0  0  0
  -21.3697   -7.2101   22.1084 O   0  0  0  0  0  0  0  0  0  0  0  0
  -31.9254  -23.5099   25.2634 O   0  0  0  0  0  0  0  0  0  1  0  0
  -23.6091   -3.4151   25.4230 F   0  0  0  0  0  0  0  0  0  0  0  0
  -20.2320   -6.6167   24.5571 F   0  0  0  0  0  0  0  0  0  0  0  0
  -29.5296  -17.9269   22.4441 S   0  0  0  0  0  0  0  0  0  0  0  0
  1  2  1  0  0  0  0
  1  5  2  0  0  0  0
  2  6  2  0  0  0  0
  3  8  2  0  0  0  0
  3 15  1  0  0  0  0
  4  9  1  0  0  0  0
  4 15  2  0  0  0  0
  5 17  1  0  0  0  0
  6 19  1  0  0  0  0
  7 10  2  0  0  0  0
  7 18  1  0  0  0  0
  8 21  1  0  0  0  0
  9 21  2  0  0  0  0
 10 22  1  0  0  0  0
 11 12  2  0  0  0  0
 11 23  1  0  0  0  0
 12 24  1  0  0  0  0
 13 20  1  0  0  0  0
 13 22  2  0  0  0  0
 14 24  2  0  0  0  0
 14 25  1  0  0  0  0
 15 26  1  0  0  0  0
 16 26  1  0  0  0  0
 16 28  2  0  0  0  0
 16 31  1  0  0  0  0
 17 19  2  0  0  0  0
 17 38  1  0  0  0  0
 18 20  2  0  0  0  0
 18 39  1  0  0  0  0
 19 47  1  0  0  0  0
 20 40  1  0  0  0  0
 21 81  1  0  0  0  0
 22 82  1  0  0  0  0
 23 25  2  0  0  0  0
 23 81  1  0  0  0  0
 24 83  1  0  0  0  0
 25 84  1  0  0  0  0
 26 62  2  0  0  0  0
 27 29  2  0  0  0  0
 27 50  1  0  0  0  0
 27 63  1  0  0  0  0
 28 64  1  0  0  0  0
 28 67  1  0  0  0  0
 29 69  1  0  0  0  0
 29 85  1  0  0  0  0
 30 63  2  0  0  0  0
 30 70  1  0  0  0  0
 30 85  1  0  0  0  0
 31 68  1  0  0  0  0
 31 74  2  0  0  0  0
 32 33  1  0  0  0  0
 32 57  1  0  0  0  0
 32 75  2  0  0  0  0
 33 69  1  0  0  0  0
 33 76  2  0  0  0  0
 34 48  1  0  0  0  0
 34 71  1  0  0  0  0
 34 77  2  0  0  0  0
 35 58  1  0  0  0  0
 35 65  1  0  0  0  0
 35 78  2  0  0  0  0
 36 59  1  0  0  0  0
 36 72  1  0  0  0  0
 36 79  2  0  0  0  0
 37 66  1  0  0  0  0
 37 70  1  0  0  0  0
 37 80  2  0  0  0  0
 38 41  1  0  0  0  0
 39 48  1  0  0  0  0
 40 65  1  0  0  0  0
 41 43  1  0  0  0  0
 42 44  1  0  0  0  0
 42 45  1  0  0  0  0
 43 47  1  0  0  0  0
 44 49  1  0  0  0  0
 45 66  1  0  0  0  0
 46 49  1  0  0  0  0
 46 66  1  0  0  0  0
 47 71  1  0  0  0  0
 48 65  1  0  0  0  0
 49 64  1  0  0  0  0
 51 59  1  0  0  0  0
 52 60  1  0  0  0  0
 53 61  1  0  0  0  0
 54 61  1  0  0  0  0
 55 61  1  0  0  0  0
 56 73  1  0  0  0  0
 57 60  1  0  0  0  0
 58 61  1  0  0  0  0
 58 72  1  0  0  0  0
 59 73  1  0  0  0  0
 60 82  1  0  0  0  0
 62 64  1  0  0  0  0
M  CHG  1  73   1
M  ISO  4  37 100  60 101  70 100  82 101
M  END
> <Batch ID>
0177

> <Smiles>
CNC(C)C(=O)NC(C(=O)N1Cc2cc([101O:1][101CH:1](C)CC(=O)C(=O)Nc3sc([100NH:0][100C:0](=O)N4CCCC(n5nc(-c6ccc(Oc7ccc(F)cc7F)cc6)c(C(N)=O)c5N)C4)nc3C)ccc2CC1C(=O)NC1CCCc2ccccc21)C(C)(C)C

> <Shape>
0.200

> <Color>
0.195

> <Negative vol penalty>
0.000

$$$$

  -OEChem-04052304413D

 87 95  0     1  0  0  0  0  0999 V2000
  -28.0056  -32.2560   27.2441 C   0  0  0  0  0  0  0  0  0  0  0  0
  -28.1392  -31.1883   26.3623 C   0  0  0  0  0  0  0  0  0  0  0  0
  -23.2427  -10.7431   21.9329 C   0  0  0  0  0  0  0  0  0  0  0  0
  -22.5869  -12.8643   20.9802 C   0  0  0  0  0  0  0  0  0  0  0  0
  -26.7366  -32.7224   27.5851 C   0  0  0  0  0  0  0  0  0  0  0  0
  -27.0038  -30.5857   25.8218 C   0  0  0  0  0  0  0  0  0  0  0  0
  -27.4388  -29.7309   20.8493 C   0  0  0  0  0  0  0  0  0  0  0  0
  -22.1651  -10.8066   22.8162 C   0  0  0  0  0  0  0  0  0  0  0  0
  -21.5092  -12.9278   21.8635 C   0  0  0  0  0  0  0  0  0  0  0  0
  -28.2007  -28.6314   20.4565 C   0  0  0  0  0  0  0  0  0  0  0  0
  -20.9923  -13.7168   25.1102 C   0  0  0  0  0  0  0  0  0  0  0  0
  -20.7568  -14.9288   25.7591 C   0  0  0  0  0  0  0  0  0  0  0  0
  -26.1794  -27.3576   20.1234 C   0  0  0  0  0  0  0  0  0  0  0  0
  -30.2368  -18.3047   19.6940 C   0  0  0  0  0  0  0  0  0  0  0  0
  -18.5597  -15.0369   24.7600 C   0  0  0  0  0  0  0  0  0  0  0  0
  -23.4537  -11.7720   21.0149 C   0  0  0  0  0  0  0  0  0  0  0  0
  -24.5803  -11.1341   18.8168 C   0  0  0  0  0  0  0  0  0  0  0  0
  -25.5854  -32.1314   27.0410 C   0  0  0  0  0  0  0  0  0  0  0  0
  -26.0396  -29.6485   20.8926 C   0  0  0  0  0  0  0  0  0  0  0  0
  -25.7183  -31.0437   26.1568 C   0  0  0  0  0  0  0  0  0  0  0  0
  -25.4020  -28.4583   20.5147 C   0  0  0  0  0  0  0  0  0  0  0  0
  -29.1506  -17.6271   19.1403 C   0  0  0  0  0  0  0  0  0  0  0  0
  -29.2175  -20.4159   19.1100 C   0  0  0  0  0  0  0  0  0  0  0  0
  -21.2983  -11.8989   22.7815 C   0  0  0  0  0  0  0  0  0  0  0  0
  -27.5711  -27.4435   20.0963 C   0  0  0  0  0  0  0  0  0  0  0  0
  -20.0115  -13.1648   24.2861 C   0  0  0  0  0  0  0  0  0  0  0  0
  -19.5405  -15.5889   25.5841 C   0  0  0  0  0  0  0  0  0  0  0  0
  -30.2702  -19.6992   19.6789 C   0  0  0  0  0  0  0  0  0  0  0  0
  -18.7952  -13.8249   24.1110 C   0  0  0  0  0  0  0  0  0  0  0  0
  -28.0979  -18.3439   18.5714 C   0  0  0  0  0  0  0  0  0  0  0  0
  -28.1313  -19.7383   18.5562 C   0  0  0  0  0  0  0  0  0  0  0  0
  -24.5670  -11.7072   20.1026 C   0  0  0  0  0  0  0  0  0  0  0  0
  -25.8632  -11.3297   18.3670 C   0  0  0  0  0  0  0  0  0  0  0  0
  -23.5271  -10.4832   18.0938 C   0  0  0  0  0  0  0  0  0  0  0  0
  -30.0242  -24.0904   19.0366 C   0  0  0  0  0  0  0  0  0  0  0  0
  -30.3728  -22.6299   19.0340 C   0  0  0  0  0  0  0  0  0  0  0  0
  -23.8468  -29.9119   23.1787 C   0  0  0  0  0  0  0  0  0  0  0  0
  -21.7836  -29.6859   20.6858 C   0  0  0  0  0  0  0  0  0  0  0  0
  -21.2042  -28.6362   17.4906 C   0  0  0  0  0  0  0  0  0  0  0  0
  -30.0825  -15.3506   19.6839 C   0  0  0  0  0  0  0  0  0  0  0  0
  -24.2337  -32.6396   27.4761 C   0  0  0  0  0  0  0  0  0  0  0  0
  -25.2311  -30.8520   21.2929 C   0  0  0  0  0  0  0  0  0  0  0  0
  -23.9018  -28.3247   20.5246 C   0  0  0  0  0  0  0  0  0  0  0  0
  -23.0923  -32.1881   26.5686 C   0  0  0  0  0  0  0  0  0  0  0  0
  -30.3557  -11.8110   19.9544 C   0  0  0  0  0  0  0  0  0  0  0  0
  -23.2058  -30.6965   26.2699 C   0  0  0  0  0  0  0  0  0  0  0  0
  -28.9038  -11.3301   19.9000 C   0  0  0  0  0  0  0  0  0  0  0  0
  -30.4888  -13.1277   20.7175 C   0  0  0  0  0  0  0  0  0  0  0  0
  -28.1561  -13.7257   20.1978 C   0  0  0  0  0  0  0  0  0  0  0  0
  -24.5113  -30.3798   25.5303 C   0  0  1  0  0  0  0  0  0  0  0  0
  -23.8351  -30.4943   21.7937 C   0  0  1  0  0  0  0  0  0  0  0  0
  -27.9628  -12.4361   19.3835 C   0  0  2  0  0  0  0  0  0  0  0  0
  -19.4105  -28.5587   15.7373 C   0  0  0  0  0  0  0  0  0  0  0  0
  -20.4270  -27.3963   22.1783 C   0  0  0  0  0  0  0  0  0  0  0  0
  -19.3039  -26.7565   20.0341 C   0  0  0  0  0  0  0  0  0  0  0  0
  -18.8559  -28.9869   21.0576 C   0  0  0  0  0  0  0  0  0  0  0  0
  -22.8051  -30.2726   15.6149 C   0  0  0  0  0  0  0  0  0  0  0  0
  -29.9775  -24.7672   20.3889 C   0  0  0  0  0  0  0  0  0  0  0  0
  -29.6141  -26.2406   20.2836 C   0  0  0  0  0  0  0  0  0  1  0  0
  -21.0950  -28.5506   19.9675 C   0  0  1  0  0  0  0  0  0  0  0  0
  -20.5896  -29.3408   16.2947 C   0  0  2  0  0  0  0  0  0  0  0  0
  -19.9488  -27.9242   20.8110 C   0  0  0  0  0  0  0  0  0  0  0  0
  -25.7478  -12.2277   20.4473 N   0  0  0  0  0  0  0  0  0  0  0  0
  -26.5151  -11.9823   19.3716 N   0  0  0  0  0  0  0  0  0  0  0  0
  -23.1552  -29.5273   20.9295 N   0  0  0  0  0  0  0  0  0  0  0  0
  -29.5708  -14.1290   20.1702 N   0  0  0  0  0  0  0  0  0  0  0  0
  -26.4860  -11.0052   17.2140 N   0  0  0  0  0  0  0  0  0  0  0  0
  -22.2704  -10.3676   18.7035 N   0  0  0  0  0  0  0  0  0  0  0  0
  -29.2524  -21.8298   19.0949 N   0  0  0  0  0  0  0  0  0  0  0  0
  -29.1191  -16.2106   19.1577 N   0  0  0  0  0  0  0  0  0  0  0  0
  -24.4017  -30.7424   24.1336 N   0  0  0  0  0  0  0  0  0  0  0  0
  -20.6661  -29.0832   18.6788 N   0  0  0  0  0  0  0  0  0  0  0  0
  -21.6010  -29.5013   15.2120 N   0  3  0  0  0  0  0  0  0  0  0  0
  -23.6999  -10.0034   16.9478 O   0  0  0  0  0  0  0  0  0  0  0  0
  -29.8177  -24.6183   17.9544 O   0  0  0  0  0  0  0  0  0  0  0  0
  -31.5577  -22.3514   18.9545 O   0  0  0  0  0  0  0  0  0  0  0  0
  -23.3852  -28.7925   23.3673 O   0  0  0  0  0  0  0  0  0  0  0  0
  -21.1302  -30.6800   21.0120 O   0  0  0  0  0  0  0  0  0  0  0  0
  -22.0719  -27.7726   17.3814 O   0  0  0  0  0  0  0  0  0  0  0  0
  -31.2899  -15.6032   19.7058 O   0  0  0  0  0  0  0  0  0  0  0  0
  -20.2465  -11.9611   23.6431 O   0  0  0  0  0  0  0  0  0  0  0  0
  -28.3123  -26.3685   19.7131 O   0  0  0  0  0  0  0  0  0  1  0  0
  -19.3139  -16.7520   26.2086 F   0  0  0  0  0  0  0  0  0  0  0  0
  -31.3195  -20.3395   20.2143 F   0  0  0  0  0  0  0  0  0  0  0  0
  -17.8487  -13.2989   23.3215 F   0  0  0  0  0  0  0  0  0  0  0  0
  -27.0489  -17.7031   18.0362 F   0  0  0  0  0  0  0  0  0  0  0  0
  -27.1139  -20.4172   18.0073 F   0  0  0  0  0  0  0  0  0  0  0  0
  1  2  1  0  0  0  0
  1  5  2  0  0  0  0
  2  6  2  0  0  0  0
  3  8  2  0  0  0  0
  3 16  1  0  0  0  0
  4  9  1  0  0  0  0
  4 16  2  0  0  0  0
  5 18  1  0  0  0  0
  6 20  1  0  0  0  0
  7 10  2  0  0  0  0
  7 19  1  0  0  0  0
  8 24  1  0  0  0  0
  9 24  2  0  0  0  0
 10 25  1  0  0  0  0
 11 12  2  0  0  0  0
 11 26  1  0  0  0  0
 12 27  1  0  0  0  0
 13 21  1  0  0  0  0
 13 25  2  0  0  0  0
 14 22  1  0  0  0  0
 14 28  2  0  0  0  0
 15 27  2  0  0  0  0
 15 29  1  0  0  0  0
 16 32  1  0  0  0  0
 17 32  1  0  0  0  0
 17 33  2  0  0  0  0
 17 34  1  0  0  0  0
 18 20  2  0  0  0  0
 18 41  1  0  0  0  0
 19 21  2  0  0  0  0
 19 42  1  0  0  0  0
 20 50  1  0  0  0  0
 21 43  1  0  0  0  0
 22 30  2  0  0  0  0
 22 70  1  0  0  0  0
 23 28  1  0  0  0  0
 23 31  2  0  0  0  0
 23 69  1  0  0  0  0
 24 81  1  0  0  0  0
 25 82  1  0  0  0  0
 26 29  2  0  0  0  0
 26 81  1  0  0  0  0
 27 83  1  0  0  0  0
 28 84  1  0  0  0  0
 29 85  1  0  0  0  0
 30 31  1  0  0  0  0
 30 86  1  0  0  0  0
 31 87  1  0  0  0  0
 32 63  2  0  0  0  0
 33 64  1  0  0  0  0
 33 67  1  0  0  0  0
 34 68  1  0  0  0  0
 34 74  2  0  0  0  0
 35 36  1  0  0  0  0
 35 58  1  0  0  0  0
 35 75  2  0  0  0  0
 36 69  1  0  0  0  0
 36 76  2  0  0  0  0
 37 51  1  0  0  0  0
 37 71  1  0  0  0  0
 37 77  2  0  0  0  0
 38 60  1  0  0  0  0
 38 65  1  0  0  0  0
 38 78  2  0  0  0  0
 39 61  1  0  0  0  0
 39 72  1  0  0  0  0
 39 79  2  0  0  0  0
 40 66  1  0  0  0  0
 40 70  1  0  0  0  0
 40 80  2  0  0  0  0
 41 44  1  0  0  0  0
 42 51  1  0  0  0  0
 43 65  1  0  0  0  0
 44 46  1  0  0  0  0
 45 47  1  0  0  0  0
 45 48  1  0  0  0  0
 46 50  1  0  0  0  0
 47 52  1  0  0  0  0
 48 66  1  0  0  0  0
 49 52  1  0  0  0  0
 49 66  1  0  0  0  0
 50 71  1  0  0  0  0
 51 65  1  0  0  0  0
 52 64  1  0  0  0  0
 53 61  1  0  0  0  0
 54 62  1  0  0  0  0
 55 62  1  0  0  0  0
 56 62  1  0  0  0  0
 57 73  1  0  0  0  0
 58 59  1  0  0  0  0
 59 82  1  0  0  0  0
 60 62  1  0  0  0  0
 60 72  1  0  0  0  0
 61 73  1  0  0  0  0
 63 64  1  0  0  0  0
M  CHG  1  73   1
M  ISO  4  40 100  59 101  70 100  82 101
M  END
> <Batch ID>
0177

> <Smiles>
CNC(C)C(=O)NC(C(=O)N1Cc2cc([101O:1][101CH2:1]CC(=O)C(=O)Nc3c(F)cc([100NH:0][100C:0](=O)N4CCCC(n5nc(-c6ccc(Oc7ccc(F)cc7F)cc6)c(C(N)=O)c5N)C4)c(F)c3F)ccc2CC1C(=O)NC1CCCc2ccccc21)C(C)(C)C

> <Shape>
0.304

> <Color>
0.093

> <Negative vol penalty>
0.000

$$$$

  -OEChem-04052304413D

 84 92  0     1  0  0  0  0  0999 V2000
  -33.8484  -34.1551   18.1134 C   0  0  0  0  0  0  0  0  0  0  0  0
  -33.3586  -32.8905   18.4237 C   0  0  0  0  0  0  0  0  0  0  0  0
  -24.6595   -8.6811   21.7362 C   0  0  0  0  0  0  0  0  0  0  0  0
  -22.8825   -9.9010   20.6448 C   0  0  0  0  0  0  0  0  0  0  0  0
  -33.5481  -35.2392   18.9371 C   0  0  0  0  0  0  0  0  0  0  0  0
  -32.5691  -32.7091   19.5587 C   0  0  0  0  0  0  0  0  0  0  0  0
  -28.5038  -29.8272   18.6569 C   0  0  0  0  0  0  0  0  0  0  0  0
  -23.7175   -7.9939   22.5018 C   0  0  0  0  0  0  0  0  0  0  0  0
  -21.9405   -9.2138   21.4104 C   0  0  0  0  0  0  0  0  0  0  0  0
  -28.7035  -28.4493   18.5843 C   0  0  0  0  0  0  0  0  0  0  0  0
  -21.5834   -5.4039   22.0896 C   0  0  0  0  0  0  0  0  0  0  0  0
  -21.7391   -4.0243   22.2239 C   0  0  0  0  0  0  0  0  0  0  0  0
  -27.9045  -28.2204   20.8489 C   0  0  0  0  0  0  0  0  0  0  0  0
  -21.9161   -4.2775   24.6201 C   0  0  0  0  0  0  0  0  0  0  0  0
  -24.2419   -9.6347   20.8077 C   0  0  0  0  0  0  0  0  0  0  0  0
  -25.7275   -9.9693   18.7610 C   0  0  0  0  0  0  0  0  0  0  0  0
  -32.7465  -35.0727   20.0774 C   0  0  0  0  0  0  0  0  0  0  0  0
  -28.0124  -30.4143   19.8317 C   0  0  0  0  0  0  0  0  0  0  0  0
  -32.2589  -33.7917   20.3992 C   0  0  0  0  0  0  0  0  0  0  0  0
  -27.6970  -29.6057   20.9329 C   0  0  0  0  0  0  0  0  0  0  0  0
  -22.3581   -8.2603   22.3389 C   0  0  0  0  0  0  0  0  0  0  0  0
  -28.4066  -27.6460   19.6814 C   0  0  0  0  0  0  0  0  0  0  0  0
  -21.5941   -6.2203   23.2205 C   0  0  0  0  0  0  0  0  0  0  0  0
  -21.9054   -3.4611   23.4891 C   0  0  0  0  0  0  0  0  0  0  0  0
  -21.7604   -5.6572   24.4858 C   0  0  0  0  0  0  0  0  0  0  0  0
  -25.2145  -10.3453   20.0169 C   0  0  0  0  0  0  0  0  0  0  0  0
  -25.1990  -17.8862   18.7727 C   0  0  0  0  0  0  0  0  0  0  0  0
  -26.6115  -10.9696   18.4378 C   0  0  0  0  0  0  0  0  0  0  0  0
  -23.9722  -17.8479   18.1438 C   0  0  0  0  0  0  0  0  0  0  0  0
  -25.0731  -19.9903   18.1669 C   0  0  0  0  0  0  0  0  0  0  0  0
  -27.5678  -25.5227   19.1727 C   0  0  0  0  0  0  0  0  0  1  0  0
  -25.4313   -8.8189   17.9583 C   0  0  0  0  0  0  0  0  0  0  0  0
  -27.6491  -24.1913   19.0665 C   0  0  0  0  0  0  0  0  0  0  0  0
  -26.4631  -23.4224   18.5743 C   0  0  0  0  0  0  0  0  0  0  0  0
  -29.1292  -32.5408   21.9136 C   0  0  0  0  0  0  0  0  0  0  0  0
  -26.1501  -32.2925   23.1727 C   0  0  0  0  0  0  0  0  0  0  0  0
  -23.3151  -30.4329   23.5620 C   0  0  0  0  0  0  0  0  0  0  0  0
  -27.0386  -16.7126   20.0316 C   0  0  0  0  0  0  0  0  0  0  0  0
  -32.4880  -36.2655   20.9635 C   0  0  0  0  0  0  0  0  0  0  0  0
  -27.7773  -31.8990   19.8847 C   0  0  0  0  0  0  0  0  0  0  0  0
  -27.1479  -30.1844   22.2104 C   0  0  0  0  0  0  0  0  0  0  0  0
  -31.3346  -36.0589   21.9419 C   0  0  0  0  0  0  0  0  0  0  0  0
  -29.5193  -14.1944   20.4578 C   0  0  0  0  0  0  0  0  0  0  0  0
  -31.4533  -34.7018   22.6282 C   0  0  0  0  0  0  0  0  0  0  0  0
  -28.7448  -12.8875   20.2728 C   0  0  0  0  0  0  0  0  0  0  0  0
  -28.6857  -15.2501   21.1819 C   0  0  0  0  0  0  0  0  0  0  0  0
  -26.5934  -14.2070   20.4049 C   0  0  0  0  0  0  0  0  0  0  0  0
  -31.3787  -33.5594   21.6081 C   0  0  1  0  0  0  0  0  0  0  0  0
  -27.7575  -32.4504   21.3070 C   0  0  1  0  0  0  0  0  0  0  0  0
  -27.3693  -13.1347   19.6227 C   0  0  2  0  0  0  0  0  0  0  0  0
  -21.0668  -30.4785   24.6758 C   0  0  0  0  0  0  0  0  0  0  0  0
  -27.4704  -31.6910   25.8569 C   0  0  0  0  0  0  0  0  0  0  0  0
  -25.2651  -30.8278   26.6693 C   0  0  0  0  0  0  0  0  0  0  0  0
  -25.4925  -33.2160   25.9857 C   0  0  0  0  0  0  0  0  0  0  0  0
  -21.8982  -30.2500   20.9701 C   0  0  0  0  0  0  0  0  0  0  0  0
  -26.6256  -21.9185   18.4790 C   0  0  0  0  0  0  0  0  0  0  0  0
  -25.4990  -31.4133   24.2130 C   0  0  1  0  0  0  0  0  0  0  0  0
  -21.8475  -30.7895   23.4084 C   0  0  2  0  0  0  0  0  0  0  0  0
  -25.9439  -31.7760   25.6579 C   0  0  0  0  0  0  0  0  0  0  0  0
  -25.7299  -11.4946   20.4614 N   0  0  0  0  0  0  0  0  0  0  0  0
  -25.8320  -19.1138   18.7865 N   0  0  0  0  0  0  0  0  0  0  0  0
  -26.5760  -11.8494   19.4794 N   0  0  0  0  0  0  0  0  0  0  0  0
  -26.9415  -31.6421   22.2153 N   0  0  0  0  0  0  0  0  0  0  0  0
  -27.3988  -15.4341   20.5074 N   0  0  0  0  0  0  0  0  0  0  0  0
  -27.4081  -11.1735   17.3672 N   0  0  0  0  0  0  0  0  0  0  0  0
  -24.4988   -7.8901   18.4401 N   0  0  0  0  0  0  0  0  0  0  0  0
  -25.8073  -16.7590   19.3786 N   0  0  0  0  0  0  0  0  0  0  0  0
  -25.4031  -21.3263   17.9954 N   0  0  0  0  0  0  0  0  0  0  0  0
  -30.0083  -33.3339   21.2011 N   0  0  0  0  0  0  0  0  0  0  0  0
  -24.0608  -31.5116   23.9882 N   0  0  0  0  0  0  0  0  0  0  0  0
  -21.2428  -30.0213   22.2835 N   0  3  0  0  0  0  0  0  0  0  0  0
  -25.9896   -8.6120   16.8542 O   0  0  0  0  0  0  0  0  0  0  0  0
  -25.4183  -23.9937   18.2668 O   0  0  0  0  0  0  0  0  0  0  0  0
  -29.3717  -31.9370   22.9520 O   0  0  0  0  0  0  0  0  0  0  0  0
  -25.9577  -33.5105   23.2040 O   0  0  0  0  0  0  0  0  0  0  0  0
  -23.7552  -29.3089   23.3310 O   0  0  0  0  0  0  0  0  0  0  0  0
  -27.7809  -17.6885   20.1677 O   0  0  0  0  0  0  0  0  0  0  0  0
  -28.7862  -23.4843   19.3930 O   0  0  0  0  0  0  0  0  0  0  0  0
  -21.4386   -7.5897   23.0856 O   0  0  0  0  0  0  0  0  0  0  0  0
  -28.6012  -26.3009   19.6135 O   0  0  0  0  0  0  0  0  0  1  0  0
  -22.0534   -2.1361   23.6181 F   0  0  0  0  0  0  0  0  0  0  0  0
  -21.7703   -6.4363   25.5760 F   0  0  0  0  0  0  0  0  0  0  0  0
  -23.1985  -16.7663   18.0182 F   0  0  0  0  0  0  0  0  0  0  0  0
  -23.5845  -19.4069   17.5433 S   0  0  0  0  0  0  0  0  0  0  0  0
  1  2  1  0  0  0  0
  1  5  2  0  0  0  0
  2  6  2  0  0  0  0
  3  8  2  0  0  0  0
  3 15  1  0  0  0  0
  4  9  1  0  0  0  0
  4 15  2  0  0  0  0
  5 17  1  0  0  0  0
  6 19  1  0  0  0  0
  7 10  2  0  0  0  0
  7 18  1  0  0  0  0
  8 21  1  0  0  0  0
  9 21  2  0  0  0  0
 10 22  1  0  0  0  0
 11 12  2  0  0  0  0
 11 23  1  0  0  0  0
 12 24  1  0  0  0  0
 13 20  1  0  0  0  0
 13 22  2  0  0  0  0
 14 24  2  0  0  0  0
 14 25  1  0  0  0  0
 15 26  1  0  0  0  0
 16 26  1  0  0  0  0
 16 28  2  0  0  0  0
 16 32  1  0  0  0  0
 17 19  2  0  0  0  0
 17 39  1  0  0  0  0
 18 20  2  0  0  0  0
 18 40  1  0  0  0  0
 19 48  1  0  0  0  0
 20 41  1  0  0  0  0
 21 79  1  0  0  0  0
 22 80  1  0  0  0  0
 23 25  2  0  0  0  0
 23 79  1  0  0  0  0
 24 81  1  0  0  0  0
 25 82  1  0  0  0  0
 26 60  2  0  0  0  0
 27 29  2  0  0  0  0
 27 61  1  0  0  0  0
 27 67  1  0  0  0  0
 28 62  1  0  0  0  0
 28 65  1  0  0  0  0
 29 83  1  0  0  0  0
 29 84  1  0  0  0  0
 30 61  2  0  0  0  0
 30 68  1  0  0  0  0
 30 84  1  0  0  0  0
 31 33  2  0  0  0  0
 31 80  1  0  0  0  0
 32 66  1  0  0  0  0
 32 72  2  0  0  0  0
 33 34  1  0  0  0  0
 33 78  1  0  0  0  0
 34 56  1  0  0  0  0
 34 73  2  0  0  0  0
 35 49  1  0  0  0  0
 35 69  1  0  0  0  0
 35 74  2  0  0  0  0
 36 57  1  0  0  0  0
 36 63  1  0  0  0  0
 36 75  2  0  0  0  0
 37 58  1  0  0  0  0
 37 70  1  0  0  0  0
 37 76  2  0  0  0  0
 38 64  1  0  0  0  0
 38 67  1  0  0  0  0
 38 77  2  0  0  0  0
 39 42  1  0  0  0  0
 40 49  1  0  0  0  0
 41 63  1  0  0  0  0
 42 44  1  0  0  0  0
 43 45  1  0  0  0  0
 43 46  1  0  0  0  0
 44 48  1  0  0  0  0
 45 50  1  0  0  0  0
 46 64  1  0  0  0  0
 47 50  1  0  0  0  0
 47 64  1  0  0  0  0
 48 69  1  0  0  0  0
 49 63  1  0  0  0  0
 50 62  1  0  0  0  0
 51 58  1  0  0  0  0
 52 59  1  0  0  0  0
 53 59  1  0  0  0  0
 54 59  1  0  0  0  0
 55 71  1  0  0  0  0
 56 68  1  0  0  0  0
 57 59  1  0  0  0  0
 57 70  1  0  0  0  0
 58 71  1  0  0  0  0
 60 62  1  0  0  0  0
M  CHG  1  71   1
M  ISO  4  31 101  38 100  67 100  80 101
M  END
> <Batch ID>
0177

> <Smiles>
CNC(C)C(=O)NC(C(=O)N1Cc2cc([101O:1][101CH2:1]C(=O)C(=O)CNc3nc([100NH:0][100C:0](=O)N4CCCC(n5nc(-c6ccc(Oc7ccc(F)cc7F)cc6)c(C(N)=O)c5N)C4)c(F)s3)ccc2CC1C(=O)NC1CCCc2ccccc21)C(C)(C)C

> <Shape>
0.244

> <Color>
0.095

> <Negative vol penalty>
0.000

$$$$

  -OEChem-04052304413D

 86 94  0     1  0  0  0  0  0999 V2000
  -29.5102  -34.2750   24.5732 C   0  0  0  0  0  0  0  0  0  0  0  0
  -29.3665  -32.9413   24.2048 C   0  0  0  0  0  0  0  0  0  0  0  0
  -24.8716   -8.6923   21.1339 C   0  0  0  0  0  0  0  0  0  0  0  0
  -23.1846   -9.8749   19.8720 C   0  0  0  0  0  0  0  0  0  0  0  0
  -28.3913  -35.0186   24.9460 C   0  0  0  0  0  0  0  0  0  0  0  0
  -28.1037  -32.3499   24.2099 C   0  0  0  0  0  0  0  0  0  0  0  0
  -27.2421  -29.5728   20.0638 C   0  0  0  0  0  0  0  0  0  0  0  0
  -24.3662  -20.0965   17.4589 C   0  0  0  0  0  0  0  0  0  0  0  0
  -23.9098   -7.7774   21.5623 C   0  0  0  0  0  0  0  0  0  0  0  0
  -22.2228   -8.9600   20.3004 C   0  0  0  0  0  0  0  0  0  0  0  0
  -27.8263  -28.3079   20.0119 C   0  0  0  0  0  0  0  0  0  0  0  0
  -21.4500   -7.6502   23.8768 C   0  0  0  0  0  0  0  0  0  0  0  0
  -23.3347  -19.3584   18.0392 C   0  0  0  0  0  0  0  0  0  0  0  0
  -21.4451   -7.3007   25.2272 C   0  0  0  0  0  0  0  0  0  0  0  0
  -25.7250  -27.3174   20.6620 C   0  0  0  0  0  0  0  0  0  0  0  0
  -21.8232   -4.9903   24.6305 C   0  0  0  0  0  0  0  0  0  0  0  0
  -24.5090   -9.7411   20.2888 C   0  0  0  0  0  0  0  0  0  0  0  0
  -26.3039  -10.6003   18.6926 C   0  0  0  0  0  0  0  0  0  0  0  0
  -27.1128  -34.4387   24.9464 C   0  0  0  0  0  0  0  0  0  0  0  0
  -25.8956  -29.7206   20.4264 C   0  0  0  0  0  0  0  0  0  0  0  0
  -26.9667  -33.0860   24.5843 C   0  0  0  0  0  0  0  0  0  0  0  0
  -25.1254  -28.5850   20.7153 C   0  0  0  0  0  0  0  0  0  0  0  0
  -25.6898  -19.8534   17.8260 C   0  0  0  0  0  0  0  0  0  0  0  0
  -24.9502  -18.1341   19.3538 C   0  0  0  0  0  0  0  0  0  0  0  0
  -22.5854   -7.9112   21.1455 C   0  0  0  0  0  0  0  0  0  0  0  0
  -27.0685  -27.1803   20.3139 C   0  0  0  0  0  0  0  0  0  0  0  0
  -21.6414   -6.6697   22.9033 C   0  0  0  0  0  0  0  0  0  0  0  0
  -21.6317   -5.9708   25.6040 C   0  0  0  0  0  0  0  0  0  0  0  0
  -23.6266  -18.3772   18.9866 C   0  0  0  0  0  0  0  0  0  0  0  0
  -21.8280   -5.3398   23.2801 C   0  0  0  0  0  0  0  0  0  0  0  0
  -25.9818  -18.8722   18.7735 C   0  0  0  0  0  0  0  0  0  0  0  0
  -25.5019  -10.6869   19.8464 C   0  0  0  0  0  0  0  0  0  0  0  0
  -27.0752  -11.7364   18.7246 C   0  0  0  0  0  0  0  0  0  0  0  0
  -27.1072  -25.0272   19.4008 C   0  0  0  0  0  0  0  0  0  1  0  0
  -26.3477   -9.5839   17.6823 C   0  0  0  0  0  0  0  0  0  0  0  0
  -27.5276  -23.7666   19.2123 C   0  0  0  0  0  0  0  0  0  0  0  0
  -26.8002  -22.9269   18.2074 C   0  0  0  0  0  0  0  0  0  0  0  0
  -24.3579  -31.1727   22.7993 C   0  0  0  0  0  0  0  0  0  0  0  0
  -21.7297  -30.3002   21.1100 C   0  0  0  0  0  0  0  0  0  0  0  0
  -20.3204  -28.1870   18.8307 C   0  0  0  0  0  0  0  0  0  0  0  0
  -26.3163  -17.1171   21.2101 C   0  0  0  0  0  0  0  0  0  0  0  0
  -25.9393  -35.2691   25.4025 C   0  0  0  0  0  0  0  0  0  0  0  0
  -25.2733  -31.0897   20.4517 C   0  0  0  0  0  0  0  0  0  0  0  0
  -23.6704  -28.6881   21.0903 C   0  0  0  0  0  0  0  0  0  0  0  0
  -24.5866  -34.6732   25.0210 C   0  0  0  0  0  0  0  0  0  0  0  0
  -29.0107  -14.8635   21.7920 C   0  0  0  0  0  0  0  0  0  0  0  0
  -24.5477  -33.1840   25.3490 C   0  0  0  0  0  0  0  0  0  0  0  0
  -28.4920  -13.5302   21.2486 C   0  0  0  0  0  0  0  0  0  0  0  0
  -27.9021  -15.6719   22.4638 C   0  0  0  0  0  0  0  0  0  0  0  0
  -26.1848  -14.5508   21.0989 C   0  0  0  0  0  0  0  0  0  0  0  0
  -25.6102  -32.4159   24.5534 C   0  0  1  0  0  0  0  0  0  0  0  0
  -24.0302  -31.1648   21.3329 C   0  0  1  0  0  0  0  0  0  0  0  0
  -27.2515  -13.7298   20.3560 C   0  0  2  0  0  0  0  0  0  0  0  0
  -18.1447  -27.6978   17.6800 C   0  0  0  0  0  0  0  0  0  0  0  0
  -20.6760  -28.9991   23.6608 C   0  0  0  0  0  0  0  0  0  0  0  0
  -19.0233  -27.7478   22.2568 C   0  0  0  0  0  0  0  0  0  0  0  0
  -18.9562  -30.2401   22.3355 C   0  0  0  0  0  0  0  0  0  0  0  0
  -21.4825  -28.7091   16.1594 C   0  0  0  0  0  0  0  0  0  0  0  0
  -26.7976  -20.6493   17.1988 C   0  0  0  0  0  0  0  0  0  0  0  0
  -20.8282  -29.0896   21.0850 C   0  0  1  0  0  0  0  0  0  0  0  0
  -19.4629  -28.4525   17.6065 C   0  0  2  0  0  0  0  0  0  0  0  0
  -19.8988  -29.0170   22.3294 C   0  0  0  0  0  0  0  0  0  0  0  0
  -25.7416  -11.7906   20.5594 N   0  0  0  0  0  0  0  0  0  0  0  0
  -26.7030  -12.4080   19.8518 N   0  0  0  0  0  0  0  0  0  0  0  0
  -23.1091  -30.0490   21.1072 N   0  0  0  0  0  0  0  0  0  0  0  0
  -26.7617  -15.8242   21.5576 N   0  0  0  0  0  0  0  0  0  0  0  0
  -28.0287  -12.2163   17.8982 N   0  0  0  0  0  0  0  0  0  0  0  0
  -25.4873   -8.4842   17.8032 N   0  0  0  0  0  0  0  0  0  0  0  0
  -25.2460  -17.1373   20.3165 N   0  0  0  0  0  0  0  0  0  0  0  0
  -27.3229  -21.6495   18.1008 N   0  0  0  0  0  0  0  0  0  0  0  0
  -25.1740  -32.2180   23.1878 N   0  0  0  0  0  0  0  0  0  0  0  0
  -20.1186  -29.1353   19.8111 N   0  0  0  0  0  0  0  0  0  0  0  0
  -20.1792  -28.0282   16.3705 N   0  3  0  0  0  0  0  0  0  0  0  0
  -27.1382   -9.6410   16.7101 O   0  0  0  0  0  0  0  0  0  0  0  0
  -25.8475  -23.3562   17.5627 O   0  0  0  0  0  0  0  0  0  0  0  0
  -23.9028  -30.2962   23.5248 O   0  0  0  0  0  0  0  0  0  0  0  0
  -21.2286  -31.4272   21.1240 O   0  0  0  0  0  0  0  0  0  0  0  0
  -21.0895  -27.2316   18.9108 O   0  0  0  0  0  0  0  0  0  0  0  0
  -26.8629  -18.1318   21.6499 O   0  0  0  0  0  0  0  0  0  0  0  0
  -28.5862  -23.1930   19.8818 O   0  0  0  0  0  0  0  0  0  0  0  0
  -21.6467   -7.0184   21.5631 O   0  0  0  0  0  0  0  0  0  0  0  0
  -27.6364  -25.9446   20.2646 O   0  0  0  0  0  0  0  0  0  1  0  0
  -21.6286   -5.6355   26.9009 F   0  0  0  0  0  0  0  0  0  0  0  0
  -22.6274  -17.6740   19.5381 F   0  0  0  0  0  0  0  0  0  0  0  0
  -22.0135   -4.3936   22.3495 F   0  0  0  0  0  0  0  0  0  0  0  0
  -27.2554  -18.6397   19.1248 F   0  0  0  0  0  0  0  0  0  0  0  0
  1  2  1  0  0  0  0
  1  5  2  0  0  0  0
  2  6  2  0  0  0  0
  3  9  2  0  0  0  0
  3 17  1  0  0  0  0
  4 10  1  0  0  0  0
  4 17  2  0  0  0  0
  5 19  1  0  0  0  0
  6 21  1  0  0  0  0
  7 11  2  0  0  0  0
  7 20  1  0  0  0  0
  8 13  2  0  0  0  0
  8 23  1  0  0  0  0
  9 25  1  0  0  0  0
 10 25  2  0  0  0  0
 11 26  1  0  0  0  0
 12 14  2  0  0  0  0
 12 27  1  0  0  0  0
 13 29  1  0  0  0  0
 14 28  1  0  0  0  0
 15 22  1  0  0  0  0
 15 26  2  0  0  0  0
 16 28  2  0  0  0  0
 16 30  1  0  0  0  0
 17 32  1  0  0  0  0
 18 32  1  0  0  0  0
 18 33  2  0  0  0  0
 18 35  1  0  0  0  0
 19 21  2  0  0  0  0
 19 42  1  0  0  0  0
 20 22  2  0  0  0  0
 20 43  1  0  0  0  0
 21 51  1  0  0  0  0
 22 44  1  0  0  0  0
 23 31  2  0  0  0  0
 23 59  1  0  0  0  0
 24 29  2  0  0  0  0
 24 31  1  0  0  0  0
 24 69  1  0  0  0  0
 25 81  1  0  0  0  0
 26 82  1  0  0  0  0
 27 30  2  0  0  0  0
 27 81  1  0  0  0  0
 28 83  1  0  0  0  0
 29 84  1  0  0  0  0
 30 85  1  0  0  0  0
 31 86  1  0  0  0  0
 32 63  2  0  0  0  0
 33 64  1  0  0  0  0
 33 67  1  0  0  0  0
 34 36  2  0  0  0  0
 34 82  1  0  0  0  0
 35 68  1  0  0  0  0
 35 74  2  0  0  0  0
 36 37  1  0  0  0  0
 36 80  1  0  0  0  0
 37 70  1  0  0  0  0
 37 75  2  0  0  0  0
 38 52  1  0  0  0  0
 38 71  1  0  0  0  0
 38 76  2  0  0  0  0
 39 60  1  0  0  0  0
 39 65  1  0  0  0  0
 39 77  2  0  0  0  0
 40 61  1  0  0  0  0
 40 72  1  0  0  0  0
 40 78  2  0  0  0  0
 41 66  1  0  0  0  0
 41 69  1  0  0  0  0
 41 79  2  0  0  0  0
 42 45  1  0  0  0  0
 43 52  1  0  0  0  0
 44 65  1  0  0  0  0
 45 47  1  0  0  0  0
 46 48  1  0  0  0  0
 46 49  1  0  0  0  0
 47 51  1  0  0  0  0
 48 53  1  0  0  0  0
 49 66  1  0  0  0  0
 50 53  1  0  0  0  0
 50 66  1  0  0  0  0
 51 71  1  0  0  0  0
 52 65  1  0  0  0  0
 53 64  1  0  0  0  0
 54 61  1  0  0  0  0
 55 62  1  0  0  0  0
 56 62  1  0  0  0  0
 57 62  1  0  0  0  0
 58 73  1  0  0  0  0
 59 70  1  0  0  0  0
 60 62  1  0  0  0  0
 60 72  1  0  0  0  0
 61 73  1  0  0  0  0
 63 64  1  0  0  0  0
M  CHG  1  73   1
M  ISO  4  34 101  41 100  69 100  82 101
M  END
> <Batch ID>
0177

> <Smiles>
CNC(C)C(=O)NC(C(=O)N1Cc2cc([101O:1][101CH2:1]C(=O)C(=O)NCc3ccc(F)c([100NH:0][100C:0](=O)N4CCCC(n5nc(-c6ccc(Oc7ccc(F)cc7F)cc6)c(C(N)=O)c5N)C4)c3F)ccc2CC1C(=O)NC1CCCc2ccccc21)C(C)(C)C

> <Shape>
0.285

> <Color>
0.092

> <Negative vol penalty>
0.000

$$$$

  -OEChem-04052304413D

 83 91  0     1  0  0  0  0  0999 V2000
  -30.5058  -36.0587   22.1305 C   0  0  0  0  0  0  0  0  0  0  0  0
  -30.4712  -34.8233   21.4918 C   0  0  0  0  0  0  0  0  0  0  0  0
  -24.7116   -8.6756   21.4753 C   0  0  0  0  0  0  0  0  0  0  0  0
  -23.2127   -9.8800   20.0126 C   0  0  0  0  0  0  0  0  0  0  0  0
  -29.7851  -36.2538   23.3080 C   0  0  0  0  0  0  0  0  0  0  0  0
  -29.7167  -33.7819   22.0308 C   0  0  0  0  0  0  0  0  0  0  0  0
  -26.6709  -29.4599   18.9405 C   0  0  0  0  0  0  0  0  0  0  0  0
  -23.6440   -7.9040   21.9340 C   0  0  0  0  0  0  0  0  0  0  0  0
  -22.1450   -9.1084   20.4713 C   0  0  0  0  0  0  0  0  0  0  0  0
  -26.9869  -28.1419   18.6136 C   0  0  0  0  0  0  0  0  0  0  0  0
  -21.8428   -5.2529   20.8569 C   0  0  0  0  0  0  0  0  0  0  0  0
  -22.0371   -3.8758   20.9639 C   0  0  0  0  0  0  0  0  0  0  0  0
  -25.7555  -27.3750   20.5409 C   0  0  0  0  0  0  0  0  0  0  0  0
  -21.5699   -3.9937   23.3314 C   0  0  0  0  0  0  0  0  0  0  0  0
  -24.1711  -19.4308   17.6973 C   0  0  0  0  0  0  0  0  0  0  0  0
  -24.4959   -9.6636   20.5146 C   0  0  0  0  0  0  0  0  0  0  0  0
  -26.4410  -10.1833   18.9479 C   0  0  0  0  0  0  0  0  0  0  0  0
  -29.0136  -35.2172   23.8565 C   0  0  0  0  0  0  0  0  0  0  0  0
  -25.9028  -29.7465   20.0782 C   0  0  0  0  0  0  0  0  0  0  0  0
  -28.9861  -33.9629   23.2174 C   0  0  0  0  0  0  0  0  0  0  0  0
  -25.4290  -28.6972   20.8787 C   0  0  0  0  0  0  0  0  0  0  0  0
  -22.3607   -8.1203   21.4320 C   0  0  0  0  0  0  0  0  0  0  0  0
  -26.5316  -27.0994   19.4154 C   0  0  0  0  0  0  0  0  0  0  0  0
  -21.5121   -6.0005   21.9872 C   0  0  0  0  0  0  0  0  0  0  0  0
  -21.9006   -3.2462   22.2011 C   0  0  0  0  0  0  0  0  0  0  0  0
  -21.3756   -5.3709   23.2244 C   0  0  0  0  0  0  0  0  0  0  0  0
  -25.5983  -10.4614   20.0408 C   0  0  0  0  0  0  0  0  0  0  0  0
  -25.1263  -20.0895   18.4429 C   0  0  0  0  0  0  0  0  0  0  0  0
  -27.3197  -11.2383   18.9147 C   0  0  0  0  0  0  0  0  0  0  0  0
  -25.4739  -18.0551   19.1848 C   0  0  0  0  0  0  0  0  0  0  0  0
  -26.4303   -9.0708   18.0435 C   0  0  0  0  0  0  0  0  0  0  0  0
  -25.1730  -23.7936   17.7843 C   0  0  0  0  0  0  0  0  0  0  0  0
  -24.6891  -22.3888   17.5684 C   0  0  0  0  0  0  0  0  0  0  0  0
  -26.3963  -31.3659   22.7685 C   0  0  0  0  0  0  0  0  0  0  0  0
  -23.2490  -30.7512   23.2571 C   0  0  0  0  0  0  0  0  0  0  0  0
  -20.5467  -28.7740   22.5975 C   0  0  0  0  0  0  0  0  0  0  0  0
  -26.9873  -16.8896   20.8273 C   0  0  0  0  0  0  0  0  0  0  0  0
  -28.2892  -35.4611   25.1566 C   0  0  0  0  0  0  0  0  0  0  0  0
  -25.5482  -31.1718   20.4023 C   0  0  0  0  0  0  0  0  0  0  0  0
  -24.5840  -28.9504   22.0995 C   0  0  0  0  0  0  0  0  0  0  0  0
  -27.2151  -34.4197   25.4601 C   0  0  0  0  0  0  0  0  0  0  0  0
  -29.4122  -14.4604   21.7737 C   0  0  0  0  0  0  0  0  0  0  0  0
  -27.7540  -33.0125   25.2235 C   0  0  0  0  0  0  0  0  0  0  0  0
  -28.7888  -13.1345   21.3317 C   0  0  0  0  0  0  0  0  0  0  0  0
  -28.3598  -15.4341   22.3012 C   0  0  0  0  0  0  0  0  0  0  0  0
  -26.6049  -14.3493   20.9547 C   0  0  0  0  0  0  0  0  0  0  0  0
  -28.1595  -32.8162   23.7577 C   0  0  1  0  0  0  0  0  0  0  0  0
  -25.1914  -31.3797   21.8709 C   0  0  1  0  0  0  0  0  0  0  0  0
  -27.6178  -13.3601   20.3553 C   0  0  2  0  0  0  0  0  0  0  0  0
  -18.1196  -28.4991   23.1729 C   0  0  0  0  0  0  0  0  0  0  0  0
  -24.0261  -29.5840   25.9670 C   0  0  0  0  0  0  0  0  0  0  0  0
  -21.7735  -28.4958   26.0661 C   0  0  0  0  0  0  0  0  0  0  0  0
  -21.9530  -30.9827   25.9894 C   0  0  0  0  0  0  0  0  0  0  0  0
  -19.7167  -29.1544   19.7823 C   0  0  0  0  0  0  0  0  0  0  0  0
  -26.6271  -24.0600   17.4622 C   0  0  0  0  0  0  0  0  0  0  0  0
  -27.0176  -25.5081   17.7161 C   0  0  0  0  0  0  0  0  0  1  0  0
  -22.4659  -29.6382   23.9106 C   0  0  1  0  0  0  0  0  0  0  0  0
  -19.1199  -29.1155   22.2074 C   0  0  2  0  0  0  0  0  0  0  0  0
  -22.5721  -29.6702   25.4614 C   0  0  0  0  0  0  0  0  0  0  0  0
  -25.9135  -11.6035   20.6574 N   0  0  0  0  0  0  0  0  0  0  0  0
  -25.8741  -19.3023   19.2967 N   0  0  0  0  0  0  0  0  0  0  0  0
  -26.9641  -12.0524   19.9496 N   0  0  0  0  0  0  0  0  0  0  0  0
  -24.2694  -30.3614   22.3782 N   0  0  0  0  0  0  0  0  0  0  0  0
  -27.2842  -15.6019   21.3215 N   0  0  0  0  0  0  0  0  0  0  0  0
  -28.3543  -11.5398   18.1016 N   0  0  0  0  0  0  0  0  0  0  0  0
  -25.4594   -8.0755   18.2201 N   0  0  0  0  0  0  0  0  0  0  0  0
  -25.3527  -21.4836   18.3682 N   0  0  0  0  0  0  0  0  0  0  0  0
  -25.9675  -16.9213   19.8767 N   0  0  0  0  0  0  0  0  0  0  0  0
  -26.9889  -32.6032   22.9338 N   0  0  0  0  0  0  0  0  0  0  0  0
  -21.1025  -29.7456   23.4027 N   0  0  0  0  0  0  0  0  0  0  0  0
  -18.8227  -28.6109   20.8370 N   0  3  0  0  0  0  0  0  0  0  0  0
  -27.2674   -8.9542   17.1167 O   0  0  0  0  0  0  0  0  0  0  0  0
  -24.3591  -24.6097   18.1894 O   0  0  0  0  0  0  0  0  0  0  0  0
  -23.7862  -22.2399   16.7619 O   0  0  0  0  0  0  0  0  0  0  0  0
  -26.7605  -30.3110   23.2748 O   0  0  0  0  0  0  0  0  0  0  0  0
  -22.9610  -31.9234   23.5115 O   0  0  0  0  0  0  0  0  0  0  0  0
  -21.1104  -27.7462   22.2282 O   0  0  0  0  0  0  0  0  0  0  0  0
  -27.6114  -17.8870   21.1983 O   0  0  0  0  0  0  0  0  0  0  0  0
  -21.3188   -7.3674   21.8792 O   0  0  0  0  0  0  0  0  0  0  0  0
  -26.8391  -25.8121   19.0989 O   0  0  0  0  0  0  0  0  0  1  0  0
  -22.0857   -1.9235   22.3033 F   0  0  0  0  0  0  0  0  0  0  0  0
  -21.0569   -6.0836   24.3136 F   0  0  0  0  0  0  0  0  0  0  0  0
  -24.2028  -17.7573   18.0710 S   0  0  0  0  0  0  0  0  0  0  0  0
  1  2  1  0  0  0  0
  1  5  2  0  0  0  0
  2  6  2  0  0  0  0
  3  8  2  0  0  0  0
  3 16  1  0  0  0  0
  4  9  1  0  0  0  0
  4 16  2  0  0  0  0
  5 18  1  0  0  0  0
  6 20  1  0  0  0  0
  7 10  2  0  0  0  0
  7 19  1  0  0  0  0
  8 22  1  0  0  0  0
  9 22  2  0  0  0  0
 10 23  1  0  0  0  0
 11 12  2  0  0  0  0
 11 24  1  0  0  0  0
 12 25  1  0  0  0  0
 13 21  1  0  0  0  0
 13 23  2  0  0  0  0
 14 25  2  0  0  0  0
 14 26  1  0  0  0  0
 15 28  2  0  0  0  0
 15 83  1  0  0  0  0
 16 27  1  0  0  0  0
 17 27  1  0  0  0  0
 17 29  2  0  0  0  0
 17 31  1  0  0  0  0
 18 20  2  0  0  0  0
 18 38  1  0  0  0  0
 19 21  2  0  0  0  0
 19 39  1  0  0  0  0
 20 47  1  0  0  0  0
 21 40  1  0  0  0  0
 22 79  1  0  0  0  0
 23 80  1  0  0  0  0
 24 26  2  0  0  0  0
 24 79  1  0  0  0  0
 25 81  1  0  0  0  0
 26 82  1  0  0  0  0
 27 60  2  0  0  0  0
 28 61  1  0  0  0  0
 28 67  1  0  0  0  0
 29 62  1  0  0  0  0
 29 65  1  0  0  0  0
 30 61  2  0  0  0  0
 30 68  1  0  0  0  0
 30 83  1  0  0  0  0
 31 66  1  0  0  0  0
 31 72  2  0  0  0  0
 32 33  1  0  0  0  0
 32 55  1  0  0  0  0
 32 73  2  0  0  0  0
 33 67  1  0  0  0  0
 33 74  2  0  0  0  0
 34 48  1  0  0  0  0
 34 69  1  0  0  0  0
 34 75  2  0  0  0  0
 35 57  1  0  0  0  0
 35 63  1  0  0  0  0
 35 76  2  0  0  0  0
 36 58  1  0  0  0  0
 36 70  1  0  0  0  0
 36 77  2  0  0  0  0
 37 64  1  0  0  0  0
 37 68  1  0  0  0  0
 37 78  2  0  0  0  0
 38 41  1  0  0  0  0
 39 48  1  0  0  0  0
 40 63  1  0  0  0  0
 41 43  1  0  0  0  0
 42 44  1  0  0  0  0
 42 45  1  0  0  0  0
 43 47  1  0  0  0  0
 44 49  1  0  0  0  0
 45 64  1  0  0  0  0
 46 49  1  0  0  0  0
 46 64  1  0  0  0  0
 47 69  1  0  0  0  0
 48 63  1  0  0  0  0
 49 62  1  0  0  0  0
 50 58  1  0  0  0  0
 51 59  1  0  0  0  0
 52 59  1  0  0  0  0
 53 59  1  0  0  0  0
 54 71  1  0  0  0  0
 55 56  1  0  0  0  0
 56 80  1  0  0  0  0
 57 59  1  0  0  0  0
 57 70  1  0  0  0  0
 58 71  1  0  0  0  0
 60 62  1  0  0  0  0
M  CHG  1  71   1
M  ISO  4  37 100  56 101  68 100  80 101
M  END
> <Batch ID>
0177

> <Smiles>
CNC(C)C(=O)NC(C(=O)N1Cc2cc([101O:1][101CH2:1]CC(=O)C(=O)Nc3csc([100NH:0][100C:0](=O)N4CCCC(n5nc(-c6ccc(Oc7ccc(F)cc7F)cc6)c(C(N)=O)c5N)C4)n3)ccc2CC1C(=O)NC1CCCc2ccccc21)C(C)(C)C

> <Shape>
0.255

> <Color>
0.094

> <Negative vol penalty>
0.000

$$$$

  -OEChem-04052304413D

 88 96  0     1  0  0  0  0  0999 V2000
  -31.1898  -35.0651   23.2502 C   0  0  0  0  0  0  0  0  0  0  0  0
  -31.0790  -33.8984   22.5007 C   0  0  0  0  0  0  0  0  0  0  0  0
  -24.5582   -9.0998   21.9159 C   0  0  0  0  0  0  0  0  0  0  0  0
  -23.0402   -9.9211   20.2253 C   0  0  0  0  0  0  0  0  0  0  0  0
  -30.3698  -35.2592   24.3611 C   0  0  0  0  0  0  0  0  0  0  0  0
  -30.1488  -32.9245   22.8622 C   0  0  0  0  0  0  0  0  0  0  0  0
  -26.9726  -29.2883   19.0945 C   0  0  0  0  0  0  0  0  0  0  0  0
  -23.5462   -8.2901   22.4313 C   0  0  0  0  0  0  0  0  0  0  0  0
  -22.0281   -9.1114   20.7407 C   0  0  0  0  0  0  0  0  0  0  0  0
  -27.1625  -27.9702   18.6819 C   0  0  0  0  0  0  0  0  0  0  0  0
  -22.0863   -5.3374   21.6673 C   0  0  0  0  0  0  0  0  0  0  0  0
  -22.4092   -4.0175   21.9820 C   0  0  0  0  0  0  0  0  0  0  0  0
  -25.6388  -27.2207   20.3953 C   0  0  0  0  0  0  0  0  0  0  0  0
  -23.4277  -19.9312   16.6331 C   0  0  0  0  0  0  0  0  0  0  0  0
  -23.5833  -17.6602   17.4094 C   0  0  0  0  0  0  0  0  0  0  0  0
  -21.7878   -4.4140   24.2828 C   0  0  0  0  0  0  0  0  0  0  0  0
  -24.3052   -9.9154   20.8129 C   0  0  0  0  0  0  0  0  0  0  0  0
  -26.2819  -10.4163   19.2800 C   0  0  0  0  0  0  0  0  0  0  0  0
  -29.4225  -34.2914   24.7307 C   0  0  0  0  0  0  0  0  0  0  0  0
  -26.1214  -29.5820   20.1695 C   0  0  0  0  0  0  0  0  0  0  0  0
  -29.3164  -33.1051   23.9798 C   0  0  0  0  0  0  0  0  0  0  0  0
  -25.4378  -28.5436   20.8179 C   0  0  0  0  0  0  0  0  0  0  0  0
  -23.0281  -18.6020   16.5503 C   0  0  0  0  0  0  0  0  0  0  0  0
  -22.2811   -8.2959   21.8437 C   0  0  0  0  0  0  0  0  0  0  0  0
  -26.4978  -26.9359   19.3341 C   0  0  0  0  0  0  0  0  0  0  0  0
  -21.6142   -6.1957   22.6604 C   0  0  0  0  0  0  0  0  0  0  0  0
  -22.2599   -3.5557   23.2897 C   0  0  0  0  0  0  0  0  0  0  0  0
  -21.4649   -5.7340   23.9681 C   0  0  0  0  0  0  0  0  0  0  0  0
  -25.3501  -10.7524   20.2803 C   0  0  0  0  0  0  0  0  0  0  0  0
  -24.3781  -20.2646   17.5847 C   0  0  0  0  0  0  0  0  0  0  0  0
  -24.5268  -18.0952   18.3260 C   0  0  0  0  0  0  0  0  0  0  0  0
  -27.0522  -11.5442   19.1352 C   0  0  0  0  0  0  0  0  0  0  0  0
  -26.4373   -9.1937   18.5473 C   0  0  0  0  0  0  0  0  0  0  0  0
  -24.9438  -23.9716   17.2768 C   0  0  0  0  0  0  0  0  0  0  0  0
  -24.3218  -22.6624   16.8848 C   0  0  0  0  0  0  0  0  0  0  0  0
  -26.5002  -30.9084   23.0332 C   0  0  0  0  0  0  0  0  0  0  0  0
  -23.2669  -30.6701   23.1403 C   0  0  0  0  0  0  0  0  0  0  0  0
  -20.4379  -29.1171   22.0303 C   0  0  0  0  0  0  0  0  0  0  0  0
  -26.0441  -17.3388   20.1894 C   0  0  0  0  0  0  0  0  0  0  0  0
  -28.5910  -34.5247   25.9672 C   0  0  0  0  0  0  0  0  0  0  0  0
  -25.9066  -31.0115   20.5851 C   0  0  0  0  0  0  0  0  0  0  0  0
  -24.4974  -28.8077   21.9643 C   0  0  0  0  0  0  0  0  0  0  0  0
  -27.3722  -33.6106   26.0630 C   0  0  0  0  0  0  0  0  0  0  0  0
  -28.6349  -15.3387   21.5910 C   0  0  0  0  0  0  0  0  0  0  0  0
  -27.7611  -32.1682   25.7544 C   0  0  0  0  0  0  0  0  0  0  0  0
  -28.1743  -13.9051   21.3175 C   0  0  0  0  0  0  0  0  0  0  0  0
  -27.4607  -16.2583   21.9216 C   0  0  0  0  0  0  0  0  0  0  0  0
  -25.9083  -14.8150   20.6663 C   0  0  0  0  0  0  0  0  0  0  0  0
  -28.3024  -32.0364   24.3257 C   0  0  1  0  0  0  0  0  0  0  0  0
  -25.4144  -31.1483   22.0226 C   0  0  1  0  0  0  0  0  0  0  0  0
  -27.0492  -13.8658   20.2649 C   0  0  2  0  0  0  0  0  0  0  0  0
  -17.9462  -29.1146   22.3278 C   0  0  0  0  0  0  0  0  0  0  0  0
  -23.5880  -29.2037   25.7967 C   0  0  0  0  0  0  0  0  0  0  0  0
  -21.2241  -28.4120   25.5656 C   0  0  0  0  0  0  0  0  0  0  0  0
  -21.7090  -30.8530   25.7360 C   0  0  0  0  0  0  0  0  0  0  0  0
  -19.9819  -29.8208   19.1920 C   0  0  0  0  0  0  0  0  0  0  0  0
  -26.4463  -24.0718   17.1303 C   0  0  0  0  0  0  0  0  0  0  0  0
  -26.9771  -25.4329   17.5544 C   0  0  0  0  0  0  0  0  0  1  0  0
  -22.2871  -29.6202   23.6057 C   0  0  1  0  0  0  0  0  0  0  0  0
  -19.1157  -29.6699   21.5299 C   0  0  2  0  0  0  0  0  0  0  0  0
  -22.0086  -18.1882   15.5443 C   0  0  0  0  0  0  0  0  0  0  0  0
  -22.2212  -29.5167   25.1557 C   0  0  0  0  0  0  0  0  0  0  0  0
  -25.5120  -11.9965   20.7387 N   0  0  0  0  0  0  0  0  0  0  0  0
  -24.9399  -19.3777   18.4363 N   0  0  0  0  0  0  0  0  0  0  0  0
  -26.5545  -12.4519   20.0232 N   0  0  0  0  0  0  0  0  0  0  0  0
  -24.3254  -30.2214   22.3378 N   0  0  0  0  0  0  0  0  0  0  0  0
  -26.4361  -16.1718   20.8787 N   0  0  0  0  0  0  0  0  0  0  0  0
  -28.0998  -11.8381   18.3362 N   0  0  0  0  0  0  0  0  0  0  0  0
  -25.5608   -8.1348   18.8208 N   0  0  0  0  0  0  0  0  0  0  0  0
  -24.7775  -21.6192   17.6617 N   0  0  0  0  0  0  0  0  0  0  0  0
  -25.0867  -17.1284   19.1975 N   0  0  0  0  0  0  0  0  0  0  0  0
  -27.2149  -32.0418   23.3708 N   0  0  0  0  0  0  0  0  0  0  0  0
  -21.0124  -29.9426   22.9736 N   0  0  0  0  0  0  0  0  0  0  0  0
  -18.9160  -29.3168   20.0959 N   0  3  0  0  0  0  0  0  0  0  0  0
  -27.3373   -9.0392   17.6873 O   0  0  0  0  0  0  0  0  0  0  0  0
  -24.1936  -24.8519   17.6701 O   0  0  0  0  0  0  0  0  0  0  0  0
  -23.5042  -22.6953   15.9803 O   0  0  0  0  0  0  0  0  0  0  0  0
  -26.6755  -29.7789   23.4751 O   0  0  0  0  0  0  0  0  0  0  0  0
  -23.0952  -31.8462   23.4704 O   0  0  0  0  0  0  0  0  0  0  0  0
  -20.9119  -28.0570   21.6276 O   0  0  0  0  0  0  0  0  0  0  0  0
  -26.5423  -18.4391   20.4405 O   0  0  0  0  0  0  0  0  0  0  0  0
  -21.2934   -7.5057   22.3462 O   0  0  0  0  0  0  0  0  0  0  0  0
  -26.6819  -25.6483   18.9338 O   0  0  0  0  0  0  0  0  0  1  0  0
  -22.5686   -2.2877   23.5914 F   0  0  0  0  0  0  0  0  0  0  0  0
  -21.0107   -6.5535   24.9262 F   0  0  0  0  0  0  0  0  0  0  0  0
  -21.5528  -19.2177   14.7705 F   0  0  0  0  0  0  0  0  0  0  0  0
  -22.4620  -17.2518   14.6590 F   0  0  0  0  0  0  0  0  0  0  0  0
  -20.8966  -17.6415   16.1172 F   0  0  0  0  0  0  0  0  0  0  0  0
  1  2  1  0  0  0  0
  1  5  2  0  0  0  0
  2  6  2  0  0  0  0
  3  8  2  0  0  0  0
  3 17  1  0  0  0  0
  4  9  1  0  0  0  0
  4 17  2  0  0  0  0
  5 19  1  0  0  0  0
  6 21  1  0  0  0  0
  7 10  2  0  0  0  0
  7 20  1  0  0  0  0
  8 24  1  0  0  0  0
  9 24  2  0  0  0  0
 10 25  1  0  0  0  0
 11 12  2  0  0  0  0
 11 26  1  0  0  0  0
 12 27  1  0  0  0  0
 13 22  1  0  0  0  0
 13 25  2  0  0  0  0
 14 23  2  0  0  0  0
 14 30  1  0  0  0  0
 15 23  1  0  0  0  0
 15 31  2  0  0  0  0
 16 27  2  0  0  0  0
 16 28  1  0  0  0  0
 17 29  1  0  0  0  0
 18 29  1  0  0  0  0
 18 32  2  0  0  0  0
 18 33  1  0  0  0  0
 19 21  2  0  0  0  0
 19 40  1  0  0  0  0
 20 22  2  0  0  0  0
 20 41  1  0  0  0  0
 21 49  1  0  0  0  0
 22 42  1  0  0  0  0
 23 61  1  0  0  0  0
 24 82  1  0  0  0  0
 25 83  1  0  0  0  0
 26 28  2  0  0  0  0
 26 82  1  0  0  0  0
 27 84  1  0  0  0  0
 28 85  1  0  0  0  0
 29 63  2  0  0  0  0
 30 64  2  0  0  0  0
 30 70  1  0  0  0  0
 31 64  1  0  0  0  0
 31 71  1  0  0  0  0
 32 65  1  0  0  0  0
 32 68  1  0  0  0  0
 33 69  1  0  0  0  0
 33 75  2  0  0  0  0
 34 35  1  0  0  0  0
 34 57  1  0  0  0  0
 34 76  2  0  0  0  0
 35 70  1  0  0  0  0
 35 77  2  0  0  0  0
 36 50  1  0  0  0  0
 36 72  1  0  0  0  0
 36 78  2  0  0  0  0
 37 59  1  0  0  0  0
 37 66  1  0  0  0  0
 37 79  2  0  0  0  0
 38 60  1  0  0  0  0
 38 73  1  0  0  0  0
 38 80  2  0  0  0  0
 39 67  1  0  0  0  0
 39 71  1  0  0  0  0
 39 81  2  0  0  0  0
 40 43  1  0  0  0  0
 41 50  1  0  0  0  0
 42 66  1  0  0  0  0
 43 45  1  0  0  0  0
 44 46  1  0  0  0  0
 44 47  1  0  0  0  0
 45 49  1  0  0  0  0
 46 51  1  0  0  0  0
 47 67  1  0  0  0  0
 48 51  1  0  0  0  0
 48 67  1  0  0  0  0
 49 72  1  0  0  0  0
 50 66  1  0  0  0  0
 51 65  1  0  0  0  0
 52 60  1  0  0  0  0
 53 62  1  0  0  0  0
 54 62  1  0  0  0  0
 55 62  1  0  0  0  0
 56 74  1  0  0  0  0
 57 58  1  0  0  0  0
 58 83  1  0  0  0  0
 59 62  1  0  0  0  0
 59 73  1  0  0  0  0
 60 74  1  0  0  0  0
 61 86  1  0  0  0  0
 61 87  1  0  0  0  0
 61 88  1  0  0  0  0
 63 65  1  0  0  0  0
M  CHG  1  74   1
M  ISO  4  39 100  58 101  71 100  83 101
M  END
> <Batch ID>
0177

> <Smiles>
CNC(C)C(=O)NC(C(=O)N1Cc2cc([101O:1][101CH2:1]CC(=O)C(=O)Nc3cc(C(F)(F)F)cc([100NH:0][100C:0](=O)N4CCCC(n5nc(-c6ccc(Oc7ccc(F)cc7F)cc6)c(C(N)=O)c5N)C4)n3)ccc2CC1C(=O)NC1CCCc2ccccc21)C(C)(C)C

> <Shape>
0.252

> <Color>
0.097

> <Negative vol penalty>
0.000

$$$$

  -OEChem-04052304413D

 88 96  0     1  0  0  0  0  0999 V2000
  -19.4837  -22.2175   33.4291 C   0  0  0  0  0  0  0  0  0  0  0  0
  -20.0248  -22.4939   32.1776 C   0  0  0  0  0  0  0  0  0  0  0  0
  -23.0719   -9.8701   19.9444 C   0  0  0  0  0  0  0  0  0  0  0  0
  -23.8345   -9.8793   22.2369 C   0  0  0  0  0  0  0  0  0  0  0  0
  -19.3148  -20.8952   33.8377 C   0  0  0  0  0  0  0  0  0  0  0  0
  -20.3985  -21.4481   31.3344 C   0  0  0  0  0  0  0  0  0  0  0  0
  -20.0301  -21.3356   25.2223 C   0  0  0  0  0  0  0  0  0  0  0  0
  -22.3283   -8.7173   20.1963 C   0  0  0  0  0  0  0  0  0  0  0  0
  -23.0908   -8.7265   22.4889 C   0  0  0  0  0  0  0  0  0  0  0  0
  -20.9734  -21.5637   24.2214 C   0  0  0  0  0  0  0  0  0  0  0  0
  -22.9007   -5.3991   20.4898 C   0  0  0  0  0  0  0  0  0  0  0  0
  -22.9664   -4.3686   19.5522 C   0  0  0  0  0  0  0  0  0  0  0  0
  -21.3672  -19.1892   24.0599 C   0  0  0  0  0  0  0  0  0  0  0  0
  -20.5815   -4.5342   19.2031 C   0  0  0  0  0  0  0  0  0  0  0  0
  -23.8251  -10.4512   20.9646 C   0  0  0  0  0  0  0  0  0  0  0  0
  -24.1669  -12.9762   20.8417 C   0  0  0  0  0  0  0  0  0  0  0  0
  -19.6777  -19.8326   32.9952 C   0  0  0  0  0  0  0  0  0  0  0  0
  -19.7556  -20.0312   25.6579 C   0  0  0  0  0  0  0  0  0  0  0  0
  -20.2356  -20.1103   31.7327 C   0  0  0  0  0  0  0  0  0  0  0  0
  -20.4180  -18.9471   25.0647 C   0  0  0  0  0  0  0  0  0  0  0  0
  -22.3377   -8.1455   21.4686 C   0  0  0  0  0  0  0  0  0  0  0  0
  -21.6442  -20.4906   23.6421 C   0  0  0  0  0  0  0  0  0  0  0  0
  -21.6754   -5.9971   20.7842 C   0  0  0  0  0  0  0  0  0  0  0  0
  -21.8069   -3.9361   18.9087 C   0  0  0  0  0  0  0  0  0  0  0  0
  -20.5158   -5.5647   20.1408 C   0  0  0  0  0  0  0  0  0  0  0  0
  -24.5939  -11.6417   20.7049 C   0  0  0  0  0  0  0  0  0  0  0  0
  -29.9571  -17.7738   22.7190 C   0  0  0  0  0  0  0  0  0  0  0  0
  -30.2339  -18.2020   24.0005 C   0  0  0  0  0  0  0  0  0  0  0  0
  -25.2587  -13.7252   20.4765 C   0  0  0  0  0  0  0  0  0  0  0  0
  -28.1574  -18.9800   23.0597 C   0  0  0  0  0  0  0  0  0  0  0  0
  -22.8969  -13.4925   21.2616 C   0  0  0  0  0  0  0  0  0  0  0  0
  -24.8634  -20.4694   22.0158 C   0  0  0  0  0  0  0  0  0  0  0  0
  -26.0844  -19.6181   21.8194 C   0  0  0  0  0  0  0  0  0  0  0  0
  -20.0316  -18.4843   28.4210 C   0  0  0  0  0  0  0  0  0  0  0  0
  -18.5192  -16.1165   26.7998 C   0  0  0  0  0  0  0  0  0  0  0  0
  -17.7603  -14.6905   23.7935 C   0  0  0  0  0  0  0  0  0  0  0  0
  -30.7427  -14.7442   20.6575 C   0  0  0  0  0  0  0  0  0  0  0  0
  -19.5202  -18.4200   33.4996 C   0  0  0  0  0  0  0  0  0  0  0  0
  -18.7158  -19.8000   26.7199 C   0  0  0  0  0  0  0  0  0  0  0  0
  -20.1450  -17.5260   25.4824 C   0  0  0  0  0  0  0  0  0  0  0  0
  -19.5941  -17.3675   32.3963 C   0  0  0  0  0  0  0  0  0  0  0  0
  -29.6022  -12.3574   18.2744 C   0  0  0  0  0  0  0  0  0  0  0  0
  -20.7771  -17.6434   31.4737 C   0  0  0  0  0  0  0  0  0  0  0  0
  -28.1652  -12.0642   18.7093 C   0  0  0  0  0  0  0  0  0  0  0  0
  -30.5207  -12.5793   19.4740 C   0  0  0  0  0  0  0  0  0  0  0  0
  -28.6206  -13.3119   20.8621 C   0  0  0  0  0  0  0  0  0  0  0  0
  -20.6302  -19.0029   30.7797 C   0  0  1  0  0  0  0  0  0  0  0  0
  -18.8887  -18.4693   27.4457 C   0  0  1  0  0  0  0  0  0  0  0  0
  -27.6451  -13.1362   19.6857 C   0  0  2  0  0  0  0  0  0  0  0  0
  -16.5385  -12.7417   22.7901 C   0  0  0  0  0  0  0  0  0  0  0  0
  -30.1527  -17.3741   27.0056 C   0  0  0  0  0  0  0  0  0  0  0  0
  -30.6825  -15.5197   25.4233 C   0  0  0  0  0  0  0  0  0  0  0  0
  -32.5101  -16.5952   26.7610 C   0  0  0  0  0  0  0  0  0  0  0  0
  -20.7979  -14.2643   27.6285 C   0  0  0  0  0  0  0  0  0  0  0  0
  -20.0429  -12.6592   25.8616 C   0  0  0  0  0  0  0  0  0  0  0  0
  -18.5212  -13.2370   27.7519 C   0  0  0  0  0  0  0  0  0  0  0  0
  -15.9176  -16.4638   22.3040 C   0  0  0  0  0  0  0  0  0  0  0  0
  -30.8101  -16.8959   21.8922 C   0  0  0  0  0  0  0  0  0  0  0  0
  -31.3959  -17.9215   24.8671 C   0  0  0  0  0  0  0  0  0  0  0  0
  -23.6430  -19.7795   22.5672 C   0  0  0  0  0  0  0  0  0  1  0  0
  -18.9628  -14.9520   25.9476 C   0  0  1  0  0  0  0  0  0  0  0  0
  -16.4457  -14.1989   23.2151 C   0  0  2  0  0  0  0  0  0  0  0  0
  -31.1983  -16.8501   25.9985 C   0  0  0  0  0  0  0  0  0  0  0  0
  -19.5880  -13.8049   26.7907 C   0  0  0  0  0  0  0  0  0  0  0  0
  -25.8583  -11.5454   20.2852 N   0  0  0  0  0  0  0  0  0  0  0  0
  -28.7666  -18.2186   22.1780 N   0  0  0  0  0  0  0  0  0  0  0  0
  -26.2351  -12.8289   20.1552 N   0  0  0  0  0  0  0  0  0  0  0  0
  -19.1243  -17.3520   26.5290 N   0  0  0  0  0  0  0  0  0  0  0  0
  -29.9712  -13.6087   20.3596 N   0  0  0  0  0  0  0  0  0  0  0  0
  -25.4690  -15.0566   20.4019 N   0  0  0  0  0  0  0  0  0  0  0  0
  -21.8853  -12.5837   21.6010 N   0  0  0  0  0  0  0  0  0  0  0  0
  -26.9145  -19.6404   22.9194 N   0  0  0  0  0  0  0  0  0  0  0  0
  -19.6845  -18.9134   29.6878 N   0  0  0  0  0  0  0  0  0  0  0  0
  -17.7984  -14.5521   25.1649 N   0  0  0  0  0  0  0  0  0  0  0  0
  -30.1445  -15.6738   21.4993 N   0  0  0  0  0  0  0  0  0  0  0  0
  -16.0669  -15.0123   22.0251 N   0  3  0  0  0  0  0  0  0  0  0  0
  -22.6608  -14.7232   21.3180 O   0  0  0  0  0  0  0  0  0  0  0  0
  -24.9380  -21.6469   21.6986 O   0  0  0  0  0  0  0  0  0  0  0  0
  -26.1926  -19.0584   20.7410 O   0  0  0  0  0  0  0  0  0  0  0  0
  -21.1455  -18.1312   28.0519 O   0  0  0  0  0  0  0  0  0  0  0  0
  -17.6620  -15.9381   27.6687 O   0  0  0  0  0  0  0  0  0  0  0  0
  -18.6645  -15.1479   23.0980 O   0  0  0  0  0  0  0  0  0  0  0  0
  -31.8781  -14.9191   20.2024 O   0  0  0  0  0  0  0  0  0  0  0  0
  -21.6119   -7.0206   21.7148 O   0  0  0  0  0  0  0  0  0  0  0  0
  -22.5660  -20.7105   22.6654 O   0  0  0  0  0  0  0  0  0  1  0  0
  -21.8704   -2.9475   18.0071 F   0  0  0  0  0  0  0  0  0  0  0  0
  -19.3360   -6.1362   20.4186 F   0  0  0  0  0  0  0  0  0  0  0  0
  -28.9597  -19.2043   24.5600 S   0  0  0  0  0  0  0  0  0  0  0  0
  1  2  1  0  0  0  0
  1  5  2  0  0  0  0
  2  6  2  0  0  0  0
  3  8  2  0  0  0  0
  3 15  1  0  0  0  0
  4  9  1  0  0  0  0
  4 15  2  0  0  0  0
  5 17  1  0  0  0  0
  6 19  1  0  0  0  0
  7 10  2  0  0  0  0
  7 18  1  0  0  0  0
  8 21  1  0  0  0  0
  9 21  2  0  0  0  0
 10 22  1  0  0  0  0
 11 12  2  0  0  0  0
 11 23  1  0  0  0  0
 12 24  1  0  0  0  0
 13 20  1  0  0  0  0
 13 22  2  0  0  0  0
 14 24  2  0  0  0  0
 14 25  1  0  0  0  0
 15 26  1  0  0  0  0
 16 26  1  0  0  0  0
 16 29  2  0  0  0  0
 16 31  1  0  0  0  0
 17 19  2  0  0  0  0
 17 38  1  0  0  0  0
 18 20  2  0  0  0  0
 18 39  1  0  0  0  0
 19 47  1  0  0  0  0
 20 40  1  0  0  0  0
 21 84  1  0  0  0  0
 22 85  1  0  0  0  0
 23 25  2  0  0  0  0
 23 84  1  0  0  0  0
 24 86  1  0  0  0  0
 25 87  1  0  0  0  0
 26 65  2  0  0  0  0
 27 28  2  0  0  0  0
 27 58  1  0  0  0  0
 27 66  1  0  0  0  0
 28 59  1  0  0  0  0
 28 88  1  0  0  0  0
 29 67  1  0  0  0  0
 29 70  1  0  0  0  0
 30 66  2  0  0  0  0
 30 72  1  0  0  0  0
 30 88  1  0  0  0  0
 31 71  1  0  0  0  0
 31 77  2  0  0  0  0
 32 33  1  0  0  0  0
 32 60  1  0  0  0  0
 32 78  2  0  0  0  0
 33 72  1  0  0  0  0
 33 79  2  0  0  0  0
 34 48  1  0  0  0  0
 34 73  1  0  0  0  0
 34 80  2  0  0  0  0
 35 61  1  0  0  0  0
 35 68  1  0  0  0  0
 35 81  2  0  0  0  0
 36 62  1  0  0  0  0
 36 74  1  0  0  0  0
 36 82  2  0  0  0  0
 37 69  1  0  0  0  0
 37 75  1  0  0  0  0
 37 83  2  0  0  0  0
 38 41  1  0  0  0  0
 39 48  1  0  0  0  0
 40 68  1  0  0  0  0
 41 43  1  0  0  0  0
 42 44  1  0  0  0  0
 42 45  1  0  0  0  0
 43 47  1  0  0  0  0
 44 49  1  0  0  0  0
 45 69  1  0  0  0  0
 46 49  1  0  0  0  0
 46 69  1  0  0  0  0
 47 73  1  0  0  0  0
 48 68  1  0  0  0  0
 49 67  1  0  0  0  0
 50 62  1  0  0  0  0
 51 63  1  0  0  0  0
 52 63  1  0  0  0  0
 53 63  1  0  0  0  0
 54 64  1  0  0  0  0
 55 64  1  0  0  0  0
 56 64  1  0  0  0  0
 57 76  1  0  0  0  0
 58 75  1  0  0  0  0
 59 63  1  0  0  0  0
 60 85  1  0  0  0  0
 61 64  1  0  0  0  0
 61 74  1  0  0  0  0
 62 76  1  0  0  0  0
 65 67  1  0  0  0  0
M  CHG  1  76   1
M  ISO  4  37 100  60 101  75 100  85 101
M  END
> <Batch ID>
0177

> <Smiles>
CNC(C)C(=O)NC(C(=O)N1Cc2cc([101O:1][101CH2:1]C(=O)C(=O)Nc3nc(C[100NH:0][100C:0](=O)N4CCCC(n5nc(-c6ccc(Oc7ccc(F)cc7F)cc6)c(C(N)=O)c5N)C4)c(CC(C)(C)C)s3)ccc2CC1C(=O)NC1CCCc2ccccc21)C(C)(C)C

> <Shape>
0.151

> <Color>
0.180

> <Negative vol penalty>
0.000

$$$$

  -OEChem-04052304413D

 86 94  0     1  0  0  0  0  0999 V2000
  -35.4385  -32.0376   20.3791 C   0  0  0  0  0  0  0  0  0  0  0  0
  -34.6277  -31.2133   21.1528 C   0  0  0  0  0  0  0  0  0  0  0  0
  -23.0089   -9.9207   19.9766 C   0  0  0  0  0  0  0  0  0  0  0  0
  -23.7140   -9.9868   22.2865 C   0  0  0  0  0  0  0  0  0  0  0  0
  -35.2109  -33.4129   20.3545 C   0  0  0  0  0  0  0  0  0  0  0  0
  -33.5895  -31.7640   21.9033 C   0  0  0  0  0  0  0  0  0  0  0  0
  -29.2884  -29.1212   21.5024 C   0  0  0  0  0  0  0  0  0  0  0  0
  -22.2445   -8.7846   20.2424 C   0  0  0  0  0  0  0  0  0  0  0  0
  -22.9496   -8.8507   22.5524 C   0  0  0  0  0  0  0  0  0  0  0  0
  -29.1920  -27.9454   22.2453 C   0  0  0  0  0  0  0  0  0  0  0  0
  -23.2109   -5.5103   22.1005 C   0  0  0  0  0  0  0  0  0  0  0  0
  -23.7959   -4.4994   22.8630 C   0  0  0  0  0  0  0  0  0  0  0  0
  -27.8879  -29.1096   23.9076 C   0  0  0  0  0  0  0  0  0  0  0  0
  -22.0567   -4.7445   24.5220 C   0  0  0  0  0  0  0  0  0  0  0  0
  -23.7437  -10.5218   20.9987 C   0  0  0  0  0  0  0  0  0  0  0  0
  -24.1207  -13.0379   20.8125 C   0  0  0  0  0  0  0  0  0  0  0  0
  -34.1634  -33.9797   21.0976 C   0  0  0  0  0  0  0  0  0  0  0  0
  -28.6935  -30.3047   21.9627 C   0  0  0  0  0  0  0  0  0  0  0  0
  -33.3486  -33.1484   21.8897 C   0  0  0  0  0  0  0  0  0  0  0  0
  -27.9760  -30.2985   23.1674 C   0  0  0  0  0  0  0  0  0  0  0  0
  -22.2148   -8.2496   21.5303 C   0  0  0  0  0  0  0  0  0  0  0  0
  -28.4941  -27.9401   23.4495 C   0  0  0  0  0  0  0  0  0  0  0  0
  -22.0489   -6.1383   22.5487 C   0  0  0  0  0  0  0  0  0  0  0  0
  -23.2188   -4.1165   24.0738 C   0  0  0  0  0  0  0  0  0  0  0  0
  -21.4718   -5.7554   23.7595 C   0  0  0  0  0  0  0  0  0  0  0  0
  -24.5340  -11.6950   20.7246 C   0  0  0  0  0  0  0  0  0  0  0  0
  -31.8007  -18.7368   22.2347 C   0  0  0  0  0  0  0  0  0  0  0  0
  -25.2308  -13.7629   20.4538 C   0  0  0  0  0  0  0  0  0  0  0  0
  -30.6866  -19.1394   22.9409 C   0  0  0  0  0  0  0  0  0  0  0  0
  -30.5481  -16.9657   21.9121 C   0  0  0  0  0  0  0  0  0  0  0  0
  -22.8474  -13.5813   21.1852 C   0  0  0  0  0  0  0  0  0  0  0  0
  -29.2624  -21.9518   25.0000 C   0  0  0  0  0  0  0  0  0  0  0  0
  -29.2242  -20.6005   24.3446 C   0  0  0  0  0  0  0  0  0  0  0  0
  -29.7677  -33.1766   22.8005 C   0  0  0  0  0  0  0  0  0  0  0  0
  -28.8236  -24.4383   24.5552 C   0  0  0  0  0  0  0  0  0  0  0  0
  -26.6055  -33.8661   23.0183 C   0  0  0  0  0  0  0  0  0  0  0  0
  -23.4169  -32.7329   23.4598 C   0  0  0  0  0  0  0  0  0  0  0  0
  -30.7043  -14.7466   20.7298 C   0  0  0  0  0  0  0  0  0  0  0  0
  -33.9858  -35.4772   21.0764 C   0  0  0  0  0  0  0  0  0  0  0  0
  -28.7840  -31.5583   21.1364 C   0  0  0  0  0  0  0  0  0  0  0  0
  -27.3021  -31.5377   23.6954 C   0  0  0  0  0  0  0  0  0  0  0  0
  -32.6303  -35.9374   21.6065 C   0  0  0  0  0  0  0  0  0  0  0  0
  -29.6156  -12.2772   18.4074 C   0  0  0  0  0  0  0  0  0  0  0  0
  -32.2958  -35.2208   22.9109 C   0  0  0  0  0  0  0  0  0  0  0  0
  -28.1625  -12.0160   18.8104 C   0  0  0  0  0  0  0  0  0  0  0  0
  -30.5047  -12.5305   19.6235 C   0  0  0  0  0  0  0  0  0  0  0  0
  -28.5749  -13.3188   20.9364 C   0  0  0  0  0  0  0  0  0  0  0  0
  -32.1969  -33.7054   22.6981 C   0  0  1  0  0  0  0  0  0  0  0  0
  -28.5758  -32.8293   21.9542 C   0  0  1  0  0  0  0  0  0  0  0  0
  -27.6282  -13.1225   19.7410 C   0  0  2  0  0  0  0  0  0  0  0  0
  -33.0461  -19.5122   22.0599 C   0  0  0  0  0  0  0  0  0  0  0  0
  -21.0459  -33.5376   23.6279 C   0  0  0  0  0  0  0  0  0  0  0  0
  -27.1436  -34.8511   25.8556 C   0  0  0  0  0  0  0  0  0  0  0  0
  -24.6800  -34.7388   26.2872 C   0  0  0  0  0  0  0  0  0  0  0  0
  -25.5690  -36.2781   24.5370 C   0  0  0  0  0  0  0  0  0  0  0  0
  -22.5949  -31.1674   21.0865 C   0  0  0  0  0  0  0  0  0  0  0  0
  -29.4472  -23.1382   24.0879 C   0  0  0  0  0  0  0  0  0  0  0  0
  -29.0383  -25.6335   23.6469 C   0  0  0  0  0  0  0  0  0  1  0  0
  -25.5666  -33.7861   24.1107 C   0  0  1  0  0  0  0  0  0  0  0  0
  -22.1330  -33.0164   22.7010 C   0  0  2  0  0  0  0  0  0  0  0  0
  -25.7540  -34.8905   25.1889 C   0  0  0  0  0  0  0  0  0  0  0  0
  -25.8071  -11.5714   20.3400 N   0  0  0  0  0  0  0  0  0  0  0  0
  -31.7233  -17.4904   21.6444 N   0  0  0  0  0  0  0  0  0  0  0  0
  -26.2034  -12.8459   20.1830 N   0  0  0  0  0  0  0  0  0  0  0  0
  -27.4244  -32.7399   22.8544 N   0  0  0  0  0  0  0  0  0  0  0  0
  -29.9383  -13.5937   20.4564 N   0  0  0  0  0  0  0  0  0  0  0  0
  -25.4600  -15.0889   20.3467 N   0  0  0  0  0  0  0  0  0  0  0  0
  -21.8161  -12.6950   21.5246 N   0  0  0  0  0  0  0  0  0  0  0  0
  -30.3896  -20.3174   23.6650 N   0  0  0  0  0  0  0  0  0  0  0  0
  -30.0496  -15.7034   21.5047 N   0  0  0  0  0  0  0  0  0  0  0  0
  -30.9330  -33.3631   22.0816 N   0  0  0  0  0  0  0  0  0  0  0  0
  -24.2696  -33.8163   23.4435 N   0  0  0  0  0  0  0  0  0  0  0  0
  -21.6349  -31.7751   22.0437 N   0  3  0  0  0  0  0  0  0  0  0  0
  -22.6257  -14.8159   21.2005 O   0  0  0  0  0  0  0  0  0  0  0  0
  -29.1607  -21.9840   26.2171 O   0  0  0  0  0  0  0  0  0  0  0  0
  -28.2129  -19.9398   24.5151 O   0  0  0  0  0  0  0  0  0  0  0  0
  -29.6393  -33.2701   24.0156 O   0  0  0  0  0  0  0  0  0  0  0  0
  -28.1616  -24.5236   25.5881 O   0  0  0  0  0  0  0  0  0  0  0  0
  -26.6828  -34.8875   22.3310 O   0  0  0  0  0  0  0  0  0  0  0  0
  -23.6393  -31.6591   24.0148 O   0  0  0  0  0  0  0  0  0  0  0  0
  -31.8463  -14.8876   20.2848 O   0  0  0  0  0  0  0  0  0  0  0  0
  -21.4689   -7.1412   21.7901 O   0  0  0  0  0  0  0  0  0  0  0  0
  -28.3991  -26.7940   24.1769 O   0  0  0  0  0  0  0  0  0  1  0  0
  -23.7798   -3.1447   24.8052 F   0  0  0  0  0  0  0  0  0  0  0  0
  -20.3547   -6.3543   24.1947 F   0  0  0  0  0  0  0  0  0  0  0  0
  -29.4864  -17.9164   22.8680 S   0  0  0  0  0  0  0  0  0  0  0  0
  1  2  1  0  0  0  0
  1  5  2  0  0  0  0
  2  6  2  0  0  0  0
  3  8  2  0  0  0  0
  3 15  1  0  0  0  0
  4  9  1  0  0  0  0
  4 15  2  0  0  0  0
  5 17  1  0  0  0  0
  6 19  1  0  0  0  0
  7 10  2  0  0  0  0
  7 18  1  0  0  0  0
  8 21  1  0  0  0  0
  9 21  2  0  0  0  0
 10 22  1  0  0  0  0
 11 12  2  0  0  0  0
 11 23  1  0  0  0  0
 12 24  1  0  0  0  0
 13 20  1  0  0  0  0
 13 22  2  0  0  0  0
 14 24  2  0  0  0  0
 14 25  1  0  0  0  0
 15 26  1  0  0  0  0
 16 26  1  0  0  0  0
 16 28  2  0  0  0  0
 16 31  1  0  0  0  0
 17 19  2  0  0  0  0
 17 39  1  0  0  0  0
 18 20  2  0  0  0  0
 18 40  1  0  0  0  0
 19 48  1  0  0  0  0
 20 41  1  0  0  0  0
 21 82  1  0  0  0  0
 22 83  1  0  0  0  0
 23 25  2  0  0  0  0
 23 82  1  0  0  0  0
 24 84  1  0  0  0  0
 25 85  1  0  0  0  0
 26 62  2  0  0  0  0
 27 29  2  0  0  0  0
 27 51  1  0  0  0  0
 27 63  1  0  0  0  0
 28 64  1  0  0  0  0
 28 67  1  0  0  0  0
 29 69  1  0  0  0  0
 29 86  1  0  0  0  0
 30 63  2  0  0  0  0
 30 70  1  0  0  0  0
 30 86  1  0  0  0  0
 31 68  1  0  0  0  0
 31 74  2  0  0  0  0
 32 33  1  0  0  0  0
 32 57  1  0  0  0  0
 32 75  2  0  0  0  0
 33 69  1  0  0  0  0
 33 76  2  0  0  0  0
 34 49  1  0  0  0  0
 34 71  1  0  0  0  0
 34 77  2  0  0  0  0
 35 57  1  0  0  0  0
 35 58  1  0  0  0  0
 35 78  2  0  0  0  0
 36 59  1  0  0  0  0
 36 65  1  0  0  0  0
 36 79  2  0  0  0  0
 37 60  1  0  0  0  0
 37 72  1  0  0  0  0
 37 80  2  0  0  0  0
 38 66  1  0  0  0  0
 38 70  1  0  0  0  0
 38 81  2  0  0  0  0
 39 42  1  0  0  0  0
 40 49  1  0  0  0  0
 41 65  1  0  0  0  0
 42 44  1  0  0  0  0
 43 45  1  0  0  0  0
 43 46  1  0  0  0  0
 44 48  1  0  0  0  0
 45 50  1  0  0  0  0
 46 66  1  0  0  0  0
 47 50  1  0  0  0  0
 47 66  1  0  0  0  0
 48 71  1  0  0  0  0
 49 65  1  0  0  0  0
 50 64  1  0  0  0  0
 52 60  1  0  0  0  0
 53 61  1  0  0  0  0
 54 61  1  0  0  0  0
 55 61  1  0  0  0  0
 56 73  1  0  0  0  0
 58 83  1  0  0  0  0
 59 61  1  0  0  0  0
 59 72  1  0  0  0  0
 60 73  1  0  0  0  0
 62 64  1  0  0  0  0
M  CHG  1  73   1
M  ISO  4  38 100  58 101  70 100  83 101
M  END
> <Batch ID>
0177

> <Smiles>
CNC(C)C(=O)NC(C(=O)N1Cc2cc([101O:1][101CH2:1]C(=O)CC(=O)C(=O)Nc3sc([100NH:0][100C:0](=O)N4CCCC(n5nc(-c6ccc(Oc7ccc(F)cc7F)cc6)c(C(N)=O)c5N)C4)nc3C)ccc2CC1C(=O)NC1CCCc2ccccc21)C(C)(C)C

> <Shape>
0.261

> <Color>
0.226

> <Negative vol penalty>
0.000

$$$$

  -OEChem-04052304413D

 88 96  0     1  0  0  0  0  0999 V2000
  -16.1503  -28.8679   23.5824 C   0  0  0  0  0  0  0  0  0  0  0  0
  -15.9612  -27.5225   23.2833 C   0  0  0  0  0  0  0  0  0  0  0  0
  -29.5276  -22.9540   17.9005 C   0  0  0  0  0  0  0  0  0  0  0  0
  -29.8622  -22.5708   20.2623 C   0  0  0  0  0  0  0  0  0  0  0  0
  -17.4156  -29.4388   23.4514 C   0  0  0  0  0  0  0  0  0  0  0  0
  -17.0370  -26.7474   22.8519 C   0  0  0  0  0  0  0  0  0  0  0  0
  -18.0267  -20.8257   24.0603 C   0  0  0  0  0  0  0  0  0  0  0  0
  -30.0308  -24.2475   18.0390 C   0  0  0  0  0  0  0  0  0  0  0  0
  -30.3655  -23.8643   20.4009 C   0  0  0  0  0  0  0  0  0  0  0  0
  -17.7865  -19.6655   23.3253 C   0  0  0  0  0  0  0  0  0  0  0  0
  -31.4029  -27.1874   21.4453 C   0  0  0  0  0  0  0  0  0  0  0  0
  -30.9538  -27.9454   22.5266 C   0  0  0  0  0  0  0  0  0  0  0  0
  -20.0669  -19.6988   22.5391 C   0  0  0  0  0  0  0  0  0  0  0  0
  -28.6865  -27.7642   21.7121 C   0  0  0  0  0  0  0  0  0  0  0  0
  -25.2584  -11.0676   20.9471 C   0  0  0  0  0  0  0  0  0  0  0  0
  -26.3595  -13.0615   20.1749 C   0  0  0  0  0  0  0  0  0  0  0  0
  -29.4432  -22.1156   19.0122 C   0  0  0  0  0  0  0  0  0  0  0  0
  -29.6508  -19.6105   18.5773 C   0  0  0  0  0  0  0  0  0  0  0  0
  -18.5095  -28.6679   23.0274 C   0  0  0  0  0  0  0  0  0  0  0  0
  -19.2877  -21.4383   24.0314 C   0  0  0  0  0  0  0  0  0  0  0  0
  -18.3178  -27.3088   22.7138 C   0  0  0  0  0  0  0  0  0  0  0  0
  -20.3211  -20.8653   23.2766 C   0  0  0  0  0  0  0  0  0  0  0  0
  -30.4498  -24.7026   19.2892 C   0  0  0  0  0  0  0  0  0  0  0  0
  -18.8058  -19.1035   22.5623 C   0  0  0  0  0  0  0  0  0  0  0  0
  -30.4938  -26.7178   20.4973 C   0  0  0  0  0  0  0  0  0  0  0  0
  -29.5956  -28.2338   22.6600 C   0  0  0  0  0  0  0  0  0  0  0  0
  -29.1356  -27.0062   20.6307 C   0  0  0  0  0  0  0  0  0  0  0  0
  -26.3611  -11.6843   20.3666 C   0  0  0  0  0  0  0  0  0  0  0  0
  -28.9230  -20.7795   18.8698 C   0  0  0  0  0  0  0  0  0  0  0  0
  -24.1879  -11.8663   21.3156 C   0  0  0  0  0  0  0  0  0  0  0  0
  -25.2396  -13.7710   20.5778 C   0  0  0  0  0  0  0  0  0  0  0  0
  -28.7050  -18.6149   18.5506 C   0  0  0  0  0  0  0  0  0  0  0  0
  -31.0561  -19.4399   18.3500 C   0  0  0  0  0  0  0  0  0  0  0  0
  -19.8446  -13.1993   21.1603 C   0  0  0  0  0  0  0  0  0  0  0  0
  -20.9099  -12.1622   20.9482 C   0  0  0  0  0  0  0  0  0  0  0  0
  -20.3852  -24.2697   23.0921 C   0  0  0  0  0  0  0  0  0  0  0  0
  -19.2131  -15.6581   21.5087 C   0  0  0  0  0  0  0  0  0  0  0  0
  -23.1610  -23.1820   24.3703 C   0  0  0  0  0  0  0  0  0  0  0  0
  -25.0808  -20.5115   25.2811 C   0  0  0  0  0  0  0  0  0  0  0  0
  -24.2394  -16.0797   20.7034 C   0  0  0  0  0  0  0  0  0  0  0  0
  -19.8484  -29.3405   22.8555 C   0  0  0  0  0  0  0  0  0  0  0  0
  -19.5382  -22.6744   24.8510 C   0  0  0  0  0  0  0  0  0  0  0  0
  -21.6985  -21.4727   23.2280 C   0  0  0  0  0  0  0  0  0  0  0  0
  -21.0138  -28.3600   22.7518 C   0  0  0  0  0  0  0  0  0  0  0  0
  -23.6498  -18.8722   18.5747 C   0  0  0  0  0  0  0  0  0  0  0  0
  -20.6779  -27.2324   21.7810 C   0  0  0  0  0  0  0  0  0  0  0  0
  -25.0290  -19.5212   18.4376 C   0  0  0  0  0  0  0  0  0  0  0  0
  -23.4235  -18.3119   19.9778 C   0  0  0  0  0  0  0  0  0  0  0  0
  -25.8489  -18.0493   20.3214 C   0  0  0  0  0  0  0  0  0  0  0  0
  -19.4653  -26.4292   22.2667 C   0  0  1  0  0  0  0  0  0  0  0  0
  -20.7143  -23.5014   24.3407 C   0  0  1  0  0  0  0  0  0  0  0  0
  -26.1481  -18.5707   18.9064 C   0  0  2  0  0  0  0  0  0  0  0  0
  -27.3174  -19.9370   26.2636 C   0  0  0  0  0  0  0  0  0  0  0  0
  -24.4950  -23.8224   21.7019 C   0  0  0  0  0  0  0  0  0  0  0  0
  -26.4230  -22.3860   22.4004 C   0  0  0  0  0  0  0  0  0  0  0  0
  -25.8487  -24.4259   23.7163 C   0  0  0  0  0  0  0  0  0  0  0  0
  -23.8426  -19.1604   27.6049 C   0  0  0  0  0  0  0  0  0  0  0  0
  -22.9799  -11.2347   21.9448 C   0  0  0  0  0  0  0  0  0  0  0  0
  -20.3023  -14.6320   21.2674 C   0  0  0  0  0  0  0  0  0  0  0  0
  -19.6809  -17.0949   21.6373 C   0  0  0  0  0  0  0  0  0  1  0  0
  -24.3429  -22.3994   23.8508 C   0  0  1  0  0  0  0  0  0  0  0  0
  -25.8503  -20.2118   26.5549 C   0  0  2  0  0  0  0  0  0  0  0  0
  -25.2510  -23.2478   22.9165 C   0  0  0  0  0  0  0  0  0  0  0  0
  -27.6157  -20.5494   19.0182 N   0  0  0  0  0  0  0  0  0  0  0  0
  -24.1499  -13.2069   21.1453 N   0  0  0  0  0  0  0  0  0  0  0  0
  -27.5145  -19.2244   18.8180 N   0  0  0  0  0  0  0  0  0  0  0  0
  -21.8921  -22.6845   24.0414 N   0  0  0  0  0  0  0  0  0  0  0  0
  -24.5207  -17.4170   20.3523 N   0  0  0  0  0  0  0  0  0  0  0  0
  -28.7839  -17.2863   18.3246 N   0  0  0  0  0  0  0  0  0  0  0  0
  -31.8852  -20.5680   18.4148 N   0  0  0  0  0  0  0  0  0  0  0  0
  -25.2483  -15.1737   20.3778 N   0  0  0  0  0  0  0  0  0  0  0  0
  -21.8462  -12.1296   21.9564 N   0  0  0  0  0  0  0  0  0  0  0  0
  -19.8512  -25.5224   23.3266 N   0  0  0  0  0  0  0  0  0  0  0  0
  -25.0260  -21.8651   25.0239 N   0  0  0  0  0  0  0  0  0  0  0  0
  -25.2755  -19.0190   27.2388 N   0  3  0  0  0  0  0  0  0  0  0  0
  -31.5593  -18.3228   18.0808 O   0  0  0  0  0  0  0  0  0  0  0  0
  -18.6883  -12.8073   21.2099 O   0  0  0  0  0  0  0  0  0  0  0  0
  -20.8574  -11.4945   19.9272 O   0  0  0  0  0  0  0  0  0  0  0  0
  -20.6011  -23.7640   21.9969 O   0  0  0  0  0  0  0  0  0  0  0  0
  -18.0273  -15.3525   21.6229 O   0  0  0  0  0  0  0  0  0  0  0  0
  -23.3565  -24.1933   25.0490 O   0  0  0  0  0  0  0  0  0  0  0  0
  -24.5818  -19.6325   24.5819 O   0  0  0  0  0  0  0  0  0  0  0  0
  -23.1702  -15.7576   21.2278 O   0  0  0  0  0  0  0  0  0  0  0  0
  -30.9411  -25.9647   19.4247 O   0  0  0  0  0  0  0  0  0  0  0  0
  -18.5740  -17.9715   21.8435 O   0  0  0  0  0  0  0  0  0  1  0  0
  -29.1643  -28.9604   23.6993 F   0  0  0  0  0  0  0  0  0  0  0  0
  -28.2573  -26.5568   19.7237 F   0  0  0  0  0  0  0  0  0  0  0  0
  -27.4204  -10.9544   19.9943 F   0  0  0  0  0  0  0  0  0  0  0  0
  1  2  1  0  0  0  0
  1  5  2  0  0  0  0
  2  6  2  0  0  0  0
  3  8  2  0  0  0  0
  3 17  1  0  0  0  0
  4  9  1  0  0  0  0
  4 17  2  0  0  0  0
  5 19  1  0  0  0  0
  6 21  1  0  0  0  0
  7 10  2  0  0  0  0
  7 20  1  0  0  0  0
  8 23  1  0  0  0  0
  9 23  2  0  0  0  0
 10 24  1  0  0  0  0
 11 12  2  0  0  0  0
 11 25  1  0  0  0  0
 12 26  1  0  0  0  0
 13 22  1  0  0  0  0
 13 24  2  0  0  0  0
 14 26  2  0  0  0  0
 14 27  1  0  0  0  0
 15 28  2  0  0  0  0
 15 30  1  0  0  0  0
 16 28  1  0  0  0  0
 16 31  2  0  0  0  0
 17 29  1  0  0  0  0
 18 29  1  0  0  0  0
 18 32  2  0  0  0  0
 18 33  1  0  0  0  0
 19 21  2  0  0  0  0
 19 41  1  0  0  0  0
 20 22  2  0  0  0  0
 20 42  1  0  0  0  0
 21 50  1  0  0  0  0
 22 43  1  0  0  0  0
 23 84  1  0  0  0  0
 24 85  1  0  0  0  0
 25 27  2  0  0  0  0
 25 84  1  0  0  0  0
 26 86  1  0  0  0  0
 27 87  1  0  0  0  0
 28 88  1  0  0  0  0
 29 64  2  0  0  0  0
 30 58  1  0  0  0  0
 30 65  2  0  0  0  0
 31 65  1  0  0  0  0
 31 71  1  0  0  0  0
 32 66  1  0  0  0  0
 32 69  1  0  0  0  0
 33 70  1  0  0  0  0
 33 76  2  0  0  0  0
 34 35  1  0  0  0  0
 34 59  1  0  0  0  0
 34 77  2  0  0  0  0
 35 72  1  0  0  0  0
 35 78  2  0  0  0  0
 36 51  1  0  0  0  0
 36 73  1  0  0  0  0
 36 79  2  0  0  0  0
 37 59  1  0  0  0  0
 37 60  1  0  0  0  0
 37 80  2  0  0  0  0
 38 61  1  0  0  0  0
 38 67  1  0  0  0  0
 38 81  2  0  0  0  0
 39 62  1  0  0  0  0
 39 74  1  0  0  0  0
 39 82  2  0  0  0  0
 40 68  1  0  0  0  0
 40 71  1  0  0  0  0
 40 83  2  0  0  0  0
 41 44  1  0  0  0  0
 42 51  1  0  0  0  0
 43 67  1  0  0  0  0
 44 46  1  0  0  0  0
 45 47  1  0  0  0  0
 45 48  1  0  0  0  0
 46 50  1  0  0  0  0
 47 52  1  0  0  0  0
 48 68  1  0  0  0  0
 49 52  1  0  0  0  0
 49 68  1  0  0  0  0
 50 73  1  0  0  0  0
 51 67  1  0  0  0  0
 52 66  1  0  0  0  0
 53 62  1  0  0  0  0
 54 63  1  0  0  0  0
 55 63  1  0  0  0  0
 56 63  1  0  0  0  0
 57 75  1  0  0  0  0
 58 72  1  0  0  0  0
 60 85  1  0  0  0  0
 61 63  1  0  0  0  0
 61 74  1  0  0  0  0
 62 75  1  0  0  0  0
 64 66  1  0  0  0  0
M  CHG  1  75   1
M  ISO  4  40 100  60 101  71 100  85 101
M  END
> <Batch ID>
0177

> <Smiles>
CNC(C)C(=O)NC(C(=O)N1Cc2cc([101O:1][101CH2:1]C(=O)CC(=O)C(=O)NCc3cc(F)cc([100NH:0][100C:0](=O)N4CCCC(n5nc(-c6ccc(Oc7ccc(F)cc7F)cc6)c(C(N)=O)c5N)C4)n3)ccc2CC1C(=O)NC1CCCc2ccccc21)C(C)(C)C

> <Shape>
0.213

> <Color>
0.077

> <Negative vol penalty>
0.000

$$$$

  -OEChem-04052304413D

 86 94  0     1  0  0  0  0  0999 V2000
  -27.8660  -31.7768   27.6419 C   0  0  0  0  0  0  0  0  0  0  0  0
  -27.4992  -30.6426   26.9246 C   0  0  0  0  0  0  0  0  0  0  0  0
  -25.3252   -8.7952   22.2690 C   0  0  0  0  0  0  0  0  0  0  0  0
  -24.3319   -9.6718   20.2485 C   0  0  0  0  0  0  0  0  0  0  0  0
  -27.1150  -32.9458   27.5273 C   0  0  0  0  0  0  0  0  0  0  0  0
  -26.3804  -30.6765   26.0930 C   0  0  0  0  0  0  0  0  0  0  0  0
  -27.2403  -28.5239   21.5906 C   0  0  0  0  0  0  0  0  0  0  0  0
  -26.4536  -18.9756   16.5833 C   0  0  0  0  0  0  0  0  0  0  0  0
  -24.0719   -8.3541   22.6937 C   0  0  0  0  0  0  0  0  0  0  0  0
  -23.0787   -9.2307   20.6732 C   0  0  0  0  0  0  0  0  0  0  0  0
  -27.2280  -27.1308   21.5382 C   0  0  0  0  0  0  0  0  0  0  0  0
  -21.1905   -6.6778   24.1436 C   0  0  0  0  0  0  0  0  0  0  0  0
  -26.2788  -17.6484   16.1917 C   0  0  0  0  0  0  0  0  0  0  0  0
  -21.1016   -5.3910   24.6746 C   0  0  0  0  0  0  0  0  0  0  0  0
  -24.9796  -27.1894   20.6663 C   0  0  0  0  0  0  0  0  0  0  0  0
  -27.8892  -18.2543   18.3877 C   0  0  0  0  0  0  0  0  0  0  0  0
  -21.9061   -4.4748   22.5888 C   0  0  0  0  0  0  0  0  0  0  0  0
  -25.4552   -9.4542   21.0464 C   0  0  0  0  0  0  0  0  0  0  0  0
  -27.6863   -9.1963   19.8367 C   0  0  0  0  0  0  0  0  0  0  0  0
  -25.9921  -32.9970   26.6864 C   0  0  0  0  0  0  0  0  0  0  0  0
  -26.1164  -29.2612   21.1909 C   0  0  0  0  0  0  0  0  0  0  0  0
  -25.6129  -31.8470   25.9681 C   0  0  0  0  0  0  0  0  0  0  0  0
  -24.9811  -28.5919   20.7122 C   0  0  0  0  0  0  0  0  0  0  0  0
  -27.2588  -19.2786   17.6813 C   0  0  0  0  0  0  0  0  0  0  0  0
  -27.7144  -16.9270   17.9961 C   0  0  0  0  0  0  0  0  0  0  0  0
  -22.9487   -8.5718   21.8958 C   0  0  0  0  0  0  0  0  0  0  0  0
  -26.0965  -26.4632   21.0787 C   0  0  0  0  0  0  0  0  0  0  0  0
  -21.6372   -6.8631   22.8353 C   0  0  0  0  0  0  0  0  0  0  0  0
  -21.4594   -4.2896   23.8972 C   0  0  0  0  0  0  0  0  0  0  0  0
  -26.9092  -16.6240   16.8981 C   0  0  0  0  0  0  0  0  0  0  0  0
  -21.9950   -5.7616   22.0579 C   0  0  0  0  0  0  0  0  0  0  0  0
  -26.7494   -9.9106   20.6073 C   0  0  0  0  0  0  0  0  0  0  0  0
  -28.7428  -10.0618   19.6918 C   0  0  0  0  0  0  0  0  0  0  0  0
  -27.0130  -24.4790   20.2458 C   0  0  0  0  0  0  0  0  0  1  0  0
  -27.6084   -7.8692   19.2997 C   0  0  0  0  0  0  0  0  0  0  0  0
  -27.0902  -23.1495   20.1213 C   0  0  0  0  0  0  0  0  0  0  0  0
  -28.1417  -22.5766   19.2459 C   0  0  0  0  0  0  0  0  0  0  0  0
  -28.1943  -21.0833   19.1336 C   0  0  0  0  0  0  0  0  0  0  0  0
  -24.1260  -31.2759   22.6340 C   0  0  0  0  0  0  0  0  0  0  0  0
  -22.9464  -31.6461   19.6350 C   0  0  0  0  0  0  0  0  0  0  0  0
  -22.5385  -30.3551   16.5023 C   0  0  0  0  0  0  0  0  0  0  0  0
  -29.1879  -16.0191   19.8266 C   0  0  0  0  0  0  0  0  0  0  0  0
  -25.1838  -34.2691   26.6314 C   0  0  0  0  0  0  0  0  0  0  0  0
  -26.1553  -30.7643   21.2283 C   0  0  0  0  0  0  0  0  0  0  0  0
  -23.7560  -29.3377   20.2522 C   0  0  0  0  0  0  0  0  0  0  0  0
  -24.2309  -34.3343   25.4406 C   0  0  0  0  0  0  0  0  0  0  0  0
  -30.9283  -13.7062   21.9001 C   0  0  0  0  0  0  0  0  0  0  0  0
  -23.4650  -33.0229   25.2973 C   0  0  0  0  0  0  0  0  0  0  0  0
  -30.1430  -12.4039   21.7290 C   0  0  0  0  0  0  0  0  0  0  0  0
  -30.0093  -14.9265   21.9019 C   0  0  0  0  0  0  0  0  0  0  0  0
  -28.3163  -13.7196   20.5804 C   0  0  0  0  0  0  0  0  0  0  0  0
  -24.4202  -31.8519   25.0366 C   0  0  1  0  0  0  0  0  0  0  0  0
  -24.7680  -31.3968   21.2809 C   0  0  1  0  0  0  0  0  0  0  0  0
  -29.2054  -12.4674   20.5073 C   0  0  2  0  0  0  0  0  0  0  0  0
  -21.4983  -30.8734   14.2782 C   0  0  0  0  0  0  0  0  0  0  0  0
  -20.1932  -30.9832   20.7709 C   0  0  0  0  0  0  0  0  0  0  0  0
  -19.4007  -30.5829   18.4300 C   0  0  0  0  0  0  0  0  0  0  0  0
  -20.2121  -32.8445   19.1007 C   0  0  0  0  0  0  0  0  0  0  0  0
  -25.1579  -30.2711   15.1273 C   0  0  0  0  0  0  0  0  0  0  0  0
  -21.8781  -30.9644   18.8147 C   0  0  1  0  0  0  0  0  0  0  0  0
  -22.7570  -30.9600   15.1273 C   0  0  2  0  0  0  0  0  0  0  0  0
  -20.4432  -31.3294   19.2895 C   0  0  0  0  0  0  0  0  0  0  0  0
  -27.1735  -11.1354   20.9297 N   0  0  0  0  0  0  0  0  0  0  0  0
  -28.3886  -11.1975   20.3588 N   0  0  0  0  0  0  0  0  0  0  0  0
  -23.8405  -30.8062   20.3139 N   0  0  0  0  0  0  0  0  0  0  0  0
  -29.1537  -14.9221   20.7133 N   0  0  0  0  0  0  0  0  0  0  0  0
  -29.9312   -9.9546   19.0602 N   0  0  0  0  0  0  0  0  0  0  0  0
  -26.4512   -7.1168   19.5431 N   0  0  0  0  0  0  0  0  0  0  0  0
  -27.4358  -20.6243   18.0782 N   0  0  0  0  0  0  0  0  0  0  0  0
  -28.3561  -15.8882   18.7151 N   0  0  0  0  0  0  0  0  0  0  0  0
  -24.8554  -31.8523   23.6564 N   0  0  0  0  0  0  0  0  0  0  0  0
  -22.1519  -31.3060   17.4230 N   0  0  0  0  0  0  0  0  0  0  0  0
  -23.8542  -30.2455   14.4155 N   0  3  0  0  0  0  0  0  0  0  0  0
  -28.5442   -7.3594   18.6380 O   0  0  0  0  0  0  0  0  0  0  0  0
  -28.9747  -23.2176   18.6244 O   0  0  0  0  0  0  0  0  0  0  0  0
  -28.8842  -20.4948   19.9490 O   0  0  0  0  0  0  0  0  0  0  0  0
  -23.0479  -30.7034   22.7422 O   0  0  0  0  0  0  0  0  0  0  0  0
  -22.9905  -32.8785   19.6664 O   0  0  0  0  0  0  0  0  0  0  0  0
  -22.6916  -29.1581   16.7355 O   0  0  0  0  0  0  0  0  0  0  0  0
  -29.9229  -16.9901   20.0238 O   0  0  0  0  0  0  0  0  0  0  0  0
  -26.2388  -22.2819   20.7688 O   0  0  0  0  0  0  0  0  0  0  0  0
  -21.7257   -8.1413   22.3098 O   0  0  0  0  0  0  0  0  0  0  0  0
  -26.0816  -25.1034   21.0271 O   0  0  0  0  0  0  0  0  0  1  0  0
  -21.3754   -3.0540   24.4077 F   0  0  0  0  0  0  0  0  0  0  0  0
  -26.7336  -15.3522   16.5128 F   0  0  0  0  0  0  0  0  0  0  0  0
  -22.4260   -5.9334   20.8007 F   0  0  0  0  0  0  0  0  0  0  0  0
  1  2  1  0  0  0  0
  1  5  2  0  0  0  0
  2  6  2  0  0  0  0
  3  9  2  0  0  0  0
  3 18  1  0  0  0  0
  4 10  1  0  0  0  0
  4 18  2  0  0  0  0
  5 20  1  0  0  0  0
  6 22  1  0  0  0  0
  7 11  2  0  0  0  0
  7 21  1  0  0  0  0
  8 13  2  0  0  0  0
  8 24  1  0  0  0  0
  9 26  1  0  0  0  0
 10 26  2  0  0  0  0
 11 27  1  0  0  0  0
 12 14  2  0  0  0  0
 12 28  1  0  0  0  0
 13 30  1  0  0  0  0
 14 29  1  0  0  0  0
 15 23  1  0  0  0  0
 15 27  2  0  0  0  0
 16 24  2  0  0  0  0
 16 25  1  0  0  0  0
 17 29  2  0  0  0  0
 17 31  1  0  0  0  0
 18 32  1  0  0  0  0
 19 32  1  0  0  0  0
 19 33  2  0  0  0  0
 19 35  1  0  0  0  0
 20 22  2  0  0  0  0
 20 43  1  0  0  0  0
 21 23  2  0  0  0  0
 21 44  1  0  0  0  0
 22 52  1  0  0  0  0
 23 45  1  0  0  0  0
 24 69  1  0  0  0  0
 25 30  2  0  0  0  0
 25 70  1  0  0  0  0
 26 82  1  0  0  0  0
 27 83  1  0  0  0  0
 28 31  2  0  0  0  0
 28 82  1  0  0  0  0
 29 84  1  0  0  0  0
 30 85  1  0  0  0  0
 31 86  1  0  0  0  0
 32 63  2  0  0  0  0
 33 64  1  0  0  0  0
 33 67  1  0  0  0  0
 34 36  2  0  0  0  0
 34 83  1  0  0  0  0
 35 68  1  0  0  0  0
 35 74  2  0  0  0  0
 36 37  1  0  0  0  0
 36 81  1  0  0  0  0
 37 38  1  0  0  0  0
 37 75  2  0  0  0  0
 38 69  1  0  0  0  0
 38 76  2  0  0  0  0
 39 53  1  0  0  0  0
 39 71  1  0  0  0  0
 39 77  2  0  0  0  0
 40 60  1  0  0  0  0
 40 65  1  0  0  0  0
 40 78  2  0  0  0  0
 41 61  1  0  0  0  0
 41 72  1  0  0  0  0
 41 79  2  0  0  0  0
 42 66  1  0  0  0  0
 42 70  1  0  0  0  0
 42 80  2  0  0  0  0
 43 46  1  0  0  0  0
 44 53  1  0  0  0  0
 45 65  1  0  0  0  0
 46 48  1  0  0  0  0
 47 49  1  0  0  0  0
 47 50  1  0  0  0  0
 48 52  1  0  0  0  0
 49 54  1  0  0  0  0
 50 66  1  0  0  0  0
 51 54  1  0  0  0  0
 51 66  1  0  0  0  0
 52 71  1  0  0  0  0
 53 65  1  0  0  0  0
 54 64  1  0  0  0  0
 55 61  1  0  0  0  0
 56 62  1  0  0  0  0
 57 62  1  0  0  0  0
 58 62  1  0  0  0  0
 59 73  1  0  0  0  0
 60 62  1  0  0  0  0
 60 72  1  0  0  0  0
 61 73  1  0  0  0  0
 63 64  1  0  0  0  0
M  CHG  1  73   1
M  ISO  4  34 101  42 100  70 100  83 101
M  END
> <Batch ID>
0177

> <Smiles>
CNC(C)C(=O)NC(C(=O)N1Cc2cc([101O:1][101CH2:1]C(=O)C(=O)C(=O)Nc3ccc(F)c([100NH:0][100C:0](=O)N4CCCC(n5nc(-c6ccc(Oc7ccc(F)cc7F)cc6)c(C(N)=O)c5N)C4)c3)ccc2CC1C(=O)NC1CCCc2ccccc21)C(C)(C)C

> <Shape>
0.257

> <Color>
0.092

> <Negative vol penalty>
0.000

$$$$

  -OEChem-04052304413D

 87 95  0     1  0  0  0  0  0999 V2000
  -23.7378  -18.3632   25.6385 C   0  0  0  0  0  0  0  0  0  0  0  0
  -23.7808  -18.9015   24.3564 C   0  0  0  0  0  0  0  0  0  0  0  0
  -27.3999  -12.9383   21.5518 C   0  0  0  0  0  0  0  0  0  0  0  0
  -26.9759  -14.0990   19.4757 C   0  0  0  0  0  0  0  0  0  0  0  0
  -22.8587  -18.8885   26.5847 C   0  0  0  0  0  0  0  0  0  0  0  0
  -22.9440  -19.9648   24.0194 C   0  0  0  0  0  0  0  0  0  0  0  0
  -25.3590  -23.5988   21.4492 C   0  0  0  0  0  0  0  0  0  0  0  0
  -26.4987  -11.9413   21.1785 C   0  0  0  0  0  0  0  0  0  0  0  0
  -26.0747  -13.1019   19.1024 C   0  0  0  0  0  0  0  0  0  0  0  0
  -25.5997  -23.3686   20.0953 C   0  0  0  0  0  0  0  0  0  0  0  0
  -23.1465  -11.5147   21.1050 C   0  0  0  0  0  0  0  0  0  0  0  0
  -22.2320  -11.0770   22.0629 C   0  0  0  0  0  0  0  0  0  0  0  0
  -23.7005  -24.7443   19.5299 C   0  0  0  0  0  0  0  0  0  0  0  0
  -23.1225   -8.8378   21.8899 C   0  0  0  0  0  0  0  0  0  0  0  0
  -27.6384  -14.0172   20.7005 C   0  0  0  0  0  0  0  0  0  0  0  0
  -29.9516  -15.0857   20.8244 C   0  0  0  0  0  0  0  0  0  0  0  0
  -22.0175  -19.9650   26.2620 C   0  0  0  0  0  0  0  0  0  0  0  0
  -24.2789  -24.3960   21.8546 C   0  0  0  0  0  0  0  0  0  0  0  0
  -22.0518  -20.5041   24.9618 C   0  0  0  0  0  0  0  0  0  0  0  0
  -23.4498  -24.9852   20.8894 C   0  0  0  0  0  0  0  0  0  0  0  0
  -25.8361  -12.0230   19.9538 C   0  0  0  0  0  0  0  0  0  0  0  0
  -24.7687  -23.9390   19.1356 C   0  0  0  0  0  0  0  0  0  0  0  0
  -24.0490  -10.6139   20.5394 C   0  0  0  0  0  0  0  0  0  0  0  0
  -22.2200   -9.7386   22.4554 C   0  0  0  0  0  0  0  0  0  0  0  0
  -24.0370   -9.2755   20.9319 C   0  0  0  0  0  0  0  0  0  0  0  0
  -28.5688  -15.0477   21.0858 C   0  0  0  0  0  0  0  0  0  0  0  0
  -30.5416  -24.1504   18.4565 C   0  0  0  0  0  0  0  0  0  0  0  0
  -30.2383  -24.8271   19.6193 C   0  0  0  0  0  0  0  0  0  0  0  0
  -30.3765  -16.2612   21.3938 C   0  0  0  0  0  0  0  0  0  0  0  0
  -29.6122  -22.8173   20.2345 C   0  0  0  0  0  0  0  0  0  0  0  0
  -30.7780  -14.1428   20.1290 C   0  0  0  0  0  0  0  0  0  0  0  0
  -31.1181  -24.6419   17.1745 C   0  0  0  0  0  0  0  0  0  0  0  0
  -26.5657  -24.0021   16.0172 C   0  0  0  0  0  0  0  0  0  0  0  0
  -27.9514  -23.8755   15.4568 C   0  0  0  0  0  0  0  0  0  0  0  0
  -21.6556  -23.9088   23.5821 C   0  0  0  0  0  0  0  0  0  0  0  0
  -21.2976  -27.1133   23.2277 C   0  0  0  0  0  0  0  0  0  0  0  0
  -21.9903  -29.9235   21.4195 C   0  0  0  0  0  0  0  0  0  0  0  0
  -28.6327  -21.6977   22.2676 C   0  0  0  0  0  0  0  0  0  0  0  0
  -21.0503  -20.4682   27.3041 C   0  0  0  0  0  0  0  0  0  0  0  0
  -24.0488  -24.6564   23.3180 C   0  0  0  0  0  0  0  0  0  0  0  0
  -22.2890  -25.8654   21.2719 C   0  0  0  0  0  0  0  0  0  0  0  0
  -20.4635  -21.8394   26.9789 C   0  0  0  0  0  0  0  0  0  0  0  0
  -28.6001  -19.2842   24.8851 C   0  0  0  0  0  0  0  0  0  0  0  0
  -20.0020  -21.8917   25.5260 C   0  0  0  0  0  0  0  0  0  0  0  0
  -28.7240  -17.9486   24.1482 C   0  0  0  0  0  0  0  0  0  0  0  0
  -27.7450  -20.2835   24.1080 C   0  0  0  0  0  0  0  0  0  0  0  0
  -28.2804  -19.1663   21.9786 C   0  0  0  0  0  0  0  0  0  0  0  0
  -21.1774  -21.6739   24.5655 C   0  0  1  0  0  0  0  0  0  0  0  0
  -22.6133  -25.0654   23.6335 C   0  0  1  0  0  0  0  0  0  0  0  0
  -29.1864  -18.1493   22.6917 C   0  0  2  0  0  0  0  0  0  0  0  0
  -30.4325  -26.2716   19.8613 C   0  0  0  0  0  0  0  0  0  0  0  0
  -21.5267  -32.3889   21.3556 C   0  0  0  0  0  0  0  0  0  0  0  0
  -18.4938  -26.5559   22.1608 C   0  0  0  0  0  0  0  0  0  0  0  0
  -18.4535  -28.8867   21.2476 C   0  0  0  0  0  0  0  0  0  0  0  0
  -18.6514  -28.5157   23.7064 C   0  0  0  0  0  0  0  0  0  0  0  0
  -24.8605  -30.5882   21.7008 C   0  0  0  0  0  0  0  0  0  0  0  0
  -26.3550  -23.4952   17.4201 C   0  0  0  0  0  0  0  0  0  1  0  0
  -30.3140  -24.4763   15.8929 C   0  0  1  0  0  0  0  0  0  0  0  0
  -20.6277  -28.0085   22.2134 C   0  0  1  0  0  0  0  0  0  0  0  0
  -22.4706  -31.3002   21.8419 C   0  0  2  0  0  0  0  0  0  0  0  0
  -19.0772  -27.9736   22.3246 C   0  0  0  0  0  0  0  0  0  0  0  0
  -28.1436  -16.1142   21.7683 N   0  0  0  0  0  0  0  0  0  0  0  0
  -29.7049  -24.0644   20.6399 N   0  0  0  0  0  0  0  0  0  0  0  0
  -29.2658  -16.8333   21.9406 N   0  0  0  0  0  0  0  0  0  0  0  0
  -22.1013  -26.0849   22.7155 N   0  0  0  0  0  0  0  0  0  0  0  0
  -28.2447  -20.4255   22.7387 N   0  0  0  0  0  0  0  0  0  0  0  0
  -31.5882  -16.8507   21.4751 N   0  0  0  0  0  0  0  0  0  0  0  0
  -30.1799  -12.9880   19.6064 N   0  0  0  0  0  0  0  0  0  0  0  0
  -29.1222  -21.7044   20.9619 N   0  0  0  0  0  0  0  0  0  0  0  0
  -28.9048  -24.5051   16.2249 N   0  0  0  0  0  0  0  0  0  0  0  0
  -21.9673  -22.8811   24.4516 N   0  0  0  0  0  0  0  0  0  0  0  0
  -21.2098  -29.3343   22.3915 N   0  0  0  0  0  0  0  0  0  0  0  0
  -23.8260  -31.5697   21.2842 N   0  3  0  0  0  0  0  0  0  0  0  0
  -32.0132  -14.3111   19.9898 O   0  0  0  0  0  0  0  0  0  0  0  0
  -32.2413  -25.1425   17.1795 O   0  0  0  0  0  0  0  0  0  0  0  0
  -25.7162  -24.5227   15.3099 O   0  0  0  0  0  0  0  0  0  0  0  0
  -28.0975  -23.2259   14.4334 O   0  0  0  0  0  0  0  0  0  0  0  0
  -20.7034  -23.9467   22.8117 O   0  0  0  0  0  0  0  0  0  0  0  0
  -21.1202  -27.3233   24.4302 O   0  0  0  0  0  0  0  0  0  0  0  0
  -22.2758  -29.4225   20.3341 O   0  0  0  0  0  0  0  0  0  0  0  0
  -28.5631  -22.7025   22.9800 O   0  0  0  0  0  0  0  0  0  0  0  0
  -30.6089  -25.5541   15.0306 O   0  0  0  0  0  0  0  0  0  0  0  0
  -24.9568  -11.0502   19.5891 O   0  0  0  0  0  0  0  0  0  0  0  0
  -25.0010  -23.7154   17.8135 O   0  0  0  0  0  0  0  0  0  1  0  0
  -21.3428   -9.3187   23.3765 F   0  0  0  0  0  0  0  0  0  0  0  0
  -24.9024   -8.4057   20.3930 F   0  0  0  0  0  0  0  0  0  0  0  0
  -30.1488  -22.4908   18.6375 S   0  0  0  0  0  0  0  0  0  0  0  0
  1  2  1  0  0  0  0
  1  5  2  0  0  0  0
  2  6  2  0  0  0  0
  3  8  2  0  0  0  0
  3 15  1  0  0  0  0
  4  9  1  0  0  0  0
  4 15  2  0  0  0  0
  5 17  1  0  0  0  0
  6 19  1  0  0  0  0
  7 10  2  0  0  0  0
  7 18  1  0  0  0  0
  8 21  1  0  0  0  0
  9 21  2  0  0  0  0
 10 22  1  0  0  0  0
 11 12  2  0  0  0  0
 11 23  1  0  0  0  0
 12 24  1  0  0  0  0
 13 20  1  0  0  0  0
 13 22  2  0  0  0  0
 14 24  2  0  0  0  0
 14 25  1  0  0  0  0
 15 26  1  0  0  0  0
 16 26  1  0  0  0  0
 16 29  2  0  0  0  0
 16 31  1  0  0  0  0
 17 19  2  0  0  0  0
 17 39  1  0  0  0  0
 18 20  2  0  0  0  0
 18 40  1  0  0  0  0
 19 48  1  0  0  0  0
 20 41  1  0  0  0  0
 21 83  1  0  0  0  0
 22 84  1  0  0  0  0
 23 25  2  0  0  0  0
 23 83  1  0  0  0  0
 24 85  1  0  0  0  0
 25 86  1  0  0  0  0
 26 62  2  0  0  0  0
 27 28  2  0  0  0  0
 27 32  1  0  0  0  0
 27 87  1  0  0  0  0
 28 51  1  0  0  0  0
 28 63  1  0  0  0  0
 29 64  1  0  0  0  0
 29 67  1  0  0  0  0
 30 63  2  0  0  0  0
 30 69  1  0  0  0  0
 30 87  1  0  0  0  0
 31 68  1  0  0  0  0
 31 74  2  0  0  0  0
 32 58  1  0  0  0  0
 32 75  2  0  0  0  0
 33 34  1  0  0  0  0
 33 57  1  0  0  0  0
 33 76  2  0  0  0  0
 34 70  1  0  0  0  0
 34 77  2  0  0  0  0
 35 49  1  0  0  0  0
 35 71  1  0  0  0  0
 35 78  2  0  0  0  0
 36 59  1  0  0  0  0
 36 65  1  0  0  0  0
 36 79  2  0  0  0  0
 37 60  1  0  0  0  0
 37 72  1  0  0  0  0
 37 80  2  0  0  0  0
 38 66  1  0  0  0  0
 38 69  1  0  0  0  0
 38 81  2  0  0  0  0
 39 42  1  0  0  0  0
 40 49  1  0  0  0  0
 41 65  1  0  0  0  0
 42 44  1  0  0  0  0
 43 45  1  0  0  0  0
 43 46  1  0  0  0  0
 44 48  1  0  0  0  0
 45 50  1  0  0  0  0
 46 66  1  0  0  0  0
 47 50  1  0  0  0  0
 47 66  1  0  0  0  0
 48 71  1  0  0  0  0
 49 65  1  0  0  0  0
 50 64  1  0  0  0  0
 52 60  1  0  0  0  0
 53 61  1  0  0  0  0
 54 61  1  0  0  0  0
 55 61  1  0  0  0  0
 56 73  1  0  0  0  0
 57 84  1  0  0  0  0
 58 70  1  0  0  0  0
 58 82  1  0  0  0  0
 59 61  1  0  0  0  0
 59 72  1  0  0  0  0
 60 73  1  0  0  0  0
 62 64  1  0  0  0  0
M  CHG  1  73   1
M  ISO  4  38 100  57 101  69 100  84 101
M  END
> <Batch ID>
0177

> <Smiles>
CNC(C)C(=O)NC(C(=O)N1Cc2cc([101O:1][101CH2:1]C(=O)C(=O)NC(O)C(=O)c3sc([100NH:0][100C:0](=O)N4CCCC(n5nc(-c6ccc(Oc7ccc(F)cc7F)cc6)c(C(N)=O)c5N)C4)nc3C)ccc2CC1C(=O)NC1CCCc2ccccc21)C(C)(C)C

> <Shape>
0.236

> <Color>
0.041

> <Negative vol penalty>
0.000

$$$$

  -OEChem-04052304413D

 86 94  0     1  0  0  0  0  0999 V2000
  -17.4815  -30.5031   25.0105 C   0  0  0  0  0  0  0  0  0  0  0  0
  -18.3456  -29.4182   25.1195 C   0  0  0  0  0  0  0  0  0  0  0  0
  -24.5568   -9.4616   21.3284 C   0  0  0  0  0  0  0  0  0  0  0  0
  -24.9973  -10.4795   23.4747 C   0  0  0  0  0  0  0  0  0  0  0  0
  -17.3566  -31.1740   23.7947 C   0  0  0  0  0  0  0  0  0  0  0  0
  -19.0846  -29.0029   24.0123 C   0  0  0  0  0  0  0  0  0  0  0  0
  -23.9214  -28.0339   25.1572 C   0  0  0  0  0  0  0  0  0  0  0  0
  -24.3047   -8.2428   21.9581 C   0  0  0  0  0  0  0  0  0  0  0  0
  -24.7451   -9.2608   24.1045 C   0  0  0  0  0  0  0  0  0  0  0  0
  -24.1960  -26.8204   25.7865 C   0  0  0  0  0  0  0  0  0  0  0  0
  -23.1928   -4.9522   23.0308 C   0  0  0  0  0  0  0  0  0  0  0  0
  -22.0733   -4.2290   22.6194 C   0  0  0  0  0  0  0  0  0  0  0  0
  -24.8954  -25.8899   23.6737 C   0  0  0  0  0  0  0  0  0  0  0  0
  -27.2594  -19.7835   21.2389 C   0  0  0  0  0  0  0  0  0  0  0  0
  -20.6483   -6.0741   23.2536 C   0  0  0  0  0  0  0  0  0  0  0  0
  -24.9032  -10.5800   22.0867 C   0  0  0  0  0  0  0  0  0  0  0  0
  -24.2339  -12.8548   21.1461 C   0  0  0  0  0  0  0  0  0  0  0  0
  -18.1017  -30.7727   22.6746 C   0  0  0  0  0  0  0  0  0  0  0  0
  -24.1218  -28.1813   23.7772 C   0  0  0  0  0  0  0  0  0  0  0  0
  -18.9685  -29.6683   22.7800 C   0  0  0  0  0  0  0  0  0  0  0  0
  -24.6251  -27.1070   23.0297 C   0  0  0  0  0  0  0  0  0  0  0  0
  -27.1603  -21.1703   21.2319 C   0  0  0  0  0  0  0  0  0  0  0  0
  -24.3988   -8.1424   23.3462 C   0  0  0  0  0  0  0  0  0  0  0  0
  -24.6803  -25.7473   25.0443 C   0  0  0  0  0  0  0  0  0  0  0  0
  -23.0401   -6.2363   23.5538 C   0  0  0  0  0  0  0  0  0  0  0  0
  -20.8011   -4.7899   22.7308 C   0  0  0  0  0  0  0  0  0  0  0  0
  -21.7678   -6.7972   23.6651 C   0  0  0  0  0  0  0  0  0  0  0  0
  -28.1873  -21.9324   20.6861 C   0  0  0  0  0  0  0  0  0  0  0  0
  -25.1643  -11.8391   21.4367 C   0  0  0  0  0  0  0  0  0  0  0  0
  -28.3969  -19.2118   20.6923 C   0  0  0  0  0  0  0  0  0  0  0  0
  -29.2834  -21.2645   20.1644 C   0  0  0  0  0  0  0  0  0  0  0  0
  -24.9752  -13.8337   20.5306 C   0  0  0  0  0  0  0  0  0  0  0  0
  -22.8255  -12.9088   21.4090 C   0  0  0  0  0  0  0  0  0  0  0  0
  -22.2445  -28.8241   21.2940 C   0  0  0  0  0  0  0  0  0  0  0  0
  -25.0598  -28.9102   19.6849 C   0  0  0  0  0  0  0  0  0  0  0  0
  -28.3250  -27.9339   19.5049 C   0  0  0  0  0  0  0  0  0  0  0  0
  -25.3993  -22.8657   24.0146 C   0  0  0  0  0  0  0  0  0  0  0  0
  -29.5334  -17.0155   20.2115 C   0  0  0  0  0  0  0  0  0  0  0  0
  -17.8977  -31.4994   21.3688 C   0  0  0  0  0  0  0  0  0  0  0  0
  -23.8461  -29.5049   23.1181 C   0  0  0  0  0  0  0  0  0  0  0  0
  -24.8767  -27.2200   21.5491 C   0  0  0  0  0  0  0  0  0  0  0  0
  -18.9965  -31.2302   20.3439 C   0  0  0  0  0  0  0  0  0  0  0  0
  -29.7253  -13.7596   18.7834 C   0  0  0  0  0  0  0  0  0  0  0  0
  -19.2972  -29.7369   20.2634 C   0  0  0  0  0  0  0  0  0  0  0  0
  -28.4793  -13.0532   19.3225 C   0  0  0  0  0  0  0  0  0  0  0  0
  -30.3393  -14.6974   19.8213 C   0  0  0  0  0  0  0  0  0  0  0  0
  -28.1628  -14.9659   20.9437 C   0  0  0  0  0  0  0  0  0  0  0  0
  -19.8056  -29.2033   21.6081 C   0  0  1  0  0  0  0  0  0  0  0  0
  -23.6003  -29.3854   21.6172 C   0  0  1  0  0  0  0  0  0  0  0  0
  -27.4717  -14.0596   19.9119 C   0  0  2  0  0  0  0  0  0  0  0  0
  -25.1818  -22.6798   20.7858 C   0  0  0  0  0  0  0  0  0  0  0  0
  -30.3628  -28.1307   18.0536 C   0  0  0  0  0  0  0  0  0  0  0  0
  -26.6539  -22.9525   26.1975 C   0  0  0  0  0  0  0  0  0  0  0  0
  -23.8644  -26.8893   17.7364 C   0  0  0  0  0  0  0  0  0  0  0  0
  -26.1812  -26.4177   16.9128 C   0  0  0  0  0  0  0  0  0  0  0  0
  -25.2115  -28.7024   16.6630 C   0  0  0  0  0  0  0  0  0  0  0  0
  -29.8670  -29.2664   21.6510 C   0  0  0  0  0  0  0  0  0  0  0  0
  -25.9376  -21.8440   21.8167 C   0  0  2  0  0  0  0  0  0  0  0  0
  -25.9060  -27.8946   18.9558 C   0  0  1  0  0  0  0  0  0  0  0  0
  -29.5965  -28.7161   19.2296 C   0  0  2  0  0  0  0  0  0  0  0  0
  -25.9888  -23.7621   25.0948 C   0  0  2  0  0  0  0  0  0  1  0  0
  -25.2843  -27.4730   17.5946 C   0  0  0  0  0  0  0  0  0  0  0  0
  -26.4021  -12.1443   21.0384 N   0  0  0  0  0  0  0  0  0  0  0  0
  -29.4152  -19.9190   20.1532 N   0  0  0  0  0  0  0  0  0  0  0  0
  -26.2547  -13.3629   20.4912 N   0  0  0  0  0  0  0  0  0  0  0  0
  -24.5857  -28.5327   20.9493 N   0  0  0  0  0  0  0  0  0  0  0  0
  -29.3274  -15.6249   20.3320 N   0  0  0  0  0  0  0  0  0  0  0  0
  -30.3229  -22.0518   19.6103 N   0  0  0  0  0  0  0  0  0  0  0  0
  -24.6509  -15.0425   20.0247 N   0  0  0  0  0  0  0  0  0  0  0  0
  -22.2231  -11.8173   22.0495 N   0  0  0  0  0  0  0  0  0  0  0  0
  -28.4890  -17.7978   20.7031 N   0  0  0  0  0  0  0  0  0  0  0  0
  -21.1937  -29.5634   21.8026 N   0  0  0  0  0  0  0  0  0  0  0  0
  -26.2810  -22.6456   22.9677 N   0  0  0  0  0  0  0  0  0  0  0  0
  -27.2399  -28.4759   18.8491 N   0  0  0  0  0  0  0  0  0  0  0  0
  -30.4853  -28.6975   20.4257 N   0  3  0  0  0  0  0  0  0  0  0  0
  -22.1190  -13.8886   21.0709 O   0  0  0  0  0  0  0  0  0  0  0  0
  -22.1581  -27.7972   20.6309 O   0  0  0  0  0  0  0  0  0  0  0  0
  -24.8340  -30.0011   19.1553 O   0  0  0  0  0  0  0  0  0  0  0  0
  -28.2978  -26.9392   20.2263 O   0  0  0  0  0  0  0  0  0  0  0  0
  -24.2571  -22.4165   24.0807 O   0  0  0  0  0  0  0  0  0  0  0  0
  -30.5486  -17.4779   19.6845 O   0  0  0  0  0  0  0  0  0  0  0  0
  -24.1526   -6.9533   23.9611 O   0  0  0  0  0  0  0  0  0  0  0  0
  -24.9485  -24.5616   25.6559 O   0  0  0  0  0  0  0  0  0  1  0  0
  -19.7262   -4.0959   22.3342 F   0  0  0  0  0  0  0  0  0  0  0  0
  -21.6149   -8.0309   24.1656 F   0  0  0  0  0  0  0  0  0  0  0  0
  -28.1129  -23.2702   20.6680 F   0  0  0  0  0  0  0  0  0  0  0  0
  1  2  1  0  0  0  0
  1  5  2  0  0  0  0
  2  6  2  0  0  0  0
  3  8  2  0  0  0  0
  3 16  1  0  0  0  0
  4  9  1  0  0  0  0
  4 16  2  0  0  0  0
  5 18  1  0  0  0  0
  6 20  1  0  0  0  0
  7 10  2  0  0  0  0
  7 19  1  0  0  0  0
  8 23  1  0  0  0  0
  9 23  2  0  0  0  0
 10 24  1  0  0  0  0
 11 12  2  0  0  0  0
 11 25  1  0  0  0  0
 12 26  1  0  0  0  0
 13 21  1  0  0  0  0
 13 24  2  0  0  0  0
 14 22  1  0  0  0  0
 14 30  2  0  0  0  0
 15 26  2  0  0  0  0
 15 27  1  0  0  0  0
 16 29  1  0  0  0  0
 17 29  1  0  0  0  0
 17 32  2  0  0  0  0
 17 33  1  0  0  0  0
 18 20  2  0  0  0  0
 18 39  1  0  0  0  0
 19 21  2  0  0  0  0
 19 40  1  0  0  0  0
 20 48  1  0  0  0  0
 21 41  1  0  0  0  0
 22 28  2  0  0  0  0
 22 58  1  0  0  0  0
 23 82  1  0  0  0  0
 24 83  1  0  0  0  0
 25 27  2  0  0  0  0
 25 82  1  0  0  0  0
 26 84  1  0  0  0  0
 27 85  1  0  0  0  0
 28 31  1  0  0  0  0
 28 86  1  0  0  0  0
 29 63  2  0  0  0  0
 30 64  1  0  0  0  0
 30 71  1  0  0  0  0
 31 64  2  0  0  0  0
 31 68  1  0  0  0  0
 32 65  1  0  0  0  0
 32 69  1  0  0  0  0
 33 70  1  0  0  0  0
 33 76  2  0  0  0  0
 34 49  1  0  0  0  0
 34 72  1  0  0  0  0
 34 77  2  0  0  0  0
 35 59  1  0  0  0  0
 35 66  1  0  0  0  0
 35 78  2  0  0  0  0
 36 60  1  0  0  0  0
 36 74  1  0  0  0  0
 36 79  2  0  0  0  0
 37 61  1  0  0  0  0
 37 73  1  0  0  0  0
 37 80  2  0  0  0  0
 38 67  1  0  0  0  0
 38 71  1  0  0  0  0
 38 81  2  0  0  0  0
 39 42  1  0  0  0  0
 40 49  1  0  0  0  0
 41 66  1  0  0  0  0
 42 44  1  0  0  0  0
 43 45  1  0  0  0  0
 43 46  1  0  0  0  0
 44 48  1  0  0  0  0
 45 50  1  0  0  0  0
 46 67  1  0  0  0  0
 47 50  1  0  0  0  0
 47 67  1  0  0  0  0
 48 72  1  0  0  0  0
 49 66  1  0  0  0  0
 50 65  1  0  0  0  0
 51 58  1  0  0  0  0
 52 60  1  0  0  0  0
 53 61  1  0  0  0  0
 54 62  1  0  0  0  0
 55 62  1  0  0  0  0
 56 62  1  0  0  0  0
 57 75  1  0  0  0  0
 58 73  1  0  0  0  0
 59 62  1  0  0  0  0
 59 74  1  0  0  0  0
 60 75  1  0  0  0  0
 61 83  1  0  0  0  0
 63 65  1  0  0  0  0
M  CHG  1  75   1
M  ISO  4  38 100  61 101  71 100  83 101
M  END
> <Batch ID>
0177

> <Smiles>
CNC(C)C(=O)NC(C(=O)N1Cc2cc([101O:1][101CH:1](C)C(=O)NC(C)c3cc([100NH:0][100C:0](=O)N4CCCC(n5nc(-c6ccc(Oc7ccc(F)cc7F)cc6)c(C(N)=O)c5N)C4)nc(N)c3F)ccc2CC1C(=O)NC1CCCc2ccccc21)C(C)(C)C

> <Shape>
0.282

> <Color>
0.149

> <Negative vol penalty>
0.000

$$$$

  -OEChem-04052304413D

 86 94  0     1  0  0  0  0  0999 V2000
  -28.9617  -37.0221   18.5115 C   0  0  0  0  0  0  0  0  0  0  0  0
  -29.0417  -35.6538   18.2732 C   0  0  0  0  0  0  0  0  0  0  0  0
  -23.4565   -9.3836   20.8512 C   0  0  0  0  0  0  0  0  0  0  0  0
  -24.1071  -10.1356   23.0531 C   0  0  0  0  0  0  0  0  0  0  0  0
  -28.6302  -37.4889   19.7828 C   0  0  0  0  0  0  0  0  0  0  0  0
  -28.7914  -34.7514   19.3064 C   0  0  0  0  0  0  0  0  0  0  0  0
  -26.1291  -29.2567   18.8312 C   0  0  0  0  0  0  0  0  0  0  0  0
  -22.8620   -8.2537   21.4127 C   0  0  0  0  0  0  0  0  0  0  0  0
  -23.5125   -9.0056   23.6146 C   0  0  0  0  0  0  0  0  0  0  0  0
  -26.6497  -27.9655   18.7568 C   0  0  0  0  0  0  0  0  0  0  0  0
  -19.9846   -7.4893   23.0155 C   0  0  0  0  0  0  0  0  0  0  0  0
  -18.7180   -7.1275   22.5567 C   0  0  0  0  0  0  0  0  0  0  0  0
  -26.3376  -27.7091   21.1351 C   0  0  0  0  0  0  0  0  0  0  0  0
  -19.5882   -4.9910   21.8390 C   0  0  0  0  0  0  0  0  0  0  0  0
  -30.8317  -19.6637   20.6132 C   0  0  0  0  0  0  0  0  0  0  0  0
  -24.0791  -10.3246   21.6714 C   0  0  0  0  0  0  0  0  0  0  0  0
  -24.0878  -12.7382   20.8455 C   0  0  0  0  0  0  0  0  0  0  0  0
  -28.3663  -36.5917   20.8297 C   0  0  0  0  0  0  0  0  0  0  0  0
  -25.7183  -29.7887   20.0619 C   0  0  0  0  0  0  0  0  0  0  0  0
  -28.4574  -35.2067   20.5932 C   0  0  0  0  0  0  0  0  0  0  0  0
  -25.8098  -29.0064   21.2220 C   0  0  0  0  0  0  0  0  0  0  0  0
  -22.8900   -8.0647   22.7944 C   0  0  0  0  0  0  0  0  0  0  0  0
  -26.7567  -27.1925   19.9093 C   0  0  0  0  0  0  0  0  0  0  0  0
  -21.0530   -6.6019   22.8860 C   0  0  0  0  0  0  0  0  0  0  0  0
  -18.5198   -5.8784   21.9685 C   0  0  0  0  0  0  0  0  0  0  0  0
  -20.8548   -5.3528   22.2978 C   0  0  0  0  0  0  0  0  0  0  0  0
  -24.6940  -11.4917   21.0919 C   0  0  0  0  0  0  0  0  0  0  0  0
  -29.6608  -20.0662   21.2206 C   0  0  0  0  0  0  0  0  0  0  0  0
  -25.0857  -13.5017   20.2909 C   0  0  0  0  0  0  0  0  0  0  0  0
  -29.8544  -17.7070   20.7744 C   0  0  0  0  0  0  0  0  0  0  0  0
  -22.7429  -13.1675   21.0958 C   0  0  0  0  0  0  0  0  0  0  0  0
  -29.2125  -21.4213   21.6329 C   0  0  0  0  0  0  0  0  0  0  0  0
  -26.6143  -32.2604   21.8484 C   0  0  0  0  0  0  0  0  0  0  0  0
  -29.0151  -24.4378   20.5964 C   0  0  0  0  0  0  0  0  0  0  0  0
  -24.0553  -31.3919   23.6426 C   0  0  0  0  0  0  0  0  0  0  0  0
  -21.8838  -28.9376   24.5954 C   0  0  0  0  0  0  0  0  0  0  0  0
  -30.3518  -15.3076   20.1900 C   0  0  0  0  0  0  0  0  0  0  0  0
  -28.0581  -37.1441   22.1988 C   0  0  0  0  0  0  0  0  0  0  0  0
  -25.1341  -31.1735   20.1210 C   0  0  0  0  0  0  0  0  0  0  0  0
  -25.3638  -29.5236   22.5644 C   0  0  0  0  0  0  0  0  0  0  0  0
  -27.4410  -36.1175   23.1451 C   0  0  0  0  0  0  0  0  0  0  0  0
  -29.6728  -12.1984   18.5933 C   0  0  0  0  0  0  0  0  0  0  0  0
  -28.2167  -34.8053   23.0886 C   0  0  0  0  0  0  0  0  0  0  0  0
  -28.2671  -11.8400   19.0807 C   0  0  0  0  0  0  0  0  0  0  0  0
  -30.4957  -12.8785   19.6860 C   0  0  0  0  0  0  0  0  0  0  0  0
  -28.4506  -13.6853   20.7977 C   0  0  0  0  0  0  0  0  0  0  0  0
  -28.1687  -34.1962   21.6821 C   0  0  1  0  0  0  0  0  0  0  0  0
  -25.2245  -31.8014   21.5085 C   0  0  1  0  0  0  0  0  0  0  0  0
  -27.5621  -13.0566   19.7119 C   0  0  2  0  0  0  0  0  0  0  0  0
  -19.9230  -28.5191   26.1045 C   0  0  0  0  0  0  0  0  0  0  0  0
  -31.9609  -24.0459   23.0833 C   0  0  0  0  0  0  0  0  0  0  0  0
  -25.9281  -31.3130   26.0502 C   0  0  0  0  0  0  0  0  0  0  0  0
  -24.1822  -30.0039   27.2775 C   0  0  0  0  0  0  0  0  0  0  0  0
  -23.6862  -32.3235   26.5052 C   0  0  0  0  0  0  0  0  0  0  0  0
  -20.1300  -28.2402   22.3156 C   0  0  0  0  0  0  0  0  0  0  0  0
  -27.9514  -25.4440   20.9916 C   0  0  0  0  0  0  0  0  0  1  0  0
  -29.8165  -23.8255   21.7378 C   0  0  2  0  0  0  0  0  0  0  0  0
  -23.8337  -30.4566   24.8067 C   0  0  1  0  0  0  0  0  0  0  0  0
  -20.3700  -28.9197   24.7072 C   0  0  2  0  0  0  0  0  0  0  0  0
  -31.0805  -24.6400   21.9969 C   0  0  2  0  0  0  0  0  0  0  0  0
  -24.4179  -31.0149   26.1351 C   0  0  0  0  0  0  0  0  0  0  0  0
  -30.9447  -18.3112   20.3569 N   0  0  0  0  0  0  0  0  0  0  0  0
  -25.9775  -11.4609   20.7237 N   0  0  0  0  0  0  0  0  0  0  0  0
  -26.1860  -12.6974   20.2403 N   0  0  0  0  0  0  0  0  0  0  0  0
  -24.8053  -30.8858   22.5716 N   0  0  0  0  0  0  0  0  0  0  0  0
  -29.7669  -14.0244   20.2343 N   0  0  0  0  0  0  0  0  0  0  0  0
  -25.1206  -14.7759   19.8462 N   0  0  0  0  0  0  0  0  0  0  0  0
  -21.8467  -12.2563   21.6710 N   0  0  0  0  0  0  0  0  0  0  0  0
  -29.5521  -16.3241   20.7111 N   0  0  0  0  0  0  0  0  0  0  0  0
  -30.0968  -22.4609   21.3754 N   0  0  0  0  0  0  0  0  0  0  0  0
  -26.8918  -33.5549   21.4524 N   0  0  0  0  0  0  0  0  0  0  0  0
  -22.3999  -30.1906   24.8496 N   0  0  0  0  0  0  0  0  0  0  0  0
  -19.7900  -27.9526   23.7329 N   0  3  0  0  0  0  0  0  0  0  0  0
  -22.3431  -14.3198   20.8025 O   0  0  0  0  0  0  0  0  0  0  0  0
  -28.1226  -21.5508   22.1842 O   0  0  0  0  0  0  0  0  0  0  0  0
  -27.3778  -31.4973   22.4283 O   0  0  0  0  0  0  0  0  0  0  0  0
  -29.2394  -24.1623   19.4175 O   0  0  0  0  0  0  0  0  0  0  0  0
  -23.5743  -32.5272   23.6791 O   0  0  0  0  0  0  0  0  0  0  0  0
  -22.5428  -27.9389   24.3145 O   0  0  0  0  0  0  0  0  0  0  0  0
  -31.4680  -15.4953   19.6992 O   0  0  0  0  0  0  0  0  0  0  0  0
  -22.3097   -6.9623   23.3427 O   0  0  0  0  0  0  0  0  0  0  0  0
  -27.2650  -25.9321   19.8396 O   0  0  0  0  0  0  0  0  0  1  0  0
  -17.3031   -5.5305   21.5293 F   0  0  0  0  0  0  0  0  0  0  0  0
  -21.8772   -4.4956   22.1717 F   0  0  0  0  0  0  0  0  0  0  0  0
  -31.8130  -24.7028   20.8486 F   0  0  0  0  0  0  0  0  0  0  0  0
  -28.6520  -18.7046   21.4845 S   0  0  0  0  0  0  0  0  0  0  0  0
  1  2  1  0  0  0  0
  1  5  2  0  0  0  0
  2  6  2  0  0  0  0
  3  8  2  0  0  0  0
  3 16  1  0  0  0  0
  4  9  1  0  0  0  0
  4 16  2  0  0  0  0
  5 18  1  0  0  0  0
  6 20  1  0  0  0  0
  7 10  2  0  0  0  0
  7 19  1  0  0  0  0
  8 22  1  0  0  0  0
  9 22  2  0  0  0  0
 10 23  1  0  0  0  0
 11 12  2  0  0  0  0
 11 24  1  0  0  0  0
 12 25  1  0  0  0  0
 13 21  1  0  0  0  0
 13 23  2  0  0  0  0
 14 25  2  0  0  0  0
 14 26  1  0  0  0  0
 15 28  2  0  0  0  0
 15 62  1  0  0  0  0
 16 27  1  0  0  0  0
 17 27  1  0  0  0  0
 17 29  2  0  0  0  0
 17 31  1  0  0  0  0
 18 20  2  0  0  0  0
 18 38  1  0  0  0  0
 19 21  2  0  0  0  0
 19 39  1  0  0  0  0
 20 47  1  0  0  0  0
 21 40  1  0  0  0  0
 22 81  1  0  0  0  0
 23 82  1  0  0  0  0
 24 26  2  0  0  0  0
 24 81  1  0  0  0  0
 25 83  1  0  0  0  0
 26 84  1  0  0  0  0
 27 63  2  0  0  0  0
 28 32  1  0  0  0  0
 28 86  1  0  0  0  0
 29 64  1  0  0  0  0
 29 67  1  0  0  0  0
 30 62  2  0  0  0  0
 30 69  1  0  0  0  0
 30 86  1  0  0  0  0
 31 68  1  0  0  0  0
 31 74  2  0  0  0  0
 32 70  1  0  0  0  0
 32 75  2  0  0  0  0
 33 48  1  0  0  0  0
 33 71  1  0  0  0  0
 33 76  2  0  0  0  0
 34 56  1  0  0  0  0
 34 57  1  0  0  0  0
 34 77  2  0  0  0  0
 35 58  1  0  0  0  0
 35 65  1  0  0  0  0
 35 78  2  0  0  0  0
 36 59  1  0  0  0  0
 36 72  1  0  0  0  0
 36 79  2  0  0  0  0
 37 66  1  0  0  0  0
 37 69  1  0  0  0  0
 37 80  2  0  0  0  0
 38 41  1  0  0  0  0
 39 48  1  0  0  0  0
 40 65  1  0  0  0  0
 41 43  1  0  0  0  0
 42 44  1  0  0  0  0
 42 45  1  0  0  0  0
 43 47  1  0  0  0  0
 44 49  1  0  0  0  0
 45 66  1  0  0  0  0
 46 49  1  0  0  0  0
 46 66  1  0  0  0  0
 47 71  1  0  0  0  0
 48 65  1  0  0  0  0
 49 64  1  0  0  0  0
 50 59  1  0  0  0  0
 51 60  1  0  0  0  0
 52 61  1  0  0  0  0
 53 61  1  0  0  0  0
 54 61  1  0  0  0  0
 55 73  1  0  0  0  0
 56 82  1  0  0  0  0
 57 60  1  0  0  0  0
 57 70  1  0  0  0  0
 58 61  1  0  0  0  0
 58 72  1  0  0  0  0
 59 73  1  0  0  0  0
 60 85  1  0  0  0  0
 63 64  1  0  0  0  0
M  CHG  1  73   1
M  ISO  4  37 100  56 101  69 100  82 101
M  END
> <Batch ID>
0177

> <Smiles>
CNC(C)C(=O)NC(C(=O)N1Cc2cc([101O:1][101CH2:1]C(=O)C(NC(=O)c3cnc([100NH:0][100C:0](=O)N4CCCC(n5nc(-c6ccc(Oc7ccc(F)cc7F)cc6)c(C(N)=O)c5N)C4)s3)C(C)F)ccc2CC1C(=O)NC1CCCc2ccccc21)C(C)(C)C

> <Shape>
0.325

> <Color>
0.193

> <Negative vol penalty>
0.000

$$$$

  -OEChem-04052304413D

 86 94  0     1  0  0  0  0  0999 V2000
  -29.1049  -34.6089   24.8905 C   0  0  0  0  0  0  0  0  0  0  0  0
  -29.3301  -33.5467   24.0207 C   0  0  0  0  0  0  0  0  0  0  0  0
  -23.5134  -17.7062   20.0261 C   0  0  0  0  0  0  0  0  0  0  0  0
  -22.3618  -15.6023   20.3166 C   0  0  0  0  0  0  0  0  0  0  0  0
  -28.1371  -34.4984   25.8880 C   0  0  0  0  0  0  0  0  0  0  0  0
  -28.5884  -32.3728   24.1488 C   0  0  0  0  0  0  0  0  0  0  0  0
  -26.7116  -28.6922   19.6281 C   0  0  0  0  0  0  0  0  0  0  0  0
  -22.3751  -18.2467   19.4282 C   0  0  0  0  0  0  0  0  0  0  0  0
  -21.2234  -16.1428   19.7186 C   0  0  0  0  0  0  0  0  0  0  0  0
  -27.2206  -27.4988   19.1177 C   0  0  0  0  0  0  0  0  0  0  0  0
  -19.6534  -20.2908   18.1517 C   0  0  0  0  0  0  0  0  0  0  0  0
  -19.2559  -21.5673   18.5494 C   0  0  0  0  0  0  0  0  0  0  0  0
  -29.7374  -17.9199   19.3857 C   0  0  0  0  0  0  0  0  0  0  0  0
  -25.6960  -26.2577   20.5158 C   0  0  0  0  0  0  0  0  0  0  0  0
  -18.9988  -20.7799   20.8190 C   0  0  0  0  0  0  0  0  0  0  0  0
  -30.3300  -17.4333   21.5799 C   0  0  0  0  0  0  0  0  0  0  0  0
  -23.5068  -16.3839   20.4703 C   0  0  0  0  0  0  0  0  0  0  0  0
  -29.7738  -18.3703   20.7370 C   0  0  0  0  0  0  0  0  0  0  0  0
  -25.0101  -15.8343   22.4566 C   0  0  0  0  0  0  0  0  0  0  0  0
  -27.3764  -33.3262   26.0223 C   0  0  0  0  0  0  0  0  0  0  0  0
  -25.6968  -28.6771   20.5958 C   0  0  0  0  0  0  0  0  0  0  0  0
  -27.6105  -32.2460   25.1499 C   0  0  0  0  0  0  0  0  0  0  0  0
  -25.1741  -27.4524   21.0349 C   0  0  0  0  0  0  0  0  0  0  0  0
  -21.2301  -17.4651   19.2744 C   0  0  0  0  0  0  0  0  0  0  0  0
  -26.7148  -26.2813   19.5637 C   0  0  0  0  0  0  0  0  0  0  0  0
  -19.7235  -19.2588   19.0875 C   0  0  0  0  0  0  0  0  0  0  0  0
  -18.9287  -21.8118   19.8831 C   0  0  0  0  0  0  0  0  0  0  0  0
  -19.3962  -19.5034   20.4212 C   0  0  0  0  0  0  0  0  0  0  0  0
  -24.6826  -15.8248   21.0875 C   0  0  0  0  0  0  0  0  0  0  0  0
  -26.2170  -15.1823   22.5255 C   0  0  0  0  0  0  0  0  0  0  0  0
  -30.2675  -16.6559   19.2472 C   0  0  0  0  0  0  0  0  0  0  0  0
  -28.4025  -21.8001   20.4332 C   0  0  0  0  0  0  0  0  0  0  0  0
  -29.2834  -19.6795   21.2186 C   0  0  0  0  0  0  0  0  0  0  0  0
  -24.2880  -16.3834   23.5669 C   0  0  0  0  0  0  0  0  0  0  0  0
  -29.3380  -20.8468   20.2840 C   0  0  0  0  0  0  0  0  0  0  0  0
  -28.3238  -23.0354   19.5953 C   0  0  0  0  0  0  0  0  0  0  0  0
  -25.4485  -29.6806   23.6016 C   0  0  0  0  0  0  0  0  0  0  0  0
  -22.3472  -28.8066   23.2266 C   0  0  0  0  0  0  0  0  0  0  0  0
  -20.0574  -26.8854   21.5795 C   0  0  0  0  0  0  0  0  0  0  0  0
  -30.4039  -14.4165   18.1257 C   0  0  0  0  0  0  0  0  0  0  0  0
  -26.3744  -33.2357   27.1458 C   0  0  0  0  0  0  0  0  0  0  0  0
  -25.1400  -29.9737   21.1167 C   0  0  0  0  0  0  0  0  0  0  0  0
  -24.0704  -27.3822   22.0574 C   0  0  0  0  0  0  0  0  0  0  0  0
  -25.3713  -32.0974   26.9772 C   0  0  0  0  0  0  0  0  0  0  0  0
  -28.8392  -11.8631   20.2994 C   0  0  0  0  0  0  0  0  0  0  0  0
  -26.0872  -30.8088   26.5851 C   0  0  0  0  0  0  0  0  0  0  0  0
  -27.5778  -12.5672   20.7960 C   0  0  0  0  0  0  0  0  0  0  0  0
  -29.2671  -12.3700   18.9255 C   0  0  0  0  0  0  0  0  0  0  0  0
  -28.1897  -14.5578   19.3662 C   0  0  0  0  0  0  0  0  0  0  0  0
  -26.8090  -30.9656   25.2413 C   0  0  1  0  0  0  0  0  0  0  0  0
  -24.4637  -29.8300   22.4766 C   0  0  1  0  0  0  0  0  0  0  0  0
  -27.7611  -14.0935   20.7662 C   0  0  1  0  0  0  0  0  0  0  0  0
  -32.3944  -16.6891   16.8717 C   0  0  0  0  0  0  0  0  0  0  0  0
  -17.6041  -26.3610   21.5203 C   0  0  0  0  0  0  0  0  0  0  0  0
  -22.6520  -27.1081   25.7430 C   0  0  0  0  0  0  0  0  0  0  0  0
  -20.5505  -25.9073   25.1029 C   0  0  0  0  0  0  0  0  0  0  0  0
  -20.4900  -28.3547   25.5814 C   0  0  0  0  0  0  0  0  0  0  0  0
  -19.8029  -27.8386   18.7893 C   0  0  0  0  0  0  0  0  0  0  0  0
  -27.1887  -23.9801   19.9325 C   0  0  0  0  0  0  0  0  0  1  0  0
  -30.8974  -16.4553   16.8486 C   0  0  0  0  0  0  0  0  0  0  0  0
  -21.5610  -27.5361   23.4425 C   0  0  1  0  0  0  0  0  0  0  0  0
  -18.7173  -27.2291   20.9546 C   0  0  2  0  0  0  0  0  0  0  0  0
  -21.3355  -27.2275   24.9496 C   0  0  0  0  0  0  0  0  0  0  0  0
  -25.6069  -15.2152   20.3405 N   0  0  0  0  0  0  0  0  0  0  0  0
  -26.5271  -14.8356   21.2433 N   0  0  0  0  0  0  0  0  0  0  0  0
  -23.5635  -28.6769   22.5412 N   0  0  0  0  0  0  0  0  0  0  0  0
  -29.3792  -13.8291   18.8959 N   0  0  0  0  0  0  0  0  0  0  0  0
  -27.0327  -14.8774   23.5571 N   0  0  0  0  0  0  0  0  0  0  0  0
  -23.0641  -17.0198   23.3189 N   0  0  0  0  0  0  0  0  0  0  0  0
  -25.8652  -30.8797   24.1476 N   0  0  0  0  0  0  0  0  0  0  0  0
  -20.3308  -27.6814   22.6717 N   0  0  0  0  0  0  0  0  0  0  0  0
  -30.4301  -15.8234   18.0804 N   0  0  0  0  0  0  0  0  0  0  0  0
  -18.7669  -27.0273   19.4789 N   0  3  0  0  0  0  0  0  0  0  0  0
  -28.8711  -19.7707   22.3704 O   0  0  0  0  0  0  0  0  0  0  0  0
  -24.7232  -16.3261   24.7420 O   0  0  0  0  0  0  0  0  0  0  0  0
  -29.1251  -23.2690   18.6953 O   0  0  0  0  0  0  0  0  0  0  0  0
  -25.8029  -28.5603   23.9496 O   0  0  0  0  0  0  0  0  0  0  0  0
  -21.8954  -29.8757   23.6443 O   0  0  0  0  0  0  0  0  0  0  0  0
  -20.7870  -25.9971   21.1447 O   0  0  0  0  0  0  0  0  0  0  0  0
  -31.2073  -13.7351   17.4770 O   0  0  0  0  0  0  0  0  0  0  0  0
  -30.3580  -20.8788   19.3595 O   0  0  0  0  0  0  0  0  0  0  0  0
  -20.1190  -17.9923   18.6912 O   0  0  0  0  0  0  0  0  0  0  0  0
  -27.2103  -25.1150   19.0676 O   0  0  0  0  0  0  0  0  0  1  0  0
  -18.5485  -23.0381   20.2652 F   0  0  0  0  0  0  0  0  0  0  0  0
  -19.4628  -18.5163   21.3251 F   0  0  0  0  0  0  0  0  0  0  0  0
  -30.8055  -16.0175   20.7423 S   0  0  0  0  0  0  0  0  0  0  0  0
  1  2  1  0  0  0  0
  1  5  2  0  0  0  0
  2  6  2  0  0  0  0
  3  8  2  0  0  0  0
  3 17  1  0  0  0  0
  4  9  1  0  0  0  0
  4 17  2  0  0  0  0
  5 20  1  0  0  0  0
  6 22  1  0  0  0  0
  7 10  2  0  0  0  0
  7 21  1  0  0  0  0
  8 24  1  0  0  0  0
  9 24  2  0  0  0  0
 10 25  1  0  0  0  0
 11 12  2  0  0  0  0
 11 26  1  0  0  0  0
 12 27  1  0  0  0  0
 13 18  1  0  0  0  0
 13 31  2  0  0  0  0
 14 23  1  0  0  0  0
 14 25  2  0  0  0  0
 15 27  2  0  0  0  0
 15 28  1  0  0  0  0
 16 18  2  0  0  0  0
 16 86  1  0  0  0  0
 17 29  1  0  0  0  0
 18 33  1  0  0  0  0
 19 29  1  0  0  0  0
 19 30  2  0  0  0  0
 19 34  1  0  0  0  0
 20 22  2  0  0  0  0
 20 41  1  0  0  0  0
 21 23  2  0  0  0  0
 21 42  1  0  0  0  0
 22 50  1  0  0  0  0
 23 43  1  0  0  0  0
 24 82  1  0  0  0  0
 25 83  1  0  0  0  0
 26 28  2  0  0  0  0
 26 82  1  0  0  0  0
 27 84  1  0  0  0  0
 28 85  1  0  0  0  0
 29 64  2  0  0  0  0
 30 65  1  0  0  0  0
 30 68  1  0  0  0  0
 31 72  1  0  0  0  0
 31 86  1  0  0  0  0
 32 35  2  0  0  0  0
 32 36  1  0  0  0  0
 33 35  1  0  0  0  0
 33 74  2  0  0  0  0
 34 69  1  0  0  0  0
 34 75  2  0  0  0  0
 35 81  1  0  0  0  0
 36 59  1  0  0  0  0
 36 76  2  0  0  0  0
 37 51  1  0  0  0  0
 37 70  1  0  0  0  0
 37 77  2  0  0  0  0
 38 61  1  0  0  0  0
 38 66  1  0  0  0  0
 38 78  2  0  0  0  0
 39 62  1  0  0  0  0
 39 71  1  0  0  0  0
 39 79  2  0  0  0  0
 40 67  1  0  0  0  0
 40 72  1  0  0  0  0
 40 80  2  0  0  0  0
 41 44  1  0  0  0  0
 42 51  1  0  0  0  0
 43 66  1  0  0  0  0
 44 46  1  0  0  0  0
 45 47  1  0  0  0  0
 45 48  1  0  0  0  0
 46 50  1  0  0  0  0
 47 52  1  0  0  0  0
 48 67  1  0  0  0  0
 49 52  1  0  0  0  0
 49 67  1  0  0  0  0
 50 70  1  0  0  0  0
 51 66  1  0  0  0  0
 52 65  1  0  0  0  0
 53 60  1  0  0  0  0
 54 62  1  0  0  0  0
 55 63  1  0  0  0  0
 56 63  1  0  0  0  0
 57 63  1  0  0  0  0
 58 73  1  0  0  0  0
 59 83  1  0  0  0  0
 60 72  1  0  0  0  0
 61 63  1  0  0  0  0
 61 71  1  0  0  0  0
 62 73  1  0  0  0  0
 64 65  1  0  0  0  0
M  CHG  1  73   1
M  ISO  4  40 100  59 101  72 100  83 101
M  END
> <Batch ID>
0177

> <Smiles>
CC[100N:0](c1cc(C(=O)C(=O)CC(=O)[101CH2:1][101O:1]c2ccc3c(c2)CN(C(=O)C(NC(=O)C(C)NC)C(C)(C)C)C(C(=O)NC2CCCc4ccccc42)C3)cs1)[100C:0](=O)N1CCCC(n2nc(-c3ccc(Oc4ccc(F)cc4F)cc3)c(C(N)=O)c2N)C1

> <Shape>
0.264

> <Color>
0.059

> <Negative vol penalty>
0.000

$$$$

  -OEChem-04052304413D

 84 92  0     1  0  0  0  0  0999 V2000
  -17.9795  -30.9817   25.8520 C   0  0  0  0  0  0  0  0  0  0  0  0
  -19.0815  -30.1881   26.1541 C   0  0  0  0  0  0  0  0  0  0  0  0
  -24.2976  -14.0346   20.6610 C   0  0  0  0  0  0  0  0  0  0  0  0
  -26.6843  -13.6602   20.6336 C   0  0  0  0  0  0  0  0  0  0  0  0
  -17.4482  -30.9732   24.5630 C   0  0  0  0  0  0  0  0  0  0  0  0
  -19.6521  -29.3847   25.1675 C   0  0  0  0  0  0  0  0  0  0  0  0
  -24.7094  -29.6459   25.1341 C   0  0  0  0  0  0  0  0  0  0  0  0
  -24.0832  -12.6907   20.3553 C   0  0  0  0  0  0  0  0  0  0  0  0
  -26.4699  -12.3162   20.3280 C   0  0  0  0  0  0  0  0  0  0  0  0
  -25.3909  -28.9196   26.1097 C   0  0  0  0  0  0  0  0  0  0  0  0
  -24.0913   -9.7319   21.9919 C   0  0  0  0  0  0  0  0  0  0  0  0
  -23.1103   -9.0515   22.7132 C   0  0  0  0  0  0  0  0  0  0  0  0
  -25.8389  -27.1836   24.4957 C   0  0  0  0  0  0  0  0  0  0  0  0
  -21.9174   -8.5968   20.6620 C   0  0  0  0  0  0  0  0  0  0  0  0
  -25.5982  -14.5194   20.8001 C   0  0  0  0  0  0  0  0  0  0  0  0
  -25.9253  -16.4824   22.3961 C   0  0  0  0  0  0  0  0  0  0  0  0
  -18.0185  -30.1766   23.5577 C   0  0  0  0  0  0  0  0  0  0  0  0
  -24.5778  -29.1406   23.8326 C   0  0  0  0  0  0  0  0  0  0  0  0
  -19.1271  -29.3645   23.8642 C   0  0  0  0  0  0  0  0  0  0  0  0
  -25.1574  -27.9066   23.5048 C   0  0  0  0  0  0  0  0  0  0  0  0
  -25.1693  -11.8314   20.1889 C   0  0  0  0  0  0  0  0  0  0  0  0
  -25.9533  -27.6869   25.7913 C   0  0  0  0  0  0  0  0  0  0  0  0
  -23.9853   -9.8448   20.6056 C   0  0  0  0  0  0  0  0  0  0  0  0
  -22.0234   -8.4840   22.0483 C   0  0  0  0  0  0  0  0  0  0  0  0
  -22.8984   -9.2773   19.9407 C   0  0  0  0  0  0  0  0  0  0  0  0
  -25.8203  -15.9077   21.1153 C   0  0  0  0  0  0  0  0  0  0  0  0
  -29.9959  -24.6637   23.2542 C   0  0  0  0  0  0  0  0  0  0  0  0
  -30.3476  -25.0657   21.9826 C   0  0  0  0  0  0  0  0  0  0  0  0
  -26.1331  -17.8188   22.1568 C   0  0  0  0  0  0  0  0  0  0  0  0
  -29.2718  -23.2269   21.4615 C   0  0  0  0  0  0  0  0  0  0  0  0
  -25.8426  -15.8635   23.6868 C   0  0  0  0  0  0  0  0  0  0  0  0
  -30.2631  -25.2864   24.5763 C   0  0  0  0  0  0  0  0  0  0  0  0
  -22.1282  -28.3010   21.9893 C   0  0  0  0  0  0  0  0  0  0  0  0
  -28.7403  -25.9907   27.3713 C   0  0  0  0  0  0  0  0  0  0  0  0
  -24.4440  -27.9365   19.7473 C   0  0  0  0  0  0  0  0  0  0  0  0
  -27.7374  -27.3784   19.0480 C   0  0  0  0  0  0  0  0  0  0  0  0
  -28.6587  -21.9361   19.3869 C   0  0  0  0  0  0  0  0  0  0  0  0
  -17.3802  -30.1647   22.1913 C   0  0  0  0  0  0  0  0  0  0  0  0
  -23.8626  -29.9487   22.7848 C   0  0  0  0  0  0  0  0  0  0  0  0
  -25.0618  -27.3294   22.1169 C   0  0  0  0  0  0  0  0  0  0  0  0
  -18.2742  -29.5695   21.1065 C   0  0  0  0  0  0  0  0  0  0  0  0
  -25.7771  -20.4926   17.8736 C   0  0  0  0  0  0  0  0  0  0  0  0
  -18.9003  -28.2643   21.5874 C   0  0  0  0  0  0  0  0  0  0  0  0
  -25.5401  -19.2183   18.6875 C   0  0  0  0  0  0  0  0  0  0  0  0
  -27.2663  -20.7769   17.6861 C   0  0  0  0  0  0  0  0  0  0  0  0
  -27.8168  -19.5314   19.7391 C   0  0  0  0  0  0  0  0  0  0  0  0
  -19.7893  -28.4983   22.8148 C   0  0  1  0  0  0  0  0  0  0  0  0
  -23.3468  -29.1014   21.6258 C   0  0  1  0  0  0  0  0  0  0  0  0
  -26.3319  -19.2387   20.0097 C   0  0  2  0  0  0  0  0  0  0  0  0
  -29.3219  -27.0953   17.1228 C   0  0  0  0  0  0  0  0  0  0  0  0
  -23.3899  -25.1085   19.2986 C   0  0  0  0  0  0  0  0  0  0  0  0
  -25.5294  -24.5740   18.1133 C   0  0  0  0  0  0  0  0  0  0  0  0
  -24.0107  -26.3342   17.2089 C   0  0  0  0  0  0  0  0  0  0  0  0
  -29.3261  -29.7405   19.8577 C   0  0  0  0  0  0  0  0  0  0  0  0
  -29.9154  -25.1009   27.0259 C   0  0  0  0  0  0  0  0  0  0  0  0
  -27.6803  -26.1321   26.2974 C   0  0  0  0  0  0  0  0  0  1  0  0
  -25.3385  -26.8022   19.3089 C   0  0  1  0  0  0  0  0  0  0  0  0
  -28.6990  -28.0767   18.1035 C   0  0  2  0  0  0  0  0  0  0  0  0
  -24.5674  -25.7145   18.5092 C   0  0  0  0  0  0  0  0  0  0  0  0
  -25.9504  -16.8056   20.1351 N   0  0  0  0  0  0  0  0  0  0  0  0
  -29.9336  -24.2428   20.9534 N   0  0  0  0  0  0  0  0  0  0  0  0
  -26.1393  -17.9580   20.8001 N   0  0  0  0  0  0  0  0  0  0  0  0
  -24.3470  -28.1544   21.1289 N   0  0  0  0  0  0  0  0  0  0  0  0
  -27.9507  -20.7851   18.9809 N   0  0  0  0  0  0  0  0  0  0  0  0
  -31.0532  -26.1905   21.7145 N   0  0  0  0  0  0  0  0  0  0  0  0
  -26.3092  -18.8767   22.9767 N   0  0  0  0  0  0  0  0  0  0  0  0
  -25.6256  -14.4804   23.7519 N   0  0  0  0  0  0  0  0  0  0  0  0
  -28.6726  -22.1482   20.7650 N   0  0  0  0  0  0  0  0  0  0  0  0
  -29.7605  -24.6141   25.6875 N   0  0  0  0  0  0  0  0  0  0  0  0
  -21.0600  -29.0658   22.4177 N   0  0  0  0  0  0  0  0  0  0  0  0
  -26.4423  -27.4128   18.5759 N   0  0  0  0  0  0  0  0  0  0  0  0
  -29.7945  -28.7330   18.8715 N   0  3  0  0  0  0  0  0  0  0  0  0
  -25.9413  -16.5202   24.7510 O   0  0  0  0  0  0  0  0  0  0  0  0
  -30.8802  -26.3472   24.6262 O   0  0  0  0  0  0  0  0  0  0  0  0
  -22.1546  -27.0801   21.8871 O   0  0  0  0  0  0  0  0  0  0  0  0
  -28.6713  -26.6053   28.4353 O   0  0  0  0  0  0  0  0  0  0  0  0
  -23.8586  -28.6091   18.8949 O   0  0  0  0  0  0  0  0  0  0  0  0
  -28.0995  -26.8516   20.0978 O   0  0  0  0  0  0  0  0  0  0  0  0
  -29.1889  -22.6936   18.5701 O   0  0  0  0  0  0  0  0  0  0  0  0
  -24.9605  -10.5199   19.8908 O   0  0  0  0  0  0  0  0  0  0  0  0
  -26.6185  -26.9756   26.7418 O   0  0  0  0  0  0  0  0  0  1  0  0
  -21.0822   -7.8293   22.7410 F   0  0  0  0  0  0  0  0  0  0  0  0
  -22.7918   -9.3815   18.6089 F   0  0  0  0  0  0  0  0  0  0  0  0
  -29.1090  -23.1983   23.1696 S   0  0  0  0  0  0  0  0  0  0  0  0
  1  2  1  0  0  0  0
  1  5  2  0  0  0  0
  2  6  2  0  0  0  0
  3  8  2  0  0  0  0
  3 15  1  0  0  0  0
  4  9  1  0  0  0  0
  4 15  2  0  0  0  0
  5 17  1  0  0  0  0
  6 19  1  0  0  0  0
  7 10  2  0  0  0  0
  7 18  1  0  0  0  0
  8 21  1  0  0  0  0
  9 21  2  0  0  0  0
 10 22  1  0  0  0  0
 11 12  2  0  0  0  0
 11 23  1  0  0  0  0
 12 24  1  0  0  0  0
 13 20  1  0  0  0  0
 13 22  2  0  0  0  0
 14 24  2  0  0  0  0
 14 25  1  0  0  0  0
 15 26  1  0  0  0  0
 16 26  1  0  0  0  0
 16 29  2  0  0  0  0
 16 31  1  0  0  0  0
 17 19  2  0  0  0  0
 17 38  1  0  0  0  0
 18 20  2  0  0  0  0
 18 39  1  0  0  0  0
 19 47  1  0  0  0  0
 20 40  1  0  0  0  0
 21 80  1  0  0  0  0
 22 81  1  0  0  0  0
 23 25  2  0  0  0  0
 23 80  1  0  0  0  0
 24 82  1  0  0  0  0
 25 83  1  0  0  0  0
 26 60  2  0  0  0  0
 27 28  2  0  0  0  0
 27 32  1  0  0  0  0
 27 84  1  0  0  0  0
 28 61  1  0  0  0  0
 28 65  1  0  0  0  0
 29 62  1  0  0  0  0
 29 66  1  0  0  0  0
 30 61  2  0  0  0  0
 30 68  1  0  0  0  0
 30 84  1  0  0  0  0
 31 67  1  0  0  0  0
 31 73  2  0  0  0  0
 32 69  1  0  0  0  0
 32 74  2  0  0  0  0
 33 48  1  0  0  0  0
 33 70  1  0  0  0  0
 33 75  2  0  0  0  0
 34 55  1  0  0  0  0
 34 56  1  0  0  0  0
 34 76  2  0  0  0  0
 35 57  1  0  0  0  0
 35 63  1  0  0  0  0
 35 77  2  0  0  0  0
 36 58  1  0  0  0  0
 36 71  1  0  0  0  0
 36 78  2  0  0  0  0
 37 64  1  0  0  0  0
 37 68  1  0  0  0  0
 37 79  2  0  0  0  0
 38 41  1  0  0  0  0
 39 48  1  0  0  0  0
 40 63  1  0  0  0  0
 41 43  1  0  0  0  0
 42 44  1  0  0  0  0
 42 45  1  0  0  0  0
 43 47  1  0  0  0  0
 44 49  1  0  0  0  0
 45 64  1  0  0  0  0
 46 49  1  0  0  0  0
 46 64  1  0  0  0  0
 47 70  1  0  0  0  0
 48 63  1  0  0  0  0
 49 62  1  0  0  0  0
 50 58  1  0  0  0  0
 51 59  1  0  0  0  0
 52 59  1  0  0  0  0
 53 59  1  0  0  0  0
 54 72  1  0  0  0  0
 55 69  1  0  0  0  0
 56 81  1  0  0  0  0
 57 59  1  0  0  0  0
 57 71  1  0  0  0  0
 58 72  1  0  0  0  0
 60 62  1  0  0  0  0
M  CHG  1  72   1
M  ISO  4  37 100  56 101  68 100  81 101
M  END
> <Batch ID>
0177

> <Smiles>
CNC(C)C(=O)NC(C(=O)N1Cc2cc([101O:1][101CH2:1]C(=O)CNC(=O)c3sc([100NH:0][100C:0](=O)N4CCCC(n5nc(-c6ccc(Oc7ccc(F)cc7F)cc6)c(C(N)=O)c5N)C4)nc3N)ccc2CC1C(=O)NC1CCCc2ccccc21)C(C)(C)C

> <Shape>
0.224

> <Color>
0.084

> <Negative vol penalty>
0.000

$$$$

  -OEChem-04052304413D

 87 95  0     1  0  0  0  0  0999 V2000
  -28.8274  -18.3396   18.7792 C   0  0  0  0  0  0  0  0  0  0  0  0
  -27.9943  -18.9279   19.7241 C   0  0  0  0  0  0  0  0  0  0  0  0
  -24.1356   -9.3892   20.8615 C   0  0  0  0  0  0  0  0  0  0  0  0
  -24.3743  -10.2702   23.0984 C   0  0  0  0  0  0  0  0  0  0  0  0
  -29.6944  -19.1323   18.0302 C   0  0  0  0  0  0  0  0  0  0  0  0
  -28.0195  -20.3103   19.9119 C   0  0  0  0  0  0  0  0  0  0  0  0
  -24.6272  -22.2191   22.9206 C   0  0  0  0  0  0  0  0  0  0  0  0
  -23.6913   -8.1758   21.3868 C   0  0  0  0  0  0  0  0  0  0  0  0
  -23.9300   -9.0568   23.6237 C   0  0  0  0  0  0  0  0  0  0  0  0
  -24.6665  -22.0510   24.3041 C   0  0  0  0  0  0  0  0  0  0  0  0
  -20.9796   -7.4736   24.0808 C   0  0  0  0  0  0  0  0  0  0  0  0
  -20.0354   -7.5201   25.1064 C   0  0  0  0  0  0  0  0  0  0  0  0
  -25.4790  -24.3091   24.5493 C   0  0  0  0  0  0  0  0  0  0  0  0
  -21.5684   -6.3605   26.5702 C   0  0  0  0  0  0  0  0  0  0  0  0
  -24.4772  -10.4364   21.7173 C   0  0  0  0  0  0  0  0  0  0  0  0
  -24.1501  -12.8024   20.8213 C   0  0  0  0  0  0  0  0  0  0  0  0
  -29.7385  -20.5236   18.2183 C   0  0  0  0  0  0  0  0  0  0  0  0
  -25.0245  -23.4319   22.3394 C   0  0  0  0  0  0  0  0  0  0  0  0
  -28.8705  -21.1301   19.1489 C   0  0  0  0  0  0  0  0  0  0  0  0
  -25.4414  -24.4909   23.1584 C   0  0  0  0  0  0  0  0  0  0  0  0
  -23.5885   -8.0096   22.7679 C   0  0  0  0  0  0  0  0  0  0  0  0
  -25.0952  -23.0951   25.1185 C   0  0  0  0  0  0  0  0  0  0  0  0
  -22.2182   -6.8705   24.2998 C   0  0  0  0  0  0  0  0  0  0  0  0
  -20.3298   -6.9636   26.3511 C   0  0  0  0  0  0  0  0  0  0  0  0
  -22.5126   -6.3140   25.5445 C   0  0  0  0  0  0  0  0  0  0  0  0
  -24.9367  -11.6899   21.1753 C   0  0  0  0  0  0  0  0  0  0  0  0
  -30.8558  -19.4057   23.6258 C   0  0  0  0  0  0  0  0  0  0  0  0
  -25.0533  -13.7290   20.3609 C   0  0  0  0  0  0  0  0  0  0  0  0
  -29.7129  -19.4668   24.3952 C   0  0  0  0  0  0  0  0  0  0  0  0
  -29.9128  -17.5395   22.9640 C   0  0  0  0  0  0  0  0  0  0  0  0
  -22.7299  -12.9821   20.9016 C   0  0  0  0  0  0  0  0  0  0  0  0
  -27.3138  -24.3052   20.3146 C   0  0  0  0  0  0  0  0  0  0  0  0
  -25.8067  -27.1741   20.4574 C   0  0  0  0  0  0  0  0  0  0  0  0
  -28.0590  -20.3717   26.0649 C   0  0  0  0  0  0  0  0  0  0  0  0
  -23.7777  -29.2975   22.1955 C   0  0  0  0  0  0  0  0  0  0  0  0
  -30.4058  -15.6487   21.3740 C   0  0  0  0  0  0  0  0  0  0  0  0
  -30.6904  -21.3347   17.3750 C   0  0  0  0  0  0  0  0  0  0  0  0
  -24.9508  -23.6063   20.8473 C   0  0  0  0  0  0  0  0  0  0  0  0
  -25.8591  -25.8197   22.5854 C   0  0  0  0  0  0  0  0  0  0  0  0
  -30.9632  -22.7199   17.9519 C   0  0  0  0  0  0  0  0  0  0  0  0
  -29.6784  -13.5187   18.6151 C   0  0  0  0  0  0  0  0  0  0  0  0
  -29.6506  -23.4052   18.3013 C   0  0  0  0  0  0  0  0  0  0  0  0
  -28.3046  -12.9379   18.9579 C   0  0  0  0  0  0  0  0  0  0  0  0
  -30.5503  -13.6846   19.8585 C   0  0  0  0  0  0  0  0  0  0  0  0
  -28.5579  -13.8613   21.2968 C   0  0  0  0  0  0  0  0  0  0  0  0
  -28.9024  -22.6282   19.3920 C   0  0  1  0  0  0  0  0  0  0  0  0
  -25.8670  -24.7105   20.3288 C   0  0  1  0  0  0  0  0  0  0  0  0
  -27.6203  -13.7364   20.0847 C   0  0  2  0  0  0  0  0  0  0  0  0
  -22.7559  -31.5863   22.0744 C   0  0  0  0  0  0  0  0  0  0  0  0
  -24.1789  -21.1688   27.7840 C   0  0  0  0  0  0  0  0  0  0  0  0
  -28.5001  -28.4121   21.1802 C   0  0  0  0  0  0  0  0  0  0  0  0
  -27.2747  -30.4508   21.9616 C   0  0  0  0  0  0  0  0  0  0  0  0
  -27.1339  -29.7530   19.5708 C   0  0  0  0  0  0  0  0  0  0  0  0
  -21.0296  -28.2005   22.2539 C   0  0  0  0  0  0  0  0  0  0  0  0
  -27.9388  -21.5959   26.9644 C   0  0  0  0  0  0  0  0  0  0  0  0
  -26.6586  -21.6219   27.8038 C   0  0  0  0  0  0  0  0  0  0  0  0
  -25.9226  -28.4003   21.3302 C   0  0  1  0  0  0  0  0  0  0  0  0
  -22.5672  -30.1084   21.7696 C   0  0  2  0  0  0  0  0  0  0  0  0
  -25.3789  -21.6153   26.9585 C   0  0  2  0  0  0  0  0  0  1  0  0
  -31.9449  -20.4038   23.6064 C   0  0  0  0  0  0  0  0  0  0  0  0
  -27.2019  -29.2285   21.0217 C   0  0  0  0  0  0  0  0  0  0  0  0
  -26.2394  -11.8894   20.9582 N   0  0  0  0  0  0  0  0  0  0  0  0
  -30.9724  -18.3010   22.8048 N   0  0  0  0  0  0  0  0  0  0  0  0
  -26.2783  -13.1381   20.4628 N   0  0  0  0  0  0  0  0  0  0  0  0
  -25.7755  -25.9390   21.1203 N   0  0  0  0  0  0  0  0  0  0  0  0
  -29.8385  -14.4545   20.8811 N   0  0  0  0  0  0  0  0  0  0  0  0
  -24.9112  -14.9834   19.8828 N   0  0  0  0  0  0  0  0  0  0  0  0
  -21.9501  -11.9290   21.3988 N   0  0  0  0  0  0  0  0  0  0  0  0
  -29.2431  -20.4157   25.3342 N   0  0  0  0  0  0  0  0  0  0  0  0
  -29.6233  -16.3116   22.3189 N   0  0  0  0  0  0  0  0  0  0  0  0
  -27.5775  -23.1878   19.5456 N   0  0  0  0  0  0  0  0  0  0  0  0
  -24.6767  -29.1404   21.1619 N   0  0  0  0  0  0  0  0  0  0  0  0
  -21.3482  -29.6333   22.4832 N   0  3  0  0  0  0  0  0  0  0  0  0
  -22.1673  -14.0391   20.5277 O   0  0  0  0  0  0  0  0  0  0  0  0
  -28.1307  -24.9588   20.9527 O   0  0  0  0  0  0  0  0  0  0  0  0
  -25.7388  -27.3075   19.2329 O   0  0  0  0  0  0  0  0  0  0  0  0
  -27.2074  -19.4891   26.0484 O   0  0  0  0  0  0  0  0  0  0  0  0
  -23.9141  -28.8514   23.3326 O   0  0  0  0  0  0  0  0  0  0  0  0
  -31.4922  -16.0676   20.9664 O   0  0  0  0  0  0  0  0  0  0  0  0
  -23.1548   -6.8258   23.2808 O   0  0  0  0  0  0  0  0  0  0  0  0
  -25.1352  -22.9334   26.4691 O   0  0  0  0  0  0  0  0  0  1  0  0
  -19.4236   -7.0097   27.3364 F   0  0  0  0  0  0  0  0  0  0  0  0
  -23.7012   -5.7344   25.7613 F   0  0  0  0  0  0  0  0  0  0  0  0
  -31.7474  -21.4668   24.4505 F   0  0  0  0  0  0  0  0  0  0  0  0
  -33.1705  -19.9035   23.9656 F   0  0  0  0  0  0  0  0  0  0  0  0
  -32.1402  -20.9648   22.3715 F   0  0  0  0  0  0  0  0  0  0  0  0
  -28.7363  -18.0915   24.0848 S   0  0  0  0  0  0  0  0  0  0  0  0
  1  2  1  0  0  0  0
  1  5  2  0  0  0  0
  2  6  2  0  0  0  0
  3  8  2  0  0  0  0
  3 15  1  0  0  0  0
  4  9  1  0  0  0  0
  4 15  2  0  0  0  0
  5 17  1  0  0  0  0
  6 19  1  0  0  0  0
  7 10  2  0  0  0  0
  7 18  1  0  0  0  0
  8 21  1  0  0  0  0
  9 21  2  0  0  0  0
 10 22  1  0  0  0  0
 11 12  2  0  0  0  0
 11 23  1  0  0  0  0
 12 24  1  0  0  0  0
 13 20  1  0  0  0  0
 13 22  2  0  0  0  0
 14 24  2  0  0  0  0
 14 25  1  0  0  0  0
 15 26  1  0  0  0  0
 16 26  1  0  0  0  0
 16 28  2  0  0  0  0
 16 31  1  0  0  0  0
 17 19  2  0  0  0  0
 17 37  1  0  0  0  0
 18 20  2  0  0  0  0
 18 38  1  0  0  0  0
 19 46  1  0  0  0  0
 20 39  1  0  0  0  0
 21 80  1  0  0  0  0
 22 81  1  0  0  0  0
 23 25  2  0  0  0  0
 23 80  1  0  0  0  0
 24 82  1  0  0  0  0
 25 83  1  0  0  0  0
 26 62  2  0  0  0  0
 27 29  2  0  0  0  0
 27 60  1  0  0  0  0
 27 63  1  0  0  0  0
 28 64  1  0  0  0  0
 28 67  1  0  0  0  0
 29 69  1  0  0  0  0
 29 87  1  0  0  0  0
 30 63  2  0  0  0  0
 30 70  1  0  0  0  0
 30 87  1  0  0  0  0
 31 68  1  0  0  0  0
 31 74  2  0  0  0  0
 32 47  1  0  0  0  0
 32 71  1  0  0  0  0
 32 75  2  0  0  0  0
 33 57  1  0  0  0  0
 33 65  1  0  0  0  0
 33 76  2  0  0  0  0
 34 55  1  0  0  0  0
 34 69  1  0  0  0  0
 34 77  2  0  0  0  0
 35 58  1  0  0  0  0
 35 72  1  0  0  0  0
 35 78  2  0  0  0  0
 36 66  1  0  0  0  0
 36 70  1  0  0  0  0
 36 79  2  0  0  0  0
 37 40  1  0  0  0  0
 38 47  1  0  0  0  0
 39 65  1  0  0  0  0
 40 42  1  0  0  0  0
 41 43  1  0  0  0  0
 41 44  1  0  0  0  0
 42 46  1  0  0  0  0
 43 48  1  0  0  0  0
 44 66  1  0  0  0  0
 45 48  1  0  0  0  0
 45 66  1  0  0  0  0
 46 71  1  0  0  0  0
 47 65  1  0  0  0  0
 48 64  1  0  0  0  0
 49 58  1  0  0  0  0
 50 59  1  0  0  0  0
 51 61  1  0  0  0  0
 52 61  1  0  0  0  0
 53 61  1  0  0  0  0
 54 73  1  0  0  0  0
 55 56  1  0  0  0  0
 56 59  1  0  0  0  0
 57 61  1  0  0  0  0
 57 72  1  0  0  0  0
 58 73  1  0  0  0  0
 59 81  1  0  0  0  0
 60 84  1  0  0  0  0
 60 85  1  0  0  0  0
 60 86  1  0  0  0  0
 62 64  1  0  0  0  0
M  CHG  1  73   1
M  ISO  4  36 100  59 101  70 100  81 101
M  END
> <Batch ID>
0177

> <Smiles>
CNC(C)C(=O)NC(C(=O)N1Cc2cc([101O:1][101CH:1](C)CCC(=O)Nc3sc([100NH:0][100C:0](=O)N4CCCC(n5nc(-c6ccc(Oc7ccc(F)cc7F)cc6)c(C(N)=O)c5N)C4)nc3C(F)(F)F)ccc2CC1C(=O)NC1CCCc2ccccc21)C(C)(C)C

> <Shape>
0.276

> <Color>
0.122

> <Negative vol penalty>
0.000

$$$$

  -OEChem-04052304413D

 88 96  0     1  0  0  0  0  0999 V2000
  -27.3535  -30.6603   28.3419 C   0  0  0  0  0  0  0  0  0  0  0  0
  -27.6568  -29.9474   27.1864 C   0  0  0  0  0  0  0  0  0  0  0  0
  -23.2419  -10.0073   22.2623 C   0  0  0  0  0  0  0  0  0  0  0  0
  -24.0752   -9.2962   20.1089 C   0  0  0  0  0  0  0  0  0  0  0  0
  -26.0230  -30.9044   28.6799 C   0  0  0  0  0  0  0  0  0  0  0  0
  -26.6298  -29.4772   26.3687 C   0  0  0  0  0  0  0  0  0  0  0  0
  -27.5231  -30.3105   21.4542 C   0  0  0  0  0  0  0  0  0  0  0  0
  -22.4035   -8.8934   22.3057 C   0  0  0  0  0  0  0  0  0  0  0  0
  -23.2369   -8.1822   20.1524 C   0  0  0  0  0  0  0  0  0  0  0  0
  -28.4157  -29.4515   20.8147 C   0  0  0  0  0  0  0  0  0  0  0  0
  -22.6775   -5.5952   22.9983 C   0  0  0  0  0  0  0  0  0  0  0  0
  -22.6179   -4.8749   24.1913 C   0  0  0  0  0  0  0  0  0  0  0  0
  -26.5588  -28.2210   19.8889 C   0  0  0  0  0  0  0  0  0  0  0  0
  -29.4728  -18.5118   18.2915 C   0  0  0  0  0  0  0  0  0  0  0  0
  -20.2487   -5.3229   24.3435 C   0  0  0  0  0  0  0  0  0  0  0  0
  -31.8204  -17.0047   18.3137 C   0  0  0  0  0  0  0  0  0  0  0  0
  -24.0777  -10.2088   21.1638 C   0  0  0  0  0  0  0  0  0  0  0  0
  -26.2635  -11.4500   21.5988 C   0  0  0  0  0  0  0  0  0  0  0  0
  -24.9794  -30.4453   27.8609 C   0  0  0  0  0  0  0  0  0  0  0  0
  -26.1392  -30.1244   21.3245 C   0  0  0  0  0  0  0  0  0  0  0  0
  -25.2841  -29.7143   26.6968 C   0  0  0  0  0  0  0  0  0  0  0  0
  -25.6507  -29.0806   20.5257 C   0  0  0  0  0  0  0  0  0  0  0  0
  -30.7026  -19.1394   18.4895 C   0  0  0  0  0  0  0  0  0  0  0  0
  -29.4167  -17.1306   18.1046 C   0  0  0  0  0  0  0  0  0  0  0  0
  -22.4010   -7.9808   21.2509 C   0  0  0  0  0  0  0  0  0  0  0  0
  -27.9336  -28.4048   20.0343 C   0  0  0  0  0  0  0  0  0  0  0  0
  -21.5227   -6.1794   22.4780 C   0  0  0  0  0  0  0  0  0  0  0  0
  -21.4036   -4.7387   24.8639 C   0  0  0  0  0  0  0  0  0  0  0  0
  -31.8764  -18.3859   18.5006 C   0  0  0  0  0  0  0  0  0  0  0  0
  -30.5905  -16.3771   18.1157 C   0  0  0  0  0  0  0  0  0  0  0  0
  -20.3083   -6.0433   23.1505 C   0  0  0  0  0  0  0  0  0  0  0  0
  -24.9435  -11.3596   21.1180 C   0  0  0  0  0  0  0  0  0  0  0  0
  -26.6434  -12.7398   21.3189 C   0  0  0  0  0  0  0  0  0  0  0  0
  -29.2332  -23.8215   18.9658 C   0  0  0  0  0  0  0  0  0  0  0  0
  -27.0739  -10.4567   22.2410 C   0  0  0  0  0  0  0  0  0  0  0  0
  -30.1611  -22.8495   18.9254 C   0  0  0  0  0  0  0  0  0  0  0  0
  -29.5454  -25.2669   19.1855 C   0  0  0  0  0  0  0  0  0  0  0  0
  -29.6953  -21.4366   18.6963 C   0  0  0  0  0  0  0  0  0  0  0  0
  -23.7635  -29.4846   23.3370 C   0  0  0  0  0  0  0  0  0  0  0  0
  -21.9279  -29.9396   20.7016 C   0  0  0  0  0  0  0  0  0  0  0  0
  -21.6980  -29.9449   17.2966 C   0  0  0  0  0  0  0  0  0  0  0  0
  -26.9093  -17.0983   17.8640 C   0  0  0  0  0  0  0  0  0  0  0  0
  -23.5555  -30.6928   28.2923 C   0  0  0  0  0  0  0  0  0  0  0  0
  -25.1896  -31.0759   21.9991 C   0  0  0  0  0  0  0  0  0  0  0  0
  -24.1742  -28.8502   20.3378 C   0  0  0  0  0  0  0  0  0  0  0  0
  -22.5357  -30.4838   27.1758 C   0  0  0  0  0  0  0  0  0  0  0  0
  -23.9196  -16.7107   19.7584 C   0  0  0  0  0  0  0  0  0  0  0  0
  -22.8159  -29.1806   26.4341 C   0  0  0  0  0  0  0  0  0  0  0  0
  -24.0280  -15.2914   20.3205 C   0  0  0  0  0  0  0  0  0  0  0  0
  -24.4887  -16.8055   18.3439 C   0  0  0  0  0  0  0  0  0  0  0  0
  -25.9657  -14.8764   18.7520 C   0  0  0  0  0  0  0  0  0  0  0  0
  -24.1984  -29.2093   25.7713 C   0  0  1  0  0  0  0  0  0  0  0  0
  -23.8008  -30.4821   22.2140 C   0  0  1  0  0  0  0  0  0  0  0  0
  -25.4643  -14.7456   20.1995 C   0  0  2  0  0  0  0  0  0  0  0  0
  -20.0590  -30.3187   15.4334 C   0  0  0  0  0  0  0  0  0  0  0  0
  -20.6902  -27.2041   21.2448 C   0  0  0  0  0  0  0  0  0  0  0  0
  -19.8010  -27.2191   18.9044 C   0  0  0  0  0  0  0  0  0  0  0  0
  -19.0620  -28.9622   20.5287 C   0  0  0  0  0  0  0  0  0  0  0  0
  -23.2708  -32.2046   16.2108 C   0  0  0  0  0  0  0  0  0  0  0  0
  -28.3700  -26.2208   19.2002 C   0  0  0  0  0  0  0  0  0  1  0  0
  -21.4094  -29.0545   19.5940 C   0  0  1  0  0  0  0  0  0  0  0  0
  -21.1108  -30.9558   16.3282 C   0  0  2  0  0  0  0  0  0  0  0  0
  -20.2685  -28.1129   20.0729 C   0  0  0  0  0  0  0  0  0  0  0  0
  -24.5136  -12.5012   20.5741 N   0  0  0  0  0  0  0  0  0  0  0  0
  -25.5695  -13.3212   20.7114 N   0  0  0  0  0  0  0  0  0  0  0  0
  -23.2858  -29.8035   21.0229 N   0  0  0  0  0  0  0  0  0  0  0  0
  -25.8530  -16.2742   18.3068 N   0  0  0  0  0  0  0  0  0  0  0  0
  -27.7878  -13.4222   21.5356 N   0  0  0  0  0  0  0  0  0  0  0  0
  -26.5282   -9.1830   22.4513 N   0  0  0  0  0  0  0  0  0  0  0  0
  -30.7567  -20.5414   18.6786 N   0  0  0  0  0  0  0  0  0  0  0  0
  -28.1661  -16.4956   17.9032 N   0  0  0  0  0  0  0  0  0  0  0  0
  -24.1609  -29.9965   24.5575 N   0  0  0  0  0  0  0  0  0  0  0  0
  -21.0302  -29.9457   18.5029 N   0  0  0  0  0  0  0  0  0  0  0  0
  -22.1814  -31.5262   15.4625 N   0  3  0  0  0  0  0  0  0  0  0  0
  -28.2415  -10.6966   22.6319 O   0  0  0  0  0  0  0  0  0  0  0  0
  -30.6893  -25.6685   19.3826 O   0  0  0  0  0  0  0  0  0  0  0  0
  -28.5057  -21.1762   18.5507 O   0  0  0  0  0  0  0  0  0  0  0  0
  -23.3997  -28.3360   23.1132 O   0  0  0  0  0  0  0  0  0  0  0  0
  -21.1581  -30.7280   21.2562 O   0  0  0  0  0  0  0  0  0  0  0  0
  -22.6512  -29.2239   17.0101 O   0  0  0  0  0  0  0  0  0  0  0  0
  -26.7170  -18.2625   17.5041 O   0  0  0  0  0  0  0  0  0  0  0  0
  -31.5168  -23.0509   19.0754 O   0  0  0  0  0  0  0  0  0  0  0  0
  -21.5833   -6.8936   21.2931 O   0  0  0  0  0  0  0  0  0  0  0  0
  -28.8027  -27.5644   19.4095 O   0  0  0  0  0  0  0  0  0  1  0  0
  -21.3462   -4.0457   26.0087 F   0  0  0  0  0  0  0  0  0  0  0  0
  -33.0641  -18.9782   18.6900 F   0  0  0  0  0  0  0  0  0  0  0  0
  -30.5490  -15.0490   17.9372 F   0  0  0  0  0  0  0  0  0  0  0  0
  -19.1953   -6.6013   22.6549 F   0  0  0  0  0  0  0  0  0  0  0  0
  1  2  1  0  0  0  0
  1  5  2  0  0  0  0
  2  6  2  0  0  0  0
  3  8  2  0  0  0  0
  3 17  1  0  0  0  0
  4  9  1  0  0  0  0
  4 17  2  0  0  0  0
  5 19  1  0  0  0  0
  6 21  1  0  0  0  0
  7 10  2  0  0  0  0
  7 20  1  0  0  0  0
  8 25  1  0  0  0  0
  9 25  2  0  0  0  0
 10 26  1  0  0  0  0
 11 12  2  0  0  0  0
 11 27  1  0  0  0  0
 12 28  1  0  0  0  0
 13 22  1  0  0  0  0
 13 26  2  0  0  0  0
 14 23  1  0  0  0  0
 14 24  2  0  0  0  0
 15 28  2  0  0  0  0
 15 31  1  0  0  0  0
 16 29  1  0  0  0  0
 16 30  2  0  0  0  0
 17 32  1  0  0  0  0
 18 32  1  0  0  0  0
 18 33  2  0  0  0  0
 18 35  1  0  0  0  0
 19 21  2  0  0  0  0
 19 43  1  0  0  0  0
 20 22  2  0  0  0  0
 20 44  1  0  0  0  0
 21 52  1  0  0  0  0
 22 45  1  0  0  0  0
 23 29  2  0  0  0  0
 23 70  1  0  0  0  0
 24 30  1  0  0  0  0
 24 71  1  0  0  0  0
 25 83  1  0  0  0  0
 26 84  1  0  0  0  0
 27 31  2  0  0  0  0
 27 83  1  0  0  0  0
 28 85  1  0  0  0  0
 29 86  1  0  0  0  0
 30 87  1  0  0  0  0
 31 88  1  0  0  0  0
 32 64  2  0  0  0  0
 33 65  1  0  0  0  0
 33 68  1  0  0  0  0
 34 36  2  0  0  0  0
 34 37  1  0  0  0  0
 35 69  1  0  0  0  0
 35 75  2  0  0  0  0
 36 38  1  0  0  0  0
 36 82  1  0  0  0  0
 37 60  1  0  0  0  0
 37 76  2  0  0  0  0
 38 70  1  0  0  0  0
 38 77  2  0  0  0  0
 39 53  1  0  0  0  0
 39 72  1  0  0  0  0
 39 78  2  0  0  0  0
 40 61  1  0  0  0  0
 40 66  1  0  0  0  0
 40 79  2  0  0  0  0
 41 62  1  0  0  0  0
 41 73  1  0  0  0  0
 41 80  2  0  0  0  0
 42 67  1  0  0  0  0
 42 71  1  0  0  0  0
 42 81  2  0  0  0  0
 43 46  1  0  0  0  0
 44 53  1  0  0  0  0
 45 66  1  0  0  0  0
 46 48  1  0  0  0  0
 47 49  1  0  0  0  0
 47 50  1  0  0  0  0
 48 52  1  0  0  0  0
 49 54  1  0  0  0  0
 50 67  1  0  0  0  0
 51 54  1  0  0  0  0
 51 67  1  0  0  0  0
 52 72  1  0  0  0  0
 53 66  1  0  0  0  0
 54 65  1  0  0  0  0
 55 62  1  0  0  0  0
 56 63  1  0  0  0  0
 57 63  1  0  0  0  0
 58 63  1  0  0  0  0
 59 74  1  0  0  0  0
 60 84  1  0  0  0  0
 61 63  1  0  0  0  0
 61 73  1  0  0  0  0
 62 74  1  0  0  0  0
 64 65  1  0  0  0  0
M  CHG  1  74   1
M  ISO  4  42 100  60 101  71 100  84 101
M  END
> <Batch ID>
0177

> <Smiles>
CNC(C)C(=O)NC(C(=O)N1Cc2cc([101O:1][101CH2:1]C(=O)CC(=O)C(=O)Nc3cc([100NH:0][100C:0](=O)N4CCCC(n5nc(-c6ccc(Oc7ccc(F)cc7F)cc6)c(C(N)=O)c5N)C4)c(F)cc3F)ccc2CC1C(=O)NC1CCCc2ccccc21)C(C)(C)C

> <Shape>
0.265

> <Color>
0.128

> <Negative vol penalty>
0.000

$$$$
