
  -OEChem-04052304443D

 87 95  0     1  0  0  0  0  0999 V2000
  -20.4675  -26.7572   29.8776 C   0  0  0  0  0  0  0  0  0  0  0  0
  -20.9594  -26.1108   28.7482 C   0  0  0  0  0  0  0  0  0  0  0  0
  -23.0004   -9.8940   19.9810 C   0  0  0  0  0  0  0  0  0  0  0  0
  -23.7259   -9.9444   22.2850 C   0  0  0  0  0  0  0  0  0  0  0  0
  -21.3198  -27.5331   30.6621 C   0  0  0  0  0  0  0  0  0  0  0  0
  -22.3039  -26.2408   28.4020 C   0  0  0  0  0  0  0  0  0  0  0  0
  -24.4128  -21.8225   27.1075 C   0  0  0  0  0  0  0  0  0  0  0  0
  -22.2337   -8.7596   20.2472 C   0  0  0  0  0  0  0  0  0  0  0  0
  -22.9592   -8.8100   22.5512 C   0  0  0  0  0  0  0  0  0  0  0  0
  -24.1383  -21.3360   25.8301 C   0  0  0  0  0  0  0  0  0  0  0  0
  -23.2028   -5.4711   22.0786 C   0  0  0  0  0  0  0  0  0  0  0  0
  -23.7903   -4.4536   22.8304 C   0  0  0  0  0  0  0  0  0  0  0  0
  -26.2738  -22.1570   25.0652 C   0  0  0  0  0  0  0  0  0  0  0  0
  -32.0608  -16.5305   22.5475 C   0  0  0  0  0  0  0  0  0  0  0  0
  -22.0667   -4.6965   24.5059 C   0  0  0  0  0  0  0  0  0  0  0  0
  -31.8981  -18.3255   24.1564 C   0  0  0  0  0  0  0  0  0  0  0  0
  -23.7466  -10.4864   20.9999 C   0  0  0  0  0  0  0  0  0  0  0  0
  -24.1323  -13.0019   20.8244 C   0  0  0  0  0  0  0  0  0  0  0  0
  -22.6776  -27.6649   30.3307 C   0  0  0  0  0  0  0  0  0  0  0  0
  -25.6171  -22.4906   27.3712 C   0  0  0  0  0  0  0  0  0  0  0  0
  -23.1750  -27.0203   29.1820 C   0  0  0  0  0  0  0  0  0  0  0  0
  -26.5622  -22.6488   26.3475 C   0  0  0  0  0  0  0  0  0  0  0  0
  -30.6756  -16.5501   22.3856 C   0  0  0  0  0  0  0  0  0  0  0  0
  -29.9016  -17.4574   23.1090 C   0  0  0  0  0  0  0  0  0  0  0  0
  -22.2130   -8.2176   21.5323 C   0  0  0  0  0  0  0  0  0  0  0  0
  -25.0676  -21.5057   24.8080 C   0  0  0  0  0  0  0  0  0  0  0  0
  -22.0473   -6.1014   22.5404 C   0  0  0  0  0  0  0  0  0  0  0  0
  -23.2222   -4.0663   24.0440 C   0  0  0  0  0  0  0  0  0  0  0  0
  -32.6721  -17.4182   23.4330 C   0  0  0  0  0  0  0  0  0  0  0  0
  -30.5128  -18.3451   23.9945 C   0  0  0  0  0  0  0  0  0  0  0  0
  -21.4792   -5.7140   23.7541 C   0  0  0  0  0  0  0  0  0  0  0  0
  -24.5392  -11.6579   20.7254 C   0  0  0  0  0  0  0  0  0  0  0  0
  -25.2422  -13.7244   20.4600 C   0  0  0  0  0  0  0  0  0  0  0  0
  -22.8645  -13.5485   21.2112 C   0  0  0  0  0  0  0  0  0  0  0  0
  -26.1612  -17.7740   23.4051 C   0  0  0  0  0  0  0  0  0  0  0  0
  -27.5709  -17.8549   23.9176 C   0  0  0  0  0  0  0  0  0  0  0  0
  -26.3941  -25.4214   28.3255 C   0  0  0  0  0  0  0  0  0  0  0  0
  -29.3867  -24.1739   28.4270 C   0  0  0  0  0  0  0  0  0  0  0  0
  -31.5755  -21.8011   27.3200 C   0  0  0  0  0  0  0  0  0  0  0  0
  -30.7218  -14.6844   20.6934 C   0  0  0  0  0  0  0  0  0  0  0  0
  -23.5499  -28.5527   31.1826 C   0  0  0  0  0  0  0  0  0  0  0  0
  -25.9095  -22.9859   28.7610 C   0  0  0  0  0  0  0  0  0  0  0  0
  -27.8788  -23.3410   26.5837 C   0  0  0  0  0  0  0  0  0  0  0  0
  -25.0440  -28.3355   30.9574 C   0  0  0  0  0  0  0  0  0  0  0  0
  -29.6028  -12.2322   18.3671 C   0  0  0  0  0  0  0  0  0  0  0  0
  -25.3573  -28.2863   29.4653 C   0  0  0  0  0  0  0  0  0  0  0  0
  -28.1522  -11.9748   18.7814 C   0  0  0  0  0  0  0  0  0  0  0  0
  -30.5035  -12.4752   19.5768 C   0  0  0  0  0  0  0  0  0  0  0  0
  -28.5885  -13.2642   20.9107 C   0  0  0  0  0  0  0  0  0  0  0  0
  -24.6328  -27.1170   28.7877 C   0  0  1  0  0  0  0  0  0  0  0  0
  -26.9470  -24.1041   28.7909 C   0  0  1  0  0  0  0  0  0  0  0  0
  -27.6306  -13.0782   19.7226 C   0  0  2  0  0  0  0  0  0  0  0  0
  -33.9616  -21.0600   27.5535 C   0  0  0  0  0  0  0  0  0  0  0  0
  -30.2772  -26.4896   26.6510 C   0  0  0  0  0  0  0  0  0  0  0  0
  -32.3691  -25.2088   26.1491 C   0  0  0  0  0  0  0  0  0  0  0  0
  -31.8709  -25.9126   28.4899 C   0  0  0  0  0  0  0  0  0  0  0  0
  -30.7721  -19.1560   28.3770 C   0  0  0  0  0  0  0  0  0  0  0  0
  -25.8185  -18.6539   22.2245 C   0  0  0  0  0  0  0  0  0  0  0  0
  -24.3579  -19.0942   22.2169 C   0  0  0  0  0  0  0  0  0  0  0  0
  -23.9718  -19.8755   23.4673 C   0  0  0  0  0  0  0  0  0  1  0  0
  -30.5252  -24.0451   27.4441 C   0  0  1  0  0  0  0  0  0  0  0  0
  -32.5387  -20.8938   28.0639 C   0  0  2  0  0  0  0  0  0  0  0  0
  -31.2350  -25.4027   27.1783 C   0  0  0  0  0  0  0  0  0  0  0  0
  -25.8084  -11.5312   20.3290 N   0  0  0  0  0  0  0  0  0  0  0  0
  -26.2086  -12.8050   20.1756 N   0  0  0  0  0  0  0  0  0  0  0  0
  -28.1156  -23.8132   27.9579 N   0  0  0  0  0  0  0  0  0  0  0  0
  -29.9488  -13.5361   20.4204 N   0  0  0  0  0  0  0  0  0  0  0  0
  -25.4759  -15.0501   20.3581 N   0  0  0  0  0  0  0  0  0  0  0  0
  -21.8326  -12.6645   21.5547 N   0  0  0  0  0  0  0  0  0  0  0  0
  -28.4953  -17.4933   22.9613 N   0  0  0  0  0  0  0  0  0  0  0  0
  -30.0779  -15.6396   21.4792 N   0  0  0  0  0  0  0  0  0  0  0  0
  -25.3158  -25.8712   29.0634 N   0  0  0  0  0  0  0  0  0  0  0  0
  -31.4026  -23.0049   27.9698 N   0  0  0  0  0  0  0  0  0  0  0  0
  -32.1423  -19.4672   27.8945 N   0  3  0  0  0  0  0  0  0  0  0  0
  -22.6480  -14.7838   21.2352 O   0  0  0  0  0  0  0  0  0  0  0  0
  -25.4047  -16.9964   23.9673 O   0  0  0  0  0  0  0  0  0  0  0  0
  -27.7094  -18.1925   25.0817 O   0  0  0  0  0  0  0  0  0  0  0  0
  -26.9086  -25.9884   27.3687 O   0  0  0  0  0  0  0  0  0  0  0  0
  -29.6178  -24.5728   29.5712 O   0  0  0  0  0  0  0  0  0  0  0  0
  -31.0337  -21.4760   26.2658 O   0  0  0  0  0  0  0  0  0  0  0  0
  -31.8605  -14.8232   20.2392 O   0  0  0  0  0  0  0  0  0  0  0  0
  -21.4648   -7.1108   21.7925 O   0  0  0  0  0  0  0  0  0  0  0  0
  -24.8020  -21.0324   23.5601 O   0  0  0  0  0  0  0  0  0  1  0  0
  -23.7856   -3.0882   24.7652 F   0  0  0  0  0  0  0  0  0  0  0  0
  -34.0026  -17.4002   23.5878 F   0  0  0  0  0  0  0  0  0  0  0  0
  -29.7803  -19.2222   24.6957 F   0  0  0  0  0  0  0  0  0  0  0  0
  -20.3685   -6.3150   24.2024 F   0  0  0  0  0  0  0  0  0  0  0  0
  1  2  1  0  0  0  0
  1  5  2  0  0  0  0
  2  6  2  0  0  0  0
  3  8  2  0  0  0  0
  3 17  1  0  0  0  0
  4  9  1  0  0  0  0
  4 17  2  0  0  0  0
  5 19  1  0  0  0  0
  6 21  1  0  0  0  0
  7 10  2  0  0  0  0
  7 20  1  0  0  0  0
  8 25  1  0  0  0  0
  9 25  2  0  0  0  0
 10 26  1  0  0  0  0
 11 12  2  0  0  0  0
 11 27  1  0  0  0  0
 12 28  1  0  0  0  0
 13 22  1  0  0  0  0
 13 26  2  0  0  0  0
 14 23  1  0  0  0  0
 14 29  2  0  0  0  0
 15 28  2  0  0  0  0
 15 31  1  0  0  0  0
 16 29  1  0  0  0  0
 16 30  2  0  0  0  0
 17 32  1  0  0  0  0
 18 32  1  0  0  0  0
 18 33  2  0  0  0  0
 18 34  1  0  0  0  0
 19 21  2  0  0  0  0
 19 41  1  0  0  0  0
 20 22  2  0  0  0  0
 20 42  1  0  0  0  0
 21 50  1  0  0  0  0
 22 43  1  0  0  0  0
 23 24  2  0  0  0  0
 23 71  1  0  0  0  0
 24 30  1  0  0  0  0
 24 70  1  0  0  0  0
 25 82  1  0  0  0  0
 26 83  1  0  0  0  0
 27 31  2  0  0  0  0
 27 82  1  0  0  0  0
 28 84  1  0  0  0  0
 29 85  1  0  0  0  0
 30 86  1  0  0  0  0
 31 87  1  0  0  0  0
 32 64  2  0  0  0  0
 33 65  1  0  0  0  0
 33 68  1  0  0  0  0
 34 69  1  0  0  0  0
 34 75  2  0  0  0  0
 35 36  1  0  0  0  0
 35 58  1  0  0  0  0
 35 76  2  0  0  0  0
 36 70  1  0  0  0  0
 36 77  2  0  0  0  0
 37 51  1  0  0  0  0
 37 72  1  0  0  0  0
 37 78  2  0  0  0  0
 38 61  1  0  0  0  0
 38 66  1  0  0  0  0
 38 79  2  0  0  0  0
 39 62  1  0  0  0  0
 39 73  1  0  0  0  0
 39 80  2  0  0  0  0
 40 67  1  0  0  0  0
 40 71  1  0  0  0  0
 40 81  2  0  0  0  0
 41 44  1  0  0  0  0
 42 51  1  0  0  0  0
 43 66  1  0  0  0  0
 44 46  1  0  0  0  0
 45 47  1  0  0  0  0
 45 48  1  0  0  0  0
 46 50  1  0  0  0  0
 47 52  1  0  0  0  0
 48 67  1  0  0  0  0
 49 52  1  0  0  0  0
 49 67  1  0  0  0  0
 50 72  1  0  0  0  0
 51 66  1  0  0  0  0
 52 65  1  0  0  0  0
 53 62  1  0  0  0  0
 54 63  1  0  0  0  0
 55 63  1  0  0  0  0
 56 63  1  0  0  0  0
 57 74  1  0  0  0  0
 58 59  1  0  0  0  0
 59 60  1  0  0  0  0
 60 83  1  0  0  0  0
 61 63  1  0  0  0  0
 61 73  1  0  0  0  0
 62 74  1  0  0  0  0
 64 65  1  0  0  0  0
M  CHG  1  74   1
M  ISO  4  40 100  60 101  71 100  83 101
M  END
> <Batch ID>
0178

> <Smiles>
CNC(C)C(=O)NC(C(=O)N1Cc2cc([101O:1][101CH2:1]CCC(=O)C(=O)Nc3c(F)cc(F)cc3[100NH:0][100C:0](=O)N3CCCC(n4nc(-c5ccc(Oc6ccc(F)cc6F)cc5)c(C(N)=O)c4N)C3)ccc2CC1C(=O)NC1CCCc2ccccc21)C(C)(C)C

> <Shape>
0.171

> <Color>
0.193

> <Negative vol penalty>
0.000

$$$$

  -OEChem-04052304443D

 86 94  0     1  0  0  0  0  0999 V2000
  -29.6160  -35.8043   20.9134 C   0  0  0  0  0  0  0  0  0  0  0  0
  -29.6541  -34.4148   20.9713 C   0  0  0  0  0  0  0  0  0  0  0  0
  -24.8565   -8.7247   21.0592 C   0  0  0  0  0  0  0  0  0  0  0  0
  -23.1627  -10.0643   19.9758 C   0  0  0  0  0  0  0  0  0  0  0  0
  -28.6135  -36.5017   21.5862 C   0  0  0  0  0  0  0  0  0  0  0  0
  -28.6903  -33.7219   21.7031 C   0  0  0  0  0  0  0  0  0  0  0  0
  -26.8646  -29.7132   19.2047 C   0  0  0  0  0  0  0  0  0  0  0  0
  -23.8785   -7.8171   21.4660 C   0  0  0  0  0  0  0  0  0  0  0  0
  -22.1847   -9.1568   20.3826 C   0  0  0  0  0  0  0  0  0  0  0  0
  -27.6567  -28.5663   19.1756 C   0  0  0  0  0  0  0  0  0  0  0  0
  -21.5278   -7.6074   23.8857 C   0  0  0  0  0  0  0  0  0  0  0  0
  -21.5722   -7.1559   25.2047 C   0  0  0  0  0  0  0  0  0  0  0  0
  -26.3226  -27.6075   20.9420 C   0  0  0  0  0  0  0  0  0  0  0  0
  -27.7292  -19.4594   17.9765 C   0  0  0  0  0  0  0  0  0  0  0  0
  -21.8242   -4.8852   24.4190 C   0  0  0  0  0  0  0  0  0  0  0  0
  -27.6419  -18.8221   15.2620 C   0  0  0  0  0  0  0  0  0  0  0  0
  -24.4986   -9.8483   20.3141 C   0  0  0  0  0  0  0  0  0  0  0  0
  -26.2504  -10.7578   18.6981 C   0  0  0  0  0  0  0  0  0  0  0  0
  -27.6313  -35.8165   22.3186 C   0  0  0  0  0  0  0  0  0  0  0  0
  -25.8005  -29.8206   20.1116 C   0  0  0  0  0  0  0  0  0  0  0  0
  -27.6745  -34.4109   22.3874 C   0  0  0  0  0  0  0  0  0  0  0  0
  -25.5170  -28.7558   20.9788 C   0  0  0  0  0  0  0  0  0  0  0  0
  -27.6490  -20.4752   17.0239 C   0  0  0  0  0  0  0  0  0  0  0  0
  -27.7659  -18.1250   17.5719 C   0  0  0  0  0  0  0  0  0  0  0  0
  -22.5426   -8.0332   21.1277 C   0  0  0  0  0  0  0  0  0  0  0  0
  -27.3876  -27.5144   20.0463 C   0  0  0  0  0  0  0  0  0  0  0  0
  -21.6315   -6.6978   22.8333 C   0  0  0  0  0  0  0  0  0  0  0  0
  -21.7204   -5.7948   25.4714 C   0  0  0  0  0  0  0  0  0  0  0  0
  -27.6053  -20.1565   15.6666 C   0  0  0  0  0  0  0  0  0  0  0  0
  -27.7222  -17.8064   16.2146 C   0  0  0  0  0  0  0  0  0  0  0  0
  -21.7797   -5.3367   23.0999 C   0  0  0  0  0  0  0  0  0  0  0  0
  -25.5083  -10.7864   19.8940 C   0  0  0  0  0  0  0  0  0  0  0  0
  -27.0694  -11.8577   18.7758 C   0  0  0  0  0  0  0  0  0  0  0  0
  -26.2036   -9.8209   17.6138 C   0  0  0  0  0  0  0  0  0  0  0  0
  -27.5929  -23.7986   18.7872 C   0  0  0  0  0  0  0  0  0  0  0  0
  -27.6536  -22.2994   18.7311 C   0  0  0  0  0  0  0  0  0  0  0  0
  -25.0980  -31.7660   22.5252 C   0  0  0  0  0  0  0  0  0  0  0  0
  -22.2962  -30.1314   22.5159 C   0  0  0  0  0  0  0  0  0  0  0  0
  -20.6122  -27.2730   21.7153 C   0  0  0  0  0  0  0  0  0  0  0  0
  -27.8982  -17.2419   19.9275 C   0  0  0  0  0  0  0  0  0  0  0  0
  -26.5951  -36.6159   23.0682 C   0  0  0  0  0  0  0  0  0  0  0  0
  -24.9390  -31.0535   20.1121 C   0  0  0  0  0  0  0  0  0  0  0  0
  -24.3737  -28.8131   21.9576 C   0  0  0  0  0  0  0  0  0  0  0  0
  -25.3921  -35.7883   23.5133 C   0  0  0  0  0  0  0  0  0  0  0  0
  -28.0641  -14.9565   22.6527 C   0  0  0  0  0  0  0  0  0  0  0  0
  -25.8502  -34.4809   24.1517 C   0  0  0  0  0  0  0  0  0  0  0  0
  -27.4750  -13.6655   22.0795 C   0  0  0  0  0  0  0  0  0  0  0  0
  -27.3497  -16.1943   22.1131 C   0  0  0  0  0  0  0  0  0  0  0  0
  -26.6769  -14.9831   20.0760 C   0  0  0  0  0  0  0  0  0  0  0  0
  -26.6323  -33.6224   23.1503 C   0  0  1  0  0  0  0  0  0  0  0  0
  -24.1997  -31.2654   21.4297 C   0  0  1  0  0  0  0  0  0  0  0  0
  -27.4065  -13.7120   20.5405 C   0  0  2  0  0  0  0  0  0  0  0  0
  -18.3407  -26.2172   21.8657 C   0  0  0  0  0  0  0  0  0  0  0  0
  -22.7488  -29.5860   25.4837 C   0  0  0  0  0  0  0  0  0  0  0  0
  -21.0118  -27.7881   25.3469 C   0  0  0  0  0  0  0  0  0  0  0  0
  -20.3913  -30.1579   24.8758 C   0  0  0  0  0  0  0  0  0  0  0  0
  -20.3899  -27.0572   18.7720 C   0  0  0  0  0  0  0  0  0  0  0  0
  -28.9156  -24.5280   18.7013 C   0  0  0  0  0  0  0  0  0  0  0  0
  -28.7463  -26.0382   18.7692 C   0  0  0  0  0  0  0  0  0  1  0  0
  -21.7842  -28.8836   23.1941 C   0  0  1  0  0  0  0  0  0  0  0  0
  -19.2855  -27.0489   21.0123 C   0  0  2  0  0  0  0  0  0  0  0  0
  -21.5068  -29.1033   24.7081 C   0  0  0  0  0  0  0  0  0  0  0  0
  -25.8278  -11.8223   20.6744 N   0  0  0  0  0  0  0  0  0  0  0  0
  -26.7797  -12.4547   19.9674 N   0  0  0  0  0  0  0  0  0  0  0  0
  -23.5641  -30.0424   21.9241 N   0  0  0  0  0  0  0  0  0  0  0  0
  -27.3272  -16.1721   20.6489 N   0  0  0  0  0  0  0  0  0  0  0  0
  -28.0021  -12.3626   17.9406 N   0  0  0  0  0  0  0  0  0  0  0  0
  -25.3044   -8.7489   17.6955 N   0  0  0  0  0  0  0  0  0  0  0  0
  -27.6116  -21.8273   17.4370 N   0  0  0  0  0  0  0  0  0  0  0  0
  -27.8470  -17.0952   18.5417 N   0  0  0  0  0  0  0  0  0  0  0  0
  -25.7264  -32.9620   22.2351 N   0  0  0  0  0  0  0  0  0  0  0  0
  -20.6188  -28.4524   22.4296 N   0  0  0  0  0  0  0  0  0  0  0  0
  -19.4980  -26.3397   19.7189 N   0  3  0  0  0  0  0  0  0  0  0  0
  -26.9489   -9.9219   16.6099 O   0  0  0  0  0  0  0  0  0  0  0  0
  -26.4880  -24.3105   18.8856 O   0  0  0  0  0  0  0  0  0  0  0  0
  -27.7552  -21.7166   19.7978 O   0  0  0  0  0  0  0  0  0  0  0  0
  -25.2113  -31.1162   23.5579 O   0  0  0  0  0  0  0  0  0  0  0  0
  -21.5939  -31.1454   22.5052 O   0  0  0  0  0  0  0  0  0  0  0  0
  -21.5477  -26.4793   21.6413 O   0  0  0  0  0  0  0  0  0  0  0  0
  -28.4202  -18.2035   20.4974 O   0  0  0  0  0  0  0  0  0  0  0  0
  -21.5880   -7.1477   21.5243 O   0  0  0  0  0  0  0  0  0  0  0  0
  -28.1596  -26.3940   20.0205 O   0  0  0  0  0  0  0  0  0  1  0  0
  -21.7646   -5.3616   26.7380 F   0  0  0  0  0  0  0  0  0  0  0  0
  -27.5281  -21.1242   14.7420 F   0  0  0  0  0  0  0  0  0  0  0  0
  -27.7568  -16.5275   15.8138 F   0  0  0  0  0  0  0  0  0  0  0  0
  -21.8810   -4.4582   22.0931 F   0  0  0  0  0  0  0  0  0  0  0  0
  1  2  1  0  0  0  0
  1  5  2  0  0  0  0
  2  6  2  0  0  0  0
  3  8  2  0  0  0  0
  3 17  1  0  0  0  0
  4  9  1  0  0  0  0
  4 17  2  0  0  0  0
  5 19  1  0  0  0  0
  6 21  1  0  0  0  0
  7 10  2  0  0  0  0
  7 20  1  0  0  0  0
  8 25  1  0  0  0  0
  9 25  2  0  0  0  0
 10 26  1  0  0  0  0
 11 12  2  0  0  0  0
 11 27  1  0  0  0  0
 12 28  1  0  0  0  0
 13 22  1  0  0  0  0
 13 26  2  0  0  0  0
 14 23  1  0  0  0  0
 14 24  2  0  0  0  0
 15 28  2  0  0  0  0
 15 31  1  0  0  0  0
 16 29  1  0  0  0  0
 16 30  2  0  0  0  0
 17 32  1  0  0  0  0
 18 32  1  0  0  0  0
 18 33  2  0  0  0  0
 18 34  1  0  0  0  0
 19 21  2  0  0  0  0
 19 41  1  0  0  0  0
 20 22  2  0  0  0  0
 20 42  1  0  0  0  0
 21 50  1  0  0  0  0
 22 43  1  0  0  0  0
 23 29  2  0  0  0  0
 23 69  1  0  0  0  0
 24 30  1  0  0  0  0
 24 70  1  0  0  0  0
 25 81  1  0  0  0  0
 26 82  1  0  0  0  0
 27 31  2  0  0  0  0
 27 81  1  0  0  0  0
 28 83  1  0  0  0  0
 29 84  1  0  0  0  0
 30 85  1  0  0  0  0
 31 86  1  0  0  0  0
 32 63  2  0  0  0  0
 33 64  1  0  0  0  0
 33 67  1  0  0  0  0
 34 68  1  0  0  0  0
 34 74  2  0  0  0  0
 35 36  1  0  0  0  0
 35 58  1  0  0  0  0
 35 75  2  0  0  0  0
 36 69  1  0  0  0  0
 36 76  2  0  0  0  0
 37 51  1  0  0  0  0
 37 71  1  0  0  0  0
 37 77  2  0  0  0  0
 38 60  1  0  0  0  0
 38 65  1  0  0  0  0
 38 78  2  0  0  0  0
 39 61  1  0  0  0  0
 39 72  1  0  0  0  0
 39 79  2  0  0  0  0
 40 66  1  0  0  0  0
 40 70  1  0  0  0  0
 40 80  2  0  0  0  0
 41 44  1  0  0  0  0
 42 51  1  0  0  0  0
 43 65  1  0  0  0  0
 44 46  1  0  0  0  0
 45 47  1  0  0  0  0
 45 48  1  0  0  0  0
 46 50  1  0  0  0  0
 47 52  1  0  0  0  0
 48 66  1  0  0  0  0
 49 52  1  0  0  0  0
 49 66  1  0  0  0  0
 50 71  1  0  0  0  0
 51 65  1  0  0  0  0
 52 64  1  0  0  0  0
 53 61  1  0  0  0  0
 54 62  1  0  0  0  0
 55 62  1  0  0  0  0
 56 62  1  0  0  0  0
 57 73  1  0  0  0  0
 58 59  1  0  0  0  0
 59 82  1  0  0  0  0
 60 62  1  0  0  0  0
 60 72  1  0  0  0  0
 61 73  1  0  0  0  0
 63 64  1  0  0  0  0
M  CHG  1  73   1
M  ISO  4  40 100  59 101  70 100  82 101
M  END
> <Batch ID>
0178

> <Smiles>
CNC(C)C(=O)NC(C(=O)N1Cc2cc([101O:1][101CH2:1]CC(=O)C(=O)Nc3cc([100NH:0][100C:0](=O)N4CCCC(n5nc(-c6ccc(Oc7ccc(F)cc7F)cc6)c(C(N)=O)c5N)C4)c(F)cc3F)ccc2CC1C(=O)NC1CCCc2ccccc21)C(C)(C)C

> <Shape>
0.309

> <Color>
0.109

> <Negative vol penalty>
0.000

$$$$

  -OEChem-04052304443D

 86 94  0     1  0  0  0  0  0999 V2000
  -26.0877  -23.1522   20.5607 C   0  0  0  0  0  0  0  0  0  0  0  0
  -25.9752  -24.0493   21.6180 C   0  0  0  0  0  0  0  0  0  0  0  0
  -28.1125  -14.7095   21.1240 C   0  0  0  0  0  0  0  0  0  0  0  0
  -25.9273  -15.4027   20.3612 C   0  0  0  0  0  0  0  0  0  0  0  0
  -27.0443  -23.3623   19.5684 C   0  0  0  0  0  0  0  0  0  0  0  0
  -26.8201  -25.1566   21.6842 C   0  0  0  0  0  0  0  0  0  0  0  0
  -23.4769  -27.9431   19.3255 C   0  0  0  0  0  0  0  0  0  0  0  0
  -27.7483  -13.3739   20.9536 C   0  0  0  0  0  0  0  0  0  0  0  0
  -25.5631  -14.0670   20.1908 C   0  0  0  0  0  0  0  0  0  0  0  0
  -22.2863  -27.3511   19.7445 C   0  0  0  0  0  0  0  0  0  0  0  0
  -23.9343  -10.8312   19.8966 C   0  0  0  0  0  0  0  0  0  0  0  0
  -22.6798  -10.4369   20.3616 C   0  0  0  0  0  0  0  0  0  0  0  0
  -22.5932  -28.3018   21.9402 C   0  0  0  0  0  0  0  0  0  0  0  0
  -23.3030  -11.0955   22.6011 C   0  0  0  0  0  0  0  0  0  0  0  0
  -27.2020  -15.7239   20.8278 C   0  0  0  0  0  0  0  0  0  0  0  0
  -28.1777  -17.9498   20.0525 C   0  0  0  0  0  0  0  0  0  0  0  0
  -27.8949  -24.4780   19.6174 C   0  0  0  0  0  0  0  0  0  0  0  0
  -24.2415  -28.7113   20.2153 C   0  0  0  0  0  0  0  0  0  0  0  0
  -27.7900  -25.3812   20.6924 C   0  0  0  0  0  0  0  0  0  0  0  0
  -23.7919  -28.9047   21.5293 C   0  0  0  0  0  0  0  0  0  0  0  0
  -26.4736  -13.0526   20.4870 C   0  0  0  0  0  0  0  0  0  0  0  0
  -21.8457  -27.5280   21.0528 C   0  0  0  0  0  0  0  0  0  0  0  0
  -24.8732  -11.3576   20.7838 C   0  0  0  0  0  0  0  0  0  0  0  0
  -22.3641  -10.5691   21.7139 C   0  0  0  0  0  0  0  0  0  0  0  0
  -24.5575  -11.4898   22.1360 C   0  0  0  0  0  0  0  0  0  0  0  0
  -27.5774  -17.1038   21.0042 C   0  0  0  0  0  0  0  0  0  0  0  0
  -21.1337  -23.3666   23.6947 C   0  0  0  0  0  0  0  0  0  0  0  0
  -21.7270  -23.9512   24.7939 C   0  0  0  0  0  0  0  0  0  0  0  0
  -28.3291  -19.1485   20.7056 C   0  0  0  0  0  0  0  0  0  0  0  0
  -23.2528  -22.4361   24.3624 C   0  0  0  0  0  0  0  0  0  0  0  0
  -20.7441  -25.6936   21.9974 C   0  0  0  0  0  0  0  0  0  1  0  0
  -28.5640  -17.6765   18.6990 C   0  0  0  0  0  0  0  0  0  0  0  0
  -19.8575  -23.6697   23.0131 C   0  0  0  0  0  0  0  0  0  0  0  0
  -19.6662  -25.0313   22.4340 C   0  0  0  0  0  0  0  0  0  0  0  0
  -27.1750  -28.4915   21.4195 C   0  0  0  0  0  0  0  0  0  0  0  0
  -26.4588  -31.3977   22.6698 C   0  0  0  0  0  0  0  0  0  0  0  0
  -21.6964  -25.6725   26.6319 C   0  0  0  0  0  0  0  0  0  0  0  0
  -24.0607  -33.6080   23.6751 C   0  0  0  0  0  0  0  0  0  0  0  0
  -25.4681  -21.6850   25.2976 C   0  0  0  0  0  0  0  0  0  0  0  0
  -28.9452  -24.6376   18.5468 C   0  0  0  0  0  0  0  0  0  0  0  0
  -25.5099  -29.3654   19.7402 C   0  0  0  0  0  0  0  0  0  0  0  0
  -24.5656  -29.7369   22.5178 C   0  0  0  0  0  0  0  0  0  0  0  0
  -29.5511  -26.0377   18.4919 C   0  0  0  0  0  0  0  0  0  0  0  0
  -28.9503  -20.9719   25.0901 C   0  0  0  0  0  0  0  0  0  0  0  0
  -29.9153  -26.5171   19.8934 C   0  0  0  0  0  0  0  0  0  0  0  0
  -29.0488  -19.9807   23.9282 C   0  0  0  0  0  0  0  0  0  0  0  0
  -27.6857  -20.7511   25.9183 C   0  0  0  0  0  0  0  0  0  0  0  0
  -26.5332  -19.7448   23.9874 C   0  0  0  0  0  0  0  0  0  0  0  0
  -28.6717  -26.6075   20.7861 C   0  0  1  0  0  0  0  0  0  0  0  0
  -26.4703  -29.7024   20.8766 C   0  0  1  0  0  0  0  0  0  0  0  0
  -27.7581  -19.9698   23.0858 C   0  0  2  0  0  0  0  0  0  0  0  0
  -21.2840  -27.4962   28.3378 C   0  0  0  0  0  0  0  0  0  0  0  0
  -23.7826  -35.8863   24.6897 C   0  0  0  0  0  0  0  0  0  0  0  0
  -27.2252  -30.2726   25.4005 C   0  0  0  0  0  0  0  0  0  0  0  0
  -26.0497  -32.2161   26.4537 C   0  0  0  0  0  0  0  0  0  0  0  0
  -28.0193  -32.6052   24.9731 C   0  0  0  0  0  0  0  0  0  0  0  0
  -22.5966  -34.6112   21.3068 C   0  0  0  0  0  0  0  0  0  0  0  0
  -20.7674  -26.7821   27.1016 C   0  0  0  0  0  0  0  0  0  0  0  0
  -25.8229  -31.8835   23.9499 C   0  0  1  0  0  0  0  0  0  0  0  0
  -23.8762  -35.0891   23.3980 C   0  0  2  0  0  0  0  0  0  0  0  0
  -26.7655  -31.7270   25.1764 C   0  0  0  0  0  0  0  0  0  0  0  0
  -27.3622  -17.7134   22.1730 N   0  0  0  0  0  0  0  0  0  0  0  0
  -22.9421  -23.4187   25.1785 N   0  0  0  0  0  0  0  0  0  0  0  0
  -27.8300  -18.9551   21.9601 N   0  0  0  0  0  0  0  0  0  0  0  0
  -25.8027  -30.3506   22.0073 N   0  0  0  0  0  0  0  0  0  0  0  0
  -26.5031  -20.7574   25.0544 N   0  0  0  0  0  0  0  0  0  0  0  0
  -28.8392  -20.3386   20.3235 N   0  0  0  0  0  0  0  0  0  0  0  0
  -28.3366  -16.3923   18.1857 N   0  0  0  0  0  0  0  0  0  0  0  0
  -21.1786  -25.0021   25.4998 N   0  0  0  0  0  0  0  0  0  0  0  0
  -24.4099  -21.6187   24.3919 N   0  0  0  0  0  0  0  0  0  0  0  0
  -27.9138  -27.8011   20.4776 N   0  0  0  0  0  0  0  0  0  0  0  0
  -25.3934  -33.2547   23.6975 N   0  0  0  0  0  0  0  0  0  0  0  0
  -22.6301  -35.3178   22.6131 N   0  3  0  0  0  0  0  0  0  0  0  0
  -29.1099  -18.5405   17.9718 O   0  0  0  0  0  0  0  0  0  0  0  0
  -19.0072  -22.7898   22.9253 O   0  0  0  0  0  0  0  0  0  0  0  0
  -27.0583  -28.2055   22.6053 O   0  0  0  0  0  0  0  0  0  0  0  0
  -27.4955  -31.9325   22.2687 O   0  0  0  0  0  0  0  0  0  0  0  0
  -22.7559  -25.4275   27.1992 O   0  0  0  0  0  0  0  0  0  0  0  0
  -23.1172  -32.8418   23.8575 O   0  0  0  0  0  0  0  0  0  0  0  0
  -25.5295  -22.4977   26.2237 O   0  0  0  0  0  0  0  0  0  0  0  0
  -18.3977  -25.5699   22.4001 O   0  0  0  0  0  0  0  0  0  0  0  0
  -26.1180  -11.7494   20.3204 O   0  0  0  0  0  0  0  0  0  0  0  0
  -20.6842  -26.9506   21.4646 O   0  0  0  0  0  0  0  0  0  1  0  0
  -21.1588  -10.1918   22.1601 F   0  0  0  0  0  0  0  0  0  0  0  0
  -25.4550  -11.9960   22.9929 F   0  0  0  0  0  0  0  0  0  0  0  0
  -22.1296  -22.0988   23.1096 S   0  0  0  0  0  0  0  0  0  0  0  0
  1  2  1  0  0  0  0
  1  5  2  0  0  0  0
  2  6  2  0  0  0  0
  3  8  2  0  0  0  0
  3 15  1  0  0  0  0
  4  9  1  0  0  0  0
  4 15  2  0  0  0  0
  5 17  1  0  0  0  0
  6 19  1  0  0  0  0
  7 10  2  0  0  0  0
  7 18  1  0  0  0  0
  8 21  1  0  0  0  0
  9 21  2  0  0  0  0
 10 22  1  0  0  0  0
 11 12  2  0  0  0  0
 11 23  1  0  0  0  0
 12 24  1  0  0  0  0
 13 20  1  0  0  0  0
 13 22  2  0  0  0  0
 14 24  2  0  0  0  0
 14 25  1  0  0  0  0
 15 26  1  0  0  0  0
 16 26  1  0  0  0  0
 16 29  2  0  0  0  0
 16 32  1  0  0  0  0
 17 19  2  0  0  0  0
 17 40  1  0  0  0  0
 18 20  2  0  0  0  0
 18 41  1  0  0  0  0
 19 49  1  0  0  0  0
 20 42  1  0  0  0  0
 21 82  1  0  0  0  0
 22 83  1  0  0  0  0
 23 25  2  0  0  0  0
 23 82  1  0  0  0  0
 24 84  1  0  0  0  0
 25 85  1  0  0  0  0
 26 62  2  0  0  0  0
 27 28  2  0  0  0  0
 27 33  1  0  0  0  0
 27 86  1  0  0  0  0
 28 63  1  0  0  0  0
 28 69  1  0  0  0  0
 29 64  1  0  0  0  0
 29 67  1  0  0  0  0
 30 63  2  0  0  0  0
 30 70  1  0  0  0  0
 30 86  1  0  0  0  0
 31 34  2  0  0  0  0
 31 83  1  0  0  0  0
 32 68  1  0  0  0  0
 32 74  2  0  0  0  0
 33 34  1  0  0  0  0
 33 75  2  0  0  0  0
 34 81  1  0  0  0  0
 35 50  1  0  0  0  0
 35 71  1  0  0  0  0
 35 76  2  0  0  0  0
 36 59  1  0  0  0  0
 36 65  1  0  0  0  0
 36 77  2  0  0  0  0
 37 58  1  0  0  0  0
 37 69  1  0  0  0  0
 37 78  2  0  0  0  0
 38 60  1  0  0  0  0
 38 72  1  0  0  0  0
 38 79  2  0  0  0  0
 39 66  1  0  0  0  0
 39 70  1  0  0  0  0
 39 80  2  0  0  0  0
 40 43  1  0  0  0  0
 41 50  1  0  0  0  0
 42 65  1  0  0  0  0
 43 45  1  0  0  0  0
 44 46  1  0  0  0  0
 44 47  1  0  0  0  0
 45 49  1  0  0  0  0
 46 51  1  0  0  0  0
 47 66  1  0  0  0  0
 48 51  1  0  0  0  0
 48 66  1  0  0  0  0
 49 71  1  0  0  0  0
 50 65  1  0  0  0  0
 51 64  1  0  0  0  0
 52 58  1  0  0  0  0
 53 60  1  0  0  0  0
 54 61  1  0  0  0  0
 55 61  1  0  0  0  0
 56 61  1  0  0  0  0
 57 73  1  0  0  0  0
 59 61  1  0  0  0  0
 59 72  1  0  0  0  0
 60 73  1  0  0  0  0
 62 64  1  0  0  0  0
M  CHG  1  73   1
M  ISO  4  31 101  39 100  70 100  83 101
M  END
> <Batch ID>
0178

> <Smiles>
CCC(=O)Nc1nc([100NH:0][100C:0](=O)N2CCCC(n3nc(-c4ccc(Oc5ccc(F)cc5F)cc4)c(C(N)=O)c3N)C2)sc1C(=O)C(=O)[101CH2:1][101O:1]c1ccc2c(c1)CN(C(=O)C(NC(=O)C(C)NC)C(C)(C)C)C(C(=O)NC1CCCc3ccccc31)C2

> <Shape>
0.265

> <Color>
0.071

> <Negative vol penalty>
0.000

$$$$

  -OEChem-04052304443D

 90 98  0     1  0  0  0  0  0999 V2000
  -19.1609  -17.1444   19.0768 C   0  0  0  0  0  0  0  0  0  0  0  0
  -19.7785  -16.0867   19.7366 C   0  0  0  0  0  0  0  0  0  0  0  0
  -22.8611  -10.0526   20.0416 C   0  0  0  0  0  0  0  0  0  0  0  0
  -24.2946   -9.4522   21.8914 C   0  0  0  0  0  0  0  0  0  0  0  0
  -18.9283  -18.3434   19.7491 C   0  0  0  0  0  0  0  0  0  0  0  0
  -20.1649  -16.2280   21.0689 C   0  0  0  0  0  0  0  0  0  0  0  0
  -20.1298  -11.8902   25.3920 C   0  0  0  0  0  0  0  0  0  0  0  0
  -22.1626   -8.8549   20.1941 C   0  0  0  0  0  0  0  0  0  0  0  0
  -23.5961   -8.2544   22.0439 C   0  0  0  0  0  0  0  0  0  0  0  0
  -21.1335  -11.0708   25.9067 C   0  0  0  0  0  0  0  0  0  0  0  0
  -20.6723   -7.2328   23.3960 C   0  0  0  0  0  0  0  0  0  0  0  0
  -20.3154   -6.8526   24.6897 C   0  0  0  0  0  0  0  0  0  0  0  0
  -21.4606  -12.6234   27.7238 C   0  0  0  0  0  0  0  0  0  0  0  0
  -28.0104  -12.2384   27.9042 C   0  0  0  0  0  0  0  0  0  0  0  0
  -21.6033   -4.8228   24.4485 C   0  0  0  0  0  0  0  0  0  0  0  0
  -23.9271  -10.3512   20.8902 C   0  0  0  0  0  0  0  0  0  0  0  0
  -24.1304  -12.8933   20.8262 C   0  0  0  0  0  0  0  0  0  0  0  0
  -19.3033  -18.4962   21.0932 C   0  0  0  0  0  0  0  0  0  0  0  0
  -19.7909  -13.0898   26.0343 C   0  0  0  0  0  0  0  0  0  0  0  0
  -19.9383  -17.4307   21.7595 C   0  0  0  0  0  0  0  0  0  0  0  0
  -20.4505  -13.4549   27.2166 C   0  0  0  0  0  0  0  0  0  0  0  0
  -29.2792  -12.8498   27.6884 C   0  0  0  0  0  0  0  0  0  0  0  0
  -22.5301   -7.9558   21.1952 C   0  0  0  0  0  0  0  0  0  0  0  0
  -21.8011  -11.4388   27.0712 C   0  0  0  0  0  0  0  0  0  0  0  0
  -21.4946   -6.4079   22.6284 C   0  0  0  0  0  0  0  0  0  0  0  0
  -20.7810   -5.6477   25.2160 C   0  0  0  0  0  0  0  0  0  0  0  0
  -21.9601   -5.2030   23.1547 C   0  0  0  0  0  0  0  0  0  0  0  0
  -24.6494  -11.5880   20.7329 C   0  0  0  0  0  0  0  0  0  0  0  0
  -29.5323  -13.0581   26.3504 C   0  0  0  0  0  0  0  0  0  0  0  0
  -25.2116  -13.7096   20.6001 C   0  0  0  0  0  0  0  0  0  0  0  0
  -27.3420  -12.0029   26.7228 C   0  0  0  0  0  0  0  0  0  0  0  0
  -22.7908  -13.3289   21.0935 C   0  0  0  0  0  0  0  0  0  0  0  0
  -19.8657  -16.1640   25.2298 C   0  0  0  0  0  0  0  0  0  0  0  0
  -31.6746  -12.6474   25.0752 C   0  0  0  0  0  0  0  0  0  0  0  0
  -31.1161  -12.8325   21.2926 C   0  0  0  0  0  0  0  0  0  0  0  0
  -18.3710  -16.5457   28.0833 C   0  0  0  0  0  0  0  0  0  0  0  0
  -17.7340  -15.3259   31.2063 C   0  0  0  0  0  0  0  0  0  0  0  0
  -25.1656  -10.9408   27.4115 C   0  0  0  0  0  0  0  0  0  0  0  0
  -19.0740  -19.8273   21.7641 C   0  0  0  0  0  0  0  0  0  0  0  0
  -18.6875  -13.9493   25.4810 C   0  0  0  0  0  0  0  0  0  0  0  0
  -20.1103  -14.7225   27.9554 C   0  0  0  0  0  0  0  0  0  0  0  0
  -19.1753  -19.7678   23.2861 C   0  0  0  0  0  0  0  0  0  0  0  0
  -29.4022  -13.8386   18.3109 C   0  0  0  0  0  0  0  0  0  0  0  0
  -20.4154  -18.9863   23.7084 C   0  0  0  0  0  0  0  0  0  0  0  0
  -27.9464  -13.4680   18.5912 C   0  0  0  0  0  0  0  0  0  0  0  0
  -30.3646  -12.8340   18.9368 C   0  0  0  0  0  0  0  0  0  0  0  0
  -28.7112  -12.2654   20.6874 C   0  0  0  0  0  0  0  0  0  0  0  0
  -20.3496  -17.5369   23.2120 C   0  0  1  0  0  0  0  0  0  0  0  0
  -18.7783  -15.4032   25.9343 C   0  0  1  0  0  0  0  0  0  0  0  0
  -27.7065  -13.2715   20.0986 C   0  0  2  0  0  0  0  0  0  0  0  0
  -16.5086  -15.8792   33.3252 C   0  0  0  0  0  0  0  0  0  0  0  0
  -24.0217   -8.8968   26.4771 C   0  0  0  0  0  0  0  0  0  0  0  0
  -20.5413  -18.5640   28.8085 C   0  0  0  0  0  0  0  0  0  0  0  0
  -19.8344  -18.3594   31.2016 C   0  0  0  0  0  0  0  0  0  0  0  0
  -18.2299  -19.2244   29.4986 C   0  0  0  0  0  0  0  0  0  0  0  0
  -16.0328  -12.9139   30.9893 C   0  0  0  0  0  0  0  0  0  0  0  0
  -30.7245  -13.6619   25.7131 C   0  0  0  0  0  0  0  0  0  0  0  0
  -30.7554  -12.6388   22.7439 C   0  0  0  0  0  0  0  0  0  0  0  0
  -31.9965  -12.8160   23.6033 C   0  0  2  0  0  0  0  0  0  0  0  0
  -18.8239  -16.7669   29.5063 C   0  0  1  0  0  0  0  0  0  0  0  0
  -16.4384  -15.1698   31.9819 C   0  0  2  0  0  0  0  0  0  0  0  0
  -23.9102  -10.3915   26.7387 C   0  0  1  0  0  0  0  0  0  1  0  0
  -30.2092  -13.2144   28.7835 C   0  0  0  0  0  0  0  0  0  0  0  0
  -19.3654  -18.2057   29.7390 C   0  0  0  0  0  0  0  0  0  0  0  0
  -25.9584  -11.5713   20.4679 N   0  0  0  0  0  0  0  0  0  0  0  0
  -26.2711  -12.8761   20.3928 N   0  0  0  0  0  0  0  0  0  0  0  0
  -19.0286  -15.5326   27.3712 N   0  0  0  0  0  0  0  0  0  0  0  0
  -30.0896  -12.6587   20.3640 N   0  0  0  0  0  0  0  0  0  0  0  0
  -25.3499  -15.0519   20.5603 N   0  0  0  0  0  0  0  0  0  0  0  0
  -22.4111  -13.5428   22.4256 N   0  0  0  0  0  0  0  0  0  0  0  0
  -26.0749  -11.4229   26.4758 N   0  0  0  0  0  0  0  0  0  0  0  0
  -19.4631  -16.7560   24.0479 N   0  0  0  0  0  0  0  0  0  0  0  0
  -17.6923  -16.4098   30.3551 N   0  0  0  0  0  0  0  0  0  0  0  0
  -16.1515  -13.7279   32.2263 N   0  3  0  0  0  0  0  0  0  0  0  0
  -21.9505  -13.5070   20.1794 O   0  0  0  0  0  0  0  0  0  0  0  0
  -20.9865  -16.2117   25.7228 O   0  0  0  0  0  0  0  0  0  0  0  0
  -32.1727  -11.7262   25.7228 O   0  0  0  0  0  0  0  0  0  0  0  0
  -32.2754  -13.1321   20.9952 O   0  0  0  0  0  0  0  0  0  0  0  0
  -17.4621  -17.2411   27.6229 O   0  0  0  0  0  0  0  0  0  0  0  0
  -18.6891  -14.5648   31.3448 O   0  0  0  0  0  0  0  0  0  0  0  0
  -25.2843  -10.9412   28.6334 O   0  0  0  0  0  0  0  0  0  0  0  0
  -21.8486   -6.7871   21.3445 O   0  0  0  0  0  0  0  0  0  0  0  0
  -22.7816  -10.6412   27.5755 O   0  0  0  0  0  0  0  0  0  1  0  0
  -20.4395   -5.2835   26.4589 F   0  0  0  0  0  0  0  0  0  0  0  0
  -22.7514   -4.4069   22.4225 F   0  0  0  0  0  0  0  0  0  0  0  0
  -32.9157  -11.8849   23.2133 F   0  0  0  0  0  0  0  0  0  0  0  0
  -29.7418  -12.9111   30.0348 F   0  0  0  0  0  0  0  0  0  0  0  0
  -31.4277  -12.5938   28.7077 F   0  0  0  0  0  0  0  0  0  0  0  0
  -30.4910  -14.5530   28.8217 F   0  0  0  0  0  0  0  0  0  0  0  0
  -28.2434  -12.5177   25.3610 S   0  0  0  0  0  0  0  0  0  0  0  0
  1  2  1  0  0  0  0
  1  5  2  0  0  0  0
  2  6  2  0  0  0  0
  3  8  2  0  0  0  0
  3 16  1  0  0  0  0
  4  9  1  0  0  0  0
  4 16  2  0  0  0  0
  5 18  1  0  0  0  0
  6 20  1  0  0  0  0
  7 10  2  0  0  0  0
  7 19  1  0  0  0  0
  8 23  1  0  0  0  0
  9 23  2  0  0  0  0
 10 24  1  0  0  0  0
 11 12  2  0  0  0  0
 11 25  1  0  0  0  0
 12 26  1  0  0  0  0
 13 21  1  0  0  0  0
 13 24  2  0  0  0  0
 14 22  1  0  0  0  0
 14 31  2  0  0  0  0
 15 26  2  0  0  0  0
 15 27  1  0  0  0  0
 16 28  1  0  0  0  0
 17 28  1  0  0  0  0
 17 30  2  0  0  0  0
 17 32  1  0  0  0  0
 18 20  2  0  0  0  0
 18 39  1  0  0  0  0
 19 21  2  0  0  0  0
 19 40  1  0  0  0  0
 20 48  1  0  0  0  0
 21 41  1  0  0  0  0
 22 29  2  0  0  0  0
 22 63  1  0  0  0  0
 23 82  1  0  0  0  0
 24 83  1  0  0  0  0
 25 27  2  0  0  0  0
 25 82  1  0  0  0  0
 26 84  1  0  0  0  0
 27 85  1  0  0  0  0
 28 65  2  0  0  0  0
 29 57  1  0  0  0  0
 29 90  1  0  0  0  0
 30 66  1  0  0  0  0
 30 69  1  0  0  0  0
 31 71  1  0  0  0  0
 31 90  1  0  0  0  0
 32 70  1  0  0  0  0
 32 75  2  0  0  0  0
 33 49  1  0  0  0  0
 33 72  1  0  0  0  0
 33 76  2  0  0  0  0
 34 57  1  0  0  0  0
 34 59  1  0  0  0  0
 34 77  2  0  0  0  0
 35 58  1  0  0  0  0
 35 68  1  0  0  0  0
 35 78  2  0  0  0  0
 36 60  1  0  0  0  0
 36 67  1  0  0  0  0
 36 79  2  0  0  0  0
 37 61  1  0  0  0  0
 37 73  1  0  0  0  0
 37 80  2  0  0  0  0
 38 62  1  0  0  0  0
 38 71  1  0  0  0  0
 38 81  2  0  0  0  0
 39 42  1  0  0  0  0
 40 49  1  0  0  0  0
 41 67  1  0  0  0  0
 42 44  1  0  0  0  0
 43 45  1  0  0  0  0
 43 46  1  0  0  0  0
 44 48  1  0  0  0  0
 45 50  1  0  0  0  0
 46 68  1  0  0  0  0
 47 50  1  0  0  0  0
 47 68  1  0  0  0  0
 48 72  1  0  0  0  0
 49 67  1  0  0  0  0
 50 66  1  0  0  0  0
 51 61  1  0  0  0  0
 52 62  1  0  0  0  0
 53 64  1  0  0  0  0
 54 64  1  0  0  0  0
 55 64  1  0  0  0  0
 56 74  1  0  0  0  0
 58 59  1  0  0  0  0
 59 86  1  0  0  0  0
 60 64  1  0  0  0  0
 60 73  1  0  0  0  0
 61 74  1  0  0  0  0
 62 83  1  0  0  0  0
 63 87  1  0  0  0  0
 63 88  1  0  0  0  0
 63 89  1  0  0  0  0
 65 66  1  0  0  0  0
M  CHG  1  74   1
M  ISO  4  35 100  58 100  62 101  83 101
M  END
> <Batch ID>
0178

> <Smiles>
CNC(C)C(=O)NC(C(=O)N1Cc2cc([101O:1][101CH:1](C)C(=O)Nc3cc(C(F)(F)F)c(CC(=O)C(F)[100CH2:0][100C:0](=O)N4CCCC(n5nc(-c6ccc(Oc7ccc(F)cc7F)cc6)c(C(N)=O)c5N)C4)s3)ccc2CC1C(=O)NC1CCCc2ccccc21)C(C)(C)C

> <Shape>
0.146

> <Color>
0.160

> <Negative vol penalty>
0.000

$$$$

  -OEChem-04052304443D

 87 95  0     1  0  0  0  0  0999 V2000
  -15.1556  -11.8424   25.6258 C   0  0  0  0  0  0  0  0  0  0  0  0
  -16.1763  -12.5676   26.2322 C   0  0  0  0  0  0  0  0  0  0  0  0
  -23.0753   -9.8661   19.9423 C   0  0  0  0  0  0  0  0  0  0  0  0
  -23.8353   -9.8756   22.2356 C   0  0  0  0  0  0  0  0  0  0  0  0
  -15.0411  -11.8303   24.2363 C   0  0  0  0  0  0  0  0  0  0  0  0
  -17.0838  -13.2802   25.4492 C   0  0  0  0  0  0  0  0  0  0  0  0
  -21.0406  -19.2513   25.5278 C   0  0  0  0  0  0  0  0  0  0  0  0
  -22.3318   -8.7129   20.1934 C   0  0  0  0  0  0  0  0  0  0  0  0
  -23.0917   -8.7225   22.4868 C   0  0  0  0  0  0  0  0  0  0  0  0
  -22.3552  -19.6749   25.3371 C   0  0  0  0  0  0  0  0  0  0  0  0
  -21.1077   -5.9861   23.8262 C   0  0  0  0  0  0  0  0  0  0  0  0
  -20.3514   -5.9435   24.9975 C   0  0  0  0  0  0  0  0  0  0  0  0
  -22.0120  -19.6455   22.9495 C   0  0  0  0  0  0  0  0  0  0  0  0
  -19.1062   -7.8796   24.2640 C   0  0  0  0  0  0  0  0  0  0  0  0
  -23.8271  -10.4474   20.9634 C   0  0  0  0  0  0  0  0  0  0  0  0
  -24.1681  -12.9725   20.8408 C   0  0  0  0  0  0  0  0  0  0  0  0
  -15.9418  -12.5510   23.4364 C   0  0  0  0  0  0  0  0  0  0  0  0
  -20.2039  -19.0107   24.4285 C   0  0  0  0  0  0  0  0  0  0  0  0
  -16.9821  -13.2767   24.0477 C   0  0  0  0  0  0  0  0  0  0  0  0
  -20.6865  -19.2214   23.1290 C   0  0  0  0  0  0  0  0  0  0  0  0
  -22.3400   -8.1412   21.4657 C   0  0  0  0  0  0  0  0  0  0  0  0
  -22.8420  -19.8692   24.0478 C   0  0  0  0  0  0  0  0  0  0  0  0
  -20.8633   -6.9756   22.8739 C   0  0  0  0  0  0  0  0  0  0  0  0
  -19.3507   -6.8902   25.2164 C   0  0  0  0  0  0  0  0  0  0  0  0
  -19.8625   -7.9223   23.0927 C   0  0  0  0  0  0  0  0  0  0  0  0
  -24.5958  -11.6382   20.7044 C   0  0  0  0  0  0  0  0  0  0  0  0
  -30.7061  -19.0963   22.9876 C   0  0  0  0  0  0  0  0  0  0  0  0
  -31.8080  -18.7294   22.2437 C   0  0  0  0  0  0  0  0  0  0  0  0
  -25.2601  -13.7220   20.4767 C   0  0  0  0  0  0  0  0  0  0  0  0
  -30.5708  -16.9516   21.8993 C   0  0  0  0  0  0  0  0  0  0  0  0
  -22.8975  -13.4884   21.2592 C   0  0  0  0  0  0  0  0  0  0  0  0
  -30.4466  -20.3389   23.7848 C   0  0  0  0  0  0  0  0  0  0  0  0
  -18.6833  -16.4660   23.2815 C   0  0  0  0  0  0  0  0  0  0  0  0
  -26.3210  -20.9295   24.6529 C   0  0  0  0  0  0  0  0  0  0  0  0
  -17.4248  -18.6319   21.2206 C   0  0  0  0  0  0  0  0  0  0  0  0
  -17.7226  -21.6441   19.6442 C   0  0  0  0  0  0  0  0  0  0  0  0
  -30.7260  -14.7693   20.6503 C   0  0  0  0  0  0  0  0  0  0  0  0
  -15.8064  -12.4694   21.9365 C   0  0  0  0  0  0  0  0  0  0  0  0
  -18.7802  -18.5799   24.6518 C   0  0  0  0  0  0  0  0  0  0  0  0
  -19.8224  -18.9966   21.9160 C   0  0  0  0  0  0  0  0  0  0  0  0
  -16.5829  -13.5545   21.1949 C   0  0  0  0  0  0  0  0  0  0  0  0
  -29.6122  -12.3529   18.2844 C   0  0  0  0  0  0  0  0  0  0  0  0
  -17.9965  -13.6767   21.7550 C   0  0  0  0  0  0  0  0  0  0  0  0
  -28.1726  -12.0613   18.7143 C   0  0  0  0  0  0  0  0  0  0  0  0
  -30.5273  -12.5831   19.4858 C   0  0  0  0  0  0  0  0  0  0  0  0
  -28.6201  -13.3084   20.8664 C   0  0  0  0  0  0  0  0  0  0  0  0
  -17.9710  -14.0825   23.2335 C   0  0  1  0  0  0  0  0  0  0  0  0
  -18.1743  -17.8702   23.4449 C   0  0  1  0  0  0  0  0  0  0  0  0
  -27.6473  -13.1337   19.6888 C   0  0  2  0  0  0  0  0  0  0  0  0
  -16.5545  -23.1254   17.9894 C   0  0  0  0  0  0  0  0  0  0  0  0
  -18.3602  -16.8251   18.9467 C   0  0  0  0  0  0  0  0  0  0  0  0
  -18.0376  -18.7495   17.3780 C   0  0  0  0  0  0  0  0  0  0  0  0
  -16.0874  -17.8173   18.6232 C   0  0  0  0  0  0  0  0  0  0  0  0
  -17.4277  -23.8219   21.6264 C   0  0  0  0  0  0  0  0  0  0  0  0
  -24.9166  -20.4970   25.0265 C   0  0  0  0  0  0  0  0  0  1  0  0
  -27.2567  -21.1736   25.8130 C   0  0  0  0  0  0  0  0  0  0  0  0
  -17.8188  -19.1753   19.8683 C   0  0  1  0  0  0  0  0  0  0  0  0
  -16.7396  -22.7862   19.4602 C   0  0  2  0  0  0  0  0  0  0  0  0
  -17.5931  -18.1443   18.7266 C   0  0  0  0  0  0  0  0  0  0  0  0
  -25.8607  -11.5424   20.2862 N   0  0  0  0  0  0  0  0  0  0  0  0
  -31.7324  -17.4997   21.6193 N   0  0  0  0  0  0  0  0  0  0  0  0
  -29.2943  -20.4035   24.3910 N   0  0  0  0  0  0  0  0  0  0  0  0
  -26.2372  -12.8259   20.1566 N   0  0  0  0  0  0  0  0  0  0  0  0
  -18.4396  -18.5697   22.1860 N   0  0  0  0  0  0  0  0  0  0  0  0
  -29.9680  -13.6146   20.3622 N   0  0  0  0  0  0  0  0  0  0  0  0
  -25.4700  -15.0534   20.4024 N   0  0  0  0  0  0  0  0  0  0  0  0
  -21.8859  -12.5792   21.5974 N   0  0  0  0  0  0  0  0  0  0  0  0
  -31.4336  -21.3020   23.8081 N   0  0  0  0  0  0  0  0  0  0  0  0
  -30.0784  -15.6950   21.4678 N   0  0  0  0  0  0  0  0  0  0  0  0
  -17.7005  -15.4981   23.3645 N   0  0  0  0  0  0  0  0  0  0  0  0
  -17.0830  -20.4238   19.7000 N   0  0  0  0  0  0  0  0  0  0  0  0
  -17.2245  -24.0057   20.1664 N   0  3  0  0  0  0  0  0  0  0  0  0
  -22.6609  -14.7190   21.3153 O   0  0  0  0  0  0  0  0  0  0  0  0
  -19.8789  -16.2748   23.0925 O   0  0  0  0  0  0  0  0  0  0  0  0
  -26.6627  -21.0681   23.4796 O   0  0  0  0  0  0  0  0  0  0  0  0
  -16.2579  -18.2824   21.4152 O   0  0  0  0  0  0  0  0  0  0  0  0
  -18.9366  -21.8168   19.7263 O   0  0  0  0  0  0  0  0  0  0  0  0
  -31.8550  -14.9379   20.1825 O   0  0  0  0  0  0  0  0  0  0  0  0
  -29.6943  -21.7700   26.4817 O   0  0  0  0  0  0  0  0  0  0  0  0
  -28.6824  -22.8573   24.4434 O   0  0  0  0  0  0  0  0  0  0  0  0
  -21.6144   -7.0161   21.7112 O   0  0  0  0  0  0  0  0  0  0  0  0
  -24.1249  -20.2820   23.8589 O   0  0  0  0  0  0  0  0  0  1  0  0
  -18.6235   -6.8482   26.3405 F   0  0  0  0  0  0  0  0  0  0  0  0
  -19.6223   -8.8745   22.1809 F   0  0  0  0  0  0  0  0  0  0  0  0
  -32.8880  -19.5106   22.1304 F   0  0  0  0  0  0  0  0  0  0  0  0
  -29.5203  -17.8598   22.9075 S   0  0  0  0  0  0  0  0  0  0  0  0
  -28.8577  -21.6890   25.2935 S   0  0  0  0  0  0  0  0  0  0  0  0
  1  2  1  0  0  0  0
  1  5  2  0  0  0  0
  2  6  2  0  0  0  0
  3  8  2  0  0  0  0
  3 15  1  0  0  0  0
  4  9  1  0  0  0  0
  4 15  2  0  0  0  0
  5 17  1  0  0  0  0
  6 19  1  0  0  0  0
  7 10  2  0  0  0  0
  7 18  1  0  0  0  0
  8 21  1  0  0  0  0
  9 21  2  0  0  0  0
 10 22  1  0  0  0  0
 11 12  2  0  0  0  0
 11 23  1  0  0  0  0
 12 24  1  0  0  0  0
 13 20  1  0  0  0  0
 13 22  2  0  0  0  0
 14 24  2  0  0  0  0
 14 25  1  0  0  0  0
 15 26  1  0  0  0  0
 16 26  1  0  0  0  0
 16 29  2  0  0  0  0
 16 31  1  0  0  0  0
 17 19  2  0  0  0  0
 17 38  1  0  0  0  0
 18 20  2  0  0  0  0
 18 39  1  0  0  0  0
 19 47  1  0  0  0  0
 20 40  1  0  0  0  0
 21 81  1  0  0  0  0
 22 82  1  0  0  0  0
 23 25  2  0  0  0  0
 23 81  1  0  0  0  0
 24 83  1  0  0  0  0
 25 84  1  0  0  0  0
 26 60  2  0  0  0  0
 27 28  2  0  0  0  0
 27 32  1  0  0  0  0
 27 86  1  0  0  0  0
 28 61  1  0  0  0  0
 28 85  1  0  0  0  0
 29 63  1  0  0  0  0
 29 66  1  0  0  0  0
 30 61  2  0  0  0  0
 30 69  1  0  0  0  0
 30 86  1  0  0  0  0
 31 67  1  0  0  0  0
 31 73  2  0  0  0  0
 32 62  2  0  0  0  0
 32 68  1  0  0  0  0
 33 48  1  0  0  0  0
 33 70  1  0  0  0  0
 33 74  2  0  0  0  0
 34 55  1  0  0  0  0
 34 56  1  0  0  0  0
 34 75  2  0  0  0  0
 35 57  1  0  0  0  0
 35 64  1  0  0  0  0
 35 76  2  0  0  0  0
 36 58  1  0  0  0  0
 36 71  1  0  0  0  0
 36 77  2  0  0  0  0
 37 65  1  0  0  0  0
 37 69  1  0  0  0  0
 37 78  2  0  0  0  0
 38 41  1  0  0  0  0
 39 48  1  0  0  0  0
 40 64  1  0  0  0  0
 41 43  1  0  0  0  0
 42 44  1  0  0  0  0
 42 45  1  0  0  0  0
 43 47  1  0  0  0  0
 44 49  1  0  0  0  0
 45 65  1  0  0  0  0
 46 49  1  0  0  0  0
 46 65  1  0  0  0  0
 47 70  1  0  0  0  0
 48 64  1  0  0  0  0
 49 63  1  0  0  0  0
 50 58  1  0  0  0  0
 51 59  1  0  0  0  0
 52 59  1  0  0  0  0
 53 59  1  0  0  0  0
 54 72  1  0  0  0  0
 55 82  1  0  0  0  0
 56 87  1  0  0  0  0
 57 59  1  0  0  0  0
 57 71  1  0  0  0  0
 58 72  1  0  0  0  0
 60 63  1  0  0  0  0
 62 87  1  0  0  0  0
 79 87  2  0  0  0  0
 80 87  2  0  0  0  0
M  CHG  1  72   1
M  ISO  4  37 100  55 101  69 100  82 101
M  END
> <Batch ID>
0178

> <Smiles>
CNC(C)C(=O)NC(C(=O)N1Cc2cc([101O:1][101CH2:1]C(=O)CS(=O)(=O)NC(=N)c3sc([100NH:0][100C:0](=O)N4CCCC(n5nc(-c6ccc(Oc7ccc(F)cc7F)cc6)c(C(N)=O)c5N)C4)nc3F)ccc2CC1C(=O)NC1CCCc2ccccc21)C(C)(C)C

> <Shape>
0.161

> <Color>
0.177

> <Negative vol penalty>
0.000

$$$$

  -OEChem-04052304443D

 87 95  0     1  0  0  0  0  0999 V2000
  -21.6492  -18.3975   23.7161 C   0  0  0  0  0  0  0  0  0  0  0  0
  -22.9620  -18.8501   23.6318 C   0  0  0  0  0  0  0  0  0  0  0  0
  -25.5786  -13.8608   21.3065 C   0  0  0  0  0  0  0  0  0  0  0  0
  -25.0434  -14.3897   19.0106 C   0  0  0  0  0  0  0  0  0  0  0  0
  -20.6470  -19.0280   22.9799 C   0  0  0  0  0  0  0  0  0  0  0  0
  -23.2736  -19.9329   22.8102 C   0  0  0  0  0  0  0  0  0  0  0  0
  -27.7296  -25.5265   22.3966 C   0  0  0  0  0  0  0  0  0  0  0  0
  -24.5597  -12.9085   21.3247 C   0  0  0  0  0  0  0  0  0  0  0  0
  -24.0244  -13.4374   19.0288 C   0  0  0  0  0  0  0  0  0  0  0  0
  -28.6374  -26.1178   21.5190 C   0  0  0  0  0  0  0  0  0  0  0  0
  -22.3349  -10.0842   21.8623 C   0  0  0  0  0  0  0  0  0  0  0  0
  -22.6182   -8.8421   22.4302 C   0  0  0  0  0  0  0  0  0  0  0  0
  -26.8108  -27.1791   20.3543 C   0  0  0  0  0  0  0  0  0  0  0  0
  -24.3722   -8.4989   20.8045 C   0  0  0  0  0  0  0  0  0  0  0  0
  -25.8205  -14.6015   20.1495 C   0  0  0  0  0  0  0  0  0  0  0  0
  -28.2185  -15.3846   19.7698 C   0  0  0  0  0  0  0  0  0  0  0  0
  -20.9449  -20.1251   22.1563 C   0  0  0  0  0  0  0  0  0  0  0  0
  -26.3526  -25.7487   22.2526 C   0  0  0  0  0  0  0  0  0  0  0  0
  -22.2747  -20.5778   22.0612 C   0  0  0  0  0  0  0  0  0  0  0  0
  -25.8879  -26.5915   21.2329 C   0  0  0  0  0  0  0  0  0  0  0  0
  -23.7825  -12.6968   20.1859 C   0  0  0  0  0  0  0  0  0  0  0  0
  -28.1779  -26.9419   20.4959 C   0  0  0  0  0  0  0  0  0  0  0  0
  -23.0702  -10.5337   20.7654 C   0  0  0  0  0  0  0  0  0  0  0  0
  -23.6368   -8.0495   21.9013 C   0  0  0  0  0  0  0  0  0  0  0  0
  -24.0889   -9.7410   20.2366 C   0  0  0  0  0  0  0  0  0  0  0  0
  -26.8726  -15.5858   20.1302 C   0  0  0  0  0  0  0  0  0  0  0  0
  -32.1030  -23.7389   16.8370 C   0  0  0  0  0  0  0  0  0  0  0  0
  -28.8017  -16.6193   19.9174 C   0  0  0  0  0  0  0  0  0  0  0  0
  -32.5360  -22.6522   16.1064 C   0  0  0  0  0  0  0  0  0  0  0  0
  -30.6773  -22.2495   17.5847 C   0  0  0  0  0  0  0  0  0  0  0  0
  -28.8821  -14.1885   19.3400 C   0  0  0  0  0  0  0  0  0  0  0  0
  -23.8327  -23.9041   21.6599 C   0  0  0  0  0  0  0  0  0  0  0  0
  -22.1876  -26.6474   22.1988 C   0  0  0  0  0  0  0  0  0  0  0  0
  -34.4069  -26.2648   18.1829 C   0  0  0  0  0  0  0  0  0  0  0  0
  -22.1818  -30.0597   22.2497 C   0  0  0  0  0  0  0  0  0  0  0  0
  -28.7580  -22.1424   19.2129 C   0  0  0  0  0  0  0  0  0  0  0  0
  -19.8360  -20.7444   21.3429 C   0  0  0  0  0  0  0  0  0  0  0  0
  -25.3882  -25.1249   23.2239 C   0  0  0  0  0  0  0  0  0  0  0  0
  -24.4209  -26.8783   21.0480 C   0  0  0  0  0  0  0  0  0  0  0  0
  -20.1860  -22.1215   20.7849 C   0  0  0  0  0  0  0  0  0  0  0  0
  -27.0462  -20.8569   22.0580 C   0  0  0  0  0  0  0  0  0  0  0  0
  -21.5764  -22.1057   20.1576 C   0  0  0  0  0  0  0  0  0  0  0  0
  -26.9592  -19.3544   21.7805 C   0  0  0  0  0  0  0  0  0  0  0  0
  -26.8865  -21.6798   20.7809 C   0  0  0  0  0  0  0  0  0  0  0  0
  -27.7032  -19.8046   19.4076 C   0  0  0  0  0  0  0  0  0  0  0  0
  -22.6480  -21.7649   21.2002 C   0  0  1  0  0  0  0  0  0  0  0  0
  -23.9720  -25.0090   22.6686 C   0  0  1  0  0  0  0  0  0  0  0  0
  -27.9233  -18.9325   20.6544 C   0  0  2  0  0  0  0  0  0  0  0  0
  -34.8726  -26.4411   19.5901 C   0  0  0  0  0  0  0  0  0  0  0  0
  -20.6799  -32.0207   22.6927 C   0  0  0  0  0  0  0  0  0  0  0  0
  -31.1510  -26.0046   14.9431 C   0  0  0  0  0  0  0  0  0  0  0  0
  -20.8393  -26.2226   19.4947 C   0  0  0  0  0  0  0  0  0  0  0  0
  -20.1063  -28.6156   19.5626 C   0  0  0  0  0  0  0  0  0  0  0  0
  -19.3125  -27.0198   21.3079 C   0  0  0  0  0  0  0  0  0  0  0  0
  -23.8862  -31.0105   24.4745 C   0  0  0  0  0  0  0  0  0  0  0  0
  -29.7843  -27.7447   17.3432 C   0  0  0  0  0  0  0  0  0  0  0  0
  -30.4796  -26.3817   17.3562 C   0  0  0  0  0  0  0  0  0  0  0  0
  -28.6055  -27.7748   18.3097 C   0  0  0  0  0  0  0  0  0  1  0  0
  -32.6902  -25.1367   16.7818 C   0  0  1  0  0  0  0  0  0  0  0  0
  -21.7177  -27.7981   21.3419 C   0  0  1  0  0  0  0  0  0  0  0  0
  -21.6885  -31.0508   23.2884 C   0  0  2  0  0  0  0  0  0  0  0  0
  -31.6668  -26.2350   16.3729 C   0  0  1  0  0  0  0  0  0  0  0  0
  -20.5215  -27.4073   20.4288 C   0  0  0  0  0  0  0  0  0  0  0  0
  -26.6159  -16.8489   20.4805 N   0  0  0  0  0  0  0  0  0  0  0  0
  -31.0370  -23.5099   17.6849 N   0  0  0  0  0  0  0  0  0  0  0  0
  -27.8085  -17.4525   20.3410 N   0  0  0  0  0  0  0  0  0  0  0  0
  -23.5171  -26.2400   22.0191 N   0  0  0  0  0  0  0  0  0  0  0  0
  -27.8347  -21.2269   19.7608 N   0  0  0  0  0  0  0  0  0  0  0  0
  -30.0622  -17.0627   19.7249 N   0  0  0  0  0  0  0  0  0  0  0  0
  -28.1339  -13.0073   19.2431 N   0  0  0  0  0  0  0  0  0  0  0  0
  -29.6308  -21.5901   18.2761 N   0  0  0  0  0  0  0  0  0  0  0  0
  -22.9355  -22.9187   22.0252 N   0  0  0  0  0  0  0  0  0  0  0  0
  -33.3067  -25.4423   18.0581 N   0  0  0  0  0  0  0  0  0  0  0  0
  -21.4366  -28.8996   22.2562 N   0  0  0  0  0  0  0  0  0  0  0  0
  -22.8294  -31.8372   23.8369 N   0  3  0  0  0  0  0  0  0  0  0  0
  -30.1060  -14.1642   19.0662 O   0  0  0  0  0  0  0  0  0  0  0  0
  -24.4893  -23.9435   20.6260 O   0  0  0  0  0  0  0  0  0  0  0  0
  -21.4059  -26.1337   23.0030 O   0  0  0  0  0  0  0  0  0  0  0  0
  -35.0002  -26.8342   17.2743 O   0  0  0  0  0  0  0  0  0  0  0  0
  -23.1307  -30.2930   21.5043 O   0  0  0  0  0  0  0  0  0  0  0  0
  -28.7911  -23.3228   19.5701 O   0  0  0  0  0  0  0  0  0  0  0  0
  -22.7883  -11.7674   20.2032 O   0  0  0  0  0  0  0  0  0  0  0  0
  -29.0617  -27.5198   19.6376 O   0  0  0  0  0  0  0  0  0  1  0  0
  -23.9098   -6.8574   22.4478 F   0  0  0  0  0  0  0  0  0  0  0  0
  -24.7995  -10.1679   19.1837 F   0  0  0  0  0  0  0  0  0  0  0  0
  -33.5476  -22.6600   15.2345 F   0  0  0  0  0  0  0  0  0  0  0  0
  -31.5781  -21.2824   16.4900 S   0  0  0  0  0  0  0  0  0  0  0  0
  1  2  1  0  0  0  0
  1  5  2  0  0  0  0
  2  6  2  0  0  0  0
  3  8  2  0  0  0  0
  3 15  1  0  0  0  0
  4  9  1  0  0  0  0
  4 15  2  0  0  0  0
  5 17  1  0  0  0  0
  6 19  1  0  0  0  0
  7 10  2  0  0  0  0
  7 18  1  0  0  0  0
  8 21  1  0  0  0  0
  9 21  2  0  0  0  0
 10 22  1  0  0  0  0
 11 12  2  0  0  0  0
 11 23  1  0  0  0  0
 12 24  1  0  0  0  0
 13 20  1  0  0  0  0
 13 22  2  0  0  0  0
 14 24  2  0  0  0  0
 14 25  1  0  0  0  0
 15 26  1  0  0  0  0
 16 26  1  0  0  0  0
 16 28  2  0  0  0  0
 16 31  1  0  0  0  0
 17 19  2  0  0  0  0
 17 37  1  0  0  0  0
 18 20  2  0  0  0  0
 18 38  1  0  0  0  0
 19 46  1  0  0  0  0
 20 39  1  0  0  0  0
 21 82  1  0  0  0  0
 22 83  1  0  0  0  0
 23 25  2  0  0  0  0
 23 82  1  0  0  0  0
 24 84  1  0  0  0  0
 25 85  1  0  0  0  0
 26 64  2  0  0  0  0
 27 29  2  0  0  0  0
 27 59  1  0  0  0  0
 27 65  1  0  0  0  0
 28 66  1  0  0  0  0
 28 69  1  0  0  0  0
 29 86  1  0  0  0  0
 29 87  1  0  0  0  0
 30 65  2  0  0  0  0
 30 71  1  0  0  0  0
 30 87  1  0  0  0  0
 31 70  1  0  0  0  0
 31 76  2  0  0  0  0
 32 47  1  0  0  0  0
 32 72  1  0  0  0  0
 32 77  2  0  0  0  0
 33 60  1  0  0  0  0
 33 67  1  0  0  0  0
 33 78  2  0  0  0  0
 34 49  1  0  0  0  0
 34 73  1  0  0  0  0
 34 79  2  0  0  0  0
 35 61  1  0  0  0  0
 35 74  1  0  0  0  0
 35 80  2  0  0  0  0
 36 68  1  0  0  0  0
 36 71  1  0  0  0  0
 36 81  2  0  0  0  0
 37 40  1  0  0  0  0
 38 47  1  0  0  0  0
 39 67  1  0  0  0  0
 40 42  1  0  0  0  0
 41 43  1  0  0  0  0
 41 44  1  0  0  0  0
 42 46  1  0  0  0  0
 43 48  1  0  0  0  0
 44 68  1  0  0  0  0
 45 48  1  0  0  0  0
 45 68  1  0  0  0  0
 46 72  1  0  0  0  0
 47 67  1  0  0  0  0
 48 66  1  0  0  0  0
 50 61  1  0  0  0  0
 51 62  1  0  0  0  0
 52 63  1  0  0  0  0
 53 63  1  0  0  0  0
 54 63  1  0  0  0  0
 55 75  1  0  0  0  0
 56 57  1  0  0  0  0
 56 58  1  0  0  0  0
 57 62  1  0  0  0  0
 58 83  1  0  0  0  0
 59 62  1  0  0  0  0
 59 73  1  0  0  0  0
 60 63  1  0  0  0  0
 60 74  1  0  0  0  0
 61 75  1  0  0  0  0
 64 66  1  0  0  0  0
M  CHG  1  75   1
M  ISO  4  36 100  58 101  71 100  83 101
M  END
> <Batch ID>
0178

> <Smiles>
CNC(C)C(=O)NC(C(=O)N1Cc2cc([101O:1][101CH2:1]CCC(C)C(NC(C)=O)c3nc([100NH:0][100C:0](=O)N4CCCC(n5nc(-c6ccc(Oc7ccc(F)cc7F)cc6)c(C(N)=O)c5N)C4)sc3F)ccc2CC1C(=O)NC1CCCc2ccccc21)C(C)(C)C

> <Shape>
0.214

> <Color>
0.063

> <Negative vol penalty>
0.000

$$$$

  -OEChem-04052304443D

 86 94  0     1  0  0  0  0  0999 V2000
  -28.8715  -36.8825   19.3849 C   0  0  0  0  0  0  0  0  0  0  0  0
  -29.0877  -35.5211   19.1969 C   0  0  0  0  0  0  0  0  0  0  0  0
  -25.4100   -7.9484   21.6617 C   0  0  0  0  0  0  0  0  0  0  0  0
  -24.1554   -9.9432   21.1291 C   0  0  0  0  0  0  0  0  0  0  0  0
  -28.1328  -37.3249   20.4815 C   0  0  0  0  0  0  0  0  0  0  0  0
  -28.5662  -34.6014   20.1061 C   0  0  0  0  0  0  0  0  0  0  0  0
  -26.4552  -28.9884   18.8635 C   0  0  0  0  0  0  0  0  0  0  0  0
  -24.4074   -7.5543   22.5477 C   0  0  0  0  0  0  0  0  0  0  0  0
  -23.1527   -9.5491   22.0151 C   0  0  0  0  0  0  0  0  0  0  0  0
  -27.0331  -27.7241   18.9697 C   0  0  0  0  0  0  0  0  0  0  0  0
  -21.3479   -6.1256   22.3715 C   0  0  0  0  0  0  0  0  0  0  0  0
  -20.9303   -4.7955   22.3278 C   0  0  0  0  0  0  0  0  0  0  0  0
  -25.9965  -27.4383   21.1291 C   0  0  0  0  0  0  0  0  0  0  0  0
  -21.5901   -4.5126   24.6347 C   0  0  0  0  0  0  0  0  0  0  0  0
  -25.2841   -9.1429   20.9525 C   0  0  0  0  0  0  0  0  0  0  0  0
  -26.4125   -9.2435   18.6668 C   0  0  0  0  0  0  0  0  0  0  0  0
  -27.5938  -36.4096   21.3993 C   0  0  0  0  0  0  0  0  0  0  0  0
  -25.6511  -29.4924   19.8958 C   0  0  0  0  0  0  0  0  0  0  0  0
  -27.8207  -35.0321   21.2167 C   0  0  0  0  0  0  0  0  0  0  0  0
  -25.4075  -28.7082   21.0324 C   0  0  0  0  0  0  0  0  0  0  0  0
  -23.2787   -8.3546   22.7244 C   0  0  0  0  0  0  0  0  0  0  0  0
  -26.8062  -26.9500   20.1039 C   0  0  0  0  0  0  0  0  0  0  0  0
  -21.8867   -6.6493   23.5467 C   0  0  0  0  0  0  0  0  0  0  0  0
  -21.0514   -3.9890   23.4595 C   0  0  0  0  0  0  0  0  0  0  0  0
  -22.0078   -5.8428   24.6784 C   0  0  0  0  0  0  0  0  0  0  0  0
  -26.3197   -9.5508   20.0375 C   0  0  0  0  0  0  0  0  0  0  0  0
  -28.8383  -19.1443   18.9444 C   0  0  0  0  0  0  0  0  0  0  0  0
  -29.2638  -16.5898   19.5931 C   0  0  0  0  0  0  0  0  0  0  0  0
  -30.0998  -18.6929   19.2642 C   0  0  0  0  0  0  0  0  0  0  0  0
  -28.0022  -17.0415   19.2741 C   0  0  0  0  0  0  0  0  0  0  0  0
  -27.5679   -9.8609   18.2540 C   0  0  0  0  0  0  0  0  0  0  0  0
  -25.5330   -8.4692   17.8406 C   0  0  0  0  0  0  0  0  0  0  0  0
  -25.8169  -31.9931   21.8510 C   0  0  0  0  0  0  0  0  0  0  0  0
  -27.4881  -23.5058   19.2270 C   0  0  0  0  0  0  0  0  0  0  0  0
  -22.8657  -30.9918   22.7509 C   0  0  0  0  0  0  0  0  0  0  0  0
  -27.4869  -21.1537   18.2665 C   0  0  0  0  0  0  0  0  0  0  0  0
  -20.6232  -28.4303   22.9899 C   0  0  0  0  0  0  0  0  0  0  0  0
  -30.6214  -14.5814   20.2783 C   0  0  0  0  0  0  0  0  0  0  0  0
  -26.8421  -36.9381   22.5952 C   0  0  0  0  0  0  0  0  0  0  0  0
  -25.0132  -30.8472   19.7541 C   0  0  0  0  0  0  0  0  0  0  0  0
  -24.5354  -29.1951   22.1598 C   0  0  0  0  0  0  0  0  0  0  0  0
  -26.0066  -35.8772   23.3070 C   0  0  0  0  0  0  0  0  0  0  0  0
  -31.8497  -11.2638   19.8764 C   0  0  0  0  0  0  0  0  0  0  0  0
  -26.8216  -34.6041   23.5111 C   0  0  0  0  0  0  0  0  0  0  0  0
  -30.5796  -10.4208   19.7412 C   0  0  0  0  0  0  0  0  0  0  0  0
  -31.6681  -12.4074   20.8727 C   0  0  0  0  0  0  0  0  0  0  0  0
  -29.2346  -12.4255   20.4890 C   0  0  0  0  0  0  0  0  0  0  0  0
  -27.2503  -34.0021   22.1674 C   0  0  1  0  0  0  0  0  0  0  0  0
  -24.6297  -31.4701   21.0930 C   0  0  1  0  0  0  0  0  0  0  0  0
  -29.3482  -11.3001   19.4478 C   0  0  2  0  0  0  0  0  0  0  0  0
  -18.3076  -27.9089   23.8045 C   0  0  0  0  0  0  0  0  0  0  0  0
  -23.8813  -30.9877   25.6281 C   0  0  0  0  0  0  0  0  0  0  0  0
  -21.9008  -29.5889   26.2517 C   0  0  0  0  0  0  0  0  0  0  0  0
  -21.5654  -31.8867   25.3406 C   0  0  0  0  0  0  0  0  0  0  0  0
  -19.7168  -27.6639   20.2788 C   0  0  0  0  0  0  0  0  0  0  0  0
  -27.6986  -22.6329   18.0072 C   0  0  0  0  0  0  0  0  0  0  0  0
  -27.5989  -24.9997   18.9977 C   0  0  0  0  0  0  0  0  0  1  0  0
  -22.3316  -30.0397   23.7936 C   0  0  1  0  0  0  0  0  0  0  0  0
  -19.1546  -28.3392   22.6169 C   0  0  2  0  0  0  0  0  0  0  0  0
  -22.4378  -30.6171   25.2333 C   0  0  0  0  0  0  0  0  0  0  0  0
  -27.3352  -10.3047   20.4668 N   0  0  0  0  0  0  0  0  0  0  0  0
  -27.7668  -18.3268   18.9437 N   0  0  0  0  0  0  0  0  0  0  0  0
  -30.3352  -17.4075   19.5942 N   0  0  0  0  0  0  0  0  0  0  0  0
  -28.0772  -10.4763   19.3595 N   0  0  0  0  0  0  0  0  0  0  0  0
  -23.9394  -30.5289   21.9771 N   0  0  0  0  0  0  0  0  0  0  0  0
  -30.4852  -13.1997   20.5292 N   0  0  0  0  0  0  0  0  0  0  0  0
  -28.1877   -9.9320   17.0568 N   0  0  0  0  0  0  0  0  0  0  0  0
  -24.3906   -7.9059   18.4253 N   0  0  0  0  0  0  0  0  0  0  0  0
  -28.6685  -20.5087   18.6075 N   0  0  0  0  0  0  0  0  0  0  0  0
  -29.4340  -15.2239   19.9292 N   0  0  0  0  0  0  0  0  0  0  0  0
  -26.1438  -33.3018   21.5513 N   0  0  0  0  0  0  0  0  0  0  0  0
  -20.9723  -29.7051   23.3828 N   0  0  0  0  0  0  0  0  0  0  0  0
  -18.9595  -27.3515   21.5181 N   0  3  0  0  0  0  0  0  0  0  0  0
  -25.7623   -8.2687   16.6238 O   0  0  0  0  0  0  0  0  0  0  0  0
  -26.3928  -31.2638   22.6499 O   0  0  0  0  0  0  0  0  0  0  0  0
  -27.2492  -23.0339   20.3376 O   0  0  0  0  0  0  0  0  0  0  0  0
  -22.3446  -32.1025   22.6227 O   0  0  0  0  0  0  0  0  0  0  0  0
  -26.3617  -20.6675   18.1910 O   0  0  0  0  0  0  0  0  0  0  0  0
  -21.3839  -27.4661   22.9414 O   0  0  0  0  0  0  0  0  0  0  0  0
  -31.7159  -15.1474   20.3400 O   0  0  0  0  0  0  0  0  0  0  0  0
  -22.3001   -7.9703   23.5887 O   0  0  0  0  0  0  0  0  0  0  0  0
  -27.3697  -25.7159   20.2104 O   0  0  0  0  0  0  0  0  0  1  0  0
  -20.6489   -2.7121   23.4179 F   0  0  0  0  0  0  0  0  0  0  0  0
  -22.5235   -6.3406   25.8106 F   0  0  0  0  0  0  0  0  0  0  0  0
  -31.1424  -19.5374   19.2552 F   0  0  0  0  0  0  0  0  0  0  0  0
  -26.9594  -16.1974   19.2848 F   0  0  0  0  0  0  0  0  0  0  0  0
  1  2  1  0  0  0  0
  1  5  2  0  0  0  0
  2  6  2  0  0  0  0
  3  8  2  0  0  0  0
  3 15  1  0  0  0  0
  4  9  1  0  0  0  0
  4 15  2  0  0  0  0
  5 17  1  0  0  0  0
  6 19  1  0  0  0  0
  7 10  2  0  0  0  0
  7 18  1  0  0  0  0
  8 21  1  0  0  0  0
  9 21  2  0  0  0  0
 10 22  1  0  0  0  0
 11 12  2  0  0  0  0
 11 23  1  0  0  0  0
 12 24  1  0  0  0  0
 13 20  1  0  0  0  0
 13 22  2  0  0  0  0
 14 24  2  0  0  0  0
 14 25  1  0  0  0  0
 15 26  1  0  0  0  0
 16 26  1  0  0  0  0
 16 31  2  0  0  0  0
 16 32  1  0  0  0  0
 17 19  2  0  0  0  0
 17 39  1  0  0  0  0
 18 20  2  0  0  0  0
 18 40  1  0  0  0  0
 19 48  1  0  0  0  0
 20 41  1  0  0  0  0
 21 81  1  0  0  0  0
 22 82  1  0  0  0  0
 23 25  2  0  0  0  0
 23 81  1  0  0  0  0
 24 83  1  0  0  0  0
 25 84  1  0  0  0  0
 26 61  2  0  0  0  0
 27 29  2  0  0  0  0
 27 62  1  0  0  0  0
 27 69  1  0  0  0  0
 28 30  1  0  0  0  0
 28 63  2  0  0  0  0
 28 70  1  0  0  0  0
 29 63  1  0  0  0  0
 29 85  1  0  0  0  0
 30 62  2  0  0  0  0
 30 86  1  0  0  0  0
 31 64  1  0  0  0  0
 31 67  1  0  0  0  0
 32 68  1  0  0  0  0
 32 74  2  0  0  0  0
 33 49  1  0  0  0  0
 33 71  1  0  0  0  0
 33 75  2  0  0  0  0
 34 56  1  0  0  0  0
 34 57  1  0  0  0  0
 34 76  2  0  0  0  0
 35 58  1  0  0  0  0
 35 65  1  0  0  0  0
 35 77  2  0  0  0  0
 36 56  1  0  0  0  0
 36 69  1  0  0  0  0
 36 78  2  0  0  0  0
 37 59  1  0  0  0  0
 37 72  1  0  0  0  0
 37 79  2  0  0  0  0
 38 66  1  0  0  0  0
 38 70  1  0  0  0  0
 38 80  2  0  0  0  0
 39 42  1  0  0  0  0
 40 49  1  0  0  0  0
 41 65  1  0  0  0  0
 42 44  1  0  0  0  0
 43 45  1  0  0  0  0
 43 46  1  0  0  0  0
 44 48  1  0  0  0  0
 45 50  1  0  0  0  0
 46 66  1  0  0  0  0
 47 50  1  0  0  0  0
 47 66  1  0  0  0  0
 48 71  1  0  0  0  0
 49 65  1  0  0  0  0
 50 64  1  0  0  0  0
 51 59  1  0  0  0  0
 52 60  1  0  0  0  0
 53 60  1  0  0  0  0
 54 60  1  0  0  0  0
 55 73  1  0  0  0  0
 57 82  1  0  0  0  0
 58 60  1  0  0  0  0
 58 72  1  0  0  0  0
 59 73  1  0  0  0  0
 61 64  1  0  0  0  0
M  CHG  1  73   1
M  ISO  4  38 100  57 101  70 100  82 101
M  END
> <Batch ID>
0178

> <Smiles>
CNC(C)C(=O)NC(C(=O)N1Cc2cc([101O:1][101CH2:1]C(=O)CC(=O)Nc3nc(F)c([100NH:0][100C:0](=O)N4CCCC(n5nc(-c6ccc(Oc7ccc(F)cc7F)cc6)c(C(N)=O)c5N)C4)nc3F)ccc2CC1C(=O)NC1CCCc2ccccc21)C(C)(C)C

> <Shape>
0.286

> <Color>
0.093

> <Negative vol penalty>
0.000

$$$$

  -OEChem-04052304443D

 84 92  0     1  0  0  0  0  0999 V2000
  -31.1717  -35.4310   16.6211 C   0  0  0  0  0  0  0  0  0  0  0  0
  -31.1111  -34.1330   17.1181 C   0  0  0  0  0  0  0  0  0  0  0  0
  -24.6901   -8.9553   21.7873 C   0  0  0  0  0  0  0  0  0  0  0  0
  -23.0708  -10.3711   20.6871 C   0  0  0  0  0  0  0  0  0  0  0  0
  -30.6334  -36.4846   17.3587 C   0  0  0  0  0  0  0  0  0  0  0  0
  -30.5129  -33.8881   18.3537 C   0  0  0  0  0  0  0  0  0  0  0  0
  -27.4330  -29.8693   18.2584 C   0  0  0  0  0  0  0  0  0  0  0  0
  -23.6636   -8.3335   22.4981 C   0  0  0  0  0  0  0  0  0  0  0  0
  -22.0443   -9.7493   21.3978 C   0  0  0  0  0  0  0  0  0  0  0  0
  -28.0285  -28.6096   18.3050 C   0  0  0  0  0  0  0  0  0  0  0  0
  -21.3157   -5.9685   21.9265 C   0  0  0  0  0  0  0  0  0  0  0  0
  -21.3393   -4.5767   22.0152 C   0  0  0  0  0  0  0  0  0  0  0  0
  -27.5329  -28.4692   20.6616 C   0  0  0  0  0  0  0  0  0  0  0  0
  -21.4573   -4.7321   24.4233 C   0  0  0  0  0  0  0  0  0  0  0  0
  -24.3938   -9.9741   20.8818 C   0  0  0  0  0  0  0  0  0  0  0  0
  -25.9724  -10.2373   18.8953 C   0  0  0  0  0  0  0  0  0  0  0  0
  -30.0197  -36.2511   18.5994 C   0  0  0  0  0  0  0  0  0  0  0  0
  -26.8918  -30.4441   19.4173 C   0  0  0  0  0  0  0  0  0  0  0  0
  -29.9670  -34.9397   19.1092 C   0  0  0  0  0  0  0  0  0  0  0  0
  -26.9289  -29.7353   20.6265 C   0  0  0  0  0  0  0  0  0  0  0  0
  -22.3407   -8.7305   22.3033 C   0  0  0  0  0  0  0  0  0  0  0  0
  -28.0811  -27.9105   19.5073 C   0  0  0  0  0  0  0  0  0  0  0  0
  -21.3630   -6.7421   23.0862 C   0  0  0  0  0  0  0  0  0  0  0  0
  -21.4101   -3.9585   23.2636 C   0  0  0  0  0  0  0  0  0  0  0  0
  -21.4338   -6.1239   24.3346 C   0  0  0  0  0  0  0  0  0  0  0  0
  -25.4538  -10.6172   20.1477 C   0  0  0  0  0  0  0  0  0  0  0  0
  -24.7629  -19.7230   18.0038 C   0  0  0  0  0  0  0  0  0  0  0  0
  -25.9460  -20.2349   18.4940 C   0  0  0  0  0  0  0  0  0  0  0  0
  -26.9550  -11.1612   18.6360 C   0  0  0  0  0  0  0  0  0  0  0  0
  -26.1735  -18.1642   19.1798 C   0  0  0  0  0  0  0  0  0  0  0  0
  -27.5686  -23.6234   18.4300 C   0  0  0  0  0  0  0  0  0  0  0  0
  -25.5991   -9.1469   18.0424 C   0  0  0  0  0  0  0  0  0  0  0  0
  -28.5882  -24.4366   18.7505 C   0  0  0  0  0  0  0  0  0  0  0  0
  -27.5190  -22.1739   18.8011 C   0  0  0  0  0  0  0  0  0  0  0  0
  -27.4972  -33.0618   21.1158 C   0  0  0  0  0  0  0  0  0  0  0  0
  -24.8488  -32.1435   22.7483 C   0  0  0  0  0  0  0  0  0  0  0  0
  -22.7440  -29.6208   23.6715 C   0  0  0  0  0  0  0  0  0  0  0  0
  -27.8538  -16.7830   20.4506 C   0  0  0  0  0  0  0  0  0  0  0  0
  -29.4939  -37.4282   19.3822 C   0  0  0  0  0  0  0  0  0  0  0  0
  -26.2292  -31.7925   19.3447 C   0  0  0  0  0  0  0  0  0  0  0  0
  -26.3442  -30.2995   21.8947 C   0  0  0  0  0  0  0  0  0  0  0  0
  -28.5439  -37.0341   20.5103 C   0  0  0  0  0  0  0  0  0  0  0  0
  -30.0768  -14.0320   20.8602 C   0  0  0  0  0  0  0  0  0  0  0  0
  -29.1216  -35.8733   21.3136 C   0  0  0  0  0  0  0  0  0  0  0  0
  -29.1921  -12.8098   20.6040 C   0  0  0  0  0  0  0  0  0  0  0  0
  -29.3197  -15.1358   21.5965 C   0  0  0  0  0  0  0  0  0  0  0  0
  -27.1679  -14.3186   20.7184 C   0  0  0  0  0  0  0  0  0  0  0  0
  -29.3042  -34.6305   20.4340 C   0  0  1  0  0  0  0  0  0  0  0  0
  -26.1683  -32.5017   20.6940 C   0  0  1  0  0  0  0  0  0  0  0  0
  -27.8680  -13.2056   19.9217 C   0  0  2  0  0  0  0  0  0  0  0  0
  -23.6780  -20.3809   17.2473 C   0  0  0  0  0  0  0  0  0  0  0  0
  -20.6898  -29.1709   25.0409 C   0  0  0  0  0  0  0  0  0  0  0  0
  -26.5150  -32.3128   25.2989 C   0  0  0  0  0  0  0  0  0  0  0  0
  -24.7473  -30.9724   26.4595 C   0  0  0  0  0  0  0  0  0  0  0  0
  -24.1905  -33.2109   25.5098 C   0  0  0  0  0  0  0  0  0  0  0  0
  -21.2285  -28.6923   21.3050 C   0  0  0  0  0  0  0  0  0  0  0  0
  -28.6037  -25.8878   18.3709 C   0  0  0  0  0  0  0  0  0  1  0  0
  -24.5826  -31.2636   23.9457 C   0  0  1  0  0  0  0  0  0  0  0  0
  -21.2294  -29.5184   23.6622 C   0  0  2  0  0  0  0  0  0  0  0  0
  -25.0217  -31.9298   25.2802 C   0  0  0  0  0  0  0  0  0  0  0  0
  -26.0572  -11.6980   20.6493 N   0  0  0  0  0  0  0  0  0  0  0  0
  -26.7560  -19.3426   19.1690 N   0  0  0  0  0  0  0  0  0  0  0  0
  -26.9652  -12.0052   19.7073 N   0  0  0  0  0  0  0  0  0  0  0  0
  -25.7127  -31.6239   21.7739 N   0  0  0  0  0  0  0  0  0  0  0  0
  -28.0787  -15.4613   20.8902 N   0  0  0  0  0  0  0  0  0  0  0  0
  -27.8029  -11.3258   17.5985 N   0  0  0  0  0  0  0  0  0  0  0  0
  -24.5694   -8.2933   18.4612 N   0  0  0  0  0  0  0  0  0  0  0  0
  -26.3484  -21.5845   18.3388 N   0  0  0  0  0  0  0  0  0  0  0  0
  -26.6548  -16.9656   19.7625 N   0  0  0  0  0  0  0  0  0  0  0  0
  -28.0341  -33.9696   20.2230 N   0  0  0  0  0  0  0  0  0  0  0  0
  -23.1671  -30.9149   23.8894 N   0  0  0  0  0  0  0  0  0  0  0  0
  -20.7873  -28.4649   22.7052 N   0  3  0  0  0  0  0  0  0  0  0  0
  -26.1731   -8.9260   16.9492 O   0  0  0  0  0  0  0  0  0  0  0  0
  -28.4242  -21.6397   19.4298 O   0  0  0  0  0  0  0  0  0  0  0  0
  -27.9977  -32.6984   22.1737 O   0  0  0  0  0  0  0  0  0  0  0  0
  -24.3045  -33.2482   22.6767 O   0  0  0  0  0  0  0  0  0  0  0  0
  -23.4783  -28.6492   23.5059 O   0  0  0  0  0  0  0  0  0  0  0  0
  -28.6777  -17.6805   20.6449 O   0  0  0  0  0  0  0  0  0  0  0  0
  -29.6836  -23.9987   19.4681 O   0  0  0  0  0  0  0  0  0  0  0  0
  -21.3387   -8.1238   22.9966 O   0  0  0  0  0  0  0  0  0  0  0  0
  -28.6623  -26.6810   19.5557 O   0  0  0  0  0  0  0  0  0  1  0  0
  -21.4311   -2.6219   23.3487 F   0  0  0  0  0  0  0  0  0  0  0  0
  -21.4783   -6.8619   25.4523 F   0  0  0  0  0  0  0  0  0  0  0  0
  -24.6504  -18.0573   18.3964 S   0  0  0  0  0  0  0  0  0  0  0  0
  1  2  1  0  0  0  0
  1  5  2  0  0  0  0
  2  6  2  0  0  0  0
  3  8  2  0  0  0  0
  3 15  1  0  0  0  0
  4  9  1  0  0  0  0
  4 15  2  0  0  0  0
  5 17  1  0  0  0  0
  6 19  1  0  0  0  0
  7 10  2  0  0  0  0
  7 18  1  0  0  0  0
  8 21  1  0  0  0  0
  9 21  2  0  0  0  0
 10 22  1  0  0  0  0
 11 12  2  0  0  0  0
 11 23  1  0  0  0  0
 12 24  1  0  0  0  0
 13 20  1  0  0  0  0
 13 22  2  0  0  0  0
 14 24  2  0  0  0  0
 14 25  1  0  0  0  0
 15 26  1  0  0  0  0
 16 26  1  0  0  0  0
 16 29  2  0  0  0  0
 16 32  1  0  0  0  0
 17 19  2  0  0  0  0
 17 39  1  0  0  0  0
 18 20  2  0  0  0  0
 18 40  1  0  0  0  0
 19 48  1  0  0  0  0
 20 41  1  0  0  0  0
 21 80  1  0  0  0  0
 22 81  1  0  0  0  0
 23 25  2  0  0  0  0
 23 80  1  0  0  0  0
 24 82  1  0  0  0  0
 25 83  1  0  0  0  0
 26 61  2  0  0  0  0
 27 28  2  0  0  0  0
 27 51  1  0  0  0  0
 27 84  1  0  0  0  0
 28 62  1  0  0  0  0
 28 68  1  0  0  0  0
 29 63  1  0  0  0  0
 29 66  1  0  0  0  0
 30 62  2  0  0  0  0
 30 69  1  0  0  0  0
 30 84  1  0  0  0  0
 31 33  2  0  0  0  0
 31 34  1  0  0  0  0
 32 67  1  0  0  0  0
 32 73  2  0  0  0  0
 33 57  1  0  0  0  0
 33 79  1  0  0  0  0
 34 68  1  0  0  0  0
 34 74  2  0  0  0  0
 35 49  1  0  0  0  0
 35 70  1  0  0  0  0
 35 75  2  0  0  0  0
 36 58  1  0  0  0  0
 36 64  1  0  0  0  0
 36 76  2  0  0  0  0
 37 59  1  0  0  0  0
 37 71  1  0  0  0  0
 37 77  2  0  0  0  0
 38 65  1  0  0  0  0
 38 69  1  0  0  0  0
 38 78  2  0  0  0  0
 39 42  1  0  0  0  0
 40 49  1  0  0  0  0
 41 64  1  0  0  0  0
 42 44  1  0  0  0  0
 43 45  1  0  0  0  0
 43 46  1  0  0  0  0
 44 48  1  0  0  0  0
 45 50  1  0  0  0  0
 46 65  1  0  0  0  0
 47 50  1  0  0  0  0
 47 65  1  0  0  0  0
 48 70  1  0  0  0  0
 49 64  1  0  0  0  0
 50 63  1  0  0  0  0
 52 59  1  0  0  0  0
 53 60  1  0  0  0  0
 54 60  1  0  0  0  0
 55 60  1  0  0  0  0
 56 72  1  0  0  0  0
 57 81  1  0  0  0  0
 58 60  1  0  0  0  0
 58 71  1  0  0  0  0
 59 72  1  0  0  0  0
 61 63  1  0  0  0  0
M  CHG  1  72   1
M  ISO  4  38 100  57 101  69 100  81 101
M  END
> <Batch ID>
0178

> <Smiles>
CNC(C)C(=O)NC(C(=O)N1Cc2cc([101O:1][101CH2:1]C(=O)CC(=O)Nc3nc([100NH:0][100C:0](=O)N4CCCC(n5nc(-c6ccc(Oc7ccc(F)cc7F)cc6)c(C(N)=O)c5N)C4)sc3C)ccc2CC1C(=O)NC1CCCc2ccccc21)C(C)(C)C

> <Shape>
0.271

> <Color>
0.093

> <Negative vol penalty>
0.000

$$$$

  -OEChem-04052304443D

 82 90  0     1  0  0  0  0  0999 V2000
  -27.4720  -35.9174   22.3718 C   0  0  0  0  0  0  0  0  0  0  0  0
  -27.8158  -34.5708   22.3108 C   0  0  0  0  0  0  0  0  0  0  0  0
  -23.7046   -9.7512   22.7441 C   0  0  0  0  0  0  0  0  0  0  0  0
  -23.6639  -10.0669   20.3492 C   0  0  0  0  0  0  0  0  0  0  0  0
  -26.2019  -36.2923   22.8079 C   0  0  0  0  0  0  0  0  0  0  0  0
  -26.8900  -33.5982   22.6870 C   0  0  0  0  0  0  0  0  0  0  0  0
  -26.7119  -29.7231   19.4317 C   0  0  0  0  0  0  0  0  0  0  0  0
  -22.8684   -8.6426   22.6122 C   0  0  0  0  0  0  0  0  0  0  0  0
  -22.8278   -8.9583   20.2172 C   0  0  0  0  0  0  0  0  0  0  0  0
  -27.7306  -28.7749   19.5142 C   0  0  0  0  0  0  0  0  0  0  0  0
  -23.1619   -5.3925   21.7268 C   0  0  0  0  0  0  0  0  0  0  0  0
  -23.4880   -4.2449   22.4494 C   0  0  0  0  0  0  0  0  0  0  0  0
  -26.2647  -27.3169   20.7569 C   0  0  0  0  0  0  0  0  0  0  0  0
  -21.3642   -4.3629   23.5952 C   0  0  0  0  0  0  0  0  0  0  0  0
  -29.3146  -18.1631   18.9216 C   0  0  0  0  0  0  0  0  0  0  0  0
  -24.1023  -10.4634   21.6126 C   0  0  0  0  0  0  0  0  0  0  0  0
  -26.3731  -11.6202   21.7257 C   0  0  0  0  0  0  0  0  0  0  0  0
  -25.2568  -35.3235   23.1804 C   0  0  0  0  0  0  0  0  0  0  0  0
  -25.4632  -29.4795   20.0216 C   0  0  0  0  0  0  0  0  0  0  0  0
  -25.6065  -33.9606   23.1298 C   0  0  0  0  0  0  0  0  0  0  0  0
  -25.2309  -28.2625   20.6783 C   0  0  0  0  0  0  0  0  0  0  0  0
  -22.4300   -8.2461   21.3488 C   0  0  0  0  0  0  0  0  0  0  0  0
  -27.5081  -27.5728   20.1794 C   0  0  0  0  0  0  0  0  0  0  0  0
  -21.9369   -6.0254   21.9384 C   0  0  0  0  0  0  0  0  0  0  0  0
  -22.5892   -3.7301   23.3836 C   0  0  0  0  0  0  0  0  0  0  0  0
  -21.0381   -5.5106   22.8726 C   0  0  0  0  0  0  0  0  0  0  0  0
  -24.9656  -11.6090   21.7483 C   0  0  0  0  0  0  0  0  0  0  0  0
  -28.2118  -18.6841   19.5652 C   0  0  0  0  0  0  0  0  0  0  0  0
  -26.7087  -12.9415   21.8934 C   0  0  0  0  0  0  0  0  0  0  0  0
  -29.2886  -20.5571   19.1877 C   0  0  0  0  0  0  0  0  0  0  0  0
  -28.8459  -22.9299   19.6769 C   0  0  0  0  0  0  0  0  0  0  0  0
  -27.2948  -10.5335   21.5673 C   0  0  0  0  0  0  0  0  0  0  0  0
  -29.6479  -21.9884   19.1478 C   0  0  0  0  0  0  0  0  0  0  0  0
  -29.1509  -24.3928   19.6768 C   0  0  0  0  0  0  0  0  0  0  0  0
  -23.7602  -30.8639   22.3209 C   0  0  0  0  0  0  0  0  0  0  0  0
  -21.5036  -28.7224   21.4022 C   0  0  0  0  0  0  0  0  0  0  0  0
  -20.7768  -25.7369   19.9170 C   0  0  0  0  0  0  0  0  0  0  0  0
  -25.9959  -18.3359   20.7121 C   0  0  0  0  0  0  0  0  0  0  0  0
  -23.9125  -35.7791   23.6903 C   0  0  0  0  0  0  0  0  0  0  0  0
  -24.3662  -30.5013   19.9007 C   0  0  0  0  0  0  0  0  0  0  0  0
  -23.9018  -27.9439   21.3109 C   0  0  0  0  0  0  0  0  0  0  0  0
  -22.8628  -34.6710   23.7146 C   0  0  0  0  0  0  0  0  0  0  0  0
  -23.8651  -16.9233   23.1903 C   0  0  0  0  0  0  0  0  0  0  0  0
  -23.4411  -33.4013   24.3313 C   0  0  0  0  0  0  0  0  0  0  0  0
  -24.0773  -15.4157   23.0342 C   0  0  0  0  0  0  0  0  0  0  0  0
  -23.8946  -17.6426   21.8429 C   0  0  0  0  0  0  0  0  0  0  0  0
  -25.2939  -15.8662   20.8653 C   0  0  0  0  0  0  0  0  0  0  0  0
  -24.6214  -32.8752   23.5058 C   0  0  1  0  0  0  0  0  0  0  0  0
  -23.2987  -30.3627   20.9817 C   0  0  1  0  0  0  0  0  0  0  0  0
  -25.3370  -15.1071   22.2015 C   0  0  2  0  0  0  0  0  0  0  0  0
  -18.8461  -24.2382   19.3480 C   0  0  0  0  0  0  0  0  0  0  0  0
  -21.3301  -27.8428   24.3187 C   0  0  0  0  0  0  0  0  0  0  0  0
  -20.1449  -25.7750   23.5520 C   0  0  0  0  0  0  0  0  0  0  0  0
  -19.1267  -28.0162   23.1485 C   0  0  0  0  0  0  0  0  0  0  0  0
  -21.3377  -25.9217   17.0170 C   0  0  0  0  0  0  0  0  0  0  0  0
  -28.1067  -25.2759   20.3278 C   0  0  0  0  0  0  0  0  0  1  0  0
  -21.1449  -27.3107   21.7991 C   0  0  1  0  0  0  0  0  0  0  0  0
  -19.7517  -25.3595   18.8629 C   0  0  2  0  0  0  0  0  0  0  0  0
  -20.4624  -27.2427   23.1944 C   0  0  0  0  0  0  0  0  0  0  0  0
  -24.4429  -12.8265   21.9172 N   0  0  0  0  0  0  0  0  0  0  0  0
  -28.1952  -20.0567   19.7191 N   0  0  0  0  0  0  0  0  0  0  0  0
  -25.5278  -13.6151   22.0024 N   0  0  0  0  0  0  0  0  0  0  0  0
  -22.8628  -28.9776   21.1713 N   0  0  0  0  0  0  0  0  0  0  0  0
  -25.1183  -17.3060   21.1121 N   0  0  0  0  0  0  0  0  0  0  0  0
  -27.8958  -13.5812   21.9569 N   0  0  0  0  0  0  0  0  0  0  0  0
  -26.7809   -9.2396   21.4062 N   0  0  0  0  0  0  0  0  0  0  0  0
  -27.1424  -17.8929   20.0533 N   0  0  0  0  0  0  0  0  0  0  0  0
  -24.1455  -32.1909   22.3227 N   0  0  0  0  0  0  0  0  0  0  0  0
  -20.3348  -26.7741   20.7109 N   0  0  0  0  0  0  0  0  0  0  0  0
  -20.4326  -24.9077   17.6166 N   0  3  0  0  0  0  0  0  0  0  0  0
  -28.5376  -10.7026   21.5850 O   0  0  0  0  0  0  0  0  0  0  0  0
  -30.1778  -24.8479   19.1820 O   0  0  0  0  0  0  0  0  0  0  0  0
  -23.7649  -30.1034   23.2818 O   0  0  0  0  0  0  0  0  0  0  0  0
  -20.6099  -29.5657   21.2938 O   0  0  0  0  0  0  0  0  0  0  0  0
  -21.8596  -25.1662   20.0277 O   0  0  0  0  0  0  0  0  0  0  0  0
  -25.7620  -19.5212   20.9614 O   0  0  0  0  0  0  0  0  0  0  0  0
  -30.8645  -22.2399   18.5492 O   0  0  0  0  0  0  0  0  0  0  0  0
  -21.6143   -7.1642   21.2196 O   0  0  0  0  0  0  0  0  0  0  0  0
  -28.5009  -26.6458   20.2619 O   0  0  0  0  0  0  0  0  0  1  0  0
  -22.9019   -2.6272   24.0764 F   0  0  0  0  0  0  0  0  0  0  0  0
  -19.8594   -6.1135   23.0794 F   0  0  0  0  0  0  0  0  0  0  0  0
  -30.3799  -19.4344   18.4852 S   0  0  0  0  0  0  0  0  0  0  0  0
  1  2  1  0  0  0  0
  1  5  2  0  0  0  0
  2  6  2  0  0  0  0
  3  8  2  0  0  0  0
  3 16  1  0  0  0  0
  4  9  1  0  0  0  0
  4 16  2  0  0  0  0
  5 18  1  0  0  0  0
  6 20  1  0  0  0  0
  7 10  2  0  0  0  0
  7 19  1  0  0  0  0
  8 22  1  0  0  0  0
  9 22  2  0  0  0  0
 10 23  1  0  0  0  0
 11 12  2  0  0  0  0
 11 24  1  0  0  0  0
 12 25  1  0  0  0  0
 13 21  1  0  0  0  0
 13 23  2  0  0  0  0
 14 25  2  0  0  0  0
 14 26  1  0  0  0  0
 15 28  2  0  0  0  0
 15 82  1  0  0  0  0
 16 27  1  0  0  0  0
 17 27  1  0  0  0  0
 17 29  2  0  0  0  0
 17 32  1  0  0  0  0
 18 20  2  0  0  0  0
 18 39  1  0  0  0  0
 19 21  2  0  0  0  0
 19 40  1  0  0  0  0
 20 48  1  0  0  0  0
 21 41  1  0  0  0  0
 22 78  1  0  0  0  0
 23 79  1  0  0  0  0
 24 26  2  0  0  0  0
 24 78  1  0  0  0  0
 25 80  1  0  0  0  0
 26 81  1  0  0  0  0
 27 60  2  0  0  0  0
 28 61  1  0  0  0  0
 28 67  1  0  0  0  0
 29 62  1  0  0  0  0
 29 65  1  0  0  0  0
 30 33  1  0  0  0  0
 30 61  2  0  0  0  0
 30 82  1  0  0  0  0
 31 33  2  0  0  0  0
 31 34  1  0  0  0  0
 32 66  1  0  0  0  0
 32 71  2  0  0  0  0
 33 77  1  0  0  0  0
 34 56  1  0  0  0  0
 34 72  2  0  0  0  0
 35 49  1  0  0  0  0
 35 68  1  0  0  0  0
 35 73  2  0  0  0  0
 36 57  1  0  0  0  0
 36 63  1  0  0  0  0
 36 74  2  0  0  0  0
 37 58  1  0  0  0  0
 37 69  1  0  0  0  0
 37 75  2  0  0  0  0
 38 64  1  0  0  0  0
 38 67  1  0  0  0  0
 38 76  2  0  0  0  0
 39 42  1  0  0  0  0
 40 49  1  0  0  0  0
 41 63  1  0  0  0  0
 42 44  1  0  0  0  0
 43 45  1  0  0  0  0
 43 46  1  0  0  0  0
 44 48  1  0  0  0  0
 45 50  1  0  0  0  0
 46 64  1  0  0  0  0
 47 50  1  0  0  0  0
 47 64  1  0  0  0  0
 48 68  1  0  0  0  0
 49 63  1  0  0  0  0
 50 62  1  0  0  0  0
 51 58  1  0  0  0  0
 52 59  1  0  0  0  0
 53 59  1  0  0  0  0
 54 59  1  0  0  0  0
 55 70  1  0  0  0  0
 56 79  1  0  0  0  0
 57 59  1  0  0  0  0
 57 69  1  0  0  0  0
 58 70  1  0  0  0  0
 60 62  1  0  0  0  0
M  CHG  1  70   1
M  ISO  4  38 100  56 101  67 100  79 101
M  END
> <Batch ID>
0178

> <Smiles>
CNC(C)C(=O)NC(C(=O)N1Cc2cc([101O:1][101CH2:1]C(=O)CC(=O)c3nc([100NH:0][100C:0](=O)N4CCCC(n5nc(-c6ccc(Oc7ccc(F)cc7F)cc6)c(C(N)=O)c5N)C4)cs3)ccc2CC1C(=O)NC1CCCc2ccccc21)C(C)(C)C

> <Shape>
0.318

> <Color>
0.100

> <Negative vol penalty>
0.000

$$$$

  -OEChem-04052304443D

 83 91  0     1  0  0  0  0  0999 V2000
  -37.3445  -34.2998   21.7558 C   0  0  0  0  0  0  0  0  0  0  0  0
  -37.0393  -32.9654   22.0038 C   0  0  0  0  0  0  0  0  0  0  0  0
  -23.0918   -9.8415   19.9379 C   0  0  0  0  0  0  0  0  0  0  0  0
  -23.8339   -9.8710   22.2369 C   0  0  0  0  0  0  0  0  0  0  0  0
  -36.5456  -35.3080   22.2934 C   0  0  0  0  0  0  0  0  0  0  0  0
  -35.9355  -32.6384   22.7907 C   0  0  0  0  0  0  0  0  0  0  0  0
  -32.2415  -27.7997   22.1221 C   0  0  0  0  0  0  0  0  0  0  0  0
  -22.3531   -8.6858   20.1911 C   0  0  0  0  0  0  0  0  0  0  0  0
  -23.0951   -8.7152   22.4902 C   0  0  0  0  0  0  0  0  0  0  0  0
  -32.1947  -26.5603   22.7588 C   0  0  0  0  0  0  0  0  0  0  0  0
  -19.8673   -7.9023   23.0741 C   0  0  0  0  0  0  0  0  0  0  0  0
  -19.1016   -7.8668   24.2394 C   0  0  0  0  0  0  0  0  0  0  0  0
  -30.5135  -27.4060   24.2681 C   0  0  0  0  0  0  0  0  0  0  0  0
  -20.3491   -5.9428   25.0005 C   0  0  0  0  0  0  0  0  0  0  0  0
  -23.8323  -10.4341   20.9608 C   0  0  0  0  0  0  0  0  0  0  0  0
  -24.1596  -12.9603   20.8237 C   0  0  0  0  0  0  0  0  0  0  0  0
  -35.4258  -34.9931   23.0793 C   0  0  0  0  0  0  0  0  0  0  0  0
  -31.4312  -28.8566   22.5613 C   0  0  0  0  0  0  0  0  0  0  0  0
  -35.1216  -33.6434   23.3405 C   0  0  0  0  0  0  0  0  0  0  0  0
  -30.5501  -28.6570   23.6336 C   0  0  0  0  0  0  0  0  0  0  0  0
  -22.3547   -8.1227   21.4672 C   0  0  0  0  0  0  0  0  0  0  0  0
  -31.3327  -26.3641   23.8338 C   0  0  0  0  0  0  0  0  0  0  0  0
  -20.8739   -6.9580   22.8719 C   0  0  0  0  0  0  0  0  0  0  0  0
  -19.3425   -6.8870   25.2026 C   0  0  0  0  0  0  0  0  0  0  0  0
  -21.1148   -5.9783   23.8351 C   0  0  0  0  0  0  0  0  0  0  0  0
  -24.5961  -11.6276   20.6996 C   0  0  0  0  0  0  0  0  0  0  0  0
  -31.7427  -17.6202   21.7303 C   0  0  0  0  0  0  0  0  0  0  0  0
  -25.2500  -13.7136   20.4629 C   0  0  0  0  0  0  0  0  0  0  0  0
  -30.5424  -16.9706   21.9291 C   0  0  0  0  0  0  0  0  0  0  0  0
  -30.7618  -19.1194   22.9954 C   0  0  0  0  0  0  0  0  0  0  0  0
  -31.0629  -21.5198   23.4571 C   0  0  0  0  0  0  0  0  0  0  0  0
  -22.8828  -13.4715   21.2288 C   0  0  0  0  0  0  0  0  0  0  0  0
  -30.4993  -20.3419   23.7803 C   0  0  0  0  0  0  0  0  0  0  0  0
  -30.8359  -22.7946   24.2029 C   0  0  0  0  0  0  0  0  0  0  0  0
  -31.9732  -31.7537   23.7517 C   0  0  0  0  0  0  0  0  0  0  0  0
  -28.7501  -32.0295   23.5111 C   0  0  0  0  0  0  0  0  0  0  0  0
  -25.7128  -30.4804   23.3630 C   0  0  0  0  0  0  0  0  0  0  0  0
  -30.7082  -14.7940   20.6715 C   0  0  0  0  0  0  0  0  0  0  0  0
  -34.6194  -36.1182   23.6780 C   0  0  0  0  0  0  0  0  0  0  0  0
  -31.4742  -30.1795   21.8467 C   0  0  0  0  0  0  0  0  0  0  0  0
  -29.6448  -29.7533   24.1307 C   0  0  0  0  0  0  0  0  0  0  0  0
  -33.2502  -35.6802   24.1914 C   0  0  0  0  0  0  0  0  0  0  0  0
  -29.6268  -12.3553   18.3135 C   0  0  0  0  0  0  0  0  0  0  0  0
  -33.3731  -34.4034   25.0170 C   0  0  0  0  0  0  0  0  0  0  0  0
  -28.1857  -12.0582   18.7343 C   0  0  0  0  0  0  0  0  0  0  0  0
  -30.5312  -12.5989   19.5203 C   0  0  0  0  0  0  0  0  0  0  0  0
  -28.6093  -13.3223   20.8813 C   0  0  0  0  0  0  0  0  0  0  0  0
  -33.9183  -33.2482   24.1686 C   0  0  1  0  0  0  0  0  0  0  0  0
  -30.9779  -31.3387   22.7053 C   0  0  1  0  0  0  0  0  0  0  0  0
  -27.6466  -13.1340   19.6974 C   0  0  2  0  0  0  0  0  0  0  0  0
  -23.2567  -30.9712   23.2069 C   0  0  0  0  0  0  0  0  0  0  0  0
  -28.7232  -32.8200   26.4580 C   0  0  0  0  0  0  0  0  0  0  0  0
  -26.2605  -32.3699   26.4844 C   0  0  0  0  0  0  0  0  0  0  0  0
  -27.1847  -34.1539   25.0060 C   0  0  0  0  0  0  0  0  0  0  0  0
  -25.4705  -29.0404   20.7888 C   0  0  0  0  0  0  0  0  0  0  0  0
  -31.5721  -24.0040   23.6650 C   0  0  0  0  0  0  0  0  0  1  0  0
  -27.5807  -31.7274   24.4167 C   0  0  1  0  0  0  0  0  0  0  0  0
  -24.5296  -30.6702   22.4310 C   0  0  2  0  0  0  0  0  0  0  0  0
  -27.4556  -32.7475   25.5834 C   0  0  0  0  0  0  0  0  0  0  0  0
  -25.8647  -11.5363   20.2918 N   0  0  0  0  0  0  0  0  0  0  0  0
  -31.8701  -18.8527   22.3406 N   0  0  0  0  0  0  0  0  0  0  0  0
  -26.2347  -12.8212   20.1564 N   0  0  0  0  0  0  0  0  0  0  0  0
  -29.7280  -31.0305   23.4032 N   0  0  0  0  0  0  0  0  0  0  0  0
  -29.9592  -13.6330   20.3854 N   0  0  0  0  0  0  0  0  0  0  0  0
  -25.4528  -15.0458   20.3811 N   0  0  0  0  0  0  0  0  0  0  0  0
  -21.8739  -12.5588   21.5654 N   0  0  0  0  0  0  0  0  0  0  0  0
  -30.0490  -15.7214   21.4777 N   0  0  0  0  0  0  0  0  0  0  0  0
  -32.8764  -32.7072   23.3223 N   0  0  0  0  0  0  0  0  0  0  0  0
  -26.4050  -31.6572   23.5557 N   0  0  0  0  0  0  0  0  0  0  0  0
  -24.3061  -29.4398   21.6204 N   0  3  0  0  0  0  0  0  0  0  0  0
  -22.6387  -14.7011   21.2747 O   0  0  0  0  0  0  0  0  0  0  0  0
  -30.1029  -22.8572   25.1855 O   0  0  0  0  0  0  0  0  0  0  0  0
  -31.9243  -31.2473   24.8665 O   0  0  0  0  0  0  0  0  0  0  0  0
  -28.7907  -33.1090   22.9155 O   0  0  0  0  0  0  0  0  0  0  0  0
  -25.9925  -29.3974   23.8722 O   0  0  0  0  0  0  0  0  0  0  0  0
  -31.8398  -14.9661   20.2113 O   0  0  0  0  0  0  0  0  0  0  0  0
  -29.6253  -20.1518   24.8300 O   0  0  0  0  0  0  0  0  0  0  0  0
  -21.6338   -6.9950   21.7148 O   0  0  0  0  0  0  0  0  0  0  0  0
  -31.2855  -25.1556   24.4575 O   0  0  0  0  0  0  0  0  0  1  0  0
  -18.6081   -6.8540   26.3224 F   0  0  0  0  0  0  0  0  0  0  0  0
  -22.0812   -5.0691   23.6470 F   0  0  0  0  0  0  0  0  0  0  0  0
  -32.7270  -17.0946   20.9925 F   0  0  0  0  0  0  0  0  0  0  0  0
  -29.5253  -17.9318   22.9204 S   0  0  0  0  0  0  0  0  0  0  0  0
  1  2  1  0  0  0  0
  1  5  2  0  0  0  0
  2  6  2  0  0  0  0
  3  8  2  0  0  0  0
  3 15  1  0  0  0  0
  4  9  1  0  0  0  0
  4 15  2  0  0  0  0
  5 17  1  0  0  0  0
  6 19  1  0  0  0  0
  7 10  2  0  0  0  0
  7 18  1  0  0  0  0
  8 21  1  0  0  0  0
  9 21  2  0  0  0  0
 10 22  1  0  0  0  0
 11 12  2  0  0  0  0
 11 23  1  0  0  0  0
 12 24  1  0  0  0  0
 13 20  1  0  0  0  0
 13 22  2  0  0  0  0
 14 24  2  0  0  0  0
 14 25  1  0  0  0  0
 15 26  1  0  0  0  0
 16 26  1  0  0  0  0
 16 28  2  0  0  0  0
 16 32  1  0  0  0  0
 17 19  2  0  0  0  0
 17 39  1  0  0  0  0
 18 20  2  0  0  0  0
 18 40  1  0  0  0  0
 19 48  1  0  0  0  0
 20 41  1  0  0  0  0
 21 78  1  0  0  0  0
 22 79  1  0  0  0  0
 23 25  2  0  0  0  0
 23 78  1  0  0  0  0
 24 80  1  0  0  0  0
 25 81  1  0  0  0  0
 26 60  2  0  0  0  0
 27 29  2  0  0  0  0
 27 61  1  0  0  0  0
 27 82  1  0  0  0  0
 28 62  1  0  0  0  0
 28 65  1  0  0  0  0
 29 67  1  0  0  0  0
 29 83  1  0  0  0  0
 30 33  1  0  0  0  0
 30 61  2  0  0  0  0
 30 83  1  0  0  0  0
 31 33  2  0  0  0  0
 31 34  1  0  0  0  0
 32 66  1  0  0  0  0
 32 71  2  0  0  0  0
 33 77  1  0  0  0  0
 34 56  1  0  0  0  0
 34 72  2  0  0  0  0
 35 49  1  0  0  0  0
 35 68  1  0  0  0  0
 35 73  2  0  0  0  0
 36 57  1  0  0  0  0
 36 63  1  0  0  0  0
 36 74  2  0  0  0  0
 37 58  1  0  0  0  0
 37 69  1  0  0  0  0
 37 75  2  0  0  0  0
 38 64  1  0  0  0  0
 38 67  1  0  0  0  0
 38 76  2  0  0  0  0
 39 42  1  0  0  0  0
 40 49  1  0  0  0  0
 41 63  1  0  0  0  0
 42 44  1  0  0  0  0
 43 45  1  0  0  0  0
 43 46  1  0  0  0  0
 44 48  1  0  0  0  0
 45 50  1  0  0  0  0
 46 64  1  0  0  0  0
 47 50  1  0  0  0  0
 47 64  1  0  0  0  0
 48 68  1  0  0  0  0
 49 63  1  0  0  0  0
 50 62  1  0  0  0  0
 51 58  1  0  0  0  0
 52 59  1  0  0  0  0
 53 59  1  0  0  0  0
 54 59  1  0  0  0  0
 55 70  1  0  0  0  0
 56 79  1  0  0  0  0
 57 59  1  0  0  0  0
 57 69  1  0  0  0  0
 58 70  1  0  0  0  0
 60 62  1  0  0  0  0
M  CHG  1  70   1
M  ISO  4  38 100  56 101  67 100  79 101
M  END
> <Batch ID>
0178

> <Smiles>
CNC(C)C(=O)NC(C(=O)N1Cc2cc([101O:1][101CH2:1]C(=O)CC(=O)c3nc(F)c([100NH:0][100C:0](=O)N4CCCC(n5nc(-c6ccc(Oc7ccc(F)cc7F)cc6)c(C(N)=O)c5N)C4)s3)ccc2CC1C(=O)NC1CCCc2ccccc21)C(C)(C)C

> <Shape>
0.249

> <Color>
0.188

> <Negative vol penalty>
0.000

$$$$

  -OEChem-04052304443D

 85 93  0     1  0  0  0  0  0999 V2000
  -19.9744  -22.5647   20.1792 C   0  0  0  0  0  0  0  0  0  0  0  0
  -21.3623  -22.4689   20.1738 C   0  0  0  0  0  0  0  0  0  0  0  0
  -23.2092   -9.9775   22.5663 C   0  0  0  0  0  0  0  0  0  0  0  0
  -23.6742   -9.7422   20.2071 C   0  0  0  0  0  0  0  0  0  0  0  0
  -19.3482  -23.6347   19.5414 C   0  0  0  0  0  0  0  0  0  0  0  0
  -22.1247  -23.4427   19.5297 C   0  0  0  0  0  0  0  0  0  0  0  0
  -27.6211  -25.5382   21.2339 C   0  0  0  0  0  0  0  0  0  0  0  0
  -22.4332   -8.8191   22.5289 C   0  0  0  0  0  0  0  0  0  0  0  0
  -22.8982   -8.5837   20.1698 C   0  0  0  0  0  0  0  0  0  0  0  0
  -28.9141  -25.2308   20.8125 C   0  0  0  0  0  0  0  0  0  0  0  0
  -22.9460   -5.4771   22.5045 C   0  0  0  0  0  0  0  0  0  0  0  0
  -23.1247   -4.5439   23.5257 C   0  0  0  0  0  0  0  0  0  0  0  0
  -28.8646  -27.1147   19.3066 C   0  0  0  0  0  0  0  0  0  0  0  0
  -28.2618  -19.6052   18.0876 C   0  0  0  0  0  0  0  0  0  0  0  0
  -20.8049   -4.7881   24.1549 C   0  0  0  0  0  0  0  0  0  0  0  0
  -29.4089  -17.6677   18.0773 C   0  0  0  0  0  0  0  0  0  0  0  0
  -23.8297  -10.4391   21.4054 C   0  0  0  0  0  0  0  0  0  0  0  0
  -26.0111  -11.7272   21.7059 C   0  0  0  0  0  0  0  0  0  0  0  0
  -20.1037  -24.6272   18.8974 C   0  0  0  0  0  0  0  0  0  0  0  0
  -26.9349  -26.6315   20.6859 C   0  0  0  0  0  0  0  0  0  0  0  0
  -21.5080  -24.5263   18.8816 C   0  0  0  0  0  0  0  0  0  0  0  0
  -27.5640  -27.4353   19.7246 C   0  0  0  0  0  0  0  0  0  0  0  0
  -28.1752  -18.2158   18.3506 C   0  0  0  0  0  0  0  0  0  0  0  0
  -22.2777   -8.1222   21.3307 C   0  0  0  0  0  0  0  0  0  0  0  0
  -29.5349  -26.0174   19.8466 C   0  0  0  0  0  0  0  0  0  0  0  0
  -21.6967   -6.0659   22.3086 C   0  0  0  0  0  0  0  0  0  0  0  0
  -22.0542   -4.1994   24.3508 C   0  0  0  0  0  0  0  0  0  0  0  0
  -20.6262   -5.7214   23.1338 C   0  0  0  0  0  0  0  0  0  0  0  0
  -24.6310  -11.6360   21.4432 C   0  0  0  0  0  0  0  0  0  0  0  0
  -29.5459  -19.8638   17.6613 C   0  0  0  0  0  0  0  0  0  0  0  0
  -26.2879  -13.0701   21.6257 C   0  0  0  0  0  0  0  0  0  0  0  0
  -26.9581  -10.6906   21.9965 C   0  0  0  0  0  0  0  0  0  0  0  0
  -30.4703  -23.4062   16.7811 C   0  0  0  0  0  0  0  0  0  0  0  0
  -29.5331  -22.3275   17.2443 C   0  0  0  0  0  0  0  0  0  0  0  0
  -24.2611  -26.9876   19.0045 C   0  0  0  0  0  0  0  0  0  0  0  0
  -24.8811  -30.1443   19.4210 C   0  0  0  0  0  0  0  0  0  0  0  0
  -27.1830  -32.5889   20.0311 C   0  0  0  0  0  0  0  0  0  0  0  0
  -25.7790  -18.0059   19.0995 C   0  0  0  0  0  0  0  0  0  0  0  0
  -19.3802  -25.7399   18.1811 C   0  0  0  0  0  0  0  0  0  0  0  0
  -25.5508  -26.9656   21.1706 C   0  0  0  0  0  0  0  0  0  0  0  0
  -26.8781  -28.6321   19.1198 C   0  0  0  0  0  0  0  0  0  0  0  0
  -20.2750  -26.9295   17.8427 C   0  0  0  0  0  0  0  0  0  0  0  0
  -23.1874  -17.0618   21.3510 C   0  0  0  0  0  0  0  0  0  0  0  0
  -21.5879  -26.4526   17.2297 C   0  0  0  0  0  0  0  0  0  0  0  0
  -23.4455  -15.5735   21.5973 C   0  0  0  0  0  0  0  0  0  0  0  0
  -23.4938  -17.4593   19.9081 C   0  0  0  0  0  0  0  0  0  0  0  0
  -25.0894  -15.5964   19.6779 C   0  0  0  0  0  0  0  0  0  0  0  0
  -22.3704  -25.5759   18.2149 C   0  0  1  0  0  0  0  0  0  0  0  0
  -24.7522  -27.7969   20.1713 C   0  0  1  0  0  0  0  0  0  0  0  0
  -24.8568  -15.1621   21.1343 C   0  0  2  0  0  0  0  0  0  0  0  0
  -27.3959  -35.0772   20.2760 C   0  0  0  0  0  0  0  0  0  0  0  0
  -24.6635  -30.4584   16.3938 C   0  0  0  0  0  0  0  0  0  0  0  0
  -25.7968  -32.6801   16.6129 C   0  0  0  0  0  0  0  0  0  0  0  0
  -23.5915  -32.2930   17.7127 C   0  0  0  0  0  0  0  0  0  0  0  0
  -31.6183  -18.4992   17.2774 C   0  0  0  0  0  0  0  0  0  0  0  0
  -28.1549  -32.3481   22.8161 C   0  0  0  0  0  0  0  0  0  0  0  0
  -31.7082  -23.6331   17.6187 C   0  0  0  0  0  0  0  0  0  0  0  0
  -32.1894  -25.0804   17.5863 C   0  0  0  0  0  0  0  0  0  0  0  0
  -31.1381  -26.0621   18.0906 C   0  0  0  0  0  0  0  0  0  1  0  0
  -25.6598  -31.1903   18.6605 C   0  0  1  0  0  0  0  0  0  0  0  0
  -27.1784  -33.7576   20.9998 C   0  0  2  0  0  0  0  0  0  0  0  0
  -24.9404  -31.6318   17.3548 C   0  0  0  0  0  0  0  0  0  0  0  0
  -24.0702  -12.8263   21.2134 N   0  0  0  0  0  0  0  0  0  0  0  0
  -30.2341  -18.6787   17.6587 N   0  0  0  0  0  0  0  0  0  0  0  0
  -25.1029  -13.6780   21.3316 N   0  0  0  0  0  0  0  0  0  0  0  0
  -25.5231  -28.9141   19.6218 N   0  0  0  0  0  0  0  0  0  0  0  0
  -24.8486  -17.0415   19.5410 N   0  0  0  0  0  0  0  0  0  0  0  0
  -27.4269  -13.7784   21.7788 N   0  0  0  0  0  0  0  0  0  0  0  0
  -26.5052   -9.3650   22.0402 N   0  0  0  0  0  0  0  0  0  0  0  0
  -27.0443  -17.4962   18.8100 N   0  0  0  0  0  0  0  0  0  0  0  0
  -30.1378  -21.0892   17.2758 N   0  0  0  0  0  0  0  0  0  0  0  0
  -23.0289  -26.3965   19.2086 N   0  0  0  0  0  0  0  0  0  0  0  0
  -25.9105  -32.2768   19.6013 N   0  0  0  0  0  0  0  0  0  0  0  0
  -28.2584  -33.5941   22.0137 N   0  3  0  0  0  0  0  0  0  0  0  0
  -28.1668  -10.9344   22.2271 O   0  0  0  0  0  0  0  0  0  0  0  0
  -30.1722  -24.0065   15.7594 O   0  0  0  0  0  0  0  0  0  0  0  0
  -28.3901  -22.6701   17.4980 O   0  0  0  0  0  0  0  0  0  0  0  0
  -24.9484  -26.9068   17.9932 O   0  0  0  0  0  0  0  0  0  0  0  0
  -23.7478  -30.4114   19.8284 O   0  0  0  0  0  0  0  0  0  0  0  0
  -28.2127  -32.0129   19.6869 O   0  0  0  0  0  0  0  0  0  0  0  0
  -25.4836  -19.2005   19.0125 O   0  0  0  0  0  0  0  0  0  0  0  0
  -21.5207   -6.9916   21.2939 O   0  0  0  0  0  0  0  0  0  0  0  0
  -30.7967  -25.7193   19.4330 O   0  0  0  0  0  0  0  0  0  1  0  0
  -22.2256   -3.3020   25.3304 F   0  0  0  0  0  0  0  0  0  0  0  0
  -19.4234   -6.2828   22.9496 F   0  0  0  0  0  0  0  0  0  0  0  0
  1  2  1  0  0  0  0
  1  5  2  0  0  0  0
  2  6  2  0  0  0  0
  3  8  2  0  0  0  0
  3 17  1  0  0  0  0
  4  9  1  0  0  0  0
  4 17  2  0  0  0  0
  5 19  1  0  0  0  0
  6 21  1  0  0  0  0
  7 10  2  0  0  0  0
  7 20  1  0  0  0  0
  8 24  1  0  0  0  0
  9 24  2  0  0  0  0
 10 25  1  0  0  0  0
 11 12  2  0  0  0  0
 11 26  1  0  0  0  0
 12 27  1  0  0  0  0
 13 22  1  0  0  0  0
 13 25  2  0  0  0  0
 14 23  1  0  0  0  0
 14 30  2  0  0  0  0
 15 27  2  0  0  0  0
 15 28  1  0  0  0  0
 16 23  2  0  0  0  0
 16 64  1  0  0  0  0
 17 29  1  0  0  0  0
 18 29  1  0  0  0  0
 18 31  2  0  0  0  0
 18 32  1  0  0  0  0
 19 21  2  0  0  0  0
 19 39  1  0  0  0  0
 20 22  2  0  0  0  0
 20 40  1  0  0  0  0
 21 48  1  0  0  0  0
 22 41  1  0  0  0  0
 23 70  1  0  0  0  0
 24 82  1  0  0  0  0
 25 83  1  0  0  0  0
 26 28  2  0  0  0  0
 26 82  1  0  0  0  0
 27 84  1  0  0  0  0
 28 85  1  0  0  0  0
 29 63  2  0  0  0  0
 30 64  1  0  0  0  0
 30 71  1  0  0  0  0
 31 65  1  0  0  0  0
 31 68  1  0  0  0  0
 32 69  1  0  0  0  0
 32 75  2  0  0  0  0
 33 34  1  0  0  0  0
 33 57  1  0  0  0  0
 33 76  2  0  0  0  0
 34 71  1  0  0  0  0
 34 77  2  0  0  0  0
 35 49  1  0  0  0  0
 35 72  1  0  0  0  0
 35 78  2  0  0  0  0
 36 60  1  0  0  0  0
 36 66  1  0  0  0  0
 36 79  2  0  0  0  0
 37 61  1  0  0  0  0
 37 73  1  0  0  0  0
 37 80  2  0  0  0  0
 38 67  1  0  0  0  0
 38 70  1  0  0  0  0
 38 81  2  0  0  0  0
 39 42  1  0  0  0  0
 40 49  1  0  0  0  0
 41 66  1  0  0  0  0
 42 44  1  0  0  0  0
 43 45  1  0  0  0  0
 43 46  1  0  0  0  0
 44 48  1  0  0  0  0
 45 50  1  0  0  0  0
 46 67  1  0  0  0  0
 47 50  1  0  0  0  0
 47 67  1  0  0  0  0
 48 72  1  0  0  0  0
 49 66  1  0  0  0  0
 50 65  1  0  0  0  0
 51 61  1  0  0  0  0
 52 62  1  0  0  0  0
 53 62  1  0  0  0  0
 54 62  1  0  0  0  0
 55 64  1  0  0  0  0
 56 74  1  0  0  0  0
 57 58  1  0  0  0  0
 58 59  1  0  0  0  0
 59 83  1  0  0  0  0
 60 62  1  0  0  0  0
 60 73  1  0  0  0  0
 61 74  1  0  0  0  0
 63 65  1  0  0  0  0
M  CHG  1  74   1
M  ISO  4  38 100  59 101  70 100  83 101
M  END
> <Batch ID>
0178

> <Smiles>
CNC(C)C(=O)NC(C(=O)N1Cc2cc([101O:1][101CH2:1]CCC(=O)C(=O)Nc3cc([100NH:0][100C:0](=O)N4CCCC(n5nc(-c6ccc(Oc7ccc(F)cc7F)cc6)c(C(N)=O)c5N)C4)cn3C)ccc2CC1C(=O)NC1CCCc2ccccc21)C(C)(C)C

> <Shape>
0.210

> <Color>
0.096

> <Negative vol penalty>
0.000

$$$$

  -OEChem-04052304443D

 85 93  0     1  0  0  0  0  0999 V2000
  -22.4066  -16.5530   23.7624 C   0  0  0  0  0  0  0  0  0  0  0  0
  -23.5217  -15.8558   24.2162 C   0  0  0  0  0  0  0  0  0  0  0  0
  -23.2887   -9.8003   19.9132 C   0  0  0  0  0  0  0  0  0  0  0  0
  -23.7425   -9.9400   22.2821 C   0  0  0  0  0  0  0  0  0  0  0  0
  -21.3811  -16.8786   24.6491 C   0  0  0  0  0  0  0  0  0  0  0  0
  -23.6123  -15.4847   25.5573 C   0  0  0  0  0  0  0  0  0  0  0  0
  -25.1881  -10.7085   26.1491 C   0  0  0  0  0  0  0  0  0  0  0  0
  -22.5632   -8.6273   20.1213 C   0  0  0  0  0  0  0  0  0  0  0  0
  -23.0169   -8.7670   22.4902 C   0  0  0  0  0  0  0  0  0  0  0  0
  -26.5523  -10.4647   25.9969 C   0  0  0  0  0  0  0  0  0  0  0  0
  -20.9808   -6.0052   23.6923 C   0  0  0  0  0  0  0  0  0  0  0  0
  -20.0806   -5.9790   24.7575 C   0  0  0  0  0  0  0  0  0  0  0  0
  -26.8124  -10.4570   28.3951 C   0  0  0  0  0  0  0  0  0  0  0  0
  -18.8689   -7.8259   23.7789 C   0  0  0  0  0  0  0  0  0  0  0  0
  -32.9385  -13.7205   25.2497 C   0  0  0  0  0  0  0  0  0  0  0  0
  -23.8784  -10.4566   20.9936 C   0  0  0  0  0  0  0  0  0  0  0  0
  -24.1362  -12.9869   20.7959 C   0  0  0  0  0  0  0  0  0  0  0  0
  -21.4547  -16.5028   25.9997 C   0  0  0  0  0  0  0  0  0  0  0  0
  -24.6267  -10.8395   27.4275 C   0  0  0  0  0  0  0  0  0  0  0  0
  -22.5874  -15.8067   26.4632 C   0  0  0  0  0  0  0  0  0  0  0  0
  -25.4403  -10.7000   28.5609 C   0  0  0  0  0  0  0  0  0  0  0  0
  -22.4273   -8.1106   21.4098 C   0  0  0  0  0  0  0  0  0  0  0  0
  -27.3652  -10.3417   27.1199 C   0  0  0  0  0  0  0  0  0  0  0  0
  -20.8251   -6.9419   22.6705 C   0  0  0  0  0  0  0  0  0  0  0  0
  -19.0246   -6.8892   24.8007 C   0  0  0  0  0  0  0  0  0  0  0  0
  -19.7691   -7.8522   22.7138 C   0  0  0  0  0  0  0  0  0  0  0  0
  -24.6284  -11.6681   20.7792 C   0  0  0  0  0  0  0  0  0  0  0  0
  -31.7941  -13.4283   25.9493 C   0  0  0  0  0  0  0  0  0  0  0  0
  -25.2369  -13.7675   20.5398 C   0  0  0  0  0  0  0  0  0  0  0  0
  -31.4567  -13.2063   23.8486 C   0  0  0  0  0  0  0  0  0  0  0  0
  -22.8031  -13.4637   21.0226 C   0  0  0  0  0  0  0  0  0  0  0  0
  -23.1214  -13.1632   28.9889 C   0  0  0  0  0  0  0  0  0  0  0  0
  -30.9292  -10.9264   27.4114 C   0  0  0  0  0  0  0  0  0  0  0  0
  -22.7071  -10.8566   31.2317 C   0  0  0  0  0  0  0  0  0  0  0  0
  -23.7762   -7.9168   32.5961 C   0  0  0  0  0  0  0  0  0  0  0  0
  -31.0987  -12.9558   21.3676 C   0  0  0  0  0  0  0  0  0  0  0  0
  -20.3432  -16.9185   26.9305 C   0  0  0  0  0  0  0  0  0  0  0  0
  -23.1487  -11.0760   27.5752 C   0  0  0  0  0  0  0  0  0  0  0  0
  -24.8831  -10.8120   29.9557 C   0  0  0  0  0  0  0  0  0  0  0  0
  -20.3435  -16.1612   28.2559 C   0  0  0  0  0  0  0  0  0  0  0  0
  -29.4609  -13.6610   18.2858 C   0  0  0  0  0  0  0  0  0  0  0  0
  -21.7512  -16.1099   28.8411 C   0  0  0  0  0  0  0  0  0  0  0  0
  -27.9901  -13.3558   18.5788 C   0  0  0  0  0  0  0  0  0  0  0  0
  -30.3955  -12.6859   18.9996 C   0  0  0  0  0  0  0  0  0  0  0  0
  -28.7048  -12.2560   20.7391 C   0  0  0  0  0  0  0  0  0  0  0  0
  -22.7109  -15.3650   27.9053 C   0  0  1  0  0  0  0  0  0  0  0  0
  -22.7748  -11.7030   28.9148 C   0  0  1  0  0  0  0  0  0  0  0  0
  -27.7271  -13.2518   20.0939 C   0  0  2  0  0  0  0  0  0  0  0  0
  -23.2588   -6.2992   34.4435 C   0  0  0  0  0  0  0  0  0  0  0  0
  -23.9351  -12.7803   33.2568 C   0  0  0  0  0  0  0  0  0  0  0  0
  -24.2654  -10.8359   34.7991 C   0  0  0  0  0  0  0  0  0  0  0  0
  -21.9629  -11.4953   34.1017 C   0  0  0  0  0  0  0  0  0  0  0  0
  -23.2838   -5.7118   30.6845 C   0  0  0  0  0  0  0  0  0  0  0  0
  -31.4964  -15.7028   27.8984 C   0  0  0  0  0  0  0  0  0  0  0  0
  -29.5627  -10.6153   27.9872 C   0  0  0  0  0  0  0  0  0  1  0  0
  -31.4161  -13.4044   27.4152 C   0  0  1  0  0  0  0  0  0  0  0  0
  -23.4919  -10.3755   32.4282 C   0  0  1  0  0  0  0  0  0  0  0  0
  -23.0269   -6.6546   32.9831 C   0  0  2  0  0  0  0  0  0  0  0  0
  -31.7125  -12.0488   28.0659 C   0  0  0  0  0  0  0  0  0  0  0  0
  -23.4250  -11.3715   33.6203 C   0  0  0  0  0  0  0  0  0  0  0  0
  -32.7162  -13.5762   23.9041 N   0  0  0  0  0  0  0  0  0  0  0  0
  -25.9397  -11.6102   20.5319 N   0  0  0  0  0  0  0  0  0  0  0  0
  -26.2808  -12.9025   20.3908 N   0  0  0  0  0  0  0  0  0  0  0  0
  -23.4331  -11.0498   30.0480 N   0  0  0  0  0  0  0  0  0  0  0  0
  -30.0906  -12.6430   20.4313 N   0  0  0  0  0  0  0  0  0  0  0  0
  -25.4040  -15.1025   20.4298 N   0  0  0  0  0  0  0  0  0  0  0  0
  -21.7914  -12.5261   21.2710 N   0  0  0  0  0  0  0  0  0  0  0  0
  -30.6833  -12.9133   22.6981 N   0  0  0  0  0  0  0  0  0  0  0  0
  -22.5163  -13.9352   28.0156 N   0  0  0  0  0  0  0  0  0  0  0  0
  -22.9898   -9.0407   32.7360 N   0  0  0  0  0  0  0  0  0  0  0  0
  -23.4754   -5.5079   32.1435 N   0  3  0  0  0  0  0  0  0  0  0  0
  -22.5146  -14.6840   20.9893 O   0  0  0  0  0  0  0  0  0  0  0  0
  -23.8803  -13.5603   29.8653 O   0  0  0  0  0  0  0  0  0  0  0  0
  -31.4030  -10.2895   26.4706 O   0  0  0  0  0  0  0  0  0  0  0  0
  -21.4932  -11.0467   31.3414 O   0  0  0  0  0  0  0  0  0  0  0  0
  -24.9436   -7.9071   32.2119 O   0  0  0  0  0  0  0  0  0  0  0  0
  -32.2390  -13.2668   21.0139 O   0  0  0  0  0  0  0  0  0  0  0  0
  -30.8271  -13.0936   25.0502 O   0  0  0  0  0  0  0  0  0  0  0  0
  -21.7193   -6.9662   21.6133 O   0  0  0  0  0  0  0  0  0  0  0  0
  -28.6972  -10.1043   26.9742 O   0  0  0  0  0  0  0  0  0  1  0  0
  -32.1225  -14.4441   28.0913 O   0  0  0  0  0  0  0  0  0  0  0  0
  -18.1593   -6.8629   25.8229 F   0  0  0  0  0  0  0  0  0  0  0  0
  -19.6137   -8.7535   21.7344 F   0  0  0  0  0  0  0  0  0  0  0  0
  -33.0483  -11.7958   27.9850 F   0  0  0  0  0  0  0  0  0  0  0  0
  -31.4235  -12.1082   29.3948 F   0  0  0  0  0  0  0  0  0  0  0  0
  1  2  1  0  0  0  0
  1  5  2  0  0  0  0
  2  6  2  0  0  0  0
  3  8  2  0  0  0  0
  3 16  1  0  0  0  0
  4  9  1  0  0  0  0
  4 16  2  0  0  0  0
  5 18  1  0  0  0  0
  6 20  1  0  0  0  0
  7 10  2  0  0  0  0
  7 19  1  0  0  0  0
  8 22  1  0  0  0  0
  9 22  2  0  0  0  0
 10 23  1  0  0  0  0
 11 12  2  0  0  0  0
 11 24  1  0  0  0  0
 12 25  1  0  0  0  0
 13 21  1  0  0  0  0
 13 23  2  0  0  0  0
 14 25  2  0  0  0  0
 14 26  1  0  0  0  0
 15 28  2  0  0  0  0
 15 61  1  0  0  0  0
 16 27  1  0  0  0  0
 17 27  1  0  0  0  0
 17 29  2  0  0  0  0
 17 31  1  0  0  0  0
 18 20  2  0  0  0  0
 18 37  1  0  0  0  0
 19 21  2  0  0  0  0
 19 38  1  0  0  0  0
 20 46  1  0  0  0  0
 21 39  1  0  0  0  0
 22 79  1  0  0  0  0
 23 80  1  0  0  0  0
 24 26  2  0  0  0  0
 24 79  1  0  0  0  0
 25 82  1  0  0  0  0
 26 83  1  0  0  0  0
 27 62  2  0  0  0  0
 28 56  1  0  0  0  0
 28 78  1  0  0  0  0
 29 63  1  0  0  0  0
 29 66  1  0  0  0  0
 30 61  2  0  0  0  0
 30 68  1  0  0  0  0
 30 78  1  0  0  0  0
 31 67  1  0  0  0  0
 31 72  2  0  0  0  0
 32 47  1  0  0  0  0
 32 69  1  0  0  0  0
 32 73  2  0  0  0  0
 33 55  1  0  0  0  0
 33 59  1  0  0  0  0
 33 74  2  0  0  0  0
 34 57  1  0  0  0  0
 34 64  1  0  0  0  0
 34 75  2  0  0  0  0
 35 58  1  0  0  0  0
 35 70  1  0  0  0  0
 35 76  2  0  0  0  0
 36 65  1  0  0  0  0
 36 68  1  0  0  0  0
 36 77  2  0  0  0  0
 37 40  1  0  0  0  0
 38 47  1  0  0  0  0
 39 64  1  0  0  0  0
 40 42  1  0  0  0  0
 41 43  1  0  0  0  0
 41 44  1  0  0  0  0
 42 46  1  0  0  0  0
 43 48  1  0  0  0  0
 44 65  1  0  0  0  0
 45 48  1  0  0  0  0
 45 65  1  0  0  0  0
 46 69  1  0  0  0  0
 47 64  1  0  0  0  0
 48 63  1  0  0  0  0
 49 58  1  0  0  0  0
 50 60  1  0  0  0  0
 51 60  1  0  0  0  0
 52 60  1  0  0  0  0
 53 71  1  0  0  0  0
 54 81  1  0  0  0  0
 55 80  1  0  0  0  0
 56 59  1  0  0  0  0
 56 81  1  0  0  0  0
 57 60  1  0  0  0  0
 57 70  1  0  0  0  0
 58 71  1  0  0  0  0
 59 84  1  0  0  0  0
 59 85  1  0  0  0  0
 62 63  1  0  0  0  0
M  CHG  1  71   1
M  ISO  4  36 100  55 101  68 100  80 101
M  END
> <Batch ID>
0178

> <Smiles>
CNC(C)C(=O)NC(C(=O)N1Cc2cc([101O:1][101CH2:1]C(=O)C(F)(F)C(OC)c3cnc([100NH:0][100C:0](=O)N4CCCC(n5nc(-c6ccc(Oc7ccc(F)cc7F)cc6)c(C(N)=O)c5N)C4)o3)ccc2CC1C(=O)NC1CCCc2ccccc21)C(C)(C)C

> <Shape>
0.127

> <Color>
0.171

> <Negative vol penalty>
0.000

$$$$

  -OEChem-04052304443D

 84 92  0     1  0  0  0  0  0999 V2000
  -25.8748  -35.4925   23.0055 C   0  0  0  0  0  0  0  0  0  0  0  0
  -26.4303  -34.2241   22.8711 C   0  0  0  0  0  0  0  0  0  0  0  0
  -22.7758  -10.7059   21.8526 C   0  0  0  0  0  0  0  0  0  0  0  0
  -24.9393  -10.8776   22.9142 C   0  0  0  0  0  0  0  0  0  0  0  0
  -24.5484  -35.6319   23.4118 C   0  0  0  0  0  0  0  0  0  0  0  0
  -25.6599  -33.0943   23.1440 C   0  0  0  0  0  0  0  0  0  0  0  0
  -26.2013  -29.4805   19.6380 C   0  0  0  0  0  0  0  0  0  0  0  0
  -22.8644   -9.3146   21.8970 C   0  0  0  0  0  0  0  0  0  0  0  0
  -25.0278   -9.4863   22.9587 C   0  0  0  0  0  0  0  0  0  0  0  0
  -27.3549  -28.7001   19.7008 C   0  0  0  0  0  0  0  0  0  0  0  0
  -22.4360   -6.8633   24.1862 C   0  0  0  0  0  0  0  0  0  0  0  0
  -21.3111   -6.1553   24.6091 C   0  0  0  0  0  0  0  0  0  0  0  0
  -26.1020  -26.9459   20.7834 C   0  0  0  0  0  0  0  0  0  0  0  0
  -21.2336   -5.0088   22.4839 C   0  0  0  0  0  0  0  0  0  0  0  0
  -23.8133  -11.4875   22.3611 C   0  0  0  0  0  0  0  0  0  0  0  0
  -23.1746  -13.7739   23.2949 C   0  0  0  0  0  0  0  0  0  0  0  0
  -23.7585  -34.5030   23.6805 C   0  0  0  0  0  0  0  0  0  0  0  0
  -24.9897  -29.0030   20.1581 C   0  0  0  0  0  0  0  0  0  0  0  0
  -24.3220  -33.2188   23.5556 C   0  0  0  0  0  0  0  0  0  0  0  0
  -24.9339  -27.7211   20.7237 C   0  0  0  0  0  0  0  0  0  0  0  0
  -23.9904   -8.7048   22.4501 C   0  0  0  0  0  0  0  0  0  0  0  0
  -27.3060  -27.4338   20.2762 C   0  0  0  0  0  0  0  0  0  0  0  0
  -22.9597   -6.6441   22.9120 C   0  0  0  0  0  0  0  0  0  0  0  0
  -20.7099   -5.2280   23.7580 C   0  0  0  0  0  0  0  0  0  0  0  0
  -22.3585   -5.7168   22.0609 C   0  0  0  0  0  0  0  0  0  0  0  0
  -23.7226  -12.9247   22.3149 C   0  0  0  0  0  0  0  0  0  0  0  0
  -29.3600  -18.9028   20.6791 C   0  0  0  0  0  0  0  0  0  0  0  0
  -23.3283  -15.0375   22.7792 C   0  0  0  0  0  0  0  0  0  0  0  0
  -29.3068  -18.9511   22.0564 C   0  0  0  0  0  0  0  0  0  0  0  0
  -29.3548  -21.0812   20.9326 C   0  0  0  0  0  0  0  0  0  0  0  0
  -22.5798  -13.4494   24.5585 C   0  0  0  0  0  0  0  0  0  0  0  0
  -29.4522  -24.6142   19.6414 C   0  0  0  0  0  0  0  0  0  0  0  0
  -29.4154  -23.1209   19.4908 C   0  0  0  0  0  0  0  0  0  0  0  0
  -23.0179  -29.9365   22.4699 C   0  0  0  0  0  0  0  0  0  0  0  0
  -21.1603  -27.5388   21.3198 C   0  0  0  0  0  0  0  0  0  0  0  0
  -20.9640  -24.5896   19.6138 C   0  0  0  0  0  0  0  0  0  0  0  0
  -27.1527  -17.3866   18.8160 C   0  0  0  0  0  0  0  0  0  0  0  0
  -22.3437  -34.7050   24.1625 C   0  0  0  0  0  0  0  0  0  0  0  0
  -23.7483  -29.8463   20.0586 C   0  0  0  0  0  0  0  0  0  0  0  0
  -23.6534  -27.1540   21.2781 C   0  0  0  0  0  0  0  0  0  0  0  0
  -21.4835  -33.4473   24.0705 C   0  0  0  0  0  0  0  0  0  0  0  0
  -23.5981  -17.3742   18.6129 C   0  0  0  0  0  0  0  0  0  0  0  0
  -22.2371  -32.2432   24.6266 C   0  0  0  0  0  0  0  0  0  0  0  0
  -23.1775  -16.3090   19.6270 C   0  0  0  0  0  0  0  0  0  0  0  0
  -24.8886  -16.9894   17.8927 C   0  0  0  0  0  0  0  0  0  0  0  0
  -25.5976  -15.5924   19.7952 C   0  0  0  0  0  0  0  0  0  0  0  0
  -23.5111  -31.9685   23.8185 C   0  0  1  0  0  0  0  0  0  0  0  0
  -22.6836  -29.4657   21.0827 C   0  0  1  0  0  0  0  0  0  0  0  0
  -24.3314  -15.9619   20.5868 C   0  0  2  0  0  0  0  0  0  0  0  0
  -19.3150  -22.8512   18.8681 C   0  0  0  0  0  0  0  0  0  0  0  0
  -21.0390  -26.4378   24.1629 C   0  0  0  0  0  0  0  0  0  0  0  0
  -20.2222  -24.2697   23.2140 C   0  0  0  0  0  0  0  0  0  0  0  0
  -18.8732  -26.3467   22.9156 C   0  0  0  0  0  0  0  0  0  0  0  0
  -21.5777  -25.0656   16.7580 C   0  0  0  0  0  0  0  0  0  0  0  0
  -29.3864  -17.6760   19.8581 C   0  0  0  0  0  0  0  0  0  0  0  0
  -28.2577  -25.2544   20.2992 C   0  0  0  0  0  0  0  0  0  1  0  0
  -21.0187  -26.0638   21.6084 C   0  0  1  0  0  0  0  0  0  0  0  0
  -20.0451  -24.1321   18.4954 C   0  0  2  0  0  0  0  0  0  0  0  0
  -20.3130  -25.7907   22.9666 C   0  0  0  0  0  0  0  0  0  0  0  0
  -24.1895  -13.5926   21.2566 N   0  0  0  0  0  0  0  0  0  0  0  0
  -29.3872  -20.1233   20.0329 N   0  0  0  0  0  0  0  0  0  0  0  0
  -23.9351  -14.8748   21.5686 N   0  0  0  0  0  0  0  0  0  0  0  0
  -22.4680  -28.0195   21.1630 N   0  0  0  0  0  0  0  0  0  0  0  0
  -25.9431  -16.6739   18.8593 N   0  0  0  0  0  0  0  0  0  0  0  0
  -23.0022  -16.2609   23.2476 N   0  0  0  0  0  0  0  0  0  0  0  0
  -22.5018  -12.1012   24.9337 N   0  0  0  0  0  0  0  0  0  0  0  0
  -29.3668  -22.4778   20.7088 N   0  0  0  0  0  0  0  0  0  0  0  0
  -23.1869  -31.3040   22.5744 N   0  0  0  0  0  0  0  0  0  0  0  0
  -20.3383  -25.4856   20.4546 N   0  0  0  0  0  0  0  0  0  0  0  0
  -28.0961  -17.0292   19.7715 N   0  0  0  0  0  0  0  0  0  0  0  0
  -20.8274  -23.8823   17.2518 N   0  3  0  0  0  0  0  0  0  0  0  0
  -22.1159  -14.3277   25.3246 O   0  0  0  0  0  0  0  0  0  0  0  0
  -30.4304  -25.2025   19.2059 O   0  0  0  0  0  0  0  0  0  0  0  0
  -29.4583  -22.6854   18.3521 O   0  0  0  0  0  0  0  0  0  0  0  0
  -23.1138  -29.1198   23.3784 O   0  0  0  0  0  0  0  0  0  0  0  0
  -20.1476  -28.2373   21.2296 O   0  0  0  0  0  0  0  0  0  0  0  0
  -22.1199  -24.1891   19.7321 O   0  0  0  0  0  0  0  0  0  0  0  0
  -27.3734  -18.2792   17.9905 O   0  0  0  0  0  0  0  0  0  0  0  0
  -24.0770   -7.3472   22.4939 O   0  0  0  0  0  0  0  0  0  0  0  0
  -28.4307  -26.6703   20.3394 O   0  0  0  0  0  0  0  0  0  1  0  0
  -19.6305   -4.5471   24.1649 F   0  0  0  0  0  0  0  0  0  0  0  0
  -22.8578   -5.5010   20.8362 F   0  0  0  0  0  0  0  0  0  0  0  0
  -29.2746  -17.8901   22.8668 F   0  0  0  0  0  0  0  0  0  0  0  0
  -29.2917  -20.5860   22.5745 S   0  0  0  0  0  0  0  0  0  0  0  0
  1  2  1  0  0  0  0
  1  5  2  0  0  0  0
  2  6  2  0  0  0  0
  3  8  2  0  0  0  0
  3 15  1  0  0  0  0
  4  9  1  0  0  0  0
  4 15  2  0  0  0  0
  5 17  1  0  0  0  0
  6 19  1  0  0  0  0
  7 10  2  0  0  0  0
  7 18  1  0  0  0  0
  8 21  1  0  0  0  0
  9 21  2  0  0  0  0
 10 22  1  0  0  0  0
 11 12  2  0  0  0  0
 11 23  1  0  0  0  0
 12 24  1  0  0  0  0
 13 20  1  0  0  0  0
 13 22  2  0  0  0  0
 14 24  2  0  0  0  0
 14 25  1  0  0  0  0
 15 26  1  0  0  0  0
 16 26  1  0  0  0  0
 16 28  2  0  0  0  0
 16 31  1  0  0  0  0
 17 19  2  0  0  0  0
 17 38  1  0  0  0  0
 18 20  2  0  0  0  0
 18 39  1  0  0  0  0
 19 47  1  0  0  0  0
 20 40  1  0  0  0  0
 21 79  1  0  0  0  0
 22 80  1  0  0  0  0
 23 25  2  0  0  0  0
 23 79  1  0  0  0  0
 24 81  1  0  0  0  0
 25 82  1  0  0  0  0
 26 60  2  0  0  0  0
 27 29  2  0  0  0  0
 27 55  1  0  0  0  0
 27 61  1  0  0  0  0
 28 62  1  0  0  0  0
 28 65  1  0  0  0  0
 29 83  1  0  0  0  0
 29 84  1  0  0  0  0
 30 61  2  0  0  0  0
 30 67  1  0  0  0  0
 30 84  1  0  0  0  0
 31 66  1  0  0  0  0
 31 72  2  0  0  0  0
 32 33  1  0  0  0  0
 32 56  1  0  0  0  0
 32 73  2  0  0  0  0
 33 67  1  0  0  0  0
 33 74  2  0  0  0  0
 34 48  1  0  0  0  0
 34 68  1  0  0  0  0
 34 75  2  0  0  0  0
 35 57  1  0  0  0  0
 35 63  1  0  0  0  0
 35 76  2  0  0  0  0
 36 58  1  0  0  0  0
 36 69  1  0  0  0  0
 36 77  2  0  0  0  0
 37 64  1  0  0  0  0
 37 70  1  0  0  0  0
 37 78  2  0  0  0  0
 38 41  1  0  0  0  0
 39 48  1  0  0  0  0
 40 63  1  0  0  0  0
 41 43  1  0  0  0  0
 42 44  1  0  0  0  0
 42 45  1  0  0  0  0
 43 47  1  0  0  0  0
 44 49  1  0  0  0  0
 45 64  1  0  0  0  0
 46 49  1  0  0  0  0
 46 64  1  0  0  0  0
 47 68  1  0  0  0  0
 48 63  1  0  0  0  0
 49 62  1  0  0  0  0
 50 58  1  0  0  0  0
 51 59  1  0  0  0  0
 52 59  1  0  0  0  0
 53 59  1  0  0  0  0
 54 71  1  0  0  0  0
 55 70  1  0  0  0  0
 56 80  1  0  0  0  0
 57 59  1  0  0  0  0
 57 69  1  0  0  0  0
 58 71  1  0  0  0  0
 60 62  1  0  0  0  0
M  CHG  1  71   1
M  ISO  4  37 100  56 101  70 100  80 101
M  END
> <Batch ID>
0178

> <Smiles>
CNC(C)C(=O)NC(C(=O)N1Cc2cc([101O:1][101CH2:1]C(=O)C(=O)Nc3nc(C[100NH:0][100C:0](=O)N4CCCC(n5nc(-c6ccc(Oc7ccc(F)cc7F)cc6)c(C(N)=O)c5N)C4)c(F)s3)ccc2CC1C(=O)NC1CCCc2ccccc21)C(C)(C)C

> <Shape>
0.294

> <Color>
0.107

> <Negative vol penalty>
0.000

$$$$

  -OEChem-04052304443D

 84 92  0     1  0  0  0  0  0999 V2000
  -27.9201  -33.9748   24.7245 C   0  0  0  0  0  0  0  0  0  0  0  0
  -28.1586  -32.6218   24.5057 C   0  0  0  0  0  0  0  0  0  0  0  0
  -23.2379  -11.8070   23.1027 C   0  0  0  0  0  0  0  0  0  0  0  0
  -23.2593  -14.2142   22.8973 C   0  0  0  0  0  0  0  0  0  0  0  0
  -26.6106  -34.4461   24.8079 C   0  0  0  0  0  0  0  0  0  0  0  0
  -27.0875  -31.7391   24.3713 C   0  0  0  0  0  0  0  0  0  0  0  0
  -27.7014  -28.5124   20.5169 C   0  0  0  0  0  0  0  0  0  0  0  0
  -22.4262  -11.9106   24.2322 C   0  0  0  0  0  0  0  0  0  0  0  0
  -22.4475  -14.3178   24.0269 C   0  0  0  0  0  0  0  0  0  0  0  0
  -28.5575  -27.4312   20.7218 C   0  0  0  0  0  0  0  0  0  0  0  0
  -20.0846  -15.2010   26.6450 C   0  0  0  0  0  0  0  0  0  0  0  0
  -19.0053  -16.0829   26.5903 C   0  0  0  0  0  0  0  0  0  0  0  0
  -26.6526  -26.0074   21.1262 C   0  0  0  0  0  0  0  0  0  0  0  0
  -18.0906  -14.8478   24.7262 C   0  0  0  0  0  0  0  0  0  0  0  0
  -23.6545  -12.9588   22.4352 C   0  0  0  0  0  0  0  0  0  0  0  0
  -24.0763  -12.7421   19.9286 C   0  0  0  0  0  0  0  0  0  0  0  0
  -25.5229  -33.5703   24.6649 C   0  0  0  0  0  0  0  0  0  0  0  0
  -26.3127  -28.3513   20.6260 C   0  0  0  0  0  0  0  0  0  0  0  0
  -25.7622  -32.1989   24.4542 C   0  0  0  0  0  0  0  0  0  0  0  0
  -25.7810  -27.0875   20.9197 C   0  0  0  0  0  0  0  0  0  0  0  0
  -22.0310  -13.1659   24.6943 C   0  0  0  0  0  0  0  0  0  0  0  0
  -28.0333  -26.1791   21.0294 C   0  0  0  0  0  0  0  0  0  0  0  0
  -20.1669  -14.1425   25.7403 C   0  0  0  0  0  0  0  0  0  0  0  0
  -18.0083  -15.9063   25.6309 C   0  0  0  0  0  0  0  0  0  0  0  0
  -19.1699  -13.9659   24.7809 C   0  0  0  0  0  0  0  0  0  0  0  0
  -24.4935  -12.8525   21.2686 C   0  0  0  0  0  0  0  0  0  0  0  0
  -32.0915  -18.7089   19.4117 C   0  0  0  0  0  0  0  0  0  0  0  0
  -25.2446  -12.6712   19.2100 C   0  0  0  0  0  0  0  0  0  0  0  0
  -30.9388  -19.4505   19.5651 C   0  0  0  0  0  0  0  0  0  0  0  0
  -30.7195  -17.0807   19.9378 C   0  0  0  0  0  0  0  0  0  0  0  0
  -22.7511  -12.7068   19.3824 C   0  0  0  0  0  0  0  0  0  0  0  0
  -29.5472  -22.9422   19.3968 C   0  0  0  0  0  0  0  0  0  0  0  0
  -29.4565  -21.4609   19.6242 C   0  0  0  0  0  0  0  0  0  0  0  0
  -24.0549  -29.5635   22.5066 C   0  0  0  0  0  0  0  0  0  0  0  0
  -22.0731  -27.9362   20.5201 C   0  0  0  0  0  0  0  0  0  0  0  0
  -21.6516  -25.3647   18.3163 C   0  0  0  0  0  0  0  0  0  0  0  0
  -30.8069  -14.5841   20.2623 C   0  0  0  0  0  0  0  0  0  0  0  0
  -24.1254  -34.1186   24.8098 C   0  0  0  0  0  0  0  0  0  0  0  0
  -25.4016  -29.5216   20.3757 C   0  0  0  0  0  0  0  0  0  0  0  0
  -24.2965  -26.8575   21.0283 C   0  0  0  0  0  0  0  0  0  0  0  0
  -23.0445  -33.1783   24.2827 C   0  0  0  0  0  0  0  0  0  0  0  0
  -29.7970  -11.2356   19.5954 C   0  0  0  0  0  0  0  0  0  0  0  0
  -23.2837  -31.7568   24.7819 C   0  0  0  0  0  0  0  0  0  0  0  0
  -28.2835  -11.2616   19.8209 C   0  0  0  0  0  0  0  0  0  0  0  0
  -30.5336  -12.1355   20.5860 C   0  0  0  0  0  0  0  0  0  0  0  0
  -28.5341  -13.5459   20.8726 C   0  0  0  0  0  0  0  0  0  0  0  0
  -24.6267  -31.2141   24.2785 C   0  0  1  0  0  0  0  0  0  0  0  0
  -24.0278  -29.3575   21.0185 C   0  0  1  0  0  0  0  0  0  0  0  0
  -27.7439  -12.7049   19.8569 C   0  0  2  0  0  0  0  0  0  0  0  0
  -33.4219  -19.2363   19.0448 C   0  0  0  0  0  0  0  0  0  0  0  0
  -19.9098  -24.2625   16.8850 C   0  0  0  0  0  0  0  0  0  0  0  0
  -20.8709  -26.6235   22.9983 C   0  0  0  0  0  0  0  0  0  0  0  0
  -19.8511  -24.8943   21.5022 C   0  0  0  0  0  0  0  0  0  0  0  0
  -19.2031  -27.2908   21.2583 C   0  0  0  0  0  0  0  0  0  0  0  0
  -23.1583  -25.9422   15.8352 C   0  0  0  0  0  0  0  0  0  0  0  0
  -30.5407  -23.6940   20.2552 C   0  0  0  0  0  0  0  0  0  0  0  0
  -30.1045  -25.1269   20.5206 C   0  0  0  0  0  0  0  0  0  1  0  0
  -21.4939  -26.5423   20.4940 C   0  0  1  0  0  0  0  0  0  0  0  0
  -21.0097  -25.3112   16.9417 C   0  0  2  0  0  0  0  0  0  0  0  0
  -20.3828  -26.3422   21.5631 C   0  0  0  0  0  0  0  0  0  0  0  0
  -25.8230  -12.8521   21.3964 N   0  0  0  0  0  0  0  0  0  0  0  0
  -31.9678  -17.3499   19.6254 N   0  0  0  0  0  0  0  0  0  0  0  0
  -26.2514  -12.7405   20.1275 N   0  0  0  0  0  0  0  0  0  0  0  0
  -23.4472  -28.0344   20.7812 N   0  0  0  0  0  0  0  0  0  0  0  0
  -29.9711  -13.4875   20.5620 N   0  0  0  0  0  0  0  0  0  0  0  0
  -25.4987  -12.5570   17.8891 N   0  0  0  0  0  0  0  0  0  0  0  0
  -21.6633  -12.7908   20.2622 N   0  0  0  0  0  0  0  0  0  0  0  0
  -30.6683  -20.8325   19.4342 N   0  0  0  0  0  0  0  0  0  0  0  0
  -30.1544  -15.8162   20.2365 N   0  0  0  0  0  0  0  0  0  0  0  0
  -24.5199  -30.8057   22.8942 N   0  0  0  0  0  0  0  0  0  0  0  0
  -21.0529  -26.3091   19.1231 N   0  0  0  0  0  0  0  0  0  0  0  0
  -22.0292  -24.9794   15.9065 N   0  3  0  0  0  0  0  0  0  0  0  0
  -22.5378  -12.5873   18.1521 O   0  0  0  0  0  0  0  0  0  0  0  0
  -28.8256  -23.4211   18.5350 O   0  0  0  0  0  0  0  0  0  0  0  0
  -28.3680  -21.0256   19.9611 O   0  0  0  0  0  0  0  0  0  0  0  0
  -23.6803  -28.6628   23.2482 O   0  0  0  0  0  0  0  0  0  0  0  0
  -21.3350  -28.9018   20.3092 O   0  0  0  0  0  0  0  0  0  0  0  0
  -22.5879  -24.6386   18.6429 O   0  0  0  0  0  0  0  0  0  0  0  0
  -32.0072  -14.4374   20.0178 O   0  0  0  0  0  0  0  0  0  0  0  0
  -21.2387  -13.2674   25.7964 O   0  0  0  0  0  0  0  0  0  0  0  0
  -28.8666  -25.1222   21.2305 O   0  0  0  0  0  0  0  0  0  1  0  0
  -16.9711  -16.7524   25.5794 F   0  0  0  0  0  0  0  0  0  0  0  0
  -19.2429  -12.9501   23.9099 F   0  0  0  0  0  0  0  0  0  0  0  0
  -29.6407  -18.4142   19.9923 S   0  0  0  0  0  0  0  0  0  0  0  0
  1  2  1  0  0  0  0
  1  5  2  0  0  0  0
  2  6  2  0  0  0  0
  3  8  2  0  0  0  0
  3 15  1  0  0  0  0
  4  9  1  0  0  0  0
  4 15  2  0  0  0  0
  5 17  1  0  0  0  0
  6 19  1  0  0  0  0
  7 10  2  0  0  0  0
  7 18  1  0  0  0  0
  8 21  1  0  0  0  0
  9 21  2  0  0  0  0
 10 22  1  0  0  0  0
 11 12  2  0  0  0  0
 11 23  1  0  0  0  0
 12 24  1  0  0  0  0
 13 20  1  0  0  0  0
 13 22  2  0  0  0  0
 14 24  2  0  0  0  0
 14 25  1  0  0  0  0
 15 26  1  0  0  0  0
 16 26  1  0  0  0  0
 16 28  2  0  0  0  0
 16 31  1  0  0  0  0
 17 19  2  0  0  0  0
 17 38  1  0  0  0  0
 18 20  2  0  0  0  0
 18 39  1  0  0  0  0
 19 47  1  0  0  0  0
 20 40  1  0  0  0  0
 21 80  1  0  0  0  0
 22 81  1  0  0  0  0
 23 25  2  0  0  0  0
 23 80  1  0  0  0  0
 24 82  1  0  0  0  0
 25 83  1  0  0  0  0
 26 61  2  0  0  0  0
 27 29  2  0  0  0  0
 27 50  1  0  0  0  0
 27 62  1  0  0  0  0
 28 63  1  0  0  0  0
 28 66  1  0  0  0  0
 29 68  1  0  0  0  0
 29 84  1  0  0  0  0
 30 62  2  0  0  0  0
 30 69  1  0  0  0  0
 30 84  1  0  0  0  0
 31 67  1  0  0  0  0
 31 73  2  0  0  0  0
 32 33  1  0  0  0  0
 32 56  1  0  0  0  0
 32 74  2  0  0  0  0
 33 68  1  0  0  0  0
 33 75  2  0  0  0  0
 34 48  1  0  0  0  0
 34 70  1  0  0  0  0
 34 76  2  0  0  0  0
 35 58  1  0  0  0  0
 35 64  1  0  0  0  0
 35 77  2  0  0  0  0
 36 59  1  0  0  0  0
 36 71  1  0  0  0  0
 36 78  2  0  0  0  0
 37 65  1  0  0  0  0
 37 69  1  0  0  0  0
 37 79  2  0  0  0  0
 38 41  1  0  0  0  0
 39 48  1  0  0  0  0
 40 64  1  0  0  0  0
 41 43  1  0  0  0  0
 42 44  1  0  0  0  0
 42 45  1  0  0  0  0
 43 47  1  0  0  0  0
 44 49  1  0  0  0  0
 45 65  1  0  0  0  0
 46 49  1  0  0  0  0
 46 65  1  0  0  0  0
 47 70  1  0  0  0  0
 48 64  1  0  0  0  0
 49 63  1  0  0  0  0
 51 59  1  0  0  0  0
 52 60  1  0  0  0  0
 53 60  1  0  0  0  0
 54 60  1  0  0  0  0
 55 72  1  0  0  0  0
 56 57  1  0  0  0  0
 57 81  1  0  0  0  0
 58 60  1  0  0  0  0
 58 71  1  0  0  0  0
 59 72  1  0  0  0  0
 61 63  1  0  0  0  0
M  CHG  1  72   1
M  ISO  4  37 100  57 101  69 100  81 101
M  END
> <Batch ID>
0178

> <Smiles>
CNC(C)C(=O)NC(C(=O)N1Cc2cc([101O:1][101CH2:1]CC(=O)C(=O)Nc3sc([100NH:0][100C:0](=O)N4CCCC(n5nc(-c6ccc(Oc7ccc(F)cc7F)cc6)c(C(N)=O)c5N)C4)nc3C)ccc2CC1C(=O)NC1CCCc2ccccc21)C(C)(C)C

> <Shape>
0.269

> <Color>
0.090

> <Negative vol penalty>
0.000

$$$$

  -OEChem-04052304443D

 85 93  0     1  0  0  0  0  0999 V2000
  -35.2961  -35.1203   23.0421 C   0  0  0  0  0  0  0  0  0  0  0  0
  -35.4622  -33.7391   23.0513 C   0  0  0  0  0  0  0  0  0  0  0  0
  -23.0018   -9.8911   19.9812 C   0  0  0  0  0  0  0  0  0  0  0  0
  -23.7267   -9.9436   22.2853 C   0  0  0  0  0  0  0  0  0  0  0  0
  -34.0147  -35.6668   22.9856 C   0  0  0  0  0  0  0  0  0  0  0  0
  -34.3468  -32.9035   23.0049 C   0  0  0  0  0  0  0  0  0  0  0  0
  -32.2394  -26.5399   20.4793 C   0  0  0  0  0  0  0  0  0  0  0  0
  -22.2360   -8.7563   20.2480 C   0  0  0  0  0  0  0  0  0  0  0  0
  -22.9608   -8.8087   22.5521 C   0  0  0  0  0  0  0  0  0  0  0  0
  -31.6320  -25.3595   20.9053 C   0  0  0  0  0  0  0  0  0  0  0  0
  -23.2072   -5.4697   22.0817 C   0  0  0  0  0  0  0  0  0  0  0  0
  -23.7953   -4.4533   22.8344 C   0  0  0  0  0  0  0  0  0  0  0  0
  -29.4703  -26.4156   20.7295 C   0  0  0  0  0  0  0  0  0  0  0  0
  -31.8159  -17.4814   21.6936 C   0  0  0  0  0  0  0  0  0  0  0  0
  -22.0711   -4.6959   24.5093 C   0  0  0  0  0  0  0  0  0  0  0  0
  -23.7472  -10.4848   20.9999 C   0  0  0  0  0  0  0  0  0  0  0  0
  -24.1310  -13.0005   20.8228 C   0  0  0  0  0  0  0  0  0  0  0  0
  -32.8835  -34.8375   22.9288 C   0  0  0  0  0  0  0  0  0  0  0  0
  -31.4663  -27.6722   20.1851 C   0  0  0  0  0  0  0  0  0  0  0  0
  -33.0490  -33.4395   22.9489 C   0  0  0  0  0  0  0  0  0  0  0  0
  -30.0701  -27.6083   20.2975 C   0  0  0  0  0  0  0  0  0  0  0  0
  -31.9138  -18.7555   22.3240 C   0  0  0  0  0  0  0  0  0  0  0  0
  -22.2154   -8.2151   21.5334 C   0  0  0  0  0  0  0  0  0  0  0  0
  -30.2474  -25.2981   21.0332 C   0  0  0  0  0  0  0  0  0  0  0  0
  -22.0511   -6.0994   22.5429 C   0  0  0  0  0  0  0  0  0  0  0  0
  -23.2272   -4.0663   24.0481 C   0  0  0  0  0  0  0  0  0  0  0  0
  -21.4830   -5.7124   23.7566 C   0  0  0  0  0  0  0  0  0  0  0  0
  -24.5390  -11.6568   20.7249 C   0  0  0  0  0  0  0  0  0  0  0  0
  -25.2404  -13.7236   20.4582 C   0  0  0  0  0  0  0  0  0  0  0  0
  -30.5916  -16.8889   21.9118 C   0  0  0  0  0  0  0  0  0  0  0  0
  -30.7604  -19.0883   22.9999 C   0  0  0  0  0  0  0  0  0  0  0  0
  -22.8627  -13.5463   21.2090 C   0  0  0  0  0  0  0  0  0  0  0  0
  -31.2678  -30.6195   21.3591 C   0  0  0  0  0  0  0  0  0  0  0  0
  -29.2374  -31.0565   18.8673 C   0  0  0  0  0  0  0  0  0  0  0  0
  -27.0937  -29.6741   16.6000 C   0  0  0  0  0  0  0  0  0  0  0  0
  -29.2274  -20.4921   24.4156 C   0  0  0  0  0  0  0  0  0  0  0  0
  -30.7193  -14.6881   20.6925 C   0  0  0  0  0  0  0  0  0  0  0  0
  -31.5164  -35.4744   22.9164 C   0  0  0  0  0  0  0  0  0  0  0  0
  -32.1348  -28.9297   19.7011 C   0  0  0  0  0  0  0  0  0  0  0  0
  -29.1936  -28.7898   19.9745 C   0  0  0  0  0  0  0  0  0  0  0  0
  -30.4035  -34.5198   22.4915 C   0  0  0  0  0  0  0  0  0  0  0  0
  -29.6027  -12.2337   18.3674 C   0  0  0  0  0  0  0  0  0  0  0  0
  -30.5374  -33.1860   23.2195 C   0  0  0  0  0  0  0  0  0  0  0  0
  -28.1522  -11.9753   18.7815 C   0  0  0  0  0  0  0  0  0  0  0  0
  -30.5029  -12.4781   19.5772 C   0  0  0  0  0  0  0  0  0  0  0  0
  -28.5870  -13.2663   20.9102 C   0  0  0  0  0  0  0  0  0  0  0  0
  -31.8648  -32.5001   22.8748 C   0  0  1  0  0  0  0  0  0  0  0  0
  -31.2885  -30.1796   19.9225 C   0  0  1  0  0  0  0  0  0  0  0  0
  -27.6296  -13.0789   19.7220 C   0  0  2  0  0  0  0  0  0  0  0  0
  -33.1207  -19.6137   22.2540 C   0  0  0  0  0  0  0  0  0  0  0  0
  -25.5540  -30.2885   14.7160 C   0  0  0  0  0  0  0  0  0  0  0  0
  -27.1854  -32.0786   20.8809 C   0  0  0  0  0  0  0  0  0  0  0  0
  -25.4199  -31.7714   19.1325 C   0  0  0  0  0  0  0  0  0  0  0  0
  -27.2891  -33.3776   18.7463 C   0  0  0  0  0  0  0  0  0  0  0  0
  -28.6303  -28.0504   14.6606 C   0  0  0  0  0  0  0  0  0  0  0  0
  -28.2637  -23.0942   23.1244 C   0  0  0  0  0  0  0  0  0  0  0  0
  -29.4017  -23.0156   24.1505 C   0  0  0  0  0  0  0  0  0  0  0  0
  -28.4289  -24.2741   22.1736 C   0  0  0  0  0  0  0  0  0  1  0  0
  -27.7512  -30.8935   18.6579 C   0  0  1  0  0  0  0  0  0  0  0  0
  -26.9608  -29.8558   15.0987 C   0  0  2  0  0  0  0  0  0  0  0  0
  -29.2444  -21.8403   25.1159 C   0  0  1  0  0  0  0  0  0  0  0  0
  -26.9278  -32.0084   19.3624 C   0  0  0  0  0  0  0  0  0  0  0  0
  -25.8084  -11.5309   20.3289 N   0  0  0  0  0  0  0  0  0  0  0  0
  -26.2076  -12.8048   20.1748 N   0  0  0  0  0  0  0  0  0  0  0  0
  -29.8948  -29.9986   19.5112 N   0  0  0  0  0  0  0  0  0  0  0  0
  -29.9472  -13.5390   20.4200 N   0  0  0  0  0  0  0  0  0  0  0  0
  -25.4730  -15.0494   20.3556 N   0  0  0  0  0  0  0  0  0  0  0  0
  -21.8314  -12.6617   21.5528 N   0  0  0  0  0  0  0  0  0  0  0  0
  -30.4211  -20.2369   23.7531 N   0  0  0  0  0  0  0  0  0  0  0  0
  -30.0743  -15.6432   21.4776 N   0  0  0  0  0  0  0  0  0  0  0  0
  -31.7899  -31.8816   21.5686 N   0  0  0  0  0  0  0  0  0  0  0  0
  -27.5477  -30.8216   17.2151 N   0  0  0  0  0  0  0  0  0  0  0  0
  -27.2682  -28.5795   14.3933 N   0  3  0  0  0  0  0  0  0  0  0  0
  -22.6452  -14.7815   21.2321 O   0  0  0  0  0  0  0  0  0  0  0  0
  -30.8105  -29.8699   22.2139 O   0  0  0  0  0  0  0  0  0  0  0  0
  -29.7956  -32.0813   18.4677 O   0  0  0  0  0  0  0  0  0  0  0  0
  -26.8185  -28.6209   17.1705 O   0  0  0  0  0  0  0  0  0  0  0  0
  -28.2394  -19.7670   24.4880 O   0  0  0  0  0  0  0  0  0  0  0  0
  -31.8579  -14.8275   20.2385 O   0  0  0  0  0  0  0  0  0  0  0  0
  -21.4680   -7.1079   21.7941 O   0  0  0  0  0  0  0  0  0  0  0  0
  -29.6521  -24.1474   21.4495 O   0  0  0  0  0  0  0  0  0  1  0  0
  -23.7912   -3.0891   24.7700 F   0  0  0  0  0  0  0  0  0  0  0  0
  -20.3717   -6.3128   24.2042 F   0  0  0  0  0  0  0  0  0  0  0  0
  -28.0984  -22.0219   25.8328 F   0  0  0  0  0  0  0  0  0  0  0  0
  -29.5665  -17.8673   22.8731 S   0  0  0  0  0  0  0  0  0  0  0  0
  1  2  1  0  0  0  0
  1  5  2  0  0  0  0
  2  6  2  0  0  0  0
  3  8  2  0  0  0  0
  3 16  1  0  0  0  0
  4  9  1  0  0  0  0
  4 16  2  0  0  0  0
  5 18  1  0  0  0  0
  6 20  1  0  0  0  0
  7 10  2  0  0  0  0
  7 19  1  0  0  0  0
  8 23  1  0  0  0  0
  9 23  2  0  0  0  0
 10 24  1  0  0  0  0
 11 12  2  0  0  0  0
 11 25  1  0  0  0  0
 12 26  1  0  0  0  0
 13 21  1  0  0  0  0
 13 24  2  0  0  0  0
 14 22  1  0  0  0  0
 14 30  2  0  0  0  0
 15 26  2  0  0  0  0
 15 27  1  0  0  0  0
 16 28  1  0  0  0  0
 17 28  1  0  0  0  0
 17 29  2  0  0  0  0
 17 32  1  0  0  0  0
 18 20  2  0  0  0  0
 18 38  1  0  0  0  0
 19 21  2  0  0  0  0
 19 39  1  0  0  0  0
 20 47  1  0  0  0  0
 21 40  1  0  0  0  0
 22 31  2  0  0  0  0
 22 50  1  0  0  0  0
 23 80  1  0  0  0  0
 24 81  1  0  0  0  0
 25 27  2  0  0  0  0
 25 80  1  0  0  0  0
 26 82  1  0  0  0  0
 27 83  1  0  0  0  0
 28 63  2  0  0  0  0
 29 64  1  0  0  0  0
 29 67  1  0  0  0  0
 30 70  1  0  0  0  0
 30 85  1  0  0  0  0
 31 69  1  0  0  0  0
 31 85  1  0  0  0  0
 32 68  1  0  0  0  0
 32 74  2  0  0  0  0
 33 48  1  0  0  0  0
 33 71  1  0  0  0  0
 33 75  2  0  0  0  0
 34 59  1  0  0  0  0
 34 65  1  0  0  0  0
 34 76  2  0  0  0  0
 35 60  1  0  0  0  0
 35 72  1  0  0  0  0
 35 77  2  0  0  0  0
 36 61  1  0  0  0  0
 36 69  1  0  0  0  0
 36 78  2  0  0  0  0
 37 66  1  0  0  0  0
 37 70  1  0  0  0  0
 37 79  2  0  0  0  0
 38 41  1  0  0  0  0
 39 48  1  0  0  0  0
 40 65  1  0  0  0  0
 41 43  1  0  0  0  0
 42 44  1  0  0  0  0
 42 45  1  0  0  0  0
 43 47  1  0  0  0  0
 44 49  1  0  0  0  0
 45 66  1  0  0  0  0
 46 49  1  0  0  0  0
 46 66  1  0  0  0  0
 47 71  1  0  0  0  0
 48 65  1  0  0  0  0
 49 64  1  0  0  0  0
 51 60  1  0  0  0  0
 52 62  1  0  0  0  0
 53 62  1  0  0  0  0
 54 62  1  0  0  0  0
 55 73  1  0  0  0  0
 56 57  1  0  0  0  0
 56 58  1  0  0  0  0
 57 61  1  0  0  0  0
 58 81  1  0  0  0  0
 59 62  1  0  0  0  0
 59 72  1  0  0  0  0
 60 73  1  0  0  0  0
 61 84  1  0  0  0  0
 63 64  1  0  0  0  0
M  CHG  1  73   1
M  ISO  4  37 100  58 101  70 100  81 101
M  END
> <Batch ID>
0178

> <Smiles>
CNC(C)C(=O)NC(C(=O)N1Cc2cc([101O:1][101CH2:1]CCC(F)C(=O)Nc3sc([100NH:0][100C:0](=O)N4CCCC(n5nc(-c6ccc(Oc7ccc(F)cc7F)cc6)c(C(N)=O)c5N)C4)cc3C)ccc2CC1C(=O)NC1CCCc2ccccc21)C(C)(C)C

> <Shape>
0.218

> <Color>
0.198

> <Negative vol penalty>
0.000

$$$$

  -OEChem-04052304443D

 85 93  0     1  0  0  0  0  0999 V2000
  -28.0919  -32.6407   26.2988 C   0  0  0  0  0  0  0  0  0  0  0  0
  -28.1754  -31.4625   25.5638 C   0  0  0  0  0  0  0  0  0  0  0  0
  -24.6930   -9.1195   21.4785 C   0  0  0  0  0  0  0  0  0  0  0  0
  -23.1659  -10.9742   21.2228 C   0  0  0  0  0  0  0  0  0  0  0  0
  -26.8473  -33.1236   26.7008 C   0  0  0  0  0  0  0  0  0  0  0  0
  -27.0142  -30.7658   25.2312 C   0  0  0  0  0  0  0  0  0  0  0  0
  -26.9855  -29.2283   20.4063 C   0  0  0  0  0  0  0  0  0  0  0  0
  -23.8438   -8.5512   22.4280 C   0  0  0  0  0  0  0  0  0  0  0  0
  -22.3167  -10.4059   22.1723 C   0  0  0  0  0  0  0  0  0  0  0  0
  -27.7431  -28.1007   20.0928 C   0  0  0  0  0  0  0  0  0  0  0  0
  -21.9035   -6.4320   24.6549 C   0  0  0  0  0  0  0  0  0  0  0  0
  -21.6432   -5.0652   24.5568 C   0  0  0  0  0  0  0  0  0  0  0  0
  -25.7451  -26.7502   20.1484 C   0  0  0  0  0  0  0  0  0  0  0  0
  -20.7098   -5.4011   22.3538 C   0  0  0  0  0  0  0  0  0  0  0  0
  -24.3541  -10.3310   20.8759 C   0  0  0  0  0  0  0  0  0  0  0  0
  -25.2110  -10.7106   18.5033 C   0  0  0  0  0  0  0  0  0  0  0  0
  -25.6695  -32.4376   26.3647 C   0  0  0  0  0  0  0  0  0  0  0  0
  -25.6012  -29.1232   20.6042 C   0  0  0  0  0  0  0  0  0  0  0  0
  -25.7526  -31.2392   25.6303 C   0  0  0  0  0  0  0  0  0  0  0  0
  -24.9717  -27.8784   20.4617 C   0  0  0  0  0  0  0  0  0  0  0  0
  -22.6557   -9.1944   22.7749 C   0  0  0  0  0  0  0  0  0  0  0  0
  -27.1234  -26.8609   19.9667 C   0  0  0  0  0  0  0  0  0  0  0  0
  -21.5669   -7.2834   23.6025 C   0  0  0  0  0  0  0  0  0  0  0  0
  -21.0464   -4.5497   23.4062 C   0  0  0  0  0  0  0  0  0  0  0  0
  -20.9701   -6.7680   22.4520 C   0  0  0  0  0  0  0  0  0  0  0  0
  -25.2311  -10.9188   19.8955 C   0  0  0  0  0  0  0  0  0  0  0  0
  -25.9475  -20.2529   19.3018 C   0  0  0  0  0  0  0  0  0  0  0  0
  -27.3090  -20.4534   19.3921 C   0  0  0  0  0  0  0  0  0  0  0  0
  -26.2360  -11.4896   18.0248 C   0  0  0  0  0  0  0  0  0  0  0  0
  -27.2756  -18.2801   19.6850 C   0  0  0  0  0  0  0  0  0  0  0  0
  -24.3433   -9.8866   17.7134 C   0  0  0  0  0  0  0  0  0  0  0  0
  -29.5767  -23.4446   19.1335 C   0  0  0  0  0  0  0  0  0  0  0  0
  -29.2802  -21.9879   19.3446 C   0  0  0  0  0  0  0  0  0  0  0  0
  -23.6372  -29.6596   23.0452 C   0  0  0  0  0  0  0  0  0  0  0  0
  -21.3470  -29.0410   20.8328 C   0  0  0  0  0  0  0  0  0  0  0  0
  -20.4920  -27.5395   17.8898 C   0  0  0  0  0  0  0  0  0  0  0  0
  -28.9224  -16.4152   20.0807 C   0  0  0  0  0  0  0  0  0  0  0  0
  -24.3503  -32.9733   26.8621 C   0  0  0  0  0  0  0  0  0  0  0  0
  -24.7941  -30.3537   20.9155 C   0  0  0  0  0  0  0  0  0  0  0  0
  -23.4856  -27.7158   20.6442 C   0  0  0  0  0  0  0  0  0  0  0  0
  -23.1414  -32.3743   26.1479 C   0  0  0  0  0  0  0  0  0  0  0  0
  -30.4761  -13.3048   19.3134 C   0  0  0  0  0  0  0  0  0  0  0  0
  -23.2775  -30.8583   26.0478 C   0  0  0  0  0  0  0  0  0  0  0  0
  -29.3049  -12.3222   19.2429 C   0  0  0  0  0  0  0  0  0  0  0  0
  -30.2715  -14.3537   20.4051 C   0  0  0  0  0  0  0  0  0  0  0  0
  -27.8252  -14.0964   20.2675 C   0  0  0  0  0  0  0  0  0  0  0  0
  -24.5139  -30.4682   25.2289 C   0  0  1  0  0  0  0  0  0  0  0  0
  -23.4680  -30.0407   21.6017 C   0  0  1  0  0  0  0  0  0  0  0  0
  -27.9557  -13.0600   19.1393 C   0  0  2  0  0  0  0  0  0  0  0  0
  -24.5060  -22.0283   20.3297 C   0  0  0  0  0  0  0  0  0  0  0  0
  -18.5376  -27.1777   16.3578 C   0  0  0  0  0  0  0  0  0  0  0  0
  -20.2263  -26.9564   22.7586 C   0  0  0  0  0  0  0  0  0  0  0  0
  -18.9200  -25.9972   20.8503 C   0  0  0  0  0  0  0  0  0  0  0  0
  -18.4969  -28.3396   21.5966 C   0  0  0  0  0  0  0  0  0  0  0  0
  -21.8409  -28.9287   15.6517 C   0  0  0  0  0  0  0  0  0  0  0  0
  -24.8525  -21.2184   19.0763 C   0  0  0  0  0  0  0  0  0  0  0  0
  -29.6400  -24.3041   20.3769 C   0  0  0  0  0  0  0  0  0  0  0  0
  -29.2162  -25.7399   20.1071 C   0  0  0  0  0  0  0  0  0  1  0  0
  -20.6312  -27.8015   20.3528 C   0  0  1  0  0  0  0  0  0  0  0  0
  -19.7377  -28.0554   16.6777 C   0  0  2  0  0  0  0  0  0  0  0  0
  -19.5969  -27.2761   21.3880 C   0  0  0  0  0  0  0  0  0  0  0  0
  -26.1928  -11.7638   20.2766 N   0  0  0  0  0  0  0  0  0  0  0  0
  -28.0722  -19.3234   19.6122 N   0  0  0  0  0  0  0  0  0  0  0  0
  -26.7865  -12.0933   19.1168 N   0  0  0  0  0  0  0  0  0  0  0  0
  -22.7407  -28.9474   20.9538 N   0  0  0  0  0  0  0  0  0  0  0  0
  -28.9748  -15.0143   20.2405 N   0  0  0  0  0  0  0  0  0  0  0  0
  -26.7111  -11.7101   16.7806 N   0  0  0  0  0  0  0  0  0  0  0  0
  -23.3433   -9.1522   18.3652 N   0  0  0  0  0  0  0  0  0  0  0  0
  -27.9305  -21.7182   19.2724 N   0  0  0  0  0  0  0  0  0  0  0  0
  -27.6380  -16.9273   19.9000 N   0  0  0  0  0  0  0  0  0  0  0  0
  -24.2540  -30.6280   23.8142 N   0  0  0  0  0  0  0  0  0  0  0  0
  -20.0585  -28.1380   19.0539 N   0  0  0  0  0  0  0  0  0  0  0  0
  -20.6308  -28.0831   15.4850 N   0  3  0  0  0  0  0  0  0  0  0  0
  -24.4621   -9.7915   16.4683 O   0  0  0  0  0  0  0  0  0  0  0  0
  -29.7538  -23.8186   17.9840 O   0  0  0  0  0  0  0  0  0  0  0  0
  -30.2394  -21.2550   19.5197 O   0  0  0  0  0  0  0  0  0  0  0  0
  -23.2363  -28.5685   23.4330 O   0  0  0  0  0  0  0  0  0  0  0  0
  -20.6943  -30.0571   21.0842 O   0  0  0  0  0  0  0  0  0  0  0  0
  -21.3746  -26.6877   17.8123 O   0  0  0  0  0  0  0  0  0  0  0  0
  -29.9442  -17.1064   20.0753 O   0  0  0  0  0  0  0  0  0  0  0  0
  -21.8267   -8.6400   23.7012 O   0  0  0  0  0  0  0  0  0  0  0  0
  -27.8607  -25.7586   19.6614 O   0  0  0  0  0  0  0  0  0  1  0  0
  -20.7979   -3.2369   23.3114 F   0  0  0  0  0  0  0  0  0  0  0  0
  -20.6455   -7.5808   21.4372 F   0  0  0  0  0  0  0  0  0  0  0  0
  -25.5974  -18.5854   19.4970 S   0  0  0  0  0  0  0  0  0  0  0  0
  1  2  1  0  0  0  0
  1  5  2  0  0  0  0
  2  6  2  0  0  0  0
  3  8  2  0  0  0  0
  3 15  1  0  0  0  0
  4  9  1  0  0  0  0
  4 15  2  0  0  0  0
  5 17  1  0  0  0  0
  6 19  1  0  0  0  0
  7 10  2  0  0  0  0
  7 18  1  0  0  0  0
  8 21  1  0  0  0  0
  9 21  2  0  0  0  0
 10 22  1  0  0  0  0
 11 12  2  0  0  0  0
 11 23  1  0  0  0  0
 12 24  1  0  0  0  0
 13 20  1  0  0  0  0
 13 22  2  0  0  0  0
 14 24  2  0  0  0  0
 14 25  1  0  0  0  0
 15 26  1  0  0  0  0
 16 26  1  0  0  0  0
 16 29  2  0  0  0  0
 16 31  1  0  0  0  0
 17 19  2  0  0  0  0
 17 38  1  0  0  0  0
 18 20  2  0  0  0  0
 18 39  1  0  0  0  0
 19 47  1  0  0  0  0
 20 40  1  0  0  0  0
 21 81  1  0  0  0  0
 22 82  1  0  0  0  0
 23 25  2  0  0  0  0
 23 81  1  0  0  0  0
 24 83  1  0  0  0  0
 25 84  1  0  0  0  0
 26 62  2  0  0  0  0
 27 28  2  0  0  0  0
 27 56  1  0  0  0  0
 27 85  1  0  0  0  0
 28 63  1  0  0  0  0
 28 69  1  0  0  0  0
 29 64  1  0  0  0  0
 29 67  1  0  0  0  0
 30 63  2  0  0  0  0
 30 70  1  0  0  0  0
 30 85  1  0  0  0  0
 31 68  1  0  0  0  0
 31 74  2  0  0  0  0
 32 33  1  0  0  0  0
 32 57  1  0  0  0  0
 32 75  2  0  0  0  0
 33 69  1  0  0  0  0
 33 76  2  0  0  0  0
 34 48  1  0  0  0  0
 34 71  1  0  0  0  0
 34 77  2  0  0  0  0
 35 59  1  0  0  0  0
 35 65  1  0  0  0  0
 35 78  2  0  0  0  0
 36 60  1  0  0  0  0
 36 72  1  0  0  0  0
 36 79  2  0  0  0  0
 37 66  1  0  0  0  0
 37 70  1  0  0  0  0
 37 80  2  0  0  0  0
 38 41  1  0  0  0  0
 39 48  1  0  0  0  0
 40 65  1  0  0  0  0
 41 43  1  0  0  0  0
 42 44  1  0  0  0  0
 42 45  1  0  0  0  0
 43 47  1  0  0  0  0
 44 49  1  0  0  0  0
 45 66  1  0  0  0  0
 46 49  1  0  0  0  0
 46 66  1  0  0  0  0
 47 71  1  0  0  0  0
 48 65  1  0  0  0  0
 49 64  1  0  0  0  0
 50 56  1  0  0  0  0
 51 60  1  0  0  0  0
 52 61  1  0  0  0  0
 53 61  1  0  0  0  0
 54 61  1  0  0  0  0
 55 73  1  0  0  0  0
 57 58  1  0  0  0  0
 58 82  1  0  0  0  0
 59 61  1  0  0  0  0
 59 72  1  0  0  0  0
 60 73  1  0  0  0  0
 62 64  1  0  0  0  0
M  CHG  1  73   1
M  ISO  4  37 100  58 101  70 100  82 101
M  END
> <Batch ID>
0178

> <Smiles>
CCc1sc([100NH:0][100C:0](=O)N2CCCC(n3nc(-c4ccc(Oc5ccc(F)cc5F)cc4)c(C(N)=O)c3N)C2)nc1NC(=O)C(=O)C[101CH2:1][101O:1]c1ccc2c(c1)CN(C(=O)C(NC(=O)C(C)NC)C(C)(C)C)C(C(=O)NC1CCCc3ccccc31)C2

> <Shape>
0.345

> <Color>
0.101

> <Negative vol penalty>
0.000

$$$$

  -OEChem-04052304443D

 88 96  0     1  0  0  0  0  0999 V2000
  -25.8106  -38.4613   24.0645 C   0  0  0  0  0  0  0  0  0  0  0  0
  -26.5696  -37.7406   23.1481 C   0  0  0  0  0  0  0  0  0  0  0  0
  -21.9951   -9.8708   20.5833 C   0  0  0  0  0  0  0  0  0  0  0  0
  -24.0206  -10.0757   21.8843 C   0  0  0  0  0  0  0  0  0  0  0  0
  -25.1536  -37.7969   25.0994 C   0  0  0  0  0  0  0  0  0  0  0  0
  -26.6731  -36.3551   23.2666 C   0  0  0  0  0  0  0  0  0  0  0  0
  -27.3280  -30.4437   19.2738 C   0  0  0  0  0  0  0  0  0  0  0  0
  -22.2295   -8.5040   20.4336 C   0  0  0  0  0  0  0  0  0  0  0  0
  -24.2550   -8.7088   21.7346 C   0  0  0  0  0  0  0  0  0  0  0  0
  -28.1260  -29.3066   19.1558 C   0  0  0  0  0  0  0  0  0  0  0  0
  -21.8611   -5.6964   22.2815 C   0  0  0  0  0  0  0  0  0  0  0  0
  -20.7855   -4.8294   22.4736 C   0  0  0  0  0  0  0  0  0  0  0  0
  -26.8831  -28.2569   20.9370 C   0  0  0  0  0  0  0  0  0  0  0  0
  -21.0281   -4.0263   20.2080 C   0  0  0  0  0  0  0  0  0  0  0  0
  -22.8907  -10.6567   21.3086 C   0  0  0  0  0  0  0  0  0  0  0  0
  -21.9250  -12.6998   22.4921 C   0  0  0  0  0  0  0  0  0  0  0  0
  -25.2412  -36.4014   25.2250 C   0  0  0  0  0  0  0  0  0  0  0  0
  -26.3069  -30.5002   20.2332 C   0  0  0  0  0  0  0  0  0  0  0  0
  -26.0178  -35.6715   24.3049 C   0  0  0  0  0  0  0  0  0  0  0  0
  -26.0719  -29.3949   21.0634 C   0  0  0  0  0  0  0  0  0  0  0  0
  -23.3595   -7.9230   21.0093 C   0  0  0  0  0  0  0  0  0  0  0  0
  -27.9055  -28.2141   19.9894 C   0  0  0  0  0  0  0  0  0  0  0  0
  -22.5202   -5.7284   21.0525 C   0  0  0  0  0  0  0  0  0  0  0  0
  -20.3690   -3.9943   21.4369 C   0  0  0  0  0  0  0  0  0  0  0  0
  -22.1037   -4.8933   20.0158 C   0  0  0  0  0  0  0  0  0  0  0  0
  -22.6494  -12.0688   21.4631 C   0  0  0  0  0  0  0  0  0  0  0  0
  -29.5814  -18.9272   20.8463 C   0  0  0  0  0  0  0  0  0  0  0  0
  -21.9875  -14.0372   22.1857 C   0  0  0  0  0  0  0  0  0  0  0  0
  -29.9000  -18.0068   21.8228 C   0  0  0  0  0  0  0  0  0  0  0  0
  -27.9026  -17.5458   20.5577 C   0  0  0  0  0  0  0  0  0  0  0  0
  -21.2554  -12.1282   23.6237 C   0  0  0  0  0  0  0  0  0  0  0  0
  -25.7044  -32.3284   22.7628 C   0  0  0  0  0  0  0  0  0  0  0  0
  -29.3564  -24.8700   20.5226 C   0  0  0  0  0  0  0  0  0  0  0  0
  -22.9170  -30.6700   22.8096 C   0  0  0  0  0  0  0  0  0  0  0  0
  -30.2033  -22.5619   21.1502 C   0  0  0  0  0  0  0  0  0  0  0  0
  -21.2178  -27.8351   21.9591 C   0  0  0  0  0  0  0  0  0  0  0  0
  -25.8789  -17.3342   19.0724 C   0  0  0  0  0  0  0  0  0  0  0  0
  -24.5520  -35.7326   26.3879 C   0  0  0  0  0  0  0  0  0  0  0  0
  -25.4375  -31.7239   20.3298 C   0  0  0  0  0  0  0  0  0  0  0  0
  -24.9753  -29.3975   22.0959 C   0  0  0  0  0  0  0  0  0  0  0  0
  -24.4072  -34.2219   26.2231 C   0  0  0  0  0  0  0  0  0  0  0  0
  -22.3881  -17.0088   18.4515 C   0  0  0  0  0  0  0  0  0  0  0  0
  -25.7222  -33.6076   25.7536 C   0  0  0  0  0  0  0  0  0  0  0  0
  -21.9918  -15.7660   19.2519 C   0  0  0  0  0  0  0  0  0  0  0  0
  -23.7772  -16.8654   17.8322 C   0  0  0  0  0  0  0  0  0  0  0  0
  -24.4463  -15.2581   19.5752 C   0  0  0  0  0  0  0  0  0  0  0  0
  -26.1341  -34.1648   24.3856 C   0  0  1  0  0  0  0  0  0  0  0  0
  -24.7594  -31.8693   21.6886 C   0  0  1  0  0  0  0  0  0  0  0  0
  -23.0814  -15.3815   20.2720 C   0  0  2  0  0  0  0  0  0  0  0  0
  -18.9634  -26.7526   22.1669 C   0  0  0  0  0  0  0  0  0  0  0  0
  -23.5122  -29.9956   25.7252 C   0  0  0  0  0  0  0  0  0  0  0  0
  -21.7835  -28.1898   25.5879 C   0  0  0  0  0  0  0  0  0  0  0  0
  -21.1248  -30.5726   25.2543 C   0  0  0  0  0  0  0  0  0  0  0  0
  -20.8592  -27.7501   19.0226 C   0  0  0  0  0  0  0  0  0  0  0  0
  -29.1902  -23.6541   21.4060 C   0  0  0  0  0  0  0  0  0  0  0  0
  -28.4020  -26.0207   20.7631 C   0  0  0  0  0  0  0  0  0  1  0  0
  -30.3626  -20.1771   20.5067 C   0  0  1  0  0  0  0  0  0  0  0  0
  -22.4462  -29.3882   23.4535 C   0  0  1  0  0  0  0  0  0  0  0  0
  -19.8612  -27.6306   21.3092 C   0  0  2  0  0  0  0  0  0  0  0  0
  -30.8595  -20.1692   19.0655 C   0  0  0  0  0  0  0  0  0  0  0  0
  -22.2387  -29.5369   24.9872 C   0  0  0  0  0  0  0  0  0  0  0  0
  -23.1363  -12.9341   20.5698 N   0  0  0  0  0  0  0  0  0  0  0  0
  -28.4366  -18.6642   20.1196 N   0  0  0  0  0  0  0  0  0  0  0  0
  -22.7169  -14.1226   21.0364 N   0  0  0  0  0  0  0  0  0  0  0  0
  -24.1564  -30.6195   22.1560 N   0  0  0  0  0  0  0  0  0  0  0  0
  -24.7579  -16.5045   18.8583 N   0  0  0  0  0  0  0  0  0  0  0  0
  -21.4891  -15.1368   22.7898 N   0  0  0  0  0  0  0  0  0  0  0  0
  -30.9568  -18.0200   22.6711 N   0  0  0  0  0  0  0  0  0  0  0  0
  -21.2899  -10.7367   23.7878 N   0  0  0  0  0  0  0  0  0  0  0  0
  -26.7249  -16.9077   20.0956 N   0  0  0  0  0  0  0  0  0  0  0  0
  -25.3627  -33.5401   23.3324 N   0  0  0  0  0  0  0  0  0  0  0  0
  -29.5981  -21.3688   20.7868 N   0  0  0  0  0  0  0  0  0  0  0  0
  -21.2494  -28.9811   22.7252 N   0  0  0  0  0  0  0  0  0  0  0  0
  -20.0179  -26.9824   19.9764 N   0  3  0  0  0  0  0  0  0  0  0  0
  -20.6307  -12.8291   24.4556 O   0  0  0  0  0  0  0  0  0  0  0  0
  -26.6711  -31.6340   23.0542 O   0  0  0  0  0  0  0  0  0  0  0  0
  -30.2434  -24.9198   19.6705 O   0  0  0  0  0  0  0  0  0  0  0  0
  -22.2077  -31.6769   22.8777 O   0  0  0  0  0  0  0  0  0  0  0  0
  -31.4139  -22.7323   21.2701 O   0  0  0  0  0  0  0  0  0  0  0  0
  -22.1544  -27.0543   21.8058 O   0  0  0  0  0  0  0  0  0  0  0  0
  -26.0595  -18.3631   18.4161 O   0  0  0  0  0  0  0  0  0  0  0  0
  -23.5884   -6.5892   20.8636 O   0  0  0  0  0  0  0  0  0  0  0  0
  -28.6834  -27.1032   19.8768 O   0  0  0  0  0  0  0  0  0  1  0  0
  -19.3371   -3.1606   21.6221 F   0  0  0  0  0  0  0  0  0  0  0  0
  -22.7337   -4.9188   18.8333 F   0  0  0  0  0  0  0  0  0  0  0  0
  -31.8803  -21.0552   18.9334 F   0  0  0  0  0  0  0  0  0  0  0  0
  -29.8836  -20.5739   18.2155 F   0  0  0  0  0  0  0  0  0  0  0  0
  -28.7244  -16.7583   21.8421 S   0  0  0  0  0  0  0  0  0  0  0  0
  1  2  1  0  0  0  0
  1  5  2  0  0  0  0
  2  6  2  0  0  0  0
  3  8  2  0  0  0  0
  3 15  1  0  0  0  0
  4  9  1  0  0  0  0
  4 15  2  0  0  0  0
  5 17  1  0  0  0  0
  6 19  1  0  0  0  0
  7 10  2  0  0  0  0
  7 18  1  0  0  0  0
  8 21  1  0  0  0  0
  9 21  2  0  0  0  0
 10 22  1  0  0  0  0
 11 12  2  0  0  0  0
 11 23  1  0  0  0  0
 12 24  1  0  0  0  0
 13 20  1  0  0  0  0
 13 22  2  0  0  0  0
 14 24  2  0  0  0  0
 14 25  1  0  0  0  0
 15 26  1  0  0  0  0
 16 26  1  0  0  0  0
 16 28  2  0  0  0  0
 16 31  1  0  0  0  0
 17 19  2  0  0  0  0
 17 38  1  0  0  0  0
 18 20  2  0  0  0  0
 18 39  1  0  0  0  0
 19 47  1  0  0  0  0
 20 40  1  0  0  0  0
 21 82  1  0  0  0  0
 22 83  1  0  0  0  0
 23 25  2  0  0  0  0
 23 82  1  0  0  0  0
 24 84  1  0  0  0  0
 25 85  1  0  0  0  0
 26 62  2  0  0  0  0
 27 29  2  0  0  0  0
 27 57  1  0  0  0  0
 27 63  1  0  0  0  0
 28 64  1  0  0  0  0
 28 67  1  0  0  0  0
 29 68  1  0  0  0  0
 29 88  1  0  0  0  0
 30 63  2  0  0  0  0
 30 70  1  0  0  0  0
 30 88  1  0  0  0  0
 31 69  1  0  0  0  0
 31 75  2  0  0  0  0
 32 48  1  0  0  0  0
 32 71  1  0  0  0  0
 32 76  2  0  0  0  0
 33 55  1  0  0  0  0
 33 56  1  0  0  0  0
 33 77  2  0  0  0  0
 34 58  1  0  0  0  0
 34 65  1  0  0  0  0
 34 78  2  0  0  0  0
 35 55  1  0  0  0  0
 35 72  1  0  0  0  0
 35 79  2  0  0  0  0
 36 59  1  0  0  0  0
 36 73  1  0  0  0  0
 36 80  2  0  0  0  0
 37 66  1  0  0  0  0
 37 70  1  0  0  0  0
 37 81  2  0  0  0  0
 38 41  1  0  0  0  0
 39 48  1  0  0  0  0
 40 65  1  0  0  0  0
 41 43  1  0  0  0  0
 42 44  1  0  0  0  0
 42 45  1  0  0  0  0
 43 47  1  0  0  0  0
 44 49  1  0  0  0  0
 45 66  1  0  0  0  0
 46 49  1  0  0  0  0
 46 66  1  0  0  0  0
 47 71  1  0  0  0  0
 48 65  1  0  0  0  0
 49 64  1  0  0  0  0
 50 59  1  0  0  0  0
 51 61  1  0  0  0  0
 52 61  1  0  0  0  0
 53 61  1  0  0  0  0
 54 74  1  0  0  0  0
 56 83  1  0  0  0  0
 57 60  1  0  0  0  0
 57 72  1  0  0  0  0
 58 61  1  0  0  0  0
 58 73  1  0  0  0  0
 59 74  1  0  0  0  0
 60 86  1  0  0  0  0
 60 87  1  0  0  0  0
 62 64  1  0  0  0  0
M  CHG  1  74   1
M  ISO  4  37 100  56 101  70 100  83 101
M  END
> <Batch ID>
0178

> <Smiles>
CNC(C)C(=O)NC(C(=O)N1Cc2cc([101O:1][101CH2:1]C(=O)CC(=O)NC(c3nc([100NH:0][100C:0](=O)N4CCCC(n5nc(-c6ccc(Oc7ccc(F)cc7F)cc6)c(C(N)=O)c5N)C4)sc3N)C(F)F)ccc2CC1C(=O)NC1CCCc2ccccc21)C(C)(C)C

> <Shape>
0.318

> <Color>
0.077

> <Negative vol penalty>
0.000

$$$$

  -OEChem-04052304443D

 86 94  0     1  0  0  0  0  0999 V2000
  -25.8936  -35.5004   22.9947 C   0  0  0  0  0  0  0  0  0  0  0  0
  -26.4465  -34.2308   22.8616 C   0  0  0  0  0  0  0  0  0  0  0  0
  -22.7769  -10.6922   21.8544 C   0  0  0  0  0  0  0  0  0  0  0  0
  -24.9417  -10.8650   22.9131 C   0  0  0  0  0  0  0  0  0  0  0  0
  -24.5677  -35.6429   23.4016 C   0  0  0  0  0  0  0  0  0  0  0  0
  -25.6741  -33.1028   23.1365 C   0  0  0  0  0  0  0  0  0  0  0  0
  -26.2063  -29.4833   19.6350 C   0  0  0  0  0  0  0  0  0  0  0  0
  -22.8676   -9.3009   21.8960 C   0  0  0  0  0  0  0  0  0  0  0  0
  -25.0324   -9.4737   22.9548 C   0  0  0  0  0  0  0  0  0  0  0  0
  -27.3584  -28.7008   19.6981 C   0  0  0  0  0  0  0  0  0  0  0  0
  -22.4461   -6.8445   24.1811 C   0  0  0  0  0  0  0  0  0  0  0  0
  -21.3229   -6.1341   24.6044 C   0  0  0  0  0  0  0  0  0  0  0  0
  -26.1029  -26.9504   20.7838 C   0  0  0  0  0  0  0  0  0  0  0  0
  -21.2439   -4.9916   22.4770 C   0  0  0  0  0  0  0  0  0  0  0  0
  -23.8140  -11.4742   22.3629 C   0  0  0  0  0  0  0  0  0  0  0  0
  -23.1734  -13.7579   23.3021 C   0  0  0  0  0  0  0  0  0  0  0  0
  -23.7757  -34.5158   23.6723 C   0  0  0  0  0  0  0  0  0  0  0  0
  -24.9941  -29.0088   20.1565 C   0  0  0  0  0  0  0  0  0  0  0  0
  -24.3368  -33.2304   23.5488 C   0  0  0  0  0  0  0  0  0  0  0  0
  -24.9362  -27.7278   20.7238 C   0  0  0  0  0  0  0  0  0  0  0  0
  -23.9953   -8.6916   22.4463 C   0  0  0  0  0  0  0  0  0  0  0  0
  -27.3075  -27.4353   20.2751 C   0  0  0  0  0  0  0  0  0  0  0  0
  -22.9683   -6.6285   22.9058 C   0  0  0  0  0  0  0  0  0  0  0  0
  -20.7217   -5.2076   23.7524 C   0  0  0  0  0  0  0  0  0  0  0  0
  -22.3671   -5.7021   22.0538 C   0  0  0  0  0  0  0  0  0  0  0  0
  -23.7212  -12.9114   22.3196 C   0  0  0  0  0  0  0  0  0  0  0  0
  -29.2957  -18.9515   22.0660 C   0  0  0  0  0  0  0  0  0  0  0  0
  -29.3468  -18.9009   20.6887 C   0  0  0  0  0  0  0  0  0  0  0  0
  -23.3245  -15.0228   22.7886 C   0  0  0  0  0  0  0  0  0  0  0  0
  -29.3445  -21.0797   20.9386 C   0  0  0  0  0  0  0  0  0  0  0  0
  -22.5810  -13.4301   24.5659 C   0  0  0  0  0  0  0  0  0  0  0  0
  -29.2554  -17.9023   23.0293 C   0  0  0  0  0  0  0  0  0  0  0  0
  -29.4479  -24.6108   19.6427 C   0  0  0  0  0  0  0  0  0  0  0  0
  -29.4080  -23.1173   19.4940 C   0  0  0  0  0  0  0  0  0  0  0  0
  -23.0256  -29.9492   22.4682 C   0  0  0  0  0  0  0  0  0  0  0  0
  -21.1627  -27.5535   21.3226 C   0  0  0  0  0  0  0  0  0  0  0  0
  -20.9596  -24.6025   19.6206 C   0  0  0  0  0  0  0  0  0  0  0  0
  -27.1396  -17.3850   18.8242 C   0  0  0  0  0  0  0  0  0  0  0  0
  -22.3617  -34.7212   24.1550 C   0  0  0  0  0  0  0  0  0  0  0  0
  -23.7542  -29.8544   20.0566 C   0  0  0  0  0  0  0  0  0  0  0  0
  -23.6550  -27.1639   21.2798 C   0  0  0  0  0  0  0  0  0  0  0  0
  -21.4990  -33.4650   24.0652 C   0  0  0  0  0  0  0  0  0  0  0  0
  -23.5847  -17.3678   18.6264 C   0  0  0  0  0  0  0  0  0  0  0  0
  -22.2507  -32.2603   24.6224 C   0  0  0  0  0  0  0  0  0  0  0  0
  -23.1671  -16.3002   19.6391 C   0  0  0  0  0  0  0  0  0  0  0  0
  -24.8746  -16.9863   17.9035 C   0  0  0  0  0  0  0  0  0  0  0  0
  -25.5885  -15.5867   19.8023 C   0  0  0  0  0  0  0  0  0  0  0  0
  -23.5236  -31.9820   23.8139 C   0  0  1  0  0  0  0  0  0  0  0  0
  -22.6895  -29.4772   21.0819 C   0  0  1  0  0  0  0  0  0  0  0  0
  -24.3230  -15.9529   20.5965 C   0  0  2  0  0  0  0  0  0  0  0  0
  -29.8719  -18.1474   24.3912 C   0  0  0  0  0  0  0  0  0  0  0  0
  -19.3067  -22.8662   18.8783 C   0  0  0  0  0  0  0  0  0  0  0  0
  -21.0411  -26.4565   24.1672 C   0  0  0  0  0  0  0  0  0  0  0  0
  -20.2195  -24.2888   23.2217 C   0  0  0  0  0  0  0  0  0  0  0  0
  -18.8744  -26.3679   22.9215 C   0  0  0  0  0  0  0  0  0  0  0  0
  -21.5723  -25.0735   16.7638 C   0  0  0  0  0  0  0  0  0  0  0  0
  -29.3744  -17.6757   19.8635 C   0  0  0  0  0  0  0  0  0  0  0  0
  -28.2549  -25.2541   20.3004 C   0  0  0  0  0  0  0  0  0  1  0  0
  -21.0184  -26.0792   21.6132 C   0  0  1  0  0  0  0  0  0  0  0  0
  -20.0391  -24.1452   18.5034 C   0  0  2  0  0  0  0  0  0  0  0  0
  -20.3131  -25.8092   22.9722 C   0  0  0  0  0  0  0  0  0  0  0  0
  -24.1855  -13.5820   21.2619 N   0  0  0  0  0  0  0  0  0  0  0  0
  -29.3744  -20.1202   20.0405 N   0  0  0  0  0  0  0  0  0  0  0  0
  -23.9298  -14.8633   21.5768 N   0  0  0  0  0  0  0  0  0  0  0  0
  -22.4712  -28.0316   21.1643 N   0  0  0  0  0  0  0  0  0  0  0  0
  -25.9311  -16.6705   18.8680 N   0  0  0  0  0  0  0  0  0  0  0  0
  -22.9973  -16.2448   23.2598 N   0  0  0  0  0  0  0  0  0  0  0  0
  -22.5056  -12.0811   24.9387 N   0  0  0  0  0  0  0  0  0  0  0  0
  -29.3590  -22.4759   20.7129 N   0  0  0  0  0  0  0  0  0  0  0  0
  -23.1973  -31.3165   22.5708 N   0  0  0  0  0  0  0  0  0  0  0  0
  -20.3362  -25.5008   20.4606 N   0  0  0  0  0  0  0  0  0  0  0  0
  -28.0849  -17.0271   19.7776 N   0  0  0  0  0  0  0  0  0  0  0  0
  -20.8201  -23.8923   17.2596 N   0  3  0  0  0  0  0  0  0  0  0  0
  -22.1170  -14.3063   25.3344 O   0  0  0  0  0  0  0  0  0  0  0  0
  -28.7556  -16.7689   22.8624 O   0  0  0  0  0  0  0  0  0  0  0  0
  -30.4269  -25.1966   19.2058 O   0  0  0  0  0  0  0  0  0  0  0  0
  -29.4493  -22.6803   18.3559 O   0  0  0  0  0  0  0  0  0  0  0  0
  -23.1206  -29.1335   23.3778 O   0  0  0  0  0  0  0  0  0  0  0  0
  -20.1512  -28.2538   21.2321 O   0  0  0  0  0  0  0  0  0  0  0  0
  -22.1148  -24.1999   19.7387 O   0  0  0  0  0  0  0  0  0  0  0  0
  -27.3578  -18.2796   18.0001 O   0  0  0  0  0  0  0  0  0  0  0  0
  -24.0839   -7.3341   22.4873 O   0  0  0  0  0  0  0  0  0  0  0  0
  -28.4308  -26.6697   20.3386 O   0  0  0  0  0  0  0  0  0  1  0  0
  -19.6440   -4.5244   24.1595 F   0  0  0  0  0  0  0  0  0  0  0  0
  -22.8649   -5.4894   20.8279 F   0  0  0  0  0  0  0  0  0  0  0  0
  -29.2832  -20.5872   22.5814 S   0  0  0  0  0  0  0  0  0  0  0  0
  1  2  1  0  0  0  0
  1  5  2  0  0  0  0
  2  6  2  0  0  0  0
  3  8  2  0  0  0  0
  3 15  1  0  0  0  0
  4  9  1  0  0  0  0
  4 15  2  0  0  0  0
  5 17  1  0  0  0  0
  6 19  1  0  0  0  0
  7 10  2  0  0  0  0
  7 18  1  0  0  0  0
  8 21  1  0  0  0  0
  9 21  2  0  0  0  0
 10 22  1  0  0  0  0
 11 12  2  0  0  0  0
 11 23  1  0  0  0  0
 12 24  1  0  0  0  0
 13 20  1  0  0  0  0
 13 22  2  0  0  0  0
 14 24  2  0  0  0  0
 14 25  1  0  0  0  0
 15 26  1  0  0  0  0
 16 26  1  0  0  0  0
 16 29  2  0  0  0  0
 16 31  1  0  0  0  0
 17 19  2  0  0  0  0
 17 39  1  0  0  0  0
 18 20  2  0  0  0  0
 18 40  1  0  0  0  0
 19 48  1  0  0  0  0
 20 41  1  0  0  0  0
 21 82  1  0  0  0  0
 22 83  1  0  0  0  0
 23 25  2  0  0  0  0
 23 82  1  0  0  0  0
 24 84  1  0  0  0  0
 25 85  1  0  0  0  0
 26 62  2  0  0  0  0
 27 28  2  0  0  0  0
 27 32  1  0  0  0  0
 27 86  1  0  0  0  0
 28 57  1  0  0  0  0
 28 63  1  0  0  0  0
 29 64  1  0  0  0  0
 29 67  1  0  0  0  0
 30 63  2  0  0  0  0
 30 69  1  0  0  0  0
 30 86  1  0  0  0  0
 31 68  1  0  0  0  0
 31 74  2  0  0  0  0
 32 51  1  0  0  0  0
 32 75  2  0  0  0  0
 33 34  1  0  0  0  0
 33 58  1  0  0  0  0
 33 76  2  0  0  0  0
 34 69  1  0  0  0  0
 34 77  2  0  0  0  0
 35 49  1  0  0  0  0
 35 70  1  0  0  0  0
 35 78  2  0  0  0  0
 36 59  1  0  0  0  0
 36 65  1  0  0  0  0
 36 79  2  0  0  0  0
 37 60  1  0  0  0  0
 37 71  1  0  0  0  0
 37 80  2  0  0  0  0
 38 66  1  0  0  0  0
 38 72  1  0  0  0  0
 38 81  2  0  0  0  0
 39 42  1  0  0  0  0
 40 49  1  0  0  0  0
 41 65  1  0  0  0  0
 42 44  1  0  0  0  0
 43 45  1  0  0  0  0
 43 46  1  0  0  0  0
 44 48  1  0  0  0  0
 45 50  1  0  0  0  0
 46 66  1  0  0  0  0
 47 50  1  0  0  0  0
 47 66  1  0  0  0  0
 48 70  1  0  0  0  0
 49 65  1  0  0  0  0
 50 64  1  0  0  0  0
 52 60  1  0  0  0  0
 53 61  1  0  0  0  0
 54 61  1  0  0  0  0
 55 61  1  0  0  0  0
 56 73  1  0  0  0  0
 57 72  1  0  0  0  0
 58 83  1  0  0  0  0
 59 61  1  0  0  0  0
 59 71  1  0  0  0  0
 60 73  1  0  0  0  0
 62 64  1  0  0  0  0
M  CHG  1  73   1
M  ISO  4  38 100  58 101  72 100  83 101
M  END
> <Batch ID>
0178

> <Smiles>
CNC(C)C(=O)NC(C(=O)N1Cc2cc([101O:1][101CH2:1]C(=O)C(=O)Nc3nc(C[100NH:0][100C:0](=O)N4CCCC(n5nc(-c6ccc(Oc7ccc(F)cc7F)cc6)c(C(N)=O)c5N)C4)c(C(C)=O)s3)ccc2CC1C(=O)NC1CCCc2ccccc21)C(C)(C)C

> <Shape>
0.295

> <Color>
0.106

> <Negative vol penalty>
0.000

$$$$

  -OEChem-04052304443D

 84 92  0     1  0  0  0  0  0999 V2000
  -29.7832  -32.7947   26.6620 C   0  0  0  0  0  0  0  0  0  0  0  0
  -29.7212  -31.7018   25.8035 C   0  0  0  0  0  0  0  0  0  0  0  0
  -23.0414   -7.5728   19.4970 C   0  0  0  0  0  0  0  0  0  0  0  0
  -25.3922   -8.1297   19.4669 C   0  0  0  0  0  0  0  0  0  0  0  0
  -28.6082  -33.3544   27.1620 C   0  0  0  0  0  0  0  0  0  0  0  0
  -28.4841  -31.1673   25.4452 C   0  0  0  0  0  0  0  0  0  0  0  0
  -26.9608  -28.7053   20.0485 C   0  0  0  0  0  0  0  0  0  0  0  0
  -23.2824   -6.5087   18.6281 C   0  0  0  0  0  0  0  0  0  0  0  0
  -25.6331   -7.0655   18.5980 C   0  0  0  0  0  0  0  0  0  0  0  0
  -26.8846  -27.3848   19.6081 C   0  0  0  0  0  0  0  0  0  0  0  0
  -23.3342   -3.4254   16.7030 C   0  0  0  0  0  0  0  0  0  0  0  0
  -22.7290   -2.2024   16.9920 C   0  0  0  0  0  0  0  0  0  0  0  0
  -24.5182  -27.3715   20.0765 C   0  0  0  0  0  0  0  0  0  0  0  0
  -23.8838   -2.1322   19.1130 C   0  0  0  0  0  0  0  0  0  0  0  0
  -24.0963   -8.3834   19.9164 C   0  0  0  0  0  0  0  0  0  0  0  0
  -23.8729   -9.4546   22.2208 C   0  0  0  0  0  0  0  0  0  0  0  0
  -27.3557  -32.8326   26.8021 C   0  0  0  0  0  0  0  0  0  0  0  0
  -25.8165  -29.3665   20.5173 C   0  0  0  0  0  0  0  0  0  0  0  0
  -27.2913  -31.7197   25.9419 C   0  0  0  0  0  0  0  0  0  0  0  0
  -24.5821  -28.7013   20.5199 C   0  0  0  0  0  0  0  0  0  0  0  0
  -24.5782   -6.2550   18.1786 C   0  0  0  0  0  0  0  0  0  0  0  0
  -25.6637  -26.7167   19.6247 C   0  0  0  0  0  0  0  0  0  0  0  0
  -24.2143   -4.0018   17.6189 C   0  0  0  0  0  0  0  0  0  0  0  0
  -23.0038   -1.5558   18.1970 C   0  0  0  0  0  0  0  0  0  0  0  0
  -24.4891   -3.3552   18.8239 C   0  0  0  0  0  0  0  0  0  0  0  0
  -23.8480   -9.4832   20.8136 C   0  0  0  0  0  0  0  0  0  0  0  0
  -27.9781  -18.2985   19.9754 C   0  0  0  0  0  0  0  0  0  0  0  0
  -23.5737  -10.7416   22.5958 C   0  0  0  0  0  0  0  0  0  0  0  0
  -28.9458  -17.3209   20.0758 C   0  0  0  0  0  0  0  0  0  0  0  0
  -26.6686  -16.5393   19.9964 C   0  0  0  0  0  0  0  0  0  0  0  0
  -24.1426   -8.3623   23.1096 C   0  0  0  0  0  0  0  0  0  0  0  0
  -28.2606  -19.7631   19.9151 C   0  0  0  0  0  0  0  0  0  0  0  0
  -24.9486  -30.6561   23.2899 C   0  0  0  0  0  0  0  0  0  0  0  0
  -26.3652  -23.1606   19.5494 C   0  0  0  0  0  0  0  0  0  0  0  0
  -22.3702  -31.6351   21.5824 C   0  0  0  0  0  0  0  0  0  0  0  0
  -20.3297  -31.1614   18.8881 C   0  0  0  0  0  0  0  0  0  0  0  0
  -24.2032  -16.0324   19.8908 C   0  0  0  0  0  0  0  0  0  0  0  0
  -26.1149  -33.4417   27.4055 C   0  0  0  0  0  0  0  0  0  0  0  0
  -25.9104  -30.7997   20.9639 C   0  0  0  0  0  0  0  0  0  0  0  0
  -23.3203  -29.3730   20.9945 C   0  0  0  0  0  0  0  0  0  0  0  0
  -24.8299  -33.0506   26.6802 C   0  0  0  0  0  0  0  0  0  0  0  0
  -21.1754  -14.6125   21.1129 C   0  0  0  0  0  0  0  0  0  0  0  0
  -24.8027  -31.5487   26.4147 C   0  0  0  0  0  0  0  0  0  0  0  0
  -21.5212  -13.1345   21.3087 C   0  0  0  0  0  0  0  0  0  0  0  0
  -21.8628  -15.1973   19.8804 C   0  0  0  0  0  0  0  0  0  0  0  0
  -23.6627  -13.5213   20.0235 C   0  0  0  0  0  0  0  0  0  0  0  0
  -25.9673  -31.1272   25.5105 C   0  0  1  0  0  0  0  0  0  0  0  0
  -24.7795  -31.2083   21.9028 C   0  0  1  0  0  0  0  0  0  0  0  0
  -23.0452  -12.9050   21.2895 C   0  0  2  0  0  0  0  0  0  0  0  0
  -18.2839  -32.0987   17.7775 C   0  0  0  0  0  0  0  0  0  0  0  0
  -20.6197  -30.3428   23.7215 C   0  0  0  0  0  0  0  0  0  0  0  0
  -18.6969  -30.4645   22.1227 C   0  0  0  0  0  0  0  0  0  0  0  0
  -19.8018  -32.5602   22.9038 C   0  0  0  0  0  0  0  0  0  0  0  0
  -21.8196  -31.7837   16.4078 C   0  0  0  0  0  0  0  0  0  0  0  0
  -27.0885  -20.7299   19.8046 C   0  0  0  0  0  0  0  0  0  0  0  0
  -27.5261  -22.1917   19.7222 C   0  0  0  0  0  0  0  0  0  0  0  0
  -26.7481  -24.6160   19.3655 C   0  0  0  0  0  0  0  0  0  1  0  0
  -21.0113  -31.0557   21.2711 C   0  0  1  0  0  0  0  0  0  0  0  0
  -19.8031  -32.1265   17.8414 C   0  0  2  0  0  0  0  0  0  0  0  0
  -20.0564  -31.0922   22.4976 C   0  0  0  0  0  0  0  0  0  0  0  0
  -23.5558  -10.6925   20.3275 N   0  0  0  0  0  0  0  0  0  0  0  0
  -26.6718  -17.8522   19.9293 N   0  0  0  0  0  0  0  0  0  0  0  0
  -23.3944  -11.4357   21.4355 N   0  0  0  0  0  0  0  0  0  0  0  0
  -23.4648  -30.7728   21.4272 N   0  0  0  0  0  0  0  0  0  0  0  0
  -23.3046  -14.9455   19.9332 N   0  0  0  0  0  0  0  0  0  0  0  0
  -23.4491  -11.3359   23.8014 N   0  0  0  0  0  0  0  0  0  0  0  0
  -30.2914  -17.4741   20.1379 N   0  0  0  0  0  0  0  0  0  0  0  0
  -24.4320   -7.1072   22.5572 N   0  0  0  0  0  0  0  0  0  0  0  0
  -25.5476  -15.6729   19.9810 N   0  0  0  0  0  0  0  0  0  0  0  0
  -25.6856  -31.4666   24.1322 N   0  0  0  0  0  0  0  0  0  0  0  0
  -20.5157  -31.7805   20.1061 N   0  0  0  0  0  0  0  0  0  0  0  0
  -20.3366  -31.7727   16.4956 N   0  3  0  0  0  0  0  0  0  0  0  0
  -24.1111   -8.4916   24.3570 O   0  0  0  0  0  0  0  0  0  0  0  0
  -29.4261  -20.1501   19.9592 O   0  0  0  0  0  0  0  0  0  0  0  0
  -24.4463  -29.5754   23.5754 O   0  0  0  0  0  0  0  0  0  0  0  0
  -25.1901  -22.7976   19.5621 O   0  0  0  0  0  0  0  0  0  0  0  0
  -22.4578  -32.8115   21.9428 O   0  0  0  0  0  0  0  0  0  0  0  0
  -20.5502  -29.9759   18.6502 O   0  0  0  0  0  0  0  0  0  0  0  0
  -23.8082  -17.1983   19.8100 O   0  0  0  0  0  0  0  0  0  0  0  0
  -24.8137   -5.2165   17.3309 O   0  0  0  0  0  0  0  0  0  0  0  0
  -25.5866  -25.4275   19.1959 O   0  0  0  0  0  0  0  0  0  1  0  0
  -22.4214   -0.3821   18.4750 F   0  0  0  0  0  0  0  0  0  0  0  0
  -25.3328   -3.9046   19.7083 F   0  0  0  0  0  0  0  0  0  0  0  0
  -28.2011  -15.7765   20.1169 S   0  0  0  0  0  0  0  0  0  0  0  0
  1  2  1  0  0  0  0
  1  5  2  0  0  0  0
  2  6  2  0  0  0  0
  3  8  2  0  0  0  0
  3 15  1  0  0  0  0
  4  9  1  0  0  0  0
  4 15  2  0  0  0  0
  5 17  1  0  0  0  0
  6 19  1  0  0  0  0
  7 10  2  0  0  0  0
  7 18  1  0  0  0  0
  8 21  1  0  0  0  0
  9 21  2  0  0  0  0
 10 22  1  0  0  0  0
 11 12  2  0  0  0  0
 11 23  1  0  0  0  0
 12 24  1  0  0  0  0
 13 20  1  0  0  0  0
 13 22  2  0  0  0  0
 14 24  2  0  0  0  0
 14 25  1  0  0  0  0
 15 26  1  0  0  0  0
 16 26  1  0  0  0  0
 16 28  2  0  0  0  0
 16 31  1  0  0  0  0
 17 19  2  0  0  0  0
 17 38  1  0  0  0  0
 18 20  2  0  0  0  0
 18 39  1  0  0  0  0
 19 47  1  0  0  0  0
 20 40  1  0  0  0  0
 21 80  1  0  0  0  0
 22 81  1  0  0  0  0
 23 25  2  0  0  0  0
 23 80  1  0  0  0  0
 24 82  1  0  0  0  0
 25 83  1  0  0  0  0
 26 61  2  0  0  0  0
 27 29  2  0  0  0  0
 27 32  1  0  0  0  0
 27 62  1  0  0  0  0
 28 63  1  0  0  0  0
 28 66  1  0  0  0  0
 29 67  1  0  0  0  0
 29 84  1  0  0  0  0
 30 62  2  0  0  0  0
 30 69  1  0  0  0  0
 30 84  1  0  0  0  0
 31 68  1  0  0  0  0
 31 73  2  0  0  0  0
 32 55  1  0  0  0  0
 32 74  2  0  0  0  0
 33 48  1  0  0  0  0
 33 70  1  0  0  0  0
 33 75  2  0  0  0  0
 34 56  1  0  0  0  0
 34 57  1  0  0  0  0
 34 76  2  0  0  0  0
 35 58  1  0  0  0  0
 35 64  1  0  0  0  0
 35 77  2  0  0  0  0
 36 59  1  0  0  0  0
 36 71  1  0  0  0  0
 36 78  2  0  0  0  0
 37 65  1  0  0  0  0
 37 69  1  0  0  0  0
 37 79  2  0  0  0  0
 38 41  1  0  0  0  0
 39 48  1  0  0  0  0
 40 64  1  0  0  0  0
 41 43  1  0  0  0  0
 42 44  1  0  0  0  0
 42 45  1  0  0  0  0
 43 47  1  0  0  0  0
 44 49  1  0  0  0  0
 45 65  1  0  0  0  0
 46 49  1  0  0  0  0
 46 65  1  0  0  0  0
 47 70  1  0  0  0  0
 48 64  1  0  0  0  0
 49 63  1  0  0  0  0
 50 59  1  0  0  0  0
 51 60  1  0  0  0  0
 52 60  1  0  0  0  0
 53 60  1  0  0  0  0
 54 72  1  0  0  0  0
 55 56  1  0  0  0  0
 57 81  1  0  0  0  0
 58 60  1  0  0  0  0
 58 71  1  0  0  0  0
 59 72  1  0  0  0  0
 61 63  1  0  0  0  0
M  CHG  1  72   1
M  ISO  4  37 100  57 101  69 100  81 101
M  END
> <Batch ID>
0178

> <Smiles>
CNC(C)C(=O)NC(C(=O)N1Cc2cc([101O:1][101CH2:1]C(=O)CCC(=O)c3nc([100NH:0][100C:0](=O)N4CCCC(n5nc(-c6ccc(Oc7ccc(F)cc7F)cc6)c(C(N)=O)c5N)C4)sc3N)ccc2CC1C(=O)NC1CCCc2ccccc21)C(C)(C)C

> <Shape>
0.236

> <Color>
0.087

> <Negative vol penalty>
0.000

$$$$

  -OEChem-04052304443D

 85 93  0     1  0  0  0  0  0999 V2000
  -27.2380  -11.2196   16.8137 C   0  0  0  0  0  0  0  0  0  0  0  0
  -26.3173  -12.2345   17.0535 C   0  0  0  0  0  0  0  0  0  0  0  0
  -24.8092  -31.0880   20.8340 C   0  0  0  0  0  0  0  0  0  0  0  0
  -25.1586  -30.7044   23.1936 C   0  0  0  0  0  0  0  0  0  0  0  0
  -28.4172  -11.1602   17.5551 C   0  0  0  0  0  0  0  0  0  0  0  0
  -26.5748  -13.1901   18.0358 C   0  0  0  0  0  0  0  0  0  0  0  0
  -25.5443  -17.8989   16.4831 C   0  0  0  0  0  0  0  0  0  0  0  0
  -25.5455  -32.2697   20.9171 C   0  0  0  0  0  0  0  0  0  0  0  0
  -25.8949  -31.8861   23.2767 C   0  0  0  0  0  0  0  0  0  0  0  0
  -24.2049  -18.2856   16.4683 C   0  0  0  0  0  0  0  0  0  0  0  0
  -27.5621  -34.9850   24.1865 C   0  0  0  0  0  0  0  0  0  0  0  0
  -27.3012  -35.8374   25.2593 C   0  0  0  0  0  0  0  0  0  0  0  0
  -24.5217  -19.4415   18.5618 C   0  0  0  0  0  0  0  0  0  0  0  0
  -25.0094  -36.0575   24.5269 C   0  0  0  0  0  0  0  0  0  0  0  0
  -17.8075  -20.8055   22.0927 C   0  0  0  0  0  0  0  0  0  0  0  0
  -24.6157  -30.3053   21.9723 C   0  0  0  0  0  0  0  0  0  0  0  0
  -24.3445  -27.7955   21.6054 C   0  0  0  0  0  0  0  0  0  0  0  0
  -28.6938  -12.1211   18.5404 C   0  0  0  0  0  0  0  0  0  0  0  0
  -26.3812  -18.2720   17.5447 C   0  0  0  0  0  0  0  0  0  0  0  0
  -27.7582  -13.1428   18.7921 C   0  0  0  0  0  0  0  0  0  0  0  0
  -25.8720  -19.0604   18.5865 C   0  0  0  0  0  0  0  0  0  0  0  0
  -26.0884  -32.6688   22.1384 C   0  0  0  0  0  0  0  0  0  0  0  0
  -23.6927  -19.0546   17.5091 C   0  0  0  0  0  0  0  0  0  0  0  0
  -26.5467  -34.6688   23.2839 C   0  0  0  0  0  0  0  0  0  0  0  0
  -26.0249  -36.3736   25.4295 C   0  0  0  0  0  0  0  0  0  0  0  0
  -25.2704  -35.2051   23.4541 C   0  0  0  0  0  0  0  0  0  0  0  0
  -17.6121  -21.7013   23.1833 C   0  0  0  0  0  0  0  0  0  0  0  0
  -23.8547  -29.0848   21.8873 C   0  0  0  0  0  0  0  0  0  0  0  0
  -18.8051  -22.1668   23.6908 C   0  0  0  0  0  0  0  0  0  0  0  0
  -23.2323  -26.9904   21.6400 C   0  0  0  0  0  0  0  0  0  0  0  0
  -19.1427  -20.6206   21.8080 C   0  0  0  0  0  0  0  0  0  0  0  0
  -25.6851  -27.3641   21.3363 C   0  0  0  0  0  0  0  0  0  0  0  0
  -20.1614  -18.3371   18.9962 C   0  0  0  0  0  0  0  0  0  0  0  0
  -19.1658  -19.0334   19.8785 C   0  0  0  0  0  0  0  0  0  0  0  0
  -28.0363  -16.6989   19.7560 C   0  0  0  0  0  0  0  0  0  0  0  0
  -29.1407  -19.6620   20.4791 C   0  0  0  0  0  0  0  0  0  0  0  0
  -28.6472  -23.0379   20.3964 C   0  0  0  0  0  0  0  0  0  0  0  0
  -18.4539  -25.3926   24.0399 C   0  0  0  0  0  0  0  0  0  0  0  0
  -29.9601  -11.9883   19.3488 C   0  0  0  0  0  0  0  0  0  0  0  0
  -27.8303  -17.8693   17.5325 C   0  0  0  0  0  0  0  0  0  0  0  0
  -26.7338  -19.5043   19.7391 C   0  0  0  0  0  0  0  0  0  0  0  0
  -30.3302  -13.2563   20.1138 C   0  0  0  0  0  0  0  0  0  0  0  0
  -18.3171  -28.1719   21.8188 C   0  0  0  0  0  0  0  0  0  0  0  0
  -29.1090  -13.8224   20.8315 C   0  0  0  0  0  0  0  0  0  0  0  0
  -19.7849  -28.5543   21.6206 C   0  0  0  0  0  0  0  0  0  0  0  0
  -18.0439  -27.7031   23.2463 C   0  0  0  0  0  0  0  0  0  0  0  0
  -20.3896  -26.9992   23.5219 C   0  0  0  0  0  0  0  0  0  0  0  0
  -28.0132  -14.2121   19.8321 C   0  0  1  0  0  0  0  0  0  0  0  0
  -28.4631  -17.8727   18.9206 C   0  0  1  0  0  0  0  0  0  0  0  0
  -20.7258  -27.4253   22.0826 C   0  0  2  0  0  0  0  0  0  0  0  0
  -29.7065  -25.2014   21.0995 C   0  0  0  0  0  0  0  0  0  0  0  0
  -28.2877  -19.1400   23.3617 C   0  0  0  0  0  0  0  0  0  0  0  0
  -28.4779  -21.5994   23.7899 C   0  0  0  0  0  0  0  0  0  0  0  0
  -30.4939  -20.2925   23.1191 C   0  0  0  0  0  0  0  0  0  0  0  0
  -28.8355  -23.9885   17.6000 C   0  0  0  0  0  0  0  0  0  0  0  0
  -19.0244  -23.1044   24.8132 C   0  0  0  0  0  0  0  0  0  0  0  0
  -20.1021  -18.6722   17.5221 C   0  0  0  0  0  0  0  0  0  0  0  0
  -21.4621  -18.5585   16.8501 C   0  0  0  0  0  0  0  0  0  1  0  0
  -28.6998  -20.7712   21.4033 C   0  0  1  0  0  0  0  0  0  0  0  0
  -29.5587  -24.1793   19.9831 C   0  0  2  0  0  0  0  0  0  0  0  0
  -28.9728  -20.4410   22.8979 C   0  0  0  0  0  0  0  0  0  0  0  0
  -22.5340  -29.1025   22.0862 N   0  0  0  0  0  0  0  0  0  0  0  0
  -22.1846  -27.8144   21.9290 N   0  0  0  0  0  0  0  0  0  0  0  0
  -28.1425  -19.0798   19.6850 N   0  0  0  0  0  0  0  0  0  0  0  0
  -18.9686  -26.6309   23.6219 N   0  0  0  0  0  0  0  0  0  0  0  0
  -23.0580  -25.6651   21.4511 N   0  0  0  0  0  0  0  0  0  0  0  0
  -26.7085  -28.3217   21.3396 N   0  0  0  0  0  0  0  0  0  0  0  0
  -19.7778  -19.8290   20.8229 N   0  0  0  0  0  0  0  0  0  0  0  0
  -28.3343  -15.4715   19.1956 N   0  0  0  0  0  0  0  0  0  0  0  0
  -29.3584  -21.9836   20.9293 N   0  0  0  0  0  0  0  0  0  0  0  0
  -19.3989  -24.4294   24.3716 N   0  0  0  0  0  0  0  0  0  0  0  0
  -29.0107  -24.8710   18.7822 N   0  3  0  0  0  0  0  0  0  0  0  0
  -25.9647  -26.1676   21.0836 O   0  0  0  0  0  0  0  0  0  0  0  0
  -20.9439  -17.5684   19.5339 O   0  0  0  0  0  0  0  0  0  0  0  0
  -17.9872  -18.8324   19.6367 O   0  0  0  0  0  0  0  0  0  0  0  0
  -27.4792  -16.8926   20.8301 O   0  0  0  0  0  0  0  0  0  0  0  0
  -30.3283  -19.3294   20.4571 O   0  0  0  0  0  0  0  0  0  0  0  0
  -27.4261  -23.0790   20.2634 O   0  0  0  0  0  0  0  0  0  0  0  0
  -17.2420  -25.1607   24.1072 O   0  0  0  0  0  0  0  0  0  0  0  0
  -26.8071  -33.8218   22.2198 O   0  0  0  0  0  0  0  0  0  0  0  0
  -22.3855  -19.4329   17.4974 O   0  0  0  0  0  0  0  0  0  1  0  0
  -25.7740  -37.1910   26.4606 F   0  0  0  0  0  0  0  0  0  0  0  0
  -24.2905  -34.9041   22.5909 F   0  0  0  0  0  0  0  0  0  0  0  0
  -16.4123  -22.0470   23.6544 F   0  0  0  0  0  0  0  0  0  0  0  0
  -20.1537  -21.5245   22.8534 S   0  0  0  0  0  0  0  0  0  0  0  0
  1  2  1  0  0  0  0
  1  5  2  0  0  0  0
  2  6  2  0  0  0  0
  3  8  2  0  0  0  0
  3 16  1  0  0  0  0
  4  9  1  0  0  0  0
  4 16  2  0  0  0  0
  5 18  1  0  0  0  0
  6 20  1  0  0  0  0
  7 10  2  0  0  0  0
  7 19  1  0  0  0  0
  8 22  1  0  0  0  0
  9 22  2  0  0  0  0
 10 23  1  0  0  0  0
 11 12  2  0  0  0  0
 11 24  1  0  0  0  0
 12 25  1  0  0  0  0
 13 21  1  0  0  0  0
 13 23  2  0  0  0  0
 14 25  2  0  0  0  0
 14 26  1  0  0  0  0
 15 27  1  0  0  0  0
 15 31  2  0  0  0  0
 16 28  1  0  0  0  0
 17 28  1  0  0  0  0
 17 30  2  0  0  0  0
 17 32  1  0  0  0  0
 18 20  2  0  0  0  0
 18 39  1  0  0  0  0
 19 21  2  0  0  0  0
 19 40  1  0  0  0  0
 20 48  1  0  0  0  0
 21 41  1  0  0  0  0
 22 80  1  0  0  0  0
 23 81  1  0  0  0  0
 24 26  2  0  0  0  0
 24 80  1  0  0  0  0
 25 82  1  0  0  0  0
 26 83  1  0  0  0  0
 27 29  2  0  0  0  0
 27 84  1  0  0  0  0
 28 62  2  0  0  0  0
 29 56  1  0  0  0  0
 29 85  1  0  0  0  0
 30 63  1  0  0  0  0
 30 66  1  0  0  0  0
 31 68  1  0  0  0  0
 31 85  1  0  0  0  0
 32 67  1  0  0  0  0
 32 73  2  0  0  0  0
 33 34  1  0  0  0  0
 33 57  1  0  0  0  0
 33 74  2  0  0  0  0
 34 68  1  0  0  0  0
 34 75  2  0  0  0  0
 35 49  1  0  0  0  0
 35 69  1  0  0  0  0
 35 76  2  0  0  0  0
 36 59  1  0  0  0  0
 36 64  1  0  0  0  0
 36 77  2  0  0  0  0
 37 60  1  0  0  0  0
 37 70  1  0  0  0  0
 37 78  2  0  0  0  0
 38 65  1  0  0  0  0
 38 71  1  0  0  0  0
 38 79  2  0  0  0  0
 39 42  1  0  0  0  0
 40 49  1  0  0  0  0
 41 64  1  0  0  0  0
 42 44  1  0  0  0  0
 43 45  1  0  0  0  0
 43 46  1  0  0  0  0
 44 48  1  0  0  0  0
 45 50  1  0  0  0  0
 46 65  1  0  0  0  0
 47 50  1  0  0  0  0
 47 65  1  0  0  0  0
 48 69  1  0  0  0  0
 49 64  1  0  0  0  0
 50 63  1  0  0  0  0
 51 60  1  0  0  0  0
 52 61  1  0  0  0  0
 53 61  1  0  0  0  0
 54 61  1  0  0  0  0
 55 72  1  0  0  0  0
 56 71  1  0  0  0  0
 57 58  1  0  0  0  0
 58 81  1  0  0  0  0
 59 61  1  0  0  0  0
 59 70  1  0  0  0  0
 60 72  1  0  0  0  0
 62 63  1  0  0  0  0
M  CHG  1  72   1
M  ISO  4  38 100  58 101  71 100  81 101
M  END
> <Batch ID>
0178

> <Smiles>
CNC(C)C(=O)NC(C(=O)N1Cc2cc([101O:1][101CH2:1]CC(=O)C(=O)Nc3cc(F)c(C[100NH:0][100C:0](=O)N4CCCC(n5nc(-c6ccc(Oc7ccc(F)cc7F)cc6)c(C(N)=O)c5N)C4)s3)ccc2CC1C(=O)NC1CCCc2ccccc21)C(C)(C)C

> <Shape>
0.249

> <Color>
0.045

> <Negative vol penalty>
0.000

$$$$

  -OEChem-04052304443D

 83 91  0     1  0  0  0  0  0999 V2000
  -23.9476   -8.1413   21.3224 C   0  0  0  0  0  0  0  0  0  0  0  0
  -24.3502   -9.1671   20.4732 C   0  0  0  0  0  0  0  0  0  0  0  0
  -20.1654  -26.4932   22.7983 C   0  0  0  0  0  0  0  0  0  0  0  0
  -19.4396  -28.1139   21.1601 C   0  0  0  0  0  0  0  0  0  0  0  0
  -22.8406   -8.3181   22.1513 C   0  0  0  0  0  0  0  0  0  0  0  0
  -23.6453  -10.3700   20.4518 C   0  0  0  0  0  0  0  0  0  0  0  0
  -26.6973  -14.4110   20.4735 C   0  0  0  0  0  0  0  0  0  0  0  0
  -19.0392  -26.7717   23.5727 C   0  0  0  0  0  0  0  0  0  0  0  0
  -18.3134  -28.3924   21.9345 C   0  0  0  0  0  0  0  0  0  0  0  0
  -27.3068  -14.7551   19.2677 C   0  0  0  0  0  0  0  0  0  0  0  0
  -15.4324  -29.7903   23.6536 C   0  0  0  0  0  0  0  0  0  0  0  0
  -15.0889  -31.1293   23.8404 C   0  0  0  0  0  0  0  0  0  0  0  0
  -25.6473  -16.4720   18.9257 C   0  0  0  0  0  0  0  0  0  0  0  0
  -17.2292  -31.5324   24.8862 C   0  0  0  0  0  0  0  0  0  0  0  0
  -27.4351  -22.4913   19.2096 C   0  0  0  0  0  0  0  0  0  0  0  0
  -20.3656  -27.1644   21.5919 C   0  0  0  0  0  0  0  0  0  0  0  0
  -21.6460  -25.9067   19.7791 C   0  0  0  0  0  0  0  0  0  0  0  0
  -22.1276   -9.5273   22.1470 C   0  0  0  0  0  0  0  0  0  0  0  0
  -25.5499  -15.0888   20.9099 C   0  0  0  0  0  0  0  0  0  0  0  0
  -22.5269  -10.5627   21.2805 C   0  0  0  0  0  0  0  0  0  0  0  0
  -25.0266  -16.1364   20.1386 C   0  0  0  0  0  0  0  0  0  0  0  0
  -18.1132  -27.7212   23.1409 C   0  0  0  0  0  0  0  0  0  0  0  0
  -26.7801  -15.7838   18.4922 C   0  0  0  0  0  0  0  0  0  0  0  0
  -16.6742  -29.3224   24.0831 C   0  0  0  0  0  0  0  0  0  0  0  0
  -15.9873  -32.0003   24.4567 C   0  0  0  0  0  0  0  0  0  0  0  0
  -17.5727  -30.1934   24.6994 C   0  0  0  0  0  0  0  0  0  0  0  0
  -21.5290  -26.8776   20.7917 C   0  0  0  0  0  0  0  0  0  0  0  0
  -28.6641  -23.0864   19.0157 C   0  0  0  0  0  0  0  0  0  0  0  0
  -22.9379  -26.0327   19.3302 C   0  0  0  0  0  0  0  0  0  0  0  0
  -28.5045  -20.7720   18.3669 C   0  0  0  0  0  0  0  0  0  0  0  0
  -20.6738  -24.9743   19.2881 C   0  0  0  0  0  0  0  0  0  0  0  0
  -29.1110  -24.4747   19.2980 C   0  0  0  0  0  0  0  0  0  0  0  0
  -22.5458  -14.2497   21.5222 C   0  0  0  0  0  0  0  0  0  0  0  0
  -22.3134  -17.3129   22.5641 C   0  0  0  0  0  0  0  0  0  0  0  0
  -23.4955  -20.5120   22.4424 C   0  0  0  0  0  0  0  0  0  0  0  0
  -28.3712  -26.6464   20.2254 C   0  0  0  0  0  0  0  0  0  0  0  0
  -20.9090   -9.6546   23.0266 C   0  0  0  0  0  0  0  0  0  0  0  0
  -24.9198  -14.7234   22.2259 C   0  0  0  0  0  0  0  0  0  0  0  0
  -23.8084  -16.9087   20.5724 C   0  0  0  0  0  0  0  0  0  0  0  0
  -20.4420  -11.0956   23.2155 C   0  0  0  0  0  0  0  0  0  0  0  0
  -26.4186  -29.5931   20.2589 C   0  0  0  0  0  0  0  0  0  0  0  0
  -20.4062  -11.8251   21.8763 C   0  0  0  0  0  0  0  0  0  0  0  0
  -24.9797  -29.0723   20.3092 C   0  0  0  0  0  0  0  0  0  0  0  0
  -27.3624  -28.7351   21.1003 C   0  0  0  0  0  0  0  0  0  0  0  0
  -25.8865  -26.7798   20.8625 C   0  0  0  0  0  0  0  0  0  0  0  0
  -21.8028  -11.8911   21.2466 C   0  0  1  0  0  0  0  0  0  0  0  0
  -23.4550  -15.1385   22.3228 C   0  0  1  0  0  0  0  0  0  0  0  0
  -24.9103  -27.5686   19.9748 C   0  0  1  0  0  0  0  0  0  0  0  0
  -23.0776  -22.8034   23.3764 C   0  0  0  0  0  0  0  0  0  0  0  0
  -19.9188  -17.6331   20.7004 C   0  0  0  0  0  0  0  0  0  0  0  0
  -20.1446  -20.1140   20.9501 C   0  0  0  0  0  0  0  0  0  0  0  0
  -19.6443  -18.7019   22.9447 C   0  0  0  0  0  0  0  0  0  0  0  0
  -28.8891  -17.3123   15.9277 C   0  0  0  0  0  0  0  0  0  0  0  0
  -29.5362  -16.6092   18.2423 C   0  0  0  0  0  0  0  0  0  0  0  0
  -26.1744  -20.6162   23.6961 C   0  0  0  0  0  0  0  0  0  0  0  0
  -27.7854  -18.4331   17.8792 C   0  0  0  0  0  0  0  0  0  0  0  0
  -21.9578  -18.6346   21.9273 C   0  0  1  0  0  0  0  0  0  0  0  0
  -23.8433  -21.4998   23.5414 C   0  0  2  0  0  0  0  0  0  0  0  0
  -20.4382  -18.7553   21.6212 C   0  0  0  0  0  0  0  0  0  0  0  0
  -28.3917  -17.1191   17.3627 C   0  0  0  0  0  0  0  0  0  1  0  0
  -27.3416  -21.1644   18.8378 N   0  0  0  0  0  0  0  0  0  0  0  0
  -22.6567  -27.5693   20.9757 N   0  0  0  0  0  0  0  0  0  0  0  0
  -23.4946  -27.0323   20.0725 N   0  0  0  0  0  0  0  0  0  0  0  0
  -23.2246  -16.5097   21.8637 N   0  0  0  0  0  0  0  0  0  0  0  0
  -27.2434  -27.3275   20.7159 N   0  0  0  0  0  0  0  0  0  0  0  0
  -23.6407  -25.3849   18.3768 N   0  0  0  0  0  0  0  0  0  0  0  0
  -19.3946  -24.9792   19.8607 N   0  0  0  0  0  0  0  0  0  0  0  0
  -28.7669  -19.4945   17.9019 N   0  0  0  0  0  0  0  0  0  0  0  0
  -28.1445  -25.3188   19.8456 N   0  0  0  0  0  0  0  0  0  0  0  0
  -22.5976  -12.9177   21.8861 N   0  0  0  0  0  0  0  0  0  0  0  0
  -22.4717  -19.6687   22.8190 N   0  0  0  0  0  0  0  0  0  0  0  0
  -25.3017  -21.8056   23.5206 N   0  3  0  0  0  0  0  0  0  0  0  0
  -20.9367  -24.1498   18.3800 O   0  0  0  0  0  0  0  0  0  0  0  0
  -30.2792  -24.7831   19.0788 O   0  0  0  0  0  0  0  0  0  0  0  0
  -21.8477  -14.7367   20.6405 O   0  0  0  0  0  0  0  0  0  0  0  0
  -21.8069  -17.0075   23.6466 O   0  0  0  0  0  0  0  0  0  0  0  0
  -24.0717  -20.4930   21.3570 O   0  0  0  0  0  0  0  0  0  0  0  0
  -29.4757  -27.1846   20.1003 O   0  0  0  0  0  0  0  0  0  0  0  0
  -17.0141  -27.9930   23.8962 O   0  0  0  0  0  0  0  0  0  0  0  0
  -27.3727  -16.1212   17.3146 O   0  0  0  0  0  0  0  0  0  1  0  0
  -15.6580  -33.2864   24.6346 F   0  0  0  0  0  0  0  0  0  0  0  0
  -18.7677  -29.7500   25.1131 F   0  0  0  0  0  0  0  0  0  0  0  0
  -29.7551  -21.9470   18.3427 S   0  0  0  0  0  0  0  0  0  0  0  0
  1  2  1  0  0  0  0
  1  5  2  0  0  0  0
  2  6  2  0  0  0  0
  3  8  2  0  0  0  0
  3 16  1  0  0  0  0
  4  9  1  0  0  0  0
  4 16  2  0  0  0  0
  5 18  1  0  0  0  0
  6 20  1  0  0  0  0
  7 10  2  0  0  0  0
  7 19  1  0  0  0  0
  8 22  1  0  0  0  0
  9 22  2  0  0  0  0
 10 23  1  0  0  0  0
 11 12  2  0  0  0  0
 11 24  1  0  0  0  0
 12 25  1  0  0  0  0
 13 21  1  0  0  0  0
 13 23  2  0  0  0  0
 14 25  2  0  0  0  0
 14 26  1  0  0  0  0
 15 28  2  0  0  0  0
 15 61  1  0  0  0  0
 16 27  1  0  0  0  0
 17 27  1  0  0  0  0
 17 29  2  0  0  0  0
 17 31  1  0  0  0  0
 18 20  2  0  0  0  0
 18 37  1  0  0  0  0
 19 21  2  0  0  0  0
 19 38  1  0  0  0  0
 20 46  1  0  0  0  0
 21 39  1  0  0  0  0
 22 79  1  0  0  0  0
 23 80  1  0  0  0  0
 24 26  2  0  0  0  0
 24 79  1  0  0  0  0
 25 81  1  0  0  0  0
 26 82  1  0  0  0  0
 27 62  2  0  0  0  0
 28 32  1  0  0  0  0
 28 83  1  0  0  0  0
 29 63  1  0  0  0  0
 29 66  1  0  0  0  0
 30 61  2  0  0  0  0
 30 68  1  0  0  0  0
 30 83  1  0  0  0  0
 31 67  1  0  0  0  0
 31 73  2  0  0  0  0
 32 69  1  0  0  0  0
 32 74  2  0  0  0  0
 33 47  1  0  0  0  0
 33 70  1  0  0  0  0
 33 75  2  0  0  0  0
 34 57  1  0  0  0  0
 34 64  1  0  0  0  0
 34 76  2  0  0  0  0
 35 58  1  0  0  0  0
 35 71  1  0  0  0  0
 35 77  2  0  0  0  0
 36 65  1  0  0  0  0
 36 69  1  0  0  0  0
 36 78  2  0  0  0  0
 37 40  1  0  0  0  0
 38 47  1  0  0  0  0
 39 64  1  0  0  0  0
 40 42  1  0  0  0  0
 41 43  1  0  0  0  0
 41 44  1  0  0  0  0
 42 46  1  0  0  0  0
 43 48  1  0  0  0  0
 44 65  1  0  0  0  0
 45 48  1  0  0  0  0
 45 65  1  0  0  0  0
 46 70  1  0  0  0  0
 47 64  1  0  0  0  0
 48 63  1  0  0  0  0
 49 58  1  0  0  0  0
 50 59  1  0  0  0  0
 51 59  1  0  0  0  0
 52 59  1  0  0  0  0
 53 60  1  0  0  0  0
 54 60  1  0  0  0  0
 55 72  1  0  0  0  0
 56 60  1  0  0  0  0
 56 68  1  0  0  0  0
 57 59  1  0  0  0  0
 57 71  1  0  0  0  0
 58 72  1  0  0  0  0
 60 80  1  0  0  0  0
 62 63  1  0  0  0  0
M  CHG  1  72   1
M  ISO  4  36 100  60 101  69 100  80 101
M  END
> <Batch ID>
0178

> <Smiles>
CNC(C)C(=O)NC(C(=O)N1Cc2cc([101O:1][101C:1](C)(C)CNc3ncc(C(=O)[100NH:0][100C:0](=O)N4CCCC(n5nc(-c6ccc(Oc7ccc(F)cc7F)cc6)c(C(N)=O)c5N)C4)s3)ccc2CC1C(=O)NC1CCCc2ccccc21)C(C)(C)C

> <Shape>
0.220

> <Color>
0.094

> <Negative vol penalty>
0.000

$$$$

  -OEChem-04052304443D

 86 94  0     1  0  0  0  0  0999 V2000
  -29.7385  -35.8745   20.7715 C   0  0  0  0  0  0  0  0  0  0  0  0
  -29.7685  -34.4853   20.8393 C   0  0  0  0  0  0  0  0  0  0  0  0
  -24.8108   -8.8183   21.1664 C   0  0  0  0  0  0  0  0  0  0  0  0
  -23.1097  -10.1630   20.1009 C   0  0  0  0  0  0  0  0  0  0  0  0
  -28.7505  -36.5835   21.4534 C   0  0  0  0  0  0  0  0  0  0  0  0
  -28.8109  -33.8043   21.5901 C   0  0  0  0  0  0  0  0  0  0  0  0
  -26.9231  -29.7892   19.1487 C   0  0  0  0  0  0  0  0  0  0  0  0
  -23.8334   -7.9189   21.5918 C   0  0  0  0  0  0  0  0  0  0  0  0
  -22.1322   -9.2635   20.5264 C   0  0  0  0  0  0  0  0  0  0  0  0
  -27.7072  -28.6369   19.1168 C   0  0  0  0  0  0  0  0  0  0  0  0
  -22.0293   -5.3874   20.2615 C   0  0  0  0  0  0  0  0  0  0  0  0
  -22.2892   -4.0259   20.1052 C   0  0  0  0  0  0  0  0  0  0  0  0
  -26.3927  -27.7001   20.9095 C   0  0  0  0  0  0  0  0  0  0  0  0
  -27.7032  -19.5210   17.9855 C   0  0  0  0  0  0  0  0  0  0  0  0
  -27.6618  -17.8551   16.2363 C   0  0  0  0  0  0  0  0  0  0  0  0
  -22.0876   -3.7135   22.4925 C   0  0  0  0  0  0  0  0  0  0  0  0
  -24.4490   -9.9405   20.4209 C   0  0  0  0  0  0  0  0  0  0  0  0
  -26.1827  -10.8313   18.7752 C   0  0  0  0  0  0  0  0  0  0  0  0
  -27.7746  -35.9103   22.2051 C   0  0  0  0  0  0  0  0  0  0  0  0
  -25.8730  -29.9104   20.0701 C   0  0  0  0  0  0  0  0  0  0  0  0
  -27.8097  -34.5050   22.2838 C   0  0  0  0  0  0  0  0  0  0  0  0
  -25.5952  -28.8540   20.9493 C   0  0  0  0  0  0  0  0  0  0  0  0
  -27.7261  -18.1835   17.5904 C   0  0  0  0  0  0  0  0  0  0  0  0
  -27.6157  -20.5302   17.0265 C   0  0  0  0  0  0  0  0  0  0  0  0
  -22.4941   -8.1414   21.2718 C   0  0  0  0  0  0  0  0  0  0  0  0
  -27.4439  -27.5933   19.9992 C   0  0  0  0  0  0  0  0  0  0  0  0
  -21.7987   -5.9119   21.5333 C   0  0  0  0  0  0  0  0  0  0  0  0
  -22.3183   -3.1889   21.2207 C   0  0  0  0  0  0  0  0  0  0  0  0
  -27.5744  -18.8643   15.2772 C   0  0  0  0  0  0  0  0  0  0  0  0
  -21.8278   -5.0750   22.6487 C   0  0  0  0  0  0  0  0  0  0  0  0
  -27.5514  -20.2018   15.6724 C   0  0  0  0  0  0  0  0  0  0  0  0
  -25.4582  -10.8703   19.9816 C   0  0  0  0  0  0  0  0  0  0  0  0
  -27.0094  -11.9265   18.8356 C   0  0  0  0  0  0  0  0  0  0  0  0
  -26.1144   -9.8894   17.6964 C   0  0  0  0  0  0  0  0  0  0  0  0
  -27.6068  -23.8670   18.7653 C   0  0  0  0  0  0  0  0  0  0  0  0
  -27.6570  -22.3671   18.7196 C   0  0  0  0  0  0  0  0  0  0  0  0
  -25.2182  -31.8783   22.4789 C   0  0  0  0  0  0  0  0  0  0  0  0
  -22.4060  -30.2622   22.5224 C   0  0  0  0  0  0  0  0  0  0  0  0
  -20.6921  -27.4092   21.7678 C   0  0  0  0  0  0  0  0  0  0  0  0
  -27.8872  -17.3112   19.9482 C   0  0  0  0  0  0  0  0  0  0  0  0
  -26.7546  -36.7221   22.9636 C   0  0  0  0  0  0  0  0  0  0  0  0
  -25.0196  -31.1490   20.0738 C   0  0  0  0  0  0  0  0  0  0  0  0
  -24.4666  -28.9261   21.9441 C   0  0  0  0  0  0  0  0  0  0  0  0
  -25.5528  -35.9059   23.4322 C   0  0  0  0  0  0  0  0  0  0  0  0
  -28.0788  -15.0382   22.6821 C   0  0  0  0  0  0  0  0  0  0  0  0
  -26.0117  -34.6002   24.0738 C   0  0  0  0  0  0  0  0  0  0  0  0
  -27.4737  -13.7481   22.1240 C   0  0  0  0  0  0  0  0  0  0  0  0
  -27.3641  -16.2777   22.1467 C   0  0  0  0  0  0  0  0  0  0  0  0
  -26.6546  -15.0607   20.1257 C   0  0  0  0  0  0  0  0  0  0  0  0
  -26.7735  -33.7291   23.0677 C   0  0  1  0  0  0  0  0  0  0  0  0
  -24.3010  -31.3755   21.4002 C   0  0  1  0  0  0  0  0  0  0  0  0
  -27.3831  -13.7874   20.5859 C   0  0  2  0  0  0  0  0  0  0  0  0
  -18.4161  -26.3695   21.9590 C   0  0  0  0  0  0  0  0  0  0  0  0
  -22.8982  -29.7359   25.4874 C   0  0  0  0  0  0  0  0  0  0  0  0
  -21.1477  -27.9487   25.3893 C   0  0  0  0  0  0  0  0  0  0  0  0
  -20.5359  -30.3189   24.9094 C   0  0  0  0  0  0  0  0  0  0  0  0
  -20.4257  -27.1730   18.8297 C   0  0  0  0  0  0  0  0  0  0  0  0
  -28.9328  -24.5870   18.6548 C   0  0  0  0  0  0  0  0  0  0  0  0
  -28.7744  -26.0988   18.7138 C   0  0  0  0  0  0  0  0  0  1  0  0
  -21.8958  -29.0229   23.2173 C   0  0  1  0  0  0  0  0  0  0  0  0
  -19.3539  -27.1885   21.0858 C   0  0  2  0  0  0  0  0  0  0  0  0
  -21.6419  -29.2557   24.7335 C   0  0  0  0  0  0  0  0  0  0  0  0
  -25.7952  -11.9080   20.7521 N   0  0  0  0  0  0  0  0  0  0  0  0
  -26.7405  -12.5312   20.0282 N   0  0  0  0  0  0  0  0  0  0  0  0
  -23.6646  -30.1604   21.9130 N   0  0  0  0  0  0  0  0  0  0  0  0
  -27.3203  -16.2485   20.6831 N   0  0  0  0  0  0  0  0  0  0  0  0
  -27.9328  -12.4216   17.9844 N   0  0  0  0  0  0  0  0  0  0  0  0
  -25.2102   -8.8233   17.7965 N   0  0  0  0  0  0  0  0  0  0  0  0
  -27.5931  -21.8857   17.4298 N   0  0  0  0  0  0  0  0  0  0  0  0
  -27.8151  -17.1580   18.5641 N   0  0  0  0  0  0  0  0  0  0  0  0
  -25.8501  -33.0680   22.1706 N   0  0  0  0  0  0  0  0  0  0  0  0
  -20.7167  -28.5938   22.4731 N   0  0  0  0  0  0  0  0  0  0  0  0
  -19.5430  -26.4684   19.7948 N   0  3  0  0  0  0  0  0  0  0  0  0
  -26.8457   -9.9809   16.6814 O   0  0  0  0  0  0  0  0  0  0  0  0
  -26.5068  -24.3869   18.8759 O   0  0  0  0  0  0  0  0  0  0  0  0
  -27.7702  -21.7915   19.7891 O   0  0  0  0  0  0  0  0  0  0  0  0
  -25.3423  -31.2354   23.5147 O   0  0  0  0  0  0  0  0  0  0  0  0
  -21.7102  -31.2807   22.5143 O   0  0  0  0  0  0  0  0  0  0  0  0
  -21.6212  -26.6088   21.6863 O   0  0  0  0  0  0  0  0  0  0  0  0
  -28.4232  -18.2724   20.5057 O   0  0  0  0  0  0  0  0  0  0  0  0
  -21.5400   -7.2637   21.6866 O   0  0  0  0  0  0  0  0  0  0  0  0
  -28.2082  -26.4677   19.9706 O   0  0  0  0  0  0  0  0  0  1  0  0
  -22.5663   -1.8812   21.0704 F   0  0  0  0  0  0  0  0  0  0  0  0
  -27.5122  -18.5489   13.9771 F   0  0  0  0  0  0  0  0  0  0  0  0
  -21.6058   -5.5729   23.8729 F   0  0  0  0  0  0  0  0  0  0  0  0
  -27.4668  -21.1632   14.7421 F   0  0  0  0  0  0  0  0  0  0  0  0
  1  2  1  0  0  0  0
  1  5  2  0  0  0  0
  2  6  2  0  0  0  0
  3  8  2  0  0  0  0
  3 17  1  0  0  0  0
  4  9  1  0  0  0  0
  4 17  2  0  0  0  0
  5 19  1  0  0  0  0
  6 21  1  0  0  0  0
  7 10  2  0  0  0  0
  7 20  1  0  0  0  0
  8 25  1  0  0  0  0
  9 25  2  0  0  0  0
 10 26  1  0  0  0  0
 11 12  2  0  0  0  0
 11 27  1  0  0  0  0
 12 28  1  0  0  0  0
 13 22  1  0  0  0  0
 13 26  2  0  0  0  0
 14 23  2  0  0  0  0
 14 24  1  0  0  0  0
 15 23  1  0  0  0  0
 15 29  2  0  0  0  0
 16 28  2  0  0  0  0
 16 30  1  0  0  0  0
 17 32  1  0  0  0  0
 18 32  1  0  0  0  0
 18 33  2  0  0  0  0
 18 34  1  0  0  0  0
 19 21  2  0  0  0  0
 19 41  1  0  0  0  0
 20 22  2  0  0  0  0
 20 42  1  0  0  0  0
 21 50  1  0  0  0  0
 22 43  1  0  0  0  0
 23 70  1  0  0  0  0
 24 31  2  0  0  0  0
 24 69  1  0  0  0  0
 25 81  1  0  0  0  0
 26 82  1  0  0  0  0
 27 30  2  0  0  0  0
 27 81  1  0  0  0  0
 28 83  1  0  0  0  0
 29 31  1  0  0  0  0
 29 84  1  0  0  0  0
 30 85  1  0  0  0  0
 31 86  1  0  0  0  0
 32 63  2  0  0  0  0
 33 64  1  0  0  0  0
 33 67  1  0  0  0  0
 34 68  1  0  0  0  0
 34 74  2  0  0  0  0
 35 36  1  0  0  0  0
 35 58  1  0  0  0  0
 35 75  2  0  0  0  0
 36 69  1  0  0  0  0
 36 76  2  0  0  0  0
 37 51  1  0  0  0  0
 37 71  1  0  0  0  0
 37 77  2  0  0  0  0
 38 60  1  0  0  0  0
 38 65  1  0  0  0  0
 38 78  2  0  0  0  0
 39 61  1  0  0  0  0
 39 72  1  0  0  0  0
 39 79  2  0  0  0  0
 40 66  1  0  0  0  0
 40 70  1  0  0  0  0
 40 80  2  0  0  0  0
 41 44  1  0  0  0  0
 42 51  1  0  0  0  0
 43 65  1  0  0  0  0
 44 46  1  0  0  0  0
 45 47  1  0  0  0  0
 45 48  1  0  0  0  0
 46 50  1  0  0  0  0
 47 52  1  0  0  0  0
 48 66  1  0  0  0  0
 49 52  1  0  0  0  0
 49 66  1  0  0  0  0
 50 71  1  0  0  0  0
 51 65  1  0  0  0  0
 52 64  1  0  0  0  0
 53 61  1  0  0  0  0
 54 62  1  0  0  0  0
 55 62  1  0  0  0  0
 56 62  1  0  0  0  0
 57 73  1  0  0  0  0
 58 59  1  0  0  0  0
 59 82  1  0  0  0  0
 60 62  1  0  0  0  0
 60 72  1  0  0  0  0
 61 73  1  0  0  0  0
 63 64  1  0  0  0  0
M  CHG  1  73   1
M  ISO  4  40 100  59 101  70 100  82 101
M  END
> <Batch ID>
0178

> <Smiles>
CNC(C)C(=O)NC(C(=O)N1Cc2cc([101O:1][101CH2:1]CC(=O)C(=O)Nc3cc([100NH:0][100C:0](=O)N4CCCC(n5nc(-c6ccc(Oc7ccc(F)cc7F)cc6)c(C(N)=O)c5N)C4)cc(F)c3F)ccc2CC1C(=O)NC1CCCc2ccccc21)C(C)(C)C

> <Shape>
0.295

> <Color>
0.105

> <Negative vol penalty>
0.000

$$$$

  -OEChem-04052304443D

 87 95  0     1  0  0  0  0  0999 V2000
  -22.7840  -31.9871   18.7488 C   0  0  0  0  0  0  0  0  0  0  0  0
  -24.0770  -31.4882   18.8703 C   0  0  0  0  0  0  0  0  0  0  0  0
  -23.0702   -9.8713   19.9441 C   0  0  0  0  0  0  0  0  0  0  0  0
  -23.8347   -9.8764   22.2360 C   0  0  0  0  0  0  0  0  0  0  0  0
  -21.8116  -31.6355   19.6840 C   0  0  0  0  0  0  0  0  0  0  0  0
  -24.3985  -30.6382   19.9279 C   0  0  0  0  0  0  0  0  0  0  0  0
  -28.3378  -25.9503   19.8163 C   0  0  0  0  0  0  0  0  0  0  0  0
  -22.3250   -8.7193   20.1952 C   0  0  0  0  0  0  0  0  0  0  0  0
  -23.0894   -8.7244   22.4871 C   0  0  0  0  0  0  0  0  0  0  0  0
  -29.6661  -25.8315   20.2227 C   0  0  0  0  0  0  0  0  0  0  0  0
  -19.8611   -7.9317   23.0958 C   0  0  0  0  0  0  0  0  0  0  0  0
  -19.1064   -7.8927   24.2682 C   0  0  0  0  0  0  0  0  0  0  0  0
  -28.9325  -24.9282   22.3358 C   0  0  0  0  0  0  0  0  0  0  0  0
  -20.3461   -5.9529   25.0016 C   0  0  0  0  0  0  0  0  0  0  0  0
  -32.2483  -18.5226   21.9226 C   0  0  0  0  0  0  0  0  0  0  0  0
  -23.8251  -10.4498   20.9645 C   0  0  0  0  0  0  0  0  0  0  0  0
  -24.1709  -12.9744   20.8445 C   0  0  0  0  0  0  0  0  0  0  0  0
  -22.1190  -30.7731   20.7482 C   0  0  0  0  0  0  0  0  0  0  0  0
  -27.2947  -25.5685   20.6723 C   0  0  0  0  0  0  0  0  0  0  0  0
  -23.4297  -30.2758   20.8790 C   0  0  0  0  0  0  0  0  0  0  0  0
  -27.5919  -25.0408   21.9369 C   0  0  0  0  0  0  0  0  0  0  0  0
  -31.5109  -19.3621   22.7419 C   0  0  0  0  0  0  0  0  0  0  0  0
  -22.3345   -8.1458   21.4667 C   0  0  0  0  0  0  0  0  0  0  0  0
  -29.9636  -25.3231   21.4837 C   0  0  0  0  0  0  0  0  0  0  0  0
  -20.8583   -6.9813   22.8763 C   0  0  0  0  0  0  0  0  0  0  0  0
  -19.3489   -6.9033   25.2211 C   0  0  0  0  0  0  0  0  0  0  0  0
  -21.1008   -5.9920   23.8292 C   0  0  0  0  0  0  0  0  0  0  0  0
  -30.2481  -18.9382   23.1404 C   0  0  0  0  0  0  0  0  0  0  0  0
  -29.7680  -17.7050   22.7136 C   0  0  0  0  0  0  0  0  0  0  0  0
  -24.5957  -11.6395   20.7055 C   0  0  0  0  0  0  0  0  0  0  0  0
  -30.5833  -16.9397   21.8954 C   0  0  0  0  0  0  0  0  0  0  0  0
  -25.2636  -13.7222   20.4793 C   0  0  0  0  0  0  0  0  0  0  0  0
  -22.9021  -13.4922   21.2661 C   0  0  0  0  0  0  0  0  0  0  0  0
  -24.8569  -27.0744   22.0482 C   0  0  0  0  0  0  0  0  0  0  0  0
  -32.9855  -23.6667   22.5900 C   0  0  0  0  0  0  0  0  0  0  0  0
  -24.0425  -24.0782   22.9874 C   0  0  0  0  0  0  0  0  0  0  0  0
  -33.2582  -21.1681   22.8321 C   0  0  0  0  0  0  0  0  0  0  0  0
  -25.0335  -20.8816   23.6557 C   0  0  0  0  0  0  0  0  0  0  0  0
  -30.7318  -14.7587   20.6434 C   0  0  0  0  0  0  0  0  0  0  0  0
  -21.0466  -30.4591   21.7611 C   0  0  0  0  0  0  0  0  0  0  0  0
  -25.8680  -25.6780   20.2087 C   0  0  0  0  0  0  0  0  0  0  0  0
  -26.5093  -24.5976   22.8856 C   0  0  0  0  0  0  0  0  0  0  0  0
  -21.3730  -29.2546   22.6402 C   0  0  0  0  0  0  0  0  0  0  0  0
  -29.6087  -12.3475   18.2766 C   0  0  0  0  0  0  0  0  0  0  0  0
  -22.8057  -29.3430   23.1564 C   0  0  0  0  0  0  0  0  0  0  0  0
  -28.1694  -12.0581   18.7090 C   0  0  0  0  0  0  0  0  0  0  0  0
  -30.5266  -12.5744   19.4765 C   0  0  0  0  0  0  0  0  0  0  0  0
  -28.6236  -13.3016   20.8618 C   0  0  0  0  0  0  0  0  0  0  0  0
  -23.8109  -29.3314   21.9984 C   0  0  1  0  0  0  0  0  0  0  0  0
  -24.8687  -25.7388   21.3598 C   0  0  1  0  0  0  0  0  0  0  0  0
  -27.6481  -13.1303   19.6859 C   0  0  2  0  0  0  0  0  0  0  0  0
  -24.1490  -18.6686   24.4414 C   0  0  0  0  0  0  0  0  0  0  0  0
  -23.9384  -25.1378   25.8468 C   0  0  0  0  0  0  0  0  0  0  0  0
  -23.9993  -22.7683   26.6531 C   0  0  0  0  0  0  0  0  0  0  0  0
  -22.0928  -23.5585   25.2517 C   0  0  0  0  0  0  0  0  0  0  0  0
  -25.8048  -19.5455   21.1300 C   0  0  0  0  0  0  0  0  0  0  0  0
  -31.5652  -24.1540   22.7968 C   0  0  0  0  0  0  0  0  0  1  0  0
  -33.4578  -22.5286   23.4730 C   0  0  1  0  0  0  0  0  0  0  0  0
  -24.3567  -23.2097   24.1815 C   0  0  1  0  0  0  0  0  0  0  0  0
  -24.4601  -19.5405   23.2349 C   0  0  2  0  0  0  0  0  0  0  0  0
  -23.6174  -23.6787   25.4664 C   0  0  0  0  0  0  0  0  0  0  0  0
  -31.8155  -17.3180   21.4876 N   0  0  0  0  0  0  0  0  0  0  0  0
  -25.8595  -11.5417   20.2847 N   0  0  0  0  0  0  0  0  0  0  0  0
  -26.2383  -12.8247   20.1560 N   0  0  0  0  0  0  0  0  0  0  0  0
  -25.1298  -24.7303   22.3888 N   0  0  0  0  0  0  0  0  0  0  0  0
  -29.9711  -13.6059   20.3553 N   0  0  0  0  0  0  0  0  0  0  0  0
  -25.4760  -15.0533   20.4062 N   0  0  0  0  0  0  0  0  0  0  0  0
  -21.8894  -12.5846   21.6051 N   0  0  0  0  0  0  0  0  0  0  0  0
  -32.0287  -20.6116   23.1588 N   0  0  0  0  0  0  0  0  0  0  0  0
  -30.0876  -15.6846   21.4633 N   0  0  0  0  0  0  0  0  0  0  0  0
  -23.9817  -27.9869   21.4908 N   0  0  0  0  0  0  0  0  0  0  0  0
  -24.0505  -21.8403   23.7821 N   0  0  0  0  0  0  0  0  0  0  0  0
  -25.4281  -18.8129   22.3663 N   0  3  0  0  0  0  0  0  0  0  0  0
  -22.6680  -14.7232   21.3242 O   0  0  0  0  0  0  0  0  0  0  0  0
  -25.5867  -27.2625   23.0145 O   0  0  0  0  0  0  0  0  0  0  0  0
  -33.7359  -24.1778   21.7587 O   0  0  0  0  0  0  0  0  0  0  0  0
  -22.8763  -24.1689   22.5957 O   0  0  0  0  0  0  0  0  0  0  0  0
  -34.1325  -20.6897   22.1146 O   0  0  0  0  0  0  0  0  0  0  0  0
  -26.2329  -21.0600   23.8560 O   0  0  0  0  0  0  0  0  0  0  0  0
  -31.8602  -14.9257   20.1736 O   0  0  0  0  0  0  0  0  0  0  0  0
  -21.6072   -7.0219   21.7122 O   0  0  0  0  0  0  0  0  0  0  0  0
  -31.2593  -25.2066   21.8831 O   0  0  0  0  0  0  0  0  0  1  0  0
  -18.6252   -6.8669   26.3476 F   0  0  0  0  0  0  0  0  0  0  0  0
  -22.0582   -5.0770   23.6244 F   0  0  0  0  0  0  0  0  0  0  0  0
  -29.4882  -19.7075   23.9328 F   0  0  0  0  0  0  0  0  0  0  0  0
  -28.5536  -17.2843   23.0893 F   0  0  0  0  0  0  0  0  0  0  0  0
  -34.7823  -22.6940   23.7658 F   0  0  0  0  0  0  0  0  0  0  0  0
  1  2  1  0  0  0  0
  1  5  2  0  0  0  0
  2  6  2  0  0  0  0
  3  8  2  0  0  0  0
  3 16  1  0  0  0  0
  4  9  1  0  0  0  0
  4 16  2  0  0  0  0
  5 18  1  0  0  0  0
  6 20  1  0  0  0  0
  7 10  2  0  0  0  0
  7 19  1  0  0  0  0
  8 23  1  0  0  0  0
  9 23  2  0  0  0  0
 10 24  1  0  0  0  0
 11 12  2  0  0  0  0
 11 25  1  0  0  0  0
 12 26  1  0  0  0  0
 13 21  1  0  0  0  0
 13 24  2  0  0  0  0
 14 26  2  0  0  0  0
 14 27  1  0  0  0  0
 15 22  1  0  0  0  0
 15 62  2  0  0  0  0
 16 30  1  0  0  0  0
 17 30  1  0  0  0  0
 17 32  2  0  0  0  0
 17 33  1  0  0  0  0
 18 20  2  0  0  0  0
 18 40  1  0  0  0  0
 19 21  2  0  0  0  0
 19 41  1  0  0  0  0
 20 49  1  0  0  0  0
 21 42  1  0  0  0  0
 22 28  2  0  0  0  0
 22 69  1  0  0  0  0
 23 81  1  0  0  0  0
 24 82  1  0  0  0  0
 25 27  2  0  0  0  0
 25 81  1  0  0  0  0
 26 83  1  0  0  0  0
 27 84  1  0  0  0  0
 28 29  1  0  0  0  0
 28 85  1  0  0  0  0
 29 31  2  0  0  0  0
 29 86  1  0  0  0  0
 30 63  2  0  0  0  0
 31 62  1  0  0  0  0
 31 70  1  0  0  0  0
 32 64  1  0  0  0  0
 32 67  1  0  0  0  0
 33 68  1  0  0  0  0
 33 74  2  0  0  0  0
 34 50  1  0  0  0  0
 34 71  1  0  0  0  0
 34 75  2  0  0  0  0
 35 57  1  0  0  0  0
 35 58  1  0  0  0  0
 35 76  2  0  0  0  0
 36 59  1  0  0  0  0
 36 65  1  0  0  0  0
 36 77  2  0  0  0  0
 37 58  1  0  0  0  0
 37 69  1  0  0  0  0
 37 78  2  0  0  0  0
 38 60  1  0  0  0  0
 38 72  1  0  0  0  0
 38 79  2  0  0  0  0
 39 66  1  0  0  0  0
 39 70  1  0  0  0  0
 39 80  2  0  0  0  0
 40 43  1  0  0  0  0
 41 50  1  0  0  0  0
 42 65  1  0  0  0  0
 43 45  1  0  0  0  0
 44 46  1  0  0  0  0
 44 47  1  0  0  0  0
 45 49  1  0  0  0  0
 46 51  1  0  0  0  0
 47 66  1  0  0  0  0
 48 51  1  0  0  0  0
 48 66  1  0  0  0  0
 49 71  1  0  0  0  0
 50 65  1  0  0  0  0
 51 64  1  0  0  0  0
 52 60  1  0  0  0  0
 53 61  1  0  0  0  0
 54 61  1  0  0  0  0
 55 61  1  0  0  0  0
 56 73  1  0  0  0  0
 57 82  1  0  0  0  0
 58 87  1  0  0  0  0
 59 61  1  0  0  0  0
 59 72  1  0  0  0  0
 60 73  1  0  0  0  0
 63 64  1  0  0  0  0
M  CHG  1  73   1
M  ISO  4  39 100  57 101  70 100  82 101
M  END
> <Batch ID>
0178

> <Smiles>
CNC(C)C(=O)NC(C(=O)N1Cc2cc([101O:1][101CH2:1]C(=O)C(F)C(=O)Nc3cnc([100NH:0][100C:0](=O)N4CCCC(n5nc(-c6ccc(Oc7ccc(F)cc7F)cc6)c(C(N)=O)c5N)C4)c(F)c3F)ccc2CC1C(=O)NC1CCCc2ccccc21)C(C)(C)C

> <Shape>
0.243

> <Color>
0.180

> <Negative vol penalty>
0.000

$$$$

  -OEChem-04052304443D

 84 92  0     1  0  0  0  0  0999 V2000
  -29.7832  -32.7947   26.6620 C   0  0  0  0  0  0  0  0  0  0  0  0
  -29.7212  -31.7018   25.8035 C   0  0  0  0  0  0  0  0  0  0  0  0
  -23.0414   -7.5728   19.4970 C   0  0  0  0  0  0  0  0  0  0  0  0
  -25.3922   -8.1297   19.4669 C   0  0  0  0  0  0  0  0  0  0  0  0
  -28.6082  -33.3544   27.1620 C   0  0  0  0  0  0  0  0  0  0  0  0
  -28.4841  -31.1673   25.4452 C   0  0  0  0  0  0  0  0  0  0  0  0
  -26.9608  -28.7053   20.0485 C   0  0  0  0  0  0  0  0  0  0  0  0
  -23.2824   -6.5087   18.6281 C   0  0  0  0  0  0  0  0  0  0  0  0
  -25.6331   -7.0655   18.5980 C   0  0  0  0  0  0  0  0  0  0  0  0
  -26.8846  -27.3848   19.6081 C   0  0  0  0  0  0  0  0  0  0  0  0
  -23.3342   -3.4254   16.7030 C   0  0  0  0  0  0  0  0  0  0  0  0
  -22.7290   -2.2024   16.9920 C   0  0  0  0  0  0  0  0  0  0  0  0
  -24.5182  -27.3715   20.0765 C   0  0  0  0  0  0  0  0  0  0  0  0
  -23.8838   -2.1322   19.1130 C   0  0  0  0  0  0  0  0  0  0  0  0
  -24.0963   -8.3834   19.9164 C   0  0  0  0  0  0  0  0  0  0  0  0
  -23.8729   -9.4546   22.2208 C   0  0  0  0  0  0  0  0  0  0  0  0
  -27.3557  -32.8326   26.8021 C   0  0  0  0  0  0  0  0  0  0  0  0
  -25.8165  -29.3665   20.5173 C   0  0  0  0  0  0  0  0  0  0  0  0
  -27.2913  -31.7197   25.9419 C   0  0  0  0  0  0  0  0  0  0  0  0
  -24.5821  -28.7013   20.5199 C   0  0  0  0  0  0  0  0  0  0  0  0
  -24.5782   -6.2550   18.1786 C   0  0  0  0  0  0  0  0  0  0  0  0
  -25.6637  -26.7167   19.6247 C   0  0  0  0  0  0  0  0  0  0  0  0
  -24.2143   -4.0018   17.6189 C   0  0  0  0  0  0  0  0  0  0  0  0
  -23.0038   -1.5558   18.1970 C   0  0  0  0  0  0  0  0  0  0  0  0
  -24.4891   -3.3552   18.8239 C   0  0  0  0  0  0  0  0  0  0  0  0
  -23.8480   -9.4832   20.8136 C   0  0  0  0  0  0  0  0  0  0  0  0
  -27.9781  -18.2985   19.9754 C   0  0  0  0  0  0  0  0  0  0  0  0
  -23.5737  -10.7416   22.5958 C   0  0  0  0  0  0  0  0  0  0  0  0
  -28.9458  -17.3209   20.0758 C   0  0  0  0  0  0  0  0  0  0  0  0
  -26.6686  -16.5393   19.9964 C   0  0  0  0  0  0  0  0  0  0  0  0
  -24.1426   -8.3623   23.1096 C   0  0  0  0  0  0  0  0  0  0  0  0
  -28.2606  -19.7631   19.9151 C   0  0  0  0  0  0  0  0  0  0  0  0
  -24.9486  -30.6561   23.2899 C   0  0  0  0  0  0  0  0  0  0  0  0
  -26.3652  -23.1606   19.5494 C   0  0  0  0  0  0  0  0  0  0  0  0
  -22.3702  -31.6351   21.5824 C   0  0  0  0  0  0  0  0  0  0  0  0
  -20.3297  -31.1614   18.8881 C   0  0  0  0  0  0  0  0  0  0  0  0
  -24.2032  -16.0324   19.8908 C   0  0  0  0  0  0  0  0  0  0  0  0
  -26.1149  -33.4417   27.4055 C   0  0  0  0  0  0  0  0  0  0  0  0
  -25.9104  -30.7997   20.9639 C   0  0  0  0  0  0  0  0  0  0  0  0
  -23.3203  -29.3730   20.9945 C   0  0  0  0  0  0  0  0  0  0  0  0
  -24.8299  -33.0506   26.6802 C   0  0  0  0  0  0  0  0  0  0  0  0
  -21.1754  -14.6125   21.1129 C   0  0  0  0  0  0  0  0  0  0  0  0
  -24.8027  -31.5487   26.4147 C   0  0  0  0  0  0  0  0  0  0  0  0
  -21.5212  -13.1345   21.3087 C   0  0  0  0  0  0  0  0  0  0  0  0
  -21.8628  -15.1973   19.8804 C   0  0  0  0  0  0  0  0  0  0  0  0
  -23.6627  -13.5213   20.0235 C   0  0  0  0  0  0  0  0  0  0  0  0
  -25.9673  -31.1272   25.5105 C   0  0  1  0  0  0  0  0  0  0  0  0
  -24.7795  -31.2083   21.9028 C   0  0  1  0  0  0  0  0  0  0  0  0
  -23.0452  -12.9050   21.2895 C   0  0  2  0  0  0  0  0  0  0  0  0
  -18.2839  -32.0987   17.7775 C   0  0  0  0  0  0  0  0  0  0  0  0
  -20.6197  -30.3428   23.7215 C   0  0  0  0  0  0  0  0  0  0  0  0
  -18.6969  -30.4645   22.1227 C   0  0  0  0  0  0  0  0  0  0  0  0
  -19.8018  -32.5602   22.9038 C   0  0  0  0  0  0  0  0  0  0  0  0
  -21.8196  -31.7837   16.4078 C   0  0  0  0  0  0  0  0  0  0  0  0
  -27.0885  -20.7299   19.8046 C   0  0  0  0  0  0  0  0  0  0  0  0
  -27.5261  -22.1917   19.7222 C   0  0  0  0  0  0  0  0  0  0  0  0
  -26.7481  -24.6160   19.3655 C   0  0  0  0  0  0  0  0  0  1  0  0
  -21.0113  -31.0557   21.2711 C   0  0  1  0  0  0  0  0  0  0  0  0
  -19.8031  -32.1265   17.8414 C   0  0  2  0  0  0  0  0  0  0  0  0
  -20.0564  -31.0922   22.4976 C   0  0  0  0  0  0  0  0  0  0  0  0
  -23.5558  -10.6925   20.3275 N   0  0  0  0  0  0  0  0  0  0  0  0
  -26.6718  -17.8522   19.9293 N   0  0  0  0  0  0  0  0  0  0  0  0
  -23.3944  -11.4357   21.4355 N   0  0  0  0  0  0  0  0  0  0  0  0
  -23.4648  -30.7728   21.4272 N   0  0  0  0  0  0  0  0  0  0  0  0
  -23.3046  -14.9455   19.9332 N   0  0  0  0  0  0  0  0  0  0  0  0
  -23.4491  -11.3359   23.8014 N   0  0  0  0  0  0  0  0  0  0  0  0
  -30.2914  -17.4741   20.1379 N   0  0  0  0  0  0  0  0  0  0  0  0
  -24.4320   -7.1072   22.5572 N   0  0  0  0  0  0  0  0  0  0  0  0
  -25.5476  -15.6729   19.9810 N   0  0  0  0  0  0  0  0  0  0  0  0
  -25.6856  -31.4666   24.1322 N   0  0  0  0  0  0  0  0  0  0  0  0
  -20.5157  -31.7805   20.1061 N   0  0  0  0  0  0  0  0  0  0  0  0
  -20.3366  -31.7727   16.4956 N   0  3  0  0  0  0  0  0  0  0  0  0
  -24.1111   -8.4916   24.3570 O   0  0  0  0  0  0  0  0  0  0  0  0
  -29.4261  -20.1501   19.9592 O   0  0  0  0  0  0  0  0  0  0  0  0
  -24.4463  -29.5754   23.5754 O   0  0  0  0  0  0  0  0  0  0  0  0
  -25.1901  -22.7976   19.5621 O   0  0  0  0  0  0  0  0  0  0  0  0
  -22.4578  -32.8115   21.9428 O   0  0  0  0  0  0  0  0  0  0  0  0
  -20.5502  -29.9759   18.6502 O   0  0  0  0  0  0  0  0  0  0  0  0
  -23.8082  -17.1983   19.8100 O   0  0  0  0  0  0  0  0  0  0  0  0
  -24.8137   -5.2165   17.3309 O   0  0  0  0  0  0  0  0  0  0  0  0
  -25.5866  -25.4275   19.1959 O   0  0  0  0  0  0  0  0  0  1  0  0
  -22.4214   -0.3821   18.4750 F   0  0  0  0  0  0  0  0  0  0  0  0
  -25.3328   -3.9046   19.7083 F   0  0  0  0  0  0  0  0  0  0  0  0
  -28.2011  -15.7765   20.1169 S   0  0  0  0  0  0  0  0  0  0  0  0
  1  2  1  0  0  0  0
  1  5  2  0  0  0  0
  2  6  2  0  0  0  0
  3  8  2  0  0  0  0
  3 15  1  0  0  0  0
  4  9  1  0  0  0  0
  4 15  2  0  0  0  0
  5 17  1  0  0  0  0
  6 19  1  0  0  0  0
  7 10  2  0  0  0  0
  7 18  1  0  0  0  0
  8 21  1  0  0  0  0
  9 21  2  0  0  0  0
 10 22  1  0  0  0  0
 11 12  2  0  0  0  0
 11 23  1  0  0  0  0
 12 24  1  0  0  0  0
 13 20  1  0  0  0  0
 13 22  2  0  0  0  0
 14 24  2  0  0  0  0
 14 25  1  0  0  0  0
 15 26  1  0  0  0  0
 16 26  1  0  0  0  0
 16 28  2  0  0  0  0
 16 31  1  0  0  0  0
 17 19  2  0  0  0  0
 17 38  1  0  0  0  0
 18 20  2  0  0  0  0
 18 39  1  0  0  0  0
 19 47  1  0  0  0  0
 20 40  1  0  0  0  0
 21 80  1  0  0  0  0
 22 81  1  0  0  0  0
 23 25  2  0  0  0  0
 23 80  1  0  0  0  0
 24 82  1  0  0  0  0
 25 83  1  0  0  0  0
 26 61  2  0  0  0  0
 27 29  2  0  0  0  0
 27 32  1  0  0  0  0
 27 62  1  0  0  0  0
 28 63  1  0  0  0  0
 28 66  1  0  0  0  0
 29 67  1  0  0  0  0
 29 84  1  0  0  0  0
 30 62  2  0  0  0  0
 30 69  1  0  0  0  0
 30 84  1  0  0  0  0
 31 68  1  0  0  0  0
 31 73  2  0  0  0  0
 32 55  1  0  0  0  0
 32 74  2  0  0  0  0
 33 48  1  0  0  0  0
 33 70  1  0  0  0  0
 33 75  2  0  0  0  0
 34 56  1  0  0  0  0
 34 57  1  0  0  0  0
 34 76  2  0  0  0  0
 35 58  1  0  0  0  0
 35 64  1  0  0  0  0
 35 77  2  0  0  0  0
 36 59  1  0  0  0  0
 36 71  1  0  0  0  0
 36 78  2  0  0  0  0
 37 65  1  0  0  0  0
 37 69  1  0  0  0  0
 37 79  2  0  0  0  0
 38 41  1  0  0  0  0
 39 48  1  0  0  0  0
 40 64  1  0  0  0  0
 41 43  1  0  0  0  0
 42 44  1  0  0  0  0
 42 45  1  0  0  0  0
 43 47  1  0  0  0  0
 44 49  1  0  0  0  0
 45 65  1  0  0  0  0
 46 49  1  0  0  0  0
 46 65  1  0  0  0  0
 47 70  1  0  0  0  0
 48 64  1  0  0  0  0
 49 63  1  0  0  0  0
 50 59  1  0  0  0  0
 51 60  1  0  0  0  0
 52 60  1  0  0  0  0
 53 60  1  0  0  0  0
 54 72  1  0  0  0  0
 55 56  1  0  0  0  0
 57 81  1  0  0  0  0
 58 60  1  0  0  0  0
 58 71  1  0  0  0  0
 59 72  1  0  0  0  0
 61 63  1  0  0  0  0
M  CHG  1  72   1
M  ISO  4  37 100  57 101  69 100  81 101
M  END
> <Batch ID>
0178

> <Smiles>
CNC(C)C(=O)NC(C(=O)N1Cc2cc([101O:1][101CH2:1]C(=O)CCC(=O)c3nc([100NH:0][100C:0](=O)N4CCCC(n5nc(-c6ccc(Oc7ccc(F)cc7F)cc6)c(C(N)=O)c5N)C4)sc3N)ccc2CC1C(=O)NC1CCCc2ccccc21)C(C)(C)C

> <Shape>
0.236

> <Color>
0.087

> <Negative vol penalty>
0.000

$$$$

  -OEChem-04052304443D

 84 92  0     1  0  0  0  0  0999 V2000
  -19.0656  -21.6971   24.0067 C   0  0  0  0  0  0  0  0  0  0  0  0
  -20.4510  -21.8227   24.0007 C   0  0  0  0  0  0  0  0  0  0  0  0
  -22.9859   -9.9026   20.0005 C   0  0  0  0  0  0  0  0  0  0  0  0
  -23.6989   -9.9827   22.3076 C   0  0  0  0  0  0  0  0  0  0  0  0
  -18.2693  -22.7498   23.5576 C   0  0  0  0  0  0  0  0  0  0  0  0
  -21.0412  -23.0008   23.5444 C   0  0  0  0  0  0  0  0  0  0  0  0
  -24.7748  -24.6012   26.5683 C   0  0  0  0  0  0  0  0  0  0  0  0
  -22.2129   -8.7753   20.2786 C   0  0  0  0  0  0  0  0  0  0  0  0
  -22.9257   -8.8555   22.5856 C   0  0  0  0  0  0  0  0  0  0  0  0
  -26.0040  -23.9522   26.4604 C   0  0  0  0  0  0  0  0  0  0  0  0
  -23.1575   -5.5092   22.1620 C   0  0  0  0  0  0  0  0  0  0  0  0
  -23.7363   -4.5001   22.9315 C   0  0  0  0  0  0  0  0  0  0  0  0
  -26.8327  -25.7613   25.0968 C   0  0  0  0  0  0  0  0  0  0  0  0
  -22.0045   -4.7742   24.5937 C   0  0  0  0  0  0  0  0  0  0  0  0
  -23.7290  -10.5062   21.0150 C   0  0  0  0  0  0  0  0  0  0  0  0
  -24.1266  -13.0173   20.8058 C   0  0  0  0  0  0  0  0  0  0  0  0
  -18.8497  -23.9451   23.1046 C   0  0  0  0  0  0  0  0  0  0  0  0
  -24.5614  -25.8320   25.9312 C   0  0  0  0  0  0  0  0  0  0  0  0
  -20.2520  -24.0700   23.0875 C   0  0  0  0  0  0  0  0  0  0  0  0
  -25.6007  -26.4251   25.2003 C   0  0  0  0  0  0  0  0  0  0  0  0
  -22.1827   -8.2518   21.5711 C   0  0  0  0  0  0  0  0  0  0  0  0
  -27.0322  -24.5308   25.7222 C   0  0  0  0  0  0  0  0  0  0  0  0
  -22.0022   -6.1509   22.6083 C   0  0  0  0  0  0  0  0  0  0  0  0
  -23.1599   -4.1326   24.1474 C   0  0  0  0  0  0  0  0  0  0  0  0
  -21.4257   -5.7834   23.8242 C   0  0  0  0  0  0  0  0  0  0  0  0
  -24.5283  -11.6703   20.7283 C   0  0  0  0  0  0  0  0  0  0  0  0
  -31.8589  -18.6632   22.1546 C   0  0  0  0  0  0  0  0  0  0  0  0
  -25.2416  -13.7298   20.4374 C   0  0  0  0  0  0  0  0  0  0  0  0
  -30.7504  -19.0813   22.8607 C   0  0  0  0  0  0  0  0  0  0  0  0
  -30.5903  -16.9000   21.8513 C   0  0  0  0  0  0  0  0  0  0  0  0
  -28.2569  -22.6550   25.0497 C   0  0  0  0  0  0  0  0  0  1  0  0
  -22.8591  -13.5748   21.1777 C   0  0  0  0  0  0  0  0  0  0  0  0
  -29.3801  -21.9439   24.8943 C   0  0  0  0  0  0  0  0  0  0  0  0
  -29.3004  -20.5872   24.2608 C   0  0  0  0  0  0  0  0  0  0  0  0
  -22.5877  -26.8738   23.6678 C   0  0  0  0  0  0  0  0  0  0  0  0
  -23.8918  -29.7521   24.4006 C   0  0  0  0  0  0  0  0  0  0  0  0
  -26.5262  -31.4945   25.6933 C   0  0  0  0  0  0  0  0  0  0  0  0
  -30.7241  -14.6696   20.6879 C   0  0  0  0  0  0  0  0  0  0  0  0
  -17.9495  -25.0376   22.5844 C   0  0  0  0  0  0  0  0  0  0  0  0
  -23.2384  -26.5321   26.0794 C   0  0  0  0  0  0  0  0  0  0  0  0
  -25.4292  -27.7548   24.5140 C   0  0  0  0  0  0  0  0  0  0  0  0
  -18.6416  -26.3933   22.4681 C   0  0  0  0  0  0  0  0  0  0  0  0
  -29.6073  -12.1894   18.3904 C   0  0  0  0  0  0  0  0  0  0  0  0
  -20.0028  -26.2419   21.7966 C   0  0  0  0  0  0  0  0  0  0  0  0
  -28.1533  -11.9440   18.8002 C   0  0  0  0  0  0  0  0  0  0  0  0
  -30.5023  -12.4457   19.6016 C   0  0  0  0  0  0  0  0  0  0  0  0
  -28.5834  -13.2617   20.9135 C   0  0  0  0  0  0  0  0  0  0  0  0
  -20.9287  -25.3415   22.6233 C   0  0  1  0  0  0  0  0  0  0  0  0
  -22.9649  -27.5353   24.9631 C   0  0  1  0  0  0  0  0  0  0  0  0
  -27.6313  -13.0630   19.7228 C   0  0  2  0  0  0  0  0  0  0  0  0
  -32.9791  -20.5385   20.9238 C   0  0  0  0  0  0  0  0  0  0  0  0
  -27.3183  -33.8366   26.1225 C   0  0  0  0  0  0  0  0  0  0  0  0
  -24.5330  -30.0761   21.4352 C   0  0  0  0  0  0  0  0  0  0  0  0
  -26.1185  -31.9135   22.0502 C   0  0  0  0  0  0  0  0  0  0  0  0
  -23.6862  -32.1474   22.5518 C   0  0  0  0  0  0  0  0  0  0  0  0
  -26.6677  -31.0352   28.6136 C   0  0  0  0  0  0  0  0  0  0  0  0
  -33.1102  -19.4265   21.9692 C   0  0  0  0  0  0  0  0  0  0  0  0
  -25.0838  -30.5406   23.9145 C   0  0  1  0  0  0  0  0  0  0  0  0
  -26.5862  -32.6331   26.6955 C   0  0  2  0  0  0  0  0  0  0  0  0
  -24.8583  -31.1434   22.4991 C   0  0  0  0  0  0  0  0  0  0  0  0
  -25.7991  -11.5326   20.3409 N   0  0  0  0  0  0  0  0  0  0  0  0
  -31.7691  -17.4125   21.5754 N   0  0  0  0  0  0  0  0  0  0  0  0
  -26.2056  -12.8023   20.1716 N   0  0  0  0  0  0  0  0  0  0  0  0
  -24.1152  -28.3971   24.6832 N   0  0  0  0  0  0  0  0  0  0  0  0
  -29.9476  -13.5208   20.4269 N   0  0  0  0  0  0  0  0  0  0  0  0
  -25.4816  -15.0529   20.3180 N   0  0  0  0  0  0  0  0  0  0  0  0
  -21.8215  -12.7001   21.5279 N   0  0  0  0  0  0  0  0  0  0  0  0
  -30.4653  -20.2693   23.5762 N   0  0  0  0  0  0  0  0  0  0  0  0
  -30.0799  -15.6385   21.4565 N   0  0  0  0  0  0  0  0  0  0  0  0
  -21.4666  -26.0702   23.7520 N   0  0  0  0  0  0  0  0  0  0  0  0
  -25.3669  -31.5310   24.9476 N   0  0  0  0  0  0  0  0  0  0  0  0
  -27.2940  -32.1975   27.9325 N   0  3  0  0  0  0  0  0  0  0  0  0
  -22.6479  -14.8113   21.1829 O   0  0  0  0  0  0  0  0  0  0  0  0
  -28.2938  -19.8963   24.3760 O   0  0  0  0  0  0  0  0  0  0  0  0
  -23.2628  -27.0784   22.6658 O   0  0  0  0  0  0  0  0  0  0  0  0
  -22.8042  -30.3192   24.5318 O   0  0  0  0  0  0  0  0  0  0  0  0
  -27.4201  -30.6586   25.5804 O   0  0  0  0  0  0  0  0  0  0  0  0
  -31.8658  -14.7970   20.2382 O   0  0  0  0  0  0  0  0  0  0  0  0
  -30.6157  -22.4111   25.2940 O   0  0  0  0  0  0  0  0  0  0  0  0
  -21.4283   -7.1520   21.8428 O   0  0  0  0  0  0  0  0  0  0  0  0
  -28.2328  -23.8991   25.6148 O   0  0  0  0  0  0  0  0  0  1  0  0
  -23.7150   -3.1624   24.8855 F   0  0  0  0  0  0  0  0  0  0  0  0
  -20.3151   -6.3954   24.2576 F   0  0  0  0  0  0  0  0  0  0  0  0
  -29.5397  -17.8680   22.8023 S   0  0  0  0  0  0  0  0  0  0  0  0
  1  2  1  0  0  0  0
  1  5  2  0  0  0  0
  2  6  2  0  0  0  0
  3  8  2  0  0  0  0
  3 15  1  0  0  0  0
  4  9  1  0  0  0  0
  4 15  2  0  0  0  0
  5 17  1  0  0  0  0
  6 19  1  0  0  0  0
  7 10  2  0  0  0  0
  7 18  1  0  0  0  0
  8 21  1  0  0  0  0
  9 21  2  0  0  0  0
 10 22  1  0  0  0  0
 11 12  2  0  0  0  0
 11 23  1  0  0  0  0
 12 24  1  0  0  0  0
 13 20  1  0  0  0  0
 13 22  2  0  0  0  0
 14 24  2  0  0  0  0
 14 25  1  0  0  0  0
 15 26  1  0  0  0  0
 16 26  1  0  0  0  0
 16 28  2  0  0  0  0
 16 32  1  0  0  0  0
 17 19  2  0  0  0  0
 17 39  1  0  0  0  0
 18 20  2  0  0  0  0
 18 40  1  0  0  0  0
 19 48  1  0  0  0  0
 20 41  1  0  0  0  0
 21 80  1  0  0  0  0
 22 81  1  0  0  0  0
 23 25  2  0  0  0  0
 23 80  1  0  0  0  0
 24 82  1  0  0  0  0
 25 83  1  0  0  0  0
 26 61  2  0  0  0  0
 27 29  2  0  0  0  0
 27 57  1  0  0  0  0
 27 62  1  0  0  0  0
 28 63  1  0  0  0  0
 28 66  1  0  0  0  0
 29 68  1  0  0  0  0
 29 84  1  0  0  0  0
 30 62  2  0  0  0  0
 30 69  1  0  0  0  0
 30 84  1  0  0  0  0
 31 33  2  0  0  0  0
 31 81  1  0  0  0  0
 32 67  1  0  0  0  0
 32 73  2  0  0  0  0
 33 34  1  0  0  0  0
 33 79  1  0  0  0  0
 34 68  1  0  0  0  0
 34 74  2  0  0  0  0
 35 49  1  0  0  0  0
 35 70  1  0  0  0  0
 35 75  2  0  0  0  0
 36 58  1  0  0  0  0
 36 64  1  0  0  0  0
 36 76  2  0  0  0  0
 37 59  1  0  0  0  0
 37 71  1  0  0  0  0
 37 77  2  0  0  0  0
 38 65  1  0  0  0  0
 38 69  1  0  0  0  0
 38 78  2  0  0  0  0
 39 42  1  0  0  0  0
 40 49  1  0  0  0  0
 41 64  1  0  0  0  0
 42 44  1  0  0  0  0
 43 45  1  0  0  0  0
 43 46  1  0  0  0  0
 44 48  1  0  0  0  0
 45 50  1  0  0  0  0
 46 65  1  0  0  0  0
 47 50  1  0  0  0  0
 47 65  1  0  0  0  0
 48 70  1  0  0  0  0
 49 64  1  0  0  0  0
 50 63  1  0  0  0  0
 51 57  1  0  0  0  0
 52 59  1  0  0  0  0
 53 60  1  0  0  0  0
 54 60  1  0  0  0  0
 55 60  1  0  0  0  0
 56 72  1  0  0  0  0
 58 60  1  0  0  0  0
 58 71  1  0  0  0  0
 59 72  1  0  0  0  0
 61 63  1  0  0  0  0
M  CHG  1  72   1
M  ISO  4  31 101  38 100  69 100  81 101
M  END
> <Batch ID>
0178

> <Smiles>
CCc1nc([100NH:0][100C:0](=O)N2CCCC(n3nc(-c4ccc(Oc5ccc(F)cc5F)cc4)c(C(N)=O)c3N)C2)sc1NC(=O)C(=O)[101CH2:1][101O:1]c1ccc2c(c1)CN(C(=O)C(NC(=O)C(C)NC)C(C)(C)C)C(C(=O)NC1CCCc3ccccc31)C2

> <Shape>
0.285

> <Color>
0.187

> <Negative vol penalty>
0.000

$$$$

  -OEChem-04052304443D

 89 97  0     1  0  0  0  0  0999 V2000
  -33.0405  -27.7765   17.2608 C   0  0  0  0  0  0  0  0  0  0  0  0
  -32.2773  -27.0875   18.1980 C   0  0  0  0  0  0  0  0  0  0  0  0
  -24.3651   -8.8711   21.5262 C   0  0  0  0  0  0  0  0  0  0  0  0
  -24.2228  -10.5866   23.2213 C   0  0  0  0  0  0  0  0  0  0  0  0
  -32.9326  -29.1628   17.1590 C   0  0  0  0  0  0  0  0  0  0  0  0
  -31.4065  -27.7847   19.0347 C   0  0  0  0  0  0  0  0  0  0  0  0
  -26.8776  -25.5518   19.4197 C   0  0  0  0  0  0  0  0  0  0  0  0
  -23.9275   -7.9220   22.4499 C   0  0  0  0  0  0  0  0  0  0  0  0
  -23.7852   -9.6375   24.1451 C   0  0  0  0  0  0  0  0  0  0  0  0
  -26.7840  -24.4423   20.2587 C   0  0  0  0  0  0  0  0  0  0  0  0
  -20.9948   -6.9513   23.8246 C   0  0  0  0  0  0  0  0  0  0  0  0
  -20.0137   -6.0496   23.4123 C   0  0  0  0  0  0  0  0  0  0  0  0
  -25.8322  -25.8346   21.9836 C   0  0  0  0  0  0  0  0  0  0  0  0
  -21.5180   -4.2112   23.8531 C   0  0  0  0  0  0  0  0  0  0  0  0
  -24.5128  -10.2034   21.9119 C   0  0  0  0  0  0  0  0  0  0  0  0
  -24.1690  -11.9662   20.1003 C   0  0  0  0  0  0  0  0  0  0  0  0
  -32.0530  -29.8763   17.9883 C   0  0  0  0  0  0  0  0  0  0  0  0
  -26.4586  -26.8152   19.8609 C   0  0  0  0  0  0  0  0  0  0  0  0
  -31.2878  -29.1821   18.9448 C   0  0  0  0  0  0  0  0  0  0  0  0
  -25.9192  -26.9580   21.1473 C   0  0  0  0  0  0  0  0  0  0  0  0
  -23.6375   -8.3052   23.7594 C   0  0  0  0  0  0  0  0  0  0  0  0
  -26.2639  -24.5841   21.5419 C   0  0  0  0  0  0  0  0  0  0  0  0
  -22.2376   -6.4829   24.2512 C   0  0  0  0  0  0  0  0  0  0  0  0
  -20.2753   -4.6796   23.4266 C   0  0  0  0  0  0  0  0  0  0  0  0
  -22.4992   -5.1129   24.2654 C   0  0  0  0  0  0  0  0  0  0  0  0
  -24.9653  -11.1842   20.9583 C   0  0  0  0  0  0  0  0  0  0  0  0
  -30.3153  -18.3351   23.8266 C   0  0  0  0  0  0  0  0  0  0  0  0
  -31.3990  -18.2557   22.9773 C   0  0  0  0  0  0  0  0  0  0  0  0
  -25.0687  -12.7331   19.4009 C   0  0  0  0  0  0  0  0  0  0  0  0
  -30.3190  -16.4706   22.3015 C   0  0  0  0  0  0  0  0  0  0  0  0
  -27.3230  -22.8407   22.6862 C   0  0  0  0  0  0  0  0  0  1  0  0
  -22.7436  -11.9968   19.9491 C   0  0  0  0  0  0  0  0  0  0  0  0
  -27.4331  -21.7611   23.4760 C   0  0  0  0  0  0  0  0  0  0  0  0
  -28.8004  -21.1916   23.7000 C   0  0  0  0  0  0  0  0  0  0  0  0
  -27.8861  -29.6180   20.3201 C   0  0  0  0  0  0  0  0  0  0  0  0
  -24.8579  -30.6244   20.9029 C   0  0  0  0  0  0  0  0  0  0  0  0
  -21.6759  -29.8379   21.8533 C   0  0  0  0  0  0  0  0  0  0  0  0
  -30.6045  -14.6393   20.5953 C   0  0  0  0  0  0  0  0  0  0  0  0
  -32.0056  -31.3794   17.8737 C   0  0  0  0  0  0  0  0  0  0  0  0
  -26.5415  -27.9971   18.9342 C   0  0  0  0  0  0  0  0  0  0  0  0
  -25.4366  -28.2888   21.6616 C   0  0  0  0  0  0  0  0  0  0  0  0
  -30.7830  -32.0030   18.5420 C   0  0  0  0  0  0  0  0  0  0  0  0
  -29.5818  -12.6855   17.7999 C   0  0  0  0  0  0  0  0  0  0  0  0
  -30.5733  -31.4095   19.9315 C   0  0  0  0  0  0  0  0  0  0  0  0
  -28.2068  -12.1549   18.2120 C   0  0  0  0  0  0  0  0  0  0  0  0
  -30.5441  -12.7478   18.9847 C   0  0  0  0  0  0  0  0  0  0  0  0
  -28.6665  -12.9484   20.5670 C   0  0  0  0  0  0  0  0  0  0  0  0
  -30.3137  -29.9003   19.8534 C   0  0  1  0  0  0  0  0  0  0  0  0
  -26.5616  -29.3332   19.6701 C   0  0  1  0  0  0  0  0  0  0  0  0
  -27.6430  -12.9286   19.4200 C   0  0  2  0  0  0  0  0  0  0  0  0
  -19.4312  -30.8785   22.2725 C   0  0  0  0  0  0  0  0  0  0  0  0
  -31.3123  -20.2995   27.6446 C   0  0  0  0  0  0  0  0  0  0  0  0
  -28.8614  -20.6978   27.4063 C   0  0  0  0  0  0  0  0  0  0  0  0
  -29.6767  -18.8164   28.8296 C   0  0  0  0  0  0  0  0  0  0  0  0
  -25.8720  -31.7367   23.5571 C   0  0  0  0  0  0  0  0  0  0  0  0
  -23.4928  -31.8931   24.3208 C   0  0  0  0  0  0  0  0  0  0  0  0
  -24.2588  -33.2202   22.3524 C   0  0  0  0  0  0  0  0  0  0  0  0
  -20.3961  -28.2071   19.7410 C   0  0  0  0  0  0  0  0  0  0  0  0
  -29.8457  -18.6851   26.2857 C   0  0  0  0  0  0  0  0  0  0  0  0
  -29.9804  -19.3552   24.9001 C   0  0  2  0  0  0  0  0  0  0  0  0
  -23.9793  -30.7176   22.1270 C   0  0  1  0  0  0  0  0  0  0  0  0
  -20.3281  -30.1944   21.2526 C   0  0  2  0  0  0  0  0  0  0  0  0
  -29.9455  -19.6070   27.5371 C   0  0  0  0  0  0  0  0  0  0  0  0
  -24.4115  -31.8671   23.0806 C   0  0  0  0  0  0  0  0  0  0  0  0
  -26.2704  -11.4314   20.8183 N   0  0  0  0  0  0  0  0  0  0  0  0
  -31.4031  -17.1870   22.1023 N   0  0  0  0  0  0  0  0  0  0  0  0
  -26.3011  -12.3773   19.8642 N   0  0  0  0  0  0  0  0  0  0  0  0
  -25.5443  -29.4156   20.7201 N   0  0  0  0  0  0  0  0  0  0  0  0
  -29.9444  -13.4994   20.0894 N   0  0  0  0  0  0  0  0  0  0  0  0
  -32.4171  -19.1489   22.9722 N   0  0  0  0  0  0  0  0  0  0  0  0
  -24.9178  -13.6701   18.4410 N   0  0  0  0  0  0  0  0  0  0  0  0
  -21.9686  -11.1436   20.7464 N   0  0  0  0  0  0  0  0  0  0  0  0
  -29.9235  -15.2913   21.6227 N   0  0  0  0  0  0  0  0  0  0  0  0
  -28.7877  -20.0834   24.5294 N   0  0  0  0  0  0  0  0  0  0  0  0
  -28.9510  -29.6426   19.4398 N   0  0  0  0  0  0  0  0  0  0  0  0
  -22.6092  -30.8299   21.6385 N   0  0  0  0  0  0  0  0  0  0  0  0
  -19.6364  -28.9669   20.7670 N   0  3  0  0  0  0  0  0  0  0  0  0
  -22.1750  -12.7465   19.1194 O   0  0  0  0  0  0  0  0  0  0  0  0
  -29.8046  -21.6802   23.1895 O   0  0  0  0  0  0  0  0  0  0  0  0
  -27.9378  -29.8032   21.5303 O   0  0  0  0  0  0  0  0  0  0  0  0
  -24.9270  -31.5860   20.1334 O   0  0  0  0  0  0  0  0  0  0  0  0
  -21.8794  -28.7864   22.4562 O   0  0  0  0  0  0  0  0  0  0  0  0
  -31.6805  -15.0253   20.1314 O   0  0  0  0  0  0  0  0  0  0  0  0
  -26.3705  -21.1417   24.0966 O   0  0  0  0  0  0  0  0  0  0  0  0
  -23.2103   -7.3793   24.6610 O   0  0  0  0  0  0  0  0  0  0  0  0
  -26.1720  -23.5029   22.3631 O   0  0  0  0  0  0  0  0  0  1  0  0
  -19.3325   -3.8138   23.0320 F   0  0  0  0  0  0  0  0  0  0  0  0
  -23.6908   -4.6569   24.6753 F   0  0  0  0  0  0  0  0  0  0  0  0
  -29.2509  -17.0246   23.5250 S   0  0  0  0  0  0  0  0  0  0  0  0
  1  2  1  0  0  0  0
  1  5  2  0  0  0  0
  2  6  2  0  0  0  0
  3  8  2  0  0  0  0
  3 15  1  0  0  0  0
  4  9  1  0  0  0  0
  4 15  2  0  0  0  0
  5 17  1  0  0  0  0
  6 19  1  0  0  0  0
  7 10  2  0  0  0  0
  7 18  1  0  0  0  0
  8 21  1  0  0  0  0
  9 21  2  0  0  0  0
 10 22  1  0  0  0  0
 11 12  2  0  0  0  0
 11 23  1  0  0  0  0
 12 24  1  0  0  0  0
 13 20  1  0  0  0  0
 13 22  2  0  0  0  0
 14 24  2  0  0  0  0
 14 25  1  0  0  0  0
 15 26  1  0  0  0  0
 16 26  1  0  0  0  0
 16 29  2  0  0  0  0
 16 32  1  0  0  0  0
 17 19  2  0  0  0  0
 17 39  1  0  0  0  0
 18 20  2  0  0  0  0
 18 40  1  0  0  0  0
 19 48  1  0  0  0  0
 20 41  1  0  0  0  0
 21 85  1  0  0  0  0
 22 86  1  0  0  0  0
 23 25  2  0  0  0  0
 23 85  1  0  0  0  0
 24 87  1  0  0  0  0
 25 88  1  0  0  0  0
 26 65  2  0  0  0  0
 27 28  2  0  0  0  0
 27 60  1  0  0  0  0
 27 89  1  0  0  0  0
 28 66  1  0  0  0  0
 28 70  1  0  0  0  0
 29 67  1  0  0  0  0
 29 71  1  0  0  0  0
 30 66  2  0  0  0  0
 30 73  1  0  0  0  0
 30 89  1  0  0  0  0
 31 33  2  0  0  0  0
 31 86  1  0  0  0  0
 32 72  1  0  0  0  0
 32 78  2  0  0  0  0
 33 34  1  0  0  0  0
 33 84  1  0  0  0  0
 34 74  1  0  0  0  0
 34 79  2  0  0  0  0
 35 49  1  0  0  0  0
 35 75  1  0  0  0  0
 35 80  2  0  0  0  0
 36 61  1  0  0  0  0
 36 68  1  0  0  0  0
 36 81  2  0  0  0  0
 37 62  1  0  0  0  0
 37 76  1  0  0  0  0
 37 82  2  0  0  0  0
 38 69  1  0  0  0  0
 38 73  1  0  0  0  0
 38 83  2  0  0  0  0
 39 42  1  0  0  0  0
 40 49  1  0  0  0  0
 41 68  1  0  0  0  0
 42 44  1  0  0  0  0
 43 45  1  0  0  0  0
 43 46  1  0  0  0  0
 44 48  1  0  0  0  0
 45 50  1  0  0  0  0
 46 69  1  0  0  0  0
 47 50  1  0  0  0  0
 47 69  1  0  0  0  0
 48 75  1  0  0  0  0
 49 68  1  0  0  0  0
 50 67  1  0  0  0  0
 51 62  1  0  0  0  0
 52 63  1  0  0  0  0
 53 63  1  0  0  0  0
 54 63  1  0  0  0  0
 55 64  1  0  0  0  0
 56 64  1  0  0  0  0
 57 64  1  0  0  0  0
 58 77  1  0  0  0  0
 59 60  1  0  0  0  0
 59 63  1  0  0  0  0
 60 74  1  0  0  0  0
 61 64  1  0  0  0  0
 61 76  1  0  0  0  0
 62 77  1  0  0  0  0
 65 67  1  0  0  0  0
M  CHG  1  77   1
M  ISO  4  31 101  38 100  73 100  86 101
M  END
> <Batch ID>
0178

> <Smiles>
CNC(C)C(=O)NC(C(=O)N1Cc2cc([101O:1][101CH2:1]C(=O)C(=O)NC(CC(C)(C)C)c3sc([100NH:0][100C:0](=O)N4CCCC(n5nc(-c6ccc(Oc7ccc(F)cc7F)cc6)c(C(N)=O)c5N)C4)nc3N)ccc2CC1C(=O)NC1CCCc2ccccc21)C(C)(C)C

> <Shape>
0.256

> <Color>
0.085

> <Negative vol penalty>
0.000

$$$$

  -OEChem-04052304443D

 83 91  0     1  0  0  0  0  0999 V2000
  -19.7719  -29.0330   27.1016 C   0  0  0  0  0  0  0  0  0  0  0  0
  -20.9437  -28.4705   26.6059 C   0  0  0  0  0  0  0  0  0  0  0  0
  -24.2064   -9.3029   22.1589 C   0  0  0  0  0  0  0  0  0  0  0  0
  -23.1753  -10.0442   20.1035 C   0  0  0  0  0  0  0  0  0  0  0  0
  -18.7915  -29.4882   26.2209 C   0  0  0  0  0  0  0  0  0  0  0  0
  -21.1353  -28.3617   25.2290 C   0  0  0  0  0  0  0  0  0  0  0  0
  -26.4313  -28.8779   22.1971 C   0  0  0  0  0  0  0  0  0  0  0  0
  -23.3278   -8.2208   22.2094 C   0  0  0  0  0  0  0  0  0  0  0  0
  -22.2967   -8.9620   20.1540 C   0  0  0  0  0  0  0  0  0  0  0  0
  -27.3242  -27.9293   21.7006 C   0  0  0  0  0  0  0  0  0  0  0  0
  -23.0224   -5.1895   20.7427 C   0  0  0  0  0  0  0  0  0  0  0  0
  -23.5539   -3.9368   21.0491 C   0  0  0  0  0  0  0  0  0  0  0  0
  -26.2773  -28.0872   19.5330 C   0  0  0  0  0  0  0  0  0  0  0  0
  -22.1259   -3.8066   22.9936 C   0  0  0  0  0  0  0  0  0  0  0  0
  -28.1991  -18.5590   17.7826 C   0  0  0  0  0  0  0  0  0  0  0  0
  -24.1301  -10.2147   21.1059 C   0  0  0  0  0  0  0  0  0  0  0  0
  -26.3007  -11.3745   20.4343 C   0  0  0  0  0  0  0  0  0  0  0  0
  -18.9754  -29.3937   24.8324 C   0  0  0  0  0  0  0  0  0  0  0  0
  -25.4460  -29.4313   21.3667 C   0  0  0  0  0  0  0  0  0  0  0  0
  -20.1559  -28.8148   24.3288 C   0  0  0  0  0  0  0  0  0  0  0  0
  -25.3748  -29.0446   20.0207 C   0  0  0  0  0  0  0  0  0  0  0  0
  -22.3730   -8.0503   21.2070 C   0  0  0  0  0  0  0  0  0  0  0  0
  -27.2455  -27.5316   20.3691 C   0  0  0  0  0  0  0  0  0  0  0  0
  -22.0428   -5.7509   21.5618 C   0  0  0  0  0  0  0  0  0  0  0  0
  -23.1056   -3.2454   22.1745 C   0  0  0  0  0  0  0  0  0  0  0  0
  -21.5945   -5.0594   22.6872 C   0  0  0  0  0  0  0  0  0  0  0  0
  -28.7627  -19.8177   17.4646 C   0  0  0  0  0  0  0  0  0  0  0  0
  -25.0371  -11.3331   21.0535 C   0  0  0  0  0  0  0  0  0  0  0  0
  -26.7547  -12.6500   20.6655 C   0  0  0  0  0  0  0  0  0  0  0  0
  -27.4500  -18.7522   18.9199 C   0  0  0  0  0  0  0  0  0  0  0  0
  -28.3175  -20.6905   18.4301 C   0  0  0  0  0  0  0  0  0  0  0  0
  -27.7621  -25.2874   19.9598 C   0  0  0  0  0  0  0  0  0  1  0  0
  -27.0014  -10.3516   19.7144 C   0  0  0  0  0  0  0  0  0  0  0  0
  -28.5398  -24.2941   19.5127 C   0  0  0  0  0  0  0  0  0  0  0  0
  -28.0601  -22.8795   19.6436 C   0  0  0  0  0  0  0  0  0  0  0  0
  -22.2675  -29.4533   21.3646 C   0  0  0  0  0  0  0  0  0  0  0  0
  -22.6715  -31.4974   18.8785 C   0  0  0  0  0  0  0  0  0  0  0  0
  -24.6662  -32.6244   16.3491 C   0  0  0  0  0  0  0  0  0  0  0  0
  -25.9354  -18.1546   20.8422 C   0  0  0  0  0  0  0  0  0  0  0  0
  -17.8670  -29.8562   23.9202 C   0  0  0  0  0  0  0  0  0  0  0  0
  -24.5075  -30.4732   21.9106 C   0  0  0  0  0  0  0  0  0  0  0  0
  -24.3484  -29.6234   19.0827 C   0  0  0  0  0  0  0  0  0  0  0  0
  -18.3097  -30.0465   22.4717 C   0  0  0  0  0  0  0  0  0  0  0  0
  -24.9731  -16.2790   23.7115 C   0  0  0  0  0  0  0  0  0  0  0  0
  -19.1352  -28.8519   22.0045 C   0  0  0  0  0  0  0  0  0  0  0  0
  -25.0079  -14.8284   23.2249 C   0  0  0  0  0  0  0  0  0  0  0  0
  -24.4727  -17.2297   22.6255 C   0  0  0  0  0  0  0  0  0  0  0  0
  -25.2168  -15.6850   20.8564 C   0  0  0  0  0  0  0  0  0  0  0  0
  -20.4114  -28.7020   22.8415 C   0  0  1  0  0  0  0  0  0  0  0  0
  -23.2153  -30.5907   21.1083 C   0  0  1  0  0  0  0  0  0  0  0  0
  -25.7757  -14.6986   21.8947 C   0  0  2  0  0  0  0  0  0  0  0  0
  -24.7088  -34.2772   14.4613 C   0  0  0  0  0  0  0  0  0  0  0  0
  -20.8403  -29.6802   17.2494 C   0  0  0  0  0  0  0  0  0  0  0  0
  -21.6698  -30.8172   15.1788 C   0  0  0  0  0  0  0  0  0  0  0  0
  -20.4479  -32.1273   16.9146 C   0  0  0  0  0  0  0  0  0  0  0  0
  -26.9932  -34.0492   17.4954 C   0  0  0  0  0  0  0  0  0  0  0  0
  -22.8070  -31.3477   17.3825 C   0  0  1  0  0  0  0  0  0  0  0  0
  -25.0539  -34.0283   15.9213 C   0  0  2  0  0  0  0  0  0  0  0  0
  -21.4595  -30.9805   16.6992 C   0  0  0  0  0  0  0  0  0  0  0  0
  -24.7094  -12.4902   21.6346 N   0  0  0  0  0  0  0  0  0  0  0  0
  -25.7738  -13.2707   21.3816 N   0  0  0  0  0  0  0  0  0  0  0  0
  -23.4491  -30.6342   19.6634 N   0  0  0  0  0  0  0  0  0  0  0  0
  -25.2493  -17.0533   21.3964 N   0  0  0  0  0  0  0  0  0  0  0  0
  -27.8933  -13.2899   20.3243 N   0  0  0  0  0  0  0  0  0  0  0  0
  -26.3905   -9.0984   19.5698 N   0  0  0  0  0  0  0  0  0  0  0  0
  -28.5553  -22.0719   18.6289 N   0  0  0  0  0  0  0  0  0  0  0  0
  -26.6663  -17.8592   19.6919 N   0  0  0  0  0  0  0  0  0  0  0  0
  -21.4060  -29.6667   22.4238 N   0  0  0  0  0  0  0  0  0  0  0  0
  -23.4028  -32.5890   16.9003 N   0  0  0  0  0  0  0  0  0  0  0  0
  -26.5184  -34.2385   16.1005 N   0  3  0  0  0  0  0  0  0  0  0  0
  -28.1426  -10.5380   19.2282 O   0  0  0  0  0  0  0  0  0  0  0  0
  -27.3201  -22.5477   20.5634 O   0  0  0  0  0  0  0  0  0  0  0  0
  -22.3133  -28.4566   20.6532 O   0  0  0  0  0  0  0  0  0  0  0  0
  -21.9094  -32.3538   19.3340 O   0  0  0  0  0  0  0  0  0  0  0  0
  -25.4082  -31.6553   16.2050 O   0  0  0  0  0  0  0  0  0  0  0  0
  -25.9009  -19.2711   21.3660 O   0  0  0  0  0  0  0  0  0  0  0  0
  -27.5168  -20.0488   19.3209 O   0  0  0  0  0  0  0  0  0  0  0  0
  -29.7712  -24.5196   18.9318 O   0  0  0  0  0  0  0  0  0  0  0  0
  -21.5156   -6.9943   21.2558 O   0  0  0  0  0  0  0  0  0  0  0  0
  -28.1153  -26.6054   19.8821 O   0  0  0  0  0  0  0  0  0  1  0  0
  -23.6149   -2.0417   22.4678 F   0  0  0  0  0  0  0  0  0  0  0  0
  -20.6527   -5.5930   23.4772 F   0  0  0  0  0  0  0  0  0  0  0  0
  -29.5618  -20.0972   16.4391 F   0  0  0  0  0  0  0  0  0  0  0  0
  1  2  1  0  0  0  0
  1  5  2  0  0  0  0
  2  6  2  0  0  0  0
  3  8  2  0  0  0  0
  3 16  1  0  0  0  0
  4  9  1  0  0  0  0
  4 16  2  0  0  0  0
  5 18  1  0  0  0  0
  6 20  1  0  0  0  0
  7 10  2  0  0  0  0
  7 19  1  0  0  0  0
  8 22  1  0  0  0  0
  9 22  2  0  0  0  0
 10 23  1  0  0  0  0
 11 12  2  0  0  0  0
 11 24  1  0  0  0  0
 12 25  1  0  0  0  0
 13 21  1  0  0  0  0
 13 23  2  0  0  0  0
 14 25  2  0  0  0  0
 14 26  1  0  0  0  0
 15 27  1  0  0  0  0
 15 30  2  0  0  0  0
 16 28  1  0  0  0  0
 17 28  1  0  0  0  0
 17 29  2  0  0  0  0
 17 33  1  0  0  0  0
 18 20  2  0  0  0  0
 18 40  1  0  0  0  0
 19 21  2  0  0  0  0
 19 41  1  0  0  0  0
 20 49  1  0  0  0  0
 21 42  1  0  0  0  0
 22 79  1  0  0  0  0
 23 80  1  0  0  0  0
 24 26  2  0  0  0  0
 24 79  1  0  0  0  0
 25 81  1  0  0  0  0
 26 82  1  0  0  0  0
 27 31  2  0  0  0  0
 27 83  1  0  0  0  0
 28 60  2  0  0  0  0
 29 61  1  0  0  0  0
 29 64  1  0  0  0  0
 30 67  1  0  0  0  0
 30 77  1  0  0  0  0
 31 66  1  0  0  0  0
 31 77  1  0  0  0  0
 32 34  2  0  0  0  0
 32 80  1  0  0  0  0
 33 65  1  0  0  0  0
 33 71  2  0  0  0  0
 34 35  1  0  0  0  0
 34 78  1  0  0  0  0
 35 66  1  0  0  0  0
 35 72  2  0  0  0  0
 36 50  1  0  0  0  0
 36 68  1  0  0  0  0
 36 73  2  0  0  0  0
 37 57  1  0  0  0  0
 37 62  1  0  0  0  0
 37 74  2  0  0  0  0
 38 58  1  0  0  0  0
 38 69  1  0  0  0  0
 38 75  2  0  0  0  0
 39 63  1  0  0  0  0
 39 67  1  0  0  0  0
 39 76  2  0  0  0  0
 40 43  1  0  0  0  0
 41 50  1  0  0  0  0
 42 62  1  0  0  0  0
 43 45  1  0  0  0  0
 44 46  1  0  0  0  0
 44 47  1  0  0  0  0
 45 49  1  0  0  0  0
 46 51  1  0  0  0  0
 47 63  1  0  0  0  0
 48 51  1  0  0  0  0
 48 63  1  0  0  0  0
 49 68  1  0  0  0  0
 50 62  1  0  0  0  0
 51 61  1  0  0  0  0
 52 58  1  0  0  0  0
 53 59  1  0  0  0  0
 54 59  1  0  0  0  0
 55 59  1  0  0  0  0
 56 70  1  0  0  0  0
 57 59  1  0  0  0  0
 57 69  1  0  0  0  0
 58 70  1  0  0  0  0
 60 61  1  0  0  0  0
M  CHG  1  70   1
M  ISO  4  32 101  39 100  67 100  80 101
M  END
> <Batch ID>
0178

> <Smiles>
CNC(C)C(=O)NC(C(=O)N1Cc2cc([101O:1][101CH2:1]C(=O)C(=O)Nc3oc([100NH:0][100C:0](=O)N4CCCC(n5nc(-c6ccc(Oc7ccc(F)cc7F)cc6)c(C(N)=O)c5N)C4)cc3F)ccc2CC1C(=O)NC1CCCc2ccccc21)C(C)(C)C

> <Shape>
0.256

> <Color>
0.111

> <Negative vol penalty>
0.000

$$$$

  -OEChem-04052304443D

 86 94  0     1  0  0  0  0  0999 V2000
  -29.6160  -35.8043   20.9134 C   0  0  0  0  0  0  0  0  0  0  0  0
  -29.6541  -34.4148   20.9713 C   0  0  0  0  0  0  0  0  0  0  0  0
  -24.8565   -8.7247   21.0592 C   0  0  0  0  0  0  0  0  0  0  0  0
  -23.1627  -10.0643   19.9758 C   0  0  0  0  0  0  0  0  0  0  0  0
  -28.6135  -36.5017   21.5862 C   0  0  0  0  0  0  0  0  0  0  0  0
  -28.6903  -33.7219   21.7031 C   0  0  0  0  0  0  0  0  0  0  0  0
  -26.8646  -29.7132   19.2047 C   0  0  0  0  0  0  0  0  0  0  0  0
  -23.8785   -7.8171   21.4660 C   0  0  0  0  0  0  0  0  0  0  0  0
  -22.1847   -9.1568   20.3826 C   0  0  0  0  0  0  0  0  0  0  0  0
  -27.6567  -28.5663   19.1756 C   0  0  0  0  0  0  0  0  0  0  0  0
  -21.5278   -7.6074   23.8857 C   0  0  0  0  0  0  0  0  0  0  0  0
  -21.5722   -7.1559   25.2047 C   0  0  0  0  0  0  0  0  0  0  0  0
  -26.3226  -27.6075   20.9420 C   0  0  0  0  0  0  0  0  0  0  0  0
  -27.7292  -19.4594   17.9765 C   0  0  0  0  0  0  0  0  0  0  0  0
  -21.8242   -4.8852   24.4190 C   0  0  0  0  0  0  0  0  0  0  0  0
  -27.6419  -18.8221   15.2620 C   0  0  0  0  0  0  0  0  0  0  0  0
  -24.4986   -9.8483   20.3141 C   0  0  0  0  0  0  0  0  0  0  0  0
  -26.2504  -10.7578   18.6981 C   0  0  0  0  0  0  0  0  0  0  0  0
  -27.6313  -35.8165   22.3186 C   0  0  0  0  0  0  0  0  0  0  0  0
  -25.8005  -29.8206   20.1116 C   0  0  0  0  0  0  0  0  0  0  0  0
  -27.6745  -34.4109   22.3874 C   0  0  0  0  0  0  0  0  0  0  0  0
  -25.5170  -28.7558   20.9788 C   0  0  0  0  0  0  0  0  0  0  0  0
  -27.6490  -20.4752   17.0239 C   0  0  0  0  0  0  0  0  0  0  0  0
  -27.7659  -18.1250   17.5719 C   0  0  0  0  0  0  0  0  0  0  0  0
  -22.5426   -8.0332   21.1277 C   0  0  0  0  0  0  0  0  0  0  0  0
  -27.3876  -27.5144   20.0463 C   0  0  0  0  0  0  0  0  0  0  0  0
  -21.6315   -6.6978   22.8333 C   0  0  0  0  0  0  0  0  0  0  0  0
  -21.7204   -5.7948   25.4714 C   0  0  0  0  0  0  0  0  0  0  0  0
  -27.6053  -20.1565   15.6666 C   0  0  0  0  0  0  0  0  0  0  0  0
  -27.7222  -17.8064   16.2146 C   0  0  0  0  0  0  0  0  0  0  0  0
  -21.7797   -5.3367   23.0999 C   0  0  0  0  0  0  0  0  0  0  0  0
  -25.5083  -10.7864   19.8940 C   0  0  0  0  0  0  0  0  0  0  0  0
  -27.0694  -11.8577   18.7758 C   0  0  0  0  0  0  0  0  0  0  0  0
  -26.2036   -9.8209   17.6138 C   0  0  0  0  0  0  0  0  0  0  0  0
  -27.5929  -23.7986   18.7872 C   0  0  0  0  0  0  0  0  0  0  0  0
  -27.6536  -22.2994   18.7311 C   0  0  0  0  0  0  0  0  0  0  0  0
  -25.0980  -31.7660   22.5252 C   0  0  0  0  0  0  0  0  0  0  0  0
  -22.2962  -30.1314   22.5159 C   0  0  0  0  0  0  0  0  0  0  0  0
  -20.6122  -27.2730   21.7153 C   0  0  0  0  0  0  0  0  0  0  0  0
  -27.8982  -17.2419   19.9275 C   0  0  0  0  0  0  0  0  0  0  0  0
  -26.5951  -36.6159   23.0682 C   0  0  0  0  0  0  0  0  0  0  0  0
  -24.9390  -31.0535   20.1121 C   0  0  0  0  0  0  0  0  0  0  0  0
  -24.3737  -28.8131   21.9576 C   0  0  0  0  0  0  0  0  0  0  0  0
  -25.3921  -35.7883   23.5133 C   0  0  0  0  0  0  0  0  0  0  0  0
  -28.0641  -14.9565   22.6527 C   0  0  0  0  0  0  0  0  0  0  0  0
  -25.8502  -34.4809   24.1517 C   0  0  0  0  0  0  0  0  0  0  0  0
  -27.4750  -13.6655   22.0795 C   0  0  0  0  0  0  0  0  0  0  0  0
  -27.3497  -16.1943   22.1131 C   0  0  0  0  0  0  0  0  0  0  0  0
  -26.6769  -14.9831   20.0760 C   0  0  0  0  0  0  0  0  0  0  0  0
  -26.6323  -33.6224   23.1503 C   0  0  1  0  0  0  0  0  0  0  0  0
  -24.1997  -31.2654   21.4297 C   0  0  1  0  0  0  0  0  0  0  0  0
  -27.4065  -13.7120   20.5405 C   0  0  2  0  0  0  0  0  0  0  0  0
  -18.3407  -26.2172   21.8657 C   0  0  0  0  0  0  0  0  0  0  0  0
  -22.7488  -29.5860   25.4837 C   0  0  0  0  0  0  0  0  0  0  0  0
  -21.0118  -27.7881   25.3469 C   0  0  0  0  0  0  0  0  0  0  0  0
  -20.3913  -30.1579   24.8758 C   0  0  0  0  0  0  0  0  0  0  0  0
  -20.3899  -27.0572   18.7720 C   0  0  0  0  0  0  0  0  0  0  0  0
  -28.9156  -24.5280   18.7013 C   0  0  0  0  0  0  0  0  0  0  0  0
  -28.7463  -26.0382   18.7692 C   0  0  0  0  0  0  0  0  0  1  0  0
  -21.7842  -28.8836   23.1941 C   0  0  1  0  0  0  0  0  0  0  0  0
  -19.2855  -27.0489   21.0123 C   0  0  2  0  0  0  0  0  0  0  0  0
  -21.5068  -29.1033   24.7081 C   0  0  0  0  0  0  0  0  0  0  0  0
  -25.8278  -11.8223   20.6744 N   0  0  0  0  0  0  0  0  0  0  0  0
  -26.7797  -12.4547   19.9674 N   0  0  0  0  0  0  0  0  0  0  0  0
  -23.5641  -30.0424   21.9241 N   0  0  0  0  0  0  0  0  0  0  0  0
  -27.3272  -16.1721   20.6489 N   0  0  0  0  0  0  0  0  0  0  0  0
  -28.0021  -12.3626   17.9406 N   0  0  0  0  0  0  0  0  0  0  0  0
  -25.3044   -8.7489   17.6955 N   0  0  0  0  0  0  0  0  0  0  0  0
  -27.6116  -21.8273   17.4370 N   0  0  0  0  0  0  0  0  0  0  0  0
  -27.8470  -17.0952   18.5417 N   0  0  0  0  0  0  0  0  0  0  0  0
  -25.7264  -32.9620   22.2351 N   0  0  0  0  0  0  0  0  0  0  0  0
  -20.6188  -28.4524   22.4296 N   0  0  0  0  0  0  0  0  0  0  0  0
  -19.4980  -26.3397   19.7189 N   0  3  0  0  0  0  0  0  0  0  0  0
  -26.9489   -9.9219   16.6099 O   0  0  0  0  0  0  0  0  0  0  0  0
  -26.4880  -24.3105   18.8856 O   0  0  0  0  0  0  0  0  0  0  0  0
  -27.7552  -21.7166   19.7978 O   0  0  0  0  0  0  0  0  0  0  0  0
  -25.2113  -31.1162   23.5579 O   0  0  0  0  0  0  0  0  0  0  0  0
  -21.5939  -31.1454   22.5052 O   0  0  0  0  0  0  0  0  0  0  0  0
  -21.5477  -26.4793   21.6413 O   0  0  0  0  0  0  0  0  0  0  0  0
  -28.4202  -18.2035   20.4974 O   0  0  0  0  0  0  0  0  0  0  0  0
  -21.5880   -7.1477   21.5243 O   0  0  0  0  0  0  0  0  0  0  0  0
  -28.1596  -26.3940   20.0205 O   0  0  0  0  0  0  0  0  0  1  0  0
  -21.7646   -5.3616   26.7380 F   0  0  0  0  0  0  0  0  0  0  0  0
  -27.5281  -21.1242   14.7420 F   0  0  0  0  0  0  0  0  0  0  0  0
  -27.7568  -16.5275   15.8138 F   0  0  0  0  0  0  0  0  0  0  0  0
  -21.8810   -4.4582   22.0931 F   0  0  0  0  0  0  0  0  0  0  0  0
  1  2  1  0  0  0  0
  1  5  2  0  0  0  0
  2  6  2  0  0  0  0
  3  8  2  0  0  0  0
  3 17  1  0  0  0  0
  4  9  1  0  0  0  0
  4 17  2  0  0  0  0
  5 19  1  0  0  0  0
  6 21  1  0  0  0  0
  7 10  2  0  0  0  0
  7 20  1  0  0  0  0
  8 25  1  0  0  0  0
  9 25  2  0  0  0  0
 10 26  1  0  0  0  0
 11 12  2  0  0  0  0
 11 27  1  0  0  0  0
 12 28  1  0  0  0  0
 13 22  1  0  0  0  0
 13 26  2  0  0  0  0
 14 23  1  0  0  0  0
 14 24  2  0  0  0  0
 15 28  2  0  0  0  0
 15 31  1  0  0  0  0
 16 29  1  0  0  0  0
 16 30  2  0  0  0  0
 17 32  1  0  0  0  0
 18 32  1  0  0  0  0
 18 33  2  0  0  0  0
 18 34  1  0  0  0  0
 19 21  2  0  0  0  0
 19 41  1  0  0  0  0
 20 22  2  0  0  0  0
 20 42  1  0  0  0  0
 21 50  1  0  0  0  0
 22 43  1  0  0  0  0
 23 29  2  0  0  0  0
 23 69  1  0  0  0  0
 24 30  1  0  0  0  0
 24 70  1  0  0  0  0
 25 81  1  0  0  0  0
 26 82  1  0  0  0  0
 27 31  2  0  0  0  0
 27 81  1  0  0  0  0
 28 83  1  0  0  0  0
 29 84  1  0  0  0  0
 30 85  1  0  0  0  0
 31 86  1  0  0  0  0
 32 63  2  0  0  0  0
 33 64  1  0  0  0  0
 33 67  1  0  0  0  0
 34 68  1  0  0  0  0
 34 74  2  0  0  0  0
 35 36  1  0  0  0  0
 35 58  1  0  0  0  0
 35 75  2  0  0  0  0
 36 69  1  0  0  0  0
 36 76  2  0  0  0  0
 37 51  1  0  0  0  0
 37 71  1  0  0  0  0
 37 77  2  0  0  0  0
 38 60  1  0  0  0  0
 38 65  1  0  0  0  0
 38 78  2  0  0  0  0
 39 61  1  0  0  0  0
 39 72  1  0  0  0  0
 39 79  2  0  0  0  0
 40 66  1  0  0  0  0
 40 70  1  0  0  0  0
 40 80  2  0  0  0  0
 41 44  1  0  0  0  0
 42 51  1  0  0  0  0
 43 65  1  0  0  0  0
 44 46  1  0  0  0  0
 45 47  1  0  0  0  0
 45 48  1  0  0  0  0
 46 50  1  0  0  0  0
 47 52  1  0  0  0  0
 48 66  1  0  0  0  0
 49 52  1  0  0  0  0
 49 66  1  0  0  0  0
 50 71  1  0  0  0  0
 51 65  1  0  0  0  0
 52 64  1  0  0  0  0
 53 61  1  0  0  0  0
 54 62  1  0  0  0  0
 55 62  1  0  0  0  0
 56 62  1  0  0  0  0
 57 73  1  0  0  0  0
 58 59  1  0  0  0  0
 59 82  1  0  0  0  0
 60 62  1  0  0  0  0
 60 72  1  0  0  0  0
 61 73  1  0  0  0  0
 63 64  1  0  0  0  0
M  CHG  1  73   1
M  ISO  4  40 100  59 101  70 100  82 101
M  END
> <Batch ID>
0178

> <Smiles>
CNC(C)C(=O)NC(C(=O)N1Cc2cc([101O:1][101CH2:1]CC(=O)C(=O)Nc3cc([100NH:0][100C:0](=O)N4CCCC(n5nc(-c6ccc(Oc7ccc(F)cc7F)cc6)c(C(N)=O)c5N)C4)c(F)cc3F)ccc2CC1C(=O)NC1CCCc2ccccc21)C(C)(C)C

> <Shape>
0.309

> <Color>
0.109

> <Negative vol penalty>
0.000

$$$$

  -OEChem-04052304443D

 85 93  0     1  0  0  0  0  0999 V2000
  -32.0821  -31.4637   14.9273 C   0  0  0  0  0  0  0  0  0  0  0  0
  -31.8099  -30.7625   16.0976 C   0  0  0  0  0  0  0  0  0  0  0  0
  -23.0826   -9.9122   21.4517 C   0  0  0  0  0  0  0  0  0  0  0  0
  -23.9068  -10.7388   23.5669 C   0  0  0  0  0  0  0  0  0  0  0  0
  -31.6891  -32.7960   14.8068 C   0  0  0  0  0  0  0  0  0  0  0  0
  -31.1453  -31.3935   17.1486 C   0  0  0  0  0  0  0  0  0  0  0  0
  -27.4933  -28.5105   19.1477 C   0  0  0  0  0  0  0  0  0  0  0  0
  -22.3702   -8.9156   22.1187 C   0  0  0  0  0  0  0  0  0  0  0  0
  -23.1944   -9.7423   24.2340 C   0  0  0  0  0  0  0  0  0  0  0  0
  -27.8883  -27.4946   20.0170 C   0  0  0  0  0  0  0  0  0  0  0  0
  -23.0193   -5.9213   23.5460 C   0  0  0  0  0  0  0  0  0  0  0  0
  -23.0809   -4.6265   23.0310 C   0  0  0  0  0  0  0  0  0  0  0  0
  -27.3080  -28.8875   21.8991 C   0  0  0  0  0  0  0  0  0  0  0  0
  -30.8822  -19.0079   22.4138 C   0  0  0  0  0  0  0  0  0  0  0  0
  -29.0065  -20.4058   20.8937 C   0  0  0  0  0  0  0  0  0  0  0  0
  -20.6845   -4.6345   22.7242 C   0  0  0  0  0  0  0  0  0  0  0  0
  -23.8510  -10.8238   22.1758 C   0  0  0  0  0  0  0  0  0  0  0  0
  -24.1368  -13.1454   21.1581 C   0  0  0  0  0  0  0  0  0  0  0  0
  -31.0107  -33.4407   15.8532 C   0  0  0  0  0  0  0  0  0  0  0  0
  -27.0121  -29.7287   19.6486 C   0  0  0  0  0  0  0  0  0  0  0  0
  -30.7439  -32.7360   17.0425 C   0  0  0  0  0  0  0  0  0  0  0  0
  -26.9051  -29.9164   21.0340 C   0  0  0  0  0  0  0  0  0  0  0  0
  -30.4687  -18.5040   21.1807 C   0  0  0  0  0  0  0  0  0  0  0  0
  -29.4199  -20.9097   22.1269 C   0  0  0  0  0  0  0  0  0  0  0  0
  -22.4261   -8.8306   23.5098 C   0  0  0  0  0  0  0  0  0  0  0  0
  -27.7984  -27.6840   21.3929 C   0  0  0  0  0  0  0  0  0  0  0  0
  -21.7902   -6.5727   23.6503 C   0  0  0  0  0  0  0  0  0  0  0  0
  -21.9135   -3.9831   22.6201 C   0  0  0  0  0  0  0  0  0  0  0  0
  -30.3577  -20.2107   22.8870 C   0  0  0  0  0  0  0  0  0  0  0  0
  -29.5309  -19.2029   20.4206 C   0  0  0  0  0  0  0  0  0  0  0  0
  -20.6228   -5.9293   23.2393 C   0  0  0  0  0  0  0  0  0  0  0  0
  -24.5876  -11.8531   21.4873 C   0  0  0  0  0  0  0  0  0  0  0  0
  -25.2024  -13.7277   20.5163 C   0  0  0  0  0  0  0  0  0  0  0  0
  -29.5404  -23.1809   22.2644 C   0  0  0  0  0  0  0  0  0  0  0  0
  -22.8682  -13.7643   21.4100 C   0  0  0  0  0  0  0  0  0  0  0  0
  -29.0364  -24.5057   22.7371 C   0  0  0  0  0  0  0  0  0  0  0  0
  -27.9589  -32.7578   19.4707 C   0  0  0  0  0  0  0  0  0  0  0  0
  -30.6919  -14.7711   20.2595 C   0  0  0  0  0  0  0  0  0  0  0  0
  -25.1547  -33.3169   21.0024 C   0  0  0  0  0  0  0  0  0  0  0  0
  -22.6639  -32.1302   23.0110 C   0  0  0  0  0  0  0  0  0  0  0  0
  -30.6476  -34.8960   15.6949 C   0  0  0  0  0  0  0  0  0  0  0  0
  -26.5650  -30.8047   18.6974 C   0  0  0  0  0  0  0  0  0  0  0  0
  -26.3762  -31.1981   21.6221 C   0  0  0  0  0  0  0  0  0  0  0  0
  -29.6159  -35.3803   16.7105 C   0  0  0  0  0  0  0  0  0  0  0  0
  -29.5049  -11.7296   18.7831 C   0  0  0  0  0  0  0  0  0  0  0  0
  -29.9861  -34.9096   18.1134 C   0  0  0  0  0  0  0  0  0  0  0  0
  -28.0943  -11.5812   19.3517 C   0  0  0  0  0  0  0  0  0  0  0  0
  -30.4546  -12.3529   19.8013 C   0  0  0  0  0  0  0  0  0  0  0  0
  -28.5768  -13.5182   20.9137 C   0  0  0  0  0  0  0  0  0  0  0  0
  -30.0031  -33.3785   18.1951 C   0  0  1  0  0  0  0  0  0  0  0  0
  -26.5732  -32.1962   19.3227 C   0  0  1  0  0  0  0  0  0  0  0  0
  -27.5783  -12.9206   19.9067 C   0  0  2  0  0  0  0  0  0  0  0  0
  -20.5257  -32.8323   24.1213 C   0  0  0  0  0  0  0  0  0  0  0  0
  -26.7514  -34.8504   23.1021 C   0  0  0  0  0  0  0  0  0  0  0  0
  -24.7668  -34.6992   24.6209 C   0  0  0  0  0  0  0  0  0  0  0  0
  -24.5856  -35.9191   22.4525 C   0  0  0  0  0  0  0  0  0  0  0  0
  -21.0950  -30.1017   21.5337 C   0  0  0  0  0  0  0  0  0  0  0  0
  -31.0311  -17.2176   20.6771 C   0  0  0  0  0  0  0  0  0  0  0  0
  -28.6708  -25.4876   21.6580 C   0  0  0  0  0  0  0  0  0  1  0  0
  -30.0704  -16.0294   20.8113 C   0  0  0  0  0  0  0  0  0  0  0  0
  -24.7224  -33.3946   22.4467 C   0  0  1  0  0  0  0  0  0  0  0  0
  -21.1523  -32.1991   22.8887 C   0  0  2  0  0  0  0  0  0  0  0  0
  -25.2184  -34.6923   23.1448 C   0  0  0  0  0  0  0  0  0  0  0  0
  -25.8418  -11.6271   21.0875 N   0  0  0  0  0  0  0  0  0  0  0  0
  -28.8909  -22.1215   22.6019 N   0  0  0  0  0  0  0  0  0  0  0  0
  -26.1882  -12.7852   20.5004 N   0  0  0  0  0  0  0  0  0  0  0  0
  -25.9576  -32.2225   20.6511 N   0  0  0  0  0  0  0  0  0  0  0  0
  -29.9183  -13.6120   20.3211 N   0  0  0  0  0  0  0  0  0  0  0  0
  -25.3830  -14.9487   19.9696 N   0  0  0  0  0  0  0  0  0  0  0  0
  -21.8853  -13.0243   22.0813 N   0  0  0  0  0  0  0  0  0  0  0  0
  -28.6539  -32.8619   18.2809 N   0  0  0  0  0  0  0  0  0  0  0  0
  -23.2726  -33.2320   22.4481 N   0  0  0  0  0  0  0  0  0  0  0  0
  -20.5833  -30.8319   22.7219 N   0  3  0  0  0  0  0  0  0  0  0  0
  -22.6082  -14.9331   21.0359 O   0  0  0  0  0  0  0  0  0  0  0  0
  -28.9442  -24.6931   23.9400 O   0  0  0  0  0  0  0  0  0  0  0  0
  -28.3669  -33.0748   20.5820 O   0  0  0  0  0  0  0  0  0  0  0  0
  -31.8300  -14.8197   19.7856 O   0  0  0  0  0  0  0  0  0  0  0  0
  -24.7874  -34.1910   20.2133 O   0  0  0  0  0  0  0  0  0  0  0  0
  -23.2462  -31.1945   23.5549 O   0  0  0  0  0  0  0  0  0  0  0  0
  -21.7308   -7.8585   24.1611 O   0  0  0  0  0  0  0  0  0  0  0  0
  -28.1838  -26.6943   22.2436 O   0  0  0  0  0  0  0  0  0  1  0  0
  -21.9730   -2.7403   22.1241 F   0  0  0  0  0  0  0  0  0  0  0  0
  -30.7611  -20.6879   24.0729 F   0  0  0  0  0  0  0  0  0  0  0  0
  -29.1274  -18.7264   19.2346 F   0  0  0  0  0  0  0  0  0  0  0  0
  -19.4394   -6.5504   23.3359 F   0  0  0  0  0  0  0  0  0  0  0  0
  1  2  1  0  0  0  0
  1  5  2  0  0  0  0
  2  6  2  0  0  0  0
  3  8  2  0  0  0  0
  3 17  1  0  0  0  0
  4  9  1  0  0  0  0
  4 17  2  0  0  0  0
  5 19  1  0  0  0  0
  6 21  1  0  0  0  0
  7 10  2  0  0  0  0
  7 20  1  0  0  0  0
  8 25  1  0  0  0  0
  9 25  2  0  0  0  0
 10 26  1  0  0  0  0
 11 12  2  0  0  0  0
 11 27  1  0  0  0  0
 12 28  1  0  0  0  0
 13 22  1  0  0  0  0
 13 26  2  0  0  0  0
 14 23  2  0  0  0  0
 14 29  1  0  0  0  0
 15 24  1  0  0  0  0
 15 30  2  0  0  0  0
 16 28  2  0  0  0  0
 16 31  1  0  0  0  0
 17 32  1  0  0  0  0
 18 32  1  0  0  0  0
 18 33  2  0  0  0  0
 18 35  1  0  0  0  0
 19 21  2  0  0  0  0
 19 41  1  0  0  0  0
 20 22  2  0  0  0  0
 20 42  1  0  0  0  0
 21 50  1  0  0  0  0
 22 43  1  0  0  0  0
 23 30  1  0  0  0  0
 23 58  1  0  0  0  0
 24 29  2  0  0  0  0
 24 65  1  0  0  0  0
 25 80  1  0  0  0  0
 26 81  1  0  0  0  0
 27 31  2  0  0  0  0
 27 80  1  0  0  0  0
 28 82  1  0  0  0  0
 29 83  1  0  0  0  0
 30 84  1  0  0  0  0
 31 85  1  0  0  0  0
 32 64  2  0  0  0  0
 33 66  1  0  0  0  0
 33 69  1  0  0  0  0
 34 36  1  0  0  0  0
 34 65  2  0  0  0  0
 35 70  1  0  0  0  0
 35 74  2  0  0  0  0
 36 59  1  0  0  0  0
 36 75  2  0  0  0  0
 37 51  1  0  0  0  0
 37 71  1  0  0  0  0
 37 76  2  0  0  0  0
 38 60  1  0  0  0  0
 38 68  1  0  0  0  0
 38 77  2  0  0  0  0
 39 61  1  0  0  0  0
 39 67  1  0  0  0  0
 39 78  2  0  0  0  0
 40 62  1  0  0  0  0
 40 72  1  0  0  0  0
 40 79  2  0  0  0  0
 41 44  1  0  0  0  0
 42 51  1  0  0  0  0
 43 67  1  0  0  0  0
 44 46  1  0  0  0  0
 45 47  1  0  0  0  0
 45 48  1  0  0  0  0
 46 50  1  0  0  0  0
 47 52  1  0  0  0  0
 48 68  1  0  0  0  0
 49 52  1  0  0  0  0
 49 68  1  0  0  0  0
 50 71  1  0  0  0  0
 51 67  1  0  0  0  0
 52 66  1  0  0  0  0
 53 62  1  0  0  0  0
 54 63  1  0  0  0  0
 55 63  1  0  0  0  0
 56 63  1  0  0  0  0
 57 73  1  0  0  0  0
 58 60  1  0  0  0  0
 59 81  1  0  0  0  0
 61 63  1  0  0  0  0
 61 72  1  0  0  0  0
 62 73  1  0  0  0  0
 64 66  1  0  0  0  0
M  CHG  1  73   1
M  ISO  4  38 100  59 101  60 100  81 101
M  END
> <Batch ID>
0178

> <Smiles>
CNC(C)C(=O)NC(C(=O)N1Cc2cc([101O:1][101CH2:1]C(=O)CNc3cc(F)c(C=[100CH:0][100C:0](=O)N4CCCC(n5nc(-c6ccc(Oc7ccc(F)cc7F)cc6)c(C(N)=O)c5N)C4)cc3F)ccc2CC1C(=O)NC1CCCc2ccccc21)C(C)(C)C

> <Shape>
0.271

> <Color>
0.171

> <Negative vol penalty>
0.000

$$$$

  -OEChem-04052304443D

 85 93  0     1  0  0  0  0  0999 V2000
  -23.7048  -34.7607   13.7716 C   0  0  0  0  0  0  0  0  0  0  0  0
  -24.3683  -33.6018   14.1616 C   0  0  0  0  0  0  0  0  0  0  0  0
  -24.2932   -8.7797   21.4286 C   0  0  0  0  0  0  0  0  0  0  0  0
  -24.8410  -10.0314   23.4212 C   0  0  0  0  0  0  0  0  0  0  0  0
  -23.6154  -35.8404   14.6493 C   0  0  0  0  0  0  0  0  0  0  0  0
  -24.9438  -33.5223   15.4292 C   0  0  0  0  0  0  0  0  0  0  0  0
  -25.3523  -28.5504   18.9815 C   0  0  0  0  0  0  0  0  0  0  0  0
  -23.9983   -7.6632   22.2110 C   0  0  0  0  0  0  0  0  0  0  0  0
  -24.5459   -8.9149   24.2036 C   0  0  0  0  0  0  0  0  0  0  0  0
  -26.3865  -27.6438   19.2109 C   0  0  0  0  0  0  0  0  0  0  0  0
  -21.4413   -6.5778   24.1389 C   0  0  0  0  0  0  0  0  0  0  0  0
  -20.2749   -5.8712   23.8464 C   0  0  0  0  0  0  0  0  0  0  0  0
  -27.8489  -20.1971   20.8504 C   0  0  0  0  0  0  0  0  0  0  0  0
  -27.0257  -28.8807   21.1809 C   0  0  0  0  0  0  0  0  0  0  0  0
  -30.0569  -18.6766   20.0786 C   0  0  0  0  0  0  0  0  0  0  0  0
  -21.5846   -3.8867   23.4178 C   0  0  0  0  0  0  0  0  0  0  0  0
  -24.7146   -9.9638   22.0337 C   0  0  0  0  0  0  0  0  0  0  0  0
  -29.1223  -20.7663   20.8512 C   0  0  0  0  0  0  0  0  0  0  0  0
  -24.1335  -12.1364   20.8297 C   0  0  0  0  0  0  0  0  0  0  0  0
  -24.1818  -35.7704   15.9318 C   0  0  0  0  0  0  0  0  0  0  0  0
  -25.1536  -29.6369   19.8455 C   0  0  0  0  0  0  0  0  0  0  0  0
  -24.8631  -34.6025   16.3244 C   0  0  0  0  0  0  0  0  0  0  0  0
  -25.9867  -29.7982   20.9617 C   0  0  0  0  0  0  0  0  0  0  0  0
  -28.7835  -18.1074   20.0779 C   0  0  0  0  0  0  0  0  0  0  0  0
  -24.1246   -7.7309   23.5985 C   0  0  0  0  0  0  0  0  0  0  0  0
  -27.2251  -27.8106   20.3091 C   0  0  0  0  0  0  0  0  0  0  0  0
  -22.6795   -5.9390   24.0708 C   0  0  0  0  0  0  0  0  0  0  0  0
  -20.3465   -4.5256   23.4859 C   0  0  0  0  0  0  0  0  0  0  0  0
  -27.6795  -18.8676   20.4638 C   0  0  0  0  0  0  0  0  0  0  0  0
  -30.2263  -20.0061   20.4653 C   0  0  0  0  0  0  0  0  0  0  0  0
  -22.7511   -4.5934   23.7103 C   0  0  0  0  0  0  0  0  0  0  0  0
  -25.0201  -11.1172   21.2260 C   0  0  0  0  0  0  0  0  0  0  0  0
  -24.9054  -12.9912   20.0815 C   0  0  0  0  0  0  0  0  0  0  0  0
  -28.6840  -23.1775   20.6067 C   0  0  0  0  0  0  0  0  0  0  0  0
  -29.2953  -22.1739   21.2615 C   0  0  0  0  0  0  0  0  0  0  0  0
  -22.7370  -12.2961   21.1127 C   0  0  0  0  0  0  0  0  0  0  0  0
  -28.8100  -24.6210   20.9719 C   0  0  0  0  0  0  0  0  0  0  0  0
  -25.2319  -32.7987   19.5280 C   0  0  0  0  0  0  0  0  0  0  0  0
  -24.1700  -32.7423   22.5926 C   0  0  0  0  0  0  0  0  0  0  0  0
  -23.9335  -31.0490   25.5461 C   0  0  0  0  0  0  0  0  0  0  0  0
  -29.6049  -15.8660   19.2731 C   0  0  0  0  0  0  0  0  0  0  0  0
  -24.1004  -36.9806   16.8283 C   0  0  0  0  0  0  0  0  0  0  0  0
  -24.0170  -30.5907   19.5992 C   0  0  0  0  0  0  0  0  0  0  0  0
  -25.8029  -30.9365   21.9306 C   0  0  0  0  0  0  0  0  0  0  0  0
  -24.4129  -36.6770   18.2913 C   0  0  0  0  0  0  0  0  0  0  0  0
  -29.5974  -12.4526   18.2602 C   0  0  0  0  0  0  0  0  0  0  0  0
  -25.6693  -35.8190   18.4019 C   0  0  0  0  0  0  0  0  0  0  0  0
  -28.3329  -11.8848   18.9089 C   0  0  0  0  0  0  0  0  0  0  0  0
  -30.2846  -13.4785   19.1597 C   0  0  0  0  0  0  0  0  0  0  0  0
  -28.1549  -13.9976   20.2841 C   0  0  0  0  0  0  0  0  0  0  0  0
  -25.4788  -34.4688   17.7003 C   0  0  1  0  0  0  0  0  0  0  0  0
  -24.2263  -31.9519   20.2556 C   0  0  1  0  0  0  0  0  0  0  0  0
  -27.3924  -13.0078   19.3882 C   0  0  2  0  0  0  0  0  0  0  0  0
  -23.0411  -31.2754   27.8806 C   0  0  0  0  0  0  0  0  0  0  0  0
  -26.4966  -34.5851   23.3006 C   0  0  0  0  0  0  0  0  0  0  0  0
  -26.1268  -34.0115   25.7095 C   0  0  0  0  0  0  0  0  0  0  0  0
  -24.3326  -35.1622   24.4135 C   0  0  0  0  0  0  0  0  0  0  0  0
  -22.1275  -28.7293   25.2050 C   0  0  0  0  0  0  0  0  0  0  0  0
  -28.0342  -25.5843   20.0976 C   0  0  0  0  0  0  0  0  0  1  0  0
  -24.8272  -32.7262   23.9516 C   0  0  1  0  0  0  0  0  0  0  0  0
  -22.7551  -30.7910   26.4677 C   0  0  2  0  0  0  0  0  0  0  0  0
  -25.4507  -34.1008   24.3247 C   0  0  0  0  0  0  0  0  0  0  0  0
  -26.2603  -11.3055   20.7673 N   0  0  0  0  0  0  0  0  0  0  0  0
  -26.1586  -12.4529   20.0751 N   0  0  0  0  0  0  0  0  0  0  0  0
  -24.6814  -31.8461   21.6433 N   0  0  0  0  0  0  0  0  0  0  0  0
  -29.3338  -14.5137   19.5710 N   0  0  0  0  0  0  0  0  0  0  0  0
  -24.6277  -14.1433   19.4350 N   0  0  0  0  0  0  0  0  0  0  0  0
  -22.0989  -11.3255   21.8969 N   0  0  0  0  0  0  0  0  0  0  0  0
  -28.6140  -16.7568   19.6843 N   0  0  0  0  0  0  0  0  0  0  0  0
  -24.6897  -33.5781   18.5240 N   0  0  0  0  0  0  0  0  0  0  0  0
  -23.8137  -32.2556   24.8895 N   0  0  0  0  0  0  0  0  0  0  0  0
  -22.4505  -29.3332   26.5233 N   0  3  0  0  0  0  0  0  0  0  0  0
  -22.0709  -13.2621   20.6691 O   0  0  0  0  0  0  0  0  0  0  0  0
  -29.4964  -25.0005   21.9161 O   0  0  0  0  0  0  0  0  0  0  0  0
  -26.4120  -32.7496   19.8543 O   0  0  0  0  0  0  0  0  0  0  0  0
  -23.2327  -33.5164   22.3832 O   0  0  0  0  0  0  0  0  0  0  0  0
  -24.8686  -30.2609   25.4240 O   0  0  0  0  0  0  0  0  0  0  0  0
  -30.6271  -16.2057   18.6717 O   0  0  0  0  0  0  0  0  0  0  0  0
  -30.1062  -22.3359   22.3651 O   0  0  0  0  0  0  0  0  0  0  0  0
  -23.8366   -6.6417   24.3623 O   0  0  0  0  0  0  0  0  0  0  0  0
  -28.2356  -26.9276   20.5349 O   0  0  0  0  0  0  0  0  0  1  0  0
  -19.2261   -3.8467   23.2065 F   0  0  0  0  0  0  0  0  0  0  0  0
  -26.4509  -18.3310   20.4666 F   0  0  0  0  0  0  0  0  0  0  0  0
  -31.4568  -20.5393   20.4606 F   0  0  0  0  0  0  0  0  0  0  0  0
  -23.9376   -3.9740   23.6443 F   0  0  0  0  0  0  0  0  0  0  0  0
  1  2  1  0  0  0  0
  1  5  2  0  0  0  0
  2  6  2  0  0  0  0
  3  8  2  0  0  0  0
  3 17  1  0  0  0  0
  4  9  1  0  0  0  0
  4 17  2  0  0  0  0
  5 20  1  0  0  0  0
  6 22  1  0  0  0  0
  7 10  2  0  0  0  0
  7 21  1  0  0  0  0
  8 25  1  0  0  0  0
  9 25  2  0  0  0  0
 10 26  1  0  0  0  0
 11 12  2  0  0  0  0
 11 27  1  0  0  0  0
 12 28  1  0  0  0  0
 13 18  1  0  0  0  0
 13 29  2  0  0  0  0
 14 23  1  0  0  0  0
 14 26  2  0  0  0  0
 15 24  2  0  0  0  0
 15 30  1  0  0  0  0
 16 28  2  0  0  0  0
 16 31  1  0  0  0  0
 17 32  1  0  0  0  0
 18 30  2  0  0  0  0
 18 35  1  0  0  0  0
 19 32  1  0  0  0  0
 19 33  2  0  0  0  0
 19 36  1  0  0  0  0
 20 22  2  0  0  0  0
 20 42  1  0  0  0  0
 21 23  2  0  0  0  0
 21 43  1  0  0  0  0
 22 51  1  0  0  0  0
 23 44  1  0  0  0  0
 24 29  1  0  0  0  0
 24 69  1  0  0  0  0
 25 80  1  0  0  0  0
 26 81  1  0  0  0  0
 27 31  2  0  0  0  0
 27 80  1  0  0  0  0
 28 82  1  0  0  0  0
 29 83  1  0  0  0  0
 30 84  1  0  0  0  0
 31 85  1  0  0  0  0
 32 63  2  0  0  0  0
 33 64  1  0  0  0  0
 33 67  1  0  0  0  0
 34 35  2  0  0  0  0
 34 37  1  0  0  0  0
 35 79  1  0  0  0  0
 36 68  1  0  0  0  0
 36 73  2  0  0  0  0
 37 59  1  0  0  0  0
 37 74  2  0  0  0  0
 38 52  1  0  0  0  0
 38 70  1  0  0  0  0
 38 75  2  0  0  0  0
 39 60  1  0  0  0  0
 39 65  1  0  0  0  0
 39 76  2  0  0  0  0
 40 61  1  0  0  0  0
 40 71  1  0  0  0  0
 40 77  2  0  0  0  0
 41 66  1  0  0  0  0
 41 69  1  0  0  0  0
 41 78  2  0  0  0  0
 42 45  1  0  0  0  0
 43 52  1  0  0  0  0
 44 65  1  0  0  0  0
 45 47  1  0  0  0  0
 46 48  1  0  0  0  0
 46 49  1  0  0  0  0
 47 51  1  0  0  0  0
 48 53  1  0  0  0  0
 49 66  1  0  0  0  0
 50 53  1  0  0  0  0
 50 66  1  0  0  0  0
 51 70  1  0  0  0  0
 52 65  1  0  0  0  0
 53 64  1  0  0  0  0
 54 61  1  0  0  0  0
 55 62  1  0  0  0  0
 56 62  1  0  0  0  0
 57 62  1  0  0  0  0
 58 72  1  0  0  0  0
 59 81  1  0  0  0  0
 60 62  1  0  0  0  0
 60 71  1  0  0  0  0
 61 72  1  0  0  0  0
 63 64  1  0  0  0  0
M  CHG  1  72   1
M  ISO  4  41 100  59 101  69 100  81 101
M  END
> <Batch ID>
0178

> <Smiles>
CNC(C)C(=O)NC(C(=O)N1Cc2cc([101O:1][101CH2:1]C(=O)CC(=O)c3cc(F)c([100NH:0][100C:0](=O)N4CCCC(n5nc(-c6ccc(Oc7ccc(F)cc7F)cc6)c(C(N)=O)c5N)C4)cc3F)ccc2CC1C(=O)NC1CCCc2ccccc21)C(C)(C)C

> <Shape>
0.301

> <Color>
0.111

> <Negative vol penalty>
0.000

$$$$

  -OEChem-04052304443D

 90 98  0     1  0  0  0  0  0999 V2000
  -29.4276  -34.1775   26.4555 C   0  0  0  0  0  0  0  0  0  0  0  0
  -29.5708  -33.1014   25.5855 C   0  0  0  0  0  0  0  0  0  0  0  0
  -24.7723   -8.0058   20.8903 C   0  0  0  0  0  0  0  0  0  0  0  0
  -23.1782   -9.7775   20.4942 C   0  0  0  0  0  0  0  0  0  0  0  0
  -28.1833  -34.4556   27.0196 C   0  0  0  0  0  0  0  0  0  0  0  0
  -28.4698  -32.3021   25.2799 C   0  0  0  0  0  0  0  0  0  0  0  0
  -27.2723  -29.5753   19.9286 C   0  0  0  0  0  0  0  0  0  0  0  0
  -23.7267   -7.1311   21.1858 C   0  0  0  0  0  0  0  0  0  0  0  0
  -22.1326   -8.9028   20.7896 C   0  0  0  0  0  0  0  0  0  0  0  0
  -27.4740  -28.2730   19.4736 C   0  0  0  0  0  0  0  0  0  0  0  0
  -21.4947   -4.5271   22.3944 C   0  0  0  0  0  0  0  0  0  0  0  0
  -21.6295   -3.7080   23.5153 C   0  0  0  0  0  0  0  0  0  0  0  0
  -25.1982  -27.7237   20.0555 C   0  0  0  0  0  0  0  0  0  0  0  0
  -21.8169   -5.6635   24.9217 C   0  0  0  0  0  0  0  0  0  0  0  0
  -30.2342  -19.2378   18.8586 C   0  0  0  0  0  0  0  0  0  0  0  0
  -24.4981   -9.3290   20.5446 C   0  0  0  0  0  0  0  0  0  0  0  0
  -26.1563  -10.4721   18.9789 C   0  0  0  0  0  0  0  0  0  0  0  0
  -27.0644  -33.6651   26.7132 C   0  0  0  0  0  0  0  0  0  0  0  0
  -26.0333  -29.9592   20.4614 C   0  0  0  0  0  0  0  0  0  0  0  0
  -27.2096  -32.5691   25.8414 C   0  0  0  0  0  0  0  0  0  0  0  0
  -24.9826  -29.0322   20.5142 C   0  0  0  0  0  0  0  0  0  0  0  0
  -22.4069   -7.5796   21.1354 C   0  0  0  0  0  0  0  0  0  0  0  0
  -26.4378  -27.3461   19.5396 C   0  0  0  0  0  0  0  0  0  0  0  0
  -21.5211   -5.9144   22.5371 C   0  0  0  0  0  0  0  0  0  0  0  0
  -21.7906   -4.2761   24.7790 C   0  0  0  0  0  0  0  0  0  0  0  0
  -21.6822   -6.4826   23.8008 C   0  0  0  0  0  0  0  0  0  0  0  0
  -25.5777  -10.2332   20.2398 C   0  0  0  0  0  0  0  0  0  0  0  0
  -29.6166  -18.9088   17.6701 C   0  0  0  0  0  0  0  0  0  0  0  0
  -27.1334  -11.4065   19.2209 C   0  0  0  0  0  0  0  0  0  0  0  0
  -29.1676  -17.4419   19.5273 C   0  0  0  0  0  0  0  0  0  0  0  0
  -25.8388   -9.9004   17.7029 C   0  0  0  0  0  0  0  0  0  0  0  0
  -25.0372  -31.0111   23.2907 C   0  0  0  0  0  0  0  0  0  0  0  0
  -27.9885  -24.3049   18.1475 C   0  0  0  0  0  0  0  0  0  0  0  0
  -22.2219  -31.3867   21.7238 C   0  0  0  0  0  0  0  0  0  0  0  0
  -30.6903  -21.9019   16.6496 C   0  0  0  0  0  0  0  0  0  0  0  0
  -20.2082  -30.4718   19.1247 C   0  0  0  0  0  0  0  0  0  0  0  0
  -28.8894  -16.1027   21.6428 C   0  0  0  0  0  0  0  0  0  0  0  0
  -25.7500  -33.9761   27.3843 C   0  0  0  0  0  0  0  0  0  0  0  0
  -25.8236  -31.3753   20.9233 C   0  0  0  0  0  0  0  0  0  0  0  0
  -23.6273  -29.3998   21.0586 C   0  0  0  0  0  0  0  0  0  0  0  0
  -24.5517  -33.3067   26.7165 C   0  0  0  0  0  0  0  0  0  0  0  0
  -29.0429  -13.1216   23.5837 C   0  0  0  0  0  0  0  0  0  0  0  0
  -24.8508  -31.8384   26.4313 C   0  0  0  0  0  0  0  0  0  0  0  0
  -28.2027  -12.1241   22.7830 C   0  0  0  0  0  0  0  0  0  0  0  0
  -28.4608  -14.5326   23.5206 C   0  0  0  0  0  0  0  0  0  0  0  0
  -27.3723  -14.0443   21.3652 C   0  0  0  0  0  0  0  0  0  0  0  0
  -26.0336  -31.6938   25.4660 C   0  0  1  0  0  0  0  0  0  0  0  0
  -24.6783  -31.5148   21.9214 C   0  0  1  0  0  0  0  0  0  0  0  0
  -27.9552  -12.6218   21.3454 C   0  0  2  0  0  0  0  0  0  0  0  0
  -17.9505  -30.9256   18.1276 C   0  0  0  0  0  0  0  0  0  0  0  0
  -33.5023  -19.5679   13.7279 C   0  0  0  0  0  0  0  0  0  0  0  0
  -31.0070  -19.4487   13.4782 C   0  0  0  0  0  0  0  0  0  0  0  0
  -32.1270  -21.6549   13.8308 C   0  0  0  0  0  0  0  0  0  0  0  0
  -20.9180  -29.7258   23.9263 C   0  0  0  0  0  0  0  0  0  0  0  0
  -18.9395  -29.4144   22.4241 C   0  0  0  0  0  0  0  0  0  0  0  0
  -19.5808  -31.7033   23.1806 C   0  0  0  0  0  0  0  0  0  0  0  0
  -21.3927  -31.4222   16.5845 C   0  0  0  0  0  0  0  0  0  0  0  0
  -29.6730  -19.5943   16.3356 C   0  0  0  0  0  0  0  0  0  0  0  0
  -29.3260  -23.8449   17.5862 C   0  0  0  0  0  0  0  0  0  0  0  0
  -27.9227  -25.7576   18.5767 C   0  0  0  0  0  0  0  0  0  1  0  0
  -29.3404  -22.3714   17.1823 C   0  0  0  0  0  0  0  0  0  0  0  0
  -32.0207  -20.0358   15.7333 C   0  0  0  0  0  0  0  0  0  0  0  0
  -21.0150  -30.5160   21.4703 C   0  0  1  0  0  0  0  0  0  0  0  0
  -19.4255  -31.2959   18.1184 C   0  0  2  0  0  0  0  0  0  0  0  0
  -32.1638  -20.1603   14.2001 C   0  0  0  0  0  0  0  0  0  0  0  0
  -20.1393  -30.3321   22.7418 C   0  0  0  0  0  0  0  0  0  0  0  0
  -29.9776  -18.3980   19.9248 N   0  0  0  0  0  0  0  0  0  0  0  0
  -26.1405  -10.9574   21.2109 N   0  0  0  0  0  0  0  0  0  0  0  0
  -27.0830  -11.6604   20.5600 N   0  0  0  0  0  0  0  0  0  0  0  0
  -23.4737  -30.7947   21.5037 N   0  0  0  0  0  0  0  0  0  0  0  0
  -28.2573  -14.9383   22.1282 N   0  0  0  0  0  0  0  0  0  0  0  0
  -28.0224  -12.0274   18.4167 N   0  0  0  0  0  0  0  0  0  0  0  0
  -24.8066   -8.9550   17.6325 N   0  0  0  0  0  0  0  0  0  0  0  0
  -28.6487  -16.3703   20.2956 N   0  0  0  0  0  0  0  0  0  0  0  0
  -25.6136  -31.9647   24.1078 N   0  0  0  0  0  0  0  0  0  0  0  0
  -20.3106  -31.1134   20.3409 N   0  0  0  0  0  0  0  0  0  0  0  0
  -30.7674  -20.5595   16.2625 N   0  0  0  0  0  0  0  0  0  0  0  0
  -19.9568  -31.0759   16.7436 N   0  3  0  0  0  0  0  0  0  0  0  0
  -26.4632  -10.2065   16.6589 O   0  0  0  0  0  0  0  0  0  0  0  0
  -24.8067  -29.8439   23.5847 O   0  0  0  0  0  0  0  0  0  0  0  0
  -27.0173  -23.5566   18.2452 O   0  0  0  0  0  0  0  0  0  0  0  0
  -22.0598  -32.5514   22.0963 O   0  0  0  0  0  0  0  0  0  0  0  0
  -31.6404  -22.6851   16.5713 O   0  0  0  0  0  0  0  0  0  0  0  0
  -20.6784  -29.3677   18.8596 O   0  0  0  0  0  0  0  0  0  0  0  0
  -29.6143  -16.7953   22.3617 O   0  0  0  0  0  0  0  0  0  0  0  0
  -21.3864   -6.7263   21.4234 O   0  0  0  0  0  0  0  0  0  0  0  0
  -26.6322  -26.0741   19.0968 O   0  0  0  0  0  0  0  0  0  1  0  0
  -21.9184   -3.4894   25.8555 F   0  0  0  0  0  0  0  0  0  0  0  0
  -21.7071   -7.8147   23.9443 F   0  0  0  0  0  0  0  0  0  0  0  0
  -28.6754  -17.4912   17.8841 S   0  0  0  0  0  0  0  0  0  0  0  0
  1  2  1  0  0  0  0
  1  5  2  0  0  0  0
  2  6  2  0  0  0  0
  3  8  2  0  0  0  0
  3 16  1  0  0  0  0
  4  9  1  0  0  0  0
  4 16  2  0  0  0  0
  5 18  1  0  0  0  0
  6 20  1  0  0  0  0
  7 10  2  0  0  0  0
  7 19  1  0  0  0  0
  8 22  1  0  0  0  0
  9 22  2  0  0  0  0
 10 23  1  0  0  0  0
 11 12  2  0  0  0  0
 11 24  1  0  0  0  0
 12 25  1  0  0  0  0
 13 21  1  0  0  0  0
 13 23  2  0  0  0  0
 14 25  2  0  0  0  0
 14 26  1  0  0  0  0
 15 28  2  0  0  0  0
 15 67  1  0  0  0  0
 16 27  1  0  0  0  0
 17 27  1  0  0  0  0
 17 29  2  0  0  0  0
 17 31  1  0  0  0  0
 18 20  2  0  0  0  0
 18 38  1  0  0  0  0
 19 21  2  0  0  0  0
 19 39  1  0  0  0  0
 20 47  1  0  0  0  0
 21 40  1  0  0  0  0
 22 86  1  0  0  0  0
 23 87  1  0  0  0  0
 24 26  2  0  0  0  0
 24 86  1  0  0  0  0
 25 88  1  0  0  0  0
 26 89  1  0  0  0  0
 27 68  2  0  0  0  0
 28 58  1  0  0  0  0
 28 90  1  0  0  0  0
 29 69  1  0  0  0  0
 29 72  1  0  0  0  0
 30 67  2  0  0  0  0
 30 74  1  0  0  0  0
 30 90  1  0  0  0  0
 31 73  1  0  0  0  0
 31 79  2  0  0  0  0
 32 48  1  0  0  0  0
 32 75  1  0  0  0  0
 32 80  2  0  0  0  0
 33 59  1  0  0  0  0
 33 60  1  0  0  0  0
 33 81  2  0  0  0  0
 34 63  1  0  0  0  0
 34 70  1  0  0  0  0
 34 82  2  0  0  0  0
 35 61  1  0  0  0  0
 35 77  1  0  0  0  0
 35 83  2  0  0  0  0
 36 64  1  0  0  0  0
 36 76  1  0  0  0  0
 36 84  2  0  0  0  0
 37 71  1  0  0  0  0
 37 74  1  0  0  0  0
 37 85  2  0  0  0  0
 38 41  1  0  0  0  0
 39 48  1  0  0  0  0
 40 70  1  0  0  0  0
 41 43  1  0  0  0  0
 42 44  1  0  0  0  0
 42 45  1  0  0  0  0
 43 47  1  0  0  0  0
 44 49  1  0  0  0  0
 45 71  1  0  0  0  0
 46 49  1  0  0  0  0
 46 71  1  0  0  0  0
 47 75  1  0  0  0  0
 48 70  1  0  0  0  0
 49 69  1  0  0  0  0
 50 64  1  0  0  0  0
 51 65  1  0  0  0  0
 52 65  1  0  0  0  0
 53 65  1  0  0  0  0
 54 66  1  0  0  0  0
 55 66  1  0  0  0  0
 56 66  1  0  0  0  0
 57 78  1  0  0  0  0
 58 77  1  0  0  0  0
 59 61  1  0  0  0  0
 60 87  1  0  0  0  0
 62 65  1  0  0  0  0
 62 77  1  0  0  0  0
 63 66  1  0  0  0  0
 63 76  1  0  0  0  0
 64 78  1  0  0  0  0
 68 69  1  0  0  0  0
M  CHG  1  78   1
M  ISO  4  37 100  60 101  74 100  87 101
M  END
> <Batch ID>
0178

> <Smiles>
CNC(C)C(=O)NC(C(=O)N1Cc2cc([101O:1][101CH2:1]C(=O)CCC(=O)N(Cc3cnc([100NH:0][100C:0](=O)N4CCCC(n5nc(-c6ccc(Oc7ccc(F)cc7F)cc6)c(C(N)=O)c5N)C4)s3)CC(C)(C)C)ccc2CC1C(=O)NC1CCCc2ccccc21)C(C)(C)C

> <Shape>
0.299

> <Color>
0.097

> <Negative vol penalty>
0.000

$$$$

  -OEChem-04052304443D

 86 94  0     1  0  0  0  0  0999 V2000
  -26.7263  -33.6903   26.6317 C   0  0  0  0  0  0  0  0  0  0  0  0
  -27.1335  -32.5333   25.9752 C   0  0  0  0  0  0  0  0  0  0  0  0
  -22.4117  -11.3041   21.0900 C   0  0  0  0  0  0  0  0  0  0  0  0
  -24.6147  -12.2911   20.9914 C   0  0  0  0  0  0  0  0  0  0  0  0
  -25.3676  -33.9526   26.8014 C   0  0  0  0  0  0  0  0  0  0  0  0
  -26.1821  -31.6373   25.4890 C   0  0  0  0  0  0  0  0  0  0  0  0
  -27.2354  -30.0394   20.8005 C   0  0  0  0  0  0  0  0  0  0  0  0
  -22.9406  -10.0821   20.6746 C   0  0  0  0  0  0  0  0  0  0  0  0
  -25.1436  -11.0691   20.5761 C   0  0  0  0  0  0  0  0  0  0  0  0
  -28.2168  -29.0581   20.6677 C   0  0  0  0  0  0  0  0  0  0  0  0
  -23.9394   -8.6566   17.7772 C   0  0  0  0  0  0  0  0  0  0  0  0
  -23.2513   -7.9568   16.7861 C   0  0  0  0  0  0  0  0  0  0  0  0
  -26.4992  -27.3775   20.4567 C   0  0  0  0  0  0  0  0  0  0  0  0
  -22.9648   -6.0953   18.2994 C   0  0  0  0  0  0  0  0  0  0  0  0
  -23.2488  -12.4087   21.2483 C   0  0  0  0  0  0  0  0  0  0  0  0
  -22.5572  -14.1294   23.0000 C   0  0  0  0  0  0  0  0  0  0  0  0
  -24.3988  -33.0642   26.3085 C   0  0  0  0  0  0  0  0  0  0  0  0
  -25.8763  -29.6951   20.7732 C   0  0  0  0  0  0  0  0  0  0  0  0
  -24.8090  -31.8874   25.6535 C   0  0  0  0  0  0  0  0  0  0  0  0
  -25.5025  -28.3566   20.5867 C   0  0  0  0  0  0  0  0  0  0  0  0
  -24.3066   -9.9646   20.4177 C   0  0  0  0  0  0  0  0  0  0  0  0
  -27.8488  -27.7265   20.4987 C   0  0  0  0  0  0  0  0  0  0  0  0
  -24.1403   -8.0758   19.0295 C   0  0  0  0  0  0  0  0  0  0  0  0
  -22.7640   -6.6762   17.0472 C   0  0  0  0  0  0  0  0  0  0  0  0
  -23.6530   -6.7952   19.2905 C   0  0  0  0  0  0  0  0  0  0  0  0
  -25.4216  -22.3877   17.8663 C   0  0  0  0  0  0  0  0  0  0  0  0
  -24.1885  -21.6770   17.9322 C   0  0  0  0  0  0  0  0  0  0  0  0
  -22.7030  -13.6714   21.6768 C   0  0  0  0  0  0  0  0  0  0  0  0
  -26.4650  -21.6644   18.4009 C   0  0  0  0  0  0  0  0  0  0  0  0
  -21.9940  -15.3756   22.8719 C   0  0  0  0  0  0  0  0  0  0  0  0
  -24.3364  -20.4372   18.5146 C   0  0  0  0  0  0  0  0  0  0  0  0
  -22.9002  -13.4860   24.2345 C   0  0  0  0  0  0  0  0  0  0  0  0
  -27.8960  -22.0444   18.5229 C   0  0  0  0  0  0  0  0  0  0  0  0
  -23.4644  -29.9170   22.8317 C   0  0  0  0  0  0  0  0  0  0  0  0
  -29.7208  -25.0373   18.9451 C   0  0  0  0  0  0  0  0  0  0  0  0
  -21.7226  -28.8677   20.3043 C   0  0  0  0  0  0  0  0  0  0  0  0
  -21.6487  -27.1906   17.3331 C   0  0  0  0  0  0  0  0  0  0  0  0
  -22.0240  -19.4379   18.4899 C   0  0  0  0  0  0  0  0  0  0  0  0
  -22.9425  -33.3670   26.5576 C   0  0  0  0  0  0  0  0  0  0  0  0
  -24.8297  -30.7690   20.8911 C   0  0  0  0  0  0  0  0  0  0  0  0
  -24.0570  -27.9375   20.5302 C   0  0  0  0  0  0  0  0  0  0  0  0
  -21.9928  -32.5526   25.6829 C   0  0  0  0  0  0  0  0  0  0  0  0
  -19.1617  -17.9250   19.9715 C   0  0  0  0  0  0  0  0  0  0  0  0
  -22.4011  -31.0829   25.6764 C   0  0  0  0  0  0  0  0  0  0  0  0
  -19.7325  -16.7076   20.7024 C   0  0  0  0  0  0  0  0  0  0  0  0
  -19.8846  -18.1840   18.6509 C   0  0  0  0  0  0  0  0  0  0  0  0
  -21.9169  -17.0680   19.4836 C   0  0  0  0  0  0  0  0  0  0  0  0
  -23.8067  -30.9035   25.0901 C   0  0  1  0  0  0  0  0  0  0  0  0
  -23.4799  -30.2384   21.3640 C   0  0  1  0  0  0  0  0  0  0  0  0
  -21.2635  -16.8059   20.8504 C   0  0  2  0  0  0  0  0  0  0  0  0
  -30.0722  -24.0880   16.6456 C   0  0  0  0  0  0  0  0  0  0  0  0
  -20.0736  -26.4646   15.5194 C   0  0  0  0  0  0  0  0  0  0  0  0
  -20.6650  -26.6503   22.1139 C   0  0  0  0  0  0  0  0  0  0  0  0
  -19.8849  -25.4444   20.0631 C   0  0  0  0  0  0  0  0  0  0  0  0
  -18.9469  -27.6874   20.6215 C   0  0  0  0  0  0  0  0  0  0  0  0
  -23.0998  -28.7588   15.2851 C   0  0  0  0  0  0  0  0  0  0  0  0
  -28.4740  -25.6222   19.5837 C   0  0  0  0  0  0  0  0  0  1  0  0
  -29.5871  -23.7994   18.0581 C   0  0  2  0  0  0  0  0  0  0  0  0
  -21.3214  -27.5137   19.7709 C   0  0  1  0  0  0  0  0  0  0  0  0
  -21.0340  -27.5453   15.9912 C   0  0  2  0  0  0  0  0  0  0  0  0
  -20.2319  -26.8312   20.6453 C   0  0  0  0  0  0  0  0  0  0  0  0
  -22.2674  -14.5547   20.7745 N   0  0  0  0  0  0  0  0  0  0  0  0
  -21.8423  -15.5802   21.5320 N   0  0  0  0  0  0  0  0  0  0  0  0
  -23.0708  -29.0234   20.6565 N   0  0  0  0  0  0  0  0  0  0  0  0
  -21.3302  -18.2694   18.8694 N   0  0  0  0  0  0  0  0  0  0  0  0
  -21.6187  -16.3054   23.7758 N   0  0  0  0  0  0  0  0  0  0  0  0
  -23.4703  -12.2066   24.1852 N   0  0  0  0  0  0  0  0  0  0  0  0
  -23.3886  -19.4170   18.7764 N   0  0  0  0  0  0  0  0  0  0  0  0
  -28.2384  -23.2988   18.0337 N   0  0  0  0  0  0  0  0  0  0  0  0
  -23.7671  -30.9915   23.6461 N   0  0  0  0  0  0  0  0  0  0  0  0
  -20.9283  -27.7224   18.3815 N   0  0  0  0  0  0  0  0  0  0  0  0
  -22.0983  -27.7104   14.9612 N   0  3  0  0  0  0  0  0  0  0  0  0
  -22.6917  -14.0227   25.3489 O   0  0  0  0  0  0  0  0  0  0  0  0
  -28.6886  -21.2468   19.0169 O   0  0  0  0  0  0  0  0  0  0  0  0
  -23.1963  -28.7788   23.1982 O   0  0  0  0  0  0  0  0  0  0  0  0
  -30.8338  -25.5178   19.1765 O   0  0  0  0  0  0  0  0  0  0  0  0
  -20.8727  -29.7568   20.3982 O   0  0  0  0  0  0  0  0  0  0  0  0
  -22.6643  -26.5067   17.4406 O   0  0  0  0  0  0  0  0  0  0  0  0
  -21.4451  -20.3980   17.9751 O   0  0  0  0  0  0  0  0  0  0  0  0
  -24.8230   -8.7722   20.0126 O   0  0  0  0  0  0  0  0  0  0  0  0
  -28.8047  -26.7666   20.3695 O   0  0  0  0  0  0  0  0  0  1  0  0
  -22.1018   -6.0049   16.0959 F   0  0  0  0  0  0  0  0  0  0  0  0
  -23.8419   -6.2325   20.4920 F   0  0  0  0  0  0  0  0  0  0  0  0
  -25.5447  -23.6107   17.3465 F   0  0  0  0  0  0  0  0  0  0  0  0
  -23.0291  -22.1601   17.4812 F   0  0  0  0  0  0  0  0  0  0  0  0
  -25.9566  -20.1348   18.9790 S   0  0  0  0  0  0  0  0  0  0  0  0
  1  2  1  0  0  0  0
  1  5  2  0  0  0  0
  2  6  2  0  0  0  0
  3  8  2  0  0  0  0
  3 15  1  0  0  0  0
  4  9  1  0  0  0  0
  4 15  2  0  0  0  0
  5 17  1  0  0  0  0
  6 19  1  0  0  0  0
  7 10  2  0  0  0  0
  7 18  1  0  0  0  0
  8 21  1  0  0  0  0
  9 21  2  0  0  0  0
 10 22  1  0  0  0  0
 11 12  2  0  0  0  0
 11 23  1  0  0  0  0
 12 24  1  0  0  0  0
 13 20  1  0  0  0  0
 13 22  2  0  0  0  0
 14 24  2  0  0  0  0
 14 25  1  0  0  0  0
 15 28  1  0  0  0  0
 16 28  1  0  0  0  0
 16 30  2  0  0  0  0
 16 32  1  0  0  0  0
 17 19  2  0  0  0  0
 17 39  1  0  0  0  0
 18 20  2  0  0  0  0
 18 40  1  0  0  0  0
 19 48  1  0  0  0  0
 20 41  1  0  0  0  0
 21 80  1  0  0  0  0
 22 81  1  0  0  0  0
 23 25  2  0  0  0  0
 23 80  1  0  0  0  0
 24 82  1  0  0  0  0
 25 83  1  0  0  0  0
 26 27  1  0  0  0  0
 26 29  2  0  0  0  0
 26 84  1  0  0  0  0
 27 31  2  0  0  0  0
 27 85  1  0  0  0  0
 28 62  2  0  0  0  0
 29 33  1  0  0  0  0
 29 86  1  0  0  0  0
 30 63  1  0  0  0  0
 30 66  1  0  0  0  0
 31 68  1  0  0  0  0
 31 86  1  0  0  0  0
 32 67  1  0  0  0  0
 32 73  2  0  0  0  0
 33 69  1  0  0  0  0
 33 74  2  0  0  0  0
 34 49  1  0  0  0  0
 34 70  1  0  0  0  0
 34 75  2  0  0  0  0
 35 57  1  0  0  0  0
 35 58  1  0  0  0  0
 35 76  2  0  0  0  0
 36 59  1  0  0  0  0
 36 64  1  0  0  0  0
 36 77  2  0  0  0  0
 37 60  1  0  0  0  0
 37 71  1  0  0  0  0
 37 78  2  0  0  0  0
 38 65  1  0  0  0  0
 38 68  1  0  0  0  0
 38 79  2  0  0  0  0
 39 42  1  0  0  0  0
 40 49  1  0  0  0  0
 41 64  1  0  0  0  0
 42 44  1  0  0  0  0
 43 45  1  0  0  0  0
 43 46  1  0  0  0  0
 44 48  1  0  0  0  0
 45 50  1  0  0  0  0
 46 65  1  0  0  0  0
 47 50  1  0  0  0  0
 47 65  1  0  0  0  0
 48 70  1  0  0  0  0
 49 64  1  0  0  0  0
 50 63  1  0  0  0  0
 51 58  1  0  0  0  0
 52 60  1  0  0  0  0
 53 61  1  0  0  0  0
 54 61  1  0  0  0  0
 55 61  1  0  0  0  0
 56 72  1  0  0  0  0
 57 81  1  0  0  0  0
 58 69  1  0  0  0  0
 59 61  1  0  0  0  0
 59 71  1  0  0  0  0
 60 72  1  0  0  0  0
 62 63  1  0  0  0  0
M  CHG  1  72   1
M  ISO  4  38 100  57 101  68 100  81 101
M  END
> <Batch ID>
0178

> <Smiles>
CNC(C)C(=O)NC(C(=O)N1Cc2cc([101O:1][101CH2:1]C(=O)C(C)NC(=O)c3sc([100NH:0][100C:0](=O)N4CCCC(n5nc(-c6ccc(Oc7ccc(F)cc7F)cc6)c(C(N)=O)c5N)C4)c(F)c3F)ccc2CC1C(=O)NC1CCCc2ccccc21)C(C)(C)C

> <Shape>
0.208

> <Color>
0.087

> <Negative vol penalty>
0.000

$$$$

  -OEChem-04052304443D

 87 95  0     1  0  0  0  0  0999 V2000
  -27.5478  -34.9231   23.0660 C   0  0  0  0  0  0  0  0  0  0  0  0
  -27.8036  -33.5730   22.8487 C   0  0  0  0  0  0  0  0  0  0  0  0
  -24.1281   -9.4344   22.6643 C   0  0  0  0  0  0  0  0  0  0  0  0
  -23.7998  -10.1171   20.3701 C   0  0  0  0  0  0  0  0  0  0  0  0
  -26.3155  -35.3239   23.5806 C   0  0  0  0  0  0  0  0  0  0  0  0
  -26.8276  -32.6228   23.1469 C   0  0  0  0  0  0  0  0  0  0  0  0
  -26.3212  -29.1473   19.4988 C   0  0  0  0  0  0  0  0  0  0  0  0
  -23.1273   -8.4734   22.5215 C   0  0  0  0  0  0  0  0  0  0  0  0
  -22.7991   -9.1560   20.2273 C   0  0  0  0  0  0  0  0  0  0  0  0
  -27.2793  -28.1358   19.4455 C   0  0  0  0  0  0  0  0  0  0  0  0
  -22.8110   -5.3873   21.1766 C   0  0  0  0  0  0  0  0  0  0  0  0
  -23.0620   -4.1104   21.6789 C   0  0  0  0  0  0  0  0  0  0  0  0
  -25.7554  -26.6413   20.5694 C   0  0  0  0  0  0  0  0  0  0  0  0
  -28.7358  -19.4873   19.3932 C   0  0  0  0  0  0  0  0  0  0  0  0
  -30.3523  -19.5801   17.6002 C   0  0  0  0  0  0  0  0  0  0  0  0
  -21.1604   -4.3171   23.1548 C   0  0  0  0  0  0  0  0  0  0  0  0
  -24.4643  -10.2563   21.5886 C   0  0  0  0  0  0  0  0  0  0  0  0
  -26.8743  -11.0871   21.4901 C   0  0  0  0  0  0  0  0  0  0  0  0
  -25.3204  -34.3790   23.8762 C   0  0  0  0  0  0  0  0  0  0  0  0
  -25.0749  -28.9162   20.0985 C   0  0  0  0  0  0  0  0  0  0  0  0
  -25.5813  -33.0113   23.6672 C   0  0  0  0  0  0  0  0  0  0  0  0
  -24.7822  -27.6507   20.6267 C   0  0  0  0  0  0  0  0  0  0  0  0
  -29.4094  -20.2126   18.4105 C   0  0  0  0  0  0  0  0  0  0  0  0
  -29.0053  -18.1296   19.5659 C   0  0  0  0  0  0  0  0  0  0  0  0
  -22.4628   -8.3341   21.3031 C   0  0  0  0  0  0  0  0  0  0  0  0
  -26.9975  -26.8835   19.9834 C   0  0  0  0  0  0  0  0  0  0  0  0
  -21.7347   -6.1291   21.6635 C   0  0  0  0  0  0  0  0  0  0  0  0
  -22.2367   -3.5753   22.6679 C   0  0  0  0  0  0  0  0  0  0  0  0
  -30.6218  -18.2224   17.7728 C   0  0  0  0  0  0  0  0  0  0  0  0
  -20.9094   -5.5940   22.6525 C   0  0  0  0  0  0  0  0  0  0  0  0
  -29.9482  -17.4972   18.7556 C   0  0  0  0  0  0  0  0  0  0  0  0
  -25.4977  -11.2497   21.7356 C   0  0  0  0  0  0  0  0  0  0  0  0
  -27.4213  -12.3140   21.7760 C   0  0  0  0  0  0  0  0  0  0  0  0
  -27.5941   -9.9304   21.0433 C   0  0  0  0  0  0  0  0  0  0  0  0
  -29.1703  -23.8449   17.4167 C   0  0  0  0  0  0  0  0  0  0  0  0
  -29.3231  -24.5165   18.5754 C   0  0  0  0  0  0  0  0  0  0  0  0
  -29.7074  -22.4491   17.3075 C   0  0  0  0  0  0  0  0  0  0  0  0
  -23.5219  -30.1397   22.5874 C   0  0  0  0  0  0  0  0  0  0  0  0
  -21.1111  -28.2527   21.5151 C   0  0  0  0  0  0  0  0  0  0  0  0
  -20.1586  -25.4983   19.7396 C   0  0  0  0  0  0  0  0  0  0  0  0
  -27.3543  -17.8722   21.4512 C   0  0  0  0  0  0  0  0  0  0  0  0
  -24.0211  -34.8562   24.4751 C   0  0  0  0  0  0  0  0  0  0  0  0
  -24.0423  -30.0096   20.1241 C   0  0  0  0  0  0  0  0  0  0  0  0
  -23.4518  -27.3454   21.2634 C   0  0  0  0  0  0  0  0  0  0  0  0
  -22.9040  -33.8177   24.4129 C   0  0  0  0  0  0  0  0  0  0  0  0
  -25.4065  -16.3748   24.0282 C   0  0  0  0  0  0  0  0  0  0  0  0
  -23.4156  -32.4552   24.8698 C   0  0  0  0  0  0  0  0  0  0  0  0
  -25.3698  -14.8946   23.6413 C   0  0  0  0  0  0  0  0  0  0  0  0
  -25.3529  -17.2832   22.8012 C   0  0  0  0  0  0  0  0  0  0  0  0
  -26.3238  -15.5165   21.3852 C   0  0  0  0  0  0  0  0  0  0  0  0
  -24.5389  -31.9526   23.9549 C   0  0  1  0  0  0  0  0  0  0  0  0
  -22.9958  -29.8177   21.2173 C   0  0  1  0  0  0  0  0  0  0  0  0
  -26.4412  -14.5616   22.5844 C   0  0  2  0  0  0  0  0  0  0  0  0
  -28.5212  -24.3571   16.1669 C   0  0  0  0  0  0  0  0  0  0  0  0
  -18.1228  -24.1908   19.0738 C   0  0  0  0  0  0  0  0  0  0  0  0
  -20.9556  -27.0698   24.3233 C   0  0  0  0  0  0  0  0  0  0  0  0
  -19.6223  -25.1744   23.3756 C   0  0  0  0  0  0  0  0  0  0  0  0
  -18.7389  -27.5039   23.2499 C   0  0  0  0  0  0  0  0  0  0  0  0
  -20.6568  -25.9667   16.8601 C   0  0  0  0  0  0  0  0  0  0  0  0
  -28.8403  -25.9150   18.8337 C   0  0  0  0  0  0  0  0  0  1  0  0
  -20.6734  -26.8303   21.7681 C   0  0  1  0  0  0  0  0  0  0  0  0
  -19.0853  -25.3018   18.6841 C   0  0  2  0  0  0  0  0  0  0  0  0
  -20.0234  -26.6506   23.1691 C   0  0  0  0  0  0  0  0  0  0  0  0
  -25.1892  -12.4827   22.1462 N   0  0  0  0  0  0  0  0  0  0  0  0
  -26.3798  -13.1060   22.1608 N   0  0  0  0  0  0  0  0  0  0  0  0
  -22.4775  -28.4492   21.2697 N   0  0  0  0  0  0  0  0  0  0  0  0
  -26.3990  -16.9118   21.8459 N   0  0  0  0  0  0  0  0  0  0  0  0
  -28.6869  -12.7819   21.7334 N   0  0  0  0  0  0  0  0  0  0  0  0
  -26.8774   -8.7517   20.7959 N   0  0  0  0  0  0  0  0  0  0  0  0
  -29.1364  -21.5901   18.2347 N   0  0  0  0  0  0  0  0  0  0  0  0
  -28.3192  -17.3951   20.5647 N   0  0  0  0  0  0  0  0  0  0  0  0
  -23.9908  -31.4327   22.7205 N   0  0  0  0  0  0  0  0  0  0  0  0
  -19.8037  -26.4666   20.6547 N   0  0  0  0  0  0  0  0  0  0  0  0
  -19.7045  -24.9494   17.3751 N   0  3  0  0  0  0  0  0  0  0  0  0
  -28.8384   -9.9371   20.8845 O   0  0  0  0  0  0  0  0  0  0  0  0
  -30.5227  -22.1898   16.4291 O   0  0  0  0  0  0  0  0  0  0  0  0
  -23.5024  -29.2793   23.4598 O   0  0  0  0  0  0  0  0  0  0  0  0
  -20.2705  -29.1554   21.5273 O   0  0  0  0  0  0  0  0  0  0  0  0
  -21.2053  -24.8544   19.7531 O   0  0  0  0  0  0  0  0  0  0  0  0
  -27.3351  -19.0251   21.8900 O   0  0  0  0  0  0  0  0  0  0  0  0
  -30.0173  -23.9487   19.6340 O   0  0  0  0  0  0  0  0  0  0  0  0
  -21.4863   -7.3963   21.1633 O   0  0  0  0  0  0  0  0  0  0  0  0
  -27.9312  -25.8947   19.9333 O   0  0  0  0  0  0  0  0  0  1  0  0
  -22.4770   -2.3485   23.1490 F   0  0  0  0  0  0  0  0  0  0  0  0
  -31.5275  -17.6153   16.9951 F   0  0  0  0  0  0  0  0  0  0  0  0
  -19.8732   -6.3014   23.1234 F   0  0  0  0  0  0  0  0  0  0  0  0
  -30.2155  -16.1930   18.9128 F   0  0  0  0  0  0  0  0  0  0  0  0
  1  2  1  0  0  0  0
  1  5  2  0  0  0  0
  2  6  2  0  0  0  0
  3  8  2  0  0  0  0
  3 17  1  0  0  0  0
  4  9  1  0  0  0  0
  4 17  2  0  0  0  0
  5 19  1  0  0  0  0
  6 21  1  0  0  0  0
  7 10  2  0  0  0  0
  7 20  1  0  0  0  0
  8 25  1  0  0  0  0
  9 25  2  0  0  0  0
 10 26  1  0  0  0  0
 11 12  2  0  0  0  0
 11 27  1  0  0  0  0
 12 28  1  0  0  0  0
 13 22  1  0  0  0  0
 13 26  2  0  0  0  0
 14 23  2  0  0  0  0
 14 24  1  0  0  0  0
 15 23  1  0  0  0  0
 15 29  2  0  0  0  0
 16 28  2  0  0  0  0
 16 30  1  0  0  0  0
 17 32  1  0  0  0  0
 18 32  1  0  0  0  0
 18 33  2  0  0  0  0
 18 34  1  0  0  0  0
 19 21  2  0  0  0  0
 19 42  1  0  0  0  0
 20 22  2  0  0  0  0
 20 43  1  0  0  0  0
 21 51  1  0  0  0  0
 22 44  1  0  0  0  0
 23 70  1  0  0  0  0
 24 31  2  0  0  0  0
 24 71  1  0  0  0  0
 25 82  1  0  0  0  0
 26 83  1  0  0  0  0
 27 30  2  0  0  0  0
 27 82  1  0  0  0  0
 28 84  1  0  0  0  0
 29 31  1  0  0  0  0
 29 85  1  0  0  0  0
 30 86  1  0  0  0  0
 31 87  1  0  0  0  0
 32 64  2  0  0  0  0
 33 65  1  0  0  0  0
 33 68  1  0  0  0  0
 34 69  1  0  0  0  0
 34 75  2  0  0  0  0
 35 36  2  0  0  0  0
 35 37  1  0  0  0  0
 35 54  1  0  0  0  0
 36 60  1  0  0  0  0
 36 81  1  0  0  0  0
 37 70  1  0  0  0  0
 37 76  2  0  0  0  0
 38 52  1  0  0  0  0
 38 72  1  0  0  0  0
 38 77  2  0  0  0  0
 39 61  1  0  0  0  0
 39 66  1  0  0  0  0
 39 78  2  0  0  0  0
 40 62  1  0  0  0  0
 40 73  1  0  0  0  0
 40 79  2  0  0  0  0
 41 67  1  0  0  0  0
 41 71  1  0  0  0  0
 41 80  2  0  0  0  0
 42 45  1  0  0  0  0
 43 52  1  0  0  0  0
 44 66  1  0  0  0  0
 45 47  1  0  0  0  0
 46 48  1  0  0  0  0
 46 49  1  0  0  0  0
 47 51  1  0  0  0  0
 48 53  1  0  0  0  0
 49 67  1  0  0  0  0
 50 53  1  0  0  0  0
 50 67  1  0  0  0  0
 51 72  1  0  0  0  0
 52 66  1  0  0  0  0
 53 65  1  0  0  0  0
 55 62  1  0  0  0  0
 56 63  1  0  0  0  0
 57 63  1  0  0  0  0
 58 63  1  0  0  0  0
 59 74  1  0  0  0  0
 60 83  1  0  0  0  0
 61 63  1  0  0  0  0
 61 73  1  0  0  0  0
 62 74  1  0  0  0  0
 64 65  1  0  0  0  0
M  CHG  1  74   1
M  ISO  4  41 100  60 101  71 100  83 101
M  END
> <Batch ID>
0178

> <Smiles>
CNC(C)C(=O)NC(C(=O)N1Cc2cc([101O:1][101CH2:1]C(=O)C(C)C(=O)Nc3cc(F)c(F)c([100NH:0][100C:0](=O)N4CCCC(n5nc(-c6ccc(Oc7ccc(F)cc7F)cc6)c(C(N)=O)c5N)C4)c3)ccc2CC1C(=O)NC1CCCc2ccccc21)C(C)(C)C

> <Shape>
0.315

> <Color>
0.071

> <Negative vol penalty>
0.000

$$$$

  -OEChem-04052304443D

 85 93  0     1  0  0  0  0  0999 V2000
  -23.7409  -26.2811   31.7530 C   0  0  0  0  0  0  0  0  0  0  0  0
  -24.2705  -26.3758   30.4701 C   0  0  0  0  0  0  0  0  0  0  0  0
  -23.1012   -9.8689   21.4544 C   0  0  0  0  0  0  0  0  0  0  0  0
  -23.8800  -10.7451   23.5670 C   0  0  0  0  0  0  0  0  0  0  0  0
  -23.2662  -25.0566   32.2213 C   0  0  0  0  0  0  0  0  0  0  0  0
  -24.3268  -25.2458   29.6550 C   0  0  0  0  0  0  0  0  0  0  0  0
  -23.6355  -25.0553   23.5730 C   0  0  0  0  0  0  0  0  0  0  0  0
  -22.3791   -8.8844   22.1289 C   0  0  0  0  0  0  0  0  0  0  0  0
  -23.1579   -9.7606   24.2415 C   0  0  0  0  0  0  0  0  0  0  0  0
  -24.5544  -25.0089   22.5255 C   0  0  0  0  0  0  0  0  0  0  0  0
  -23.0100   -5.9248   23.6346 C   0  0  0  0  0  0  0  0  0  0  0  0
  -23.0864   -4.6193   23.1496 C   0  0  0  0  0  0  0  0  0  0  0  0
  -24.3307  -22.6084   22.4437 C   0  0  0  0  0  0  0  0  0  0  0  0
  -20.6966   -4.6111   22.7951 C   0  0  0  0  0  0  0  0  0  0  0  0
  -31.6982  -17.7791   20.0930 C   0  0  0  0  0  0  0  0  0  0  0  0
  -23.8518  -10.7992   22.1735 C   0  0  0  0  0  0  0  0  0  0  0  0
  -24.1498  -13.0991   21.1107 C   0  0  0  0  0  0  0  0  0  0  0  0
  -23.3078  -23.9131   31.4080 C   0  0  0  0  0  0  0  0  0  0  0  0
  -23.0646  -23.8757   24.0718 C   0  0  0  0  0  0  0  0  0  0  0  0
  -23.8535  -24.0046   30.1133 C   0  0  0  0  0  0  0  0  0  0  0  0
  -23.4029  -22.6428   23.4959 C   0  0  0  0  0  0  0  0  0  0  0  0
  -22.4074   -8.8303   23.5225 C   0  0  0  0  0  0  0  0  0  0  0  0
  -24.9044  -23.7851   21.9626 C   0  0  0  0  0  0  0  0  0  0  0  0
  -21.7768   -6.5735   23.6999 C   0  0  0  0  0  0  0  0  0  0  0  0
  -21.9297   -3.9624   22.7298 C   0  0  0  0  0  0  0  0  0  0  0  0
  -20.6201   -5.9166   23.2801 C   0  0  0  0  0  0  0  0  0  0  0  0
  -31.6199  -19.1776   20.2963 C   0  0  0  0  0  0  0  0  0  0  0  0
  -24.5984  -11.8160   21.4772 C   0  0  0  0  0  0  0  0  0  0  0  0
  -25.2260  -13.6712   20.4776 C   0  0  0  0  0  0  0  0  0  0  0  0
  -30.5062  -17.2604   20.5425 C   0  0  0  0  0  0  0  0  0  0  0  0
  -30.3855  -19.4138   20.8553 C   0  0  0  0  0  0  0  0  0  0  0  0
  -22.8743  -13.7183   21.3236 C   0  0  0  0  0  0  0  0  0  0  0  0
  -28.1722  -22.1657   22.1550 C   0  0  0  0  0  0  0  0  0  0  0  0
  -28.5061  -20.7371   21.8347 C   0  0  0  0  0  0  0  0  0  0  0  0
  -23.0817  -22.3889   26.8812 C   0  0  0  0  0  0  0  0  0  0  0  0
  -20.9438  -20.4347   25.4208 C   0  0  0  0  0  0  0  0  0  0  0  0
  -19.7012  -19.1614   22.5085 C   0  0  0  0  0  0  0  0  0  0  0  0
  -30.6750  -14.7746   20.1706 C   0  0  0  0  0  0  0  0  0  0  0  0
  -22.8262  -22.6011   31.9751 C   0  0  0  0  0  0  0  0  0  0  0  0
  -22.0547  -23.9451   25.1843 C   0  0  0  0  0  0  0  0  0  0  0  0
  -22.8031  -21.3494   23.9815 C   0  0  0  0  0  0  0  0  0  0  0  0
  -22.5780  -21.5331   30.9130 C   0  0  0  0  0  0  0  0  0  0  0  0
  -29.5818  -11.6350   18.8958 C   0  0  0  0  0  0  0  0  0  0  0  0
  -23.7446  -21.4746   29.9319 C   0  0  0  0  0  0  0  0  0  0  0  0
  -28.1509  -11.5078   19.4236 C   0  0  0  0  0  0  0  0  0  0  0  0
  -30.5029  -12.3092   19.9110 C   0  0  0  0  0  0  0  0  0  0  0  0
  -28.5956  -13.4748   20.9467 C   0  0  0  0  0  0  0  0  0  0  0  0
  -23.9090  -22.8067   29.1903 C   0  0  1  0  0  0  0  0  0  0  0  0
  -21.9242  -22.6353   25.9554 C   0  0  1  0  0  0  0  0  0  0  0  0
  -27.6161  -12.8603   19.9336 C   0  0  2  0  0  0  0  0  0  0  0  0
  -17.9805  -17.5567   21.6359 C   0  0  0  0  0  0  0  0  0  0  0  0
  -27.3719  -25.4122   20.2541 C   0  0  0  0  0  0  0  0  0  0  0  0
  -22.7231  -18.0913   26.2285 C   0  0  0  0  0  0  0  0  0  0  0  0
  -21.5015  -16.6792   24.5606 C   0  0  0  0  0  0  0  0  0  0  0  0
  -20.2705  -17.6766   26.4874 C   0  0  0  0  0  0  0  0  0  0  0  0
  -18.2904  -21.2995   21.0262 C   0  0  0  0  0  0  0  0  0  0  0  0
  -28.1221  -23.1232   20.9837 C   0  0  0  0  0  0  0  0  0  0  0  0
  -21.0374  -19.1720   24.5987 C   0  0  1  0  0  0  0  0  0  0  0  0
  -18.2779  -19.0016   22.0052 C   0  0  2  0  0  0  0  0  0  0  0  0
  -27.1088  -24.2473   21.1992 C   0  0  2  0  0  0  0  0  0  1  0  0
  -21.3961  -17.9288   25.4607 C   0  0  0  0  0  0  0  0  0  0  0  0
  -25.8611  -11.5862   21.1076 N   0  0  0  0  0  0  0  0  0  0  0  0
  -26.2152  -12.7326   20.5021 N   0  0  0  0  0  0  0  0  0  0  0  0
  -21.8253  -21.4689   25.0756 N   0  0  0  0  0  0  0  0  0  0  0  0
  -29.9340  -13.5867   20.3458 N   0  0  0  0  0  0  0  0  0  0  0  0
  -25.4132  -14.8807   19.9078 N   0  0  0  0  0  0  0  0  0  0  0  0
  -21.8807  -12.9894   21.9913 N   0  0  0  0  0  0  0  0  0  0  0  0
  -29.7589  -20.6105   21.2745 N   0  0  0  0  0  0  0  0  0  0  0  0
  -30.0189  -15.9308   20.5916 N   0  0  0  0  0  0  0  0  0  0  0  0
  -22.9176  -22.9278   28.1430 N   0  0  0  0  0  0  0  0  0  0  0  0
  -19.7721  -19.0571   23.8816 N   0  0  0  0  0  0  0  0  0  0  0  0
  -18.0563  -19.8499   20.8002 N   0  3  0  0  0  0  0  0  0  0  0  0
  -22.6177  -14.8776   20.9187 O   0  0  0  0  0  0  0  0  0  0  0  0
  -27.9610  -22.4416   23.3262 O   0  0  0  0  0  0  0  0  0  0  0  0
  -27.6659  -19.9018   22.1251 O   0  0  0  0  0  0  0  0  0  0  0  0
  -24.0513  -21.7554   26.4809 O   0  0  0  0  0  0  0  0  0  0  0  0
  -20.1140  -20.5036   26.3310 O   0  0  0  0  0  0  0  0  0  0  0  0
  -20.6551  -19.3554   21.7583 O   0  0  0  0  0  0  0  0  0  0  0  0
  -31.7971  -14.7697   19.6580 O   0  0  0  0  0  0  0  0  0  0  0  0
  -29.7004  -18.2503   21.0086 O   0  0  0  0  0  0  0  0  0  0  0  0
  -21.7027   -7.8699   24.1810 O   0  0  0  0  0  0  0  0  0  0  0  0
  -25.8015  -23.7369   20.9405 O   0  0  0  0  0  0  0  0  0  1  0  0
  -22.0035   -2.7092   22.2626 F   0  0  0  0  0  0  0  0  0  0  0  0
  -19.4328   -6.5351   23.3394 F   0  0  0  0  0  0  0  0  0  0  0  0
  -32.5534  -20.0789   20.0054 F   0  0  0  0  0  0  0  0  0  0  0  0
  1  2  1  0  0  0  0
  1  5  2  0  0  0  0
  2  6  2  0  0  0  0
  3  8  2  0  0  0  0
  3 16  1  0  0  0  0
  4  9  1  0  0  0  0
  4 16  2  0  0  0  0
  5 18  1  0  0  0  0
  6 20  1  0  0  0  0
  7 10  2  0  0  0  0
  7 19  1  0  0  0  0
  8 22  1  0  0  0  0
  9 22  2  0  0  0  0
 10 23  1  0  0  0  0
 11 12  2  0  0  0  0
 11 24  1  0  0  0  0
 12 25  1  0  0  0  0
 13 21  1  0  0  0  0
 13 23  2  0  0  0  0
 14 25  2  0  0  0  0
 14 26  1  0  0  0  0
 15 27  1  0  0  0  0
 15 30  2  0  0  0  0
 16 28  1  0  0  0  0
 17 28  1  0  0  0  0
 17 29  2  0  0  0  0
 17 32  1  0  0  0  0
 18 20  2  0  0  0  0
 18 39  1  0  0  0  0
 19 21  2  0  0  0  0
 19 40  1  0  0  0  0
 20 48  1  0  0  0  0
 21 41  1  0  0  0  0
 22 81  1  0  0  0  0
 23 82  1  0  0  0  0
 24 26  2  0  0  0  0
 24 81  1  0  0  0  0
 25 83  1  0  0  0  0
 26 84  1  0  0  0  0
 27 31  2  0  0  0  0
 27 85  1  0  0  0  0
 28 62  2  0  0  0  0
 29 63  1  0  0  0  0
 29 66  1  0  0  0  0
 30 69  1  0  0  0  0
 30 80  1  0  0  0  0
 31 68  1  0  0  0  0
 31 80  1  0  0  0  0
 32 67  1  0  0  0  0
 32 73  2  0  0  0  0
 33 34  1  0  0  0  0
 33 57  1  0  0  0  0
 33 74  2  0  0  0  0
 34 68  1  0  0  0  0
 34 75  2  0  0  0  0
 35 49  1  0  0  0  0
 35 70  1  0  0  0  0
 35 76  2  0  0  0  0
 36 58  1  0  0  0  0
 36 64  1  0  0  0  0
 36 77  2  0  0  0  0
 37 59  1  0  0  0  0
 37 71  1  0  0  0  0
 37 78  2  0  0  0  0
 38 65  1  0  0  0  0
 38 69  1  0  0  0  0
 38 79  2  0  0  0  0
 39 42  1  0  0  0  0
 40 49  1  0  0  0  0
 41 64  1  0  0  0  0
 42 44  1  0  0  0  0
 43 45  1  0  0  0  0
 43 46  1  0  0  0  0
 44 48  1  0  0  0  0
 45 50  1  0  0  0  0
 46 65  1  0  0  0  0
 47 50  1  0  0  0  0
 47 65  1  0  0  0  0
 48 70  1  0  0  0  0
 49 64  1  0  0  0  0
 50 63  1  0  0  0  0
 51 59  1  0  0  0  0
 52 60  1  0  0  0  0
 53 61  1  0  0  0  0
 54 61  1  0  0  0  0
 55 61  1  0  0  0  0
 56 72  1  0  0  0  0
 57 60  1  0  0  0  0
 58 61  1  0  0  0  0
 58 71  1  0  0  0  0
 59 72  1  0  0  0  0
 60 82  1  0  0  0  0
 62 63  1  0  0  0  0
M  CHG  1  72   1
M  ISO  4  38 100  60 101  69 100  82 101
M  END
> <Batch ID>
0178

> <Smiles>
CNC(C)C(=O)NC(C(=O)N1Cc2cc([101O:1][101CH:1](C)CC(=O)C(=O)Nc3oc([100NH:0][100C:0](=O)N4CCCC(n5nc(-c6ccc(Oc7ccc(F)cc7F)cc6)c(C(N)=O)c5N)C4)cc3F)ccc2CC1C(=O)NC1CCCc2ccccc21)C(C)(C)C

> <Shape>
0.173

> <Color>
0.150

> <Negative vol penalty>
0.000

$$$$

  -OEChem-04052304443D

 84 92  0     1  0  0  0  0  0999 V2000
  -19.9658  -24.9976   24.0520 C   0  0  0  0  0  0  0  0  0  0  0  0
  -20.0220  -23.6611   23.6700 C   0  0  0  0  0  0  0  0  0  0  0  0
  -29.5538  -23.4308   21.1744 C   0  0  0  0  0  0  0  0  0  0  0  0
  -27.5528  -23.0963   19.8625 C   0  0  0  0  0  0  0  0  0  0  0  0
  -20.0684  -26.0013   23.0897 C   0  0  0  0  0  0  0  0  0  0  0  0
  -20.1796  -23.3274   22.3253 C   0  0  0  0  0  0  0  0  0  0  0  0
  -23.6058  -19.6656   21.6208 C   0  0  0  0  0  0  0  0  0  0  0  0
  -29.4942  -24.8002   20.9163 C   0  0  0  0  0  0  0  0  0  0  0  0
  -27.4932  -24.4658   19.6043 C   0  0  0  0  0  0  0  0  0  0  0  0
  -23.2048  -18.3579   21.8908 C   0  0  0  0  0  0  0  0  0  0  0  0
  -26.6101  -27.9211   18.8980 C   0  0  0  0  0  0  0  0  0  0  0  0
  -25.3713  -28.5510   19.0177 C   0  0  0  0  0  0  0  0  0  0  0  0
  -22.8630  -17.9822   19.5326 C   0  0  0  0  0  0  0  0  0  0  0  0
  -25.2623  -27.8953   21.3405 C   0  0  0  0  0  0  0  0  0  0  0  0
  -27.5197  -12.0725   19.0276 C   0  0  0  0  0  0  0  0  0  0  0  0
  -28.5832  -22.5788   20.6475 C   0  0  0  0  0  0  0  0  0  0  0  0
  -28.0539  -20.4748   21.9894 C   0  0  0  0  0  0  0  0  0  0  0  0
  -20.2370  -25.6799   21.7336 C   0  0  0  0  0  0  0  0  0  0  0  0
  -23.6281  -20.1456   20.3035 C   0  0  0  0  0  0  0  0  0  0  0  0
  -20.2831  -24.3278   21.3438 C   0  0  0  0  0  0  0  0  0  0  0  0
  -23.2672  -19.2956   19.2483 C   0  0  0  0  0  0  0  0  0  0  0  0
  -28.4639  -25.3177   20.1313 C   0  0  0  0  0  0  0  0  0  0  0  0
  -22.8306  -17.5169   20.8469 C   0  0  0  0  0  0  0  0  0  0  0  0
  -27.1749  -27.2783   19.9996 C   0  0  0  0  0  0  0  0  0  0  0  0
  -24.6974  -28.5382   20.2389 C   0  0  0  0  0  0  0  0  0  0  0  0
  -26.5011  -27.2654   21.2208 C   0  0  0  0  0  0  0  0  0  0  0  0
  -28.6445  -21.1640   20.9133 C   0  0  0  0  0  0  0  0  0  0  0  0
  -26.5096  -11.2607   19.5663 C   0  0  0  0  0  0  0  0  0  0  0  0
  -27.2090  -13.3380   19.4602 C   0  0  0  0  0  0  0  0  0  0  0  0
  -28.4035  -19.1617   21.7895 C   0  0  0  0  0  0  0  0  0  0  0  0
  -27.2602  -20.9767   23.0729 C   0  0  0  0  0  0  0  0  0  0  0  0
  -22.1265  -22.4682   18.7367 C   0  0  0  0  0  0  0  0  0  0  0  0
  -25.3784  -14.2571   20.8623 C   0  0  0  0  0  0  0  0  0  0  0  0
  -24.1381  -21.6191   16.3378 C   0  0  0  0  0  0  0  0  0  0  0  0
  -26.1059  -19.2182   14.9201 C   0  0  0  0  0  0  0  0  0  0  0  0
  -29.0447  -14.7445   18.4608 C   0  0  0  0  0  0  0  0  0  0  0  0
  -20.2957  -26.7990   20.7242 C   0  0  0  0  0  0  0  0  0  0  0  0
  -24.0887  -21.5504   20.0265 C   0  0  0  0  0  0  0  0  0  0  0  0
  -23.2931  -19.7562   17.8146 C   0  0  0  0  0  0  0  0  0  0  0  0
  -20.8370  -26.3650   19.3645 C   0  0  0  0  0  0  0  0  0  0  0  0
  -31.7220  -17.0887   18.5782 C   0  0  0  0  0  0  0  0  0  0  0  0
  -20.1759  -25.0653   18.9168 C   0  0  0  0  0  0  0  0  0  0  0  0
  -31.1114  -18.3012   19.2847 C   0  0  0  0  0  0  0  0  0  0  0  0
  -30.7142  -16.4011   17.6588 C   0  0  0  0  0  0  0  0  0  0  0  0
  -28.8307  -17.2501   19.0009 C   0  0  0  0  0  0  0  0  0  0  0  0
  -20.4781  -23.9261   19.8979 C   0  0  1  0  0  0  0  0  0  0  0  0
  -23.5811  -22.0940   18.6945 C   0  0  1  0  0  0  0  0  0  0  0  0
  -29.7889  -17.9371   19.9876 C   0  0  2  0  0  0  0  0  0  0  0  0
  -27.7575  -18.2030   13.3266 C   0  0  0  0  0  0  0  0  0  0  0  0
  -21.6816  -21.3174   14.5533 C   0  0  0  0  0  0  0  0  0  0  0  0
  -23.0964  -20.0234   12.9432 C   0  0  0  0  0  0  0  0  0  0  0  0
  -23.6456  -22.4034   13.4498 C   0  0  0  0  0  0  0  0  0  0  0  0
  -21.6352  -13.4675   21.4827 C   0  0  0  0  0  0  0  0  0  0  0  0
  -28.4020  -20.0234   16.6049 C   0  0  0  0  0  0  0  0  0  0  0  0
  -24.1510  -13.8450   21.6189 C   0  0  0  0  0  0  0  0  0  0  0  0
  -22.6940  -15.2633   20.0995 C   0  0  0  0  0  0  0  0  0  1  0  0
  -24.0855  -20.6307   15.1979 C   0  0  1  0  0  0  0  0  0  0  0  0
  -27.5282  -19.2642   14.3915 C   0  0  2  0  0  0  0  0  0  0  0  0
  -23.1248  -21.0854   14.0631 C   0  0  0  0  0  0  0  0  0  0  0  0
  -22.9004  -13.8837   20.7337 C   0  0  2  0  0  0  0  0  0  0  0  0
  -29.3184  -20.3556   20.0908 N   0  0  0  0  0  0  0  0  0  0  0  0
  -25.6217  -11.9488   20.2861 N   0  0  0  0  0  0  0  0  0  0  0  0
  -26.0630  -13.2275   20.2156 N   0  0  0  0  0  0  0  0  0  0  0  0
  -29.1534  -19.1449   20.6504 N   0  0  0  0  0  0  0  0  0  0  0  0
  -23.7448  -21.1402   17.5955 N   0  0  0  0  0  0  0  0  0  0  0  0
  -29.4884  -16.0821   18.3940 N   0  0  0  0  0  0  0  0  0  0  0  0
  -28.1397  -18.0313   22.4788 N   0  0  0  0  0  0  0  0  0  0  0  0
  -26.9961  -22.3521   23.1264 N   0  0  0  0  0  0  0  0  0  0  0  0
  -27.8862  -14.5582   19.2144 N   0  0  0  0  0  0  0  0  0  0  0  0
  -21.8182  -23.4212   19.6887 N   0  0  0  0  0  0  0  0  0  0  0  0
  -25.4651  -20.4296   14.7681 N   0  0  0  0  0  0  0  0  0  0  0  0
  -28.4998  -19.0368   15.4985 N   0  3  0  0  0  0  0  0  0  0  0  0
  -26.8126  -20.2300   23.9760 O   0  0  0  0  0  0  0  0  0  0  0  0
  -21.3422  -21.9331   17.9620 O   0  0  0  0  0  0  0  0  0  0  0  0
  -25.8043  -15.3997   20.7764 O   0  0  0  0  0  0  0  0  0  0  0  0
  -24.5210  -22.7716   16.1217 O   0  0  0  0  0  0  0  0  0  0  0  0
  -25.6115  -18.2075   15.4147 O   0  0  0  0  0  0  0  0  0  0  0  0
  -29.6630  -13.8276   17.9140 O   0  0  0  0  0  0  0  0  0  0  0  0
  -28.4052  -26.6540   19.8794 O   0  0  0  0  0  0  0  0  0  0  0  0
  -22.4381  -16.2402   21.1077 O   0  0  0  0  0  0  0  0  0  1  0  0
  -23.5086  -29.1444   20.3540 F   0  0  0  0  0  0  0  0  0  0  0  0
  -27.0392  -26.6505   22.2829 F   0  0  0  0  0  0  0  0  0  0  0  0
  -26.4391   -9.9406   19.3820 F   0  0  0  0  0  0  0  0  0  0  0  0
  -23.0814  -12.9930   19.7111 F   0  0  0  0  0  0  0  0  0  0  0  0
  1  2  1  0  0  0  0
  1  5  2  0  0  0  0
  2  6  2  0  0  0  0
  3  8  2  0  0  0  0
  3 16  1  0  0  0  0
  4  9  1  0  0  0  0
  4 16  2  0  0  0  0
  5 18  1  0  0  0  0
  6 20  1  0  0  0  0
  7 10  2  0  0  0  0
  7 19  1  0  0  0  0
  8 22  1  0  0  0  0
  9 22  2  0  0  0  0
 10 23  1  0  0  0  0
 11 12  2  0  0  0  0
 11 24  1  0  0  0  0
 12 25  1  0  0  0  0
 13 21  1  0  0  0  0
 13 23  2  0  0  0  0
 14 25  2  0  0  0  0
 14 26  1  0  0  0  0
 15 28  1  0  0  0  0
 15 29  2  0  0  0  0
 16 27  1  0  0  0  0
 17 27  1  0  0  0  0
 17 30  2  0  0  0  0
 17 31  1  0  0  0  0
 18 20  2  0  0  0  0
 18 37  1  0  0  0  0
 19 21  2  0  0  0  0
 19 38  1  0  0  0  0
 20 46  1  0  0  0  0
 21 39  1  0  0  0  0
 22 79  1  0  0  0  0
 23 80  1  0  0  0  0
 24 26  2  0  0  0  0
 24 79  1  0  0  0  0
 25 81  1  0  0  0  0
 26 82  1  0  0  0  0
 27 61  2  0  0  0  0
 28 62  2  0  0  0  0
 28 83  1  0  0  0  0
 29 63  1  0  0  0  0
 29 69  1  0  0  0  0
 30 64  1  0  0  0  0
 30 67  1  0  0  0  0
 31 68  1  0  0  0  0
 31 73  2  0  0  0  0
 32 47  1  0  0  0  0
 32 70  1  0  0  0  0
 32 74  2  0  0  0  0
 33 55  1  0  0  0  0
 33 63  1  0  0  0  0
 33 75  2  0  0  0  0
 34 57  1  0  0  0  0
 34 65  1  0  0  0  0
 34 76  2  0  0  0  0
 35 58  1  0  0  0  0
 35 71  1  0  0  0  0
 35 77  2  0  0  0  0
 36 66  1  0  0  0  0
 36 69  1  0  0  0  0
 36 78  2  0  0  0  0
 37 40  1  0  0  0  0
 38 47  1  0  0  0  0
 39 65  1  0  0  0  0
 40 42  1  0  0  0  0
 41 43  1  0  0  0  0
 41 44  1  0  0  0  0
 42 46  1  0  0  0  0
 43 48  1  0  0  0  0
 44 66  1  0  0  0  0
 45 48  1  0  0  0  0
 45 66  1  0  0  0  0
 46 70  1  0  0  0  0
 47 65  1  0  0  0  0
 48 64  1  0  0  0  0
 49 58  1  0  0  0  0
 50 59  1  0  0  0  0
 51 59  1  0  0  0  0
 52 59  1  0  0  0  0
 53 60  1  0  0  0  0
 54 72  1  0  0  0  0
 55 60  1  0  0  0  0
 56 60  1  0  0  0  0
 56 80  1  0  0  0  0
 57 59  1  0  0  0  0
 57 71  1  0  0  0  0
 58 72  1  0  0  0  0
 60 84  1  0  0  0  0
 61 64  1  0  0  0  0
 62 63  1  0  0  0  0
M  CHG  1  72   1
M  ISO  4  36 100  56 101  69 100  80 101
M  END
> <Batch ID>
0178

> <Smiles>
CNC(C)C(=O)NC(C(=O)N1Cc2cc([101O:1][101CH2:1]C(C)(F)CC(=O)n3nc(F)cc3[100NH:0][100C:0](=O)N3CCCC(n4nc(-c5ccc(Oc6ccc(F)cc6F)cc5)c(C(N)=O)c4N)C3)ccc2CC1C(=O)NC1CCCc2ccccc21)C(C)(C)C

> <Shape>
0.181

> <Color>
0.086

> <Negative vol penalty>
0.000

$$$$

  -OEChem-04052304443D

 85 93  0     1  0  0  0  0  0999 V2000
  -21.2886  -18.6113   19.8161 C   0  0  0  0  0  0  0  0  0  0  0  0
  -22.4957  -19.1014   20.3041 C   0  0  0  0  0  0  0  0  0  0  0  0
  -24.6403   -9.6221   21.7114 C   0  0  0  0  0  0  0  0  0  0  0  0
  -24.7242  -10.9096   23.7541 C   0  0  0  0  0  0  0  0  0  0  0  0
  -20.4281  -19.4542   19.1140 C   0  0  0  0  0  0  0  0  0  0  0  0
  -22.8434  -20.4346   20.0894 C   0  0  0  0  0  0  0  0  0  0  0  0
  -25.9739  -24.0803   23.8861 C   0  0  0  0  0  0  0  0  0  0  0  0
  -24.3200   -8.4796   22.4447 C   0  0  0  0  0  0  0  0  0  0  0  0
  -24.4038   -9.7671   24.4874 C   0  0  0  0  0  0  0  0  0  0  0  0
  -27.3157  -24.4562   23.9318 C   0  0  0  0  0  0  0  0  0  0  0  0
  -23.1258   -5.3016   23.7443 C   0  0  0  0  0  0  0  0  0  0  0  0
  -22.0983   -4.4897   23.2640 C   0  0  0  0  0  0  0  0  0  0  0  0
  -26.7849  -26.4752   22.7229 C   0  0  0  0  0  0  0  0  0  0  0  0
  -20.5544   -6.3396   23.4400 C   0  0  0  0  0  0  0  0  0  0  0  0
  -24.8425  -10.8371   22.3662 C   0  0  0  0  0  0  0  0  0  0  0  0
  -24.2781  -12.9526   21.0570 C   0  0  0  0  0  0  0  0  0  0  0  0
  -20.7611  -20.8008   18.8988 C   0  0  0  0  0  0  0  0  0  0  0  0
  -25.0278  -24.8951   23.2478 C   0  0  0  0  0  0  0  0  0  0  0  0
  -21.9872  -21.2960   19.3825 C   0  0  0  0  0  0  0  0  0  0  0  0
  -25.4313  -26.1086   22.6727 C   0  0  0  0  0  0  0  0  0  0  0  0
  -24.2018   -8.5521   23.8326 C   0  0  0  0  0  0  0  0  0  0  0  0
  -27.7218  -25.6524   23.3476 C   0  0  0  0  0  0  0  0  0  0  0  0
  -22.8676   -6.6325   24.0725 C   0  0  0  0  0  0  0  0  0  0  0  0
  -20.8126   -5.0087   23.1119 C   0  0  0  0  0  0  0  0  0  0  0  0
  -21.5819   -7.1515   23.9203 C   0  0  0  0  0  0  0  0  0  0  0  0
  -25.1739  -12.0176   21.6093 C   0  0  0  0  0  0  0  0  0  0  0  0
  -28.7126  -21.4723   19.9495 C   0  0  0  0  0  0  0  0  0  0  0  0
  -25.0845  -13.8784   20.4413 C   0  0  0  0  0  0  0  0  0  0  0  0
  -27.4000  -21.5906   20.3558 C   0  0  0  0  0  0  0  0  0  0  0  0
  -28.3272  -19.3688   20.4358 C   0  0  0  0  0  0  0  0  0  0  0  0
  -22.8452  -12.9817   21.0969 C   0  0  0  0  0  0  0  0  0  0  0  0
  -23.0804  -24.5456   20.7600 C   0  0  0  0  0  0  0  0  0  0  0  0
  -21.9792  -27.4450   21.7108 C   0  0  0  0  0  0  0  0  0  0  0  0
  -30.5973  -24.6065   20.5258 C   0  0  0  0  0  0  0  0  0  0  0  0
  -22.5708  -30.3658   23.3737 C   0  0  0  0  0  0  0  0  0  0  0  0
  -29.5699  -17.1776   20.4111 C   0  0  0  0  0  0  0  0  0  0  0  0
  -19.8204  -21.6615   18.0933 C   0  0  0  0  0  0  0  0  0  0  0  0
  -23.5798  -24.4883   23.2305 C   0  0  0  0  0  0  0  0  0  0  0  0
  -24.4515  -27.0287   21.9931 C   0  0  0  0  0  0  0  0  0  0  0  0
  -20.0927  -23.1570   18.2328 C   0  0  0  0  0  0  0  0  0  0  0  0
  -30.0472  -13.7829   19.4492 C   0  0  0  0  0  0  0  0  0  0  0  0
  -21.5841  -23.4437   18.0900 C   0  0  0  0  0  0  0  0  0  0  0  0
  -28.7482  -13.0979   19.8800 C   0  0  0  0  0  0  0  0  0  0  0  0
  -30.4746  -14.8633   20.4410 C   0  0  0  0  0  0  0  0  0  0  0  0
  -28.1463  -15.1788   21.1817 C   0  0  0  0  0  0  0  0  0  0  0  0
  -22.3885  -22.7425   19.1913 C   0  0  1  0  0  0  0  0  0  0  0  0
  -22.7875  -25.1470   22.1055 C   0  0  1  0  0  0  0  0  0  0  0  0
  -27.6411  -14.1273   20.1803 C   0  0  2  0  0  0  0  0  0  0  0  0
  -30.6392  -22.1241   18.4476 C   0  0  0  0  0  0  0  0  0  0  0  0
  -21.4950  -32.5596   23.9459 C   0  0  0  0  0  0  0  0  0  0  0  0
  -22.4705  -28.4257   18.8635 C   0  0  0  0  0  0  0  0  0  0  0  0
  -22.2981  -30.7732   19.7168 C   0  0  0  0  0  0  0  0  0  0  0  0
  -20.3408  -29.2368   19.8934 C   0  0  0  0  0  0  0  0  0  0  0  0
  -22.7408  -29.8238   26.2783 C   0  0  0  0  0  0  0  0  0  0  0  0
  -31.2583  -25.0586   21.8157 C   0  0  0  0  0  0  0  0  0  0  0  0
  -31.0007  -26.5304   22.1181 C   0  0  0  0  0  0  0  0  0  0  0  0
  -29.5178  -26.8145   22.3084 C   0  0  0  0  0  0  0  0  0  1  0  0
  -29.6046  -22.5959   19.4673 C   0  0  2  0  0  0  0  0  0  0  0  0
  -22.3377  -28.8785   21.4019 C   0  0  1  0  0  0  0  0  0  0  0  0
  -21.7461  -31.1284   24.3948 C   0  0  2  0  0  0  0  0  0  0  0  0
  -21.8808  -29.3105   19.9799 C   0  0  0  0  0  0  0  0  0  0  0  0
  -26.4516  -12.3215   21.3659 N   0  0  0  0  0  0  0  0  0  0  0  0
  -29.2461  -20.1991   19.9951 N   0  0  0  0  0  0  0  0  0  0  0  0
  -26.3645  -13.4579   20.6538 N   0  0  0  0  0  0  0  0  0  0  0  0
  -23.0481  -26.5839   21.9968 N   0  0  0  0  0  0  0  0  0  0  0  0
  -29.3770  -15.8047   20.6735 N   0  0  0  0  0  0  0  0  0  0  0  0
  -24.8166  -15.0031   19.7443 N   0  0  0  0  0  0  0  0  0  0  0  0
  -26.6397  -22.7111   20.4111 N   0  0  0  0  0  0  0  0  0  0  0  0
  -22.1746  -11.9528   21.7721 N   0  0  0  0  0  0  0  0  0  0  0  0
  -28.4461  -17.9714   20.6382 N   0  0  0  0  0  0  0  0  0  0  0  0
  -22.2771  -23.4682   20.4385 N   0  0  0  0  0  0  0  0  0  0  0  0
  -30.2490  -23.2646   20.5727 N   0  0  0  0  0  0  0  0  0  0  0  0
  -21.7731  -29.6820   22.4808 N   0  0  0  0  0  0  0  0  0  0  0  0
  -22.4509  -31.1644   25.7074 N   0  3  0  0  0  0  0  0  0  0  0  0
  -22.1787  -13.8843   20.5361 O   0  0  0  0  0  0  0  0  0  0  0  0
  -23.9683  -25.0246   20.0645 O   0  0  0  0  0  0  0  0  0  0  0  0
  -20.7939  -27.1034   21.7056 O   0  0  0  0  0  0  0  0  0  0  0  0
  -30.4030  -25.3524   19.5697 O   0  0  0  0  0  0  0  0  0  0  0  0
  -23.7998  -30.3786   23.3665 O   0  0  0  0  0  0  0  0  0  0  0  0
  -30.6440  -17.6128   19.9883 O   0  0  0  0  0  0  0  0  0  0  0  0
  -23.8890   -7.4374   24.5484 O   0  0  0  0  0  0  0  0  0  0  0  0
  -29.0310  -26.0214   23.3902 O   0  0  0  0  0  0  0  0  0  1  0  0
  -19.8263   -4.2294   22.6492 F   0  0  0  0  0  0  0  0  0  0  0  0
  -21.3280   -8.4297   24.2329 F   0  0  0  0  0  0  0  0  0  0  0  0
  -26.7986  -20.0511   20.8139 S   0  0  0  0  0  0  0  0  0  0  0  0
  1  2  1  0  0  0  0
  1  5  2  0  0  0  0
  2  6  2  0  0  0  0
  3  8  2  0  0  0  0
  3 15  1  0  0  0  0
  4  9  1  0  0  0  0
  4 15  2  0  0  0  0
  5 17  1  0  0  0  0
  6 19  1  0  0  0  0
  7 10  2  0  0  0  0
  7 18  1  0  0  0  0
  8 21  1  0  0  0  0
  9 21  2  0  0  0  0
 10 22  1  0  0  0  0
 11 12  2  0  0  0  0
 11 23  1  0  0  0  0
 12 24  1  0  0  0  0
 13 20  1  0  0  0  0
 13 22  2  0  0  0  0
 14 24  2  0  0  0  0
 14 25  1  0  0  0  0
 15 26  1  0  0  0  0
 16 26  1  0  0  0  0
 16 28  2  0  0  0  0
 16 31  1  0  0  0  0
 17 19  2  0  0  0  0
 17 37  1  0  0  0  0
 18 20  2  0  0  0  0
 18 38  1  0  0  0  0
 19 46  1  0  0  0  0
 20 39  1  0  0  0  0
 21 81  1  0  0  0  0
 22 82  1  0  0  0  0
 23 25  2  0  0  0  0
 23 81  1  0  0  0  0
 24 83  1  0  0  0  0
 25 84  1  0  0  0  0
 26 62  2  0  0  0  0
 27 29  2  0  0  0  0
 27 58  1  0  0  0  0
 27 63  1  0  0  0  0
 28 64  1  0  0  0  0
 28 67  1  0  0  0  0
 29 68  1  0  0  0  0
 29 85  1  0  0  0  0
 30 63  2  0  0  0  0
 30 70  1  0  0  0  0
 30 85  1  0  0  0  0
 31 69  1  0  0  0  0
 31 75  2  0  0  0  0
 32 47  1  0  0  0  0
 32 71  1  0  0  0  0
 32 76  2  0  0  0  0
 33 59  1  0  0  0  0
 33 65  1  0  0  0  0
 33 77  2  0  0  0  0
 34 55  1  0  0  0  0
 34 72  1  0  0  0  0
 34 78  2  0  0  0  0
 35 60  1  0  0  0  0
 35 73  1  0  0  0  0
 35 79  2  0  0  0  0
 36 66  1  0  0  0  0
 36 70  1  0  0  0  0
 36 80  2  0  0  0  0
 37 40  1  0  0  0  0
 38 47  1  0  0  0  0
 39 65  1  0  0  0  0
 40 42  1  0  0  0  0
 41 43  1  0  0  0  0
 41 44  1  0  0  0  0
 42 46  1  0  0  0  0
 43 48  1  0  0  0  0
 44 66  1  0  0  0  0
 45 48  1  0  0  0  0
 45 66  1  0  0  0  0
 46 71  1  0  0  0  0
 47 65  1  0  0  0  0
 48 64  1  0  0  0  0
 49 58  1  0  0  0  0
 50 60  1  0  0  0  0
 51 61  1  0  0  0  0
 52 61  1  0  0  0  0
 53 61  1  0  0  0  0
 54 74  1  0  0  0  0
 55 56  1  0  0  0  0
 56 57  1  0  0  0  0
 57 82  1  0  0  0  0
 58 72  1  0  0  0  0
 59 61  1  0  0  0  0
 59 73  1  0  0  0  0
 60 74  1  0  0  0  0
 62 64  1  0  0  0  0
M  CHG  1  74   1
M  ISO  4  36 100  57 101  70 100  82 101
M  END
> <Batch ID>
0178

> <Smiles>
CNC(C)C(=O)NC(C(=O)N1Cc2cc([101O:1][101CH2:1]CCC(=O)NC(C)c3nc([100NH:0][100C:0](=O)N4CCCC(n5nc(-c6ccc(Oc7ccc(F)cc7F)cc6)c(C(N)=O)c5N)C4)sc3N)ccc2CC1C(=O)NC1CCCc2ccccc21)C(C)(C)C

> <Shape>
0.235

> <Color>
0.140

> <Negative vol penalty>
0.000

$$$$

  -OEChem-04052304443D

 88 96  0     1  0  0  0  0  0999 V2000
  -25.3417  -31.1011   19.7385 C   0  0  0  0  0  0  0  0  0  0  0  0
  -25.1699  -29.8126   20.2341 C   0  0  0  0  0  0  0  0  0  0  0  0
  -22.7271  -11.5785   18.8300 C   0  0  0  0  0  0  0  0  0  0  0  0
  -23.0110   -9.8612   20.5055 C   0  0  0  0  0  0  0  0  0  0  0  0
  -24.6308  -32.1623   20.2973 C   0  0  0  0  0  0  0  0  0  0  0  0
  -24.2878  -29.5847   21.2898 C   0  0  0  0  0  0  0  0  0  0  0  0
  -21.3552  -25.5268   20.5296 C   0  0  0  0  0  0  0  0  0  0  0  0
  -21.6925  -10.8432   18.2516 C   0  0  0  0  0  0  0  0  0  0  0  0
  -21.9763   -9.1259   19.9272 C   0  0  0  0  0  0  0  0  0  0  0  0
  -21.9299  -24.2758   20.7493 C   0  0  0  0  0  0  0  0  0  0  0  0
  -19.1691   -6.9661   19.1068 C   0  0  0  0  0  0  0  0  0  0  0  0
  -18.2143   -6.4089   19.9574 C   0  0  0  0  0  0  0  0  0  0  0  0
  -20.8705  -24.1760   22.9143 C   0  0  0  0  0  0  0  0  0  0  0  0
  -28.7919  -20.2787   21.9514 C   0  0  0  0  0  0  0  0  0  0  0  0
  -17.6402   -8.6149   20.7581 C   0  0  0  0  0  0  0  0  0  0  0  0
  -23.3864  -11.0874   19.9569 C   0  0  0  0  0  0  0  0  0  0  0  0
  -24.3459  -12.8168   21.5681 C   0  0  0  0  0  0  0  0  0  0  0  0
  -23.7323  -31.9458   21.3540 C   0  0  0  0  0  0  0  0  0  0  0  0
  -20.5413  -26.1177   21.5068 C   0  0  0  0  0  0  0  0  0  0  0  0
  -23.5652  -30.6443   21.8642 C   0  0  0  0  0  0  0  0  0  0  0  0
  -20.2846  -25.4335   22.7035 C   0  0  0  0  0  0  0  0  0  0  0  0
  -29.9595  -19.5169   21.6572 C   0  0  0  0  0  0  0  0  0  0  0  0
  -21.3170   -9.6170   18.8002 C   0  0  0  0  0  0  0  0  0  0  0  0
  -21.6899  -23.6014   21.9429 C   0  0  0  0  0  0  0  0  0  0  0  0
  -19.3595   -8.3477   19.0819 C   0  0  0  0  0  0  0  0  0  0  0  0
  -17.4499   -7.2333   20.7830 C   0  0  0  0  0  0  0  0  0  0  0  0
  -18.5951   -9.1721   19.9075 C   0  0  0  0  0  0  0  0  0  0  0  0
  -24.4557  -11.8462   20.5544 C   0  0  0  0  0  0  0  0  0  0  0  0
  -29.6523  -18.2489   21.2151 C   0  0  0  0  0  0  0  0  0  0  0  0
  -25.6359  -13.2374   21.7819 C   0  0  0  0  0  0  0  0  0  0  0  0
  -27.6366  -19.5638   21.7227 C   0  0  0  0  0  0  0  0  0  0  0  0
  -23.6136  -22.2868   22.1485 C   0  0  0  0  0  0  0  0  0  1  0  0
  -23.1821  -13.2954   22.2552 C   0  0  0  0  0  0  0  0  0  0  0  0
  -30.5636  -17.1491   20.8068 C   0  0  0  0  0  0  0  0  0  0  0  0
  -24.2696  -21.1377   22.3502 C   0  0  0  0  0  0  0  0  0  0  0  0
  -25.7687  -21.1407   22.3186 C   0  0  0  0  0  0  0  0  0  0  0  0
  -20.6911  -28.7759   23.2432 C   0  0  0  0  0  0  0  0  0  0  0  0
  -17.7290  -27.8573   24.1944 C   0  0  0  0  0  0  0  0  0  0  0  0
  -15.4800  -25.3273   24.6275 C   0  0  0  0  0  0  0  0  0  0  0  0
  -30.6114  -14.8323   19.9385 C   0  0  0  0  0  0  0  0  0  0  0  0
  -23.0216  -33.1316   21.9570 C   0  0  0  0  0  0  0  0  0  0  0  0
  -19.9072  -27.4560   21.2434 C   0  0  0  0  0  0  0  0  0  0  0  0
  -19.4018  -26.0155   23.7761 C   0  0  0  0  0  0  0  0  0  0  0  0
  -21.8261  -32.7482   22.8253 C   0  0  0  0  0  0  0  0  0  0  0  0
  -30.0359  -11.3496   20.1298 C   0  0  0  0  0  0  0  0  0  0  0  0
  -22.1966  -31.6108   23.7717 C   0  0  0  0  0  0  0  0  0  0  0  0
  -28.5242  -11.2449   20.3489 C   0  0  0  0  0  0  0  0  0  0  0  0
  -30.3931  -12.4850   19.1715 C   0  0  0  0  0  0  0  0  0  0  0  0
  -28.3210  -13.6876   19.7356 C   0  0  0  0  0  0  0  0  0  0  0  0
  -22.5990  -30.3532   22.9920 C   0  0  1  0  0  0  0  0  0  0  0  0
  -19.5109  -28.1911   22.5202 C   0  0  1  0  0  0  0  0  0  0  0  0
  -27.9150  -12.6041   20.7477 C   0  0  1  0  0  0  0  0  0  0  0  0
  -13.1552  -24.8791   25.4594 C   0  0  0  0  0  0  0  0  0  0  0  0
  -18.7149  -28.0978   27.0719 C   0  0  0  0  0  0  0  0  0  0  0  0
  -16.7257  -26.7588   27.7918 C   0  0  0  0  0  0  0  0  0  0  0  0
  -16.4036  -28.9709   26.6846 C   0  0  0  0  0  0  0  0  0  0  0  0
  -14.6003  -24.3332   21.9824 C   0  0  0  0  0  0  0  0  0  0  0  0
  -17.1826  -26.9980   25.3088 C   0  0  1  0  0  0  0  0  0  0  0  0
  -14.0151  -25.2059   24.2484 C   0  0  2  0  0  0  0  0  0  0  0  0
  -31.3380  -20.0414   21.8131 C   0  0  0  0  0  0  0  0  0  0  0  0
  -17.2750  -27.6960   26.6951 C   0  0  0  0  0  0  0  0  0  0  0  0
  -25.7158  -11.6611   20.1520 N   0  0  0  0  0  0  0  0  0  0  0  0
  -26.4096  -12.5213   20.9167 N   0  0  0  0  0  0  0  0  0  0  0  0
  -18.8099  -27.3293   23.4742 N   0  0  0  0  0  0  0  0  0  0  0  0
  -29.7866  -13.7381   19.6244 N   0  0  0  0  0  0  0  0  0  0  0  0
  -26.1724  -14.1463   22.6236 N   0  0  0  0  0  0  0  0  0  0  0  0
  -21.9348  -12.7559   21.9124 N   0  0  0  0  0  0  0  0  0  0  0  0
  -26.2769  -19.9257   21.8798 N   0  0  0  0  0  0  0  0  0  0  0  0
  -29.9395  -15.9687   20.4024 N   0  0  0  0  0  0  0  0  0  0  0  0
  -21.4247  -29.6725   22.4899 N   0  0  0  0  0  0  0  0  0  0  0  0
  -15.8271  -26.6307   24.9139 N   0  0  0  0  0  0  0  0  0  0  0  0
  -13.8297  -24.1282   23.2358 N   0  3  0  0  0  0  0  0  0  0  0  0
  -23.2443  -14.1872   23.1352 O   0  0  0  0  0  0  0  0  0  0  0  0
  -31.7758  -17.3450   20.8088 O   0  0  0  0  0  0  0  0  0  0  0  0
  -26.4040  -22.1344   22.6545 O   0  0  0  0  0  0  0  0  0  0  0  0
  -20.9184  -28.4398   24.3996 O   0  0  0  0  0  0  0  0  0  0  0  0
  -17.2112  -28.9534   23.9665 O   0  0  0  0  0  0  0  0  0  0  0  0
  -16.2394  -24.3619   24.6694 O   0  0  0  0  0  0  0  0  0  0  0  0
  -31.8425  -14.7892   19.8501 O   0  0  0  0  0  0  0  0  0  0  0  0
  -23.6196  -19.9439   22.5887 O   0  0  0  0  0  0  0  0  0  0  0  0
  -20.3073   -8.8994   18.2363 O   0  0  0  0  0  0  0  0  0  0  0  0
  -22.2502  -22.3804   22.1602 O   0  0  0  0  0  0  0  0  0  1  0  0
  -16.5319   -6.6983   21.5987 F   0  0  0  0  0  0  0  0  0  0  0  0
  -18.7727  -10.5002   19.8870 F   0  0  0  0  0  0  0  0  0  0  0  0
  -31.3935  -21.3318   22.2680 F   0  0  0  0  0  0  0  0  0  0  0  0
  -32.1069  -19.3283   22.6934 F   0  0  0  0  0  0  0  0  0  0  0  0
  -32.0435  -20.0438   20.6409 F   0  0  0  0  0  0  0  0  0  0  0  0
  -27.9620  -17.9811   21.1560 S   0  0  0  0  0  0  0  0  0  0  0  0
  1  2  1  0  0  0  0
  1  5  2  0  0  0  0
  2  6  2  0  0  0  0
  3  8  2  0  0  0  0
  3 16  1  0  0  0  0
  4  9  1  0  0  0  0
  4 16  2  0  0  0  0
  5 18  1  0  0  0  0
  6 20  1  0  0  0  0
  7 10  2  0  0  0  0
  7 19  1  0  0  0  0
  8 23  1  0  0  0  0
  9 23  2  0  0  0  0
 10 24  1  0  0  0  0
 11 12  2  0  0  0  0
 11 25  1  0  0  0  0
 12 26  1  0  0  0  0
 13 21  1  0  0  0  0
 13 24  2  0  0  0  0
 14 22  1  0  0  0  0
 14 31  2  0  0  0  0
 15 26  2  0  0  0  0
 15 27  1  0  0  0  0
 16 28  1  0  0  0  0
 17 28  1  0  0  0  0
 17 30  2  0  0  0  0
 17 33  1  0  0  0  0
 18 20  2  0  0  0  0
 18 41  1  0  0  0  0
 19 21  2  0  0  0  0
 19 42  1  0  0  0  0
 20 50  1  0  0  0  0
 21 43  1  0  0  0  0
 22 29  2  0  0  0  0
 22 60  1  0  0  0  0
 23 81  1  0  0  0  0
 24 82  1  0  0  0  0
 25 27  2  0  0  0  0
 25 81  1  0  0  0  0
 26 83  1  0  0  0  0
 27 84  1  0  0  0  0
 28 62  2  0  0  0  0
 29 34  1  0  0  0  0
 29 88  1  0  0  0  0
 30 63  1  0  0  0  0
 30 66  1  0  0  0  0
 31 68  1  0  0  0  0
 31 88  1  0  0  0  0
 32 35  2  0  0  0  0
 32 82  1  0  0  0  0
 33 67  1  0  0  0  0
 33 73  2  0  0  0  0
 34 69  1  0  0  0  0
 34 74  2  0  0  0  0
 35 36  1  0  0  0  0
 35 80  1  0  0  0  0
 36 68  1  0  0  0  0
 36 75  2  0  0  0  0
 37 51  1  0  0  0  0
 37 70  1  0  0  0  0
 37 76  2  0  0  0  0
 38 58  1  0  0  0  0
 38 64  1  0  0  0  0
 38 77  2  0  0  0  0
 39 59  1  0  0  0  0
 39 71  1  0  0  0  0
 39 78  2  0  0  0  0
 40 65  1  0  0  0  0
 40 69  1  0  0  0  0
 40 79  2  0  0  0  0
 41 44  1  0  0  0  0
 42 51  1  0  0  0  0
 43 64  1  0  0  0  0
 44 46  1  0  0  0  0
 45 47  1  0  0  0  0
 45 48  1  0  0  0  0
 46 50  1  0  0  0  0
 47 52  1  0  0  0  0
 48 65  1  0  0  0  0
 49 52  1  0  0  0  0
 49 65  1  0  0  0  0
 50 70  1  0  0  0  0
 51 64  1  0  0  0  0
 52 63  1  0  0  0  0
 53 59  1  0  0  0  0
 54 61  1  0  0  0  0
 55 61  1  0  0  0  0
 56 61  1  0  0  0  0
 57 72  1  0  0  0  0
 58 61  1  0  0  0  0
 58 71  1  0  0  0  0
 59 72  1  0  0  0  0
 60 85  1  0  0  0  0
 60 86  1  0  0  0  0
 60 87  1  0  0  0  0
 62 63  1  0  0  0  0
M  CHG  1  72   1
M  ISO  4  32 101  40 100  69 100  82 101
M  END
> <Batch ID>
0178

> <Smiles>
CNC(C)C(=O)NC(C(=O)N1Cc2cc([101O:1][101CH2:1]C(=O)C(=O)Nc3cc(C(F)(F)F)c(C(=O)[100NH:0][100C:0](=O)N4CCCC(n5nc(-c6ccc(Oc7ccc(F)cc7F)cc6)c(C(N)=O)c5N)C4)s3)ccc2CC1C(=O)NC1CCCc2ccccc21)C(C)(C)C

> <Shape>
0.220

> <Color>
0.120

> <Negative vol penalty>
0.000

$$$$

  -OEChem-04052304443D

 88 96  0     1  0  0  0  0  0999 V2000
  -18.2566  -26.3924   19.3602 C   0  0  0  0  0  0  0  0  0  0  0  0
  -19.4544  -27.0221   19.0374 C   0  0  0  0  0  0  0  0  0  0  0  0
  -25.1566  -13.3220   22.5921 C   0  0  0  0  0  0  0  0  0  0  0  0
  -26.1458  -13.9498   20.4791 C   0  0  0  0  0  0  0  0  0  0  0  0
  -17.8105  -26.3807   20.6811 C   0  0  0  0  0  0  0  0  0  0  0  0
  -20.2063  -27.6413   20.0352 C   0  0  0  0  0  0  0  0  0  0  0  0
  -25.1448  -26.5751   19.6902 C   0  0  0  0  0  0  0  0  0  0  0  0
  -24.2768  -12.4684   21.9266 C   0  0  0  0  0  0  0  0  0  0  0  0
  -25.2660  -13.0961   19.8136 C   0  0  0  0  0  0  0  0  0  0  0  0
  -25.8781  -27.2604   18.7224 C   0  0  0  0  0  0  0  0  0  0  0  0
  -24.3673   -9.3855   20.5407 C   0  0  0  0  0  0  0  0  0  0  0  0
  -24.1782   -8.1088   21.0698 C   0  0  0  0  0  0  0  0  0  0  0  0
  -26.6994  -28.7656   20.4192 C   0  0  0  0  0  0  0  0  0  0  0  0
  -21.8230   -8.5716   21.3449 C   0  0  0  0  0  0  0  0  0  0  0  0
  -26.0910  -14.0628   21.8683 C   0  0  0  0  0  0  0  0  0  0  0  0
  -28.2757  -14.6280   23.0580 C   0  0  0  0  0  0  0  0  0  0  0  0
  -18.5621  -26.9917   21.6972 C   0  0  0  0  0  0  0  0  0  0  0  0
  -25.1748  -26.9873   21.0302 C   0  0  0  0  0  0  0  0  0  0  0  0
  -19.7692  -27.6388   21.3707 C   0  0  0  0  0  0  0  0  0  0  0  0
  -25.9676  -28.0823   21.4024 C   0  0  0  0  0  0  0  0  0  0  0  0
  -24.3316  -12.3553   20.5374 C   0  0  0  0  0  0  0  0  0  0  0  0
  -26.6532  -28.3575   19.0863 C   0  0  0  0  0  0  0  0  0  0  0  0
  -23.2842  -10.2553   20.4139 C   0  0  0  0  0  0  0  0  0  0  0  0
  -22.9061   -7.7019   21.4718 C   0  0  0  0  0  0  0  0  0  0  0  0
  -22.0121   -9.8484   20.8159 C   0  0  0  0  0  0  0  0  0  0  0  0
  -26.9997  -14.9453   22.5551 C   0  0  0  0  0  0  0  0  0  0  0  0
  -29.1482  -21.9094   19.1727 C   0  0  0  0  0  0  0  0  0  0  0  0
  -28.7260  -15.7995   23.6159 C   0  0  0  0  0  0  0  0  0  0  0  0
  -28.5871  -22.1111   20.4163 C   0  0  0  0  0  0  0  0  0  0  0  0
  -29.4091  -24.0831   19.3035 C   0  0  0  0  0  0  0  0  0  0  0  0
  -28.9902  -13.3854   23.0238 C   0  0  0  0  0  0  0  0  0  0  0  0
  -30.5705  -27.4149   17.9894 C   0  0  0  0  0  0  0  0  0  0  0  0
  -30.3450  -25.9321   17.9074 C   0  0  0  0  0  0  0  0  0  0  0  0
  -23.0091  -28.0540   23.0979 C   0  0  0  0  0  0  0  0  0  0  0  0
  -25.4810  -27.8610   25.1896 C   0  0  0  0  0  0  0  0  0  0  0  0
  -28.8566  -27.8281   25.6904 C   0  0  0  0  0  0  0  0  0  0  0  0
  -27.4665  -21.5521   22.6021 C   0  0  0  0  0  0  0  0  0  0  0  0
  -18.0157  -26.9940   23.1029 C   0  0  0  0  0  0  0  0  0  0  0  0
  -24.3993  -26.2211   22.0664 C   0  0  0  0  0  0  0  0  0  0  0  0
  -26.0500  -28.5526   22.8309 C   0  0  0  0  0  0  0  0  0  0  0  0
  -19.0576  -27.3488   24.1608 C   0  0  0  0  0  0  0  0  0  0  0  0
  -27.1369  -19.8123   25.6911 C   0  0  0  0  0  0  0  0  0  0  0  0
  -19.8605  -28.5722   23.7300 C   0  0  0  0  0  0  0  0  0  0  0  0
  -27.1865  -18.3379   25.2839 C   0  0  0  0  0  0  0  0  0  0  0  0
  -26.3954  -20.6609   24.6597 C   0  0  0  0  0  0  0  0  0  0  0  0
  -26.9300  -19.0512   22.8730 C   0  0  0  0  0  0  0  0  0  0  0  0
  -20.6253  -28.3001   22.4290 C   0  0  1  0  0  0  0  0  0  0  0  0
  -24.0987  -27.0427   23.3163 C   0  0  1  0  0  0  0  0  0  0  0  0
  -27.7233  -18.1673   23.8492 C   0  0  2  0  0  0  0  0  0  0  0  0
  -30.5764  -27.6973   27.5132 C   0  0  0  0  0  0  0  0  0  0  0  0
  -24.9344  -30.7749   25.9111 C   0  0  0  0  0  0  0  0  0  0  0  0
  -27.1986  -30.8632   26.9760 C   0  0  0  0  0  0  0  0  0  0  0  0
  -25.4669  -29.3000   27.8593 C   0  0  0  0  0  0  0  0  0  0  0  0
  -29.9849  -25.3167   24.6048 C   0  0  0  0  0  0  0  0  0  0  0  0
  -29.9154  -28.2595   16.9203 C   0  0  0  0  0  0  0  0  0  0  0  0
  -29.5629  -29.6622   17.4054 C   0  0  0  0  0  0  0  0  0  0  0  0
  -28.5796  -29.6530   18.5699 C   0  0  0  0  0  0  0  0  0  1  0  0
  -26.5740  -28.7987   25.6423 C   0  0  1  0  0  0  0  0  0  0  0  0
  -29.7441  -26.9109   26.5124 C   0  0  2  0  0  0  0  0  0  0  0  0
  -29.2848  -20.6112   18.4809 C   0  0  0  0  0  0  0  0  0  0  0  0
  -26.0406  -29.9268   26.5698 C   0  0  0  0  0  0  0  0  0  0  0  0
  -26.6611  -16.2186   22.7743 N   0  0  0  0  0  0  0  0  0  0  0  0
  -29.6198  -23.0391   18.5329 N   0  0  0  0  0  0  0  0  0  0  0  0
  -27.7309  -16.7117   23.4212 N   0  0  0  0  0  0  0  0  0  0  0  0
  -25.2686  -27.7745   23.8064 N   0  0  0  0  0  0  0  0  0  0  0  0
  -26.9612  -20.4509   23.3253 N   0  0  0  0  0  0  0  0  0  0  0  0
  -29.8720  -16.1281   24.2492 N   0  0  0  0  0  0  0  0  0  0  0  0
  -28.3815  -12.2813   22.4117 N   0  0  0  0  0  0  0  0  0  0  0  0
  -28.0089  -21.2259   21.3596 N   0  0  0  0  0  0  0  0  0  0  0  0
  -29.7349  -25.4337   19.0385 N   0  0  0  0  0  0  0  0  0  0  0  0
  -21.8064  -27.5068   22.6936 N   0  0  0  0  0  0  0  0  0  0  0  0
  -27.6035  -27.9624   26.2499 N   0  0  0  0  0  0  0  0  0  0  0  0
  -30.6698  -26.1530   25.6239 N   0  3  0  0  0  0  0  0  0  0  0  0
  -30.1277  -13.2536   23.5359 O   0  0  0  0  0  0  0  0  0  0  0  0
  -31.2499  -27.8277   18.9173 O   0  0  0  0  0  0  0  0  0  0  0  0
  -30.7416  -25.3753   16.8970 O   0  0  0  0  0  0  0  0  0  0  0  0
  -23.2419  -29.2427   23.2840 O   0  0  0  0  0  0  0  0  0  0  0  0
  -24.8440  -27.2232   26.0317 O   0  0  0  0  0  0  0  0  0  0  0  0
  -29.2381  -28.3740   24.6575 O   0  0  0  0  0  0  0  0  0  0  0  0
  -27.4461  -22.6960   23.0636 O   0  0  0  0  0  0  0  0  0  0  0  0
  -23.4734  -11.5222   19.8877 O   0  0  0  0  0  0  0  0  0  0  0  0
  -27.3694  -29.0286   18.1436 O   0  0  0  0  0  0  0  0  0  1  0  0
  -22.7244   -6.4753   21.9784 F   0  0  0  0  0  0  0  0  0  0  0  0
  -20.9675  -10.6792   20.6954 F   0  0  0  0  0  0  0  0  0  0  0  0
  -28.7912  -19.5439   19.1872 F   0  0  0  0  0  0  0  0  0  0  0  0
  -28.6408  -20.5497   17.2715 F   0  0  0  0  0  0  0  0  0  0  0  0
  -30.5861  -20.2812   18.2056 F   0  0  0  0  0  0  0  0  0  0  0  0
  -28.6487  -23.7789   20.8115 S   0  0  0  0  0  0  0  0  0  0  0  0
  1  2  1  0  0  0  0
  1  5  2  0  0  0  0
  2  6  2  0  0  0  0
  3  8  2  0  0  0  0
  3 15  1  0  0  0  0
  4  9  1  0  0  0  0
  4 15  2  0  0  0  0
  5 17  1  0  0  0  0
  6 19  1  0  0  0  0
  7 10  2  0  0  0  0
  7 18  1  0  0  0  0
  8 21  1  0  0  0  0
  9 21  2  0  0  0  0
 10 22  1  0  0  0  0
 11 12  2  0  0  0  0
 11 23  1  0  0  0  0
 12 24  1  0  0  0  0
 13 20  1  0  0  0  0
 13 22  2  0  0  0  0
 14 24  2  0  0  0  0
 14 25  1  0  0  0  0
 15 26  1  0  0  0  0
 16 26  1  0  0  0  0
 16 28  2  0  0  0  0
 16 31  1  0  0  0  0
 17 19  2  0  0  0  0
 17 38  1  0  0  0  0
 18 20  2  0  0  0  0
 18 39  1  0  0  0  0
 19 47  1  0  0  0  0
 20 40  1  0  0  0  0
 21 81  1  0  0  0  0
 22 82  1  0  0  0  0
 23 25  2  0  0  0  0
 23 81  1  0  0  0  0
 24 83  1  0  0  0  0
 25 84  1  0  0  0  0
 26 62  2  0  0  0  0
 27 29  2  0  0  0  0
 27 60  1  0  0  0  0
 27 63  1  0  0  0  0
 28 64  1  0  0  0  0
 28 67  1  0  0  0  0
 29 69  1  0  0  0  0
 29 88  1  0  0  0  0
 30 63  2  0  0  0  0
 30 70  1  0  0  0  0
 30 88  1  0  0  0  0
 31 68  1  0  0  0  0
 31 74  2  0  0  0  0
 32 33  1  0  0  0  0
 32 55  1  0  0  0  0
 32 75  2  0  0  0  0
 33 70  1  0  0  0  0
 33 76  2  0  0  0  0
 34 48  1  0  0  0  0
 34 71  1  0  0  0  0
 34 77  2  0  0  0  0
 35 58  1  0  0  0  0
 35 65  1  0  0  0  0
 35 78  2  0  0  0  0
 36 59  1  0  0  0  0
 36 72  1  0  0  0  0
 36 79  2  0  0  0  0
 37 66  1  0  0  0  0
 37 69  1  0  0  0  0
 37 80  2  0  0  0  0
 38 41  1  0  0  0  0
 39 48  1  0  0  0  0
 40 65  1  0  0  0  0
 41 43  1  0  0  0  0
 42 44  1  0  0  0  0
 42 45  1  0  0  0  0
 43 47  1  0  0  0  0
 44 49  1  0  0  0  0
 45 66  1  0  0  0  0
 46 49  1  0  0  0  0
 46 66  1  0  0  0  0
 47 71  1  0  0  0  0
 48 65  1  0  0  0  0
 49 64  1  0  0  0  0
 50 59  1  0  0  0  0
 51 61  1  0  0  0  0
 52 61  1  0  0  0  0
 53 61  1  0  0  0  0
 54 73  1  0  0  0  0
 55 56  1  0  0  0  0
 56 57  1  0  0  0  0
 57 82  1  0  0  0  0
 58 61  1  0  0  0  0
 58 72  1  0  0  0  0
 59 73  1  0  0  0  0
 60 85  1  0  0  0  0
 60 86  1  0  0  0  0
 60 87  1  0  0  0  0
 62 64  1  0  0  0  0
M  CHG  1  73   1
M  ISO  4  37 100  57 101  69 100  82 101
M  END
> <Batch ID>
0178

> <Smiles>
CNC(C)C(=O)NC(C(=O)N1Cc2cc([101O:1][101CH2:1]CCC(=O)C(=O)Nc3nc(C(F)(F)F)c([100NH:0][100C:0](=O)N4CCCC(n5nc(-c6ccc(Oc7ccc(F)cc7F)cc6)c(C(N)=O)c5N)C4)s3)ccc2CC1C(=O)NC1CCCc2ccccc21)C(C)(C)C

> <Shape>
0.239

> <Color>
0.085

> <Negative vol penalty>
0.000

$$$$

  -OEChem-04052304443D

 87 95  0     1  0  0  0  0  0999 V2000
  -28.3280  -37.6217   22.9180 C   0  0  0  0  0  0  0  0  0  0  0  0
  -28.7375  -36.5479   22.1339 C   0  0  0  0  0  0  0  0  0  0  0  0
  -24.7272   -8.4415   21.4082 C   0  0  0  0  0  0  0  0  0  0  0  0
  -23.1995  -10.2362   20.8767 C   0  0  0  0  0  0  0  0  0  0  0  0
  -27.4789  -37.4073   24.0029 C   0  0  0  0  0  0  0  0  0  0  0  0
  -28.2990  -35.2589   22.4350 C   0  0  0  0  0  0  0  0  0  0  0  0
  -26.5662  -29.0699   19.2711 C   0  0  0  0  0  0  0  0  0  0  0  0
  -23.8256   -7.9542   22.3544 C   0  0  0  0  0  0  0  0  0  0  0  0
  -22.2979   -9.7489   21.8229 C   0  0  0  0  0  0  0  0  0  0  0  0
  -26.8611  -27.7087   19.3336 C   0  0  0  0  0  0  0  0  0  0  0  0
  -20.9746   -6.1363   22.3736 C   0  0  0  0  0  0  0  0  0  0  0  0
  -20.7333   -4.7626   22.3918 C   0  0  0  0  0  0  0  0  0  0  0  0
  -25.3326  -27.4687   21.1843 C   0  0  0  0  0  0  0  0  0  0  0  0
  -21.5274   -4.6533   24.6710 C   0  0  0  0  0  0  0  0  0  0  0  0
  -24.4142   -9.5825   20.6694 C   0  0  0  0  0  0  0  0  0  0  0  0
  -25.4160   -9.7433   18.3288 C   0  0  0  0  0  0  0  0  0  0  0  0
  -27.0221  -36.1163   24.3116 C   0  0  0  0  0  0  0  0  0  0  0  0
  -25.6589  -29.6438   20.1733 C   0  0  0  0  0  0  0  0  0  0  0  0
  -27.4441  -35.0269   23.5259 C   0  0  0  0  0  0  0  0  0  0  0  0
  -25.0259  -28.8369   21.1295 C   0  0  0  0  0  0  0  0  0  0  0  0
  -22.6109   -8.6079   22.5617 C   0  0  0  0  0  0  0  0  0  0  0  0
  -26.2465  -26.9084   20.2922 C   0  0  0  0  0  0  0  0  0  0  0  0
  -21.4925   -6.7685   23.5041 C   0  0  0  0  0  0  0  0  0  0  0  0
  -21.0096   -4.0211   23.5405 C   0  0  0  0  0  0  0  0  0  0  0  0
  -21.7688   -6.0270   24.6528 C   0  0  0  0  0  0  0  0  0  0  0  0
  -25.3453  -10.0867   19.6923 C   0  0  0  0  0  0  0  0  0  0  0  0
  -25.9546  -18.9686   18.3080 C   0  0  0  0  0  0  0  0  0  0  0  0
  -27.2312  -19.4674   18.3876 C   0  0  0  0  0  0  0  0  0  0  0  0
  -26.4608  -10.4893   17.8406 C   0  0  0  0  0  0  0  0  0  0  0  0
  -27.3195  -17.4260   18.8859 C   0  0  0  0  0  0  0  0  0  0  0  0
  -24.6092   -8.8317   17.5714 C   0  0  0  0  0  0  0  0  0  0  0  0
  -25.8429  -31.8864   22.4184 C   0  0  0  0  0  0  0  0  0  0  0  0
  -30.0265  -20.8707   18.1419 C   0  0  0  0  0  0  0  0  0  0  0  0
  -27.6685  -23.5790   19.5930 C   0  0  0  0  0  0  0  0  0  0  0  0
  -22.6320  -31.4503   22.5675 C   0  0  0  0  0  0  0  0  0  0  0  0
  -19.9583  -29.4003   22.0238 C   0  0  0  0  0  0  0  0  0  0  0  0
  -28.9578  -15.6368   19.5648 C   0  0  0  0  0  0  0  0  0  0  0  0
  -26.1432  -35.9276   25.5227 C   0  0  0  0  0  0  0  0  0  0  0  0
  -25.3313  -31.1086   20.0755 C   0  0  0  0  0  0  0  0  0  0  0  0
  -24.0292  -29.4004   22.1080 C   0  0  0  0  0  0  0  0  0  0  0  0
  -25.4237  -34.5815   25.5493 C   0  0  0  0  0  0  0  0  0  0  0  0
  -30.5906  -12.4933   19.2054 C   0  0  0  0  0  0  0  0  0  0  0  0
  -26.3929  -33.4515   25.2166 C   0  0  0  0  0  0  0  0  0  0  0  0
  -29.4370  -11.4887   19.1592 C   0  0  0  0  0  0  0  0  0  0  0  0
  -30.3057  -13.6400   20.1737 C   0  0  0  0  0  0  0  0  0  0  0  0
  -27.8761  -13.3290   19.9103 C   0  0  0  0  0  0  0  0  0  0  0  0
  -26.9701  -33.6172   23.8057 C   0  0  1  0  0  0  0  0  0  0  0  0
  -24.7799  -31.6856   21.3756 C   0  0  1  0  0  0  0  0  0  0  0  0
  -28.0892  -12.1899   18.8999 C   0  0  2  0  0  0  0  0  0  0  0  0
  -31.2327  -20.7136   19.0333 C   0  0  0  0  0  0  0  0  0  0  0  0
  -24.0251  -20.3547   19.1093 C   0  0  0  0  0  0  0  0  0  0  0  0
  -17.4636  -29.3068   22.2792 C   0  0  0  0  0  0  0  0  0  0  0  0
  -22.9585  -30.9992   25.5675 C   0  0  0  0  0  0  0  0  0  0  0  0
  -20.6646  -29.9965   25.5958 C   0  0  0  0  0  0  0  0  0  0  0  0
  -20.9736  -32.3806   24.9302 C   0  0  0  0  0  0  0  0  0  0  0  0
  -19.5564  -29.0641   19.1110 C   0  0  0  0  0  0  0  0  0  0  0  0
  -24.6395  -19.5259   17.9717 C   0  0  0  0  0  0  0  0  0  0  0  0
  -28.6445  -22.9210   18.6258 C   0  0  0  0  0  0  0  0  0  0  0  0
  -27.4729  -25.0719   19.4096 C   0  0  0  0  0  0  0  0  0  1  0  0
  -28.7527  -21.4030   18.7927 C   0  0  1  0  0  0  0  0  0  0  0  0
  -21.7110  -30.5478   23.3525 C   0  0  1  0  0  0  0  0  0  0  0  0
  -18.6197  -29.6475   21.3518 C   0  0  2  0  0  0  0  0  0  0  0  0
  -21.5971  -30.9705   24.8445 C   0  0  0  0  0  0  0  0  0  0  0  0
  -26.2717  -10.9810   20.0474 N   0  0  0  0  0  0  0  0  0  0  0  0
  -28.1013  -18.4743   18.7586 N   0  0  0  0  0  0  0  0  0  0  0  0
  -26.9343  -11.2059   18.9000 N   0  0  0  0  0  0  0  0  0  0  0  0
  -23.7469  -30.8393   21.9764 N   0  0  0  0  0  0  0  0  0  0  0  0
  -29.0151  -14.2593   19.8647 N   0  0  0  0  0  0  0  0  0  0  0  0
  -27.0116  -10.5954   16.6127 N   0  0  0  0  0  0  0  0  0  0  0  0
  -23.5778   -8.1474   18.2289 N   0  0  0  0  0  0  0  0  0  0  0  0
  -27.6237  -20.7692   18.1395 N   0  0  0  0  0  0  0  0  0  0  0  0
  -27.6820  -16.1069   19.2551 N   0  0  0  0  0  0  0  0  0  0  0  0
  -26.0036  -33.2012   22.8121 N   0  0  0  0  0  0  0  0  0  0  0  0
  -20.4404  -30.5380   22.6356 N   0  0  0  0  0  0  0  0  0  0  0  0
  -18.4962  -28.8154   20.1216 N   0  3  0  0  0  0  0  0  0  0  0  0
  -24.8078   -8.6175   16.3515 O   0  0  0  0  0  0  0  0  0  0  0  0
  -26.4699  -30.9198   22.8360 O   0  0  0  0  0  0  0  0  0  0  0  0
  -30.0969  -20.5965   16.9432 O   0  0  0  0  0  0  0  0  0  0  0  0
  -27.0618  -22.9514   20.4592 O   0  0  0  0  0  0  0  0  0  0  0  0
  -22.3680  -32.6518   22.4760 O   0  0  0  0  0  0  0  0  0  0  0  0
  -20.5183  -28.3063   22.0107 O   0  0  0  0  0  0  0  0  0  0  0  0
  -29.9704  -16.3415   19.5549 O   0  0  0  0  0  0  0  0  0  0  0  0
  -26.0008  -17.6456   18.6292 O   0  0  0  0  0  0  0  0  0  0  0  0
  -21.7308   -8.1325   23.4847 O   0  0  0  0  0  0  0  0  0  0  0  0
  -26.5331  -25.5796   20.3558 O   0  0  0  0  0  0  0  0  0  1  0  0
  -20.7764   -2.7022   23.5583 F   0  0  0  0  0  0  0  0  0  0  0  0
  -22.2652   -6.6290   25.7423 F   0  0  0  0  0  0  0  0  0  0  0  0
  1  2  1  0  0  0  0
  1  5  2  0  0  0  0
  2  6  2  0  0  0  0
  3  8  2  0  0  0  0
  3 15  1  0  0  0  0
  4  9  1  0  0  0  0
  4 15  2  0  0  0  0
  5 17  1  0  0  0  0
  6 19  1  0  0  0  0
  7 10  2  0  0  0  0
  7 18  1  0  0  0  0
  8 21  1  0  0  0  0
  9 21  2  0  0  0  0
 10 22  1  0  0  0  0
 11 12  2  0  0  0  0
 11 23  1  0  0  0  0
 12 24  1  0  0  0  0
 13 20  1  0  0  0  0
 13 22  2  0  0  0  0
 14 24  2  0  0  0  0
 14 25  1  0  0  0  0
 15 26  1  0  0  0  0
 16 26  1  0  0  0  0
 16 29  2  0  0  0  0
 16 31  1  0  0  0  0
 17 19  2  0  0  0  0
 17 38  1  0  0  0  0
 18 20  2  0  0  0  0
 18 39  1  0  0  0  0
 19 47  1  0  0  0  0
 20 40  1  0  0  0  0
 21 84  1  0  0  0  0
 22 85  1  0  0  0  0
 23 25  2  0  0  0  0
 23 84  1  0  0  0  0
 24 86  1  0  0  0  0
 25 87  1  0  0  0  0
 26 64  2  0  0  0  0
 27 28  2  0  0  0  0
 27 57  1  0  0  0  0
 27 83  1  0  0  0  0
 28 65  1  0  0  0  0
 28 71  1  0  0  0  0
 29 66  1  0  0  0  0
 29 69  1  0  0  0  0
 30 65  2  0  0  0  0
 30 72  1  0  0  0  0
 30 83  1  0  0  0  0
 31 70  1  0  0  0  0
 31 76  2  0  0  0  0
 32 48  1  0  0  0  0
 32 73  1  0  0  0  0
 32 77  2  0  0  0  0
 33 50  1  0  0  0  0
 33 60  1  0  0  0  0
 33 78  2  0  0  0  0
 34 58  1  0  0  0  0
 34 59  1  0  0  0  0
 34 79  2  0  0  0  0
 35 61  1  0  0  0  0
 35 67  1  0  0  0  0
 35 80  2  0  0  0  0
 36 62  1  0  0  0  0
 36 74  1  0  0  0  0
 36 81  2  0  0  0  0
 37 68  1  0  0  0  0
 37 72  1  0  0  0  0
 37 82  2  0  0  0  0
 38 41  1  0  0  0  0
 39 48  1  0  0  0  0
 40 67  1  0  0  0  0
 41 43  1  0  0  0  0
 42 44  1  0  0  0  0
 42 45  1  0  0  0  0
 43 47  1  0  0  0  0
 44 49  1  0  0  0  0
 45 68  1  0  0  0  0
 46 49  1  0  0  0  0
 46 68  1  0  0  0  0
 47 73  1  0  0  0  0
 48 67  1  0  0  0  0
 49 66  1  0  0  0  0
 51 57  1  0  0  0  0
 52 62  1  0  0  0  0
 53 63  1  0  0  0  0
 54 63  1  0  0  0  0
 55 63  1  0  0  0  0
 56 75  1  0  0  0  0
 58 60  1  0  0  0  0
 59 85  1  0  0  0  0
 60 71  1  0  0  0  0
 61 63  1  0  0  0  0
 61 74  1  0  0  0  0
 62 75  1  0  0  0  0
 64 66  1  0  0  0  0
M  CHG  1  75   1
M  ISO  4  37 100  59 101  72 100  85 101
M  END
> <Batch ID>
0178

> <Smiles>
CCc1oc([100NH:0][100C:0](=O)N2CCCC(n3nc(-c4ccc(Oc5ccc(F)cc5F)cc4)c(C(N)=O)c3N)C2)nc1NC(CC(=O)[101CH2:1][101O:1]c1ccc2c(c1)CN(C(=O)C(NC(=O)C(C)NC)C(C)(C)C)C(C(=O)NC1CCCc3ccccc31)C2)C(C)=O

> <Shape>
0.291

> <Color>
0.097

> <Negative vol penalty>
0.000

$$$$

  -OEChem-04052304443D

 85 93  0     1  0  0  0  0  0999 V2000
  -22.8127  -23.9336   19.1997 C   0  0  0  0  0  0  0  0  0  0  0  0
  -23.8772  -23.2408   19.7672 C   0  0  0  0  0  0  0  0  0  0  0  0
  -20.2857  -27.7268   23.5806 C   0  0  0  0  0  0  0  0  0  0  0  0
  -20.0412  -26.2802   21.6611 C   0  0  0  0  0  0  0  0  0  0  0  0
  -21.5209  -23.4160   19.2848 C   0  0  0  0  0  0  0  0  0  0  0  0
  -23.6504  -22.0303   20.4212 C   0  0  0  0  0  0  0  0  0  0  0  0
  -27.0387  -18.4811   19.1692 C   0  0  0  0  0  0  0  0  0  0  0  0
  -18.9086  -27.9486   23.5888 C   0  0  0  0  0  0  0  0  0  0  0  0
  -18.6641  -26.5019   21.6693 C   0  0  0  0  0  0  0  0  0  0  0  0
  -28.2952  -18.5609   19.7680 C   0  0  0  0  0  0  0  0  0  0  0  0
  -16.6799  -29.8364   21.8878 C   0  0  0  0  0  0  0  0  0  0  0  0
  -16.2365  -31.1484   22.0542 C   0  0  0  0  0  0  0  0  0  0  0  0
  -27.6444  -16.8570   21.3467 C   0  0  0  0  0  0  0  0  0  0  0  0
  -15.0580  -30.4957   24.0598 C   0  0  0  0  0  0  0  0  0  0  0  0
  -20.8520  -26.8927   22.6167 C   0  0  0  0  0  0  0  0  0  0  0  0
  -22.9765  -25.6478   23.2833 C   0  0  0  0  0  0  0  0  0  0  0  0
  -21.2795  -22.1938   19.9318 C   0  0  0  0  0  0  0  0  0  0  0  0
  -26.0702  -17.5949   19.6623 C   0  0  0  0  0  0  0  0  0  0  0  0
  -22.3540  -21.4965   20.5162 C   0  0  0  0  0  0  0  0  0  0  0  0
  -26.3772  -16.7660   20.7508 C   0  0  0  0  0  0  0  0  0  0  0  0
  -18.0978  -27.3361   22.6332 C   0  0  0  0  0  0  0  0  0  0  0  0
  -28.5972  -17.7509   20.8587 C   0  0  0  0  0  0  0  0  0  0  0  0
  -16.3123  -28.8540   22.8073 C   0  0  0  0  0  0  0  0  0  0  0  0
  -15.4256  -31.4780   23.1402 C   0  0  0  0  0  0  0  0  0  0  0  0
  -15.5014  -29.1837   23.8933 C   0  0  0  0  0  0  0  0  0  0  0  0
  -22.2745  -26.6637   22.6073 C   0  0  0  0  0  0  0  0  0  0  0  0
  -31.4126  -23.4405   20.4196 C   0  0  0  0  0  0  0  0  0  0  0  0
  -31.7069  -24.2843   19.3691 C   0  0  0  0  0  0  0  0  0  0  0  0
  -24.2925  -25.8618   22.9534 C   0  0  0  0  0  0  0  0  0  0  0  0
  -29.7701  -25.1372   19.9445 C   0  0  0  0  0  0  0  0  0  0  0  0
  -22.4831  -24.6039   24.1334 C   0  0  0  0  0  0  0  0  0  0  0  0
  -32.1751  -22.3002   20.9899 C   0  0  0  0  0  0  0  0  0  0  0  0
  -23.1721  -17.9168   20.9277 C   0  0  0  0  0  0  0  0  0  0  0  0
  -31.4006  -19.2546   22.5994 C   0  0  0  0  0  0  0  0  0  0  0  0
  -23.1740  -14.6763   20.7810 C   0  0  0  0  0  0  0  0  0  0  0  0
  -24.9793  -11.7824   20.6649 C   0  0  0  0  0  0  0  0  0  0  0  0
  -28.2511  -27.0076   19.2091 C   0  0  0  0  0  0  0  0  0  0  0  0
  -19.8594  -21.6976   20.0396 C   0  0  0  0  0  0  0  0  0  0  0  0
  -24.7287  -17.5017   18.9884 C   0  0  0  0  0  0  0  0  0  0  0  0
  -25.3796  -15.7835   21.3055 C   0  0  0  0  0  0  0  0  0  0  0  0
  -19.7566  -20.2238   20.4238 C   0  0  0  0  0  0  0  0  0  0  0  0
  -26.5114  -29.7716   20.6272 C   0  0  0  0  0  0  0  0  0  0  0  0
  -20.6881  -19.9100   21.5903 C   0  0  0  0  0  0  0  0  0  0  0  0
  -25.3118  -29.1259   21.3244 C   0  0  0  0  0  0  0  0  0  0  0  0
  -26.8570  -29.0617   19.3194 C   0  0  0  0  0  0  0  0  0  0  0  0
  -25.8500  -26.9646   20.1301 C   0  0  0  0  0  0  0  0  0  0  0  0
  -22.1517  -20.1681   21.2124 C   0  0  1  0  0  0  0  0  0  0  0  0
  -23.6427  -16.9314   19.8955 C   0  0  1  0  0  0  0  0  0  0  0  0
  -25.5045  -27.6051   21.4844 C   0  0  2  0  0  0  0  0  0  0  0  0
  -32.4462  -20.8788   24.2060 C   0  0  0  0  0  0  0  0  0  0  0  0
  -24.7021   -9.2895   20.5891 C   0  0  0  0  0  0  0  0  0  0  0  0
  -22.4739  -14.6662   23.7508 C   0  0  0  0  0  0  0  0  0  0  0  0
  -23.1395  -12.2539   23.8282 C   0  0  0  0  0  0  0  0  0  0  0  0
  -21.2393  -12.9759   22.3822 C   0  0  0  0  0  0  0  0  0  0  0  0
  -26.3605  -11.5919   18.0544 C   0  0  0  0  0  0  0  0  0  0  0  0
  -30.4884  -19.0885   21.3973 C   0  0  0  0  0  0  0  0  0  1  0  0
  -32.2113  -20.5429   22.7411 C   0  0  2  0  0  0  0  0  0  0  0  0
  -23.6037  -13.5644   21.7074 C   0  0  1  0  0  0  0  0  0  0  0  0
  -24.8675  -10.5607   19.7709 C   0  0  2  0  0  0  0  0  0  0  0  0
  -22.6325  -13.3849   22.9082 C   0  0  0  0  0  0  0  0  0  0  0  0
  -23.0781  -27.4637   21.9014 N   0  0  0  0  0  0  0  0  0  0  0  0
  -30.7661  -25.2576   19.0950 N   0  0  0  0  0  0  0  0  0  0  0  0
  -24.2986  -26.9506   22.1321 N   0  0  0  0  0  0  0  0  0  0  0  0
  -24.0796  -15.7340   20.6163 N   0  0  0  0  0  0  0  0  0  0  0  0
  -27.0291  -27.6256   19.5490 N   0  0  0  0  0  0  0  0  0  0  0  0
  -32.8371  -24.2001   18.6270 N   0  0  0  0  0  0  0  0  0  0  0  0
  -25.4335  -25.2229   23.2887 N   0  0  0  0  0  0  0  0  0  0  0  0
  -21.1032  -24.5286   24.3668 N   0  0  0  0  0  0  0  0  0  0  0  0
  -28.5974  -25.9287   20.0219 N   0  0  0  0  0  0  0  0  0  0  0  0
  -31.5855  -21.6488   22.0661 N   0  0  0  0  0  0  0  0  0  0  0  0
  -22.6617  -19.0863   20.3975 N   0  0  0  0  0  0  0  0  0  0  0  0
  -23.7522  -12.3749   20.8759 N   0  0  0  0  0  0  0  0  0  0  0  0
  -26.0890  -10.4218   18.9285 N   0  3  0  0  0  0  0  0  0  0  0  0
  -23.2450  -23.7729   24.6832 O   0  0  0  0  0  0  0  0  0  0  0  0
  -33.2678  -22.0093   20.5104 O   0  0  0  0  0  0  0  0  0  0  0  0
  -23.2639  -17.6361   22.1170 O   0  0  0  0  0  0  0  0  0  0  0  0
  -31.5293  -18.3463   23.4249 O   0  0  0  0  0  0  0  0  0  0  0  0
  -22.0785  -14.6054   20.2185 O   0  0  0  0  0  0  0  0  0  0  0  0
  -26.0477  -12.1701   21.1326 O   0  0  0  0  0  0  0  0  0  0  0  0
  -28.9530  -27.4231   18.2835 O   0  0  0  0  0  0  0  0  0  0  0  0
  -16.7540  -27.5521   22.6411 O   0  0  0  0  0  0  0  0  0  0  0  0
  -29.8227  -17.8272   21.4455 O   0  0  0  0  0  0  0  0  0  1  0  0
  -15.0011  -32.7383   23.3007 F   0  0  0  0  0  0  0  0  0  0  0  0
  -15.1459  -28.2445   24.7806 F   0  0  0  0  0  0  0  0  0  0  0  0
  -29.8996  -23.8753   21.1002 S   0  0  0  0  0  0  0  0  0  0  0  0
  1  2  1  0  0  0  0
  1  5  2  0  0  0  0
  2  6  2  0  0  0  0
  3  8  2  0  0  0  0
  3 15  1  0  0  0  0
  4  9  1  0  0  0  0
  4 15  2  0  0  0  0
  5 17  1  0  0  0  0
  6 19  1  0  0  0  0
  7 10  2  0  0  0  0
  7 18  1  0  0  0  0
  8 21  1  0  0  0  0
  9 21  2  0  0  0  0
 10 22  1  0  0  0  0
 11 12  2  0  0  0  0
 11 23  1  0  0  0  0
 12 24  1  0  0  0  0
 13 20  1  0  0  0  0
 13 22  2  0  0  0  0
 14 24  2  0  0  0  0
 14 25  1  0  0  0  0
 15 26  1  0  0  0  0
 16 26  1  0  0  0  0
 16 29  2  0  0  0  0
 16 31  1  0  0  0  0
 17 19  2  0  0  0  0
 17 38  1  0  0  0  0
 18 20  2  0  0  0  0
 18 39  1  0  0  0  0
 19 47  1  0  0  0  0
 20 40  1  0  0  0  0
 21 81  1  0  0  0  0
 22 82  1  0  0  0  0
 23 25  2  0  0  0  0
 23 81  1  0  0  0  0
 24 83  1  0  0  0  0
 25 84  1  0  0  0  0
 26 61  2  0  0  0  0
 27 28  2  0  0  0  0
 27 32  1  0  0  0  0
 27 85  1  0  0  0  0
 28 62  1  0  0  0  0
 28 66  1  0  0  0  0
 29 63  1  0  0  0  0
 29 67  1  0  0  0  0
 30 62  2  0  0  0  0
 30 69  1  0  0  0  0
 30 85  1  0  0  0  0
 31 68  1  0  0  0  0
 31 74  2  0  0  0  0
 32 70  1  0  0  0  0
 32 75  2  0  0  0  0
 33 48  1  0  0  0  0
 33 71  1  0  0  0  0
 33 76  2  0  0  0  0
 34 56  1  0  0  0  0
 34 57  1  0  0  0  0
 34 77  2  0  0  0  0
 35 58  1  0  0  0  0
 35 64  1  0  0  0  0
 35 78  2  0  0  0  0
 36 59  1  0  0  0  0
 36 72  1  0  0  0  0
 36 79  2  0  0  0  0
 37 65  1  0  0  0  0
 37 69  1  0  0  0  0
 37 80  2  0  0  0  0
 38 41  1  0  0  0  0
 39 48  1  0  0  0  0
 40 64  1  0  0  0  0
 41 43  1  0  0  0  0
 42 44  1  0  0  0  0
 42 45  1  0  0  0  0
 43 47  1  0  0  0  0
 44 49  1  0  0  0  0
 45 65  1  0  0  0  0
 46 49  1  0  0  0  0
 46 65  1  0  0  0  0
 47 71  1  0  0  0  0
 48 64  1  0  0  0  0
 49 63  1  0  0  0  0
 50 57  1  0  0  0  0
 51 59  1  0  0  0  0
 52 60  1  0  0  0  0
 53 60  1  0  0  0  0
 54 60  1  0  0  0  0
 55 73  1  0  0  0  0
 56 82  1  0  0  0  0
 57 70  1  0  0  0  0
 58 60  1  0  0  0  0
 58 72  1  0  0  0  0
 59 73  1  0  0  0  0
 61 63  1  0  0  0  0
M  CHG  1  73   1
M  ISO  4  37 100  56 101  69 100  82 101
M  END
> <Batch ID>
0178

> <Smiles>
CNC(C)C(=O)NC(C(=O)N1Cc2cc([101O:1][101CH2:1]C(=O)C(C)NC(=O)c3sc([100NH:0][100C:0](=O)N4CCCC(n5nc(-c6ccc(Oc7ccc(F)cc7F)cc6)c(C(N)=O)c5N)C4)nc3N)ccc2CC1C(=O)NC1CCCc2ccccc21)C(C)(C)C

> <Shape>
0.204

> <Color>
0.071

> <Negative vol penalty>
0.000

$$$$

  -OEChem-04052304443D

 85 93  0     1  0  0  0  0  0999 V2000
  -29.5644  -30.3870   26.8044 C   0  0  0  0  0  0  0  0  0  0  0  0
  -29.2687  -29.5753   25.7139 C   0  0  0  0  0  0  0  0  0  0  0  0
  -24.5682   -8.3124   20.5759 C   0  0  0  0  0  0  0  0  0  0  0  0
  -22.9345  -10.0905   20.6563 C   0  0  0  0  0  0  0  0  0  0  0  0
  -28.5366  -31.0338   27.4895 C   0  0  0  0  0  0  0  0  0  0  0  0
  -27.9449  -29.4092   25.3084 C   0  0  0  0  0  0  0  0  0  0  0  0
  -27.3927  -29.7591   20.2867 C   0  0  0  0  0  0  0  0  0  0  0  0
  -23.5878   -7.3945   20.9523 C   0  0  0  0  0  0  0  0  0  0  0  0
  -21.9540   -9.1726   21.0327 C   0  0  0  0  0  0  0  0  0  0  0  0
  -27.7572  -28.6482   19.5272 C   0  0  0  0  0  0  0  0  0  0  0  0
  -22.0294   -6.4409   23.7960 C   0  0  0  0  0  0  0  0  0  0  0  0
  -22.3575   -5.5116   24.7831 C   0  0  0  0  0  0  0  0  0  0  0  0
  -25.4378  -28.0050   19.3659 C   0  0  0  0  0  0  0  0  0  0  0  0
  -21.9233   -3.7108   23.2320 C   0  0  0  0  0  0  0  0  0  0  0  0
  -28.4902  -19.1631   20.5520 C   0  0  0  0  0  0  0  0  0  0  0  0
  -24.2416   -9.6604   20.4279 C   0  0  0  0  0  0  0  0  0  0  0  0
  -25.6045  -10.9906   18.7306 C   0  0  0  0  0  0  0  0  0  0  0  0
  -27.2005  -30.8832   27.0862 C   0  0  0  0  0  0  0  0  0  0  0  0
  -26.0468  -29.9957   20.6013 C   0  0  0  0  0  0  0  0  0  0  0  0
  -26.8982  -30.0536   25.9896 C   0  0  0  0  0  0  0  0  0  0  0  0
  -25.0586  -29.1210   20.1274 C   0  0  0  0  0  0  0  0  0  0  0  0
  -28.1561  -18.0819   19.7525 C   0  0  0  0  0  0  0  0  0  0  0  0
  -22.2807   -7.8246   21.1807 C   0  0  0  0  0  0  0  0  0  0  0  0
  -26.7799  -27.7694   19.0691 C   0  0  0  0  0  0  0  0  0  0  0  0
  -21.6482   -6.0052   22.5269 C   0  0  0  0  0  0  0  0  0  0  0  0
  -22.3045   -4.1466   24.5011 C   0  0  0  0  0  0  0  0  0  0  0  0
  -21.5952   -4.6402   22.2449 C   0  0  0  0  0  0  0  0  0  0  0  0
  -27.6704  -18.3419   18.4758 C   0  0  0  0  0  0  0  0  0  0  0  0
  -27.5357  -19.6567   18.0438 C   0  0  0  0  0  0  0  0  0  0  0  0
  -25.2542  -10.6092   20.0397 C   0  0  0  0  0  0  0  0  0  0  0  0
  -27.8975  -20.6673   18.9198 C   0  0  0  0  0  0  0  0  0  0  0  0
  -26.6116  -11.9094   18.8986 C   0  0  0  0  0  0  0  0  0  0  0  0
  -27.4132  -25.5193   18.9859 C   0  0  0  0  0  0  0  0  0  1  0  0
  -25.0676  -10.5535   17.4751 C   0  0  0  0  0  0  0  0  0  0  0  0
  -27.7702  -24.3923   18.3582 C   0  0  0  0  0  0  0  0  0  0  0  0
  -28.0559  -23.1657   19.1718 C   0  0  0  0  0  0  0  0  0  0  0  0
  -24.3713  -30.1759   23.2965 C   0  0  0  0  0  0  0  0  0  0  0  0
  -21.9821  -31.0714   21.2934 C   0  0  0  0  0  0  0  0  0  0  0  0
  -20.6736  -31.0255   18.1418 C   0  0  0  0  0  0  0  0  0  0  0  0
  -28.7765  -16.3476   21.4711 C   0  0  0  0  0  0  0  0  0  0  0  0
  -26.1193  -31.5648   27.8870 C   0  0  0  0  0  0  0  0  0  0  0  0
  -25.6675  -31.2131   21.3991 C   0  0  0  0  0  0  0  0  0  0  0  0
  -23.5978  -29.3414   20.4205 C   0  0  0  0  0  0  0  0  0  0  0  0
  -24.7773  -31.6346   27.1629 C   0  0  0  0  0  0  0  0  0  0  0  0
  -29.2577  -13.1792   23.0226 C   0  0  0  0  0  0  0  0  0  0  0  0
  -24.4320  -30.2824   26.5472 C   0  0  0  0  0  0  0  0  0  0  0  0
  -28.2879  -12.2595   22.2772 C   0  0  0  0  0  0  0  0  0  0  0  0
  -28.6776  -14.5794   23.2143 C   0  0  0  0  0  0  0  0  0  0  0  0
  -27.2284  -14.3066   21.2408 C   0  0  0  0  0  0  0  0  0  0  0  0
  -25.4769  -29.8681   25.5041 C   0  0  1  0  0  0  0  0  0  0  0  0
  -24.3163  -31.0750   22.0939 C   0  0  1  0  0  0  0  0  0  0  0  0
  -27.7948  -12.9039   20.9667 C   0  0  2  0  0  0  0  0  0  0  0  0
  -18.6900  -31.8114   16.8209 C   0  0  0  0  0  0  0  0  0  0  0  0
  -20.2841  -28.8593   22.5318 C   0  0  0  0  0  0  0  0  0  0  0  0
  -18.7259  -29.0598   20.5823 C   0  0  0  0  0  0  0  0  0  0  0  0
  -19.0627  -31.0010   22.1124 C   0  0  0  0  0  0  0  0  0  0  0  0
  -22.3683  -32.6639   16.3522 C   0  0  0  0  0  0  0  0  0  0  0  0
  -20.9105  -30.3459   20.5160 C   0  0  1  0  0  0  0  0  0  0  0  0
  -20.1071  -32.1318   17.2702 C   0  0  2  0  0  0  0  0  0  0  0  0
  -19.7734  -29.8110   21.4316 C   0  0  0  0  0  0  0  0  0  0  0  0
  -28.3731  -20.4537   20.1671 N   0  0  0  0  0  0  0  0  0  0  0  0
  -25.9798  -11.2344   20.9706 N   0  0  0  0  0  0  0  0  0  0  0  0
  -26.7962  -12.0180   20.2456 N   0  0  0  0  0  0  0  0  0  0  0  0
  -23.2778  -30.5424   21.2096 N   0  0  0  0  0  0  0  0  0  0  0  0
  -28.2355  -15.1281   21.9304 N   0  0  0  0  0  0  0  0  0  0  0  0
  -27.3483  -12.6268   18.0241 N   0  0  0  0  0  0  0  0  0  0  0  0
  -24.0363   -9.6045   17.4835 N   0  0  0  0  0  0  0  0  0  0  0  0
  -28.3053  -16.7537   20.2231 N   0  0  0  0  0  0  0  0  0  0  0  0
  -27.7569  -22.0037   18.4738 N   0  0  0  0  0  0  0  0  0  0  0  0
  -25.2669  -30.5864   24.2654 N   0  0  0  0  0  0  0  0  0  0  0  0
  -20.4597  -31.2709   19.4817 N   0  0  0  0  0  0  0  0  0  0  0  0
  -20.9531  -32.3207   16.0580 N   0  3  0  0  0  0  0  0  0  0  0  0
  -25.5012  -10.9793   16.3777 O   0  0  0  0  0  0  0  0  0  0  0  0
  -28.5001  -23.2549   20.3114 O   0  0  0  0  0  0  0  0  0  0  0  0
  -23.6532  -29.1840   23.3426 O   0  0  0  0  0  0  0  0  0  0  0  0
  -21.6819  -32.0747   21.9452 O   0  0  0  0  0  0  0  0  0  0  0  0
  -21.2452  -30.0403   17.6801 O   0  0  0  0  0  0  0  0  0  0  0  0
  -29.6177  -16.9710   22.1236 O   0  0  0  0  0  0  0  0  0  0  0  0
  -27.8854  -24.3120   16.9853 O   0  0  0  0  0  0  0  0  0  0  0  0
  -21.3236   -6.9291   21.5478 O   0  0  0  0  0  0  0  0  0  0  0  0
  -27.1330  -26.6840   18.3280 O   0  0  0  0  0  0  0  0  0  1  0  0
  -22.6210   -3.2543   25.4486 F   0  0  0  0  0  0  0  0  0  0  0  0
  -21.2309   -4.2156   21.0272 F   0  0  0  0  0  0  0  0  0  0  0  0
  -27.3305  -17.3366   17.6568 F   0  0  0  0  0  0  0  0  0  0  0  0
  -27.0690  -19.9218   16.8170 F   0  0  0  0  0  0  0  0  0  0  0  0
  1  2  1  0  0  0  0
  1  5  2  0  0  0  0
  2  6  2  0  0  0  0
  3  8  2  0  0  0  0
  3 16  1  0  0  0  0
  4  9  1  0  0  0  0
  4 16  2  0  0  0  0
  5 18  1  0  0  0  0
  6 20  1  0  0  0  0
  7 10  2  0  0  0  0
  7 19  1  0  0  0  0
  8 23  1  0  0  0  0
  9 23  2  0  0  0  0
 10 24  1  0  0  0  0
 11 12  2  0  0  0  0
 11 25  1  0  0  0  0
 12 26  1  0  0  0  0
 13 21  1  0  0  0  0
 13 24  2  0  0  0  0
 14 26  2  0  0  0  0
 14 27  1  0  0  0  0
 15 22  1  0  0  0  0
 15 61  2  0  0  0  0
 16 30  1  0  0  0  0
 17 30  1  0  0  0  0
 17 32  2  0  0  0  0
 17 34  1  0  0  0  0
 18 20  2  0  0  0  0
 18 41  1  0  0  0  0
 19 21  2  0  0  0  0
 19 42  1  0  0  0  0
 20 50  1  0  0  0  0
 21 43  1  0  0  0  0
 22 28  2  0  0  0  0
 22 68  1  0  0  0  0
 23 80  1  0  0  0  0
 24 81  1  0  0  0  0
 25 27  2  0  0  0  0
 25 80  1  0  0  0  0
 26 82  1  0  0  0  0
 27 83  1  0  0  0  0
 28 29  1  0  0  0  0
 28 84  1  0  0  0  0
 29 31  2  0  0  0  0
 29 85  1  0  0  0  0
 30 62  2  0  0  0  0
 31 61  1  0  0  0  0
 31 69  1  0  0  0  0
 32 63  1  0  0  0  0
 32 66  1  0  0  0  0
 33 35  2  0  0  0  0
 33 81  1  0  0  0  0
 34 67  1  0  0  0  0
 34 73  2  0  0  0  0
 35 36  1  0  0  0  0
 35 79  1  0  0  0  0
 36 69  1  0  0  0  0
 36 74  2  0  0  0  0
 37 51  1  0  0  0  0
 37 70  1  0  0  0  0
 37 75  2  0  0  0  0
 38 58  1  0  0  0  0
 38 64  1  0  0  0  0
 38 76  2  0  0  0  0
 39 59  1  0  0  0  0
 39 71  1  0  0  0  0
 39 77  2  0  0  0  0
 40 65  1  0  0  0  0
 40 68  1  0  0  0  0
 40 78  2  0  0  0  0
 41 44  1  0  0  0  0
 42 51  1  0  0  0  0
 43 64  1  0  0  0  0
 44 46  1  0  0  0  0
 45 47  1  0  0  0  0
 45 48  1  0  0  0  0
 46 50  1  0  0  0  0
 47 52  1  0  0  0  0
 48 65  1  0  0  0  0
 49 52  1  0  0  0  0
 49 65  1  0  0  0  0
 50 70  1  0  0  0  0
 51 64  1  0  0  0  0
 52 63  1  0  0  0  0
 53 59  1  0  0  0  0
 54 60  1  0  0  0  0
 55 60  1  0  0  0  0
 56 60  1  0  0  0  0
 57 72  1  0  0  0  0
 58 60  1  0  0  0  0
 58 71  1  0  0  0  0
 59 72  1  0  0  0  0
 62 63  1  0  0  0  0
M  CHG  1  72   1
M  ISO  4  33 101  40 100  68 100  81 101
M  END
> <Batch ID>
0178

> <Smiles>
CNC(C)C(=O)NC(C(=O)N1Cc2cc([101O:1][101CH2:1]C(=O)C(=O)Nc3ncc([100NH:0][100C:0](=O)N4CCCC(n5nc(-c6ccc(Oc7ccc(F)cc7F)cc6)c(C(N)=O)c5N)C4)c(F)c3F)ccc2CC1C(=O)NC1CCCc2ccccc21)C(C)(C)C

> <Shape>
0.293

> <Color>
0.115

> <Negative vol penalty>
0.000

$$$$

  -OEChem-04052304443D

 86 94  0     1  0  0  0  0  0999 V2000
  -28.9664  -12.8104   19.2100 C   0  0  0  0  0  0  0  0  0  0  0  0
  -28.6420  -14.1079   18.8270 C   0  0  0  0  0  0  0  0  0  0  0  0
  -22.9275  -26.2558   21.5057 C   0  0  0  0  0  0  0  0  0  0  0  0
  -22.3676  -28.4439   20.6478 C   0  0  0  0  0  0  0  0  0  0  0  0
  -28.0171  -12.0164   19.8521 C   0  0  0  0  0  0  0  0  0  0  0  0
  -27.3676  -14.6118   19.0850 C   0  0  0  0  0  0  0  0  0  0  0  0
  -27.4803  -19.3183   20.9507 C   0  0  0  0  0  0  0  0  0  0  0  0
  -21.5983  -26.0633   21.8821 C   0  0  0  0  0  0  0  0  0  0  0  0
  -21.0384  -28.2513   21.0242 C   0  0  0  0  0  0  0  0  0  0  0  0
  -27.6999  -20.3566   20.0465 C   0  0  0  0  0  0  0  0  0  0  0  0
  -17.5694  -28.4832   22.0838 C   0  0  0  0  0  0  0  0  0  0  0  0
  -16.9193  -29.5354   22.7285 C   0  0  0  0  0  0  0  0  0  0  0  0
  -25.3331  -20.8220   20.0155 C   0  0  0  0  0  0  0  0  0  0  0  0
  -18.5538  -29.4562   24.5059 C   0  0  0  0  0  0  0  0  0  0  0  0
  -23.3122  -27.4461   20.8885 C   0  0  0  0  0  0  0  0  0  0  0  0
  -25.2765  -27.3137   19.2663 C   0  0  0  0  0  0  0  0  0  0  0  0
  -26.7336  -12.5141   20.1267 C   0  0  0  0  0  0  0  0  0  0  0  0
  -26.1820  -19.0165   21.3864 C   0  0  0  0  0  0  0  0  0  0  0  0
  -26.3998  -13.8232   19.7301 C   0  0  0  0  0  0  0  0  0  0  0  0
  -25.1000  -19.7811   20.9272 C   0  0  0  0  0  0  0  0  0  0  0  0
  -20.6537  -27.0610   21.6414 C   0  0  0  0  0  0  0  0  0  0  0  0
  -26.6259  -21.1067   19.5765 C   0  0  0  0  0  0  0  0  0  0  0  0
  -18.7117  -27.9174   22.6501 C   0  0  0  0  0  0  0  0  0  0  0  0
  -17.4114  -30.0220   23.9396 C   0  0  0  0  0  0  0  0  0  0  0  0
  -19.2039  -28.4040   23.8612 C   0  0  0  0  0  0  0  0  0  0  0  0
  -24.6852  -27.6459   20.4999 C   0  0  0  0  0  0  0  0  0  0  0  0
  -32.6545  -25.5513   19.7656 C   0  0  0  0  0  0  0  0  0  0  0  0
  -26.5874  -27.7018   19.3982 C   0  0  0  0  0  0  0  0  0  0  0  0
  -33.7601  -25.0023   19.1504 C   0  0  0  0  0  0  0  0  0  0  0  0
  -31.6298  -24.0983   18.4815 C   0  0  0  0  0  0  0  0  0  0  0  0
  -24.6929  -26.7085   18.1049 C   0  0  0  0  0  0  0  0  0  0  0  0
  -32.7092  -26.6328   20.7825 C   0  0  0  0  0  0  0  0  0  0  0  0
  -28.5786  -22.3643   17.1089 C   0  0  0  0  0  0  0  0  0  0  0  0
  -27.4105  -21.8165   17.4905 C   0  0  0  0  0  0  0  0  0  1  0  0
  -29.2775  -23.3615   17.9868 C   0  0  0  0  0  0  0  0  0  0  0  0
  -24.2769  -16.4810   21.1731 C   0  0  0  0  0  0  0  0  0  0  0  0
  -22.3633  -18.2425   23.1116 C   0  0  0  0  0  0  0  0  0  0  0  0
  -21.4451  -21.3252   24.2521 C   0  0  0  0  0  0  0  0  0  0  0  0
  -31.3098  -28.0212   22.2784 C   0  0  0  0  0  0  0  0  0  0  0  0
  -25.7259  -11.6021   20.7806 C   0  0  0  0  0  0  0  0  0  0  0  0
  -25.9650  -17.9106   22.3826 C   0  0  0  0  0  0  0  0  0  0  0  0
  -23.6892  -19.5106   21.3797 C   0  0  0  0  0  0  0  0  0  0  0  0
  -24.5179  -12.3396   21.3525 C   0  0  0  0  0  0  0  0  0  0  0  0
  -28.8612  -30.4737   22.9759 C   0  0  0  0  0  0  0  0  0  0  0  0
  -23.9820  -13.3496   20.3429 C   0  0  0  0  0  0  0  0  0  0  0  0
  -27.6045  -29.9357   22.2863 C   0  0  0  0  0  0  0  0  0  0  0  0
  -29.6896  -29.3522   23.6010 C   0  0  0  0  0  0  0  0  0  0  0  0
  -28.7740  -27.7131   22.0096 C   0  0  0  0  0  0  0  0  0  0  0  0
  -25.0359  -14.4140   20.0147 C   0  0  1  0  0  0  0  0  0  0  0  0
  -24.5426  -17.3594   22.3629 C   0  0  1  0  0  0  0  0  0  0  0  0
  -27.9423  -28.7963   21.3038 C   0  0  1  0  0  0  0  0  0  0  0  0
  -26.6436  -20.8240   16.6661 C   0  0  0  0  0  0  0  0  0  0  0  0
  -19.8253  -22.4491   25.8047 C   0  0  0  0  0  0  0  0  0  0  0  0
  -20.1250  -17.8139   21.0828 C   0  0  0  0  0  0  0  0  0  0  0  0
  -18.8744  -19.6903   22.1706 C   0  0  0  0  0  0  0  0  0  0  0  0
  -19.4145  -17.6330   23.4739 C   0  0  0  0  0  0  0  0  0  0  0  0
  -23.6288  -22.4513   25.9019 C   0  0  0  0  0  0  0  0  0  0  0  0
  -21.2652  -19.2557   22.8959 C   0  0  1  0  0  0  0  0  0  0  0  0
  -21.2163  -21.8524   25.6571 C   0  0  2  0  0  0  0  0  0  0  0  0
  -19.9460  -18.6023   22.3956 C   0  0  0  0  0  0  0  0  0  0  0  0
  -25.5496  -28.2020   21.3529 N   0  0  0  0  0  0  0  0  0  0  0  0
  -31.4321  -25.0345   19.3830 N   0  0  0  0  0  0  0  0  0  0  0  0
  -26.6974  -28.2222   20.6541 N   0  0  0  0  0  0  0  0  0  0  0  0
  -23.5276  -18.4148   22.3496 N   0  0  0  0  0  0  0  0  0  0  0  0
  -29.9750  -28.3189   22.6041 N   0  0  0  0  0  0  0  0  0  0  0  0
  -27.6451  -27.6451   18.5614 N   0  0  0  0  0  0  0  0  0  0  0  0
  -35.0660  -25.3171   19.3333 N   0  0  0  0  0  0  0  0  0  0  0  0
  -23.3326  -26.3728   18.1385 N   0  0  0  0  0  0  0  0  0  0  0  0
  -30.6551  -23.3111   17.8211 N   0  0  0  0  0  0  0  0  0  0  0  0
  -31.4763  -27.0503   21.2847 N   0  0  0  0  0  0  0  0  0  0  0  0
  -25.1187  -15.3890   21.0809 N   0  0  0  0  0  0  0  0  0  0  0  0
  -21.1314  -19.9862   24.1516 N   0  0  0  0  0  0  0  0  0  0  0  0
  -22.2173  -22.9070   25.9840 N   0  3  0  0  0  0  0  0  0  0  0  0
  -25.3619  -26.4574   17.0739 O   0  0  0  0  0  0  0  0  0  0  0  0
  -33.8026  -27.0593   21.1438 O   0  0  0  0  0  0  0  0  0  0  0  0
  -28.6407  -24.0951   18.7346 O   0  0  0  0  0  0  0  0  0  0  0  0
  -23.3741  -16.7716   20.3971 O   0  0  0  0  0  0  0  0  0  0  0  0
  -22.1972  -17.3359   23.9314 O   0  0  0  0  0  0  0  0  0  0  0  0
  -21.8570  -22.0315   23.3344 O   0  0  0  0  0  0  0  0  0  0  0  0
  -32.2700  -28.5972   22.7996 O   0  0  0  0  0  0  0  0  0  0  0  0
  -29.1630  -22.0352   15.9002 O   0  0  0  0  0  0  0  0  0  0  0  0
  -19.3565  -26.8734   22.0084 O   0  0  0  0  0  0  0  0  0  0  0  0
  -26.8374  -22.1203   18.6935 O   0  0  0  0  0  0  0  0  0  1  0  0
  -16.7879  -31.0334   24.5579 F   0  0  0  0  0  0  0  0  0  0  0  0
  -20.3016  -27.8653   24.4096 F   0  0  0  0  0  0  0  0  0  0  0  0
  -33.2608  -23.7875   18.0476 S   0  0  0  0  0  0  0  0  0  0  0  0
  1  2  1  0  0  0  0
  1  5  2  0  0  0  0
  2  6  2  0  0  0  0
  3  8  2  0  0  0  0
  3 15  1  0  0  0  0
  4  9  1  0  0  0  0
  4 15  2  0  0  0  0
  5 17  1  0  0  0  0
  6 19  1  0  0  0  0
  7 10  2  0  0  0  0
  7 18  1  0  0  0  0
  8 21  1  0  0  0  0
  9 21  2  0  0  0  0
 10 22  1  0  0  0  0
 11 12  2  0  0  0  0
 11 23  1  0  0  0  0
 12 24  1  0  0  0  0
 13 20  1  0  0  0  0
 13 22  2  0  0  0  0
 14 24  2  0  0  0  0
 14 25  1  0  0  0  0
 15 26  1  0  0  0  0
 16 26  1  0  0  0  0
 16 28  2  0  0  0  0
 16 31  1  0  0  0  0
 17 19  2  0  0  0  0
 17 40  1  0  0  0  0
 18 20  2  0  0  0  0
 18 41  1  0  0  0  0
 19 49  1  0  0  0  0
 20 42  1  0  0  0  0
 21 82  1  0  0  0  0
 22 83  1  0  0  0  0
 23 25  2  0  0  0  0
 23 82  1  0  0  0  0
 24 84  1  0  0  0  0
 25 85  1  0  0  0  0
 26 61  2  0  0  0  0
 27 29  2  0  0  0  0
 27 32  1  0  0  0  0
 27 62  1  0  0  0  0
 28 63  1  0  0  0  0
 28 66  1  0  0  0  0
 29 67  1  0  0  0  0
 29 86  1  0  0  0  0
 30 62  2  0  0  0  0
 30 69  1  0  0  0  0
 30 86  1  0  0  0  0
 31 68  1  0  0  0  0
 31 74  2  0  0  0  0
 32 70  1  0  0  0  0
 32 75  2  0  0  0  0
 33 34  2  0  0  0  0
 33 35  1  0  0  0  0
 33 81  1  0  0  0  0
 34 52  1  0  0  0  0
 34 83  1  0  0  0  0
 35 69  1  0  0  0  0
 35 76  2  0  0  0  0
 36 50  1  0  0  0  0
 36 71  1  0  0  0  0
 36 77  2  0  0  0  0
 37 58  1  0  0  0  0
 37 64  1  0  0  0  0
 37 78  2  0  0  0  0
 38 59  1  0  0  0  0
 38 72  1  0  0  0  0
 38 79  2  0  0  0  0
 39 65  1  0  0  0  0
 39 70  1  0  0  0  0
 39 80  2  0  0  0  0
 40 43  1  0  0  0  0
 41 50  1  0  0  0  0
 42 64  1  0  0  0  0
 43 45  1  0  0  0  0
 44 46  1  0  0  0  0
 44 47  1  0  0  0  0
 45 49  1  0  0  0  0
 46 51  1  0  0  0  0
 47 65  1  0  0  0  0
 48 51  1  0  0  0  0
 48 65  1  0  0  0  0
 49 71  1  0  0  0  0
 50 64  1  0  0  0  0
 51 63  1  0  0  0  0
 53 59  1  0  0  0  0
 54 60  1  0  0  0  0
 55 60  1  0  0  0  0
 56 60  1  0  0  0  0
 57 73  1  0  0  0  0
 58 60  1  0  0  0  0
 58 72  1  0  0  0  0
 59 73  1  0  0  0  0
 61 63  1  0  0  0  0
M  CHG  1  73   1
M  ISO  4  34 101  39 100  70 100  83 101
M  END
> <Batch ID>
0178

> <Smiles>
CNC(C)C(=O)NC(C(=O)N1Cc2cc([101O:1][101CH:1](C)C(=O)C(=O)Nc3nc(C(=O)[100NH:0][100C:0](=O)N4CCCC(n5nc(-c6ccc(Oc7ccc(F)cc7F)cc6)c(C(N)=O)c5N)C4)c(N)s3)ccc2CC1C(=O)NC1CCCc2ccccc21)C(C)(C)C

> <Shape>
0.214

> <Color>
0.069

> <Negative vol penalty>
0.000

$$$$

  -OEChem-04052304443D

 88 96  0     1  0  0  0  0  0999 V2000
  -17.0627  -28.0898   23.6045 C   0  0  0  0  0  0  0  0  0  0  0  0
  -18.2670  -27.4107   23.4496 C   0  0  0  0  0  0  0  0  0  0  0  0
  -23.3549   -9.6319   21.3967 C   0  0  0  0  0  0  0  0  0  0  0  0
  -23.9155  -10.6906   23.4947 C   0  0  0  0  0  0  0  0  0  0  0  0
  -17.0575  -29.4789   23.7244 C   0  0  0  0  0  0  0  0  0  0  0  0
  -19.4667  -28.1205   23.4134 C   0  0  0  0  0  0  0  0  0  0  0  0
  -23.0744  -25.9840   26.2533 C   0  0  0  0  0  0  0  0  0  0  0  0
  -22.7078   -8.6069   22.0867 C   0  0  0  0  0  0  0  0  0  0  0  0
  -23.2683   -9.6656   24.1849 C   0  0  0  0  0  0  0  0  0  0  0  0
  -23.7255  -24.8707   25.7239 C   0  0  0  0  0  0  0  0  0  0  0  0
  -19.7391   -8.1336   23.6346 C   0  0  0  0  0  0  0  0  0  0  0  0
  -18.4882   -7.7282   23.1695 C   0  0  0  0  0  0  0  0  0  0  0  0
  -25.5807  -26.2705   25.0774 C   0  0  0  0  0  0  0  0  0  0  0  0
  -19.3422   -5.4955   22.8189 C   0  0  0  0  0  0  0  0  0  0  0  0
  -23.9589  -10.6737   22.1007 C   0  0  0  0  0  0  0  0  0  0  0  0
  -24.0636  -12.9383   20.9309 C   0  0  0  0  0  0  0  0  0  0  0  0
  -18.2585  -30.2052   23.6994 C   0  0  0  0  0  0  0  0  0  0  0  0
  -23.6677  -27.2530   26.1888 C   0  0  0  0  0  0  0  0  0  0  0  0
  -19.4774  -29.5207   23.5317 C   0  0  0  0  0  0  0  0  0  0  0  0
  -24.9361  -27.3980   25.6089 C   0  0  0  0  0  0  0  0  0  0  0  0
  -22.6644   -8.6238   23.4808 C   0  0  0  0  0  0  0  0  0  0  0  0
  -24.9775  -25.0143   25.1333 C   0  0  0  0  0  0  0  0  0  0  0  0
  -20.7917   -7.2200   23.6918 C   0  0  0  0  0  0  0  0  0  0  0  0
  -18.2897   -6.4091   22.7617 C   0  0  0  0  0  0  0  0  0  0  0  0
  -20.5932   -5.9010   23.2840 C   0  0  0  0  0  0  0  0  0  0  0  0
  -24.6280  -11.7325   21.3884 C   0  0  0  0  0  0  0  0  0  0  0  0
  -29.7770  -20.1520   20.5011 C   0  0  0  0  0  0  0  0  0  0  0  0
  -30.9681  -19.6454   20.0247 C   0  0  0  0  0  0  0  0  0  0  0  0
  -25.1048  -13.5955   20.3221 C   0  0  0  0  0  0  0  0  0  0  0  0
  -29.9410  -17.7498   20.4271 C   0  0  0  0  0  0  0  0  0  0  0  0
  -22.7186  -13.4212   21.0461 C   0  0  0  0  0  0  0  0  0  0  0  0
  -29.3316  -21.5573   20.6848 C   0  0  0  0  0  0  0  0  0  0  0  0
  -22.9022  -30.0205   24.8255 C   0  0  0  0  0  0  0  0  0  0  0  0
  -26.5582  -22.9278   22.6216 C   0  0  0  0  0  0  0  0  0  0  0  0
  -25.5083  -31.0883   26.4351 C   0  0  0  0  0  0  0  0  0  0  0  0
  -28.4965  -30.3643   27.9159 C   0  0  0  0  0  0  0  0  0  0  0  0
  -30.4102  -15.2828   20.2276 C   0  0  0  0  0  0  0  0  0  0  0  0
  -18.1988  -31.7098   23.7853 C   0  0  0  0  0  0  0  0  0  0  0  0
  -22.9641  -28.4395   26.7883 C   0  0  0  0  0  0  0  0  0  0  0  0
  -25.6251  -28.7351   25.5327 C   0  0  0  0  0  0  0  0  0  0  0  0
  -19.5429  -32.3549   24.1131 C   0  0  0  0  0  0  0  0  0  0  0  0
  -29.7371  -11.9830   19.0720 C   0  0  0  0  0  0  0  0  0  0  0  0
  -20.6476  -31.7559   23.2484 C   0  0  0  0  0  0  0  0  0  0  0  0
  -28.3015  -11.7229   19.5340 C   0  0  0  0  0  0  0  0  0  0  0  0
  -30.5218  -12.8039   20.0938 C   0  0  0  0  0  0  0  0  0  0  0  0
  -28.4446  -13.7986   20.9685 C   0  0  0  0  0  0  0  0  0  0  0  0
  -20.8015  -30.2533   23.5127 C   0  0  1  0  0  0  0  0  0  0  0  0
  -23.4350  -29.7695   26.2078 C   0  0  1  0  0  0  0  0  0  0  0  0
  -27.5953  -13.0305   19.9426 C   0  0  2  0  0  0  0  0  0  0  0  0
  -32.1279  -20.4364   19.5646 C   0  0  0  0  0  0  0  0  0  0  0  0
  -30.4164  -31.4504   29.1125 C   0  0  0  0  0  0  0  0  0  0  0  0
  -26.5563  -32.1586   23.7769 C   0  0  0  0  0  0  0  0  0  0  0  0
  -28.8186  -32.3611   24.8301 C   0  0  0  0  0  0  0  0  0  0  0  0
  -26.9044  -33.6858   25.7265 C   0  0  0  0  0  0  0  0  0  0  0  0
  -28.0173  -28.7774   30.3677 C   0  0  0  0  0  0  0  0  0  0  0  0
  -26.4875  -24.1555   23.5089 C   0  0  0  0  0  0  0  0  0  1  0  0
  -27.4689  -23.0288   21.4067 C   0  0  2  0  0  0  0  0  0  0  0  0
  -26.9836  -31.1916   26.1324 C   0  0  1  0  0  0  0  0  0  0  0  0
  -29.0729  -30.7545   29.2650 C   0  0  2  0  0  0  0  0  0  0  0  0
  -27.3022  -32.3243   25.1160 C   0  0  0  0  0  0  0  0  0  0  0  0
  -26.6966  -23.5036   20.1959 C   0  0  0  0  0  0  0  0  0  0  0  0
  -25.9268  -11.6272   21.0951 N   0  0  0  0  0  0  0  0  0  0  0  0
  -31.0641  -18.2682   19.9819 N   0  0  0  0  0  0  0  0  0  0  0  0
  -26.1872  -12.7752   20.4468 N   0  0  0  0  0  0  0  0  0  0  0  0
  -24.8939  -29.8662   26.1273 N   0  0  0  0  0  0  0  0  0  0  0  0
  -29.7941  -14.0297   20.4298 N   0  0  0  0  0  0  0  0  0  0  0  0
  -25.1908  -14.7892   19.6976 N   0  0  0  0  0  0  0  0  0  0  0  0
  -21.7746  -12.6193   21.7021 N   0  0  0  0  0  0  0  0  0  0  0  0
  -29.6100  -16.3778   20.5521 N   0  0  0  0  0  0  0  0  0  0  0  0
  -28.0513  -21.7296   21.1952 N   0  0  0  0  0  0  0  0  0  0  0  0
  -21.5226  -30.0284   24.7471 N   0  0  0  0  0  0  0  0  0  0  0  0
  -27.6551  -31.3373   27.4193 N   0  0  0  0  0  0  0  0  0  0  0  0
  -29.2635  -29.5459   30.1159 N   0  3  0  0  0  0  0  0  0  0  0  0
  -22.3604  -14.5237   20.5667 O   0  0  0  0  0  0  0  0  0  0  0  0
  -30.0864  -22.4724   20.3667 O   0  0  0  0  0  0  0  0  0  0  0  0
  -23.6849  -30.1956   23.8990 O   0  0  0  0  0  0  0  0  0  0  0  0
  -25.8916  -21.9196   22.8567 O   0  0  0  0  0  0  0  0  0  0  0  0
  -24.9241  -32.0539   26.9331 O   0  0  0  0  0  0  0  0  0  0  0  0
  -28.7686  -29.3042   27.3568 O   0  0  0  0  0  0  0  0  0  0  0  0
  -31.5529  -15.3782   19.7725 O   0  0  0  0  0  0  0  0  0  0  0  0
  -22.0328   -7.6239   24.1545 O   0  0  0  0  0  0  0  0  0  0  0  0
  -25.6150  -23.9293   24.6152 O   0  0  0  0  0  0  0  0  0  1  0  0
  -17.0880   -6.0195   22.3165 F   0  0  0  0  0  0  0  0  0  0  0  0
  -21.6002   -5.0185   23.3377 F   0  0  0  0  0  0  0  0  0  0  0  0
  -27.4910  -23.5631   19.1043 F   0  0  0  0  0  0  0  0  0  0  0  0
  -26.1650  -24.7300   20.3870 F   0  0  0  0  0  0  0  0  0  0  0  0
  -25.6831  -22.6558   19.9089 F   0  0  0  0  0  0  0  0  0  0  0  0
  -28.7265  -18.8605   20.9134 S   0  0  0  0  0  0  0  0  0  0  0  0
  1  2  1  0  0  0  0
  1  5  2  0  0  0  0
  2  6  2  0  0  0  0
  3  8  2  0  0  0  0
  3 15  1  0  0  0  0
  4  9  1  0  0  0  0
  4 15  2  0  0  0  0
  5 17  1  0  0  0  0
  6 19  1  0  0  0  0
  7 10  2  0  0  0  0
  7 18  1  0  0  0  0
  8 21  1  0  0  0  0
  9 21  2  0  0  0  0
 10 22  1  0  0  0  0
 11 12  2  0  0  0  0
 11 23  1  0  0  0  0
 12 24  1  0  0  0  0
 13 20  1  0  0  0  0
 13 22  2  0  0  0  0
 14 24  2  0  0  0  0
 14 25  1  0  0  0  0
 15 26  1  0  0  0  0
 16 26  1  0  0  0  0
 16 29  2  0  0  0  0
 16 31  1  0  0  0  0
 17 19  2  0  0  0  0
 17 38  1  0  0  0  0
 18 20  2  0  0  0  0
 18 39  1  0  0  0  0
 19 47  1  0  0  0  0
 20 40  1  0  0  0  0
 21 81  1  0  0  0  0
 22 82  1  0  0  0  0
 23 25  2  0  0  0  0
 23 81  1  0  0  0  0
 24 83  1  0  0  0  0
 25 84  1  0  0  0  0
 26 62  2  0  0  0  0
 27 28  2  0  0  0  0
 27 32  1  0  0  0  0
 27 88  1  0  0  0  0
 28 50  1  0  0  0  0
 28 63  1  0  0  0  0
 29 64  1  0  0  0  0
 29 67  1  0  0  0  0
 30 63  2  0  0  0  0
 30 69  1  0  0  0  0
 30 88  1  0  0  0  0
 31 68  1  0  0  0  0
 31 74  2  0  0  0  0
 32 70  1  0  0  0  0
 32 75  2  0  0  0  0
 33 48  1  0  0  0  0
 33 71  1  0  0  0  0
 33 76  2  0  0  0  0
 34 56  1  0  0  0  0
 34 57  1  0  0  0  0
 34 77  2  0  0  0  0
 35 58  1  0  0  0  0
 35 65  1  0  0  0  0
 35 78  2  0  0  0  0
 36 59  1  0  0  0  0
 36 72  1  0  0  0  0
 36 79  2  0  0  0  0
 37 66  1  0  0  0  0
 37 69  1  0  0  0  0
 37 80  2  0  0  0  0
 38 41  1  0  0  0  0
 39 48  1  0  0  0  0
 40 65  1  0  0  0  0
 41 43  1  0  0  0  0
 42 44  1  0  0  0  0
 42 45  1  0  0  0  0
 43 47  1  0  0  0  0
 44 49  1  0  0  0  0
 45 66  1  0  0  0  0
 46 49  1  0  0  0  0
 46 66  1  0  0  0  0
 47 71  1  0  0  0  0
 48 65  1  0  0  0  0
 49 64  1  0  0  0  0
 51 59  1  0  0  0  0
 52 60  1  0  0  0  0
 53 60  1  0  0  0  0
 54 60  1  0  0  0  0
 55 73  1  0  0  0  0
 56 82  1  0  0  0  0
 57 61  1  0  0  0  0
 57 70  1  0  0  0  0
 58 60  1  0  0  0  0
 58 72  1  0  0  0  0
 59 73  1  0  0  0  0
 61 85  1  0  0  0  0
 61 86  1  0  0  0  0
 61 87  1  0  0  0  0
 62 64  1  0  0  0  0
M  CHG  1  73   1
M  ISO  4  37 100  56 101  69 100  82 101
M  END
> <Batch ID>
0178

> <Smiles>
CNC(C)C(=O)NC(C(=O)N1Cc2cc([101O:1][101CH2:1]C(=O)C(NC(=O)c3sc([100NH:0][100C:0](=O)N4CCCC(n5nc(-c6ccc(Oc7ccc(F)cc7F)cc6)c(C(N)=O)c5N)C4)nc3C)C(F)(F)F)ccc2CC1C(=O)NC1CCCc2ccccc21)C(C)(C)C

> <Shape>
0.284

> <Color>
0.142

> <Negative vol penalty>
0.000

$$$$

  -OEChem-04052304443D

 85 93  0     1  0  0  0  0  0999 V2000
  -27.3738  -11.6490   18.7084 C   0  0  0  0  0  0  0  0  0  0  0  0
  -27.9846  -12.8811   18.4982 C   0  0  0  0  0  0  0  0  0  0  0  0
  -19.1112  -28.4679   23.5512 C   0  0  0  0  0  0  0  0  0  0  0  0
  -20.6466  -26.9840   22.4208 C   0  0  0  0  0  0  0  0  0  0  0  0
  -26.0237  -11.5911   19.0516 C   0  0  0  0  0  0  0  0  0  0  0  0
  -27.2453  -14.0561   18.6300 C   0  0  0  0  0  0  0  0  0  0  0  0
  -29.2444  -19.4462   20.7412 C   0  0  0  0  0  0  0  0  0  0  0  0
  -18.0796  -28.0350   22.7182 C   0  0  0  0  0  0  0  0  0  0  0  0
  -19.6150  -26.5510   21.5878 C   0  0  0  0  0  0  0  0  0  0  0  0
  -29.6750  -20.6048   20.0962 C   0  0  0  0  0  0  0  0  0  0  0  0
  -16.9940  -24.4256   21.7705 C   0  0  0  0  0  0  0  0  0  0  0  0
  -16.8769  -23.0540   21.5456 C   0  0  0  0  0  0  0  0  0  0  0  0
  -27.4640  -21.5433   20.3190 C   0  0  0  0  0  0  0  0  0  0  0  0
  -17.1885  -23.4157   19.1772 C   0  0  0  0  0  0  0  0  0  0  0  0
  -30.6722  -30.8467   21.2759 C   0  0  0  0  0  0  0  0  0  0  0  0
  -20.3948  -27.9424   23.4025 C   0  0  0  0  0  0  0  0  0  0  0  0
  -21.8417  -27.8396   25.5009 C   0  0  0  0  0  0  0  0  0  0  0  0
  -25.2699  -12.7664   19.1971 C   0  0  0  0  0  0  0  0  0  0  0  0
  -27.9153  -19.3229   21.1709 C   0  0  0  0  0  0  0  0  0  0  0  0
  -25.8835  -14.0138   18.9742 C   0  0  0  0  0  0  0  0  0  0  0  0
  -27.0197  -20.3832   20.9714 C   0  0  0  0  0  0  0  0  0  0  0  0
  -29.8416  -28.6410   20.8677 C   0  0  0  0  0  0  0  0  0  0  0  0
  -18.3314  -27.0765   21.7365 C   0  0  0  0  0  0  0  0  0  0  0  0
  -28.7841  -21.6524   19.8825 C   0  0  0  0  0  0  0  0  0  0  0  0
  -17.2082  -25.2923   20.6987 C   0  0  0  0  0  0  0  0  0  0  0  0
  -16.9743  -22.5490   20.2490 C   0  0  0  0  0  0  0  0  0  0  0  0
  -17.3055  -24.7873   19.4021 C   0  0  0  0  0  0  0  0  0  0  0  0
  -30.8805  -29.5635   20.7906 C   0  0  0  0  0  0  0  0  0  0  0  0
  -28.6220  -29.0148   21.4242 C   0  0  0  0  0  0  0  0  0  0  0  0
  -21.4610  -28.3896   24.2623 C   0  0  0  0  0  0  0  0  0  0  0  0
  -22.8968  -28.6168   25.9121 C   0  0  0  0  0  0  0  0  0  0  0  0
  -28.4710  -30.3119   21.8936 C   0  0  0  0  0  0  0  0  0  0  0  0
  -21.2908  -26.7256   26.2160 C   0  0  0  0  0  0  0  0  0  0  0  0
  -25.5068  -17.3668   20.4802 C   0  0  0  0  0  0  0  0  0  0  0  0
  -29.5069  -25.1769   19.4732 C   0  0  0  0  0  0  0  0  0  0  0  0
  -24.0340  -18.9597   22.8919 C   0  0  0  0  0  0  0  0  0  0  0  0
  -23.8112  -21.7927   24.7815 C   0  0  0  0  0  0  0  0  0  0  0  0
  -26.8968  -31.9507   22.9811 C   0  0  0  0  0  0  0  0  0  0  0  0
  -23.8018  -12.6515   19.5231 C   0  0  0  0  0  0  0  0  0  0  0  0
  -27.4733  -18.0772   21.8888 C   0  0  0  0  0  0  0  0  0  0  0  0
  -25.5875  -20.3087   21.4317 C   0  0  0  0  0  0  0  0  0  0  0  0
  -23.1818  -13.9588   20.0097 C   0  0  0  0  0  0  0  0  0  0  0  0
  -24.6564  -33.0535   25.5191 C   0  0  0  0  0  0  0  0  0  0  0  0
  -23.6004  -15.1161   19.1084 C   0  0  0  0  0  0  0  0  0  0  0  0
  -23.6208  -31.9297   25.6018 C   0  0  0  0  0  0  0  0  0  0  0  0
  -25.1198  -33.2931   24.0833 C   0  0  0  0  0  0  0  0  0  0  0  0
  -24.5662  -30.9745   23.4615 C   0  0  0  0  0  0  0  0  0  0  0  0
  -25.1212  -15.3115   19.1320 C   0  0  1  0  0  0  0  0  0  0  0  0
  -25.9655  -17.8542   21.8255 C   0  0  1  0  0  0  0  0  0  0  0  0
  -24.1175  -30.6525   24.8963 C   0  0  2  0  0  0  0  0  0  0  0  0
  -28.3589  -27.2372   18.6336 C   0  0  0  0  0  0  0  0  0  0  0  0
  -22.4848  -22.8146   26.6507 C   0  0  0  0  0  0  0  0  0  0  0  0
  -21.7390  -19.5113   20.9583 C   0  0  0  0  0  0  0  0  0  0  0  0
  -20.9313  -21.2831   22.5321 C   0  0  0  0  0  0  0  0  0  0  0  0
  -21.0263  -18.9044   23.2774 C   0  0  0  0  0  0  0  0  0  0  0  0
  -26.2000  -22.0056   26.5156 C   0  0  0  0  0  0  0  0  0  0  0  0
  -28.5538  -24.0039   19.6117 C   0  0  0  0  0  0  0  0  0  1  0  0
  -28.9528  -26.5442   19.8484 C   0  0  2  0  0  0  0  0  0  0  0  0
  -23.1783  -20.1996   22.9883 C   0  0  1  0  0  0  0  0  0  0  0  0
  -23.7132  -21.9972   26.2826 C   0  0  2  0  0  0  0  0  0  0  0  0
  -21.7452  -19.9755   22.4285 C   0  0  0  0  0  0  0  0  0  0  0  0
  -22.2131  -29.4356   23.9096 N   0  0  0  0  0  0  0  0  0  0  0  0
  -23.0768  -29.5491   24.9330 N   0  0  0  0  0  0  0  0  0  0  0  0
  -29.4880  -31.1801   21.8070 N   0  3  0  0  0  0  0  0  0  0  0  0
  -25.2016  -19.0676   22.1232 N   0  0  0  0  0  0  0  0  0  0  0  0
  -25.5802  -32.0404   23.4805 N   0  0  0  0  0  0  0  0  0  0  0  0
  -23.6789  -28.5870   27.0120 N   0  0  0  0  0  0  0  0  0  0  0  0
  -20.2085  -26.0378   25.6503 N   0  0  0  0  0  0  0  0  0  0  0  0
  -30.0214  -27.3539   20.3911 N   0  0  0  0  0  0  0  0  0  0  0  0
  -27.2323  -30.7010   22.4610 N   0  0  0  0  0  0  0  0  0  0  0  0
  -25.5246  -15.9918   20.3439 N   0  0  0  0  0  0  0  0  0  0  0  0
  -23.2156  -20.6135   24.3868 N   0  0  0  0  0  0  0  0  0  0  0  0
  -24.9206  -22.7097   26.7882 N   0  3  0  0  0  0  0  0  0  0  0  0
  -21.7343  -26.3614   27.3314 O   0  0  0  0  0  0  0  0  0  0  0  0
  -25.1610  -18.1781   19.6294 O   0  0  0  0  0  0  0  0  0  0  0  0
  -30.6600  -25.0239   19.0693 O   0  0  0  0  0  0  0  0  0  0  0  0
  -23.6833  -17.9353   23.4828 O   0  0  0  0  0  0  0  0  0  0  0  0
  -24.3580  -22.6003   24.0336 O   0  0  0  0  0  0  0  0  0  0  0  0
  -27.6785  -32.9034   23.0373 O   0  0  0  0  0  0  0  0  0  0  0  0
  -17.3249  -26.6537   20.9237 O   0  0  0  0  0  0  0  0  0  0  0  0
  -29.2016  -22.7842   19.2527 O   0  0  0  0  0  0  0  0  0  1  0  0
  -16.8634  -21.2317   20.0334 F   0  0  0  0  0  0  0  0  0  0  0  0
  -17.5125  -25.6149   18.3686 F   0  0  0  0  0  0  0  0  0  0  0  0
  -32.0640  -29.2302   20.2596 F   0  0  0  0  0  0  0  0  0  0  0  0
  -27.6129  -28.1355   21.5051 F   0  0  0  0  0  0  0  0  0  0  0  0
  1  2  1  0  0  0  0
  1  5  2  0  0  0  0
  2  6  2  0  0  0  0
  3  8  2  0  0  0  0
  3 16  1  0  0  0  0
  4  9  1  0  0  0  0
  4 16  2  0  0  0  0
  5 18  1  0  0  0  0
  6 20  1  0  0  0  0
  7 10  2  0  0  0  0
  7 19  1  0  0  0  0
  8 23  1  0  0  0  0
  9 23  2  0  0  0  0
 10 24  1  0  0  0  0
 11 12  2  0  0  0  0
 11 25  1  0  0  0  0
 12 26  1  0  0  0  0
 13 21  1  0  0  0  0
 13 24  2  0  0  0  0
 14 26  2  0  0  0  0
 14 27  1  0  0  0  0
 15 28  2  0  0  0  0
 15 64  1  0  0  0  0
 16 30  1  0  0  0  0
 17 30  1  0  0  0  0
 17 31  2  0  0  0  0
 17 33  1  0  0  0  0
 18 20  2  0  0  0  0
 18 39  1  0  0  0  0
 19 21  2  0  0  0  0
 19 40  1  0  0  0  0
 20 48  1  0  0  0  0
 21 41  1  0  0  0  0
 22 28  1  0  0  0  0
 22 29  2  0  0  0  0
 22 69  1  0  0  0  0
 23 80  1  0  0  0  0
 24 81  1  0  0  0  0
 25 27  2  0  0  0  0
 25 80  1  0  0  0  0
 26 82  1  0  0  0  0
 27 83  1  0  0  0  0
 28 84  1  0  0  0  0
 29 32  1  0  0  0  0
 29 85  1  0  0  0  0
 30 62  2  0  0  0  0
 31 63  1  0  0  0  0
 31 67  1  0  0  0  0
 32 64  2  0  0  0  0
 32 70  1  0  0  0  0
 33 68  1  0  0  0  0
 33 74  2  0  0  0  0
 34 49  1  0  0  0  0
 34 71  1  0  0  0  0
 34 75  2  0  0  0  0
 35 57  1  0  0  0  0
 35 58  1  0  0  0  0
 35 76  2  0  0  0  0
 36 59  1  0  0  0  0
 36 65  1  0  0  0  0
 36 77  2  0  0  0  0
 37 60  1  0  0  0  0
 37 72  1  0  0  0  0
 37 78  2  0  0  0  0
 38 66  1  0  0  0  0
 38 70  1  0  0  0  0
 38 79  2  0  0  0  0
 39 42  1  0  0  0  0
 40 49  1  0  0  0  0
 41 65  1  0  0  0  0
 42 44  1  0  0  0  0
 43 45  1  0  0  0  0
 43 46  1  0  0  0  0
 44 48  1  0  0  0  0
 45 50  1  0  0  0  0
 46 66  1  0  0  0  0
 47 50  1  0  0  0  0
 47 66  1  0  0  0  0
 48 71  1  0  0  0  0
 49 65  1  0  0  0  0
 50 63  1  0  0  0  0
 51 58  1  0  0  0  0
 52 60  1  0  0  0  0
 53 61  1  0  0  0  0
 54 61  1  0  0  0  0
 55 61  1  0  0  0  0
 56 73  1  0  0  0  0
 57 81  1  0  0  0  0
 58 69  1  0  0  0  0
 59 61  1  0  0  0  0
 59 72  1  0  0  0  0
 60 73  1  0  0  0  0
 62 63  1  0  0  0  0
M  CHG  2  64   1  73   1
M  ISO  4  38 100  57 101  70 100  81 101
M  END
> <Batch ID>
0178

> <Smiles>
CNC(C)C(=O)NC(C(=O)N1Cc2cc([101O:1][101CH2:1]C(=O)C(C)Nc3c(F)cnc([100NH:0][100C:0](=O)N4CCCC(n5nc(-c6ccc(Oc7ccc(F)cc7F)cc6)c(C(N)=O)c5N)C4)c3F)ccc2CC1C(=O)NC1CCCc2ccccc21)C(C)(C)C

> <Shape>
0.214

> <Color>
0.059

> <Negative vol penalty>
0.000

$$$$

  -OEChem-04052304443D

 88 96  0     1  0  0  0  0  0999 V2000
  -27.2288  -24.4758   16.7112 C   0  0  0  0  0  0  0  0  0  0  0  0
  -26.0473  -24.8863   17.3203 C   0  0  0  0  0  0  0  0  0  0  0  0
  -26.6173  -12.7414   21.4121 C   0  0  0  0  0  0  0  0  0  0  0  0
  -25.1053  -13.9591   19.9740 C   0  0  0  0  0  0  0  0  0  0  0  0
  -28.4538  -24.7295   17.3269 C   0  0  0  0  0  0  0  0  0  0  0  0
  -26.0901  -25.5497   18.5460 C   0  0  0  0  0  0  0  0  0  0  0  0
  -23.0273  -29.5803   18.6814 C   0  0  0  0  0  0  0  0  0  0  0  0
  -25.6454  -11.7592   21.6024 C   0  0  0  0  0  0  0  0  0  0  0  0
  -24.1333  -12.9768   20.1643 C   0  0  0  0  0  0  0  0  0  0  0  0
  -21.6665  -29.3400   18.8671 C   0  0  0  0  0  0  0  0  0  0  0  0
  -21.8918  -12.1182   22.5452 C   0  0  0  0  0  0  0  0  0  0  0  0
  -20.5879  -12.5388   22.8071 C   0  0  0  0  0  0  0  0  0  0  0  0
  -21.8932  -29.8967   21.2033 C   0  0  0  0  0  0  0  0  0  0  0  0
  -25.4436  -23.2070   22.0147 C   0  0  0  0  0  0  0  0  0  0  0  0
  -19.8203  -11.3949   20.8223 C   0  0  0  0  0  0  0  0  0  0  0  0
  -24.8260  -22.1099   19.9969 C   0  0  0  0  0  0  0  0  0  0  0  0
  -26.3472  -13.8414   20.5979 C   0  0  0  0  0  0  0  0  0  0  0  0
  -28.3362  -14.8946   19.3970 C   0  0  0  0  0  0  0  0  0  0  0  0
  -28.5121  -25.4049   18.5561 C   0  0  0  0  0  0  0  0  0  0  0  0
  -23.8347  -29.9707   19.7594 C   0  0  0  0  0  0  0  0  0  0  0  0
  -27.3169  -25.8114   19.1794 C   0  0  0  0  0  0  0  0  0  0  0  0
  -23.2633  -30.1438   21.0282 C   0  0  0  0  0  0  0  0  0  0  0  0
  -25.6577  -22.1793   21.1029 C   0  0  0  0  0  0  0  0  0  0  0  0
  -24.4034  -11.8769   20.9784 C   0  0  0  0  0  0  0  0  0  0  0  0
  -21.0998  -29.4954   20.1287 C   0  0  0  0  0  0  0  0  0  0  0  0
  -22.1600  -11.3360   21.4219 C   0  0  0  0  0  0  0  0  0  0  0  0
  -19.5522  -12.1772   21.9457 C   0  0  0  0  0  0  0  0  0  0  0  0
  -24.4189  -24.1209   21.7957 C   0  0  0  0  0  0  0  0  0  0  0  0
  -21.1242  -10.9743   20.5605 C   0  0  0  0  0  0  0  0  0  0  0  0
  -27.3506  -14.8566   20.4014 C   0  0  0  0  0  0  0  0  0  0  0  0
  -23.6428  -23.9647   20.6585 C   0  0  0  0  0  0  0  0  0  0  0  0
  -29.0330  -16.0523   19.6432 C   0  0  0  0  0  0  0  0  0  0  0  0
  -28.5984  -13.9664   18.3361 C   0  0  0  0  0  0  0  0  0  0  0  0
  -26.3569  -28.7249   21.2393 C   0  0  0  0  0  0  0  0  0  0  0  0
  -26.3283  -31.5503   22.8326 C   0  0  0  0  0  0  0  0  0  0  0  0
  -19.4292  -25.8020   21.0739 C   0  0  0  0  0  0  0  0  0  0  0  0
  -24.5472  -34.2632   23.8883 C   0  0  0  0  0  0  0  0  0  0  0  0
  -27.6010  -21.1800   22.3564 C   0  0  0  0  0  0  0  0  0  0  0  0
  -29.8568  -25.6145   19.2062 C   0  0  0  0  0  0  0  0  0  0  0  0
  -25.2955  -30.2519   19.5371 C   0  0  0  0  0  0  0  0  0  0  0  0
  -24.0827  -30.5808   22.2140 C   0  0  0  0  0  0  0  0  0  0  0  0
  -29.8378  -26.6546   20.3233 C   0  0  0  0  0  0  0  0  0  0  0  0
  -30.2721  -18.9889   23.2175 C   0  0  0  0  0  0  0  0  0  0  0  0
  -28.6512  -26.4187   21.2522 C   0  0  0  0  0  0  0  0  0  0  0  0
  -29.9189  -17.6859   22.4967 C   0  0  0  0  0  0  0  0  0  0  0  0
  -29.0280  -19.6978   23.7499 C   0  0  0  0  0  0  0  0  0  0  0  0
  -27.6199  -18.6282   22.0346 C   0  0  0  0  0  0  0  0  0  0  0  0
  -27.3236  -26.5557   20.4970 C   0  0  1  0  0  0  0  0  0  0  0  0
  -26.1251  -30.1469   20.8130 C   0  0  1  0  0  0  0  0  0  0  0  0
  -28.8351  -17.9111   21.4242 C   0  0  2  0  0  0  0  0  0  0  0  0
  -24.7871  -36.3871   25.2031 C   0  0  0  0  0  0  0  0  0  0  0  0
  -26.3061  -29.9440   25.4267 C   0  0  0  0  0  0  0  0  0  0  0  0
  -25.5955  -32.0234   26.6265 C   0  0  0  0  0  0  0  0  0  0  0  0
  -27.7969  -31.9517   25.4556 C   0  0  0  0  0  0  0  0  0  0  0  0
  -23.8191  -35.9281   21.5523 C   0  0  0  0  0  0  0  0  0  0  0  0
  -18.3688  -26.7405   20.5262 C   0  0  0  0  0  0  0  0  0  0  0  0
  -18.1197  -27.9353   21.4396 C   0  0  0  0  0  0  0  0  0  0  0  0
  -21.1766  -24.2132   20.3186 C   0  0  0  0  0  0  0  0  0  0  0  0
  -19.3675  -28.7919   21.5984 C   0  0  0  0  0  0  0  0  0  1  0  0
  -25.6708  -32.0608   24.0920 C   0  0  1  0  0  0  0  0  0  0  0  0
  -24.8440  -35.7505   23.8231 C   0  0  2  0  0  0  0  0  0  0  0  0
  -22.5209  -24.9371   20.3856 C   0  0  0  0  0  0  0  0  0  0  0  0
  -26.3270  -31.4849   25.3785 C   0  0  0  0  0  0  0  0  0  0  0  0
  -23.8205  -22.9792   19.7503 N   0  0  0  0  0  0  0  0  0  0  0  0
  -27.4126  -15.9067   21.2246 N   0  0  0  0  0  0  0  0  0  0  0  0
  -28.4455  -16.6153   20.7378 N   0  0  0  0  0  0  0  0  0  0  0  0
  -25.5077  -30.8374   21.9471 N   0  0  0  0  0  0  0  0  0  0  0  0
  -28.0474  -19.8806   22.6775 N   0  0  0  0  0  0  0  0  0  0  0  0
  -30.0849  -16.6334   19.0282 N   0  0  0  0  0  0  0  0  0  0  0  0
  -27.7867  -12.8290   18.2277 N   0  0  0  0  0  0  0  0  0  0  0  0
  -26.6941  -21.2330   21.2985 N   0  0  0  0  0  0  0  0  0  0  0  0
  -27.0004  -27.9514   20.2921 N   0  0  0  0  0  0  0  0  0  0  0  0
  -20.1167  -25.1576   20.0558 N   0  0  0  0  0  0  0  0  0  0  0  0
  -25.7006  -33.5169   24.0065 N   0  0  0  0  0  0  0  0  0  0  0  0
  -23.8539  -36.4384   22.9470 N   0  3  0  0  0  0  0  0  0  0  0  0
  -29.5354  -14.1322   17.5187 O   0  0  0  0  0  0  0  0  0  0  0  0
  -25.9812  -28.3571   22.3462 O   0  0  0  0  0  0  0  0  0  0  0  0
  -27.5243  -31.7818   22.6383 O   0  0  0  0  0  0  0  0  0  0  0  0
  -19.6380  -25.6468   22.2741 O   0  0  0  0  0  0  0  0  0  0  0  0
  -23.4060  -33.8090   23.8428 O   0  0  0  0  0  0  0  0  0  0  0  0
  -28.0150  -22.1752   22.9565 O   0  0  0  0  0  0  0  0  0  0  0  0
  -23.4548  -10.9185   21.1637 O   0  0  0  0  0  0  0  0  0  0  0  0
  -19.7721  -29.2609   20.3128 O   0  0  0  0  0  0  0  0  0  1  0  0
  -18.2999  -12.5799   22.1981 F   0  0  0  0  0  0  0  0  0  0  0  0
  -24.1974  -25.1165   22.6626 F   0  0  0  0  0  0  0  0  0  0  0  0
  -21.3755  -10.2220   19.4803 F   0  0  0  0  0  0  0  0  0  0  0  0
  -22.4388  -25.9053   21.3453 F   0  0  0  0  0  0  0  0  0  0  0  0
  -22.7031  -25.6117   19.2123 F   0  0  0  0  0  0  0  0  0  0  0  0
  1  2  1  0  0  0  0
  1  5  2  0  0  0  0
  2  6  2  0  0  0  0
  3  8  2  0  0  0  0
  3 17  1  0  0  0  0
  4  9  1  0  0  0  0
  4 17  2  0  0  0  0
  5 19  1  0  0  0  0
  6 21  1  0  0  0  0
  7 10  2  0  0  0  0
  7 20  1  0  0  0  0
  8 24  1  0  0  0  0
  9 24  2  0  0  0  0
 10 25  1  0  0  0  0
 11 12  2  0  0  0  0
 11 26  1  0  0  0  0
 12 27  1  0  0  0  0
 13 22  1  0  0  0  0
 13 25  2  0  0  0  0
 14 23  2  0  0  0  0
 14 28  1  0  0  0  0
 15 27  2  0  0  0  0
 15 29  1  0  0  0  0
 16 23  1  0  0  0  0
 16 64  2  0  0  0  0
 17 30  1  0  0  0  0
 18 30  1  0  0  0  0
 18 32  2  0  0  0  0
 18 33  1  0  0  0  0
 19 21  2  0  0  0  0
 19 39  1  0  0  0  0
 20 22  2  0  0  0  0
 20 40  1  0  0  0  0
 21 48  1  0  0  0  0
 22 41  1  0  0  0  0
 23 71  1  0  0  0  0
 24 82  1  0  0  0  0
 25 83  1  0  0  0  0
 26 29  2  0  0  0  0
 26 82  1  0  0  0  0
 27 84  1  0  0  0  0
 28 31  2  0  0  0  0
 28 85  1  0  0  0  0
 29 86  1  0  0  0  0
 30 65  2  0  0  0  0
 31 62  1  0  0  0  0
 31 64  1  0  0  0  0
 32 66  1  0  0  0  0
 32 69  1  0  0  0  0
 33 70  1  0  0  0  0
 33 76  2  0  0  0  0
 34 49  1  0  0  0  0
 34 72  1  0  0  0  0
 34 77  2  0  0  0  0
 35 60  1  0  0  0  0
 35 67  1  0  0  0  0
 35 78  2  0  0  0  0
 36 56  1  0  0  0  0
 36 73  1  0  0  0  0
 36 79  2  0  0  0  0
 37 61  1  0  0  0  0
 37 74  1  0  0  0  0
 37 80  2  0  0  0  0
 38 68  1  0  0  0  0
 38 71  1  0  0  0  0
 38 81  2  0  0  0  0
 39 42  1  0  0  0  0
 40 49  1  0  0  0  0
 41 67  1  0  0  0  0
 42 44  1  0  0  0  0
 43 45  1  0  0  0  0
 43 46  1  0  0  0  0
 44 48  1  0  0  0  0
 45 50  1  0  0  0  0
 46 68  1  0  0  0  0
 47 50  1  0  0  0  0
 47 68  1  0  0  0  0
 48 72  1  0  0  0  0
 49 67  1  0  0  0  0
 50 66  1  0  0  0  0
 51 61  1  0  0  0  0
 52 63  1  0  0  0  0
 53 63  1  0  0  0  0
 54 63  1  0  0  0  0
 55 75  1  0  0  0  0
 56 57  1  0  0  0  0
 57 59  1  0  0  0  0
 58 62  1  0  0  0  0
 58 73  1  0  0  0  0
 59 83  1  0  0  0  0
 60 63  1  0  0  0  0
 60 74  1  0  0  0  0
 61 75  1  0  0  0  0
 62 87  1  0  0  0  0
 62 88  1  0  0  0  0
 65 66  1  0  0  0  0
M  CHG  1  75   1
M  ISO  4  38 100  59 101  71 100  83 101
M  END
> <Batch ID>
0178

> <Smiles>
CNC(C)C(=O)NC(C(=O)N1Cc2cc([101O:1][101CH2:1]CCC(=O)NCC(F)(F)c3ncc([100NH:0][100C:0](=O)N4CCCC(n5nc(-c6ccc(Oc7ccc(F)cc7F)cc6)c(C(N)=O)c5N)C4)cc3F)ccc2CC1C(=O)NC1CCCc2ccccc21)C(C)(C)C

> <Shape>
0.310

> <Color>
0.071

> <Negative vol penalty>
0.000

$$$$

  -OEChem-04052304443D

 84 92  0     1  0  0  0  0  0999 V2000
  -29.6453  -37.8560   17.6142 C   0  0  0  0  0  0  0  0  0  0  0  0
  -29.8483  -36.4862   17.4807 C   0  0  0  0  0  0  0  0  0  0  0  0
  -24.6805   -8.9318   21.7974 C   0  0  0  0  0  0  0  0  0  0  0  0
  -23.0449  -10.3135   20.6780 C   0  0  0  0  0  0  0  0  0  0  0  0
  -29.1699  -38.3750   18.8178 C   0  0  0  0  0  0  0  0  0  0  0  0
  -29.5770  -35.6347   18.5511 C   0  0  0  0  0  0  0  0  0  0  0  0
  -27.3860  -29.9238   18.2487 C   0  0  0  0  0  0  0  0  0  0  0  0
  -23.6603   -8.2999   22.5082 C   0  0  0  0  0  0  0  0  0  0  0  0
  -22.0246   -9.6815   21.3888 C   0  0  0  0  0  0  0  0  0  0  0  0
  -28.0064  -28.6767   18.3089 C   0  0  0  0  0  0  0  0  0  0  0  0
  -21.4568   -6.0736   24.3531 C   0  0  0  0  0  0  0  0  0  0  0  0
  -21.5033   -4.6834   24.4564 C   0  0  0  0  0  0  0  0  0  0  0  0
  -27.5077  -28.5490   20.6656 C   0  0  0  0  0  0  0  0  0  0  0  0
  -21.3998   -4.5011   22.0495 C   0  0  0  0  0  0  0  0  0  0  0  0
  -24.3729   -9.9387   20.8824 C   0  0  0  0  0  0  0  0  0  0  0  0
  -25.9570  -10.2106   18.9014 C   0  0  0  0  0  0  0  0  0  0  0  0
  -28.8835  -37.5284   19.9003 C   0  0  0  0  0  0  0  0  0  0  0  0
  -26.8304  -30.4987   19.4008 C   0  0  0  0  0  0  0  0  0  0  0  0
  -29.0986  -36.1430   19.7707 C   0  0  0  0  0  0  0  0  0  0  0  0
  -26.8785  -29.8024   20.6169 C   0  0  0  0  0  0  0  0  0  0  0  0
  -22.3323   -8.6746   22.3039 C   0  0  0  0  0  0  0  0  0  0  0  0
  -28.0699  -27.9904   19.5180 C   0  0  0  0  0  0  0  0  0  0  0  0
  -21.3817   -6.6776   23.0980 C   0  0  0  0  0  0  0  0  0  0  0  0
  -21.4748   -3.8971   23.3046 C   0  0  0  0  0  0  0  0  0  0  0  0
  -21.3533   -5.8914   21.9462 C   0  0  0  0  0  0  0  0  0  0  0  0
  -25.4264  -10.5923   20.1482 C   0  0  0  0  0  0  0  0  0  0  0  0
  -26.0339  -18.1416   19.1225 C   0  0  0  0  0  0  0  0  0  0  0  0
  -26.9265  -11.1476   18.6395 C   0  0  0  0  0  0  0  0  0  0  0  0
  -24.8327  -18.2143   18.4488 C   0  0  0  0  0  0  0  0  0  0  0  0
  -26.0916  -20.2642   18.5736 C   0  0  0  0  0  0  0  0  0  0  0  0
  -27.6461  -23.6838   18.4809 C   0  0  0  0  0  0  0  0  0  0  0  0
  -25.6050   -9.1077   18.0556 C   0  0  0  0  0  0  0  0  0  0  0  0
  -28.6484  -24.5202   18.7960 C   0  0  0  0  0  0  0  0  0  0  0  0
  -27.6246  -22.2372   18.8658 C   0  0  0  0  0  0  0  0  0  0  0  0
  -27.3788  -33.1442   21.0754 C   0  0  0  0  0  0  0  0  0  0  0  0
  -24.7451  -32.1887   22.7104 C   0  0  0  0  0  0  0  0  0  0  0  0
  -22.6889  -29.6332   23.6527 C   0  0  0  0  0  0  0  0  0  0  0  0
  -27.7290  -16.7970   20.4129 C   0  0  0  0  0  0  0  0  0  0  0  0
  -28.4163  -38.1408   21.1970 C   0  0  0  0  0  0  0  0  0  0  0  0
  -26.1411  -31.8327   19.3136 C   0  0  0  0  0  0  0  0  0  0  0  0
  -26.2794  -30.3669   21.8782 C   0  0  0  0  0  0  0  0  0  0  0  0
  -27.7975  -37.1305   22.1596 C   0  0  0  0  0  0  0  0  0  0  0  0
  -29.9922  -14.0843   20.8558 C   0  0  0  0  0  0  0  0  0  0  0  0
  -28.6714  -35.8843   22.2599 C   0  0  0  0  0  0  0  0  0  0  0  0
  -29.1279  -12.8464   20.6051 C   0  0  0  0  0  0  0  0  0  0  0  0
  -29.2144  -15.1821   21.5793 C   0  0  0  0  0  0  0  0  0  0  0  0
  -27.0800  -14.3244   20.6972 C   0  0  0  0  0  0  0  0  0  0  0  0
  -28.7923  -35.1844   20.9009 C   0  0  1  0  0  0  0  0  0  0  0  0
  -26.0625  -32.5535   20.6559 C   0  0  1  0  0  0  0  0  0  0  0  0
  -27.8013  -13.2161   19.9130 C   0  0  2  0  0  0  0  0  0  0  0  0
  -20.6405  -29.1554   25.0214 C   0  0  0  0  0  0  0  0  0  0  0  0
  -26.4010  -32.4157   25.2631 C   0  0  0  0  0  0  0  0  0  0  0  0
  -24.6575  -31.0514   26.4324 C   0  0  0  0  0  0  0  0  0  0  0  0
  -24.0584  -33.2690   25.4598 C   0  0  0  0  0  0  0  0  0  0  0  0
  -21.1984  -28.6519   21.2917 C   0  0  0  0  0  0  0  0  0  0  0  0
  -28.6359  -25.9678   18.4024 C   0  0  0  0  0  0  0  0  0  1  0  0
  -24.4935  -31.3151   23.9155 C   0  0  1  0  0  0  0  0  0  0  0  0
  -21.1767  -29.5004   23.6408 C   0  0  2  0  0  0  0  0  0  0  0  0
  -24.9157  -32.0028   25.2445 C   0  0  0  0  0  0  0  0  0  0  0  0
  -26.0105  -11.6864   20.6441 N   0  0  0  0  0  0  0  0  0  0  0  0
  -26.7574  -19.3160   19.1947 N   0  0  0  0  0  0  0  0  0  0  0  0
  -26.9183  -12.0001   19.7040 N   0  0  0  0  0  0  0  0  0  0  0  0
  -25.6218  -31.6772   21.7431 N   0  0  0  0  0  0  0  0  0  0  0  0
  -27.9721  -15.4825   20.8642 N   0  0  0  0  0  0  0  0  0  0  0  0
  -27.7768  -11.3171   17.6048 N   0  0  0  0  0  0  0  0  0  0  0  0
  -24.5865   -8.2416   18.4763 N   0  0  0  0  0  0  0  0  0  0  0  0
  -26.5308  -16.9554   19.7173 N   0  0  0  0  0  0  0  0  0  0  0  0
  -26.4673  -21.6200   18.4064 N   0  0  0  0  0  0  0  0  0  0  0  0
  -27.5921  -34.4288   20.6130 N   0  0  0  0  0  0  0  0  0  0  0  0
  -23.0854  -30.9376   23.8592 N   0  0  0  0  0  0  0  0  0  0  0  0
  -20.7583  -28.4292   22.6930 N   0  3  0  0  0  0  0  0  0  0  0  0
  -26.1878   -8.8871   16.9669 O   0  0  0  0  0  0  0  0  0  0  0  0
  -28.5387  -21.7272   19.5018 O   0  0  0  0  0  0  0  0  0  0  0  0
  -28.1438  -32.4839   21.7687 O   0  0  0  0  0  0  0  0  0  0  0  0
  -24.1790  -33.2815   22.6268 O   0  0  0  0  0  0  0  0  0  0  0  0
  -23.4429  -28.6750   23.4983 O   0  0  0  0  0  0  0  0  0  0  0  0
  -28.5379  -17.7087   20.6038 O   0  0  0  0  0  0  0  0  0  0  0  0
  -29.7505  -24.1114   19.5203 O   0  0  0  0  0  0  0  0  0  0  0  0
  -21.3365   -8.0580   22.9972 O   0  0  0  0  0  0  0  0  0  0  0  0
  -28.6755  -26.7733   19.5797 O   0  0  0  0  0  0  0  0  0  1  0  0
  -21.5210   -2.5621   23.4038 F   0  0  0  0  0  0  0  0  0  0  0  0
  -21.2824   -6.4660   20.7377 F   0  0  0  0  0  0  0  0  0  0  0  0
  -23.9839  -17.1996   18.2643 F   0  0  0  0  0  0  0  0  0  0  0  0
  -24.5879  -19.8136   17.8800 S   0  0  0  0  0  0  0  0  0  0  0  0
  1  2  1  0  0  0  0
  1  5  2  0  0  0  0
  2  6  2  0  0  0  0
  3  8  2  0  0  0  0
  3 15  1  0  0  0  0
  4  9  1  0  0  0  0
  4 15  2  0  0  0  0
  5 17  1  0  0  0  0
  6 19  1  0  0  0  0
  7 10  2  0  0  0  0
  7 18  1  0  0  0  0
  8 21  1  0  0  0  0
  9 21  2  0  0  0  0
 10 22  1  0  0  0  0
 11 12  2  0  0  0  0
 11 23  1  0  0  0  0
 12 24  1  0  0  0  0
 13 20  1  0  0  0  0
 13 22  2  0  0  0  0
 14 24  2  0  0  0  0
 14 25  1  0  0  0  0
 15 26  1  0  0  0  0
 16 26  1  0  0  0  0
 16 28  2  0  0  0  0
 16 32  1  0  0  0  0
 17 19  2  0  0  0  0
 17 39  1  0  0  0  0
 18 20  2  0  0  0  0
 18 40  1  0  0  0  0
 19 48  1  0  0  0  0
 20 41  1  0  0  0  0
 21 79  1  0  0  0  0
 22 80  1  0  0  0  0
 23 25  2  0  0  0  0
 23 79  1  0  0  0  0
 24 81  1  0  0  0  0
 25 82  1  0  0  0  0
 26 60  2  0  0  0  0
 27 29  2  0  0  0  0
 27 61  1  0  0  0  0
 27 67  1  0  0  0  0
 28 62  1  0  0  0  0
 28 65  1  0  0  0  0
 29 83  1  0  0  0  0
 29 84  1  0  0  0  0
 30 61  2  0  0  0  0
 30 68  1  0  0  0  0
 30 84  1  0  0  0  0
 31 33  2  0  0  0  0
 31 34  1  0  0  0  0
 32 66  1  0  0  0  0
 32 72  2  0  0  0  0
 33 56  1  0  0  0  0
 33 78  1  0  0  0  0
 34 68  1  0  0  0  0
 34 73  2  0  0  0  0
 35 49  1  0  0  0  0
 35 69  1  0  0  0  0
 35 74  2  0  0  0  0
 36 57  1  0  0  0  0
 36 63  1  0  0  0  0
 36 75  2  0  0  0  0
 37 58  1  0  0  0  0
 37 70  1  0  0  0  0
 37 76  2  0  0  0  0
 38 64  1  0  0  0  0
 38 67  1  0  0  0  0
 38 77  2  0  0  0  0
 39 42  1  0  0  0  0
 40 49  1  0  0  0  0
 41 63  1  0  0  0  0
 42 44  1  0  0  0  0
 43 45  1  0  0  0  0
 43 46  1  0  0  0  0
 44 48  1  0  0  0  0
 45 50  1  0  0  0  0
 46 64  1  0  0  0  0
 47 50  1  0  0  0  0
 47 64  1  0  0  0  0
 48 69  1  0  0  0  0
 49 63  1  0  0  0  0
 50 62  1  0  0  0  0
 51 58  1  0  0  0  0
 52 59  1  0  0  0  0
 53 59  1  0  0  0  0
 54 59  1  0  0  0  0
 55 71  1  0  0  0  0
 56 80  1  0  0  0  0
 57 59  1  0  0  0  0
 57 70  1  0  0  0  0
 58 71  1  0  0  0  0
 60 62  1  0  0  0  0
M  CHG  1  71   1
M  ISO  4  38 100  56 101  67 100  80 101
M  END
> <Batch ID>
0178

> <Smiles>
CNC(C)C(=O)NC(C(=O)N1Cc2cc([101O:1][101CH2:1]C(=O)CC(=O)Nc3nc([100NH:0][100C:0](=O)N4CCCC(n5nc(-c6ccc(Oc7ccc(F)cc7F)cc6)c(C(N)=O)c5N)C4)c(F)s3)ccc2CC1C(=O)NC1CCCc2ccccc21)C(C)(C)C

> <Shape>
0.272

> <Color>
0.094

> <Negative vol penalty>
0.000

$$$$

  -OEChem-04052304443D

 85 93  0     1  0  0  0  0  0999 V2000
  -18.6776  -33.3832   21.3274 C   0  0  0  0  0  0  0  0  0  0  0  0
  -20.0276  -33.2346   21.0259 C   0  0  0  0  0  0  0  0  0  0  0  0
  -26.8939  -18.0967   19.2627 C   0  0  0  0  0  0  0  0  0  0  0  0
  -29.2534  -17.6868   19.5820 C   0  0  0  0  0  0  0  0  0  0  0  0
  -18.0820  -32.5567   22.2793 C   0  0  0  0  0  0  0  0  0  0  0  0
  -20.7831  -32.2600   21.6770 C   0  0  0  0  0  0  0  0  0  0  0  0
  -25.3914  -28.9884   19.3178 C   0  0  0  0  0  0  0  0  0  0  0  0
  -26.6059  -16.8254   19.7592 C   0  0  0  0  0  0  0  0  0  0  0  0
  -28.9653  -16.4155   20.0786 C   0  0  0  0  0  0  0  0  0  0  0  0
  -26.7764  -29.1293   19.3929 C   0  0  0  0  0  0  0  0  0  0  0  0
  -28.8749  -12.9268   21.0938 C   0  0  0  0  0  0  0  0  0  0  0  0
  -29.6476  -11.8606   20.6336 C   0  0  0  0  0  0  0  0  0  0  0  0
  -26.8318  -27.5524   21.2176 C   0  0  0  0  0  0  0  0  0  0  0  0
  -28.9244  -12.3123   18.3730 C   0  0  0  0  0  0  0  0  0  0  0  0
  -28.2177  -18.5274   19.1740 C   0  0  0  0  0  0  0  0  0  0  0  0
  -28.6243  -21.0360   19.3957 C   0  0  0  0  0  0  0  0  0  0  0  0
  -18.8283  -31.5652   22.9355 C   0  0  0  0  0  0  0  0  0  0  0  0
  -24.7138  -28.1353   20.2007 C   0  0  0  0  0  0  0  0  0  0  0  0
  -20.1972  -31.4204   22.6396 C   0  0  0  0  0  0  0  0  0  0  0  0
  -25.4384  -27.4005   21.1500 C   0  0  0  0  0  0  0  0  0  0  0  0
  -33.5385  -26.4340   15.7932 C   0  0  0  0  0  0  0  0  0  0  0  0
  -27.6415  -15.9848   20.1671 C   0  0  0  0  0  0  0  0  0  0  0  0
  -27.4965  -28.4135   20.3448 C   0  0  0  0  0  0  0  0  0  0  0  0
  -28.1269  -13.6857   20.1936 C   0  0  0  0  0  0  0  0  0  0  0  0
  -29.6724  -11.5534   19.2732 C   0  0  0  0  0  0  0  0  0  0  0  0
  -28.1517  -13.3784   18.8332 C   0  0  0  0  0  0  0  0  0  0  0  0
  -32.5917  -27.0566   16.6571 C   0  0  0  0  0  0  0  0  0  0  0  0
  -28.5159  -19.8402   18.6607 C   0  0  0  0  0  0  0  0  0  0  0  0
  -33.7975  -25.1322   16.1619 C   0  0  0  0  0  0  0  0  0  0  0  0
  -28.9186  -21.9921   18.4546 C   0  0  0  0  0  0  0  0  0  0  0  0
  -32.1630  -26.2067   17.6530 C   0  0  0  0  0  0  0  0  0  0  0  0
  -28.4726  -21.2622   20.8034 C   0  0  0  0  0  0  0  0  0  0  0  0
  -22.4889  -28.5291   22.4364 C   0  0  0  0  0  0  0  0  0  0  0  0
  -22.5651  -25.2876   22.5312 C   0  0  0  0  0  0  0  0  0  0  0  0
  -24.3098  -22.4124   21.9515 C   0  0  0  0  0  0  0  0  0  0  0  0
  -30.5191  -27.5613   18.9953 C   0  0  0  0  0  0  0  0  0  0  0  0
  -31.9192  -22.6600   13.5490 C   0  0  0  0  0  0  0  0  0  0  0  0
  -18.1519  -30.7270   23.9913 C   0  0  0  0  0  0  0  0  0  0  0  0
  -23.2225  -27.9741   20.0891 C   0  0  0  0  0  0  0  0  0  0  0  0
  -24.7607  -26.4561   22.1076 C   0  0  0  0  0  0  0  0  0  0  0  0
  -18.9339  -29.4702   24.3646 C   0  0  0  0  0  0  0  0  0  0  0  0
  -28.3731  -22.3405   13.5532 C   0  0  0  0  0  0  0  0  0  0  0  0
  -20.4059  -29.8034   24.5857 C   0  0  0  0  0  0  0  0  0  0  0  0
  -28.0585  -21.7744   14.9390 C   0  0  0  0  0  0  0  0  0  0  0  0
  -29.6747  -21.7712   12.9932 C   0  0  0  0  0  0  0  0  0  0  0  0
  -30.5304  -21.3476   15.2652 C   0  0  0  0  0  0  0  0  0  0  0  0
  -21.0442  -30.3584   23.3066 C   0  0  1  0  0  0  0  0  0  0  0  0
  -22.5782  -27.4682   21.3762 C   0  0  1  0  0  0  0  0  0  0  0  0
  -29.2557  -21.9346   15.8952 C   0  0  2  0  0  0  0  0  0  0  0  0
  -34.1651  -27.1160   14.6361 C   0  0  0  0  0  0  0  0  0  0  0  0
  -24.1241  -19.9188   22.1633 C   0  0  0  0  0  0  0  0  0  0  0  0
  -30.4541  -27.1006   21.4738 C   0  0  0  0  0  0  0  0  0  0  0  0
  -23.0275  -25.5111   25.5389 C   0  0  0  0  0  0  0  0  0  0  0  0
  -23.7693  -23.1199   25.5321 C   0  0  0  0  0  0  0  0  0  0  0  0
  -21.4391  -23.7029   24.8591 C   0  0  0  0  0  0  0  0  0  0  0  0
  -24.6208  -22.0250   19.0339 C   0  0  0  0  0  0  0  0  0  0  0  0
  -34.7104  -24.1526   15.5310 C   0  0  0  0  0  0  0  0  0  0  0  0
  -34.1442  -23.4991   14.2592 C   0  0  0  0  0  0  0  0  0  0  0  0
  -23.3540  -24.2589   23.3048 C   0  0  1  0  0  0  0  0  0  0  0  0
  -23.9206  -21.1211   21.2546 C   0  0  2  0  0  0  0  0  0  0  0  0
  -29.6317  -27.3733   20.2231 C   0  0  1  0  0  0  0  0  0  1  0  0
  -22.9103  -24.1674   24.7921 C   0  0  0  0  0  0  0  0  0  0  0  0
  -28.7242  -20.0179   17.3534 N   0  0  0  0  0  0  0  0  0  0  0  0
  -28.9664  -21.3365   17.2596 N   0  0  0  0  0  0  0  0  0  0  0  0
  -23.3003  -26.3376   21.9632 N   0  0  0  0  0  0  0  0  0  0  0  0
  -30.7705  -21.9567   13.9475 N   0  0  0  0  0  0  0  0  0  0  0  0
  -29.1386  -23.3212   18.5409 N   0  0  0  0  0  0  0  0  0  0  0  0
  -28.1705  -20.1692   21.6270 N   0  0  0  0  0  0  0  0  0  0  0  0
  -31.2428  -26.4084   18.7092 N   0  0  0  0  0  0  0  0  0  0  0  0
  -21.3338  -29.2854   22.3797 N   0  0  0  0  0  0  0  0  0  0  0  0
  -23.2281  -23.0074   22.5656 N   0  0  0  0  0  0  0  0  0  0  0  0
  -32.9072  -22.7959   14.5165 N   0  0  0  0  0  0  0  0  0  0  0  0
  -24.7429  -20.9269   20.0270 N   0  3  0  0  0  0  0  0  0  0  0  0
  -28.5850  -22.4027   21.3134 O   0  0  0  0  0  0  0  0  0  0  0  0
  -23.3998  -28.6514   23.2470 O   0  0  0  0  0  0  0  0  0  0  0  0
  -21.3424  -25.1601   22.4285 O   0  0  0  0  0  0  0  0  0  0  0  0
  -25.4592  -22.8476   21.9542 O   0  0  0  0  0  0  0  0  0  0  0  0
  -30.5307  -28.6205   18.3746 O   0  0  0  0  0  0  0  0  0  0  0  0
  -32.0520  -23.1365   12.4166 O   0  0  0  0  0  0  0  0  0  0  0  0
  -27.3608  -14.7444   20.6519 O   0  0  0  0  0  0  0  0  0  0  0  0
  -28.8484  -28.5496   20.4207 O   0  0  0  0  0  0  0  0  0  1  0  0
  -30.4157  -10.5305   18.8313 F   0  0  0  0  0  0  0  0  0  0  0  0
  -27.4361  -14.1046   17.9635 F   0  0  0  0  0  0  0  0  0  0  0  0
  -32.1697  -28.3156   16.5192 F   0  0  0  0  0  0  0  0  0  0  0  0
  -32.9012  -24.6655   17.5443 S   0  0  0  0  0  0  0  0  0  0  0  0
  1  2  1  0  0  0  0
  1  5  2  0  0  0  0
  2  6  2  0  0  0  0
  3  8  2  0  0  0  0
  3 15  1  0  0  0  0
  4  9  1  0  0  0  0
  4 15  2  0  0  0  0
  5 17  1  0  0  0  0
  6 19  1  0  0  0  0
  7 10  2  0  0  0  0
  7 18  1  0  0  0  0
  8 22  1  0  0  0  0
  9 22  2  0  0  0  0
 10 23  1  0  0  0  0
 11 12  2  0  0  0  0
 11 24  1  0  0  0  0
 12 25  1  0  0  0  0
 13 20  1  0  0  0  0
 13 23  2  0  0  0  0
 14 25  2  0  0  0  0
 14 26  1  0  0  0  0
 15 28  1  0  0  0  0
 16 28  1  0  0  0  0
 16 30  2  0  0  0  0
 16 32  1  0  0  0  0
 17 19  2  0  0  0  0
 17 38  1  0  0  0  0
 18 20  2  0  0  0  0
 18 39  1  0  0  0  0
 19 47  1  0  0  0  0
 20 40  1  0  0  0  0
 21 27  1  0  0  0  0
 21 29  2  0  0  0  0
 21 50  1  0  0  0  0
 22 80  1  0  0  0  0
 23 81  1  0  0  0  0
 24 26  2  0  0  0  0
 24 80  1  0  0  0  0
 25 82  1  0  0  0  0
 26 83  1  0  0  0  0
 27 31  2  0  0  0  0
 27 84  1  0  0  0  0
 28 63  2  0  0  0  0
 29 57  1  0  0  0  0
 29 85  1  0  0  0  0
 30 64  1  0  0  0  0
 30 67  1  0  0  0  0
 31 69  1  0  0  0  0
 31 85  1  0  0  0  0
 32 68  1  0  0  0  0
 32 74  2  0  0  0  0
 33 48  1  0  0  0  0
 33 70  1  0  0  0  0
 33 75  2  0  0  0  0
 34 59  1  0  0  0  0
 34 65  1  0  0  0  0
 34 76  2  0  0  0  0
 35 60  1  0  0  0  0
 35 71  1  0  0  0  0
 35 77  2  0  0  0  0
 36 61  1  0  0  0  0
 36 69  1  0  0  0  0
 36 78  2  0  0  0  0
 37 66  1  0  0  0  0
 37 72  1  0  0  0  0
 37 79  2  0  0  0  0
 38 41  1  0  0  0  0
 39 48  1  0  0  0  0
 40 65  1  0  0  0  0
 41 43  1  0  0  0  0
 42 44  1  0  0  0  0
 42 45  1  0  0  0  0
 43 47  1  0  0  0  0
 44 49  1  0  0  0  0
 45 66  1  0  0  0  0
 46 49  1  0  0  0  0
 46 66  1  0  0  0  0
 47 70  1  0  0  0  0
 48 65  1  0  0  0  0
 49 64  1  0  0  0  0
 51 60  1  0  0  0  0
 52 61  1  0  0  0  0
 53 62  1  0  0  0  0
 54 62  1  0  0  0  0
 55 62  1  0  0  0  0
 56 73  1  0  0  0  0
 57 58  1  0  0  0  0
 58 72  1  0  0  0  0
 59 62  1  0  0  0  0
 59 71  1  0  0  0  0
 60 73  1  0  0  0  0
 61 81  1  0  0  0  0
 63 64  1  0  0  0  0
M  CHG  1  73   1
M  ISO  4  37 100  61 101  72 100  81 101
M  END
> <Batch ID>
0178

> <Smiles>
CNC(C)C(=O)NC(C(=O)N1Cc2cc([101O:1][101CH:1](C)C(=O)Nc3sc(CC[100NH:0][100C:0](=O)N4CCCC(n5nc(-c6ccc(Oc7ccc(F)cc7F)cc6)c(C(N)=O)c5N)C4)c(C)c3F)ccc2CC1C(=O)NC1CCCc2ccccc21)C(C)(C)C

> <Shape>
0.203

> <Color>
0.092

> <Negative vol penalty>
0.000

$$$$

  -OEChem-04052304443D

 83 91  0     1  0  0  0  0  0999 V2000
  -26.3858  -30.9533   27.7280 C   0  0  0  0  0  0  0  0  0  0  0  0
  -26.8195  -30.1469   26.6806 C   0  0  0  0  0  0  0  0  0  0  0  0
  -23.1167  -10.5994   19.8151 C   0  0  0  0  0  0  0  0  0  0  0  0
  -24.5192  -11.0413   21.7321 C   0  0  0  0  0  0  0  0  0  0  0  0
  -25.0497  -30.9200   28.1248 C   0  0  0  0  0  0  0  0  0  0  0  0
  -25.9175  -29.3058   26.0301 C   0  0  0  0  0  0  0  0  0  0  0  0
  -26.3975  -29.4671   20.9914 C   0  0  0  0  0  0  0  0  0  0  0  0
  -23.2226   -9.2292   20.0534 C   0  0  0  0  0  0  0  0  0  0  0  0
  -24.6251   -9.6710   21.9705 C   0  0  0  0  0  0  0  0  0  0  0  0
  -27.4560  -28.7546   20.4295 C   0  0  0  0  0  0  0  0  0  0  0  0
  -21.8542   -6.9514   22.1443 C   0  0  0  0  0  0  0  0  0  0  0  0
  -20.6881   -6.1892   22.0744 C   0  0  0  0  0  0  0  0  0  0  0  0
  -25.9409  -26.9667   19.8576 C   0  0  0  0  0  0  0  0  0  0  0  0
  -21.6594   -4.8658   20.3017 C   0  0  0  0  0  0  0  0  0  0  0  0
  -28.4911  -19.3515   22.0877 C   0  0  0  0  0  0  0  0  0  0  0  0
  -23.7650  -11.5055   20.6544 C   0  0  0  0  0  0  0  0  0  0  0  0
  -22.6825  -13.8003   20.9185 C   0  0  0  0  0  0  0  0  0  0  0  0
  -24.1287  -30.0851   27.4725 C   0  0  0  0  0  0  0  0  0  0  0  0
  -25.1026  -28.9291   21.0004 C   0  0  0  0  0  0  0  0  0  0  0  0
  -24.5680  -29.2602   26.4194 C   0  0  0  0  0  0  0  0  0  0  0  0
  -24.8673  -27.6755   20.4180 C   0  0  0  0  0  0  0  0  0  0  0  0
  -23.9768   -8.7650   21.1311 C   0  0  0  0  0  0  0  0  0  0  0  0
  -27.2283  -27.5029   19.8651 C   0  0  0  0  0  0  0  0  0  0  0  0
  -22.9229   -6.6709   21.2929 C   0  0  0  0  0  0  0  0  0  0  0  0
  -20.5907   -5.1464   21.1531 C   0  0  0  0  0  0  0  0  0  0  0  0
  -22.8255   -5.6281   20.3716 C   0  0  0  0  0  0  0  0  0  0  0  0
  -23.6564  -12.9211   20.4084 C   0  0  0  0  0  0  0  0  0  0  0  0
  -29.1874  -19.1942   20.9076 C   0  0  0  0  0  0  0  0  0  0  0  0
  -23.0163  -15.0246   20.3931 C   0  0  0  0  0  0  0  0  0  0  0  0
  -28.9898  -21.3783   20.8854 C   0  0  0  0  0  0  0  0  0  0  0  0
  -21.5751  -13.5341   21.7895 C   0  0  0  0  0  0  0  0  0  0  0  0
  -29.5600  -24.7901   19.4046 C   0  0  0  0  0  0  0  0  0  0  0  0
  -29.6501  -23.2916   19.4204 C   0  0  0  0  0  0  0  0  0  0  0  0
  -23.0389  -28.0874   23.2668 C   0  0  0  0  0  0  0  0  0  0  0  0
  -21.0568  -27.6165   20.7425 C   0  0  0  0  0  0  0  0  0  0  0  0
  -20.7141  -26.9752   17.4081 C   0  0  0  0  0  0  0  0  0  0  0  0
  -28.1703  -17.3464   18.4190 C   0  0  0  0  0  0  0  0  0  0  0  0
  -22.7047  -30.0484   27.9679 C   0  0  0  0  0  0  0  0  0  0  0  0
  -23.9667  -29.7220   21.5865 C   0  0  0  0  0  0  0  0  0  0  0  0
  -23.4919  -27.0625   20.3839 C   0  0  0  0  0  0  0  0  0  0  0  0
  -21.7329  -29.4063   26.9811 C   0  0  0  0  0  0  0  0  0  0  0  0
  -25.1318  -17.0175   16.5926 C   0  0  0  0  0  0  0  0  0  0  0  0
  -22.3084  -28.1028   26.4367 C   0  0  0  0  0  0  0  0  0  0  0  0
  -24.3212  -16.0097   17.4094 C   0  0  0  0  0  0  0  0  0  0  0  0
  -26.6219  -16.6837   16.6025 C   0  0  0  0  0  0  0  0  0  0  0  0
  -26.4013  -15.5161   18.7616 C   0  0  0  0  0  0  0  0  0  0  0  0
  -23.6144  -28.3529   25.6728 C   0  0  1  0  0  0  0  0  0  0  0  0
  -22.7826  -28.8535   21.9999 C   0  0  1  0  0  0  0  0  0  0  0  0
  -24.8996  -15.8429   18.8275 C   0  0  2  0  0  0  0  0  0  0  0  0
  -18.9698  -26.6086   15.6417 C   0  0  0  0  0  0  0  0  0  0  0  0
  -20.5735  -24.7984   21.8079 C   0  0  0  0  0  0  0  0  0  0  0  0
  -19.6283  -24.1899   19.5708 C   0  0  0  0  0  0  0  0  0  0  0  0
  -18.5286  -25.9541   20.9495 C   0  0  0  0  0  0  0  0  0  0  0  0
  -21.6230  -29.3270   15.8584 C   0  0  0  0  0  0  0  0  0  0  0  0
  -29.6397  -17.9094   20.3381 C   0  0  0  0  0  0  0  0  0  0  0  0
  -28.1751  -25.3811   19.3576 C   0  0  0  0  0  0  0  0  0  1  0  0
  -20.7414  -26.4534   19.8333 C   0  0  1  0  0  0  0  0  0  0  0  0
  -19.8561  -27.6284   16.3397 C   0  0  2  0  0  0  0  0  0  0  0  0
  -19.8943  -25.3594   20.5426 C   0  0  0  0  0  0  0  0  0  0  0  0
  -24.5424  -13.5347   19.6194 N   0  0  0  0  0  0  0  0  0  0  0  0
  -29.4739  -20.3553   20.2166 N   0  0  0  0  0  0  0  0  0  0  0  0
  -24.1265  -14.8125   19.6297 N   0  0  0  0  0  0  0  0  0  0  0  0
  -22.4152  -27.8739   20.9754 N   0  0  0  0  0  0  0  0  0  0  0  0
  -27.1082  -16.5404   17.9768 N   0  0  0  0  0  0  0  0  0  0  0  0
  -22.4656  -16.2512   20.5142 N   0  0  0  0  0  0  0  0  0  0  0  0
  -21.3772  -12.2205   22.2362 N   0  0  0  0  0  0  0  0  0  0  0  0
  -29.0572  -22.7482   20.5396 N   0  0  0  0  0  0  0  0  0  0  0  0
  -23.3358  -28.8844   24.3559 N   0  0  0  0  0  0  0  0  0  0  0  0
  -20.1106  -27.0219   18.6470 N   0  0  0  0  0  0  0  0  0  0  0  0
  -28.5653  -17.1512   19.7368 N   0  0  0  0  0  0  0  0  0  0  0  0
  -20.7159  -28.2840   15.3141 N   0  3  0  0  0  0  0  0  0  0  0  0
  -20.7750  -14.4314   22.1474 O   0  0  0  0  0  0  0  0  0  0  0  0
  -30.6071  -25.4196   19.4105 O   0  0  0  0  0  0  0  0  0  0  0  0
  -30.2381  -22.7697   18.4877 O   0  0  0  0  0  0  0  0  0  0  0  0
  -22.9709  -26.8639   23.2572 O   0  0  0  0  0  0  0  0  0  0  0  0
  -20.1321  -28.2769   21.2226 O   0  0  0  0  0  0  0  0  0  0  0  0
  -21.8085  -26.4703   17.1671 O   0  0  0  0  0  0  0  0  0  0  0  0
  -28.7219  -18.1820   17.6947 O   0  0  0  0  0  0  0  0  0  0  0  0
  -24.0802   -7.4280   21.3641 O   0  0  0  0  0  0  0  0  0  0  0  0
  -28.2598  -26.8050   19.3165 O   0  0  0  0  0  0  0  0  0  1  0  0
  -19.4715   -4.4136   21.0872 F   0  0  0  0  0  0  0  0  0  0  0  0
  -23.8493   -5.3530   19.5519 F   0  0  0  0  0  0  0  0  0  0  0  0
  -28.1787  -21.0167   22.3538 S   0  0  0  0  0  0  0  0  0  0  0  0
  1  2  1  0  0  0  0
  1  5  2  0  0  0  0
  2  6  2  0  0  0  0
  3  8  2  0  0  0  0
  3 16  1  0  0  0  0
  4  9  1  0  0  0  0
  4 16  2  0  0  0  0
  5 18  1  0  0  0  0
  6 20  1  0  0  0  0
  7 10  2  0  0  0  0
  7 19  1  0  0  0  0
  8 22  1  0  0  0  0
  9 22  2  0  0  0  0
 10 23  1  0  0  0  0
 11 12  2  0  0  0  0
 11 24  1  0  0  0  0
 12 25  1  0  0  0  0
 13 21  1  0  0  0  0
 13 23  2  0  0  0  0
 14 25  2  0  0  0  0
 14 26  1  0  0  0  0
 15 28  2  0  0  0  0
 15 83  1  0  0  0  0
 16 27  1  0  0  0  0
 17 27  1  0  0  0  0
 17 29  2  0  0  0  0
 17 31  1  0  0  0  0
 18 20  2  0  0  0  0
 18 38  1  0  0  0  0
 19 21  2  0  0  0  0
 19 39  1  0  0  0  0
 20 47  1  0  0  0  0
 21 40  1  0  0  0  0
 22 79  1  0  0  0  0
 23 80  1  0  0  0  0
 24 26  2  0  0  0  0
 24 79  1  0  0  0  0
 25 81  1  0  0  0  0
 26 82  1  0  0  0  0
 27 60  2  0  0  0  0
 28 55  1  0  0  0  0
 28 61  1  0  0  0  0
 29 62  1  0  0  0  0
 29 65  1  0  0  0  0
 30 61  2  0  0  0  0
 30 67  1  0  0  0  0
 30 83  1  0  0  0  0
 31 66  1  0  0  0  0
 31 72  2  0  0  0  0
 32 33  1  0  0  0  0
 32 56  1  0  0  0  0
 32 73  2  0  0  0  0
 33 67  1  0  0  0  0
 33 74  2  0  0  0  0
 34 48  1  0  0  0  0
 34 68  1  0  0  0  0
 34 75  2  0  0  0  0
 35 57  1  0  0  0  0
 35 63  1  0  0  0  0
 35 76  2  0  0  0  0
 36 58  1  0  0  0  0
 36 69  1  0  0  0  0
 36 77  2  0  0  0  0
 37 64  1  0  0  0  0
 37 70  1  0  0  0  0
 37 78  2  0  0  0  0
 38 41  1  0  0  0  0
 39 48  1  0  0  0  0
 40 63  1  0  0  0  0
 41 43  1  0  0  0  0
 42 44  1  0  0  0  0
 42 45  1  0  0  0  0
 43 47  1  0  0  0  0
 44 49  1  0  0  0  0
 45 64  1  0  0  0  0
 46 49  1  0  0  0  0
 46 64  1  0  0  0  0
 47 68  1  0  0  0  0
 48 63  1  0  0  0  0
 49 62  1  0  0  0  0
 50 58  1  0  0  0  0
 51 59  1  0  0  0  0
 52 59  1  0  0  0  0
 53 59  1  0  0  0  0
 54 71  1  0  0  0  0
 55 70  1  0  0  0  0
 56 80  1  0  0  0  0
 57 59  1  0  0  0  0
 57 69  1  0  0  0  0
 58 71  1  0  0  0  0
 60 62  1  0  0  0  0
M  CHG  1  71   1
M  ISO  4  37 100  56 101  70 100  80 101
M  END
> <Batch ID>
0178

> <Smiles>
CNC(C)C(=O)NC(C(=O)N1Cc2cc([101O:1][101CH2:1]C(=O)C(=O)Nc3nc(C[100NH:0][100C:0](=O)N4CCCC(n5nc(-c6ccc(Oc7ccc(F)cc7F)cc6)c(C(N)=O)c5N)C4)cs3)ccc2CC1C(=O)NC1CCCc2ccccc21)C(C)(C)C

> <Shape>
0.256

> <Color>
0.081

> <Negative vol penalty>
0.000

$$$$

  -OEChem-04052304443D

 87 95  0     1  0  0  0  0  0999 V2000
  -23.9151  -27.0140   24.0025 C   0  0  0  0  0  0  0  0  0  0  0  0
  -24.6168  -25.8391   23.7521 C   0  0  0  0  0  0  0  0  0  0  0  0
  -29.0760  -26.2023   19.6548 C   0  0  0  0  0  0  0  0  0  0  0  0
  -26.8005  -25.4080   19.8223 C   0  0  0  0  0  0  0  0  0  0  0  0
  -22.5300  -26.9778   24.1577 C   0  0  0  0  0  0  0  0  0  0  0  0
  -23.9337  -24.6271   23.6579 C   0  0  0  0  0  0  0  0  0  0  0  0
  -24.1735  -18.3346   20.2427 C   0  0  0  0  0  0  0  0  0  0  0  0
  -28.6077  -27.4974   19.4339 C   0  0  0  0  0  0  0  0  0  0  0  0
  -26.3322  -26.7032   19.6015 C   0  0  0  0  0  0  0  0  0  0  0  0
  -24.1598  -16.9654   20.5053 C   0  0  0  0  0  0  0  0  0  0  0  0
  -24.5415  -29.8632   19.4407 C   0  0  0  0  0  0  0  0  0  0  0  0
  -23.5113  -30.3292   20.2574 C   0  0  0  0  0  0  0  0  0  0  0  0
  -21.7574  -17.0351   20.7122 C   0  0  0  0  0  0  0  0  0  0  0  0
  -24.9108  -30.0155   22.2016 C   0  0  0  0  0  0  0  0  0  0  0  0
  -28.4418  -13.4660   20.1047 C   0  0  0  0  0  0  0  0  0  0  0  0
  -28.1724  -25.1575   19.8489 C   0  0  0  0  0  0  0  0  0  0  0  0
  -28.9548  -23.2228   21.3161 C   0  0  0  0  0  0  0  0  0  0  0  0
  -21.8286  -25.7661   24.0558 C   0  0  0  0  0  0  0  0  0  0  0  0
  -22.9782  -19.0676   20.2237 C   0  0  0  0  0  0  0  0  0  0  0  0
  -22.5381  -24.5744   23.8133 C   0  0  0  0  0  0  0  0  0  0  0  0
  -21.7584  -18.4130   20.4466 C   0  0  0  0  0  0  0  0  0  0  0  0
  -27.2358  -27.7479   19.4073 C   0  0  0  0  0  0  0  0  0  0  0  0
  -22.9520  -16.3160   20.7429 C   0  0  0  0  0  0  0  0  0  0  0  0
  -25.7564  -29.4733   20.0044 C   0  0  0  0  0  0  0  0  0  0  0  0
  -23.6959  -30.4053   21.6379 C   0  0  0  0  0  0  0  0  0  0  0  0
  -25.9410  -29.5495   21.3849 C   0  0  0  0  0  0  0  0  0  0  0  0
  -28.6556  -23.8193   20.0765 C   0  0  0  0  0  0  0  0  0  0  0  0
  -28.2524  -15.7447   20.0782 C   0  0  0  0  0  0  0  0  0  0  0  0
  -27.8001  -15.7223   21.3792 C   0  0  0  0  0  0  0  0  0  0  0  0
  -27.9902  -13.4435   21.4059 C   0  0  0  0  0  0  0  0  0  0  0  0
  -29.3730  -21.9546   20.9948 C   0  0  0  0  0  0  0  0  0  0  0  0
  -28.8629  -23.7666   22.6395 C   0  0  0  0  0  0  0  0  0  0  0  0
  -21.8057  -21.4908   21.9139 C   0  0  0  0  0  0  0  0  0  0  0  0
  -25.2930  -12.0638   21.3182 C   0  0  0  0  0  0  0  0  0  0  0  0
  -19.4120  -21.3470   19.7294 C   0  0  0  0  0  0  0  0  0  0  0  0
  -17.6750  -19.4905   17.4528 C   0  0  0  0  0  0  0  0  0  0  0  0
  -28.8080  -17.2226   18.1152 C   0  0  0  0  0  0  0  0  0  0  0  0
  -20.3368  -25.7700   24.2780 C   0  0  0  0  0  0  0  0  0  0  0  0
  -23.0074  -20.5389   19.9125 C   0  0  0  0  0  0  0  0  0  0  0  0
  -20.4456  -19.1506   20.4172 C   0  0  0  0  0  0  0  0  0  0  0  0
  -19.6453  -24.4991   23.7913 C   0  0  0  0  0  0  0  0  0  0  0  0
  -30.5215  -19.9011   16.5131 C   0  0  0  0  0  0  0  0  0  0  0  0
  -20.4095  -23.2637   24.2569 C   0  0  0  0  0  0  0  0  0  0  0  0
  -30.2134  -21.1102   17.3993 C   0  0  0  0  0  0  0  0  0  0  0  0
  -29.3271  -18.9543   16.4102 C   0  0  0  0  0  0  0  0  0  0  0  0
  -28.4595  -19.7278   18.5824 C   0  0  0  0  0  0  0  0  0  0  0  0
  -21.8300  -23.2437   23.6795 C   0  0  1  0  0  0  0  0  0  0  0  0
  -21.7784  -21.2827   20.4261 C   0  0  1  0  0  0  0  0  0  0  0  0
  -29.6543  -20.6772   18.7688 C   0  0  2  0  0  0  0  0  0  0  0  0
  -25.6174  -10.7228   23.4138 C   0  0  0  0  0  0  0  0  0  0  0  0
  -15.7480  -19.6355   15.8519 C   0  0  0  0  0  0  0  0  0  0  0  0
  -17.4594  -21.1589   22.0664 C   0  0  0  0  0  0  0  0  0  0  0  0
  -15.7160  -20.3632   20.4552 C   0  0  0  0  0  0  0  0  0  0  0  0
  -16.7072  -22.6376   20.1950 C   0  0  0  0  0  0  0  0  0  0  0  0
  -19.4126  -18.9126   15.1278 C   0  0  0  0  0  0  0  0  0  0  0  0
  -24.1934  -14.3053   21.0112 C   0  0  0  0  0  0  0  0  0  1  0  0
  -26.0411  -11.9611   22.6373 C   0  0  1  0  0  0  0  0  0  0  0  0
  -18.1008  -20.6059   19.6274 C   0  0  1  0  0  0  0  0  0  0  0  0
  -17.2513  -19.7857   16.0253 C   0  0  2  0  0  0  0  0  0  0  0  0
  -23.9870  -12.8324   21.3155 C   0  0  0  0  0  0  0  0  0  0  0  0
  -17.0206  -21.1776   20.5886 C   0  0  0  0  0  0  0  0  0  0  0  0
  -28.5811  -14.6170   19.4175 N   0  0  0  0  0  0  0  0  0  0  0  0
  -28.8659  -22.9975   19.0447 N   0  0  0  0  0  0  0  0  0  0  0  0
  -27.6612  -14.5713   22.0665 N   0  0  0  0  0  0  0  0  0  0  0  0
  -29.3019  -21.8718   19.6353 N   0  0  0  0  0  0  0  0  0  0  0  0
  -20.5269  -20.5892   20.1148 N   0  0  0  0  0  0  0  0  0  0  0  0
  -28.8540  -18.5836   17.7458 N   0  0  0  0  0  0  0  0  0  0  0  0
  -29.7909  -20.9133   21.7455 N   0  0  0  0  0  0  0  0  0  0  0  0
  -28.4143  -25.0858   22.7902 N   0  0  0  0  0  0  0  0  0  0  0  0
  -28.3725  -16.9938   19.4200 N   0  0  0  0  0  0  0  0  0  0  0  0
  -21.8074  -22.8187   22.2963 N   0  0  0  0  0  0  0  0  0  0  0  0
  -17.7232  -20.6361   18.2185 N   0  0  0  0  0  0  0  0  0  0  0  0
  -17.9289  -18.8533   15.0805 N   0  3  0  0  0  0  0  0  0  0  0  0
  -29.1851  -23.1077   23.6572 O   0  0  0  0  0  0  0  0  0  0  0  0
  -21.8223  -20.5186   22.6597 O   0  0  0  0  0  0  0  0  0  0  0  0
  -25.7173  -11.5444   20.2845 O   0  0  0  0  0  0  0  0  0  0  0  0
  -19.4471  -22.5524   19.4695 O   0  0  0  0  0  0  0  0  0  0  0  0
  -17.9333  -18.3564   17.8499 O   0  0  0  0  0  0  0  0  0  0  0  0
  -29.1571  -16.3279   17.3409 O   0  0  0  0  0  0  0  0  0  0  0  0
  -26.7785  -29.0117   19.1921 O   0  0  0  0  0  0  0  0  0  0  0  0
  -22.9359  -14.9798   21.0001 O   0  0  0  0  0  0  0  0  0  1  0  0
  -22.7070  -30.8543   22.4220 F   0  0  0  0  0  0  0  0  0  0  0  0
  -27.1063  -29.1775   21.9321 F   0  0  0  0  0  0  0  0  0  0  0  0
  -27.4820  -16.8663   22.0040 F   0  0  0  0  0  0  0  0  0  0  0  0
  -23.1228  -12.3187   20.3978 F   0  0  0  0  0  0  0  0  0  0  0  0
  -23.3582  -12.7211   22.5182 F   0  0  0  0  0  0  0  0  0  0  0  0
  -27.8218  -11.9138   22.2719 S   0  0  0  0  0  0  0  0  0  0  0  0
  1  2  1  0  0  0  0
  1  5  2  0  0  0  0
  2  6  2  0  0  0  0
  3  8  2  0  0  0  0
  3 16  1  0  0  0  0
  4  9  1  0  0  0  0
  4 16  2  0  0  0  0
  5 18  1  0  0  0  0
  6 20  1  0  0  0  0
  7 10  2  0  0  0  0
  7 19  1  0  0  0  0
  8 22  1  0  0  0  0
  9 22  2  0  0  0  0
 10 23  1  0  0  0  0
 11 12  2  0  0  0  0
 11 24  1  0  0  0  0
 12 25  1  0  0  0  0
 13 21  1  0  0  0  0
 13 23  2  0  0  0  0
 14 25  2  0  0  0  0
 14 26  1  0  0  0  0
 15 30  1  0  0  0  0
 15 62  2  0  0  0  0
 16 27  1  0  0  0  0
 17 27  1  0  0  0  0
 17 31  2  0  0  0  0
 17 32  1  0  0  0  0
 18 20  2  0  0  0  0
 18 38  1  0  0  0  0
 19 21  2  0  0  0  0
 19 39  1  0  0  0  0
 20 47  1  0  0  0  0
 21 40  1  0  0  0  0
 22 80  1  0  0  0  0
 23 81  1  0  0  0  0
 24 26  2  0  0  0  0
 24 80  1  0  0  0  0
 25 82  1  0  0  0  0
 26 83  1  0  0  0  0
 27 63  2  0  0  0  0
 28 29  2  0  0  0  0
 28 62  1  0  0  0  0
 28 70  1  0  0  0  0
 29 64  1  0  0  0  0
 29 84  1  0  0  0  0
 30 64  2  0  0  0  0
 30 87  1  0  0  0  0
 31 65  1  0  0  0  0
 31 68  1  0  0  0  0
 32 69  1  0  0  0  0
 32 74  2  0  0  0  0
 33 48  1  0  0  0  0
 33 71  1  0  0  0  0
 33 75  2  0  0  0  0
 34 57  1  0  0  0  0
 34 60  1  0  0  0  0
 34 76  2  0  0  0  0
 35 58  1  0  0  0  0
 35 66  1  0  0  0  0
 35 77  2  0  0  0  0
 36 59  1  0  0  0  0
 36 72  1  0  0  0  0
 36 78  2  0  0  0  0
 37 67  1  0  0  0  0
 37 70  1  0  0  0  0
 37 79  2  0  0  0  0
 38 41  1  0  0  0  0
 39 48  1  0  0  0  0
 40 66  1  0  0  0  0
 41 43  1  0  0  0  0
 42 44  1  0  0  0  0
 42 45  1  0  0  0  0
 43 47  1  0  0  0  0
 44 49  1  0  0  0  0
 45 67  1  0  0  0  0
 46 49  1  0  0  0  0
 46 67  1  0  0  0  0
 47 71  1  0  0  0  0
 48 66  1  0  0  0  0
 49 65  1  0  0  0  0
 50 57  1  0  0  0  0
 51 59  1  0  0  0  0
 52 61  1  0  0  0  0
 53 61  1  0  0  0  0
 54 61  1  0  0  0  0
 55 73  1  0  0  0  0
 56 60  1  0  0  0  0
 56 81  1  0  0  0  0
 57 87  1  0  0  0  0
 58 61  1  0  0  0  0
 58 72  1  0  0  0  0
 59 73  1  0  0  0  0
 60 85  1  0  0  0  0
 60 86  1  0  0  0  0
 63 65  1  0  0  0  0
M  CHG  1  73   1
M  ISO  4  37 100  56 101  70 100  81 101
M  END
> <Batch ID>
0178

> <Smiles>
CNC(C)C(=O)NC(C(=O)N1Cc2cc([101O:1][101CH2:1]C(F)(F)C(=O)C(C)Sc3cnc([100NH:0][100C:0](=O)N4CCCC(n5nc(-c6ccc(Oc7ccc(F)cc7F)cc6)c(C(N)=O)c5N)C4)c(F)n3)ccc2CC1C(=O)NC1CCCc2ccccc21)C(C)(C)C

> <Shape>
0.182

> <Color>
0.061

> <Negative vol penalty>
0.000

$$$$

  -OEChem-04052304443D

 86 94  0     1  0  0  0  0  0999 V2000
  -27.8232  -36.4709   24.7611 C   0  0  0  0  0  0  0  0  0  0  0  0
  -28.3199  -35.3315   24.1362 C   0  0  0  0  0  0  0  0  0  0  0  0
  -23.6486   -9.8829   22.4089 C   0  0  0  0  0  0  0  0  0  0  0  0
  -23.3010   -9.9604   20.0193 C   0  0  0  0  0  0  0  0  0  0  0  0
  -26.5953  -36.4240   25.4198 C   0  0  0  0  0  0  0  0  0  0  0  0
  -27.5895  -34.1442   24.1708 C   0  0  0  0  0  0  0  0  0  0  0  0
  -27.2518  -29.9002   19.7684 C   0  0  0  0  0  0  0  0  0  0  0  0
  -22.8480   -8.7435   22.4885 C   0  0  0  0  0  0  0  0  0  0  0  0
  -22.5004   -8.8209   20.0988 C   0  0  0  0  0  0  0  0  0  0  0  0
  -27.9085  -28.6840   19.5856 C   0  0  0  0  0  0  0  0  0  0  0  0
  -23.1612   -5.4317   21.8826 C   0  0  0  0  0  0  0  0  0  0  0  0
  -23.6197   -4.3704   22.6629 C   0  0  0  0  0  0  0  0  0  0  0  0
  -26.0410  -27.5319   20.5877 C   0  0  0  0  0  0  0  0  0  0  0  0
  -21.6500   -4.5404   24.0516 C   0  0  0  0  0  0  0  0  0  0  0  0
  -28.3531  -17.8988   17.1699 C   0  0  0  0  0  0  0  0  0  0  0  0
  -23.8751  -10.4914   21.1744 C   0  0  0  0  0  0  0  0  0  0  0  0
  -26.0941  -11.7174   20.8905 C   0  0  0  0  0  0  0  0  0  0  0  0
  -25.8449  -35.2381   25.4542 C   0  0  0  0  0  0  0  0  0  0  0  0
  -25.9873  -29.9424   20.3732 C   0  0  0  0  0  0  0  0  0  0  0  0
  -26.3510  -34.0810   24.8318 C   0  0  0  0  0  0  0  0  0  0  0  0
  -25.3692  -28.7496   20.7747 C   0  0  0  0  0  0  0  0  0  0  0  0
  -22.2739   -8.2125   21.3334 C   0  0  0  0  0  0  0  0  0  0  0  0
  -27.3044  -27.4999   19.9979 C   0  0  0  0  0  0  0  0  0  0  0  0
  -21.9470   -6.0475   22.1868 C   0  0  0  0  0  0  0  0  0  0  0  0
  -22.8641   -3.9247   23.7474 C   0  0  0  0  0  0  0  0  0  0  0  0
  -21.1915   -5.6018   23.2713 C   0  0  0  0  0  0  0  0  0  0  0  0
  -29.3079  -18.6450   16.4882 C   0  0  0  0  0  0  0  0  0  0  0  0
  -29.2476  -20.0338   16.5172 C   0  0  0  0  0  0  0  0  0  0  0  0
  -24.7016  -11.6687   21.0916 C   0  0  0  0  0  0  0  0  0  0  0  0
  -27.3663  -18.5838   17.8603 C   0  0  0  0  0  0  0  0  0  0  0  0
  -28.2206  -20.6233   17.2367 C   0  0  0  0  0  0  0  0  0  0  0  0
  -26.3941  -13.0578   20.8895 C   0  0  0  0  0  0  0  0  0  0  0  0
  -27.0324  -10.6469   20.7197 C   0  0  0  0  0  0  0  0  0  0  0  0
  -27.5146  -24.2827   17.7529 C   0  0  0  0  0  0  0  0  0  0  0  0
  -27.2371  -22.8165   17.9187 C   0  0  0  0  0  0  0  0  0  0  0  0
  -24.8071  -31.2581   23.0151 C   0  0  0  0  0  0  0  0  0  0  0  0
  -21.9858  -30.1978   21.8157 C   0  0  0  0  0  0  0  0  0  0  0  0
  -20.3431  -27.9973   19.7894 C   0  0  0  0  0  0  0  0  0  0  0  0
  -25.3243  -18.2875   19.3057 C   0  0  0  0  0  0  0  0  0  0  0  0
  -24.5451  -35.2234   26.2190 C   0  0  0  0  0  0  0  0  0  0  0  0
  -25.2805  -31.2598   20.5389 C   0  0  0  0  0  0  0  0  0  0  0  0
  -24.0039  -28.7389   21.4105 C   0  0  0  0  0  0  0  0  0  0  0  0
  -23.6577  -34.0259   25.8891 C   0  0  0  0  0  0  0  0  0  0  0  0
  -23.5735  -17.0657   22.1551 C   0  0  0  0  0  0  0  0  0  0  0  0
  -24.4756  -32.7383   25.8928 C   0  0  0  0  0  0  0  0  0  0  0  0
  -23.8254  -15.5567   22.1159 C   0  0  0  0  0  0  0  0  0  0  0  0
  -23.4078  -17.6497   20.7532 C   0  0  0  0  0  0  0  0  0  0  0  0
  -24.7467  -15.8260   19.7779 C   0  0  0  0  0  0  0  0  0  0  0  0
  -25.5765  -32.7810   24.8261 C   0  0  1  0  0  0  0  0  0  0  0  0
  -24.2179  -31.2343   21.6332 C   0  0  1  0  0  0  0  0  0  0  0  0
  -24.9846  -15.2035   21.1634 C   0  0  2  0  0  0  0  0  0  0  0  0
  -18.0357  -27.3505   19.0447 C   0  0  0  0  0  0  0  0  0  0  0  0
  -21.5163  -28.8042   24.4892 C   0  0  0  0  0  0  0  0  0  0  0  0
  -19.7316  -27.4390   23.3849 C   0  0  0  0  0  0  0  0  0  0  0  0
  -19.4958  -29.9185   23.5246 C   0  0  0  0  0  0  0  0  0  0  0  0
  -20.9544  -28.6232   16.9621 C   0  0  0  0  0  0  0  0  0  0  0  0
  -28.8684  -24.7674   18.2231 C   0  0  0  0  0  0  0  0  0  0  0  0
  -28.8283  -26.2093   18.7063 C   0  0  0  0  0  0  0  0  0  1  0  0
  -21.1870  -28.9221   21.9311 C   0  0  1  0  0  0  0  0  0  0  0  0
  -19.2586  -28.2041   18.7475 C   0  0  2  0  0  0  0  0  0  0  0  0
  -20.5093  -28.7710   23.3223 C   0  0  0  0  0  0  0  0  0  0  0  0
  -24.1550  -12.8816   21.2100 N   0  0  0  0  0  0  0  0  0  0  0  0
  -27.2751  -19.9317   17.9115 N   0  0  0  0  0  0  0  0  0  0  0  0
  -25.2094  -13.7051   21.0829 N   0  0  0  0  0  0  0  0  0  0  0  0
  -23.3561  -30.0528   21.5567 N   0  0  0  0  0  0  0  0  0  0  0  0
  -24.5449  -17.2776   19.9084 N   0  0  0  0  0  0  0  0  0  0  0  0
  -27.5532  -13.7339   20.7421 N   0  0  0  0  0  0  0  0  0  0  0  0
  -26.5551   -9.3294   20.7472 N   0  0  0  0  0  0  0  0  0  0  0  0
  -28.1644  -22.0363   17.2623 N   0  0  0  0  0  0  0  0  0  0  0  0
  -26.3980  -17.8145   18.5519 N   0  0  0  0  0  0  0  0  0  0  0  0
  -25.0193  -32.5289   23.5145 N   0  0  0  0  0  0  0  0  0  0  0  0
  -20.2547  -28.9213   20.8090 N   0  0  0  0  0  0  0  0  0  0  0  0
  -19.7657  -27.8434   17.3934 N   0  3  0  0  0  0  0  0  0  0  0  0
  -28.2601  -10.8520   20.5643 O   0  0  0  0  0  0  0  0  0  0  0  0
  -26.6372  -24.9642   17.2446 O   0  0  0  0  0  0  0  0  0  0  0  0
  -26.2775  -22.5169   18.6096 O   0  0  0  0  0  0  0  0  0  0  0  0
  -25.0499  -30.2016   23.5867 O   0  0  0  0  0  0  0  0  0  0  0  0
  -21.4137  -31.2832   21.9434 O   0  0  0  0  0  0  0  0  0  0  0  0
  -21.1824  -27.1030   19.7088 O   0  0  0  0  0  0  0  0  0  0  0  0
  -25.0752  -19.4845   19.4700 O   0  0  0  0  0  0  0  0  0  0  0  0
  -21.4928   -7.1005   21.4106 O   0  0  0  0  0  0  0  0  0  0  0  0
  -27.9435  -26.3115   19.8212 O   0  0  0  0  0  0  0  0  0  1  0  0
  -23.3039   -2.9045   24.4957 F   0  0  0  0  0  0  0  0  0  0  0  0
  -20.0237   -6.1886   23.5677 F   0  0  0  0  0  0  0  0  0  0  0  0
  -30.2816  -18.0286   15.8057 F   0  0  0  0  0  0  0  0  0  0  0  0
  -30.1604  -20.7652   15.8651 F   0  0  0  0  0  0  0  0  0  0  0  0
  1  2  1  0  0  0  0
  1  5  2  0  0  0  0
  2  6  2  0  0  0  0
  3  8  2  0  0  0  0
  3 16  1  0  0  0  0
  4  9  1  0  0  0  0
  4 16  2  0  0  0  0
  5 18  1  0  0  0  0
  6 20  1  0  0  0  0
  7 10  2  0  0  0  0
  7 19  1  0  0  0  0
  8 22  1  0  0  0  0
  9 22  2  0  0  0  0
 10 23  1  0  0  0  0
 11 12  2  0  0  0  0
 11 24  1  0  0  0  0
 12 25  1  0  0  0  0
 13 21  1  0  0  0  0
 13 23  2  0  0  0  0
 14 25  2  0  0  0  0
 14 26  1  0  0  0  0
 15 27  2  0  0  0  0
 15 30  1  0  0  0  0
 16 29  1  0  0  0  0
 17 29  1  0  0  0  0
 17 32  2  0  0  0  0
 17 33  1  0  0  0  0
 18 20  2  0  0  0  0
 18 40  1  0  0  0  0
 19 21  2  0  0  0  0
 19 41  1  0  0  0  0
 20 49  1  0  0  0  0
 21 42  1  0  0  0  0
 22 81  1  0  0  0  0
 23 82  1  0  0  0  0
 24 26  2  0  0  0  0
 24 81  1  0  0  0  0
 25 83  1  0  0  0  0
 26 84  1  0  0  0  0
 27 28  1  0  0  0  0
 27 85  1  0  0  0  0
 28 31  2  0  0  0  0
 28 86  1  0  0  0  0
 29 62  2  0  0  0  0
 30 63  2  0  0  0  0
 30 70  1  0  0  0  0
 31 63  1  0  0  0  0
 31 69  1  0  0  0  0
 32 64  1  0  0  0  0
 32 67  1  0  0  0  0
 33 68  1  0  0  0  0
 33 74  2  0  0  0  0
 34 35  1  0  0  0  0
 34 57  1  0  0  0  0
 34 75  2  0  0  0  0
 35 69  1  0  0  0  0
 35 76  2  0  0  0  0
 36 50  1  0  0  0  0
 36 71  1  0  0  0  0
 36 77  2  0  0  0  0
 37 59  1  0  0  0  0
 37 65  1  0  0  0  0
 37 78  2  0  0  0  0
 38 60  1  0  0  0  0
 38 72  1  0  0  0  0
 38 79  2  0  0  0  0
 39 66  1  0  0  0  0
 39 70  1  0  0  0  0
 39 80  2  0  0  0  0
 40 43  1  0  0  0  0
 41 50  1  0  0  0  0
 42 65  1  0  0  0  0
 43 45  1  0  0  0  0
 44 46  1  0  0  0  0
 44 47  1  0  0  0  0
 45 49  1  0  0  0  0
 46 51  1  0  0  0  0
 47 66  1  0  0  0  0
 48 51  1  0  0  0  0
 48 66  1  0  0  0  0
 49 71  1  0  0  0  0
 50 65  1  0  0  0  0
 51 64  1  0  0  0  0
 52 60  1  0  0  0  0
 53 61  1  0  0  0  0
 54 61  1  0  0  0  0
 55 61  1  0  0  0  0
 56 73  1  0  0  0  0
 57 58  1  0  0  0  0
 58 82  1  0  0  0  0
 59 61  1  0  0  0  0
 59 72  1  0  0  0  0
 60 73  1  0  0  0  0
 62 64  1  0  0  0  0
M  CHG  1  73   1
M  ISO  4  39 100  58 101  70 100  82 101
M  END
> <Batch ID>
0178

> <Smiles>
CNC(C)C(=O)NC(C(=O)N1Cc2cc([101O:1][101CH2:1]CC(=O)C(=O)Nc3nc([100NH:0][100C:0](=O)N4CCCC(n5nc(-c6ccc(Oc7ccc(F)cc7F)cc6)c(C(N)=O)c5N)C4)cc(F)c3F)ccc2CC1C(=O)NC1CCCc2ccccc21)C(C)(C)C

> <Shape>
0.292

> <Color>
0.103

> <Negative vol penalty>
0.000

$$$$

  -OEChem-04052304443D

 85 93  0     1  0  0  0  0  0999 V2000
  -25.6192  -37.6205   19.7867 C   0  0  0  0  0  0  0  0  0  0  0  0
  -26.3004  -36.4457   19.4847 C   0  0  0  0  0  0  0  0  0  0  0  0
  -23.7586   -9.6388   22.7241 C   0  0  0  0  0  0  0  0  0  0  0  0
  -23.5523  -10.0919   20.3599 C   0  0  0  0  0  0  0  0  0  0  0  0
  -24.8709  -37.7092   20.9597 C   0  0  0  0  0  0  0  0  0  0  0  0
  -26.2345  -35.3592   20.3562 C   0  0  0  0  0  0  0  0  0  0  0  0
  -26.2195  -29.4241   18.8462 C   0  0  0  0  0  0  0  0  0  0  0  0
  -22.9087   -8.5413   22.5880 C   0  0  0  0  0  0  0  0  0  0  0  0
  -22.7024   -8.9942   20.2238 C   0  0  0  0  0  0  0  0  0  0  0  0
  -27.2266  -28.4603   18.8200 C   0  0  0  0  0  0  0  0  0  0  0  0
  -23.1201   -5.3470   21.4995 C   0  0  0  0  0  0  0  0  0  0  0  0
  -23.4892   -4.1591   22.1306 C   0  0  0  0  0  0  0  0  0  0  0  0
  -29.8279  -19.6738   18.7272 C   0  0  0  0  0  0  0  0  0  0  0  0
  -26.5632  -27.7162   21.0167 C   0  0  0  0  0  0  0  0  0  0  0  0
  -21.4516   -4.2150   23.4276 C   0  0  0  0  0  0  0  0  0  0  0  0
  -24.0804  -10.4142   21.6101 C   0  0  0  0  0  0  0  0  0  0  0  0
  -29.1789  -18.4399   18.9709 C   0  0  0  0  0  0  0  0  0  0  0  0
  -26.3604  -11.5583   21.6295 C   0  0  0  0  0  0  0  0  0  0  0  0
  -24.7879  -36.6199   21.8413 C   0  0  0  0  0  0  0  0  0  0  0  0
  -25.3823  -29.5485   19.9642 C   0  0  0  0  0  0  0  0  0  0  0  0
  -25.4854  -35.4339   21.5428 C   0  0  0  0  0  0  0  0  0  0  0  0
  -25.5446  -28.6806   21.0535 C   0  0  0  0  0  0  0  0  0  0  0  0
  -22.3806   -8.2189   21.3378 C   0  0  0  0  0  0  0  0  0  0  0  0
  -27.4004  -27.6081   19.9066 C   0  0  0  0  0  0  0  0  0  0  0  0
  -21.9168   -5.9690   21.8325 C   0  0  0  0  0  0  0  0  0  0  0  0
  -22.6549   -3.5931   23.0946 C   0  0  0  0  0  0  0  0  0  0  0  0
  -21.0825   -5.4030   22.7965 C   0  0  0  0  0  0  0  0  0  0  0  0
  -24.9578  -11.5485   21.7502 C   0  0  0  0  0  0  0  0  0  0  0  0
  -26.7147  -12.8671   21.8485 C   0  0  0  0  0  0  0  0  0  0  0  0
  -29.0679  -20.6351   19.3518 C   0  0  0  0  0  0  0  0  0  0  0  0
  -28.0686  -18.7352   19.7273 C   0  0  0  0  0  0  0  0  0  0  0  0
  -28.0193  -25.3542   19.9936 C   0  0  0  0  0  0  0  0  0  1  0  0
  -29.5702  -17.1312   18.5351 C   0  0  0  0  0  0  0  0  0  0  0  0
  -27.2622  -10.4807   21.3448 C   0  0  0  0  0  0  0  0  0  0  0  0
  -28.9013  -24.3474   19.9831 C   0  0  0  0  0  0  0  0  0  0  0  0
  -28.4000  -22.9398   20.1086 C   0  0  0  0  0  0  0  0  0  0  0  0
  -24.7962  -31.8442   22.0833 C   0  0  0  0  0  0  0  0  0  0  0  0
  -22.5081  -29.7826   23.1015 C   0  0  0  0  0  0  0  0  0  0  0  0
  -21.3881  -26.5649   23.2997 C   0  0  0  0  0  0  0  0  0  0  0  0
  -25.9528  -18.3218   21.0307 C   0  0  0  0  0  0  0  0  0  0  0  0
  -24.0050  -36.7793   23.1205 C   0  0  0  0  0  0  0  0  0  0  0  0
  -24.2834  -30.5756   19.9658 C   0  0  0  0  0  0  0  0  0  0  0  0
  -24.6592  -28.7598   22.2693 C   0  0  0  0  0  0  0  0  0  0  0  0
  -23.6820  -35.4542   23.8061 C   0  0  0  0  0  0  0  0  0  0  0  0
  -23.9927  -16.7731   23.5678 C   0  0  0  0  0  0  0  0  0  0  0  0
  -24.9207  -34.5657   23.8609 C   0  0  0  0  0  0  0  0  0  0  0  0
  -24.1844  -15.2766   23.3111 C   0  0  0  0  0  0  0  0  0  0  0  0
  -23.9319  -17.5686   22.2650 C   0  0  0  0  0  0  0  0  0  0  0  0
  -25.2486  -15.8487   21.0914 C   0  0  0  0  0  0  0  0  0  0  0  0
  -25.4182  -34.2251   22.4509 C   0  0  1  0  0  0  0  0  0  0  0  0
  -23.8199  -30.9526   21.3695 C   0  0  1  0  0  0  0  0  0  0  0  0
  -25.3809  -15.0139   22.3756 C   0  0  2  0  0  0  0  0  0  0  0  0
  -30.8276  -17.0004   17.7080 C   0  0  0  0  0  0  0  0  0  0  0  0
  -19.5059  -25.1879   24.2261 C   0  0  0  0  0  0  0  0  0  0  0  0
  -23.7073  -30.0282   25.8964 C   0  0  0  0  0  0  0  0  0  0  0  0
  -22.4392  -27.9694   26.5457 C   0  0  0  0  0  0  0  0  0  0  0  0
  -21.2073  -30.0175   25.8311 C   0  0  0  0  0  0  0  0  0  0  0  0
  -20.5866  -25.6376   20.6059 C   0  0  0  0  0  0  0  0  0  0  0  0
  -22.4543  -28.6554   24.1043 C   0  0  1  0  0  0  0  0  0  0  0  0
  -20.0274  -25.9530   23.0197 C   0  0  2  0  0  0  0  0  0  0  0  0
  -22.4701  -29.1672   25.5724 C   0  0  0  0  0  0  0  0  0  0  0  0
  -24.4555  -12.7552   22.0248 N   0  0  0  0  0  0  0  0  0  0  0  0
  -25.5483  -13.5355   22.0785 N   0  0  0  0  0  0  0  0  0  0  0  0
  -23.6031  -29.7847   22.2258 N   0  0  0  0  0  0  0  0  0  0  0  0
  -25.0993  -17.2723   21.4318 N   0  0  0  0  0  0  0  0  0  0  0  0
  -27.9071  -13.4998   21.8650 N   0  0  0  0  0  0  0  0  0  0  0  0
  -26.7306   -9.1992   21.1464 N   0  0  0  0  0  0  0  0  0  0  0  0
  -29.2244  -22.0389   19.4486 N   0  0  0  0  0  0  0  0  0  0  0  0
  -27.0476  -17.9153   20.2686 N   0  0  0  0  0  0  0  0  0  0  0  0
  -24.5940  -33.1927   21.8598 N   0  0  0  0  0  0  0  0  0  0  0  0
  -21.2806  -27.8597   23.7615 N   0  0  0  0  0  0  0  0  0  0  0  0
  -20.1097  -25.0127   21.8664 N   0  3  0  0  0  0  0  0  0  0  0  0
  -28.9597  -16.0729   18.7730 O   0  0  0  0  0  0  0  0  0  0  0  0
  -28.5042  -10.6461   21.2848 O   0  0  0  0  0  0  0  0  0  0  0  0
  -27.3761  -22.6892   20.7353 O   0  0  0  0  0  0  0  0  0  0  0  0
  -25.6676  -31.3455   22.7860 O   0  0  0  0  0  0  0  0  0  0  0  0
  -21.6079  -30.6259   23.0906 O   0  0  0  0  0  0  0  0  0  0  0  0
  -22.4409  -25.9541   23.1295 O   0  0  0  0  0  0  0  0  0  0  0  0
  -25.7439  -19.4913   21.3632 O   0  0  0  0  0  0  0  0  0  0  0  0
  -27.9937  -20.0712   19.9638 O   0  0  0  0  0  0  0  0  0  0  0  0
  -30.2604  -24.5526   19.8595 O   0  0  0  0  0  0  0  0  0  0  0  0
  -21.5514   -7.1478   21.2045 O   0  0  0  0  0  0  0  0  0  0  0  0
  -28.3831  -26.6670   19.8839 O   0  0  0  0  0  0  0  0  0  1  0  0
  -23.0088   -2.4515   23.6995 F   0  0  0  0  0  0  0  0  0  0  0  0
  -19.9247   -5.9953   23.1198 F   0  0  0  0  0  0  0  0  0  0  0  0
  1  2  1  0  0  0  0
  1  5  2  0  0  0  0
  2  6  2  0  0  0  0
  3  8  2  0  0  0  0
  3 16  1  0  0  0  0
  4  9  1  0  0  0  0
  4 16  2  0  0  0  0
  5 19  1  0  0  0  0
  6 21  1  0  0  0  0
  7 10  2  0  0  0  0
  7 20  1  0  0  0  0
  8 23  1  0  0  0  0
  9 23  2  0  0  0  0
 10 24  1  0  0  0  0
 11 12  2  0  0  0  0
 11 25  1  0  0  0  0
 12 26  1  0  0  0  0
 13 17  1  0  0  0  0
 13 30  2  0  0  0  0
 14 22  1  0  0  0  0
 14 24  2  0  0  0  0
 15 26  2  0  0  0  0
 15 27  1  0  0  0  0
 16 28  1  0  0  0  0
 17 31  2  0  0  0  0
 17 33  1  0  0  0  0
 18 28  1  0  0  0  0
 18 29  2  0  0  0  0
 18 34  1  0  0  0  0
 19 21  2  0  0  0  0
 19 41  1  0  0  0  0
 20 22  2  0  0  0  0
 20 42  1  0  0  0  0
 21 50  1  0  0  0  0
 22 43  1  0  0  0  0
 23 82  1  0  0  0  0
 24 83  1  0  0  0  0
 25 27  2  0  0  0  0
 25 82  1  0  0  0  0
 26 84  1  0  0  0  0
 27 85  1  0  0  0  0
 28 62  2  0  0  0  0
 29 63  1  0  0  0  0
 29 66  1  0  0  0  0
 30 68  1  0  0  0  0
 30 80  1  0  0  0  0
 31 69  1  0  0  0  0
 31 80  1  0  0  0  0
 32 35  2  0  0  0  0
 32 83  1  0  0  0  0
 33 53  1  0  0  0  0
 33 73  2  0  0  0  0
 34 67  1  0  0  0  0
 34 74  2  0  0  0  0
 35 36  1  0  0  0  0
 35 81  1  0  0  0  0
 36 68  1  0  0  0  0
 36 75  2  0  0  0  0
 37 51  1  0  0  0  0
 37 70  1  0  0  0  0
 37 76  2  0  0  0  0
 38 59  1  0  0  0  0
 38 64  1  0  0  0  0
 38 77  2  0  0  0  0
 39 60  1  0  0  0  0
 39 71  1  0  0  0  0
 39 78  2  0  0  0  0
 40 65  1  0  0  0  0
 40 69  1  0  0  0  0
 40 79  2  0  0  0  0
 41 44  1  0  0  0  0
 42 51  1  0  0  0  0
 43 64  1  0  0  0  0
 44 46  1  0  0  0  0
 45 47  1  0  0  0  0
 45 48  1  0  0  0  0
 46 50  1  0  0  0  0
 47 52  1  0  0  0  0
 48 65  1  0  0  0  0
 49 52  1  0  0  0  0
 49 65  1  0  0  0  0
 50 70  1  0  0  0  0
 51 64  1  0  0  0  0
 52 63  1  0  0  0  0
 54 60  1  0  0  0  0
 55 61  1  0  0  0  0
 56 61  1  0  0  0  0
 57 61  1  0  0  0  0
 58 72  1  0  0  0  0
 59 61  1  0  0  0  0
 59 71  1  0  0  0  0
 60 72  1  0  0  0  0
 62 63  1  0  0  0  0
M  CHG  1  72   1
M  ISO  4  32 101  40 100  69 100  83 101
M  END
> <Batch ID>
0178

> <Smiles>
CNC(C)C(=O)NC(C(=O)N1Cc2cc([101O:1][101CH2:1]C(=O)C(=O)Nc3cc(C(C)=O)c([100NH:0][100C:0](=O)N4CCCC(n5nc(-c6ccc(Oc7ccc(F)cc7F)cc6)c(C(N)=O)c5N)C4)o3)ccc2CC1C(=O)NC1CCCc2ccccc21)C(C)(C)C

> <Shape>
0.296

> <Color>
0.090

> <Negative vol penalty>
0.000

$$$$

  -OEChem-04052304443D

 84 92  0     1  0  0  0  0  0999 V2000
  -25.3709  -29.0151   16.6793 C   0  0  0  0  0  0  0  0  0  0  0  0
  -25.0613  -27.6601   16.6202 C   0  0  0  0  0  0  0  0  0  0  0  0
  -30.1653  -19.6032   19.7421 C   0  0  0  0  0  0  0  0  0  0  0  0
  -27.9148  -19.5446   20.6190 C   0  0  0  0  0  0  0  0  0  0  0  0
  -25.8670  -29.5647   17.8607 C   0  0  0  0  0  0  0  0  0  0  0  0
  -25.2487  -26.8536   17.7422 C   0  0  0  0  0  0  0  0  0  0  0  0
  -21.8094  -22.0893   19.4677 C   0  0  0  0  0  0  0  0  0  0  0  0
  -29.9216  -20.8653   19.2008 C   0  0  0  0  0  0  0  0  0  0  0  0
  -27.6711  -20.8068   20.0777 C   0  0  0  0  0  0  0  0  0  0  0  0
  -21.9645  -20.7132   19.3065 C   0  0  0  0  0  0  0  0  0  0  0  0
  -30.0082  -24.2576   17.8968 C   0  0  0  0  0  0  0  0  0  0  0  0
  -30.9875  -25.2362   18.0666 C   0  0  0  0  0  0  0  0  0  0  0  0
  -22.5256  -11.2009   21.2775 C   0  0  0  0  0  0  0  0  0  0  0  0
  -22.9422  -20.5716   21.5072 C   0  0  0  0  0  0  0  0  0  0  0  0
  -30.7663  -25.0415   20.4646 C   0  0  0  0  0  0  0  0  0  0  0  0
  -29.1619  -18.9427   20.4512 C   0  0  0  0  0  0  0  0  0  0  0  0
  -23.5646  -12.1688   21.1608 C   0  0  0  0  0  0  0  0  0  0  0  0
  -29.9193  -17.3457   22.2907 C   0  0  0  0  0  0  0  0  0  0  0  0
  -26.0516  -28.7666   19.0007 C   0  0  0  0  0  0  0  0  0  0  0  0
  -22.2301  -22.7196   20.6476 C   0  0  0  0  0  0  0  0  0  0  0  0
  -25.7491  -27.3928   18.9396 C   0  0  0  0  0  0  0  0  0  0  0  0
  -22.7889  -21.9555   21.6820 C   0  0  0  0  0  0  0  0  0  0  0  0
  -28.6745  -21.4672   19.3686 C   0  0  0  0  0  0  0  0  0  0  0  0
  -22.5336  -19.9545   20.3251 C   0  0  0  0  0  0  0  0  0  0  0  0
  -29.4079  -23.6709   19.0109 C   0  0  0  0  0  0  0  0  0  0  0  0
  -31.3666  -25.6281   19.3504 C   0  0  0  0  0  0  0  0  0  0  0  0
  -29.7870  -24.0628   20.2948 C   0  0  0  0  0  0  0  0  0  0  0  0
  -29.4130  -17.6387   21.0102 C   0  0  0  0  0  0  0  0  0  0  0  0
  -29.9709  -15.9739   22.3339 C   0  0  0  0  0  0  0  0  0  0  0  0
  -24.6611  -11.6726   20.4906 C   0  0  0  0  0  0  0  0  0  0  0  0
  -22.8674  -10.0017   20.6918 C   0  0  0  0  0  0  0  0  0  0  0  0
  -23.4993  -13.5554   21.6901 C   0  0  0  0  0  0  0  0  0  0  0  0
  -30.3081  -18.2342   23.3467 C   0  0  0  0  0  0  0  0  0  0  0  0
  -24.3760  -24.9557   21.3537 C   0  0  0  0  0  0  0  0  0  0  0  0
  -22.1006  -16.4266   21.0371 C   0  0  0  0  0  0  0  0  0  0  0  0
  -23.0794  -24.7123   24.3171 C   0  0  0  0  0  0  0  0  0  0  0  0
  -21.3621  -22.8233   26.5819 C   0  0  0  0  0  0  0  0  0  0  0  0
  -26.9615  -11.6831   19.4636 C   0  0  0  0  0  0  0  0  0  0  0  0
  -26.6351  -29.3960   20.2409 C   0  0  0  0  0  0  0  0  0  0  0  0
  -22.0313  -24.2009   20.8167 C   0  0  0  0  0  0  0  0  0  0  0  0
  -23.2383  -22.5810   22.9763 C   0  0  0  0  0  0  0  0  0  0  0  0
  -26.4514  -28.5493   21.4977 C   0  0  0  0  0  0  0  0  0  0  0  0
  -30.4905  -12.1546   19.4918 C   0  0  0  0  0  0  0  0  0  0  0  0
  -26.8224  -27.0958   21.2211 C   0  0  0  0  0  0  0  0  0  0  0  0
  -30.6610  -13.5857   20.0066 C   0  0  0  0  0  0  0  0  0  0  0  0
  -29.2640  -12.0182   18.5913 C   0  0  0  0  0  0  0  0  0  0  0  0
  -28.1785  -13.9378   19.6896 C   0  0  0  0  0  0  0  0  0  0  0  0
  -25.9154  -26.4905   20.1430 C   0  0  1  0  0  0  0  0  0  0  0  0
  -22.9663  -24.8147   21.8541 C   0  0  1  0  0  0  0  0  0  0  0  0
  -29.3639  -14.1102   20.6533 C   0  0  2  0  0  0  0  0  0  0  0  0
  -20.4855  -22.8797   28.9326 C   0  0  0  0  0  0  0  0  0  0  0  0
  -25.9031  -24.2539   25.3785 C   0  0  0  0  0  0  0  0  0  0  0  0
  -24.8907  -23.3898   27.4990 C   0  0  0  0  0  0  0  0  0  0  0  0
  -24.4856  -25.7488   26.7964 C   0  0  0  0  0  0  0  0  0  0  0  0
  -18.5651  -22.5007   25.6700 C   0  0  0  0  0  0  0  0  0  0  0  0
  -22.0124  -15.4726   22.2092 C   0  0  0  0  0  0  0  0  0  0  0  0
  -22.6323  -17.8109   21.3502 C   0  0  0  0  0  0  0  0  0  1  0  0
  -23.3551  -23.8693   25.5387 C   0  0  1  0  0  0  0  0  0  0  0  0
  -20.1732  -23.1473   27.4685 C   0  0  2  0  0  0  0  0  0  0  0  0
  -24.6520  -24.3037   26.2781 C   0  0  0  0  0  0  0  0  0  0  0  0
  -29.1611  -16.5412   20.2918 N   0  0  0  0  0  0  0  0  0  0  0  0
  -29.5106  -15.5452   21.1237 N   0  0  0  0  0  0  0  0  0  0  0  0
  -23.0285  -24.0337   23.0912 N   0  0  0  0  0  0  0  0  0  0  0  0
  -28.0727  -12.5311   19.2715 N   0  0  0  0  0  0  0  0  0  0  0  0
  -30.3648  -15.1045   23.2886 N   0  0  0  0  0  0  0  0  0  0  0  0
  -30.1907  -19.6147   23.1355 N   0  0  0  0  0  0  0  0  0  0  0  0
  -25.9000  -12.2707   20.1511 N   0  0  0  0  0  0  0  0  0  0  0  0
  -22.2344  -14.1352   21.7460 N   0  0  0  0  0  0  0  0  0  0  0  0
  -24.6249  -26.1484   20.7018 N   0  0  0  0  0  0  0  0  0  0  0  0
  -22.1501  -23.9326   26.3587 N   0  0  0  0  0  0  0  0  0  0  0  0
  -18.9965  -22.3194   27.0800 N   0  3  0  0  0  0  0  0  0  0  0  0
  -24.5377  -14.1190   22.0257 O   0  0  0  0  0  0  0  0  0  0  0  0
  -30.7621  -17.8166   24.4389 O   0  0  0  0  0  0  0  0  0  0  0  0
  -25.1789  -24.0502   21.5461 O   0  0  0  0  0  0  0  0  0  0  0  0
  -21.7159  -16.1197   19.9091 O   0  0  0  0  0  0  0  0  0  0  0  0
  -22.9082  -25.9270   24.4467 O   0  0  0  0  0  0  0  0  0  0  0  0
  -21.5728  -21.6979   26.1353 O   0  0  0  0  0  0  0  0  0  0  0  0
  -26.9628  -10.5130   19.0728 O   0  0  0  0  0  0  0  0  0  0  0  0
  -28.4363  -22.6989   18.8407 O   0  0  0  0  0  0  0  0  0  0  0  0
  -22.6869  -18.6113   20.1701 O   0  0  0  0  0  0  0  0  0  1  0  0
  -32.3081  -26.5668   19.5133 F   0  0  0  0  0  0  0  0  0  0  0  0
  -29.2147  -23.5020   21.3689 F   0  0  0  0  0  0  0  0  0  0  0  0
  -22.0688   -8.9298   20.6626 F   0  0  0  0  0  0  0  0  0  0  0  0
  -24.4355  -10.0460   20.0052 S   0  0  0  0  0  0  0  0  0  0  0  0
  1  2  1  0  0  0  0
  1  5  2  0  0  0  0
  2  6  2  0  0  0  0
  3  8  2  0  0  0  0
  3 16  1  0  0  0  0
  4  9  1  0  0  0  0
  4 16  2  0  0  0  0
  5 19  1  0  0  0  0
  6 21  1  0  0  0  0
  7 10  2  0  0  0  0
  7 20  1  0  0  0  0
  8 23  1  0  0  0  0
  9 23  2  0  0  0  0
 10 24  1  0  0  0  0
 11 12  2  0  0  0  0
 11 25  1  0  0  0  0
 12 26  1  0  0  0  0
 13 17  1  0  0  0  0
 13 31  2  0  0  0  0
 14 22  1  0  0  0  0
 14 24  2  0  0  0  0
 15 26  2  0  0  0  0
 15 27  1  0  0  0  0
 16 28  1  0  0  0  0
 17 30  2  0  0  0  0
 17 32  1  0  0  0  0
 18 28  1  0  0  0  0
 18 29  2  0  0  0  0
 18 33  1  0  0  0  0
 19 21  2  0  0  0  0
 19 39  1  0  0  0  0
 20 22  2  0  0  0  0
 20 40  1  0  0  0  0
 21 48  1  0  0  0  0
 22 41  1  0  0  0  0
 23 79  1  0  0  0  0
 24 80  1  0  0  0  0
 25 27  2  0  0  0  0
 25 79  1  0  0  0  0
 26 81  1  0  0  0  0
 27 82  1  0  0  0  0
 28 61  2  0  0  0  0
 29 62  1  0  0  0  0
 29 65  1  0  0  0  0
 30 67  1  0  0  0  0
 30 84  1  0  0  0  0
 31 83  1  0  0  0  0
 31 84  1  0  0  0  0
 32 68  1  0  0  0  0
 32 72  2  0  0  0  0
 33 66  1  0  0  0  0
 33 73  2  0  0  0  0
 34 49  1  0  0  0  0
 34 69  1  0  0  0  0
 34 74  2  0  0  0  0
 35 56  1  0  0  0  0
 35 57  1  0  0  0  0
 35 75  2  0  0  0  0
 36 58  1  0  0  0  0
 36 63  1  0  0  0  0
 36 76  2  0  0  0  0
 37 59  1  0  0  0  0
 37 70  1  0  0  0  0
 37 77  2  0  0  0  0
 38 64  1  0  0  0  0
 38 67  1  0  0  0  0
 38 78  2  0  0  0  0
 39 42  1  0  0  0  0
 40 49  1  0  0  0  0
 41 63  1  0  0  0  0
 42 44  1  0  0  0  0
 43 45  1  0  0  0  0
 43 46  1  0  0  0  0
 44 48  1  0  0  0  0
 45 50  1  0  0  0  0
 46 64  1  0  0  0  0
 47 50  1  0  0  0  0
 47 64  1  0  0  0  0
 48 69  1  0  0  0  0
 49 63  1  0  0  0  0
 50 62  1  0  0  0  0
 51 59  1  0  0  0  0
 52 60  1  0  0  0  0
 53 60  1  0  0  0  0
 54 60  1  0  0  0  0
 55 71  1  0  0  0  0
 56 68  1  0  0  0  0
 57 80  1  0  0  0  0
 58 60  1  0  0  0  0
 58 70  1  0  0  0  0
 59 71  1  0  0  0  0
 61 62  1  0  0  0  0
M  CHG  1  71   1
M  ISO  4  38 100  57 101  67 100  80 101
M  END
> <Batch ID>
0178

> <Smiles>
CNC(C)C(=O)NC(C(=O)N1Cc2cc([101O:1][101CH2:1]C(=O)CNC(=O)c3cc(F)sc3[100NH:0][100C:0](=O)N3CCCC(n4nc(-c5ccc(Oc6ccc(F)cc6F)cc5)c(C(N)=O)c4N)C3)ccc2CC1C(=O)NC1CCCc2ccccc21)C(C)(C)C

> <Shape>
0.225

> <Color>
0.050

> <Negative vol penalty>
0.000

$$$$

  -OEChem-04052304443D

 92100  0     1  0  0  0  0  0999 V2000
  -26.6780  -35.7199   15.7709 C   0  0  0  0  0  0  0  0  0  0  0  0
  -26.8040  -34.3344   15.7743 C   0  0  0  0  0  0  0  0  0  0  0  0
  -23.2143   -9.7673   21.3485 C   0  0  0  0  0  0  0  0  0  0  0  0
  -23.8820  -10.6564   23.4935 C   0  0  0  0  0  0  0  0  0  0  0  0
  -26.8337  -36.4358   16.9571 C   0  0  0  0  0  0  0  0  0  0  0  0
  -27.0868  -33.6641   16.9639 C   0  0  0  0  0  0  0  0  0  0  0  0
  -25.0692  -28.1303   18.6408 C   0  0  0  0  0  0  0  0  0  0  0  0
  -22.5229   -8.7395   21.9897 C   0  0  0  0  0  0  0  0  0  0  0  0
  -23.1906   -9.6286   24.1347 C   0  0  0  0  0  0  0  0  0  0  0  0
  -25.6533  -26.8652   18.5944 C   0  0  0  0  0  0  0  0  0  0  0  0
  -23.2572   -5.7977   23.4835 C   0  0  0  0  0  0  0  0  0  0  0  0
  -23.4150   -4.5037   22.9875 C   0  0  0  0  0  0  0  0  0  0  0  0
  -26.3473  -27.1080   20.8920 C   0  0  0  0  0  0  0  0  0  0  0  0
  -21.0407   -4.3787   22.5582 C   0  0  0  0  0  0  0  0  0  0  0  0
  -31.4679  -17.9973   20.3131 C   0  0  0  0  0  0  0  0  0  0  0  0
  -23.8939  -10.7257   22.1004 C   0  0  0  0  0  0  0  0  0  0  0  0
  -24.1068  -13.0503   21.0715 C   0  0  0  0  0  0  0  0  0  0  0  0
  -27.1090  -35.7731   18.1636 C   0  0  0  0  0  0  0  0  0  0  0  0
  -25.1293  -28.8995   19.8118 C   0  0  0  0  0  0  0  0  0  0  0  0
  -27.2476  -34.3720   18.1672 C   0  0  0  0  0  0  0  0  0  0  0  0
  -25.7609  -28.3815   20.9514 C   0  0  0  0  0  0  0  0  0  0  0  0
  -22.5110   -8.6701   23.3828 C   0  0  0  0  0  0  0  0  0  0  0  0
  -26.2950  -26.3551   19.7192 C   0  0  0  0  0  0  0  0  0  0  0  0
  -21.9911   -6.3823   23.5169 C   0  0  0  0  0  0  0  0  0  0  0  0
  -22.3067   -3.7942   22.5248 C   0  0  0  0  0  0  0  0  0  0  0  0
  -20.8829   -5.6728   23.0542 C   0  0  0  0  0  0  0  0  0  0  0  0
  -24.6088  -11.7873   21.4385 C   0  0  0  0  0  0  0  0  0  0  0  0
  -30.2573  -17.5348   20.7462 C   0  0  0  0  0  0  0  0  0  0  0  0
  -25.1715  -13.6838   20.4785 C   0  0  0  0  0  0  0  0  0  0  0  0
  -30.2725  -19.7356   20.9839 C   0  0  0  0  0  0  0  0  0  0  0  0
  -22.7955  -13.6016   21.2508 C   0  0  0  0  0  0  0  0  0  0  0  0
  -29.8743  -21.1323   21.2963 C   0  0  0  0  0  0  0  0  0  0  0  0
  -26.3908  -31.7127   20.5853 C   0  0  0  0  0  0  0  0  0  0  0  0
  -28.9233  -23.8612   19.9007 C   0  0  0  0  0  0  0  0  0  0  0  0
  -24.8725  -31.1804   23.4020 C   0  0  0  0  0  0  0  0  0  0  0  0
  -23.5426  -28.9303   25.5964 C   0  0  0  0  0  0  0  0  0  0  0  0
  -30.5640  -15.0653   20.3539 C   0  0  0  0  0  0  0  0  0  0  0  0
  -27.3157  -36.5939   19.4120 C   0  0  0  0  0  0  0  0  0  0  0  0
  -24.4711  -30.2513   19.8539 C   0  0  0  0  0  0  0  0  0  0  0  0
  -25.8354  -29.1589   22.2393 C   0  0  0  0  0  0  0  0  0  0  0  0
  -27.2434  -35.7750   20.6982 C   0  0  0  0  0  0  0  0  0  0  0  0
  -29.6720  -11.8899   19.0128 C   0  0  0  0  0  0  0  0  0  0  0  0
  -28.0691  -34.4993   20.5661 C   0  0  0  0  0  0  0  0  0  0  0  0
  -28.2340  -11.6840   19.4941 C   0  0  0  0  0  0  0  0  0  0  0  0
  -30.5259  -12.5976   20.0633 C   0  0  0  0  0  0  0  0  0  0  0  0
  -28.5307  -13.6526   21.0509 C   0  0  0  0  0  0  0  0  0  0  0  0
  -27.5294  -33.6067   19.4420 C   0  0  1  0  0  0  0  0  0  0  0  0
  -25.0397  -31.1592   20.9401 C   0  0  1  0  0  0  0  0  0  0  0  0
  -27.6154  -13.0015   20.0012 C   0  0  2  0  0  0  0  0  0  0  0  0
  -22.4062  -28.7921   27.8295 C   0  0  0  0  0  0  0  0  0  0  0  0
  -27.5479  -31.6550   24.7902 C   0  0  0  0  0  0  0  0  0  0  0  0
  -26.5909  -30.5923   26.8452 C   0  0  0  0  0  0  0  0  0  0  0  0
  -25.5794  -32.6846   25.9389 C   0  0  0  0  0  0  0  0  0  0  0  0
  -25.7366  -18.9664   21.2095 C   0  0  0  0  0  0  0  0  0  0  0  0
  -21.1109  -27.7269   24.4143 C   0  0  0  0  0  0  0  0  0  0  0  0
  -28.0045  -24.9027   20.5093 C   0  0  0  0  0  0  0  0  0  1  0  0
  -28.1901  -18.5945   21.6920 C   0  0  0  0  0  0  0  0  0  0  0  0
  -30.1743  -23.5213   20.6974 C   0  0  2  0  0  0  0  0  0  0  0  0
  -25.2374  -30.5061   24.7024 C   0  0  1  0  0  0  0  0  0  0  0  0
  -22.2113  -28.9001   26.3251 C   0  0  2  0  0  0  0  0  0  0  0  0
  -26.2394  -31.3454   25.5445 C   0  0  0  0  0  0  0  0  0  0  0  0
  -27.1497  -19.0341   20.6675 C   0  0  0  0  0  0  0  0  0  0  0  0
  -31.3381  -24.3834   20.2613 C   0  0  0  0  0  0  0  0  0  0  0  0
  -25.8924  -11.6262   21.1063 N   0  0  0  0  0  0  0  0  0  0  0  0
  -29.5382  -18.6316   21.1559 N   0  0  0  0  0  0  0  0  0  0  0  0
  -26.2060  -12.7962   20.5242 N   0  0  0  0  0  0  0  0  0  0  0  0
  -31.4495  -19.3621   20.4714 N   0  3  0  0  0  0  0  0  0  0  0  0
  -25.1822  -30.4782   22.2285 N   0  0  0  0  0  0  0  0  0  0  0  0
  -29.8794  -13.8394   20.4934 N   0  0  0  0  0  0  0  0  0  0  0  0
  -25.3142  -14.9079   19.9275 N   0  0  0  0  0  0  0  0  0  0  0  0
  -21.8204  -12.8153   21.8794 N   0  0  0  0  0  0  0  0  0  0  0  0
  -29.8372  -16.1817   20.7662 N   0  0  0  0  0  0  0  0  0  0  0  0
  -30.4424  -22.1206   20.5027 N   0  0  0  0  0  0  0  0  0  0  0  0
  -26.3448  -32.9011   19.8816 N   0  0  0  0  0  0  0  0  0  0  0  0
  -23.9782  -30.2208   25.3817 N   0  0  0  0  0  0  0  0  0  0  0  0
  -21.3989  -27.7360   25.8717 N   0  3  0  0  0  0  0  0  0  0  0  0
  -22.4927  -14.7511   20.8502 O   0  0  0  0  0  0  0  0  0  0  0  0
  -29.1009  -21.3418   22.2272 O   0  0  0  0  0  0  0  0  0  0  0  0
  -27.4002  -31.1073   20.9261 O   0  0  0  0  0  0  0  0  0  0  0  0
  -28.6833  -23.3446   18.8091 O   0  0  0  0  0  0  0  0  0  0  0  0
  -24.3262  -32.2861   23.4266 O   0  0  0  0  0  0  0  0  0  0  0  0
  -24.1385  -27.9110   25.2553 O   0  0  0  0  0  0  0  0  0  0  0  0
  -31.7001  -15.1234   19.8766 O   0  0  0  0  0  0  0  0  0  0  0  0
  -21.8362   -7.6675   24.0089 O   0  0  0  0  0  0  0  0  0  0  0  0
  -26.8665  -25.1208   19.6764 O   0  0  0  0  0  0  0  0  0  1  0  0
  -22.4586   -2.5520   22.0471 F   0  0  0  0  0  0  0  0  0  0  0  0
  -19.6643   -6.2296   23.0827 F   0  0  0  0  0  0  0  0  0  0  0  0
  -27.3995  -20.3071   20.2680 F   0  0  0  0  0  0  0  0  0  0  0  0
  -27.2269  -18.2518   19.5609 F   0  0  0  0  0  0  0  0  0  0  0  0
  -32.4620  -24.0641   20.9404 F   0  0  0  0  0  0  0  0  0  0  0  0
  -31.0945  -25.6965   20.4604 F   0  0  0  0  0  0  0  0  0  0  0  0
  -31.6005  -24.2082   18.9464 F   0  0  0  0  0  0  0  0  0  0  0  0
  1  2  1  0  0  0  0
  1  5  2  0  0  0  0
  2  6  2  0  0  0  0
  3  8  2  0  0  0  0
  3 16  1  0  0  0  0
  4  9  1  0  0  0  0
  4 16  2  0  0  0  0
  5 18  1  0  0  0  0
  6 20  1  0  0  0  0
  7 10  2  0  0  0  0
  7 19  1  0  0  0  0
  8 22  1  0  0  0  0
  9 22  2  0  0  0  0
 10 23  1  0  0  0  0
 11 12  2  0  0  0  0
 11 24  1  0  0  0  0
 12 25  1  0  0  0  0
 13 21  1  0  0  0  0
 13 23  2  0  0  0  0
 14 25  2  0  0  0  0
 14 26  1  0  0  0  0
 15 28  2  0  0  0  0
 15 67  1  0  0  0  0
 16 27  1  0  0  0  0
 17 27  1  0  0  0  0
 17 29  2  0  0  0  0
 17 31  1  0  0  0  0
 18 20  2  0  0  0  0
 18 38  1  0  0  0  0
 19 21  2  0  0  0  0
 19 39  1  0  0  0  0
 20 47  1  0  0  0  0
 21 40  1  0  0  0  0
 22 84  1  0  0  0  0
 23 85  1  0  0  0  0
 24 26  2  0  0  0  0
 24 84  1  0  0  0  0
 25 86  1  0  0  0  0
 26 87  1  0  0  0  0
 27 64  2  0  0  0  0
 28 65  1  0  0  0  0
 28 72  1  0  0  0  0
 29 66  1  0  0  0  0
 29 70  1  0  0  0  0
 30 32  1  0  0  0  0
 30 65  1  0  0  0  0
 30 67  2  0  0  0  0
 31 71  1  0  0  0  0
 31 77  2  0  0  0  0
 32 73  1  0  0  0  0
 32 78  2  0  0  0  0
 33 48  1  0  0  0  0
 33 74  1  0  0  0  0
 33 79  2  0  0  0  0
 34 56  1  0  0  0  0
 34 58  1  0  0  0  0
 34 80  2  0  0  0  0
 35 59  1  0  0  0  0
 35 68  1  0  0  0  0
 35 81  2  0  0  0  0
 36 60  1  0  0  0  0
 36 75  1  0  0  0  0
 36 82  2  0  0  0  0
 37 69  1  0  0  0  0
 37 72  1  0  0  0  0
 37 83  2  0  0  0  0
 38 41  1  0  0  0  0
 39 48  1  0  0  0  0
 40 68  1  0  0  0  0
 41 43  1  0  0  0  0
 42 44  1  0  0  0  0
 42 45  1  0  0  0  0
 43 47  1  0  0  0  0
 44 49  1  0  0  0  0
 45 69  1  0  0  0  0
 46 49  1  0  0  0  0
 46 69  1  0  0  0  0
 47 74  1  0  0  0  0
 48 68  1  0  0  0  0
 49 66  1  0  0  0  0
 50 60  1  0  0  0  0
 51 61  1  0  0  0  0
 52 61  1  0  0  0  0
 53 61  1  0  0  0  0
 54 62  1  0  0  0  0
 55 76  1  0  0  0  0
 56 85  1  0  0  0  0
 57 62  1  0  0  0  0
 57 65  1  0  0  0  0
 58 63  1  0  0  0  0
 58 73  1  0  0  0  0
 59 61  1  0  0  0  0
 59 75  1  0  0  0  0
 60 76  1  0  0  0  0
 62 88  1  0  0  0  0
 62 89  1  0  0  0  0
 63 90  1  0  0  0  0
 63 91  1  0  0  0  0
 63 92  1  0  0  0  0
 64 66  1  0  0  0  0
M  CHG  2  67   1  76   1
M  ISO  4  37 100  56 101  72 100  85 101
M  END
> <Batch ID>
0178

> <Smiles>
CNC(C)C(=O)NC(C(=O)N1Cc2cc([101O:1][101CH2:1]C(=O)C(NC(=O)c3ncc([100NH:0][100C:0](=O)N4CCCC(n5nc(-c6ccc(Oc7ccc(F)cc7F)cc6)c(C(N)=O)c5N)C4)n3CC(C)(F)F)C(F)(F)F)ccc2CC1C(=O)NC1CCCc2ccccc21)C(C)(C)C

> <Shape>
0.342

> <Color>
0.217

> <Negative vol penalty>
0.000

$$$$

  -OEChem-04052304443D

 86 94  0     1  0  0  0  0  0999 V2000
  -23.9222  -30.9641   20.5425 C   0  0  0  0  0  0  0  0  0  0  0  0
  -24.6327  -30.2340   19.5951 C   0  0  0  0  0  0  0  0  0  0  0  0
  -23.6355   -9.6210   19.9511 C   0  0  0  0  0  0  0  0  0  0  0  0
  -23.2254   -9.9628   22.3074 C   0  0  0  0  0  0  0  0  0  0  0  0
  -24.5503  -31.3784   21.7163 C   0  0  0  0  0  0  0  0  0  0  0  0
  -25.9722  -29.9188   19.8205 C   0  0  0  0  0  0  0  0  0  0  0  0
  -27.0515  -25.1023   18.6886 C   0  0  0  0  0  0  0  0  0  0  0  0
  -22.9246   -8.4219   20.0013 C   0  0  0  0  0  0  0  0  0  0  0  0
  -22.5145   -8.7637   22.3576 C   0  0  0  0  0  0  0  0  0  0  0  0
  -27.2113  -24.7855   17.3403 C   0  0  0  0  0  0  0  0  0  0  0  0
  -20.8986   -5.6156   23.1869 C   0  0  0  0  0  0  0  0  0  0  0  0
  -21.1551   -4.7539   24.2534 C   0  0  0  0  0  0  0  0  0  0  0  0
  -29.6069  -24.8715   17.6102 C   0  0  0  0  0  0  0  0  0  0  0  0
  -23.4669   -4.5959   23.5697 C   0  0  0  0  0  0  0  0  0  0  0  0
  -23.7859  -10.3914   21.1042 C   0  0  0  0  0  0  0  0  0  0  0  0
  -24.0079  -12.9117   20.7781 C   0  0  0  0  0  0  0  0  0  0  0  0
  -25.8955  -31.0598   21.9605 C   0  0  0  0  0  0  0  0  0  0  0  0
  -28.1700  -25.3171   19.5067 C   0  0  0  0  0  0  0  0  0  0  0  0
  -26.6193  -30.3304   20.9980 C   0  0  0  0  0  0  0  0  0  0  0  0
  -29.4586  -25.1884   18.9692 C   0  0  0  0  0  0  0  0  0  0  0  0
  -22.3641   -7.9933   21.2045 C   0  0  0  0  0  0  0  0  0  0  0  0
  -28.4890  -24.6729   16.8003 C   0  0  0  0  0  0  0  0  0  0  0  0
  -21.9262   -5.9673   22.3117 C   0  0  0  0  0  0  0  0  0  0  0  0
  -22.4392   -4.2441   24.4448 C   0  0  0  0  0  0  0  0  0  0  0  0
  -23.2104   -5.4575   22.5031 C   0  0  0  0  0  0  0  0  0  0  0  0
  -24.5206  -11.6298   21.0531 C   0  0  0  0  0  0  0  0  0  0  0  0
  -31.6648  -18.9531   18.0844 C   0  0  0  0  0  0  0  0  0  0  0  0
  -33.0189  -19.2067   18.0186 C   0  0  0  0  0  0  0  0  0  0  0  0
  -25.1005  -13.7410   20.8488 C   0  0  0  0  0  0  0  0  0  0  0  0
  -31.5950  -20.8215   16.9379 C   0  0  0  0  0  0  0  0  0  0  0  0
  -22.6641  -13.3167   20.4850 C   0  0  0  0  0  0  0  0  0  0  0  0
  -29.2854  -27.7786   21.1803 C   0  0  0  0  0  0  0  0  0  0  0  0
  -31.4559  -25.5967   22.2053 C   0  0  0  0  0  0  0  0  0  0  0  0
  -33.1171  -22.6716   21.6299 C   0  0  0  0  0  0  0  0  0  0  0  0
  -29.8634  -22.3280   15.9031 C   0  0  0  0  0  0  0  0  0  0  0  0
  -30.5006  -14.6968   19.4726 C   0  0  0  0  0  0  0  0  0  0  0  0
  -26.5448  -31.5702   23.2225 C   0  0  0  0  0  0  0  0  0  0  0  0
  -27.9810  -25.6319   20.9653 C   0  0  0  0  0  0  0  0  0  0  0  0
  -30.6922  -25.3893   19.8097 C   0  0  0  0  0  0  0  0  0  0  0  0
  -27.8617  -30.8733   23.5547 C   0  0  0  0  0  0  0  0  0  0  0  0
  -29.7740  -12.9123   22.5448 C   0  0  0  0  0  0  0  0  0  0  0  0
  -28.7438  -30.7793   22.3137 C   0  0  0  0  0  0  0  0  0  0  0  0
  -28.3199  -12.4795   22.3821 C   0  0  0  0  0  0  0  0  0  0  0  0
  -30.4997  -12.9249   21.2047 C   0  0  0  0  0  0  0  0  0  0  0  0
  -28.3761  -13.3800   20.0073 C   0  0  0  0  0  0  0  0  0  0  0  0
  -28.0669  -29.9476   21.2175 C   0  0  1  0  0  0  0  0  0  0  0  0
  -29.1843  -26.3353   21.5856 C   0  0  1  0  0  0  0  0  0  0  0  0
  -27.6063  -13.3563   21.3414 C   0  0  1  0  0  0  0  0  0  0  0  0
  -34.1578  -18.4410   18.5632 C   0  0  0  0  0  0  0  0  0  0  0  0
  -34.8570  -21.1648   22.6297 C   0  0  0  0  0  0  0  0  0  0  0  0
  -29.8270  -23.4017   13.6216 C   0  0  0  0  0  0  0  0  0  0  0  0
  -33.6379  -27.5461   21.3400 C   0  0  0  0  0  0  0  0  0  0  0  0
  -35.2774  -25.6582   21.4660 C   0  0  0  0  0  0  0  0  0  0  0  0
  -34.0693  -26.3978   23.5193 C   0  0  0  0  0  0  0  0  0  0  0  0
  -31.2168  -20.4107   21.8196 C   0  0  0  0  0  0  0  0  0  0  0  0
  -31.0278  -17.7978   18.7486 C   0  0  0  0  0  0  0  0  0  0  0  0
  -32.8108  -25.1314   21.7292 C   0  0  1  0  0  0  0  0  0  0  0  0
  -33.3706  -21.4659   22.5168 C   0  0  2  0  0  0  0  0  0  0  0  0
  -29.8235  -23.6403   15.1243 C   0  0  1  0  0  0  0  0  0  1  0  0
  -33.9258  -26.1814   21.9971 C   0  0  0  0  0  0  0  0  0  0  0  0
  -25.8366  -11.6389   21.2813 N   0  0  0  0  0  0  0  0  0  0  0  0
  -30.8468  -19.8782   17.4656 N   0  0  0  0  0  0  0  0  0  0  0  0
  -26.1600  -12.9367   21.1498 N   0  0  0  0  0  0  0  0  0  0  0  0
  -30.4553  -25.7016   21.2288 N   0  0  0  0  0  0  0  0  0  0  0  0
  -29.7894  -13.7326   20.2089 N   0  0  0  0  0  0  0  0  0  0  0  0
  -25.2487  -15.0724   20.6822 N   0  0  0  0  0  0  0  0  0  0  0  0
  -21.6630  -12.3364   20.4522 N   0  0  0  0  0  0  0  0  0  0  0  0
  -31.1684  -21.9601   16.2137 N   0  0  0  0  0  0  0  0  0  0  0  0
  -28.1781  -28.5353   21.5132 N   0  0  0  0  0  0  0  0  0  0  0  0
  -33.0437  -23.8378   22.3621 N   0  0  0  0  0  0  0  0  0  0  0  0
  -29.7763  -15.4602   18.4922 N   0  0  0  0  0  0  0  0  0  0  0  0
  -32.6880  -20.2626   21.9627 N   0  3  0  0  0  0  0  0  0  0  0  0
  -22.3630  -14.5100   20.2427 O   0  0  0  0  0  0  0  0  0  0  0  0
  -30.2939  -28.1766   20.6091 O   0  0  0  0  0  0  0  0  0  0  0  0
  -31.2894  -25.8507   23.4009 O   0  0  0  0  0  0  0  0  0  0  0  0
  -32.9998  -22.5878   20.4094 O   0  0  0  0  0  0  0  0  0  0  0  0
  -28.8317  -21.7324   16.1996 O   0  0  0  0  0  0  0  0  0  0  0  0
  -31.7062  -14.8884   19.6350 O   0  0  0  0  0  0  0  0  0  0  0  0
  -31.6233  -16.1333   16.8308 O   0  0  0  0  0  0  0  0  0  0  0  0
  -29.4122  -17.3451   16.7402 O   0  0  0  0  0  0  0  0  0  0  0  0
  -21.6702   -6.8234   21.2538 O   0  0  0  0  0  0  0  0  0  0  0  0
  -28.6478  -24.3644   15.4844 O   0  0  0  0  0  0  0  0  0  1  0  0
  -22.6857   -3.4179   25.4699 F   0  0  0  0  0  0  0  0  0  0  0  0
  -24.2020   -5.7927   21.6664 F   0  0  0  0  0  0  0  0  0  0  0  0
  -33.2905  -20.6588   17.1473 S   0  0  0  0  0  0  0  0  0  0  0  0
  -30.4545  -16.6775   17.4946 S   0  0  0  0  0  0  0  0  0  0  0  0
  1  2  1  0  0  0  0
  1  5  2  0  0  0  0
  2  6  2  0  0  0  0
  3  8  2  0  0  0  0
  3 15  1  0  0  0  0
  4  9  1  0  0  0  0
  4 15  2  0  0  0  0
  5 17  1  0  0  0  0
  6 19  1  0  0  0  0
  7 10  2  0  0  0  0
  7 18  1  0  0  0  0
  8 21  1  0  0  0  0
  9 21  2  0  0  0  0
 10 22  1  0  0  0  0
 11 12  2  0  0  0  0
 11 23  1  0  0  0  0
 12 24  1  0  0  0  0
 13 20  1  0  0  0  0
 13 22  2  0  0  0  0
 14 24  2  0  0  0  0
 14 25  1  0  0  0  0
 15 26  1  0  0  0  0
 16 26  1  0  0  0  0
 16 29  2  0  0  0  0
 16 31  1  0  0  0  0
 17 19  2  0  0  0  0
 17 37  1  0  0  0  0
 18 20  2  0  0  0  0
 18 38  1  0  0  0  0
 19 46  1  0  0  0  0
 20 39  1  0  0  0  0
 21 81  1  0  0  0  0
 22 82  1  0  0  0  0
 23 25  2  0  0  0  0
 23 81  1  0  0  0  0
 24 83  1  0  0  0  0
 25 84  1  0  0  0  0
 26 61  2  0  0  0  0
 27 28  2  0  0  0  0
 27 56  1  0  0  0  0
 27 62  1  0  0  0  0
 28 49  1  0  0  0  0
 28 85  1  0  0  0  0
 29 63  1  0  0  0  0
 29 66  1  0  0  0  0
 30 62  2  0  0  0  0
 30 68  1  0  0  0  0
 30 85  1  0  0  0  0
 31 67  1  0  0  0  0
 31 73  2  0  0  0  0
 32 47  1  0  0  0  0
 32 69  1  0  0  0  0
 32 74  2  0  0  0  0
 33 57  1  0  0  0  0
 33 64  1  0  0  0  0
 33 75  2  0  0  0  0
 34 58  1  0  0  0  0
 34 70  1  0  0  0  0
 34 76  2  0  0  0  0
 35 59  1  0  0  0  0
 35 68  1  0  0  0  0
 35 77  2  0  0  0  0
 36 65  1  0  0  0  0
 36 71  1  0  0  0  0
 36 78  2  0  0  0  0
 37 40  1  0  0  0  0
 38 47  1  0  0  0  0
 39 64  1  0  0  0  0
 40 42  1  0  0  0  0
 41 43  1  0  0  0  0
 41 44  1  0  0  0  0
 42 46  1  0  0  0  0
 43 48  1  0  0  0  0
 44 65  1  0  0  0  0
 45 48  1  0  0  0  0
 45 65  1  0  0  0  0
 46 69  1  0  0  0  0
 47 64  1  0  0  0  0
 48 63  1  0  0  0  0
 50 58  1  0  0  0  0
 51 59  1  0  0  0  0
 52 60  1  0  0  0  0
 53 60  1  0  0  0  0
 54 60  1  0  0  0  0
 55 72  1  0  0  0  0
 56 86  1  0  0  0  0
 57 60  1  0  0  0  0
 57 70  1  0  0  0  0
 58 72  1  0  0  0  0
 59 82  1  0  0  0  0
 61 63  1  0  0  0  0
 71 86  1  0  0  0  0
 79 86  2  0  0  0  0
 80 86  2  0  0  0  0
M  CHG  1  72   1
M  ISO  4  36 100  59 101  71 100  82 101
M  END
> <Batch ID>
0178

> <Smiles>
CNC(C)C(=O)NC(C(=O)N1Cc2cc([101O:1][101CH:1](C)C(=O)Nc3nc(CS(=O)(=O)[100NH:0][100C:0](=O)N4CCCC(n5nc(-c6ccc(Oc7ccc(F)cc7F)cc6)c(C(N)=O)c5N)C4)c(C)s3)ccc2CC1C(=O)NC1CCCc2ccccc21)C(C)(C)C

> <Shape>
0.248

> <Color>
0.161

> <Negative vol penalty>
0.000

$$$$

  -OEChem-04052304443D

 85 93  0     1  0  0  0  0  0999 V2000
  -19.7319  -27.0129   26.4455 C   0  0  0  0  0  0  0  0  0  0  0  0
  -21.0416  -26.8088   26.0230 C   0  0  0  0  0  0  0  0  0  0  0  0
  -23.7618  -13.1222   20.2611 C   0  0  0  0  0  0  0  0  0  0  0  0
  -25.9605  -13.4938   21.1910 C   0  0  0  0  0  0  0  0  0  0  0  0
  -18.7573  -27.4027   25.5279 C   0  0  0  0  0  0  0  0  0  0  0  0
  -21.3772  -26.9935   24.6822 C   0  0  0  0  0  0  0  0  0  0  0  0
  -26.6657  -29.1529   22.4745 C   0  0  0  0  0  0  0  0  0  0  0  0
  -24.0244  -11.7544   20.1867 C   0  0  0  0  0  0  0  0  0  0  0  0
  -26.2231  -12.1259   21.1166 C   0  0  0  0  0  0  0  0  0  0  0  0
  -27.7938  -28.5193   21.9551 C   0  0  0  0  0  0  0  0  0  0  0  0
  -24.0733   -9.1091   22.2923 C   0  0  0  0  0  0  0  0  0  0  0  0
  -23.0790   -8.2335   22.7282 C   0  0  0  0  0  0  0  0  0  0  0  0
  -26.9397  -28.8421   19.7223 C   0  0  0  0  0  0  0  0  0  0  0  0
  -22.9857   -7.2433   20.5264 C   0  0  0  0  0  0  0  0  0  0  0  0
  -24.7298  -13.9920   20.7632 C   0  0  0  0  0  0  0  0  0  0  0  0
  -23.8851  -16.1035   21.9189 C   0  0  0  0  0  0  0  0  0  0  0  0
  -19.0831  -27.6016   24.1770 C   0  0  0  0  0  0  0  0  0  0  0  0
  -25.6593  -29.6269   21.6208 C   0  0  0  0  0  0  0  0  0  0  0  0
  -20.4057  -27.3851   23.7453 C   0  0  0  0  0  0  0  0  0  0  0  0
  -25.8010  -29.4837   20.2332 C   0  0  0  0  0  0  0  0  0  0  0  0
  -25.2551  -11.2562   20.6145 C   0  0  0  0  0  0  0  0  0  0  0  0
  -27.9296  -28.3612   20.5790 C   0  0  0  0  0  0  0  0  0  0  0  0
  -24.5238   -9.0519   20.9733 C   0  0  0  0  0  0  0  0  0  0  0  0
  -22.5352   -7.3005   21.8453 C   0  0  0  0  0  0  0  0  0  0  0  0
  -23.9800   -8.1190   20.0905 C   0  0  0  0  0  0  0  0  0  0  0  0
  -24.4593  -15.4052   20.8398 C   0  0  0  0  0  0  0  0  0  0  0  0
  -31.4229  -21.5500   19.5223 C   0  0  0  0  0  0  0  0  0  0  0  0
  -30.9135  -22.3709   18.5381 C   0  0  0  0  0  0  0  0  0  0  0  0
  -23.8429  -17.4104   21.4985 C   0  0  0  0  0  0  0  0  0  0  0  0
  -29.2704  -20.9220   18.6419 C   0  0  0  0  0  0  0  0  0  0  0  0
  -23.4306  -15.6146   23.1878 C   0  0  0  0  0  0  0  0  0  0  0  0
  -22.5742  -28.9789   21.2135 C   0  0  0  0  0  0  0  0  0  0  0  0
  -29.8116  -25.8489   18.7742 C   0  0  0  0  0  0  0  0  0  0  0  0
  -22.7220  -31.4770   19.1495 C   0  0  0  0  0  0  0  0  0  0  0  0
  -24.6256  -33.4369   17.1046 C   0  0  0  0  0  0  0  0  0  0  0  0
  -27.0440  -20.5278   17.5311 C   0  0  0  0  0  0  0  0  0  0  0  0
  -17.9856  -27.9772   23.2132 C   0  0  0  0  0  0  0  0  0  0  0  0
  -24.4613  -30.3320   22.1953 C   0  0  0  0  0  0  0  0  0  0  0  0
  -24.7586  -29.9930   19.2728 C   0  0  0  0  0  0  0  0  0  0  0  0
  -18.5022  -28.5150   21.8812 C   0  0  0  0  0  0  0  0  0  0  0  0
  -23.5149  -20.0558   17.5200 C   0  0  0  0  0  0  0  0  0  0  0  0
  -19.6189  -27.6257   21.3435 C   0  0  0  0  0  0  0  0  0  0  0  0
  -23.3038  -18.8771   18.4730 C   0  0  0  0  0  0  0  0  0  0  0  0
  -24.7907  -19.8966   16.6949 C   0  0  0  0  0  0  0  0  0  0  0  0
  -25.7969  -18.4654   18.4294 C   0  0  0  0  0  0  0  0  0  0  0  0
  -20.8140  -27.5993   22.3040 C   0  0  1  0  0  0  0  0  0  0  0  0
  -23.2548  -30.3176   21.2617 C   0  0  1  0  0  0  0  0  0  0  0  0
  -24.5584  -18.6122   19.3283 C   0  0  2  0  0  0  0  0  0  0  0  0
  -32.6921  -21.6320   20.2741 C   0  0  0  0  0  0  0  0  0  0  0  0
  -24.4587  -35.3748   15.5190 C   0  0  0  0  0  0  0  0  0  0  0  0
  -21.5124  -29.6397   17.0350 C   0  0  0  0  0  0  0  0  0  0  0  0
  -22.2430  -31.2809   15.2912 C   0  0  0  0  0  0  0  0  0  0  0  0
  -20.6007  -31.9685   17.0384 C   0  0  0  0  0  0  0  0  0  0  0  0
  -30.8086  -23.5264   15.7443 C   0  0  0  0  0  0  0  0  0  0  0  0
  -32.0605  -25.4477   16.7418 C   0  0  0  0  0  0  0  0  0  0  0  0
  -26.4496  -35.0888   18.7487 C   0  0  0  0  0  0  0  0  0  0  0  0
  -29.7155  -25.0038   17.5070 C   0  0  0  0  0  0  0  0  0  0  0  0
  -28.8651  -27.0327   18.8424 C   0  0  0  0  0  0  0  0  0  1  0  0
  -23.0233  -31.6320   17.6784 C   0  0  1  0  0  0  0  0  0  0  0  0
  -24.7179  -34.9447   16.9545 C   0  0  2  0  0  0  0  0  0  0  0  0
  -21.8637  -31.1188   16.7787 C   0  0  0  0  0  0  0  0  0  0  0  0
  -31.0238  -24.3487   17.0209 C   0  0  0  0  0  0  0  0  0  0  0  0
  -24.7602  -16.2024   19.8112 N   0  0  0  0  0  0  0  0  0  0  0  0
  -29.6795  -22.0122   18.0318 N   0  0  0  0  0  0  0  0  0  0  0  0
  -24.3734  -17.4152   20.2420 N   0  0  0  0  0  0  0  0  0  0  0  0
  -23.6025  -30.6697   19.8835 N   0  0  0  0  0  0  0  0  0  0  0  0
  -25.9379  -19.6528   17.5720 N   0  0  0  0  0  0  0  0  0  0  0  0
  -23.4041  -18.5445   22.0848 N   0  0  0  0  0  0  0  0  0  0  0  0
  -23.5478  -14.2441   23.4566 N   0  0  0  0  0  0  0  0  0  0  0  0
  -31.5661  -23.4896   18.0595 N   0  0  0  0  0  0  0  0  0  0  0  0
  -28.0605  -20.2147   18.4328 N   0  0  0  0  0  0  0  0  0  0  0  0
  -21.5943  -28.8111   22.1732 N   0  0  0  0  0  0  0  0  0  0  0  0
  -23.3594  -33.0372   17.4764 N   0  0  0  0  0  0  0  0  0  0  0  0
  -26.0726  -35.4227   17.3511 N   0  3  0  0  0  0  0  0  0  0  0  0
  -22.9202  -16.3681   24.0510 O   0  0  0  0  0  0  0  0  0  0  0  0
  -22.9119  -28.1595   20.3672 O   0  0  0  0  0  0  0  0  0  0  0  0
  -30.6210  -25.6217   19.6713 O   0  0  0  0  0  0  0  0  0  0  0  0
  -21.7455  -32.0569   19.6311 O   0  0  0  0  0  0  0  0  0  0  0  0
  -25.5802  -32.6882   16.9077 O   0  0  0  0  0  0  0  0  0  0  0  0
  -27.0744  -21.5003   16.7725 O   0  0  0  0  0  0  0  0  0  0  0  0
  -25.5116   -9.9215   20.5422 O   0  0  0  0  0  0  0  0  0  0  0  0
  -29.0293  -27.7426   20.0694 O   0  0  0  0  0  0  0  0  0  1  0  0
  -21.5814   -6.4587   22.2646 F   0  0  0  0  0  0  0  0  0  0  0  0
  -24.4096   -8.0585   18.8225 F   0  0  0  0  0  0  0  0  0  0  0  0
  -30.3195  -20.2750   19.8359 S   0  0  0  0  0  0  0  0  0  0  0  0
  1  2  1  0  0  0  0
  1  5  2  0  0  0  0
  2  6  2  0  0  0  0
  3  8  2  0  0  0  0
  3 15  1  0  0  0  0
  4  9  1  0  0  0  0
  4 15  2  0  0  0  0
  5 17  1  0  0  0  0
  6 19  1  0  0  0  0
  7 10  2  0  0  0  0
  7 18  1  0  0  0  0
  8 21  1  0  0  0  0
  9 21  2  0  0  0  0
 10 22  1  0  0  0  0
 11 12  2  0  0  0  0
 11 23  1  0  0  0  0
 12 24  1  0  0  0  0
 13 20  1  0  0  0  0
 13 22  2  0  0  0  0
 14 24  2  0  0  0  0
 14 25  1  0  0  0  0
 15 26  1  0  0  0  0
 16 26  1  0  0  0  0
 16 29  2  0  0  0  0
 16 31  1  0  0  0  0
 17 19  2  0  0  0  0
 17 37  1  0  0  0  0
 18 20  2  0  0  0  0
 18 38  1  0  0  0  0
 19 46  1  0  0  0  0
 20 39  1  0  0  0  0
 21 81  1  0  0  0  0
 22 82  1  0  0  0  0
 23 25  2  0  0  0  0
 23 81  1  0  0  0  0
 24 83  1  0  0  0  0
 25 84  1  0  0  0  0
 26 63  2  0  0  0  0
 27 28  2  0  0  0  0
 27 49  1  0  0  0  0
 27 85  1  0  0  0  0
 28 64  1  0  0  0  0
 28 70  1  0  0  0  0
 29 65  1  0  0  0  0
 29 68  1  0  0  0  0
 30 64  2  0  0  0  0
 30 71  1  0  0  0  0
 30 85  1  0  0  0  0
 31 69  1  0  0  0  0
 31 75  2  0  0  0  0
 32 47  1  0  0  0  0
 32 72  1  0  0  0  0
 32 76  2  0  0  0  0
 33 57  1  0  0  0  0
 33 58  1  0  0  0  0
 33 77  2  0  0  0  0
 34 59  1  0  0  0  0
 34 66  1  0  0  0  0
 34 78  2  0  0  0  0
 35 60  1  0  0  0  0
 35 73  1  0  0  0  0
 35 79  2  0  0  0  0
 36 67  1  0  0  0  0
 36 71  1  0  0  0  0
 36 80  2  0  0  0  0
 37 40  1  0  0  0  0
 38 47  1  0  0  0  0
 39 66  1  0  0  0  0
 40 42  1  0  0  0  0
 41 43  1  0  0  0  0
 41 44  1  0  0  0  0
 42 46  1  0  0  0  0
 43 48  1  0  0  0  0
 44 67  1  0  0  0  0
 45 48  1  0  0  0  0
 45 67  1  0  0  0  0
 46 72  1  0  0  0  0
 47 66  1  0  0  0  0
 48 65  1  0  0  0  0
 50 60  1  0  0  0  0
 51 61  1  0  0  0  0
 52 61  1  0  0  0  0
 53 61  1  0  0  0  0
 54 62  1  0  0  0  0
 55 62  1  0  0  0  0
 56 74  1  0  0  0  0
 57 62  1  0  0  0  0
 58 82  1  0  0  0  0
 59 61  1  0  0  0  0
 59 73  1  0  0  0  0
 60 74  1  0  0  0  0
 62 70  1  0  0  0  0
 63 65  1  0  0  0  0
M  CHG  1  74   1
M  ISO  4  36 100  58 101  71 100  82 101
M  END
> <Batch ID>
0178

> <Smiles>
CNC(C)C(=O)NC(C(=O)N1Cc2cc([101O:1][101CH2:1]C(=O)CC(C)(C)Nc3nc([100NH:0][100C:0](=O)N4CCCC(n5nc(-c6ccc(Oc7ccc(F)cc7F)cc6)c(C(N)=O)c5N)C4)sc3C)ccc2CC1C(=O)NC1CCCc2ccccc21)C(C)(C)C

> <Shape>
0.227

> <Color>
0.101

> <Negative vol penalty>
0.000

$$$$

  -OEChem-04052304443D

 86 94  0     1  0  0  0  0  0999 V2000
  -27.6486  -36.4231   24.7857 C   0  0  0  0  0  0  0  0  0  0  0  0
  -28.1665  -35.2897   24.1671 C   0  0  0  0  0  0  0  0  0  0  0  0
  -23.6255   -9.9100   22.4214 C   0  0  0  0  0  0  0  0  0  0  0  0
  -23.3173   -9.9705   20.0259 C   0  0  0  0  0  0  0  0  0  0  0  0
  -26.4107  -36.3631   25.4244 C   0  0  0  0  0  0  0  0  0  0  0  0
  -27.4472  -34.0953   24.1879 C   0  0  0  0  0  0  0  0  0  0  0  0
  -27.2221  -29.8560   19.7738 C   0  0  0  0  0  0  0  0  0  0  0  0
  -22.8194   -8.7742   22.4965 C   0  0  0  0  0  0  0  0  0  0  0  0
  -22.5112   -8.8346   20.1010 C   0  0  0  0  0  0  0  0  0  0  0  0
  -27.8936  -28.6466   19.5997 C   0  0  0  0  0  0  0  0  0  0  0  0
  -23.1299   -5.4568   21.9210 C   0  0  0  0  0  0  0  0  0  0  0  0
  -23.5717   -4.3998   22.7168 C   0  0  0  0  0  0  0  0  0  0  0  0
  -26.0214  -27.4745   20.5695 C   0  0  0  0  0  0  0  0  0  0  0  0
  -21.5802   -4.5877   24.0717 C   0  0  0  0  0  0  0  0  0  0  0  0
  -28.4451  -17.8681   17.1993 C   0  0  0  0  0  0  0  0  0  0  0  0
  -23.8745  -10.5082   21.1861 C   0  0  0  0  0  0  0  0  0  0  0  0
  -26.1024  -11.7239   20.9293 C   0  0  0  0  0  0  0  0  0  0  0  0
  -25.6715  -35.1699   25.4447 C   0  0  0  0  0  0  0  0  0  0  0  0
  -25.9477  -29.8849   20.3581 C   0  0  0  0  0  0  0  0  0  0  0  0
  -26.1989  -34.0189   24.8287 C   0  0  0  0  0  0  0  0  0  0  0  0
  -25.3349  -28.6853   20.7476 C   0  0  0  0  0  0  0  0  0  0  0  0
  -29.3586  -19.9946   16.5451 C   0  0  0  0  0  0  0  0  0  0  0  0
  -22.2622   -8.2365   21.3363 C   0  0  0  0  0  0  0  0  0  0  0  0
  -27.2945  -27.4559   20.0002 C   0  0  0  0  0  0  0  0  0  0  0  0
  -21.9133   -6.0793   22.2006 C   0  0  0  0  0  0  0  0  0  0  0  0
  -22.7968   -3.9652   23.7921 C   0  0  0  0  0  0  0  0  0  0  0  0
  -21.1385   -5.6447   23.2760 C   0  0  0  0  0  0  0  0  0  0  0  0
  -29.4139  -18.6054   16.5276 C   0  0  0  0  0  0  0  0  0  0  0  0
  -24.7066  -11.6819   21.1080 C   0  0  0  0  0  0  0  0  0  0  0  0
  -27.4499  -18.5622   17.8682 C   0  0  0  0  0  0  0  0  0  0  0  0
  -28.3223  -20.5935   17.2431 C   0  0  0  0  0  0  0  0  0  0  0  0
  -26.4075  -13.0631   20.9229 C   0  0  0  0  0  0  0  0  0  0  0  0
  -27.0393  -10.6487   20.7820 C   0  0  0  0  0  0  0  0  0  0  0  0
  -27.5723  -24.2450   17.7537 C   0  0  0  0  0  0  0  0  0  0  0  0
  -27.3066  -22.7758   17.9127 C   0  0  0  0  0  0  0  0  0  0  0  0
  -24.7122  -31.1842   22.9828 C   0  0  0  0  0  0  0  0  0  0  0  0
  -21.9212  -30.0987   21.7362 C   0  0  0  0  0  0  0  0  0  0  0  0
  -20.3330  -27.8859   19.6800 C   0  0  0  0  0  0  0  0  0  0  0  0
  -25.3835  -18.2844   19.2822 C   0  0  0  0  0  0  0  0  0  0  0  0
  -24.3597  -35.1411   26.1884 C   0  0  0  0  0  0  0  0  0  0  0  0
  -25.2255  -31.1950   20.5145 C   0  0  0  0  0  0  0  0  0  0  0  0
  -23.9597  -28.6602   21.3613 C   0  0  0  0  0  0  0  0  0  0  0  0
  -23.4896  -33.9356   25.8423 C   0  0  0  0  0  0  0  0  0  0  0  0
  -23.5818  -17.0910   22.1118 C   0  0  0  0  0  0  0  0  0  0  0  0
  -24.3198  -32.6561   25.8571 C   0  0  0  0  0  0  0  0  0  0  0  0
  -23.8286  -15.5808   22.0882 C   0  0  0  0  0  0  0  0  0  0  0  0
  -23.4412  -17.6647   20.7029 C   0  0  0  0  0  0  0  0  0  0  0  0
  -24.7889  -15.8288   19.7636 C   0  0  0  0  0  0  0  0  0  0  0  0
  -25.4373  -32.7113   24.8084 C   0  0  1  0  0  0  0  0  0  0  0  0
  -24.1456  -31.1571   21.5914 C   0  0  1  0  0  0  0  0  0  0  0  0
  -25.0018  -15.2160   21.1575 C   0  0  2  0  0  0  0  0  0  0  0  0
  -18.0443  -27.2179   18.8971 C   0  0  0  0  0  0  0  0  0  0  0  0
  -21.4222  -28.6958   24.3995 C   0  0  0  0  0  0  0  0  0  0  0  0
  -19.6690  -27.3153   23.2643 C   0  0  0  0  0  0  0  0  0  0  0  0
  -19.4067  -29.7920   23.4041 C   0  0  0  0  0  0  0  0  0  0  0  0
  -20.9837  -28.5228   16.8640 C   0  0  0  0  0  0  0  0  0  0  0  0
  -28.9136  -24.7420   18.2465 C   0  0  0  0  0  0  0  0  0  0  0  0
  -28.8516  -26.1826   18.7314 C   0  0  0  0  0  0  0  0  0  1  0  0
  -21.1331  -28.8150   21.8366 C   0  0  1  0  0  0  0  0  0  0  0  0
  -19.2635  -28.0840   18.6210 C   0  0  2  0  0  0  0  0  0  0  0  0
  -20.4345  -28.6548   23.2164 C   0  0  0  0  0  0  0  0  0  0  0  0
  -24.1627  -12.8977   21.2081 N   0  0  0  0  0  0  0  0  0  0  0  0
  -27.3632  -19.9107   17.9075 N   0  0  0  0  0  0  0  0  0  0  0  0
  -25.2222  -13.7163   21.0920 N   0  0  0  0  0  0  0  0  0  0  0  0
  -23.2968  -29.9675   21.4991 N   0  0  0  0  0  0  0  0  0  0  0  0
  -24.5905  -17.2821   19.8797 N   0  0  0  0  0  0  0  0  0  0  0  0
  -30.3373  -20.7449   15.8664 N   0  0  0  0  0  0  0  0  0  0  0  0
  -27.5714  -13.7339   20.7894 N   0  0  0  0  0  0  0  0  0  0  0  0
  -26.5567   -9.3332   20.8117 N   0  0  0  0  0  0  0  0  0  0  0  0
  -28.2519  -22.0059   17.2700 N   0  0  0  0  0  0  0  0  0  0  0  0
  -26.4675  -17.8017   18.5497 N   0  0  0  0  0  0  0  0  0  0  0  0
  -24.9039  -32.4562   23.4875 N   0  0  0  0  0  0  0  0  0  0  0  0
  -20.2191  -28.8071   20.6996 N   0  0  0  0  0  0  0  0  0  0  0  0
  -19.7959  -27.7306   17.2747 N   0  3  0  0  0  0  0  0  0  0  0  0
  -28.2701  -10.8481   20.6451 O   0  0  0  0  0  0  0  0  0  0  0  0
  -26.6967  -24.9187   17.2323 O   0  0  0  0  0  0  0  0  0  0  0  0
  -26.3389  -22.4657   18.5874 O   0  0  0  0  0  0  0  0  0  0  0  0
  -24.9560  -30.1292   23.5565 O   0  0  0  0  0  0  0  0  0  0  0  0
  -21.3365  -31.1782   21.8564 O   0  0  0  0  0  0  0  0  0  0  0  0
  -21.1821  -26.9999   19.6116 O   0  0  0  0  0  0  0  0  0  0  0  0
  -25.1362  -19.4836   19.4333 O   0  0  0  0  0  0  0  0  0  0  0  0
  -21.4758   -7.1280   21.4092 O   0  0  0  0  0  0  0  0  0  0  0  0
  -27.9479  -26.2742   19.8320 O   0  0  0  0  0  0  0  0  0  1  0  0
  -23.2204   -2.9492   24.5553 F   0  0  0  0  0  0  0  0  0  0  0  0
  -19.9683   -6.2380   23.5488 F   0  0  0  0  0  0  0  0  0  0  0  0
  -30.3926  -17.9687   15.8690 F   0  0  0  0  0  0  0  0  0  0  0  0
  1  2  1  0  0  0  0
  1  5  2  0  0  0  0
  2  6  2  0  0  0  0
  3  8  2  0  0  0  0
  3 16  1  0  0  0  0
  4  9  1  0  0  0  0
  4 16  2  0  0  0  0
  5 18  1  0  0  0  0
  6 20  1  0  0  0  0
  7 10  2  0  0  0  0
  7 19  1  0  0  0  0
  8 23  1  0  0  0  0
  9 23  2  0  0  0  0
 10 24  1  0  0  0  0
 11 12  2  0  0  0  0
 11 25  1  0  0  0  0
 12 26  1  0  0  0  0
 13 21  1  0  0  0  0
 13 24  2  0  0  0  0
 14 26  2  0  0  0  0
 14 27  1  0  0  0  0
 15 28  2  0  0  0  0
 15 30  1  0  0  0  0
 16 29  1  0  0  0  0
 17 29  1  0  0  0  0
 17 32  2  0  0  0  0
 17 33  1  0  0  0  0
 18 20  2  0  0  0  0
 18 40  1  0  0  0  0
 19 21  2  0  0  0  0
 19 41  1  0  0  0  0
 20 49  1  0  0  0  0
 21 42  1  0  0  0  0
 22 28  1  0  0  0  0
 22 31  2  0  0  0  0
 22 67  1  0  0  0  0
 23 82  1  0  0  0  0
 24 83  1  0  0  0  0
 25 27  2  0  0  0  0
 25 82  1  0  0  0  0
 26 84  1  0  0  0  0
 27 85  1  0  0  0  0
 28 86  1  0  0  0  0
 29 62  2  0  0  0  0
 30 63  2  0  0  0  0
 30 71  1  0  0  0  0
 31 63  1  0  0  0  0
 31 70  1  0  0  0  0
 32 64  1  0  0  0  0
 32 68  1  0  0  0  0
 33 69  1  0  0  0  0
 33 75  2  0  0  0  0
 34 35  1  0  0  0  0
 34 57  1  0  0  0  0
 34 76  2  0  0  0  0
 35 70  1  0  0  0  0
 35 77  2  0  0  0  0
 36 50  1  0  0  0  0
 36 72  1  0  0  0  0
 36 78  2  0  0  0  0
 37 59  1  0  0  0  0
 37 65  1  0  0  0  0
 37 79  2  0  0  0  0
 38 60  1  0  0  0  0
 38 73  1  0  0  0  0
 38 80  2  0  0  0  0
 39 66  1  0  0  0  0
 39 71  1  0  0  0  0
 39 81  2  0  0  0  0
 40 43  1  0  0  0  0
 41 50  1  0  0  0  0
 42 65  1  0  0  0  0
 43 45  1  0  0  0  0
 44 46  1  0  0  0  0
 44 47  1  0  0  0  0
 45 49  1  0  0  0  0
 46 51  1  0  0  0  0
 47 66  1  0  0  0  0
 48 51  1  0  0  0  0
 48 66  1  0  0  0  0
 49 72  1  0  0  0  0
 50 65  1  0  0  0  0
 51 64  1  0  0  0  0
 52 60  1  0  0  0  0
 53 61  1  0  0  0  0
 54 61  1  0  0  0  0
 55 61  1  0  0  0  0
 56 74  1  0  0  0  0
 57 58  1  0  0  0  0
 58 83  1  0  0  0  0
 59 61  1  0  0  0  0
 59 73  1  0  0  0  0
 60 74  1  0  0  0  0
 62 64  1  0  0  0  0
M  CHG  1  74   1
M  ISO  4  39 100  58 101  71 100  83 101
M  END
> <Batch ID>
0178

> <Smiles>
CNC(C)C(=O)NC(C(=O)N1Cc2cc([101O:1][101CH2:1]CC(=O)C(=O)Nc3nc([100NH:0][100C:0](=O)N4CCCC(n5nc(-c6ccc(Oc7ccc(F)cc7F)cc6)c(C(N)=O)c5N)C4)cc(F)c3N)ccc2CC1C(=O)NC1CCCc2ccccc21)C(C)(C)C

> <Shape>
0.294

> <Color>
0.099

> <Negative vol penalty>
0.000

$$$$

  -OEChem-04052304443D

 86 94  0     1  0  0  0  0  0999 V2000
  -33.2272  -17.4549   17.7376 C   0  0  0  0  0  0  0  0  0  0  0  0
  -32.2542  -18.3924   18.0652 C   0  0  0  0  0  0  0  0  0  0  0  0
  -23.0733   -9.8687   19.9525 C   0  0  0  0  0  0  0  0  0  0  0  0
  -23.8380   -9.8806   22.2442 C   0  0  0  0  0  0  0  0  0  0  0  0
  -34.5705  -17.8244   17.7283 C   0  0  0  0  0  0  0  0  0  0  0  0
  -32.6232  -19.7026   18.3719 C   0  0  0  0  0  0  0  0  0  0  0  0
  -28.9899  -22.9628   18.9833 C   0  0  0  0  0  0  0  0  0  0  0  0
  -22.3311   -8.7153   20.2061 C   0  0  0  0  0  0  0  0  0  0  0  0
  -23.0958   -8.7272   22.4979 C   0  0  0  0  0  0  0  0  0  0  0  0
  -28.1535  -22.9589   20.0988 C   0  0  0  0  0  0  0  0  0  0  0  0
  -20.5200   -5.5623   20.1574 C   0  0  0  0  0  0  0  0  0  0  0  0
  -20.5823   -4.5302   19.2212 C   0  0  0  0  0  0  0  0  0  0  0  0
  -29.3626  -24.8396   21.0045 C   0  0  0  0  0  0  0  0  0  0  0  0
  -22.9680   -4.3631   19.5642 C   0  0  0  0  0  0  0  0  0  0  0  0
  -23.8268  -10.4514   20.9715 C   0  0  0  0  0  0  0  0  0  0  0  0
  -24.1658  -12.9766   20.8461 C   0  0  0  0  0  0  0  0  0  0  0  0
  -34.9563  -19.1368   18.0473 C   0  0  0  0  0  0  0  0  0  0  0  0
  -30.0275  -23.8998   18.8751 C   0  0  0  0  0  0  0  0  0  0  0  0
  -33.9719  -20.1012   18.3447 C   0  0  0  0  0  0  0  0  0  0  0  0
  -30.2091  -24.8549   19.8855 C   0  0  0  0  0  0  0  0  0  0  0  0
  -22.3423   -8.1445   21.4788 C   0  0  0  0  0  0  0  0  0  0  0  0
  -28.3416  -23.8955   21.1110 C   0  0  0  0  0  0  0  0  0  0  0  0
  -21.6817   -5.9949   20.7970 C   0  0  0  0  0  0  0  0  0  0  0  0
  -21.8063   -3.9306   18.9246 C   0  0  0  0  0  0  0  0  0  0  0  0
  -22.9056   -5.3953   20.5004 C   0  0  0  0  0  0  0  0  0  0  0  0
  -24.5941  -11.6425   20.7100 C   0  0  0  0  0  0  0  0  0  0  0  0
  -30.7048  -19.1086   22.9703 C   0  0  0  0  0  0  0  0  0  0  0  0
  -31.8054  -18.7400   22.2254 C   0  0  0  0  0  0  0  0  0  0  0  0
  -25.2565  -13.7265   20.4792 C   0  0  0  0  0  0  0  0  0  0  0  0
  -30.5680  -16.9609   21.8880 C   0  0  0  0  0  0  0  0  0  0  0  0
  -22.8957  -13.4920   21.2668 C   0  0  0  0  0  0  0  0  0  0  0  0
  -30.4368  -20.3375   23.7610 C   0  0  0  0  0  0  0  0  0  0  0  0
  -33.1959  -23.7265   18.6879 C   0  0  0  0  0  0  0  0  0  0  0  0
  -27.5573  -22.1149   24.5153 C   0  0  0  0  0  0  0  0  0  0  0  0
  -32.9531  -26.9255   18.2087 C   0  0  0  0  0  0  0  0  0  0  0  0
  -31.1428  -29.7883   18.6255 C   0  0  0  0  0  0  0  0  0  0  0  0
  -30.7220  -14.7778   20.6405 C   0  0  0  0  0  0  0  0  0  0  0  0
  -36.4237  -19.4845   18.0142 C   0  0  0  0  0  0  0  0  0  0  0  0
  -30.9042  -23.9078   17.6529 C   0  0  0  0  0  0  0  0  0  0  0  0
  -31.2958  -25.8949   19.8076 C   0  0  0  0  0  0  0  0  0  0  0  0
  -36.7490  -20.7633   18.7790 C   0  0  0  0  0  0  0  0  0  0  0  0
  -29.6049  -12.3586   18.2789 C   0  0  0  0  0  0  0  0  0  0  0  0
  -35.8022  -21.8767   18.3567 C   0  0  0  0  0  0  0  0  0  0  0  0
  -28.1665  -12.0664   18.7120 C   0  0  0  0  0  0  0  0  0  0  0  0
  -30.5224  -12.5905   19.4782 C   0  0  0  0  0  0  0  0  0  0  0  0
  -28.6177  -13.3155   20.8622 C   0  0  0  0  0  0  0  0  0  0  0  0
  -34.3520  -21.5243   18.7116 C   0  0  1  0  0  0  0  0  0  0  0  0
  -32.2527  -24.5809   17.8892 C   0  0  1  0  0  0  0  0  0  0  0  0
  -27.6425  -13.1392   19.6868 C   0  0  2  0  0  0  0  0  0  0  0  0
  -28.4864  -21.1414   26.6225 C   0  0  0  0  0  0  0  0  0  0  0  0
  -31.2202  -32.2532   18.1610 C   0  0  0  0  0  0  0  0  0  0  0  0
  -34.9340  -27.2927   20.5002 C   0  0  0  0  0  0  0  0  0  0  0  0
  -34.2495  -29.6983   20.6141 C   0  0  0  0  0  0  0  0  0  0  0  0
  -35.3119  -28.8024   18.5425 C   0  0  0  0  0  0  0  0  0  0  0  0
  -28.7114  -29.6652   16.9427 C   0  0  0  0  0  0  0  0  0  0  0  0
  -27.4165  -23.6297   24.5909 C   0  0  0  0  0  0  0  0  0  0  0  0
  -28.0875  -24.3500   23.4315 C   0  0  0  0  0  0  0  0  0  1  0  0
  -28.7911  -21.5274   25.1863 C   0  0  1  0  0  0  0  0  0  0  0  0
  -32.9365  -28.1421   19.1023 C   0  0  1  0  0  0  0  0  0  0  0  0
  -30.7669  -30.8928   17.6543 C   0  0  2  0  0  0  0  0  0  0  0  0
  -34.3386  -28.4632   19.6925 C   0  0  0  0  0  0  0  0  0  0  0  0
  -25.8582  -11.5472   20.2892 N   0  0  0  0  0  0  0  0  0  0  0  0
  -31.7289  -17.5086   21.6044 N   0  0  0  0  0  0  0  0  0  0  0  0
  -26.2336  -12.8309   20.1577 N   0  0  0  0  0  0  0  0  0  0  0  0
  -32.1310  -25.8578   18.5957 N   0  0  0  0  0  0  0  0  0  0  0  0
  -29.9643  -13.6223   20.3549 N   0  0  0  0  0  0  0  0  0  0  0  0
  -32.9126  -19.5075   22.0837 N   0  0  0  0  0  0  0  0  0  0  0  0
  -25.4654  -15.0581   20.4033 N   0  0  0  0  0  0  0  0  0  0  0  0
  -21.8854  -12.5824   21.6079 N   0  0  0  0  0  0  0  0  0  0  0  0
  -30.0755  -15.7036   21.4586 N   0  0  0  0  0  0  0  0  0  0  0  0
  -29.2062  -20.3941   24.4037 N   0  0  0  0  0  0  0  0  0  0  0  0
  -33.4688  -22.5003   18.1123 N   0  0  0  0  0  0  0  0  0  0  0  0
  -32.3601  -29.2229   18.3097 N   0  0  0  0  0  0  0  0  0  0  0  0
  -29.2898  -30.9317   17.4606 N   0  3  0  0  0  0  0  0  0  0  0  0
  -22.6584  -14.7224   21.3224 O   0  0  0  0  0  0  0  0  0  0  0  0
  -31.2824  -21.2278   23.7912 O   0  0  0  0  0  0  0  0  0  0  0  0
  -33.6441  -24.1490   19.7473 O   0  0  0  0  0  0  0  0  0  0  0  0
  -26.7093  -21.4013   23.9791 O   0  0  0  0  0  0  0  0  0  0  0  0
  -33.6638  -26.9253   17.2005 O   0  0  0  0  0  0  0  0  0  0  0  0
  -30.4298  -29.4625   19.5721 O   0  0  0  0  0  0  0  0  0  0  0  0
  -31.8500  -14.9467   20.1701 O   0  0  0  0  0  0  0  0  0  0  0  0
  -21.6180   -7.0192   21.7268 O   0  0  0  0  0  0  0  0  0  0  0  0
  -27.5270  -23.8935   22.2011 O   0  0  0  0  0  0  0  0  0  1  0  0
  -21.8657   -2.9385   18.0267 F   0  0  0  0  0  0  0  0  0  0  0  0
  -24.0249   -5.8058   21.1125 F   0  0  0  0  0  0  0  0  0  0  0  0
  -29.5191  -17.8716   22.8957 S   0  0  0  0  0  0  0  0  0  0  0  0
  1  2  1  0  0  0  0
  1  5  2  0  0  0  0
  2  6  2  0  0  0  0
  3  8  2  0  0  0  0
  3 15  1  0  0  0  0
  4  9  1  0  0  0  0
  4 15  2  0  0  0  0
  5 17  1  0  0  0  0
  6 19  1  0  0  0  0
  7 10  2  0  0  0  0
  7 18  1  0  0  0  0
  8 21  1  0  0  0  0
  9 21  2  0  0  0  0
 10 22  1  0  0  0  0
 11 12  2  0  0  0  0
 11 23  1  0  0  0  0
 12 24  1  0  0  0  0
 13 20  1  0  0  0  0
 13 22  2  0  0  0  0
 14 24  2  0  0  0  0
 14 25  1  0  0  0  0
 15 26  1  0  0  0  0
 16 26  1  0  0  0  0
 16 29  2  0  0  0  0
 16 31  1  0  0  0  0
 17 19  2  0  0  0  0
 17 38  1  0  0  0  0
 18 20  2  0  0  0  0
 18 39  1  0  0  0  0
 19 47  1  0  0  0  0
 20 40  1  0  0  0  0
 21 82  1  0  0  0  0
 22 83  1  0  0  0  0
 23 25  2  0  0  0  0
 23 82  1  0  0  0  0
 24 84  1  0  0  0  0
 25 85  1  0  0  0  0
 26 62  2  0  0  0  0
 27 28  2  0  0  0  0
 27 32  1  0  0  0  0
 27 86  1  0  0  0  0
 28 63  1  0  0  0  0
 28 67  1  0  0  0  0
 29 64  1  0  0  0  0
 29 68  1  0  0  0  0
 30 63  2  0  0  0  0
 30 70  1  0  0  0  0
 30 86  1  0  0  0  0
 31 69  1  0  0  0  0
 31 75  2  0  0  0  0
 32 71  1  0  0  0  0
 32 76  2  0  0  0  0
 33 48  1  0  0  0  0
 33 72  1  0  0  0  0
 33 77  2  0  0  0  0
 34 56  1  0  0  0  0
 34 58  1  0  0  0  0
 34 78  2  0  0  0  0
 35 59  1  0  0  0  0
 35 65  1  0  0  0  0
 35 79  2  0  0  0  0
 36 60  1  0  0  0  0
 36 73  1  0  0  0  0
 36 80  2  0  0  0  0
 37 66  1  0  0  0  0
 37 70  1  0  0  0  0
 37 81  2  0  0  0  0
 38 41  1  0  0  0  0
 39 48  1  0  0  0  0
 40 65  1  0  0  0  0
 41 43  1  0  0  0  0
 42 44  1  0  0  0  0
 42 45  1  0  0  0  0
 43 47  1  0  0  0  0
 44 49  1  0  0  0  0
 45 66  1  0  0  0  0
 46 49  1  0  0  0  0
 46 66  1  0  0  0  0
 47 72  1  0  0  0  0
 48 65  1  0  0  0  0
 49 64  1  0  0  0  0
 50 58  1  0  0  0  0
 51 60  1  0  0  0  0
 52 61  1  0  0  0  0
 53 61  1  0  0  0  0
 54 61  1  0  0  0  0
 55 74  1  0  0  0  0
 56 57  1  0  0  0  0
 57 83  1  0  0  0  0
 58 71  1  0  0  0  0
 59 61  1  0  0  0  0
 59 73  1  0  0  0  0
 60 74  1  0  0  0  0
 62 64  1  0  0  0  0
M  CHG  1  74   1
M  ISO  4  37 100  57 101  70 100  83 101
M  END
> <Batch ID>
0178

> <Smiles>
CNC(C)C(=O)NC(C(=O)N1Cc2cc([101O:1][101CH2:1]CC(=O)C(C)NC(=O)c3sc([100NH:0][100C:0](=O)N4CCCC(n5nc(-c6ccc(Oc7ccc(F)cc7F)cc6)c(C(N)=O)c5N)C4)nc3N)ccc2CC1C(=O)NC1CCCc2ccccc21)C(C)(C)C

> <Shape>
0.204

> <Color>
0.177

> <Negative vol penalty>
0.000

$$$$

  -OEChem-04052304443D

 94103  0     1  0  0  0  0  0999 V2000
  -18.0389  -25.5155   20.2759 C   0  0  0  0  0  0  0  0  0  0  0  0
  -19.3064  -25.7722   19.7631 C   0  0  0  0  0  0  0  0  0  0  0  0
  -23.7196  -14.0967   20.9128 C   0  0  0  0  0  0  0  0  0  0  0  0
  -26.1223  -14.2286   21.1287 C   0  0  0  0  0  0  0  0  0  0  0  0
  -17.6255  -26.1371   21.4535 C   0  0  0  0  0  0  0  0  0  0  0  0
  -20.1609  -26.6515   20.4271 C   0  0  0  0  0  0  0  0  0  0  0  0
  -24.8889  -24.8718   20.7788 C   0  0  0  0  0  0  0  0  0  0  0  0
  -23.8259  -12.7541   20.5498 C   0  0  0  0  0  0  0  0  0  0  0  0
  -26.2287  -12.8860   20.7657 C   0  0  0  0  0  0  0  0  0  0  0  0
  -25.6900  -24.9635   19.6414 C   0  0  0  0  0  0  0  0  0  0  0  0
  -24.3004   -9.7853   22.0971 C   0  0  0  0  0  0  0  0  0  0  0  0
  -23.4199   -8.8814   22.6915 C   0  0  0  0  0  0  0  0  0  0  0  0
  -26.7549  -26.9249   20.5569 C   0  0  0  0  0  0  0  0  0  0  0  0
  -31.6735  -23.9453   22.6788 C   0  0  0  0  0  0  0  0  0  0  0  0
  -22.5574   -8.2894   20.5137 C   0  0  0  0  0  0  0  0  0  0  0  0
  -30.5899  -22.0608   23.7120 C   0  0  0  0  0  0  0  0  0  0  0  0
  -24.8678  -14.8339   21.2022 C   0  0  0  0  0  0  0  0  0  0  0  0
  -24.0664  -16.7512   22.6819 C   0  0  0  0  0  0  0  0  0  0  0  0
  -18.4791  -27.0171   22.1374 C   0  0  0  0  0  0  0  0  0  0  0  0
  -25.0074  -25.8140   21.8106 C   0  0  0  0  0  0  0  0  0  0  0  0
  -19.7582  -27.2865   21.6142 C   0  0  0  0  0  0  0  0  0  0  0  0
  -25.9559  -26.8415   21.7074 C   0  0  0  0  0  0  0  0  0  0  0  0
  -30.9164  -23.7858   21.4973 C   0  0  0  0  0  0  0  0  0  0  0  0
  -29.9988  -22.7160   21.4378 C   0  0  0  0  0  0  0  0  0  0  0  0
  -25.0804  -12.1487   20.4762 C   0  0  0  0  0  0  0  0  0  0  0  0
  -26.6211  -25.9918   19.5290 C   0  0  0  0  0  0  0  0  0  0  0  0
  -24.3093   -9.9413   20.7110 C   0  0  0  0  0  0  0  0  0  0  0  0
  -22.5485   -8.1334   21.8999 C   0  0  0  0  0  0  0  0  0  0  0  0
  -31.5182  -23.0894   23.7693 C   0  0  0  0  0  0  0  0  0  0  0  0
  -29.8298  -21.8809   22.5590 C   0  0  0  0  0  0  0  0  0  0  0  0
  -23.4378   -9.1933   19.9193 C   0  0  0  0  0  0  0  0  0  0  0  0
  -24.7587  -16.2210   21.5768 C   0  0  0  0  0  0  0  0  0  0  0  0
  -24.2668  -18.1072   22.5943 C   0  0  0  0  0  0  0  0  0  0  0  0
  -23.3098  -16.0782   23.6970 C   0  0  0  0  0  0  0  0  0  0  0  0
  -28.7994  -21.0650   19.9563 C   0  0  0  0  0  0  0  0  0  0  0  0
  -23.0624  -27.9564   23.1262 C   0  0  0  0  0  0  0  0  0  0  0  0
  -25.5283  -28.3474   25.1971 C   0  0  0  0  0  0  0  0  0  0  0  0
  -30.1684  -25.2806   18.0004 C   0  0  0  0  0  0  0  0  0  0  0  0
  -28.8755  -28.0694   25.8021 C   0  0  0  0  0  0  0  0  0  0  0  0
  -17.9705  -27.7017   23.3813 C   0  0  0  0  0  0  0  0  0  0  0  0
  -24.1545  -25.6856   23.0429 C   0  0  0  0  0  0  0  0  0  0  0  0
  -26.1364  -27.8664   22.7962 C   0  0  0  0  0  0  0  0  0  0  0  0
  -19.0757  -28.3314   24.2252 C   0  0  0  0  0  0  0  0  0  0  0  0
  -25.1546  -21.0999   18.8841 C   0  0  0  0  0  0  0  0  0  0  0  0
  -20.0343  -29.1251   23.3431 C   0  0  0  0  0  0  0  0  0  0  0  0
  -24.5125  -20.2820   20.0040 C   0  0  0  0  0  0  0  0  0  0  0  0
  -26.4578  -21.7586   19.3173 C   0  0  0  0  0  0  0  0  0  0  0  0
  -29.9601  -22.9769   18.9747 C   0  0  0  0  0  0  0  0  0  0  0  0
  -26.9200  -19.4887   20.2670 C   0  0  0  0  0  0  0  0  0  0  0  0
  -29.1763  -22.5075   20.1918 C   0  0  2  0  0  0  0  0  0  0  0  0
  -20.7231  -28.2151   22.3189 C   0  0  1  0  0  0  0  0  0  0  0  0
  -24.0020  -26.9992   23.8035 C   0  0  1  0  0  0  0  0  0  0  0  0
  -25.5445  -19.6204   20.9374 C   0  0  2  0  0  0  0  0  0  0  0  0
  -31.0543  -24.8086   20.3381 C   0  0  1  0  0  0  0  0  0  0  0  0
  -30.4796  -26.1418   20.8816 C   0  0  0  0  0  0  0  0  0  0  0  0
  -31.0176  -28.1193   27.1082 C   0  0  0  0  0  0  0  0  0  0  0  0
  -29.0586  -26.0365   15.9186 C   0  0  0  0  0  0  0  0  0  0  0  0
  -25.4176  -31.3315   24.5702 C   0  0  0  0  0  0  0  0  0  0  0  0
  -27.6948  -31.5583   25.5857 C   0  0  0  0  0  0  0  0  0  0  0  0
  -25.7790  -30.7853   26.9838 C   0  0  0  0  0  0  0  0  0  0  0  0
  -28.5429  -25.2617   26.6769 C   0  0  0  0  0  0  0  0  0  0  0  0
  -32.5481  -24.9791   19.9751 C   0  0  0  0  0  0  0  0  0  0  0  0
  -27.7325  -24.8693   17.7512 C   0  0  0  0  0  0  0  0  0  1  0  0
  -26.7534  -29.2281   25.2466 C   0  0  1  0  0  0  0  0  0  0  0  0
  -29.6420  -27.4848   26.9747 C   0  0  2  0  0  0  0  0  0  0  0  0
  -29.0632  -24.9825   17.0151 C   0  0  2  0  0  0  0  0  0  0  0  0
  -26.4067  -30.7078   25.5750 C   0  0  0  0  0  0  0  0  0  0  0  0
  -33.1211  -23.6816   19.5087 C   0  0  0  0  0  0  0  0  0  0  0  0
  -25.3543  -17.1633   20.8410 N   0  0  0  0  0  0  0  0  0  0  0  0
  -25.0367  -18.2993   21.4850 N   0  0  0  0  0  0  0  0  0  0  0  0
  -27.4338  -20.7950   19.8415 N   0  0  0  0  0  0  0  0  0  0  0  0
  -25.2746  -27.7021   23.9785 N   0  0  0  0  0  0  0  0  0  0  0  0
  -30.3137  -24.3952   19.0870 N   0  0  0  0  0  0  0  0  0  0  0  0
  -23.8577  -19.1420   23.3586 N   0  0  0  0  0  0  0  0  0  0  0  0
  -23.9740  -15.6588   24.8577 N   0  0  0  0  0  0  0  0  0  0  0  0
  -21.7853  -27.4597   22.9477 N   0  0  0  0  0  0  0  0  0  0  0  0
  -27.6671  -28.6034   26.1970 N   0  0  0  0  0  0  0  0  0  0  0  0
  -29.8173  -26.0154   26.7981 N   0  3  0  0  0  0  0  0  0  0  0  0
  -22.0846  -15.8407   23.5710 O   0  0  0  0  0  0  0  0  0  0  0  0
  -29.6848  -20.2107   19.8724 O   0  0  0  0  0  0  0  0  0  0  0  0
  -23.4658  -29.0641   22.7917 O   0  0  0  0  0  0  0  0  0  0  0  0
  -24.8264  -28.2306   26.2047 O   0  0  0  0  0  0  0  0  0  0  0  0
  -30.8698  -26.2752   17.7996 O   0  0  0  0  0  0  0  0  0  0  0  0
  -29.3073  -28.0572   24.6514 O   0  0  0  0  0  0  0  0  0  0  0  0
  -29.3977  -23.7296   16.4349 O   0  0  0  0  0  0  0  0  0  0  0  0
  -25.1845  -10.8386   20.1223 O   0  0  0  0  0  0  0  0  0  0  0  0
  -27.4098  -26.0847   18.4112 O   0  0  0  0  0  0  0  0  0  1  0  0
  -21.7042   -7.2642   22.4707 F   0  0  0  0  0  0  0  0  0  0  0  0
  -32.2717  -23.2546   24.8635 F   0  0  0  0  0  0  0  0  0  0  0  0
  -28.9205  -20.8927   22.5305 F   0  0  0  0  0  0  0  0  0  0  0  0
  -23.4426   -9.3380   18.5871 F   0  0  0  0  0  0  0  0  0  0  0  0
  -33.0062  -22.7064   20.4349 F   0  0  0  0  0  0  0  0  0  0  0  0
  -34.4384  -23.8579   19.2621 F   0  0  0  0  0  0  0  0  0  0  0  0
  -32.5468  -23.2461   18.3674 F   0  0  0  0  0  0  0  0  0  0  0  0
  1  2  1  0  0  0  0
  1  5  2  0  0  0  0
  2  6  2  0  0  0  0
  3  8  2  0  0  0  0
  3 17  1  0  0  0  0
  4  9  1  0  0  0  0
  4 17  2  0  0  0  0
  5 19  1  0  0  0  0
  6 21  1  0  0  0  0
  7 10  2  0  0  0  0
  7 20  1  0  0  0  0
  8 25  1  0  0  0  0
  9 25  2  0  0  0  0
 10 26  1  0  0  0  0
 11 12  2  0  0  0  0
 11 27  1  0  0  0  0
 12 28  1  0  0  0  0
 13 22  1  0  0  0  0
 13 26  2  0  0  0  0
 14 23  1  0  0  0  0
 14 29  2  0  0  0  0
 15 28  2  0  0  0  0
 15 31  1  0  0  0  0
 16 29  1  0  0  0  0
 16 30  2  0  0  0  0
 17 32  1  0  0  0  0
 18 32  1  0  0  0  0
 18 33  2  0  0  0  0
 18 34  1  0  0  0  0
 19 21  2  0  0  0  0
 19 40  1  0  0  0  0
 20 22  2  0  0  0  0
 20 41  1  0  0  0  0
 21 51  1  0  0  0  0
 22 42  1  0  0  0  0
 23 24  2  0  0  0  0
 23 54  1  0  0  0  0
 24 30  1  0  0  0  0
 24 50  1  0  0  0  0
 25 86  1  0  0  0  0
 26 87  1  0  0  0  0
 27 31  2  0  0  0  0
 27 86  1  0  0  0  0
 28 88  1  0  0  0  0
 29 89  1  0  0  0  0
 30 90  1  0  0  0  0
 31 91  1  0  0  0  0
 32 69  2  0  0  0  0
 33 70  1  0  0  0  0
 33 74  1  0  0  0  0
 34 75  1  0  0  0  0
 34 79  2  0  0  0  0
 35 50  1  0  0  0  0
 35 71  1  0  0  0  0
 35 80  2  0  0  0  0
 36 52  1  0  0  0  0
 36 76  1  0  0  0  0
 36 81  2  0  0  0  0
 37 64  1  0  0  0  0
 37 72  1  0  0  0  0
 37 82  2  0  0  0  0
 38 66  1  0  0  0  0
 38 73  1  0  0  0  0
 38 83  2  0  0  0  0
 39 65  1  0  0  0  0
 39 77  1  0  0  0  0
 39 84  2  0  0  0  0
 40 43  1  0  0  0  0
 41 52  1  0  0  0  0
 42 72  1  0  0  0  0
 43 45  1  0  0  0  0
 44 46  1  0  0  0  0
 44 47  1  0  0  0  0
 45 51  1  0  0  0  0
 46 53  1  0  0  0  0
 47 71  1  0  0  0  0
 48 50  1  0  0  0  0
 48 73  1  0  0  0  0
 49 53  1  0  0  0  0
 49 71  1  0  0  0  0
 51 76  1  0  0  0  0
 52 72  1  0  0  0  0
 53 70  1  0  0  0  0
 54 55  1  0  0  0  0
 54 62  1  0  0  0  0
 54 73  1  0  0  0  0
 56 65  1  0  0  0  0
 57 66  1  0  0  0  0
 58 67  1  0  0  0  0
 59 67  1  0  0  0  0
 60 67  1  0  0  0  0
 61 78  1  0  0  0  0
 62 68  1  0  0  0  0
 63 66  1  0  0  0  0
 63 87  1  0  0  0  0
 64 67  1  0  0  0  0
 64 77  1  0  0  0  0
 65 78  1  0  0  0  0
 66 85  1  0  0  0  0
 68 92  1  0  0  0  0
 68 93  1  0  0  0  0
 68 94  1  0  0  0  0
 69 70  1  0  0  0  0
M  CHG  1  78   1
M  ISO  4  35 100  50 100  63 101  87 101
M  END
> <Batch ID>
0178

> <Smiles>
CNC(C)C(=O)NC(C(=O)N1Cc2cc([101O:1][101CH2:1]C(C)(O)C(=O)N3C[100CH:0]([100C:0](=O)N4CCCC(n5nc(-c6ccc(Oc7ccc(F)cc7F)cc6)c(C(N)=O)c5N)C4)c4c(F)cc(F)cc4C3(C)CC(F)(F)F)ccc2CC1C(=O)NC1CCCc2ccccc21)C(C)(C)C

> <Shape>
0.255

> <Color>
0.093

> <Negative vol penalty>
0.000

$$$$

  -OEChem-04052304443D

 84 92  0     1  0  0  0  0  0999 V2000
  -27.9201  -33.9748   24.7245 C   0  0  0  0  0  0  0  0  0  0  0  0
  -28.1586  -32.6218   24.5057 C   0  0  0  0  0  0  0  0  0  0  0  0
  -23.2379  -11.8070   23.1027 C   0  0  0  0  0  0  0  0  0  0  0  0
  -23.2593  -14.2142   22.8973 C   0  0  0  0  0  0  0  0  0  0  0  0
  -26.6106  -34.4461   24.8079 C   0  0  0  0  0  0  0  0  0  0  0  0
  -27.0875  -31.7391   24.3713 C   0  0  0  0  0  0  0  0  0  0  0  0
  -27.7014  -28.5124   20.5169 C   0  0  0  0  0  0  0  0  0  0  0  0
  -22.4262  -11.9106   24.2322 C   0  0  0  0  0  0  0  0  0  0  0  0
  -22.4475  -14.3178   24.0269 C   0  0  0  0  0  0  0  0  0  0  0  0
  -28.5575  -27.4312   20.7218 C   0  0  0  0  0  0  0  0  0  0  0  0
  -20.0846  -15.2010   26.6450 C   0  0  0  0  0  0  0  0  0  0  0  0
  -19.0053  -16.0829   26.5903 C   0  0  0  0  0  0  0  0  0  0  0  0
  -26.6526  -26.0074   21.1262 C   0  0  0  0  0  0  0  0  0  0  0  0
  -18.0906  -14.8478   24.7262 C   0  0  0  0  0  0  0  0  0  0  0  0
  -23.6545  -12.9588   22.4352 C   0  0  0  0  0  0  0  0  0  0  0  0
  -24.0763  -12.7421   19.9286 C   0  0  0  0  0  0  0  0  0  0  0  0
  -25.5229  -33.5703   24.6649 C   0  0  0  0  0  0  0  0  0  0  0  0
  -26.3127  -28.3513   20.6260 C   0  0  0  0  0  0  0  0  0  0  0  0
  -25.7622  -32.1989   24.4542 C   0  0  0  0  0  0  0  0  0  0  0  0
  -25.7810  -27.0875   20.9197 C   0  0  0  0  0  0  0  0  0  0  0  0
  -22.0310  -13.1659   24.6943 C   0  0  0  0  0  0  0  0  0  0  0  0
  -28.0333  -26.1791   21.0294 C   0  0  0  0  0  0  0  0  0  0  0  0
  -20.1669  -14.1425   25.7403 C   0  0  0  0  0  0  0  0  0  0  0  0
  -18.0083  -15.9063   25.6309 C   0  0  0  0  0  0  0  0  0  0  0  0
  -19.1699  -13.9659   24.7809 C   0  0  0  0  0  0  0  0  0  0  0  0
  -24.4935  -12.8525   21.2686 C   0  0  0  0  0  0  0  0  0  0  0  0
  -32.0915  -18.7089   19.4117 C   0  0  0  0  0  0  0  0  0  0  0  0
  -25.2446  -12.6712   19.2100 C   0  0  0  0  0  0  0  0  0  0  0  0
  -30.9388  -19.4505   19.5651 C   0  0  0  0  0  0  0  0  0  0  0  0
  -30.7195  -17.0807   19.9378 C   0  0  0  0  0  0  0  0  0  0  0  0
  -22.7511  -12.7068   19.3824 C   0  0  0  0  0  0  0  0  0  0  0  0
  -29.5472  -22.9422   19.3968 C   0  0  0  0  0  0  0  0  0  0  0  0
  -29.4565  -21.4609   19.6242 C   0  0  0  0  0  0  0  0  0  0  0  0
  -24.0549  -29.5635   22.5066 C   0  0  0  0  0  0  0  0  0  0  0  0
  -22.0731  -27.9362   20.5201 C   0  0  0  0  0  0  0  0  0  0  0  0
  -21.6516  -25.3647   18.3163 C   0  0  0  0  0  0  0  0  0  0  0  0
  -30.8069  -14.5841   20.2623 C   0  0  0  0  0  0  0  0  0  0  0  0
  -24.1254  -34.1186   24.8098 C   0  0  0  0  0  0  0  0  0  0  0  0
  -25.4016  -29.5216   20.3757 C   0  0  0  0  0  0  0  0  0  0  0  0
  -24.2965  -26.8575   21.0283 C   0  0  0  0  0  0  0  0  0  0  0  0
  -23.0445  -33.1783   24.2827 C   0  0  0  0  0  0  0  0  0  0  0  0
  -29.7970  -11.2356   19.5954 C   0  0  0  0  0  0  0  0  0  0  0  0
  -23.2837  -31.7568   24.7819 C   0  0  0  0  0  0  0  0  0  0  0  0
  -28.2835  -11.2616   19.8209 C   0  0  0  0  0  0  0  0  0  0  0  0
  -30.5336  -12.1355   20.5860 C   0  0  0  0  0  0  0  0  0  0  0  0
  -28.5341  -13.5459   20.8726 C   0  0  0  0  0  0  0  0  0  0  0  0
  -24.6267  -31.2141   24.2785 C   0  0  1  0  0  0  0  0  0  0  0  0
  -24.0278  -29.3575   21.0185 C   0  0  1  0  0  0  0  0  0  0  0  0
  -27.7439  -12.7049   19.8569 C   0  0  2  0  0  0  0  0  0  0  0  0
  -33.4219  -19.2363   19.0448 C   0  0  0  0  0  0  0  0  0  0  0  0
  -19.9098  -24.2625   16.8850 C   0  0  0  0  0  0  0  0  0  0  0  0
  -20.8709  -26.6235   22.9983 C   0  0  0  0  0  0  0  0  0  0  0  0
  -19.8511  -24.8943   21.5022 C   0  0  0  0  0  0  0  0  0  0  0  0
  -19.2031  -27.2908   21.2583 C   0  0  0  0  0  0  0  0  0  0  0  0
  -23.1583  -25.9422   15.8352 C   0  0  0  0  0  0  0  0  0  0  0  0
  -30.5407  -23.6940   20.2552 C   0  0  0  0  0  0  0  0  0  0  0  0
  -30.1045  -25.1269   20.5206 C   0  0  0  0  0  0  0  0  0  1  0  0
  -21.4939  -26.5423   20.4940 C   0  0  1  0  0  0  0  0  0  0  0  0
  -21.0097  -25.3112   16.9417 C   0  0  2  0  0  0  0  0  0  0  0  0
  -20.3828  -26.3422   21.5631 C   0  0  0  0  0  0  0  0  0  0  0  0
  -25.8230  -12.8521   21.3964 N   0  0  0  0  0  0  0  0  0  0  0  0
  -31.9678  -17.3499   19.6254 N   0  0  0  0  0  0  0  0  0  0  0  0
  -26.2514  -12.7405   20.1275 N   0  0  0  0  0  0  0  0  0  0  0  0
  -23.4472  -28.0344   20.7812 N   0  0  0  0  0  0  0  0  0  0  0  0
  -29.9711  -13.4875   20.5620 N   0  0  0  0  0  0  0  0  0  0  0  0
  -25.4987  -12.5570   17.8891 N   0  0  0  0  0  0  0  0  0  0  0  0
  -21.6633  -12.7908   20.2622 N   0  0  0  0  0  0  0  0  0  0  0  0
  -30.6683  -20.8325   19.4342 N   0  0  0  0  0  0  0  0  0  0  0  0
  -30.1544  -15.8162   20.2365 N   0  0  0  0  0  0  0  0  0  0  0  0
  -24.5199  -30.8057   22.8942 N   0  0  0  0  0  0  0  0  0  0  0  0
  -21.0529  -26.3091   19.1231 N   0  0  0  0  0  0  0  0  0  0  0  0
  -22.0292  -24.9794   15.9065 N   0  3  0  0  0  0  0  0  0  0  0  0
  -22.5378  -12.5873   18.1521 O   0  0  0  0  0  0  0  0  0  0  0  0
  -28.8256  -23.4211   18.5350 O   0  0  0  0  0  0  0  0  0  0  0  0
  -28.3680  -21.0256   19.9611 O   0  0  0  0  0  0  0  0  0  0  0  0
  -23.6803  -28.6628   23.2482 O   0  0  0  0  0  0  0  0  0  0  0  0
  -21.3350  -28.9018   20.3092 O   0  0  0  0  0  0  0  0  0  0  0  0
  -22.5879  -24.6386   18.6429 O   0  0  0  0  0  0  0  0  0  0  0  0
  -32.0072  -14.4374   20.0178 O   0  0  0  0  0  0  0  0  0  0  0  0
  -21.2387  -13.2674   25.7964 O   0  0  0  0  0  0  0  0  0  0  0  0
  -28.8666  -25.1222   21.2305 O   0  0  0  0  0  0  0  0  0  1  0  0
  -16.9711  -16.7524   25.5794 F   0  0  0  0  0  0  0  0  0  0  0  0
  -19.2429  -12.9501   23.9099 F   0  0  0  0  0  0  0  0  0  0  0  0
  -29.6407  -18.4142   19.9923 S   0  0  0  0  0  0  0  0  0  0  0  0
  1  2  1  0  0  0  0
  1  5  2  0  0  0  0
  2  6  2  0  0  0  0
  3  8  2  0  0  0  0
  3 15  1  0  0  0  0
  4  9  1  0  0  0  0
  4 15  2  0  0  0  0
  5 17  1  0  0  0  0
  6 19  1  0  0  0  0
  7 10  2  0  0  0  0
  7 18  1  0  0  0  0
  8 21  1  0  0  0  0
  9 21  2  0  0  0  0
 10 22  1  0  0  0  0
 11 12  2  0  0  0  0
 11 23  1  0  0  0  0
 12 24  1  0  0  0  0
 13 20  1  0  0  0  0
 13 22  2  0  0  0  0
 14 24  2  0  0  0  0
 14 25  1  0  0  0  0
 15 26  1  0  0  0  0
 16 26  1  0  0  0  0
 16 28  2  0  0  0  0
 16 31  1  0  0  0  0
 17 19  2  0  0  0  0
 17 38  1  0  0  0  0
 18 20  2  0  0  0  0
 18 39  1  0  0  0  0
 19 47  1  0  0  0  0
 20 40  1  0  0  0  0
 21 80  1  0  0  0  0
 22 81  1  0  0  0  0
 23 25  2  0  0  0  0
 23 80  1  0  0  0  0
 24 82  1  0  0  0  0
 25 83  1  0  0  0  0
 26 61  2  0  0  0  0
 27 29  2  0  0  0  0
 27 50  1  0  0  0  0
 27 62  1  0  0  0  0
 28 63  1  0  0  0  0
 28 66  1  0  0  0  0
 29 68  1  0  0  0  0
 29 84  1  0  0  0  0
 30 62  2  0  0  0  0
 30 69  1  0  0  0  0
 30 84  1  0  0  0  0
 31 67  1  0  0  0  0
 31 73  2  0  0  0  0
 32 33  1  0  0  0  0
 32 56  1  0  0  0  0
 32 74  2  0  0  0  0
 33 68  1  0  0  0  0
 33 75  2  0  0  0  0
 34 48  1  0  0  0  0
 34 70  1  0  0  0  0
 34 76  2  0  0  0  0
 35 58  1  0  0  0  0
 35 64  1  0  0  0  0
 35 77  2  0  0  0  0
 36 59  1  0  0  0  0
 36 71  1  0  0  0  0
 36 78  2  0  0  0  0
 37 65  1  0  0  0  0
 37 69  1  0  0  0  0
 37 79  2  0  0  0  0
 38 41  1  0  0  0  0
 39 48  1  0  0  0  0
 40 64  1  0  0  0  0
 41 43  1  0  0  0  0
 42 44  1  0  0  0  0
 42 45  1  0  0  0  0
 43 47  1  0  0  0  0
 44 49  1  0  0  0  0
 45 65  1  0  0  0  0
 46 49  1  0  0  0  0
 46 65  1  0  0  0  0
 47 70  1  0  0  0  0
 48 64  1  0  0  0  0
 49 63  1  0  0  0  0
 51 59  1  0  0  0  0
 52 60  1  0  0  0  0
 53 60  1  0  0  0  0
 54 60  1  0  0  0  0
 55 72  1  0  0  0  0
 56 57  1  0  0  0  0
 57 81  1  0  0  0  0
 58 60  1  0  0  0  0
 58 71  1  0  0  0  0
 59 72  1  0  0  0  0
 61 63  1  0  0  0  0
M  CHG  1  72   1
M  ISO  4  37 100  57 101  69 100  81 101
M  END
> <Batch ID>
0178

> <Smiles>
CNC(C)C(=O)NC(C(=O)N1Cc2cc([101O:1][101CH2:1]CC(=O)C(=O)Nc3sc([100NH:0][100C:0](=O)N4CCCC(n5nc(-c6ccc(Oc7ccc(F)cc7F)cc6)c(C(N)=O)c5N)C4)nc3C)ccc2CC1C(=O)NC1CCCc2ccccc21)C(C)(C)C

> <Shape>
0.269

> <Color>
0.090

> <Negative vol penalty>
0.000

$$$$

  -OEChem-04052304443D

 84 92  0     1  0  0  0  0  0999 V2000
  -16.9383  -29.1611   24.4544 C   0  0  0  0  0  0  0  0  0  0  0  0
  -17.3293  -28.0754   23.6774 C   0  0  0  0  0  0  0  0  0  0  0  0
  -27.3215  -17.9171   19.8353 C   0  0  0  0  0  0  0  0  0  0  0  0
  -28.5775  -17.8878   21.8990 C   0  0  0  0  0  0  0  0  0  0  0  0
  -17.5978  -30.3827   24.3255 C   0  0  0  0  0  0  0  0  0  0  0  0
  -18.3796  -28.2109   22.7702 C   0  0  0  0  0  0  0  0  0  0  0  0
  -22.5089  -23.9495   21.2554 C   0  0  0  0  0  0  0  0  0  0  0  0
  -27.1083  -16.5431   19.9455 C   0  0  0  0  0  0  0  0  0  0  0  0
  -28.3642  -16.5138   22.0092 C   0  0  0  0  0  0  0  0  0  0  0  0
  -22.6000  -23.0742   20.1741 C   0  0  0  0  0  0  0  0  0  0  0  0
  -25.0760  -14.4687   21.6775 C   0  0  0  0  0  0  0  0  0  0  0  0
  -23.7884  -13.9910   21.4337 C   0  0  0  0  0  0  0  0  0  0  0  0
  -24.0593  -24.6289   19.0461 C   0  0  0  0  0  0  0  0  0  0  0  0
  -24.6362  -12.6274   19.6284 C   0  0  0  0  0  0  0  0  0  0  0  0
  -28.0561  -18.5895   20.8120 C   0  0  0  0  0  0  0  0  0  0  0  0
  -27.4645  -21.0392   21.2079 C   0  0  0  0  0  0  0  0  0  0  0  0
  -18.6630  -30.5306   23.4232 C   0  0  0  0  0  0  0  0  0  0  0  0
  -23.1847  -25.1781   21.2355 C   0  0  0  0  0  0  0  0  0  0  0  0
  -19.0531  -29.4360   22.6281 C   0  0  0  0  0  0  0  0  0  0  0  0
  -23.9772  -25.5170   20.1295 C   0  0  0  0  0  0  0  0  0  0  0  0
  -27.6296  -15.8414   21.0325 C   0  0  0  0  0  0  0  0  0  0  0  0
  -23.3729  -23.4151   19.0680 C   0  0  0  0  0  0  0  0  0  0  0  0
  -26.1437  -14.0260   20.8967 C   0  0  0  0  0  0  0  0  0  0  0  0
  -23.5685  -13.0703   20.4092 C   0  0  0  0  0  0  0  0  0  0  0  0
  -25.9238  -13.1053   19.8722 C   0  0  0  0  0  0  0  0  0  0  0  0
  -28.2772  -20.0088   20.6984 C   0  0  0  0  0  0  0  0  0  0  0  0
  -28.8140  -24.5728   14.3637 C   0  0  0  0  0  0  0  0  0  0  0  0
  -28.3381  -25.1546   13.2074 C   0  0  0  0  0  0  0  0  0  0  0  0
  -28.1040  -22.1965   20.8362 C   0  0  0  0  0  0  0  0  0  0  0  0
  -26.6669  -24.2973   14.7156 C   0  0  0  0  0  0  0  0  0  0  0  0
  -26.2410  -20.9575   21.9509 C   0  0  0  0  0  0  0  0  0  0  0  0
  -30.2546  -24.4545   14.7065 C   0  0  0  0  0  0  0  0  0  0  0  0
  -22.2967  -28.2285   21.3343 C   0  0  0  0  0  0  0  0  0  0  0  0
  -25.4942  -28.7494   21.5002 C   0  0  0  0  0  0  0  0  0  0  0  0
  -28.6505  -27.6204   20.8602 C   0  0  0  0  0  0  0  0  0  0  0  0
  -25.1621  -23.3124   16.4776 C   0  0  0  0  0  0  0  0  0  0  0  0
  -31.8227  -23.5823   16.4107 C   0  0  0  0  0  0  0  0  0  0  0  0
  -19.3147  -31.8837   23.2848 C   0  0  0  0  0  0  0  0  0  0  0  0
  -23.0977  -26.0994   22.4212 C   0  0  0  0  0  0  0  0  0  0  0  0
  -24.7387  -26.8149   20.0675 C   0  0  0  0  0  0  0  0  0  0  0  0
  -20.6626  -31.8403   22.5697 C   0  0  0  0  0  0  0  0  0  0  0  0
  -32.4718  -23.9184   19.8694 C   0  0  0  0  0  0  0  0  0  0  0  0
  -20.5711  -30.9860   21.3094 C   0  0  0  0  0  0  0  0  0  0  0  0
  -31.3865  -23.0605   20.5256 C   0  0  0  0  0  0  0  0  0  0  0  0
  -32.9900  -23.2876   18.5778 C   0  0  0  0  0  0  0  0  0  0  0  0
  -30.8750  -22.0701   18.2581 C   0  0  0  0  0  0  0  0  0  0  0  0
  -20.2041  -29.5367   21.6507 C   0  0  1  0  0  0  0  0  0  0  0  0
  -23.4150  -27.5508   22.0746 C   0  0  1  0  0  0  0  0  0  0  0  0
  -30.2710  -22.6970   19.5251 C   0  0  1  0  0  0  0  0  0  0  0  0
  -29.0649  -25.7738   12.0804 C   0  0  0  0  0  0  0  0  0  0  0  0
  -31.1596  -27.5824   20.8849 C   0  0  0  0  0  0  0  0  0  0  0  0
  -23.0181  -22.2615   15.6660 C   0  0  0  0  0  0  0  0  0  0  0  0
  -25.1845  -30.6324   19.1194 C   0  0  0  0  0  0  0  0  0  0  0  0
  -27.6633  -30.5100   18.7891 C   0  0  0  0  0  0  0  0  0  0  0  0
  -26.7335  -31.4523   20.9034 C   0  0  0  0  0  0  0  0  0  0  0  0
  -28.7189  -26.1741   23.4414 C   0  0  0  0  0  0  0  0  0  0  0  0
  -26.5965  -28.9617   20.4909 C   0  0  1  0  0  0  0  0  0  0  0  0
  -29.8943  -27.5607   21.7284 C   0  0  2  0  0  0  0  0  0  0  0  0
  -23.6649  -23.1439   16.7234 C   0  0  1  0  0  0  0  0  0  1  0  0
  -26.5287  -30.3654   19.8257 C   0  0  0  0  0  0  0  0  0  0  0  0
  -29.3509  -20.4707   20.0521 N   0  0  0  0  0  0  0  0  0  0  0  0
  -27.8572  -24.0809   15.2299 N   0  0  0  0  0  0  0  0  0  0  0  0
  -29.2173  -21.8042   20.1529 N   0  0  0  0  0  0  0  0  0  0  0  0
  -24.6167  -27.6851   21.2488 N   0  0  0  0  0  0  0  0  0  0  0  0
  -31.8737  -22.9825   17.6811 N   0  0  0  0  0  0  0  0  0  0  0  0
  -27.8169  -23.5012   21.0303 N   0  0  0  0  0  0  0  0  0  0  0  0
  -25.7228  -19.6895   22.2475 N   0  0  0  0  0  0  0  0  0  0  0  0
  -25.4102  -23.9539   15.2685 N   0  0  0  0  0  0  0  0  0  0  0  0
  -30.5350  -23.8328   15.9237 N   0  0  0  0  0  0  0  0  0  0  0  0
  -21.3606  -28.8279   22.1552 N   0  0  0  0  0  0  0  0  0  0  0  0
  -27.8480  -28.6919   21.1905 N   0  0  0  0  0  0  0  0  0  0  0  0
  -29.8960  -26.3148   22.5461 N   0  3  0  0  0  0  0  0  0  0  0  0
  -25.6170  -21.9789   22.3262 O   0  0  0  0  0  0  0  0  0  0  0  0
  -31.0946  -24.8607   13.9082 O   0  0  0  0  0  0  0  0  0  0  0  0
  -22.2850  -28.2103   20.1091 O   0  0  0  0  0  0  0  0  0  0  0  0
  -25.4188  -29.4957   22.4794 O   0  0  0  0  0  0  0  0  0  0  0  0
  -28.4162  -26.8007   19.9748 O   0  0  0  0  0  0  0  0  0  0  0  0
  -25.9893  -22.9215   17.2961 O   0  0  0  0  0  0  0  0  0  0  0  0
  -32.8356  -23.9023   15.7808 O   0  0  0  0  0  0  0  0  0  0  0  0
  -27.4215  -14.5007   21.1405 O   0  0  0  0  0  0  0  0  0  0  0  0
  -23.4630  -22.5628   18.0109 O   0  0  0  0  0  0  0  0  0  1  0  0
  -22.3322  -12.6104   20.1762 F   0  0  0  0  0  0  0  0  0  0  0  0
  -26.9458  -12.6753   19.1195 F   0  0  0  0  0  0  0  0  0  0  0  0
  -26.6245  -25.0870   13.1926 S   0  0  0  0  0  0  0  0  0  0  0  0
  1  2  1  0  0  0  0
  1  5  2  0  0  0  0
  2  6  2  0  0  0  0
  3  8  2  0  0  0  0
  3 15  1  0  0  0  0
  4  9  1  0  0  0  0
  4 15  2  0  0  0  0
  5 17  1  0  0  0  0
  6 19  1  0  0  0  0
  7 10  2  0  0  0  0
  7 18  1  0  0  0  0
  8 21  1  0  0  0  0
  9 21  2  0  0  0  0
 10 22  1  0  0  0  0
 11 12  2  0  0  0  0
 11 23  1  0  0  0  0
 12 24  1  0  0  0  0
 13 20  1  0  0  0  0
 13 22  2  0  0  0  0
 14 24  2  0  0  0  0
 14 25  1  0  0  0  0
 15 26  1  0  0  0  0
 16 26  1  0  0  0  0
 16 29  2  0  0  0  0
 16 31  1  0  0  0  0
 17 19  2  0  0  0  0
 17 38  1  0  0  0  0
 18 20  2  0  0  0  0
 18 39  1  0  0  0  0
 19 47  1  0  0  0  0
 20 40  1  0  0  0  0
 21 80  1  0  0  0  0
 22 81  1  0  0  0  0
 23 25  2  0  0  0  0
 23 80  1  0  0  0  0
 24 82  1  0  0  0  0
 25 83  1  0  0  0  0
 26 61  2  0  0  0  0
 27 28  2  0  0  0  0
 27 32  1  0  0  0  0
 27 62  1  0  0  0  0
 28 50  1  0  0  0  0
 28 84  1  0  0  0  0
 29 63  1  0  0  0  0
 29 66  1  0  0  0  0
 30 62  2  0  0  0  0
 30 68  1  0  0  0  0
 30 84  1  0  0  0  0
 31 67  1  0  0  0  0
 31 73  2  0  0  0  0
 32 69  1  0  0  0  0
 32 74  2  0  0  0  0
 33 48  1  0  0  0  0
 33 70  1  0  0  0  0
 33 75  2  0  0  0  0
 34 57  1  0  0  0  0
 34 64  1  0  0  0  0
 34 76  2  0  0  0  0
 35 58  1  0  0  0  0
 35 71  1  0  0  0  0
 35 77  2  0  0  0  0
 36 59  1  0  0  0  0
 36 68  1  0  0  0  0
 36 78  2  0  0  0  0
 37 65  1  0  0  0  0
 37 69  1  0  0  0  0
 37 79  2  0  0  0  0
 38 41  1  0  0  0  0
 39 48  1  0  0  0  0
 40 64  1  0  0  0  0
 41 43  1  0  0  0  0
 42 44  1  0  0  0  0
 42 45  1  0  0  0  0
 43 47  1  0  0  0  0
 44 49  1  0  0  0  0
 45 65  1  0  0  0  0
 46 49  1  0  0  0  0
 46 65  1  0  0  0  0
 47 70  1  0  0  0  0
 48 64  1  0  0  0  0
 49 63  1  0  0  0  0
 51 58  1  0  0  0  0
 52 59  1  0  0  0  0
 53 60  1  0  0  0  0
 54 60  1  0  0  0  0
 55 60  1  0  0  0  0
 56 72  1  0  0  0  0
 57 60  1  0  0  0  0
 57 71  1  0  0  0  0
 58 72  1  0  0  0  0
 59 81  1  0  0  0  0
 61 63  1  0  0  0  0
M  CHG  1  72   1
M  ISO  4  37 100  59 101  69 100  81 101
M  END
> <Batch ID>
0178

> <Smiles>
CNC(C)C(=O)NC(C(=O)N1Cc2cc([101O:1][101CH:1](C)C(=O)Nc3nc(C(=O)[100NH:0][100C:0](=O)N4CCCC(n5nc(-c6ccc(Oc7ccc(F)cc7F)cc6)c(C(N)=O)c5N)C4)c(C)s3)ccc2CC1C(=O)NC1CCCc2ccccc21)C(C)(C)C

> <Shape>
0.215

> <Color>
0.075

> <Negative vol penalty>
0.000

$$$$

  -OEChem-04052304443D

 85 93  0     1  0  0  0  0  0999 V2000
  -23.4171  -23.5640   21.4351 C   0  0  0  0  0  0  0  0  0  0  0  0
  -24.5436  -22.7532   21.5302 C   0  0  0  0  0  0  0  0  0  0  0  0
  -22.0637  -28.5691   21.0067 C   0  0  0  0  0  0  0  0  0  0  0  0
  -23.3433  -28.0440   22.9876 C   0  0  0  0  0  0  0  0  0  0  0  0
  -22.1676  -23.0649   21.8005 C   0  0  0  0  0  0  0  0  0  0  0  0
  -24.4214  -21.4432   21.9919 C   0  0  0  0  0  0  0  0  0  0  0  0
  -27.0361  -18.1407   19.1809 C   0  0  0  0  0  0  0  0  0  0  0  0
  -20.8811  -28.4212   21.7313 C   0  0  0  0  0  0  0  0  0  0  0  0
  -22.1606  -27.8961   23.7123 C   0  0  0  0  0  0  0  0  0  0  0  0
  -28.4133  -18.0779   19.3887 C   0  0  0  0  0  0  0  0  0  0  0  0
  -19.0647  -30.2352   23.9319 C   0  0  0  0  0  0  0  0  0  0  0  0
  -18.0761  -31.2048   23.7642 C   0  0  0  0  0  0  0  0  0  0  0  0
  -28.1115  -16.1120   20.7537 C   0  0  0  0  0  0  0  0  0  0  0  0
  -16.5450  -29.5082   22.9805 C   0  0  0  0  0  0  0  0  0  0  0  0
  -23.2948  -28.3805   21.6348 C   0  0  0  0  0  0  0  0  0  0  0  0
  -25.2672  -29.7112   20.7147 C   0  0  0  0  0  0  0  0  0  0  0  0
  -22.0286  -21.7450   22.2578 C   0  0  0  0  0  0  0  0  0  0  0  0
  -26.1838  -17.1945   19.7678 C   0  0  0  0  0  0  0  0  0  0  0  0
  -23.1691  -20.9264   22.3651 C   0  0  0  0  0  0  0  0  0  0  0  0
  -26.7241  -16.1635   20.5497 C   0  0  0  0  0  0  0  0  0  0  0  0
  -20.9295  -28.0847   23.0841 C   0  0  0  0  0  0  0  0  0  0  0  0
  -28.9509  -17.0651   20.1776 C   0  0  0  0  0  0  0  0  0  0  0  0
  -18.7934  -28.9021   23.6238 C   0  0  0  0  0  0  0  0  0  0  0  0
  -16.8162  -30.8413   23.2885 C   0  0  0  0  0  0  0  0  0  0  0  0
  -17.5336  -28.5386   23.1481 C   0  0  0  0  0  0  0  0  0  0  0  0
  -24.5168  -28.5326   20.8867 C   0  0  0  0  0  0  0  0  0  0  0  0
  -32.2421  -22.6082   21.7184 C   0  0  0  0  0  0  0  0  0  0  0  0
  -26.3282  -29.3312   19.9296 C   0  0  0  0  0  0  0  0  0  0  0  0
  -31.9207  -23.1554   22.9429 C   0  0  0  0  0  0  0  0  0  0  0  0
  -30.4405  -23.7090   21.1250 C   0  0  0  0  0  0  0  0  0  0  0  0
  -25.0266  -31.0314   21.2195 C   0  0  0  0  0  0  0  0  0  0  0  0
  -32.2280  -18.1251   21.2533 C   0  0  0  0  0  0  0  0  0  0  0  0
  -32.6992  -19.3882   21.9126 C   0  0  0  0  0  0  0  0  0  0  0  0
  -23.7979  -17.3199   21.8643 C   0  0  0  0  0  0  0  0  0  0  0  0
  -23.5135  -14.1707   21.1404 C   0  0  0  0  0  0  0  0  0  0  0  0
  -24.9876  -11.3204   19.9787 C   0  0  0  0  0  0  0  0  0  0  0  0
  -29.0823  -24.1035   19.0402 C   0  0  0  0  0  0  0  0  0  0  0  0
  -20.6644  -21.2650   22.6861 C   0  0  0  0  0  0  0  0  0  0  0  0
  -24.7031  -17.2605   19.5121 C   0  0  0  0  0  0  0  0  0  0  0  0
  -25.8541  -15.1113   21.1857 C   0  0  0  0  0  0  0  0  0  0  0  0
  -20.5643  -19.7468   22.8106 C   0  0  0  0  0  0  0  0  0  0  0  0
  -27.5463  -26.1495   16.5640 C   0  0  0  0  0  0  0  0  0  0  0  0
  -21.7625  -19.1937   23.5755 C   0  0  0  0  0  0  0  0  0  0  0  0
  -26.6680  -27.1041   17.3763 C   0  0  0  0  0  0  0  0  0  0  0  0
  -27.5751  -24.7487   17.1729 C   0  0  0  0  0  0  0  0  0  0  0  0
  -27.0612  -25.6516   19.4067 C   0  0  0  0  0  0  0  0  0  0  0  0
  -23.0734  -19.4920   22.8379 C   0  0  1  0  0  0  0  0  0  0  0  0
  -23.8799  -16.5456   20.5792 C   0  0  1  0  0  0  0  0  0  0  0  0
  -27.0529  -27.0918   18.8687 C   0  0  2  0  0  0  0  0  0  0  0  0
  -34.3689  -22.3052   20.3853 C   0  0  0  0  0  0  0  0  0  0  0  0
  -24.5130   -8.8959   19.5383 C   0  0  0  0  0  0  0  0  0  0  0  0
  -23.6878  -13.5957   24.1319 C   0  0  0  0  0  0  0  0  0  0  0  0
  -24.1639  -11.2020   23.5733 C   0  0  0  0  0  0  0  0  0  0  0  0
  -21.9912  -12.2288   22.9040 C   0  0  0  0  0  0  0  0  0  0  0  0
  -25.5512  -11.6154   17.0883 C   0  0  0  0  0  0  0  0  0  0  0  0
  -31.0125  -18.2351   20.3700 C   0  0  0  0  0  0  0  0  0  1  0  0
  -33.4215  -21.7068   21.4231 C   0  0  2  0  0  0  0  0  0  0  0  0
  -24.1036  -12.8915   21.6830 C   0  0  1  0  0  0  0  0  0  0  0  0
  -24.5345  -10.2987   18.9514 C   0  0  2  0  0  0  0  0  0  0  0  0
  -23.5031  -12.5003   23.0628 C   0  0  0  0  0  0  0  0  0  0  0  0
  -25.0554  -27.4825   20.2611 N   0  0  0  0  0  0  0  0  0  0  0  0
  -31.3942  -22.9243   20.6749 N   0  0  0  0  0  0  0  0  0  0  0  0
  -26.1554  -28.0001   19.6882 N   0  0  0  0  0  0  0  0  0  0  0  0
  -24.4120  -15.2224   20.9112 N   0  0  0  0  0  0  0  0  0  0  0  0
  -27.9515  -24.8151   18.5867 N   0  0  0  0  0  0  0  0  0  0  0  0
  -27.3828  -30.0093   19.4291 N   0  0  0  0  0  0  0  0  0  0  0  0
  -32.5741  -23.0094   24.1212 N   0  0  0  0  0  0  0  0  0  0  0  0
  -23.8898  -31.2476   22.0102 N   0  0  0  0  0  0  0  0  0  0  0  0
  -29.3615  -24.2685   20.3965 N   0  0  0  0  0  0  0  0  0  0  0  0
  -32.9866  -20.3911   21.0155 N   0  0  0  0  0  0  0  0  0  0  0  0
  -23.2475  -18.5800   21.7278 N   0  0  0  0  0  0  0  0  0  0  0  0
  -23.9194  -11.8841   20.6439 N   0  0  0  0  0  0  0  0  0  0  0  0
  -25.4520  -10.3029   17.7771 N   0  3  0  0  0  0  0  0  0  0  0  0
  -25.7882  -31.9946   20.9630 O   0  0  0  0  0  0  0  0  0  0  0  0
  -32.8711  -17.1069   21.4600 O   0  0  0  0  0  0  0  0  0  0  0  0
  -32.7503  -19.4085   23.1322 O   0  0  0  0  0  0  0  0  0  0  0  0
  -24.2025  -16.8111   22.9031 O   0  0  0  0  0  0  0  0  0  0  0  0
  -22.3012  -14.2321   20.9211 O   0  0  0  0  0  0  0  0  0  0  0  0
  -26.1709  -11.5886   20.1743 O   0  0  0  0  0  0  0  0  0  0  0  0
  -29.7694  -23.4213   18.2757 O   0  0  0  0  0  0  0  0  0  0  0  0
  -19.7757  -27.9405   23.7916 O   0  0  0  0  0  0  0  0  0  0  0  0
  -30.2947  -17.0018   20.3826 O   0  0  0  0  0  0  0  0  0  1  0  0
  -15.8665  -31.7723   23.1290 F   0  0  0  0  0  0  0  0  0  0  0  0
  -17.2668  -27.2592   22.8516 F   0  0  0  0  0  0  0  0  0  0  0  0
  -30.5022  -24.1076   22.7930 S   0  0  0  0  0  0  0  0  0  0  0  0
  1  2  1  0  0  0  0
  1  5  2  0  0  0  0
  2  6  2  0  0  0  0
  3  8  2  0  0  0  0
  3 15  1  0  0  0  0
  4  9  1  0  0  0  0
  4 15  2  0  0  0  0
  5 17  1  0  0  0  0
  6 19  1  0  0  0  0
  7 10  2  0  0  0  0
  7 18  1  0  0  0  0
  8 21  1  0  0  0  0
  9 21  2  0  0  0  0
 10 22  1  0  0  0  0
 11 12  2  0  0  0  0
 11 23  1  0  0  0  0
 12 24  1  0  0  0  0
 13 20  1  0  0  0  0
 13 22  2  0  0  0  0
 14 24  2  0  0  0  0
 14 25  1  0  0  0  0
 15 26  1  0  0  0  0
 16 26  1  0  0  0  0
 16 28  2  0  0  0  0
 16 31  1  0  0  0  0
 17 19  2  0  0  0  0
 17 38  1  0  0  0  0
 18 20  2  0  0  0  0
 18 39  1  0  0  0  0
 19 47  1  0  0  0  0
 20 40  1  0  0  0  0
 21 81  1  0  0  0  0
 22 82  1  0  0  0  0
 23 25  2  0  0  0  0
 23 81  1  0  0  0  0
 24 83  1  0  0  0  0
 25 84  1  0  0  0  0
 26 61  2  0  0  0  0
 27 29  2  0  0  0  0
 27 57  1  0  0  0  0
 27 62  1  0  0  0  0
 28 63  1  0  0  0  0
 28 66  1  0  0  0  0
 29 67  1  0  0  0  0
 29 85  1  0  0  0  0
 30 62  2  0  0  0  0
 30 69  1  0  0  0  0
 30 85  1  0  0  0  0
 31 68  1  0  0  0  0
 31 74  2  0  0  0  0
 32 33  1  0  0  0  0
 32 56  1  0  0  0  0
 32 75  2  0  0  0  0
 33 70  1  0  0  0  0
 33 76  2  0  0  0  0
 34 48  1  0  0  0  0
 34 71  1  0  0  0  0
 34 77  2  0  0  0  0
 35 58  1  0  0  0  0
 35 64  1  0  0  0  0
 35 78  2  0  0  0  0
 36 59  1  0  0  0  0
 36 72  1  0  0  0  0
 36 79  2  0  0  0  0
 37 65  1  0  0  0  0
 37 69  1  0  0  0  0
 37 80  2  0  0  0  0
 38 41  1  0  0  0  0
 39 48  1  0  0  0  0
 40 64  1  0  0  0  0
 41 43  1  0  0  0  0
 42 44  1  0  0  0  0
 42 45  1  0  0  0  0
 43 47  1  0  0  0  0
 44 49  1  0  0  0  0
 45 65  1  0  0  0  0
 46 49  1  0  0  0  0
 46 65  1  0  0  0  0
 47 71  1  0  0  0  0
 48 64  1  0  0  0  0
 49 63  1  0  0  0  0
 50 57  1  0  0  0  0
 51 59  1  0  0  0  0
 52 60  1  0  0  0  0
 53 60  1  0  0  0  0
 54 60  1  0  0  0  0
 55 73  1  0  0  0  0
 56 82  1  0  0  0  0
 57 70  1  0  0  0  0
 58 60  1  0  0  0  0
 58 72  1  0  0  0  0
 59 73  1  0  0  0  0
 61 63  1  0  0  0  0
M  CHG  1  73   1
M  ISO  4  37 100  56 101  69 100  82 101
M  END
> <Batch ID>
0178

> <Smiles>
CNC(C)C(=O)NC(C(=O)N1Cc2cc([101O:1][101CH2:1]C(=O)C(=O)NC(C)c3nc([100NH:0][100C:0](=O)N4CCCC(n5nc(-c6ccc(Oc7ccc(F)cc7F)cc6)c(C(N)=O)c5N)C4)sc3N)ccc2CC1C(=O)NC1CCCc2ccccc21)C(C)(C)C

> <Shape>
0.227

> <Color>
0.070

> <Negative vol penalty>
0.000

$$$$

  -OEChem-04052304443D

 86 94  0     1  0  0  0  0  0999 V2000
  -26.9392  -33.5919   20.1223 C   0  0  0  0  0  0  0  0  0  0  0  0
  -26.8423  -32.3602   20.7618 C   0  0  0  0  0  0  0  0  0  0  0  0
  -23.0726   -9.8711   19.9358 C   0  0  0  0  0  0  0  0  0  0  0  0
  -23.8385   -9.8668   22.2272 C   0  0  0  0  0  0  0  0  0  0  0  0
  -27.0404  -33.6486   18.7329 C   0  0  0  0  0  0  0  0  0  0  0  0
  -26.8455  -31.1845   20.0121 C   0  0  0  0  0  0  0  0  0  0  0  0
  -29.8576  -27.6269   21.9910 C   0  0  0  0  0  0  0  0  0  0  0  0
  -22.3295   -8.7167   20.1820 C   0  0  0  0  0  0  0  0  0  0  0  0
  -23.0953   -8.7124   22.4735 C   0  0  0  0  0  0  0  0  0  0  0  0
  -29.3699  -26.9177   23.0878 C   0  0  0  0  0  0  0  0  0  0  0  0
  -19.8687   -7.9114   23.0804 C   0  0  0  0  0  0  0  0  0  0  0  0
  -19.1148   -7.8657   24.2530 C   0  0  0  0  0  0  0  0  0  0  0  0
  -28.7808  -25.0855   21.6334 C   0  0  0  0  0  0  0  0  0  0  0  0
  -20.3583   -5.9248   24.9768 C   0  0  0  0  0  0  0  0  0  0  0  0
  -31.5108  -19.3194   22.7447 C   0  0  0  0  0  0  0  0  0  0  0  0
  -23.8272  -10.4462   20.9584 C   0  0  0  0  0  0  0  0  0  0  0  0
  -24.1686  -12.9719   20.8499 C   0  0  0  0  0  0  0  0  0  0  0  0
  -27.0546  -32.4726   17.9665 C   0  0  0  0  0  0  0  0  0  0  0  0
  -29.8005  -27.0742   20.7035 C   0  0  0  0  0  0  0  0  0  0  0  0
  -26.9457  -31.2255   18.6111 C   0  0  0  0  0  0  0  0  0  0  0  0
  -29.2708  -25.7887   20.5223 C   0  0  0  0  0  0  0  0  0  0  0  0
  -22.3408   -8.1373   21.4508 C   0  0  0  0  0  0  0  0  0  0  0  0
  -28.8287  -25.6480   22.9087 C   0  0  0  0  0  0  0  0  0  0  0  0
  -20.8674   -6.9638   22.8559 C   0  0  0  0  0  0  0  0  0  0  0  0
  -19.3596   -6.8724   25.2012 C   0  0  0  0  0  0  0  0  0  0  0  0
  -21.1121   -5.9705   23.8041 C   0  0  0  0  0  0  0  0  0  0  0  0
  -24.5955  -11.6383   20.7045 C   0  0  0  0  0  0  0  0  0  0  0  0
  -32.2438  -18.4865   21.9242 C   0  0  0  0  0  0  0  0  0  0  0  0
  -30.2653  -18.8515   23.1110 C   0  0  0  0  0  0  0  0  0  0  0  0
  -25.2597  -13.7232   20.4875 C   0  0  0  0  0  0  0  0  0  0  0  0
  -30.5748  -16.9432   21.9153 C   0  0  0  0  0  0  0  0  0  0  0  0
  -22.8991  -13.4855   21.2746 C   0  0  0  0  0  0  0  0  0  0  0  0
  -28.3709  -27.8754   17.9799 C   0  0  0  0  0  0  0  0  0  0  0  0
  -30.0708  -25.3748   16.8052 C   0  0  0  0  0  0  0  0  0  0  0  0
  -29.8069  -20.9219   24.4697 C   0  0  0  0  0  0  0  0  0  0  0  0
  -31.6812  -22.4273   17.4096 C   0  0  0  0  0  0  0  0  0  0  0  0
  -30.7263  -14.7683   20.6531 C   0  0  0  0  0  0  0  0  0  0  0  0
  -27.1182  -32.5860   16.4639 C   0  0  0  0  0  0  0  0  0  0  0  0
  -30.3553  -27.8412   19.5345 C   0  0  0  0  0  0  0  0  0  0  0  0
  -29.2050  -25.1423   19.1635 C   0  0  0  0  0  0  0  0  0  0  0  0
  -27.4918  -31.2789   15.7696 C   0  0  0  0  0  0  0  0  0  0  0  0
  -29.6059  -12.3661   18.2759 C   0  0  0  0  0  0  0  0  0  0  0  0
  -26.6807  -30.1202   16.3409 C   0  0  0  0  0  0  0  0  0  0  0  0
  -28.1674  -12.0723   18.7078 C   0  0  0  0  0  0  0  0  0  0  0  0
  -30.5241  -12.5891   19.4763 C   0  0  0  0  0  0  0  0  0  0  0  0
  -28.6207  -13.3066   20.8660 C   0  0  0  0  0  0  0  0  0  0  0  0
  -26.9708  -29.9271   17.8342 C   0  0  1  0  0  0  0  0  0  0  0  0
  -29.7769  -27.3917   18.1963 C   0  0  1  0  0  0  0  0  0  0  0  0
  -27.6448  -13.1391   19.6899 C   0  0  2  0  0  0  0  0  0  0  0  0
  -34.7247  -18.4353   22.4095 C   0  0  0  0  0  0  0  0  0  0  0  0
  -32.9404  -20.5956   16.2448 C   0  0  0  0  0  0  0  0  0  0  0  0
  -27.4435  -24.2550   15.7313 C   0  0  0  0  0  0  0  0  0  0  0  0
  -28.5849  -22.0459   15.4396 C   0  0  0  0  0  0  0  0  0  0  0  0
  -29.3853  -24.0386   14.1703 C   0  0  0  0  0  0  0  0  0  0  0  0
  -34.1322  -22.9533   18.9828 C   0  0  0  0  0  0  0  0  0  0  0  0
  -28.6721  -21.4597   25.3303 C   0  0  0  0  0  0  0  0  0  0  0  0
  -28.6000  -22.9827   25.3226 C   0  0  0  0  0  0  0  0  0  0  0  0
  -28.4265  -23.5302   23.9134 C   0  0  0  0  0  0  0  0  0  1  0  0
  -33.6030  -18.9067   21.4750 C   0  0  1  0  0  0  0  0  0  0  0  0
  -29.8269  -23.8926   16.6554 C   0  0  1  0  0  0  0  0  0  0  0  0
  -33.0474  -21.9203   16.9842 C   0  0  2  0  0  0  0  0  0  0  0  0
  -28.8095  -23.5707   15.5246 C   0  0  0  0  0  0  0  0  0  0  0  0
  -25.8593  -11.5446   20.2825 N   0  0  0  0  0  0  0  0  0  0  0  0
  -31.8050  -17.2872   21.4889 N   0  0  0  0  0  0  0  0  0  0  0  0
  -29.7638  -17.6639   22.7131 N   0  0  0  0  0  0  0  0  0  0  0  0
  -26.2358  -12.8289   20.1595 N   0  0  0  0  0  0  0  0  0  0  0  0
  -29.7544  -25.9348   18.0510 N   0  0  0  0  0  0  0  0  0  0  0  0
  -29.9673  -13.6155   20.3602 N   0  0  0  0  0  0  0  0  0  0  0  0
  -25.4699  -15.0550   20.4204 N   0  0  0  0  0  0  0  0  0  0  0  0
  -21.8881  -12.5747   21.6100 N   0  0  0  0  0  0  0  0  0  0  0  0
  -29.4772  -19.6723   23.9523 N   0  0  0  0  0  0  0  0  0  0  0  0
  -30.0810  -15.6893   21.4777 N   0  0  0  0  0  0  0  0  0  0  0  0
  -28.2364  -29.2501   18.0198 N   0  0  0  0  0  0  0  0  0  0  0  0
  -31.1380  -23.2797   16.4717 N   0  0  0  0  0  0  0  0  0  0  0  0
  -33.9462  -18.4338   20.0902 N   0  3  0  0  0  0  0  0  0  0  0  0
  -33.9212  -21.7243   18.1754 N   0  3  0  0  0  0  0  0  0  0  0  0
  -22.6630  -14.7159   21.3386 O   0  0  0  0  0  0  0  0  0  0  0  0
  -27.4746  -27.0617   17.7893 O   0  0  0  0  0  0  0  0  0  0  0  0
  -30.5319  -26.0110   15.8542 O   0  0  0  0  0  0  0  0  0  0  0  0
  -30.8455  -21.5504   24.2945 O   0  0  0  0  0  0  0  0  0  0  0  0
  -31.1476  -22.0971   18.4664 O   0  0  0  0  0  0  0  0  0  0  0  0
  -31.8542  -14.9394   20.1834 O   0  0  0  0  0  0  0  0  0  0  0  0
  -21.6155   -7.0110   21.6915 O   0  0  0  0  0  0  0  0  0  0  0  0
  -28.3514  -24.9538   23.9774 O   0  0  0  0  0  0  0  0  0  1  0  0
  -18.6366   -6.8295   26.3280 F   0  0  0  0  0  0  0  0  0  0  0  0
  -22.0710   -5.0581   23.5945 F   0  0  0  0  0  0  0  0  0  0  0  0
  1  2  1  0  0  0  0
  1  5  2  0  0  0  0
  2  6  2  0  0  0  0
  3  8  2  0  0  0  0
  3 16  1  0  0  0  0
  4  9  1  0  0  0  0
  4 16  2  0  0  0  0
  5 18  1  0  0  0  0
  6 20  1  0  0  0  0
  7 10  2  0  0  0  0
  7 19  1  0  0  0  0
  8 22  1  0  0  0  0
  9 22  2  0  0  0  0
 10 23  1  0  0  0  0
 11 12  2  0  0  0  0
 11 24  1  0  0  0  0
 12 25  1  0  0  0  0
 13 21  1  0  0  0  0
 13 23  2  0  0  0  0
 14 25  2  0  0  0  0
 14 26  1  0  0  0  0
 15 28  2  0  0  0  0
 15 29  1  0  0  0  0
 16 27  1  0  0  0  0
 17 27  1  0  0  0  0
 17 30  2  0  0  0  0
 17 32  1  0  0  0  0
 18 20  2  0  0  0  0
 18 38  1  0  0  0  0
 19 21  2  0  0  0  0
 19 39  1  0  0  0  0
 20 47  1  0  0  0  0
 21 40  1  0  0  0  0
 22 83  1  0  0  0  0
 23 84  1  0  0  0  0
 24 26  2  0  0  0  0
 24 83  1  0  0  0  0
 25 85  1  0  0  0  0
 26 86  1  0  0  0  0
 27 63  2  0  0  0  0
 28 59  1  0  0  0  0
 28 64  1  0  0  0  0
 29 65  2  0  0  0  0
 29 71  1  0  0  0  0
 30 66  1  0  0  0  0
 30 69  1  0  0  0  0
 31 64  2  0  0  0  0
 31 65  1  0  0  0  0
 31 72  1  0  0  0  0
 32 70  1  0  0  0  0
 32 77  2  0  0  0  0
 33 48  1  0  0  0  0
 33 73  1  0  0  0  0
 33 78  2  0  0  0  0
 34 60  1  0  0  0  0
 34 67  1  0  0  0  0
 34 79  2  0  0  0  0
 35 56  1  0  0  0  0
 35 71  1  0  0  0  0
 35 80  2  0  0  0  0
 36 61  1  0  0  0  0
 36 74  1  0  0  0  0
 36 81  2  0  0  0  0
 37 68  1  0  0  0  0
 37 72  1  0  0  0  0
 37 82  2  0  0  0  0
 38 41  1  0  0  0  0
 39 48  1  0  0  0  0
 40 67  1  0  0  0  0
 41 43  1  0  0  0  0
 42 44  1  0  0  0  0
 42 45  1  0  0  0  0
 43 47  1  0  0  0  0
 44 49  1  0  0  0  0
 45 68  1  0  0  0  0
 46 49  1  0  0  0  0
 46 68  1  0  0  0  0
 47 73  1  0  0  0  0
 48 67  1  0  0  0  0
 49 66  1  0  0  0  0
 50 59  1  0  0  0  0
 51 61  1  0  0  0  0
 52 62  1  0  0  0  0
 53 62  1  0  0  0  0
 54 62  1  0  0  0  0
 55 76  1  0  0  0  0
 56 57  1  0  0  0  0
 57 58  1  0  0  0  0
 58 84  1  0  0  0  0
 59 75  1  0  0  0  0
 60 62  1  0  0  0  0
 60 74  1  0  0  0  0
 61 76  1  0  0  0  0
 63 66  1  0  0  0  0
M  CHG  2  75   1  76   1
M  ISO  4  37 100  58 101  72 100  84 101
M  END
> <Batch ID>
0178

> <Smiles>
CNC(C)C(=O)NC(C(=O)N1Cc2cc([101O:1][101CH2:1]CCC(=O)Nc3cc(C(C)N)nc([100NH:0][100C:0](=O)N4CCCC(n5nc(-c6ccc(Oc7ccc(F)cc7F)cc6)c(C(N)=O)c5N)C4)n3)ccc2CC1C(=O)NC1CCCc2ccccc21)C(C)(C)C

> <Shape>
0.240

> <Color>
0.177

> <Negative vol penalty>
0.000

$$$$

  -OEChem-04052304443D

 85 93  0     1  0  0  0  0  0999 V2000
  -27.0609  -30.3340   11.3910 C   0  0  0  0  0  0  0  0  0  0  0  0
  -26.6558  -29.1455   11.9900 C   0  0  0  0  0  0  0  0  0  0  0  0
  -23.0700   -9.8713   19.9824 C   0  0  0  0  0  0  0  0  0  0  0  0
  -23.8286   -9.9341   22.2754 C   0  0  0  0  0  0  0  0  0  0  0  0
  -27.6694  -31.3273   12.1572 C   0  0  0  0  0  0  0  0  0  0  0  0
  -26.8600  -28.9492   13.3553 C   0  0  0  0  0  0  0  0  0  0  0  0
  -23.2209  -25.8955   17.2203 C   0  0  0  0  0  0  0  0  0  0  0  0
  -22.3229   -8.7268   20.2609 C   0  0  0  0  0  0  0  0  0  0  0  0
  -23.0815   -8.7896   22.5539 C   0  0  0  0  0  0  0  0  0  0  0  0
  -23.2704  -24.5979   17.7279 C   0  0  0  0  0  0  0  0  0  0  0  0
  -19.8509   -8.0158   23.1744 C   0  0  0  0  0  0  0  0  0  0  0  0
  -19.0932   -8.0074   24.3455 C   0  0  0  0  0  0  0  0  0  0  0  0
  -24.3770  -25.4209   19.7071 C   0  0  0  0  0  0  0  0  0  0  0  0
  -20.3291   -6.0859   25.1313 C   0  0  0  0  0  0  0  0  0  0  0  0
  -23.8229  -10.4749   20.9896 C   0  0  0  0  0  0  0  0  0  0  0  0
  -24.1715  -12.9953   20.8062 C   0  0  0  0  0  0  0  0  0  0  0  0
  -27.8725  -31.1470   13.5344 C   0  0  0  0  0  0  0  0  0  0  0  0
  -23.7599  -26.9657   17.9486 C   0  0  0  0  0  0  0  0  0  0  0  0
  -27.4730  -29.9405   14.1403 C   0  0  0  0  0  0  0  0  0  0  0  0
  -24.3309  -26.7314   19.2077 C   0  0  0  0  0  0  0  0  0  0  0  0
  -22.3286   -8.1859   21.5467 C   0  0  0  0  0  0  0  0  0  0  0  0
  -23.8511  -24.3600   18.9702 C   0  0  0  0  0  0  0  0  0  0  0  0
  -20.8477   -7.0591   22.9817 C   0  0  0  0  0  0  0  0  0  0  0  0
  -19.3323   -7.0425   25.3239 C   0  0  0  0  0  0  0  0  0  0  0  0
  -21.0868   -6.0942   23.9602 C   0  0  0  0  0  0  0  0  0  0  0  0
  -29.7621  -17.3069   19.6379 C   0  0  0  0  0  0  0  0  0  0  0  0
  -28.8378  -18.3172   19.2441 C   0  0  0  0  0  0  0  0  0  0  0  0
  -24.5953  -11.6569   20.7024 C   0  0  0  0  0  0  0  0  0  0  0  0
  -29.4418  -16.7610   20.8614 C   0  0  0  0  0  0  0  0  0  0  0  0
  -25.2658  -13.7325   20.4248 C   0  0  0  0  0  0  0  0  0  0  0  0
  -27.8459  -18.5048   20.1816 C   0  0  0  0  0  0  0  0  0  0  0  0
  -24.9942  -22.3294   19.1712 C   0  0  0  0  0  0  0  0  0  1  0  0
  -22.9022  -13.5249   21.2112 C   0  0  0  0  0  0  0  0  0  0  0  0
  -25.1476  -21.0731   19.6068 C   0  0  0  0  0  0  0  0  0  0  0  0
  -26.3855  -20.3173   19.2264 C   0  0  0  0  0  0  0  0  0  0  0  0
  -26.0957  -29.0644   17.4552 C   0  0  0  0  0  0  0  0  0  0  0  0
  -30.7728  -14.6774   20.6893 C   0  0  0  0  0  0  0  0  0  0  0  0
  -24.9809  -30.3648   20.2099 C   0  0  0  0  0  0  0  0  0  0  0  0
  -23.2888  -29.9307   23.1417 C   0  0  0  0  0  0  0  0  0  0  0  0
  -28.5773  -32.2300   14.3123 C   0  0  0  0  0  0  0  0  0  0  0  0
  -23.6747  -28.3633   17.3990 C   0  0  0  0  0  0  0  0  0  0  0  0
  -24.9054  -27.8488   20.0382 C   0  0  0  0  0  0  0  0  0  0  0  0
  -28.4180  -32.0958   15.8245 C   0  0  0  0  0  0  0  0  0  0  0  0
  -29.6032  -12.3218   18.2556 C   0  0  0  0  0  0  0  0  0  0  0  0
  -28.6695  -30.6563   16.2621 C   0  0  0  0  0  0  0  0  0  0  0  0
  -28.1718  -12.0260   18.7013 C   0  0  0  0  0  0  0  0  0  0  0  0
  -30.5236  -12.5522   19.4501 C   0  0  0  0  0  0  0  0  0  0  0  0
  -28.6215  -13.3271   20.8297 C   0  0  0  0  0  0  0  0  0  0  0  0
  -27.6548  -29.7003   15.6234 C   0  0  1  0  0  0  0  0  0  0  0  0
  -24.7151  -29.3050   17.9973 C   0  0  1  0  0  0  0  0  0  0  0  0
  -27.6522  -13.1184   19.6527 C   0  0  2  0  0  0  0  0  0  0  0  0
  -31.2313  -16.2249   22.5651 C   0  0  0  0  0  0  0  0  0  0  0  0
  -22.5729  -31.1672   25.2046 C   0  0  0  0  0  0  0  0  0  0  0  0
  -27.8295  -30.2046   21.2915 C   0  0  0  0  0  0  0  0  0  0  0  0
  -26.9002  -30.5375   23.5924 C   0  0  0  0  0  0  0  0  0  0  0  0
  -26.6132  -32.3134   21.8643 C   0  0  0  0  0  0  0  0  0  0  0  0
  -20.4228  -29.4736   22.5617 C   0  0  0  0  0  0  0  0  0  0  0  0
  -30.1469  -15.6967   21.6077 C   0  0  1  0  0  0  0  0  0  0  0  0
  -25.2769  -30.1752   21.6781 C   0  0  1  0  0  0  0  0  0  0  0  0
  -22.1851  -30.7411   23.7972 C   0  0  2  0  0  0  0  0  0  0  0  0
  -26.6459  -30.7861   22.0903 C   0  0  0  0  0  0  0  0  0  0  0  0
  -25.8601  -11.5472   20.2874 N   0  0  0  0  0  0  0  0  0  0  0  0
  -26.2405  -12.8261   20.1270 N   0  0  0  0  0  0  0  0  0  0  0  0
  -24.8038  -29.1967   19.4549 N   0  0  0  0  0  0  0  0  0  0  0  0
  -29.9840  -13.5808   20.3412 N   0  0  0  0  0  0  0  0  0  0  0  0
  -25.4798  -15.0611   20.3183 N   0  0  0  0  0  0  0  0  0  0  0  0
  -21.8877  -12.6272   21.5707 N   0  0  0  0  0  0  0  0  0  0  0  0
  -26.7421  -19.3912   20.1970 N   0  0  0  0  0  0  0  0  0  0  0  0
  -26.3830  -29.7811   16.3093 N   0  0  0  0  0  0  0  0  0  0  0  0
  -24.1349  -30.7269   22.3992 N   0  0  0  0  0  0  0  0  0  0  0  0
  -20.9316  -29.9392   23.8776 N   0  3  0  0  0  0  0  0  0  0  0  0
  -22.6692  -14.7572   21.2373 O   0  0  0  0  0  0  0  0  0  0  0  0
  -26.9616  -20.5438   18.1677 O   0  0  0  0  0  0  0  0  0  0  0  0
  -26.8452  -28.2871   18.0346 O   0  0  0  0  0  0  0  0  0  0  0  0
  -31.9274  -14.8539   20.2919 O   0  0  0  0  0  0  0  0  0  0  0  0
  -24.9024  -31.5072   19.7514 O   0  0  0  0  0  0  0  0  0  0  0  0
  -23.3922  -28.7136   23.2778 O   0  0  0  0  0  0  0  0  0  0  0  0
  -24.2088  -20.4417   20.3972 O   0  0  0  0  0  0  0  0  0  0  0  0
  -21.5996   -7.0693   21.8189 O   0  0  0  0  0  0  0  0  0  0  0  0
  -23.9012  -23.0944   19.4677 O   0  0  0  0  0  0  0  0  0  1  0  0
  -18.6057   -7.0355   26.4492 F   0  0  0  0  0  0  0  0  0  0  0  0
  -22.0437   -5.1734   23.7812 F   0  0  0  0  0  0  0  0  0  0  0  0
  -30.8133  -16.9368   18.9039 F   0  0  0  0  0  0  0  0  0  0  0  0
  -28.9271  -18.9987   18.1001 F   0  0  0  0  0  0  0  0  0  0  0  0
  -28.0316  -17.4658   21.5300 S   0  0  0  0  0  0  0  0  0  0  0  0
  1  2  1  0  0  0  0
  1  5  2  0  0  0  0
  2  6  2  0  0  0  0
  3  8  2  0  0  0  0
  3 15  1  0  0  0  0
  4  9  1  0  0  0  0
  4 15  2  0  0  0  0
  5 17  1  0  0  0  0
  6 19  1  0  0  0  0
  7 10  2  0  0  0  0
  7 18  1  0  0  0  0
  8 21  1  0  0  0  0
  9 21  2  0  0  0  0
 10 22  1  0  0  0  0
 11 12  2  0  0  0  0
 11 23  1  0  0  0  0
 12 24  1  0  0  0  0
 13 20  1  0  0  0  0
 13 22  2  0  0  0  0
 14 24  2  0  0  0  0
 14 25  1  0  0  0  0
 15 28  1  0  0  0  0
 16 28  1  0  0  0  0
 16 30  2  0  0  0  0
 16 33  1  0  0  0  0
 17 19  2  0  0  0  0
 17 40  1  0  0  0  0
 18 20  2  0  0  0  0
 18 41  1  0  0  0  0
 19 49  1  0  0  0  0
 20 42  1  0  0  0  0
 21 79  1  0  0  0  0
 22 80  1  0  0  0  0
 23 25  2  0  0  0  0
 23 79  1  0  0  0  0
 24 81  1  0  0  0  0
 25 82  1  0  0  0  0
 26 27  1  0  0  0  0
 26 29  2  0  0  0  0
 26 83  1  0  0  0  0
 27 31  2  0  0  0  0
 27 84  1  0  0  0  0
 28 62  2  0  0  0  0
 29 58  1  0  0  0  0
 29 85  1  0  0  0  0
 30 63  1  0  0  0  0
 30 66  1  0  0  0  0
 31 68  1  0  0  0  0
 31 85  1  0  0  0  0
 32 34  2  0  0  0  0
 32 80  1  0  0  0  0
 33 67  1  0  0  0  0
 33 72  2  0  0  0  0
 34 35  1  0  0  0  0
 34 78  1  0  0  0  0
 35 68  1  0  0  0  0
 35 73  2  0  0  0  0
 36 50  1  0  0  0  0
 36 69  1  0  0  0  0
 36 74  2  0  0  0  0
 37 58  1  0  0  0  0
 37 65  1  0  0  0  0
 37 75  2  0  0  0  0
 38 59  1  0  0  0  0
 38 64  1  0  0  0  0
 38 76  2  0  0  0  0
 39 60  1  0  0  0  0
 39 70  1  0  0  0  0
 39 77  2  0  0  0  0
 40 43  1  0  0  0  0
 41 50  1  0  0  0  0
 42 64  1  0  0  0  0
 43 45  1  0  0  0  0
 44 46  1  0  0  0  0
 44 47  1  0  0  0  0
 45 49  1  0  0  0  0
 46 51  1  0  0  0  0
 47 65  1  0  0  0  0
 48 51  1  0  0  0  0
 48 65  1  0  0  0  0
 49 69  1  0  0  0  0
 50 64  1  0  0  0  0
 51 63  1  0  0  0  0
 52 58  1  0  0  0  0
 53 60  1  0  0  0  0
 54 61  1  0  0  0  0
 55 61  1  0  0  0  0
 56 61  1  0  0  0  0
 57 71  1  0  0  0  0
 59 61  1  0  0  0  0
 59 70  1  0  0  0  0
 60 71  1  0  0  0  0
 62 63  1  0  0  0  0
M  CHG  1  71   1
M  ISO  4  32 101  37 100  58 100  80 101
M  END
> <Batch ID>
0178

> <Smiles>
CNC(C)C(=O)NC(C(=O)N1Cc2cc([101O:1][101CH2:1]C(=O)C(=O)Nc3sc([100CH:0](C)[100C:0](=O)N4CCCC(n5nc(-c6ccc(Oc7ccc(F)cc7F)cc6)c(C(N)=O)c5N)C4)c(F)c3F)ccc2CC1C(=O)NC1CCCc2ccccc21)C(C)(C)C

> <Shape>
0.299

> <Color>
0.212

> <Negative vol penalty>
0.000

$$$$

  -OEChem-04052304443D

 85 93  0     1  0  0  0  0  0999 V2000
  -16.7431  -28.7536    9.1405 C   0  0  0  0  0  0  0  0  0  0  0  0
  -17.0471  -27.5018    9.6660 C   0  0  0  0  0  0  0  0  0  0  0  0
  -23.1875   -9.8206   19.9290 C   0  0  0  0  0  0  0  0  0  0  0  0
  -23.5586   -9.9955   22.3099 C   0  0  0  0  0  0  0  0  0  0  0  0
  -17.3801  -29.8901    9.6370 C   0  0  0  0  0  0  0  0  0  0  0  0
  -17.9890  -27.3858   10.6876 C   0  0  0  0  0  0  0  0  0  0  0  0
  -17.9145  -23.3889   15.3271 C   0  0  0  0  0  0  0  0  0  0  0  0
  -22.4176   -8.6755   20.1330 C   0  0  0  0  0  0  0  0  0  0  0  0
  -22.7887   -8.8504   22.5140 C   0  0  0  0  0  0  0  0  0  0  0  0
  -18.5645  -22.1719   15.5273 C   0  0  0  0  0  0  0  0  0  0  0  0
  -23.1822   -5.5032   22.2447 C   0  0  0  0  0  0  0  0  0  0  0  0
  -23.6753   -4.5389   23.1237 C   0  0  0  0  0  0  0  0  0  0  0  0
  -20.2923  -23.3061   16.7712 C   0  0  0  0  0  0  0  0  0  0  0  0
  -26.8251  -18.9571   15.0597 C   0  0  0  0  0  0  0  0  0  0  0  0
  -21.7150   -4.8012   24.5112 C   0  0  0  0  0  0  0  0  0  0  0  0
  -23.7580  -10.4806   21.0174 C   0  0  0  0  0  0  0  0  0  0  0  0
  -24.1038  -12.9968   20.7796 C   0  0  0  0  0  0  0  0  0  0  0  0
  -18.3232  -29.7890   10.6718 C   0  0  0  0  0  0  0  0  0  0  0  0
  -18.4551  -24.5772   15.8391 C   0  0  0  0  0  0  0  0  0  0  0  0
  -18.6401  -28.5219   11.1975 C   0  0  0  0  0  0  0  0  0  0  0  0
  -19.6458  -24.5366   16.5784 C   0  0  0  0  0  0  0  0  0  0  0  0
  -28.1280  -18.3975   15.1993 C   0  0  0  0  0  0  0  0  0  0  0  0
  -22.2182   -8.1904   21.4255 C   0  0  0  0  0  0  0  0  0  0  0  0
  -19.7551  -22.1307   16.2469 C   0  0  0  0  0  0  0  0  0  0  0  0
  -21.9555   -6.1165   22.4990 C   0  0  0  0  0  0  0  0  0  0  0  0
  -22.9417   -4.1879   24.2569 C   0  0  0  0  0  0  0  0  0  0  0  0
  -21.2218   -5.7655   23.6323 C   0  0  0  0  0  0  0  0  0  0  0  0
  -24.5538  -11.6632   20.8072 C   0  0  0  0  0  0  0  0  0  0  0  0
  -28.2095  -17.5374   16.2723 C   0  0  0  0  0  0  0  0  0  0  0  0
  -25.2376  -13.7371   20.5494 C   0  0  0  0  0  0  0  0  0  0  0  0
  -25.9603  -18.5031   16.0313 C   0  0  0  0  0  0  0  0  0  0  0  0
  -21.6643  -20.8098   15.9628 C   0  0  0  0  0  0  0  0  0  1  0  0
  -22.7794  -13.5198   20.9472 C   0  0  0  0  0  0  0  0  0  0  0  0
  -29.3724  -16.7541   16.7631 C   0  0  0  0  0  0  0  0  0  0  0  0
  -22.3831  -19.6889   16.0991 C   0  0  0  0  0  0  0  0  0  0  0  0
  -23.7722  -19.6425   15.5367 C   0  0  0  0  0  0  0  0  0  0  0  0
  -19.5233  -27.2868   14.5661 C   0  0  0  0  0  0  0  0  0  0  0  0
  -19.7494  -28.2007   17.6703 C   0  0  0  0  0  0  0  0  0  0  0  0
  -20.0595  -27.2877   20.9440 C   0  0  0  0  0  0  0  0  0  0  0  0
  -30.0102  -14.6424   17.8845 C   0  0  0  0  0  0  0  0  0  0  0  0
  -19.0204  -31.0405   11.1435 C   0  0  0  0  0  0  0  0  0  0  0  0
  -17.7277  -25.8782   15.6374 C   0  0  0  0  0  0  0  0  0  0  0  0
  -20.2571  -25.7813   17.1663 C   0  0  0  0  0  0  0  0  0  0  0  0
  -19.7314  -30.8733   12.4839 C   0  0  0  0  0  0  0  0  0  0  0  0
  -30.1209  -12.3942   20.6103 C   0  0  0  0  0  0  0  0  0  0  0  0
  -20.5441  -29.5825   12.4997 C   0  0  0  0  0  0  0  0  0  0  0  0
  -28.6452  -12.1172   20.9102 C   0  0  0  0  0  0  0  0  0  0  0  0
  -30.3812  -12.5195   19.1098 C   0  0  0  0  0  0  0  0  0  0  0  0
  -28.0504  -13.1993   18.7058 C   0  0  0  0  0  0  0  0  0  0  0  0
  -19.6381  -28.3580   12.3232 C   0  0  1  0  0  0  0  0  0  0  0  0
  -18.6367  -27.0969   15.7642 C   0  0  1  0  0  0  0  0  0  0  0  0
  -27.7245  -13.1344   20.2067 C   0  0  1  0  0  0  0  0  0  0  0  0
  -29.2547  -18.7132   14.2880 C   0  0  0  0  0  0  0  0  0  0  0  0
  -20.2557  -28.2586   23.2497 C   0  0  0  0  0  0  0  0  0  0  0  0
  -22.6604  -28.9264   17.1144 C   0  0  0  0  0  0  0  0  0  0  0  0
  -23.0483  -28.9731   19.5874 C   0  0  0  0  0  0  0  0  0  0  0  0
  -21.4325  -30.5654   18.5497 C   0  0  0  0  0  0  0  0  0  0  0  0
  -17.5631  -25.9721   21.8362 C   0  0  0  0  0  0  0  0  0  0  0  0
  -20.8181  -28.1198   18.7334 C   0  0  1  0  0  0  0  0  0  0  0  0
  -19.3068  -27.7256   22.1875 C   0  0  2  0  0  0  0  0  0  0  0  0
  -21.9796  -29.1228   18.4836 C   0  0  0  0  0  0  0  0  0  0  0  0
  -25.8707  -11.5592   20.6101 N   0  0  0  0  0  0  0  0  0  0  0  0
  -26.2580  -12.8369   20.4563 N   0  0  0  0  0  0  0  0  0  0  0  0
  -19.5116  -27.0298   16.9365 N   0  0  0  0  0  0  0  0  0  0  0  0
  -29.4763  -13.5082   18.5209 N   0  0  0  0  0  0  0  0  0  0  0  0
  -25.4513  -15.0637   20.4194 N   0  0  0  0  0  0  0  0  0  0  0  0
  -21.7297  -12.6197   21.1761 N   0  0  0  0  0  0  0  0  0  0  0  0
  -24.5948  -18.7947   16.2657 N   0  0  0  0  0  0  0  0  0  0  0  0
  -29.0636  -15.5478   17.3923 N   0  0  0  0  0  0  0  0  0  0  0  0
  -18.9574  -28.0500   13.5627 N   0  0  0  0  0  0  0  0  0  0  0  0
  -20.1373  -28.3001   20.0111 N   0  0  0  0  0  0  0  0  0  0  0  0
  -18.5503  -26.5791   22.7656 N   0  3  0  0  0  0  0  0  0  0  0  0
  -22.5315  -14.7475   20.8791 O   0  0  0  0  0  0  0  0  0  0  0  0
  -30.5071  -17.1771   16.5598 O   0  0  0  0  0  0  0  0  0  0  0  0
  -24.0739  -20.3020   14.5478 O   0  0  0  0  0  0  0  0  0  0  0  0
  -20.6389  -26.7797   14.5535 O   0  0  0  0  0  0  0  0  0  0  0  0
  -19.1427  -29.2615   17.5021 O   0  0  0  0  0  0  0  0  0  0  0  0
  -20.5344  -26.1615   20.8148 O   0  0  0  0  0  0  0  0  0  0  0  0
  -31.2243  -14.8503   17.7956 O   0  0  0  0  0  0  0  0  0  0  0  0
  -21.8959  -18.5683   16.7408 O   0  0  0  0  0  0  0  0  0  0  0  0
  -21.4669   -7.0731   21.6251 O   0  0  0  0  0  0  0  0  0  0  0  0
  -20.3920  -20.9442   16.4432 O   0  0  0  0  0  0  0  0  0  1  0  0
  -23.4147   -3.2607   25.1001 F   0  0  0  0  0  0  0  0  0  0  0  0
  -20.0422   -6.3504   23.8813 F   0  0  0  0  0  0  0  0  0  0  0  0
  -26.7194  -17.4071   17.1059 S   0  0  0  0  0  0  0  0  0  0  0  0
  1  2  1  0  0  0  0
  1  5  2  0  0  0  0
  2  6  2  0  0  0  0
  3  8  2  0  0  0  0
  3 16  1  0  0  0  0
  4  9  1  0  0  0  0
  4 16  2  0  0  0  0
  5 18  1  0  0  0  0
  6 20  1  0  0  0  0
  7 10  2  0  0  0  0
  7 19  1  0  0  0  0
  8 23  1  0  0  0  0
  9 23  2  0  0  0  0
 10 24  1  0  0  0  0
 11 12  2  0  0  0  0
 11 25  1  0  0  0  0
 12 26  1  0  0  0  0
 13 21  1  0  0  0  0
 13 24  2  0  0  0  0
 14 22  1  0  0  0  0
 14 31  2  0  0  0  0
 15 26  2  0  0  0  0
 15 27  1  0  0  0  0
 16 28  1  0  0  0  0
 17 28  1  0  0  0  0
 17 30  2  0  0  0  0
 17 33  1  0  0  0  0
 18 20  2  0  0  0  0
 18 41  1  0  0  0  0
 19 21  2  0  0  0  0
 19 42  1  0  0  0  0
 20 50  1  0  0  0  0
 21 43  1  0  0  0  0
 22 29  2  0  0  0  0
 22 53  1  0  0  0  0
 23 81  1  0  0  0  0
 24 82  1  0  0  0  0
 25 27  2  0  0  0  0
 25 81  1  0  0  0  0
 26 83  1  0  0  0  0
 27 84  1  0  0  0  0
 28 62  2  0  0  0  0
 29 34  1  0  0  0  0
 29 85  1  0  0  0  0
 30 63  1  0  0  0  0
 30 66  1  0  0  0  0
 31 68  1  0  0  0  0
 31 85  1  0  0  0  0
 32 35  2  0  0  0  0
 32 82  1  0  0  0  0
 33 67  1  0  0  0  0
 33 73  2  0  0  0  0
 34 69  1  0  0  0  0
 34 74  2  0  0  0  0
 35 36  1  0  0  0  0
 35 80  1  0  0  0  0
 36 68  1  0  0  0  0
 36 75  2  0  0  0  0
 37 51  1  0  0  0  0
 37 70  1  0  0  0  0
 37 76  2  0  0  0  0
 38 59  1  0  0  0  0
 38 64  1  0  0  0  0
 38 77  2  0  0  0  0
 39 60  1  0  0  0  0
 39 71  1  0  0  0  0
 39 78  2  0  0  0  0
 40 65  1  0  0  0  0
 40 69  1  0  0  0  0
 40 79  2  0  0  0  0
 41 44  1  0  0  0  0
 42 51  1  0  0  0  0
 43 64  1  0  0  0  0
 44 46  1  0  0  0  0
 45 47  1  0  0  0  0
 45 48  1  0  0  0  0
 46 50  1  0  0  0  0
 47 52  1  0  0  0  0
 48 65  1  0  0  0  0
 49 52  1  0  0  0  0
 49 65  1  0  0  0  0
 50 70  1  0  0  0  0
 51 64  1  0  0  0  0
 52 63  1  0  0  0  0
 54 60  1  0  0  0  0
 55 61  1  0  0  0  0
 56 61  1  0  0  0  0
 57 61  1  0  0  0  0
 58 72  1  0  0  0  0
 59 61  1  0  0  0  0
 59 71  1  0  0  0  0
 60 72  1  0  0  0  0
 62 63  1  0  0  0  0
M  CHG  1  72   1
M  ISO  4  32 101  40 100  69 100  82 101
M  END
> <Batch ID>
0178

> <Smiles>
CNC(C)C(=O)NC(C(=O)N1Cc2cc([101O:1][101CH2:1]C(=O)C(=O)Nc3cc(C)c(C(=O)[100NH:0][100C:0](=O)N4CCCC(n5nc(-c6ccc(Oc7ccc(F)cc7F)cc6)c(C(N)=O)c5N)C4)s3)ccc2CC1C(=O)NC1CCCc2ccccc21)C(C)(C)C

> <Shape>
0.186

> <Color>
0.175

> <Negative vol penalty>
0.000

$$$$

  -OEChem-04052304443D

 86 94  0     1  0  0  0  0  0999 V2000
  -19.1145  -33.3984   20.8051 C   0  0  0  0  0  0  0  0  0  0  0  0
  -20.4211  -33.0598   20.4678 C   0  0  0  0  0  0  0  0  0  0  0  0
  -24.9412  -11.8518   20.9450 C   0  0  0  0  0  0  0  0  0  0  0  0
  -25.0913  -12.9271   23.1033 C   0  0  0  0  0  0  0  0  0  0  0  0
  -18.5000  -32.7945   21.9013 C   0  0  0  0  0  0  0  0  0  0  0  0
  -21.1143  -32.1179   21.2273 C   0  0  0  0  0  0  0  0  0  0  0  0
  -25.2127  -28.0459   19.1959 C   0  0  0  0  0  0  0  0  0  0  0  0
  -25.1781  -10.6150   21.5447 C   0  0  0  0  0  0  0  0  0  0  0  0
  -25.3282  -11.6902   23.7031 C   0  0  0  0  0  0  0  0  0  0  0  0
  -26.6068  -28.0446   19.1833 C   0  0  0  0  0  0  0  0  0  0  0  0
  -25.3848   -7.1290   22.5548 C   0  0  0  0  0  0  0  0  0  0  0  0
  -24.5829   -6.0558   22.1666 C   0  0  0  0  0  0  0  0  0  0  0  0
  -26.6182  -26.7639   21.2275 C   0  0  0  0  0  0  0  0  0  0  0  0
  -22.6215   -7.2494   22.9185 C   0  0  0  0  0  0  0  0  0  0  0  0
  -28.4935  -21.6002   24.6962 C   0  0  0  0  0  0  0  0  0  0  0  0
  -24.8978  -13.0079   21.7243 C   0  0  0  0  0  0  0  0  0  0  0  0
  -23.4060  -14.9000   20.8865 C   0  0  0  0  0  0  0  0  0  0  0  0
  -19.1827  -31.8377   22.6688 C   0  0  0  0  0  0  0  0  0  0  0  0
  -24.5097  -27.4144   20.2320 C   0  0  0  0  0  0  0  0  0  0  0  0
  -20.5087  -31.5017   22.3356 C   0  0  0  0  0  0  0  0  0  0  0  0
  -25.2151  -26.7563   21.2495 C   0  0  0  0  0  0  0  0  0  0  0  0
  -25.3715  -10.5341   22.9237 C   0  0  0  0  0  0  0  0  0  0  0  0
  -27.3098  -27.4061   20.2007 C   0  0  0  0  0  0  0  0  0  0  0  0
  -24.8051   -8.2624   23.1250 C   0  0  0  0  0  0  0  0  0  0  0  0
  -23.2012   -6.1160   22.3484 C   0  0  0  0  0  0  0  0  0  0  0  0
  -23.4234   -8.3226   23.3068 C   0  0  0  0  0  0  0  0  0  0  0  0
  -28.1421  -20.5656   23.8533 C   0  0  0  0  0  0  0  0  0  0  0  0
  -24.6537  -14.2860   21.1054 C   0  0  0  0  0  0  0  0  0  0  0  0
  -28.5762  -20.6847   22.5488 C   0  0  0  0  0  0  0  0  0  0  0  0
  -23.7120  -16.0903   20.2731 C   0  0  0  0  0  0  0  0  0  0  0  0
  -29.5772  -22.6727   23.0102 C   0  0  0  0  0  0  0  0  0  0  0  0
  -22.0882  -14.4361   21.2088 C   0  0  0  0  0  0  0  0  0  0  0  0
  -30.3709  -23.8388   22.5441 C   0  0  0  0  0  0  0  0  0  0  0  0
  -22.4809  -28.3804   22.4801 C   0  0  0  0  0  0  0  0  0  0  0  0
  -30.6666  -26.0364   20.1223 C   0  0  0  0  0  0  0  0  0  0  0  0
  -22.2366  -25.2013   23.0768 C   0  0  0  0  0  0  0  0  0  0  0  0
  -23.6436  -22.0987   22.8729 C   0  0  0  0  0  0  0  0  0  0  0  0
  -28.5759  -19.5612   20.2940 C   0  0  0  0  0  0  0  0  0  0  0  0
  -18.4933  -31.2468   23.8731 C   0  0  0  0  0  0  0  0  0  0  0  0
  -23.0057  -27.4017   20.2168 C   0  0  0  0  0  0  0  0  0  0  0  0
  -24.5075  -26.0464   22.3737 C   0  0  0  0  0  0  0  0  0  0  0  0
  -19.1669  -29.9829   24.4013 C   0  0  0  0  0  0  0  0  0  0  0  0
  -27.0098  -18.1071   17.4462 C   0  0  0  0  0  0  0  0  0  0  0  0
  -20.6759  -30.1831   24.4987 C   0  0  0  0  0  0  0  0  0  0  0  0
  -26.1097  -17.0221   18.0419 C   0  0  0  0  0  0  0  0  0  0  0  0
  -28.3275  -18.2326   18.2088 C   0  0  0  0  0  0  0  0  0  0  0  0
  -27.2902  -17.3339   20.2547 C   0  0  0  0  0  0  0  0  0  0  0  0
  -21.2849  -30.4663   23.1201 C   0  0  1  0  0  0  0  0  0  0  0  0
  -22.3962  -27.1686   21.5957 C   0  0  1  0  0  0  0  0  0  0  0  0
  -25.9240  -17.2147   19.5598 C   0  0  2  0  0  0  0  0  0  0  0  0
  -32.3849  -24.3192   19.4812 C   0  0  0  0  0  0  0  0  0  0  0  0
  -23.2219  -19.7007   23.4804 C   0  0  0  0  0  0  0  0  0  0  0  0
  -22.9075  -25.8233   25.9876 C   0  0  0  0  0  0  0  0  0  0  0  0
  -23.4034  -23.3919   26.3202 C   0  0  0  0  0  0  0  0  0  0  0  0
  -21.1059  -24.1174   25.6739 C   0  0  0  0  0  0  0  0  0  0  0  0
  -23.7298  -21.2450   20.0404 C   0  0  0  0  0  0  0  0  0  0  0  0
  -29.3225  -26.2816   20.7842 C   0  0  0  0  0  0  0  0  0  1  0  0
  -31.5317  -24.8748   20.6113 C   0  0  2  0  0  0  0  0  0  0  0  0
  -22.9653  -24.2210   23.9640 C   0  0  1  0  0  0  0  0  0  0  0  0
  -23.0835  -20.7675   22.4054 C   0  0  2  0  0  0  0  0  0  0  0  0
  -22.6091  -24.4033   25.4664 C   0  0  0  0  0  0  0  0  0  0  0  0
  -29.2130  -22.6730   24.3067 N   0  0  0  0  0  0  0  0  0  0  0  0
  -25.6762  -15.0250   20.6666 N   0  0  0  0  0  0  0  0  0  0  0  0
  -29.2982  -21.7286   22.0913 N   0  0  0  0  0  0  0  0  0  0  0  0
  -25.0714  -16.1156   20.1658 N   0  0  0  0  0  0  0  0  0  0  0  0
  -23.0365  -26.0674   22.3179 N   0  0  0  0  0  0  0  0  0  0  0  0
  -28.0730  -18.4170   19.6392 N   0  0  0  0  0  0  0  0  0  0  0  0
  -22.9482  -17.1072   19.8205 N   0  0  0  0  0  0  0  0  0  0  0  0
  -21.9536  -13.1908   21.8377 N   0  0  0  0  0  0  0  0  0  0  0  0
  -28.2431  -19.6450   21.6456 N   0  0  0  0  0  0  0  0  0  0  0  0
  -30.7416  -23.8291   21.2052 N   0  0  0  0  0  0  0  0  0  0  0  0
  -21.4063  -29.2409   22.3598 N   0  0  0  0  0  0  0  0  0  0  0  0
  -22.6680  -22.8938   23.4362 N   0  0  0  0  0  0  0  0  0  0  0  0
  -23.8032  -20.3022   21.1861 N   0  3  0  0  0  0  0  0  0  0  0  0
  -21.0596  -15.0985   20.9320 O   0  0  0  0  0  0  0  0  0  0  0  0
  -30.6704  -24.7198   23.3458 O   0  0  0  0  0  0  0  0  0  0  0  0
  -23.4486  -28.5233   23.2181 O   0  0  0  0  0  0  0  0  0  0  0  0
  -31.0824  -26.7910   19.2387 O   0  0  0  0  0  0  0  0  0  0  0  0
  -21.0034  -25.1939   23.0525 O   0  0  0  0  0  0  0  0  0  0  0  0
  -24.8288  -22.4015   22.7538 O   0  0  0  0  0  0  0  0  0  0  0  0
  -29.2289  -20.4183   19.6932 O   0  0  0  0  0  0  0  0  0  0  0  0
  -25.6025   -9.3273   23.5093 O   0  0  0  0  0  0  0  0  0  0  0  0
  -28.6706  -27.4039   20.1911 O   0  0  0  0  0  0  0  0  0  1  0  0
  -22.4311   -5.0860   21.9740 F   0  0  0  0  0  0  0  0  0  0  0  0
  -22.8606   -9.4092   23.8530 F   0  0  0  0  0  0  0  0  0  0  0  0
  -27.4272  -19.5218   24.2863 F   0  0  0  0  0  0  0  0  0  0  0  0
  1  2  1  0  0  0  0
  1  5  2  0  0  0  0
  2  6  2  0  0  0  0
  3  8  2  0  0  0  0
  3 16  1  0  0  0  0
  4  9  1  0  0  0  0
  4 16  2  0  0  0  0
  5 18  1  0  0  0  0
  6 20  1  0  0  0  0
  7 10  2  0  0  0  0
  7 19  1  0  0  0  0
  8 22  1  0  0  0  0
  9 22  2  0  0  0  0
 10 23  1  0  0  0  0
 11 12  2  0  0  0  0
 11 24  1  0  0  0  0
 12 25  1  0  0  0  0
 13 21  1  0  0  0  0
 13 23  2  0  0  0  0
 14 25  2  0  0  0  0
 14 26  1  0  0  0  0
 15 27  1  0  0  0  0
 15 62  2  0  0  0  0
 16 28  1  0  0  0  0
 17 28  1  0  0  0  0
 17 30  2  0  0  0  0
 17 32  1  0  0  0  0
 18 20  2  0  0  0  0
 18 39  1  0  0  0  0
 19 21  2  0  0  0  0
 19 40  1  0  0  0  0
 20 48  1  0  0  0  0
 21 41  1  0  0  0  0
 22 82  1  0  0  0  0
 23 83  1  0  0  0  0
 24 26  2  0  0  0  0
 24 82  1  0  0  0  0
 25 84  1  0  0  0  0
 26 85  1  0  0  0  0
 27 29  2  0  0  0  0
 27 86  1  0  0  0  0
 28 63  2  0  0  0  0
 29 64  1  0  0  0  0
 29 70  1  0  0  0  0
 30 65  1  0  0  0  0
 30 68  1  0  0  0  0
 31 33  1  0  0  0  0
 31 62  1  0  0  0  0
 31 64  2  0  0  0  0
 32 69  1  0  0  0  0
 32 75  2  0  0  0  0
 33 71  1  0  0  0  0
 33 76  2  0  0  0  0
 34 49  1  0  0  0  0
 34 72  1  0  0  0  0
 34 77  2  0  0  0  0
 35 57  1  0  0  0  0
 35 58  1  0  0  0  0
 35 78  2  0  0  0  0
 36 59  1  0  0  0  0
 36 66  1  0  0  0  0
 36 79  2  0  0  0  0
 37 60  1  0  0  0  0
 37 73  1  0  0  0  0
 37 80  2  0  0  0  0
 38 67  1  0  0  0  0
 38 70  1  0  0  0  0
 38 81  2  0  0  0  0
 39 42  1  0  0  0  0
 40 49  1  0  0  0  0
 41 66  1  0  0  0  0
 42 44  1  0  0  0  0
 43 45  1  0  0  0  0
 43 46  1  0  0  0  0
 44 48  1  0  0  0  0
 45 50  1  0  0  0  0
 46 67  1  0  0  0  0
 47 50  1  0  0  0  0
 47 67  1  0  0  0  0
 48 72  1  0  0  0  0
 49 66  1  0  0  0  0
 50 65  1  0  0  0  0
 51 58  1  0  0  0  0
 52 60  1  0  0  0  0
 53 61  1  0  0  0  0
 54 61  1  0  0  0  0
 55 61  1  0  0  0  0
 56 74  1  0  0  0  0
 57 83  1  0  0  0  0
 58 71  1  0  0  0  0
 59 61  1  0  0  0  0
 59 73  1  0  0  0  0
 60 74  1  0  0  0  0
 63 65  1  0  0  0  0
M  CHG  1  74   1
M  ISO  4  38 100  57 101  70 100  83 101
M  END
> <Batch ID>
0178

> <Smiles>
CNC(C)C(=O)NC(C(=O)N1Cc2cc([101O:1][101CH2:1]C(=O)C(C)NC(=O)c3ncc(F)c([100NH:0][100C:0](=O)N4CCCC(n5nc(-c6ccc(Oc7ccc(F)cc7F)cc6)c(C(N)=O)c5N)C4)n3)ccc2CC1C(=O)NC1CCCc2ccccc21)C(C)(C)C

> <Shape>
0.198

> <Color>
0.109

> <Negative vol penalty>
0.000

$$$$

  -OEChem-04052304443D

 82 90  0     1  0  0  0  0  0999 V2000
  -18.8356  -26.7417   19.8521 C   0  0  0  0  0  0  0  0  0  0  0  0
  -19.5037  -25.7419   19.1524 C   0  0  0  0  0  0  0  0  0  0  0  0
  -27.9793  -23.6550   20.8058 C   0  0  0  0  0  0  0  0  0  0  0  0
  -27.8858  -22.9920   18.4844 C   0  0  0  0  0  0  0  0  0  0  0  0
  -18.8678  -26.7562   21.2459 C   0  0  0  0  0  0  0  0  0  0  0  0
  -20.2052  -24.7565   19.8462 C   0  0  0  0  0  0  0  0  0  0  0  0
  -21.9990  -17.8342   19.4217 C   0  0  0  0  0  0  0  0  0  0  0  0
  -27.9271  -24.9958   20.4249 C   0  0  0  0  0  0  0  0  0  0  0  0
  -27.8335  -24.3329   18.1036 C   0  0  0  0  0  0  0  0  0  0  0  0
  -23.1189  -17.0061   19.4828 C   0  0  0  0  0  0  0  0  0  0  0  0
  -25.5775  -27.2104   19.4209 C   0  0  0  0  0  0  0  0  0  0  0  0
  -24.7134  -28.0505   20.1231 C   0  0  0  0  0  0  0  0  0  0  0  0
  -23.0391  -17.0862   21.8925 C   0  0  0  0  0  0  0  0  0  0  0  0
  -26.5871  -29.4253   20.7839 C   0  0  0  0  0  0  0  0  0  0  0  0
  -30.2727  -12.2197   19.3576 C   0  0  0  0  0  0  0  0  0  0  0  0
  -27.9587  -22.6531   19.8355 C   0  0  0  0  0  0  0  0  0  0  0  0
  -26.9250  -20.4216   20.5136 C   0  0  0  0  0  0  0  0  0  0  0  0
  -19.5620  -25.7650   21.9573 C   0  0  0  0  0  0  0  0  0  0  0  0
  -21.3962  -18.3042   20.5973 C   0  0  0  0  0  0  0  0  0  0  0  0
  -20.2477  -24.7585   21.2508 C   0  0  0  0  0  0  0  0  0  0  0  0
  -21.9101  -17.9181   21.8435 C   0  0  0  0  0  0  0  0  0  0  0  0
  -27.8541  -25.3348   19.0739 C   0  0  0  0  0  0  0  0  0  0  0  0
  -23.6409  -16.6343   20.7183 C   0  0  0  0  0  0  0  0  0  0  0  0
  -26.9464  -27.4776   19.4002 C   0  0  0  0  0  0  0  0  0  0  0  0
  -25.2182  -29.1579   20.8046 C   0  0  0  0  0  0  0  0  0  0  0  0
  -27.4511  -28.5851   20.0816 C   0  0  0  0  0  0  0  0  0  0  0  0
  -28.0133  -21.2678   20.2282 C   0  0  0  0  0  0  0  0  0  0  0  0
  -29.3491  -11.2197   18.9990 C   0  0  0  0  0  0  0  0  0  0  0  0
  -29.5741  -13.3951   19.2275 C   0  0  0  0  0  0  0  0  0  0  0  0
  -27.5016  -19.2168   20.8336 C   0  0  0  0  0  0  0  0  0  0  0  0
  -29.5678   -9.8017   18.9633 C   0  0  0  0  0  0  0  0  0  0  0  0
  -25.5187  -20.6998   20.4913 C   0  0  0  0  0  0  0  0  0  0  0  0
  -20.8969  -21.1740   21.8695 C   0  0  0  0  0  0  0  0  0  0  0  0
  -26.4957  -14.4996   19.7765 C   0  0  0  0  0  0  0  0  0  0  0  0
  -19.2157  -19.4782   24.0650 C   0  0  0  0  0  0  0  0  0  0  0  0
  -18.6798  -16.4927   25.6293 C   0  0  0  0  0  0  0  0  0  0  0  0
  -31.2227  -15.1887   19.8688 C   0  0  0  0  0  0  0  0  0  0  0  0
  -19.6076  -25.8493   23.4625 C   0  0  0  0  0  0  0  0  0  0  0  0
  -20.1727  -19.1751   20.5146 C   0  0  0  0  0  0  0  0  0  0  0  0
  -21.2877  -18.3791   23.1353 C   0  0  0  0  0  0  0  0  0  0  0  0
  -20.0617  -24.5545   24.1315 C   0  0  0  0  0  0  0  0  0  0  0  0
  -32.3359  -18.0131   21.7292 C   0  0  0  0  0  0  0  0  0  0  0  0
  -21.2985  -23.9981   23.4333 C   0  0  0  0  0  0  0  0  0  0  0  0
  -31.2210  -19.0420   21.5281 C   0  0  0  0  0  0  0  0  0  0  0  0
  -32.5768  -17.1841   20.4689 C   0  0  0  0  0  0  0  0  0  0  0  0
  -30.2654  -17.5706   19.7090 C   0  0  0  0  0  0  0  0  0  0  0  0
  -20.9990  -23.6581   21.9683 C   0  0  1  0  0  0  0  0  0  0  0  0
  -19.9491  -20.0123   21.7702 C   0  0  1  0  0  0  0  0  0  0  0  0
  -29.9421  -18.3858   20.9719 C   0  0  2  0  0  0  0  0  0  0  0  0
  -17.2647  -15.4258   27.4058 C   0  0  0  0  0  0  0  0  0  0  0  0
  -20.9014  -20.8326   26.2178 C   0  0  0  0  0  0  0  0  0  0  0  0
  -20.1311  -19.0765   27.8274 C   0  0  0  0  0  0  0  0  0  0  0  0
  -18.4734  -20.6161   26.7766 C   0  0  0  0  0  0  0  0  0  0  0  0
  -17.5063  -14.5741   23.7055 C   0  0  0  0  0  0  0  0  0  0  0  0
  -27.1684  -13.9638   18.5258 C   0  0  0  0  0  0  0  0  0  0  0  0
  -25.2962  -15.3970   19.5414 C   0  0  0  0  0  0  0  0  0  1  0  0
  -19.5440  -18.8043   25.3754 C   0  0  1  0  0  0  0  0  0  0  0  0
  -17.4043  -15.7231   25.9210 C   0  0  2  0  0  0  0  0  0  0  0  0
  -19.7756  -19.8251   26.5251 C   0  0  0  0  0  0  0  0  0  0  0  0
  -29.1920  -20.6527   20.3559 N   0  0  0  0  0  0  0  0  0  0  0  0
  -28.1547  -11.7164   18.6662 N   0  0  0  0  0  0  0  0  0  0  0  0
  -28.8477  -19.4072   20.7250 N   0  0  0  0  0  0  0  0  0  0  0  0
  -28.3230  -13.0414   18.8153 N   0  0  0  0  0  0  0  0  0  0  0  0
  -20.0967  -19.2343   23.0019 N   0  0  0  0  0  0  0  0  0  0  0  0
  -31.3222  -16.5898   20.0022 N   0  0  0  0  0  0  0  0  0  0  0  0
  -26.9833  -18.0237   21.1945 N   0  0  0  0  0  0  0  0  0  0  0  0
  -25.0983  -21.9900   20.1405 N   0  0  0  0  0  0  0  0  0  0  0  0
  -29.9721  -14.7369   19.4488 N   0  0  0  0  0  0  0  0  0  0  0  0
  -20.2753  -22.4081   21.8774 N   0  0  0  0  0  0  0  0  0  0  0  0
  -18.4654  -17.8548   25.6276 N   0  0  0  0  0  0  0  0  0  0  0  0
  -17.3987  -14.4300   25.1802 N   0  3  0  0  0  0  0  0  0  0  0  0
  -30.6489   -9.2598   19.2577 O   0  0  0  0  0  0  0  0  0  0  0  0
  -24.6609  -19.8346   20.7900 O   0  0  0  0  0  0  0  0  0  0  0  0
  -22.1027  -20.9661   21.9357 O   0  0  0  0  0  0  0  0  0  0  0  0
  -26.8886  -14.2317   20.9112 O   0  0  0  0  0  0  0  0  0  0  0  0
  -18.2106  -20.1889   23.9856 O   0  0  0  0  0  0  0  0  0  0  0  0
  -19.7593  -15.9410   25.4270 O   0  0  0  0  0  0  0  0  0  0  0  0
  -32.1683  -14.4427   20.1357 O   0  0  0  0  0  0  0  0  0  0  0  0
  -27.8029  -26.6430   18.7019 O   0  0  0  0  0  0  0  0  0  0  0  0
  -24.7343  -15.8266   20.7808 O   0  0  0  0  0  0  0  0  0  1  0  0
  -24.3881  -29.9655   21.4776 F   0  0  0  0  0  0  0  0  0  0  0  0
  -28.7651  -28.8476   20.0644 F   0  0  0  0  0  0  0  0  0  0  0  0
  1  2  1  0  0  0  0
  1  5  2  0  0  0  0
  2  6  2  0  0  0  0
  3  8  2  0  0  0  0
  3 16  1  0  0  0  0
  4  9  1  0  0  0  0
  4 16  2  0  0  0  0
  5 18  1  0  0  0  0
  6 20  1  0  0  0  0
  7 10  2  0  0  0  0
  7 19  1  0  0  0  0
  8 22  1  0  0  0  0
  9 22  2  0  0  0  0
 10 23  1  0  0  0  0
 11 12  2  0  0  0  0
 11 24  1  0  0  0  0
 12 25  1  0  0  0  0
 13 21  1  0  0  0  0
 13 23  2  0  0  0  0
 14 25  2  0  0  0  0
 14 26  1  0  0  0  0
 15 28  1  0  0  0  0
 15 29  2  0  0  0  0
 16 27  1  0  0  0  0
 17 27  1  0  0  0  0
 17 30  2  0  0  0  0
 17 32  1  0  0  0  0
 18 20  2  0  0  0  0
 18 38  1  0  0  0  0
 19 21  2  0  0  0  0
 19 39  1  0  0  0  0
 20 47  1  0  0  0  0
 21 40  1  0  0  0  0
 22 79  1  0  0  0  0
 23 80  1  0  0  0  0
 24 26  2  0  0  0  0
 24 79  1  0  0  0  0
 25 81  1  0  0  0  0
 26 82  1  0  0  0  0
 27 60  2  0  0  0  0
 28 31  1  0  0  0  0
 28 61  2  0  0  0  0
 29 63  1  0  0  0  0
 29 68  1  0  0  0  0
 30 62  1  0  0  0  0
 30 66  1  0  0  0  0
 31 72  2  0  0  0  0
 32 67  1  0  0  0  0
 32 73  2  0  0  0  0
 33 48  1  0  0  0  0
 33 69  1  0  0  0  0
 33 74  2  0  0  0  0
 34 55  1  0  0  0  0
 34 56  1  0  0  0  0
 34 75  2  0  0  0  0
 35 57  1  0  0  0  0
 35 64  1  0  0  0  0
 35 76  2  0  0  0  0
 36 58  1  0  0  0  0
 36 70  1  0  0  0  0
 36 77  2  0  0  0  0
 37 65  1  0  0  0  0
 37 68  1  0  0  0  0
 37 78  2  0  0  0  0
 38 41  1  0  0  0  0
 39 48  1  0  0  0  0
 40 64  1  0  0  0  0
 41 43  1  0  0  0  0
 42 44  1  0  0  0  0
 42 45  1  0  0  0  0
 43 47  1  0  0  0  0
 44 49  1  0  0  0  0
 45 65  1  0  0  0  0
 46 49  1  0  0  0  0
 46 65  1  0  0  0  0
 47 69  1  0  0  0  0
 48 64  1  0  0  0  0
 49 62  1  0  0  0  0
 50 58  1  0  0  0  0
 51 59  1  0  0  0  0
 52 59  1  0  0  0  0
 53 59  1  0  0  0  0
 54 71  1  0  0  0  0
 55 63  1  0  0  0  0
 56 80  1  0  0  0  0
 57 59  1  0  0  0  0
 57 70  1  0  0  0  0
 58 71  1  0  0  0  0
 60 62  1  0  0  0  0
 61 63  1  0  0  0  0
M  CHG  1  71   1
M  ISO  4  37 100  56 101  68 100  80 101
M  END
> <Batch ID>
0178

> <Smiles>
CNC(C)C(=O)NC(C(=O)N1Cc2cc([101O:1][101CH2:1]C(=O)Cn3nc(C=O)cc3[100NH:0][100C:0](=O)N3CCCC(n4nc(-c5ccc(Oc6ccc(F)cc6F)cc5)c(C(N)=O)c4N)C3)ccc2CC1C(=O)NC1CCCc2ccccc21)C(C)(C)C

> <Shape>
0.189

> <Color>
0.069

> <Negative vol penalty>
0.000

$$$$

  -OEChem-04052304443D

 85 93  0     1  0  0  0  0  0999 V2000
  -25.5097  -35.1303   26.9498 C   0  0  0  0  0  0  0  0  0  0  0  0
  -25.9726  -34.4809   25.8098 C   0  0  0  0  0  0  0  0  0  0  0  0
  -24.0079   -9.6117   20.8154 C   0  0  0  0  0  0  0  0  0  0  0  0
  -24.5474  -10.3623   23.0476 C   0  0  0  0  0  0  0  0  0  0  0  0
  -25.5811  -34.4960   28.1894 C   0  0  0  0  0  0  0  0  0  0  0  0
  -26.5081  -33.1973   25.9090 C   0  0  0  0  0  0  0  0  0  0  0  0
  -26.0587  -28.6921   21.7850 C   0  0  0  0  0  0  0  0  0  0  0  0
  -23.5770   -8.3892   21.3307 C   0  0  0  0  0  0  0  0  0  0  0  0
  -24.1164   -9.1399   23.5629 C   0  0  0  0  0  0  0  0  0  0  0  0
  -26.9303  -28.2333   20.7983 C   0  0  0  0  0  0  0  0  0  0  0  0
  -20.8345   -7.1703   22.8883 C   0  0  0  0  0  0  0  0  0  0  0  0
  -19.6308   -6.6532   22.4094 C   0  0  0  0  0  0  0  0  0  0  0  0
  -27.7291  -26.5276   22.3056 C   0  0  0  0  0  0  0  0  0  0  0  0
  -20.7907   -4.6879   21.6160 C   0  0  0  0  0  0  0  0  0  0  0  0
  -24.4932  -10.5982   21.6739 C   0  0  0  0  0  0  0  0  0  0  0  0
  -24.1648  -13.0192   20.9400 C   0  0  0  0  0  0  0  0  0  0  0  0
  -26.1089  -33.2001   28.3023 C   0  0  0  0  0  0  0  0  0  0  0  0
  -26.0235  -28.0780   23.0452 C   0  0  0  0  0  0  0  0  0  0  0  0
  -26.5879  -32.5456   27.1514 C   0  0  0  0  0  0  0  0  0  0  0  0
  -26.8543  -26.9789   23.3057 C   0  0  0  0  0  0  0  0  0  0  0  0
  -23.6312   -8.1533   22.7044 C   0  0  0  0  0  0  0  0  0  0  0  0
  -27.7677  -27.1527   21.0595 C   0  0  0  0  0  0  0  0  0  0  0  0
  -22.0164   -6.4463   22.7309 C   0  0  0  0  0  0  0  0  0  0  0  0
  -19.6089   -5.4120   21.7733 C   0  0  0  0  0  0  0  0  0  0  0  0
  -21.9945   -5.2051   22.0948 C   0  0  0  0  0  0  0  0  0  0  0  0
  -24.9391  -11.8610   21.1422 C   0  0  0  0  0  0  0  0  0  0  0  0
  -29.8735  -20.8222   21.0022 C   0  0  0  0  0  0  0  0  0  0  0  0
  -25.0464  -13.9351   20.4199 C   0  0  0  0  0  0  0  0  0  0  0  0
  -28.6564  -21.0336   21.6155 C   0  0  0  0  0  0  0  0  0  0  0  0
  -29.1815  -18.7428   21.0872 C   0  0  0  0  0  0  0  0  0  0  0  0
  -22.7732  -13.2469   21.1993 C   0  0  0  0  0  0  0  0  0  0  0  0
  -30.8182  -21.9093   20.6761 C   0  0  0  0  0  0  0  0  0  0  0  0
  -26.6129  -29.0280   26.0207 C   0  0  0  0  0  0  0  0  0  0  0  0
  -30.3275  -25.2053   19.2586 C   0  0  0  0  0  0  0  0  0  0  0  0
  -25.5084  -26.0711   26.7687 C   0  0  0  0  0  0  0  0  0  0  0  0
  -24.9575  -22.8498   25.7857 C   0  0  0  0  0  0  0  0  0  0  0  0
  -30.0089  -16.4603   20.4151 C   0  0  0  0  0  0  0  0  0  0  0  0
  -26.2089  -32.5737   29.6707 C   0  0  0  0  0  0  0  0  0  0  0  0
  -25.0585  -28.5680   24.0898 C   0  0  0  0  0  0  0  0  0  0  0  0
  -26.8404  -26.2719   24.6355 C   0  0  0  0  0  0  0  0  0  0  0  0
  -26.4459  -31.0661   29.6345 C   0  0  0  0  0  0  0  0  0  0  0  0
  -29.7704  -13.3501   18.6984 C   0  0  0  0  0  0  0  0  0  0  0  0
  -27.5465  -30.7226   28.6358 C   0  0  0  0  0  0  0  0  0  0  0  0
  -28.4285  -12.7807   19.1645 C   0  0  0  0  0  0  0  0  0  0  0  0
  -30.4904  -14.0961   19.8204 C   0  0  0  0  0  0  0  0  0  0  0  0
  -28.3528  -14.5667   20.9510 C   0  0  0  0  0  0  0  0  0  0  0  0
  -27.1528  -31.1431   27.2147 C   0  0  1  0  0  0  0  0  0  0  0  0
  -25.4733  -28.1929   25.5092 C   0  0  1  0  0  0  0  0  0  0  0  0
  -27.5607  -13.8622   19.8375 C   0  0  2  0  0  0  0  0  0  0  0  0
  -32.0027  -23.6600   18.2032 C   0  0  0  0  0  0  0  0  0  0  0  0
  -24.0769  -20.6563   26.6285 C   0  0  0  0  0  0  0  0  0  0  0  0
  -28.0892  -25.6410   28.3386 C   0  0  0  0  0  0  0  0  0  0  0  0
  -27.5949  -23.1867   28.3439 C   0  0  0  0  0  0  0  0  0  0  0  0
  -26.0289  -24.7750   29.4608 C   0  0  0  0  0  0  0  0  0  0  0  0
  -22.8083  -22.7989   23.7517 C   0  0  0  0  0  0  0  0  0  0  0  0
  -29.4496  -25.5919   20.4342 C   0  0  0  0  0  0  0  0  0  1  0  0
  -31.2479  -24.0193   19.4677 C   0  0  2  0  0  0  0  0  0  0  0  0
  -26.1333  -24.7071   26.9356 C   0  0  1  0  0  0  0  0  0  0  0  0
  -23.7389  -21.9532   25.9098 C   0  0  2  0  0  0  0  0  0  0  0  0
  -26.9634  -24.5918   28.2452 C   0  0  0  0  0  0  0  0  0  0  0  0
  -26.2143  -12.0235   20.7799 N   0  0  0  0  0  0  0  0  0  0  0  0
  -30.1764  -19.5092   20.6989 N   0  0  0  0  0  0  0  0  0  0  0  0
  -26.2482  -13.2946   20.3447 N   0  0  0  0  0  0  0  0  0  0  0  0
  -25.8841  -26.7923   25.6265 N   0  0  0  0  0  0  0  0  0  0  0  0
  -29.6088  -15.1073   20.4078 N   0  0  0  0  0  0  0  0  0  0  0  0
  -24.9031  -15.2177   20.0240 N   0  0  0  0  0  0  0  0  0  0  0  0
  -28.1125  -22.2077   22.0191 N   0  0  0  0  0  0  0  0  0  0  0  0
  -22.0130  -12.1983   21.7348 N   0  0  0  0  0  0  0  0  0  0  0  0
  -29.0752  -17.3347   20.9701 N   0  0  0  0  0  0  0  0  0  0  0  0
  -30.4129  -22.8846   19.8491 N   0  0  0  0  0  0  0  0  0  0  0  0
  -26.2184  -30.1946   26.6475 N   0  0  0  0  0  0  0  0  0  0  0  0
  -25.0430  -23.7432   26.8325 N   0  0  0  0  0  0  0  0  0  0  0  0
  -32.0348  -21.8684   21.2195 N   0  3  0  0  0  0  0  0  0  0  0  0
  -23.2036  -21.6169   24.5603 N   0  3  0  0  0  0  0  0  0  0  0  0
  -22.2165  -14.3425   20.9477 O   0  0  0  0  0  0  0  0  0  0  0  0
  -27.7647  -28.6417   25.8600 O   0  0  0  0  0  0  0  0  0  0  0  0
  -30.2888  -25.8260   18.1960 O   0  0  0  0  0  0  0  0  0  0  0  0
  -24.7107  -26.4787   27.6168 O   0  0  0  0  0  0  0  0  0  0  0  0
  -25.7559  -22.7636   24.8553 O   0  0  0  0  0  0  0  0  0  0  0  0
  -31.0879  -16.8205   19.9376 O   0  0  0  0  0  0  0  0  0  0  0  0
  -23.2105   -6.9607   23.2075 O   0  0  0  0  0  0  0  0  0  0  0  0
  -28.6199  -26.7033   20.0984 O   0  0  0  0  0  0  0  0  0  1  0  0
  -18.4527   -4.9149   21.3150 F   0  0  0  0  0  0  0  0  0  0  0  0
  -23.1264   -4.5043   21.9418 F   0  0  0  0  0  0  0  0  0  0  0  0
  -27.8493  -19.5348   21.8241 S   0  0  0  0  0  0  0  0  0  0  0  0
  1  2  1  0  0  0  0
  1  5  2  0  0  0  0
  2  6  2  0  0  0  0
  3  8  2  0  0  0  0
  3 15  1  0  0  0  0
  4  9  1  0  0  0  0
  4 15  2  0  0  0  0
  5 17  1  0  0  0  0
  6 19  1  0  0  0  0
  7 10  2  0  0  0  0
  7 18  1  0  0  0  0
  8 21  1  0  0  0  0
  9 21  2  0  0  0  0
 10 22  1  0  0  0  0
 11 12  2  0  0  0  0
 11 23  1  0  0  0  0
 12 24  1  0  0  0  0
 13 20  1  0  0  0  0
 13 22  2  0  0  0  0
 14 24  2  0  0  0  0
 14 25  1  0  0  0  0
 15 26  1  0  0  0  0
 16 26  1  0  0  0  0
 16 28  2  0  0  0  0
 16 31  1  0  0  0  0
 17 19  2  0  0  0  0
 17 38  1  0  0  0  0
 18 20  2  0  0  0  0
 18 39  1  0  0  0  0
 19 47  1  0  0  0  0
 20 40  1  0  0  0  0
 21 81  1  0  0  0  0
 22 82  1  0  0  0  0
 23 25  2  0  0  0  0
 23 81  1  0  0  0  0
 24 83  1  0  0  0  0
 25 84  1  0  0  0  0
 26 61  2  0  0  0  0
 27 29  2  0  0  0  0
 27 32  1  0  0  0  0
 27 62  1  0  0  0  0
 28 63  1  0  0  0  0
 28 66  1  0  0  0  0
 29 67  1  0  0  0  0
 29 85  1  0  0  0  0
 30 62  2  0  0  0  0
 30 69  1  0  0  0  0
 30 85  1  0  0  0  0
 31 68  1  0  0  0  0
 31 75  2  0  0  0  0
 32 70  1  0  0  0  0
 32 73  2  0  0  0  0
 33 48  1  0  0  0  0
 33 71  1  0  0  0  0
 33 76  2  0  0  0  0
 34 56  1  0  0  0  0
 34 57  1  0  0  0  0
 34 77  2  0  0  0  0
 35 58  1  0  0  0  0
 35 64  1  0  0  0  0
 35 78  2  0  0  0  0
 36 59  1  0  0  0  0
 36 72  1  0  0  0  0
 36 79  2  0  0  0  0
 37 65  1  0  0  0  0
 37 69  1  0  0  0  0
 37 80  2  0  0  0  0
 38 41  1  0  0  0  0
 39 48  1  0  0  0  0
 40 64  1  0  0  0  0
 41 43  1  0  0  0  0
 42 44  1  0  0  0  0
 42 45  1  0  0  0  0
 43 47  1  0  0  0  0
 44 49  1  0  0  0  0
 45 65  1  0  0  0  0
 46 49  1  0  0  0  0
 46 65  1  0  0  0  0
 47 71  1  0  0  0  0
 48 64  1  0  0  0  0
 49 63  1  0  0  0  0
 50 57  1  0  0  0  0
 51 59  1  0  0  0  0
 52 60  1  0  0  0  0
 53 60  1  0  0  0  0
 54 60  1  0  0  0  0
 55 74  1  0  0  0  0
 56 82  1  0  0  0  0
 57 70  1  0  0  0  0
 58 60  1  0  0  0  0
 58 72  1  0  0  0  0
 59 74  1  0  0  0  0
 61 63  1  0  0  0  0
M  CHG  2  73   1  74   1
M  ISO  4  37 100  56 101  69 100  82 101
M  END
> <Batch ID>
0178

> <Smiles>
CNC(C)C(=O)NC(C(=O)N1Cc2cc([101O:1][101CH2:1]C(=O)C(C)NC(=N)c3nc([100NH:0][100C:0](=O)N4CCCC(n5nc(-c6ccc(Oc7ccc(F)cc7F)cc6)c(C(N)=O)c5N)C4)sc3N)ccc2CC1C(=O)NC1CCCc2ccccc21)C(C)(C)C

> <Shape>
0.251

> <Color>
0.120

> <Negative vol penalty>
0.000

$$$$

  -OEChem-04052304443D

 86 94  0     1  0  0  0  0  0999 V2000
  -25.8851  -32.0856   24.0077 C   0  0  0  0  0  0  0  0  0  0  0  0
  -25.4792  -30.7551   23.9850 C   0  0  0  0  0  0  0  0  0  0  0  0
  -23.0208   -9.8522   20.0039 C   0  0  0  0  0  0  0  0  0  0  0  0
  -23.7907   -9.9052   22.2933 C   0  0  0  0  0  0  0  0  0  0  0  0
  -26.7157  -32.5771   23.0015 C   0  0  0  0  0  0  0  0  0  0  0  0
  -25.9029  -29.9156   22.9554 C   0  0  0  0  0  0  0  0  0  0  0  0
  -27.4365  -25.3938   24.6423 C   0  0  0  0  0  0  0  0  0  0  0  0
  -22.2590   -8.7184   20.2864 C   0  0  0  0  0  0  0  0  0  0  0  0
  -23.0289   -8.7714   22.5758 C   0  0  0  0  0  0  0  0  0  0  0  0
  -26.4473  -24.4705   24.9783 C   0  0  0  0  0  0  0  0  0  0  0  0
  -21.0047   -6.1030   23.9902 C   0  0  0  0  0  0  0  0  0  0  0  0
  -20.2529   -6.1021   25.1651 C   0  0  0  0  0  0  0  0  0  0  0  0
  -26.7600  -23.3714   22.8538 C   0  0  0  0  0  0  0  0  0  0  0  0
  -19.0375   -8.0405   24.3889 C   0  0  0  0  0  0  0  0  0  0  0  0
  -29.1880  -19.1236   24.3862 C   0  0  0  0  0  0  0  0  0  0  0  0
  -23.7867  -10.4455   21.0074 C   0  0  0  0  0  0  0  0  0  0  0  0
  -24.1699  -12.9607   20.8212 C   0  0  0  0  0  0  0  0  0  0  0  0
  -27.1576  -31.7408   21.9643 C   0  0  0  0  0  0  0  0  0  0  0  0
  -28.0884  -25.3192   23.4030 C   0  0  0  0  0  0  0  0  0  0  0  0
  -26.7391  -30.3968   21.9336 C   0  0  0  0  0  0  0  0  0  0  0  0
  -27.7590  -24.2934   22.5056 C   0  0  0  0  0  0  0  0  0  0  0  0
  -28.8322  -18.2814   22.2492 C   0  0  0  0  0  0  0  0  0  0  0  0
  -28.3376  -19.1035   23.3027 C   0  0  0  0  0  0  0  0  0  0  0  0
  -22.2630   -8.1780   21.5723 C   0  0  0  0  0  0  0  0  0  0  0  0
  -26.1069  -23.4609   24.0828 C   0  0  0  0  0  0  0  0  0  0  0  0
  -20.7729   -7.0727   23.0146 C   0  0  0  0  0  0  0  0  0  0  0  0
  -19.2693   -7.0708   25.3645 C   0  0  0  0  0  0  0  0  0  0  0  0
  -19.7893   -8.0415   23.2140 C   0  0  0  0  0  0  0  0  0  0  0  0
  -24.5743  -11.6164   20.7161 C   0  0  0  0  0  0  0  0  0  0  0  0
  -30.0421  -17.7046   22.5677 C   0  0  0  0  0  0  0  0  0  0  0  0
  -25.2727  -13.6823   20.4345 C   0  0  0  0  0  0  0  0  0  0  0  0
  -22.9100  -13.5083   21.2318 C   0  0  0  0  0  0  0  0  0  0  0  0
  -28.3324  -27.2345   20.8780 C   0  0  0  0  0  0  0  0  0  0  0  0
  -30.4361  -24.9837   19.8627 C   0  0  0  0  0  0  0  0  0  0  0  0
  -31.5160  -21.7498   20.0131 C   0  0  0  0  0  0  0  0  0  0  0  0
  -26.6002  -20.6478   24.2700 C   0  0  0  0  0  0  0  0  0  0  0  0
  -30.7734  -14.6140   20.5748 C   0  0  0  0  0  0  0  0  0  0  0  0
  -28.0162  -32.3294   20.8730 C   0  0  0  0  0  0  0  0  0  0  0  0
  -29.1720  -26.3066   23.0666 C   0  0  0  0  0  0  0  0  0  0  0  0
  -28.4432  -24.1574   21.1707 C   0  0  0  0  0  0  0  0  0  0  0  0
  -28.7246  -31.2787   20.0219 C   0  0  0  0  0  0  0  0  0  0  0  0
  -29.5859  -12.1885   18.2546 C   0  0  0  0  0  0  0  0  0  0  0  0
  -27.7519  -30.1760   19.6160 C   0  0  0  0  0  0  0  0  0  0  0  0
  -28.1457  -11.9301   18.7007 C   0  0  0  0  0  0  0  0  0  0  0  0
  -30.5118  -12.4247   19.4458 C   0  0  0  0  0  0  0  0  0  0  0  0
  -28.6286  -13.2227   20.8207 C   0  0  0  0  0  0  0  0  0  0  0  0
  -27.1977  -29.4486   20.8470 C   0  0  1  0  0  0  0  0  0  0  0  0
  -29.4097  -26.4448   21.5660 C   0  0  1  0  0  0  0  0  0  0  0  0
  -27.6465  -13.0343   19.6518 C   0  0  2  0  0  0  0  0  0  0  0  0
  -33.2322  -20.1989   19.0401 C   0  0  0  0  0  0  0  0  0  0  0  0
  -24.0915  -20.3962   24.3182 C   0  0  0  0  0  0  0  0  0  0  0  0
  -28.8142  -24.8106   17.2840 C   0  0  0  0  0  0  0  0  0  0  0  0
  -29.9682  -22.6454   16.7857 C   0  0  0  0  0  0  0  0  0  0  0  0
  -31.2937  -24.7512   16.9629 C   0  0  0  0  0  0  0  0  0  0  0  0
  -32.7303  -21.2434   22.6641 C   0  0  0  0  0  0  0  0  0  0  0  0
  -30.8804  -16.7942   21.7558 C   0  0  0  0  0  0  0  0  0  0  0  0
  -30.3341  -23.7107   19.0578 C   0  0  1  0  0  0  0  0  0  0  0  0
  -32.9047  -21.1580   20.1739 C   0  0  2  0  0  0  0  0  0  0  0  0
  -25.2613  -21.2501   23.8520 C   0  0  1  0  0  0  0  0  0  1  0  0
  -28.1304  -18.0712   20.9581 C   0  0  0  0  0  0  0  0  0  0  0  0
  -30.0881  -23.9829   17.5469 C   0  0  0  0  0  0  0  0  0  0  0  0
  -25.8356  -11.4888   20.2954 N   0  0  0  0  0  0  0  0  0  0  0  0
  -26.2332  -12.7622   20.1327 N   0  0  0  0  0  0  0  0  0  0  0  0
  -29.4915  -25.1509   20.8853 N   0  0  0  0  0  0  0  0  0  0  0  0
  -29.9823  -13.4846   20.3073 N   0  0  0  0  0  0  0  0  0  0  0  0
  -25.5049  -15.0078   20.3265 N   0  0  0  0  0  0  0  0  0  0  0  0
  -21.8846  -12.6251   21.5963 N   0  0  0  0  0  0  0  0  0  0  0  0
  -27.1221  -19.8279   23.2748 N   0  0  0  0  0  0  0  0  0  0  0  0
  -28.1761  -28.5175   21.3668 N   0  0  0  0  0  0  0  0  0  0  0  0
  -31.5481  -22.9519   19.3383 N   0  0  0  0  0  0  0  0  0  0  0  0
  -30.1935  -15.5740   21.3951 N   0  0  0  0  0  0  0  0  0  0  0  0
  -33.0051  -20.4151   21.4619 N   0  3  0  0  0  0  0  0  0  0  0  0
  -22.6945  -14.7437   21.2584 O   0  0  0  0  0  0  0  0  0  0  0  0
  -27.6916  -26.7186   19.9698 O   0  0  0  0  0  0  0  0  0  0  0  0
  -31.3257  -25.7964   19.5987 O   0  0  0  0  0  0  0  0  0  0  0  0
  -30.5037  -21.1989   20.4398 O   0  0  0  0  0  0  0  0  0  0  0  0
  -27.1044  -20.9107   25.3580 O   0  0  0  0  0  0  0  0  0  0  0  0
  -31.9101  -14.7588   20.1124 O   0  0  0  0  0  0  0  0  0  0  0  0
  -21.5195   -7.0718   21.8483 O   0  0  0  0  0  0  0  0  0  0  0  0
  -25.1412  -22.5589   24.4079 O   0  0  0  0  0  0  0  0  0  1  0  0
  -18.5465   -7.0689   26.4921 F   0  0  0  0  0  0  0  0  0  0  0  0
  -19.5613   -8.9749   22.2799 F   0  0  0  0  0  0  0  0  0  0  0  0
  -26.9431  -18.7447   20.8565 F   0  0  0  0  0  0  0  0  0  0  0  0
  -28.8519  -18.4677   19.8648 F   0  0  0  0  0  0  0  0  0  0  0  0
  -27.8205  -16.7592   20.7285 F   0  0  0  0  0  0  0  0  0  0  0  0
  -30.5765  -18.1543   24.1312 S   0  0  0  0  0  0  0  0  0  0  0  0
  1  2  1  0  0  0  0
  1  5  2  0  0  0  0
  2  6  2  0  0  0  0
  3  8  2  0  0  0  0
  3 16  1  0  0  0  0
  4  9  1  0  0  0  0
  4 16  2  0  0  0  0
  5 18  1  0  0  0  0
  6 20  1  0  0  0  0
  7 10  2  0  0  0  0
  7 19  1  0  0  0  0
  8 24  1  0  0  0  0
  9 24  2  0  0  0  0
 10 25  1  0  0  0  0
 11 12  2  0  0  0  0
 11 26  1  0  0  0  0
 12 27  1  0  0  0  0
 13 21  1  0  0  0  0
 13 25  2  0  0  0  0
 14 27  2  0  0  0  0
 14 28  1  0  0  0  0
 15 23  2  0  0  0  0
 15 86  1  0  0  0  0
 16 29  1  0  0  0  0
 17 29  1  0  0  0  0
 17 31  2  0  0  0  0
 17 32  1  0  0  0  0
 18 20  2  0  0  0  0
 18 38  1  0  0  0  0
 19 21  2  0  0  0  0
 19 39  1  0  0  0  0
 20 47  1  0  0  0  0
 21 40  1  0  0  0  0
 22 23  1  0  0  0  0
 22 30  2  0  0  0  0
 22 60  1  0  0  0  0
 23 68  1  0  0  0  0
 24 79  1  0  0  0  0
 25 80  1  0  0  0  0
 26 28  2  0  0  0  0
 26 79  1  0  0  0  0
 27 81  1  0  0  0  0
 28 82  1  0  0  0  0
 29 62  2  0  0  0  0
 30 56  1  0  0  0  0
 30 86  1  0  0  0  0
 31 63  1  0  0  0  0
 31 66  1  0  0  0  0
 32 67  1  0  0  0  0
 32 73  2  0  0  0  0
 33 48  1  0  0  0  0
 33 69  1  0  0  0  0
 33 74  2  0  0  0  0
 34 57  1  0  0  0  0
 34 64  1  0  0  0  0
 34 75  2  0  0  0  0
 35 58  1  0  0  0  0
 35 70  1  0  0  0  0
 35 76  2  0  0  0  0
 36 59  1  0  0  0  0
 36 68  1  0  0  0  0
 36 77  2  0  0  0  0
 37 65  1  0  0  0  0
 37 71  1  0  0  0  0
 37 78  2  0  0  0  0
 38 41  1  0  0  0  0
 39 48  1  0  0  0  0
 40 64  1  0  0  0  0
 41 43  1  0  0  0  0
 42 44  1  0  0  0  0
 42 45  1  0  0  0  0
 43 47  1  0  0  0  0
 44 49  1  0  0  0  0
 45 65  1  0  0  0  0
 46 49  1  0  0  0  0
 46 65  1  0  0  0  0
 47 69  1  0  0  0  0
 48 64  1  0  0  0  0
 49 63  1  0  0  0  0
 50 58  1  0  0  0  0
 51 59  1  0  0  0  0
 52 61  1  0  0  0  0
 53 61  1  0  0  0  0
 54 61  1  0  0  0  0
 55 72  1  0  0  0  0
 56 71  1  0  0  0  0
 57 61  1  0  0  0  0
 57 70  1  0  0  0  0
 58 72  1  0  0  0  0
 59 80  1  0  0  0  0
 60 83  1  0  0  0  0
 60 84  1  0  0  0  0
 60 85  1  0  0  0  0
 62 63  1  0  0  0  0
M  CHG  1  72   1
M  ISO  4  37 100  59 101  71 100  80 101
M  END
> <Batch ID>
0178

> <Smiles>
CNC(C)C(=O)NC(C(=O)N1Cc2cc([101O:1][101CH:1](C)C(=O)Nc3csc(C[100NH:0][100C:0](=O)N4CCCC(n5nc(-c6ccc(Oc7ccc(F)cc7F)cc6)c(C(N)=O)c5N)C4)c3C(F)(F)F)ccc2CC1C(=O)NC1CCCc2ccccc21)C(C)(C)C

> <Shape>
0.306

> <Color>
0.222

> <Negative vol penalty>
0.000

$$$$

  -OEChem-04052304443D

 86 94  0     1  0  0  0  0  0999 V2000
  -17.1219  -29.8300   24.3378 C   0  0  0  0  0  0  0  0  0  0  0  0
  -18.3498  -30.2792   24.8132 C   0  0  0  0  0  0  0  0  0  0  0  0
  -24.2870  -20.7655   27.6519 C   0  0  0  0  0  0  0  0  0  0  0  0
  -26.4094  -21.9160   27.5583 C   0  0  0  0  0  0  0  0  0  0  0  0
  -17.0745  -28.8166   23.3814 C   0  0  0  0  0  0  0  0  0  0  0  0
  -19.5309  -29.7145   24.3332 C   0  0  0  0  0  0  0  0  0  0  0  0
  -24.8764  -32.5657   23.4376 C   0  0  0  0  0  0  0  0  0  0  0  0
  -24.6248  -20.2440   28.9007 C   0  0  0  0  0  0  0  0  0  0  0  0
  -26.7472  -21.3946   28.8072 C   0  0  0  0  0  0  0  0  0  0  0  0
  -26.0374  -32.6450   24.2055 C   0  0  0  0  0  0  0  0  0  0  0  0
  -27.8808  -18.4663   30.0605 C   0  0  0  0  0  0  0  0  0  0  0  0
  -29.1641  -17.9432   30.2189 C   0  0  0  0  0  0  0  0  0  0  0  0
  -26.9967  -30.8353   22.9311 C   0  0  0  0  0  0  0  0  0  0  0  0
  -30.0128  -26.2484   21.7721 C   0  0  0  0  0  0  0  0  0  0  0  0
  -29.6043  -19.5524   31.9665 C   0  0  0  0  0  0  0  0  0  0  0  0
  -25.1794  -21.6014   26.9806 C   0  0  0  0  0  0  0  0  0  0  0  0
  -23.7326  -22.9640   25.3813 C   0  0  0  0  0  0  0  0  0  0  0  0
  -18.2559  -28.2458   22.8823 C   0  0  0  0  0  0  0  0  0  0  0  0
  -24.7624  -31.6118   22.4161 C   0  0  0  0  0  0  0  0  0  0  0  0
  -19.4992  -28.6916   23.3702 C   0  0  0  0  0  0  0  0  0  0  0  0
  -25.8342  -30.7477   22.1500 C   0  0  0  0  0  0  0  0  0  0  0  0
  -30.8659  -27.3027   21.4657 C   0  0  0  0  0  0  0  0  0  0  0  0
  -25.8548  -20.5586   29.4784 C   0  0  0  0  0  0  0  0  0  0  0  0
  -27.0966  -31.7778   23.9542 C   0  0  0  0  0  0  0  0  0  0  0  0
  -27.4592  -19.5325   30.8550 C   0  0  0  0  0  0  0  0  0  0  0  0
  -30.0259  -18.4863   31.1719 C   0  0  0  0  0  0  0  0  0  0  0  0
  -28.3209  -20.0755   31.8080 C   0  0  0  0  0  0  0  0  0  0  0  0
  -31.4291  -27.3880   20.1973 C   0  0  0  0  0  0  0  0  0  0  0  0
  -24.8314  -22.1399   25.6903 C   0  0  0  0  0  0  0  0  0  0  0  0
  -31.1100  -26.4013   19.2784 C   0  0  0  0  0  0  0  0  0  0  0  0
  -29.7569  -25.3129   20.7826 C   0  0  0  0  0  0  0  0  0  0  0  0
  -23.8481  -23.1989   24.0330 C   0  0  0  0  0  0  0  0  0  0  0  0
  -22.7000  -23.4718   26.2366 C   0  0  0  0  0  0  0  0  0  0  0  0
  -22.8394  -29.1435   21.8564 C   0  0  0  0  0  0  0  0  0  0  0  0
  -24.4213  -29.0529   19.0259 C   0  0  0  0  0  0  0  0  0  0  0  0
  -30.6868  -28.3456   23.7510 C   0  0  0  0  0  0  0  0  0  0  0  0
  -27.2358  -29.8183   17.2541 C   0  0  0  0  0  0  0  0  0  0  0  0
  -28.4910  -23.1957   20.2715 C   0  0  0  0  0  0  0  0  0  0  0  0
  -18.1529  -27.1202   21.8838 C   0  0  0  0  0  0  0  0  0  0  0  0
  -23.5138  -31.5569   21.5793 C   0  0  0  0  0  0  0  0  0  0  0  0
  -25.7698  -29.7193   21.0515 C   0  0  0  0  0  0  0  0  0  0  0  0
  -19.4613  -26.8341   21.1514 C   0  0  0  0  0  0  0  0  0  0  0  0
  -25.5434  -21.2145   20.0177 C   0  0  0  0  0  0  0  0  0  0  0  0
  -20.6239  -26.7782   22.1374 C   0  0  0  0  0  0  0  0  0  0  0  0
  -24.9232  -21.3070   21.4137 C   0  0  0  0  0  0  0  0  0  0  0  0
  -27.0692  -21.1669   20.0771 C   0  0  0  0  0  0  0  0  0  0  0  0
  -27.0745  -22.3430   22.2418 C   0  0  0  0  0  0  0  0  0  0  0  0
  -20.8030  -28.1211   22.8557 C   0  0  1  0  0  0  0  0  0  0  0  0
  -23.3073  -30.2055   20.9021 C   0  0  1  0  0  0  0  0  0  0  0  0
  -25.5415  -22.4590   22.2300 C   0  0  2  0  0  0  0  0  0  0  0  0
  -31.6946  -26.4580   17.9066 C   0  0  0  0  0  0  0  0  0  0  0  0
  -28.7418  -30.0458   15.2597 C   0  0  0  0  0  0  0  0  0  0  0  0
  -29.0077  -30.3239   26.3808 C   0  0  0  0  0  0  0  0  0  0  0  0
  -25.0180  -26.1154   19.5963 C   0  0  0  0  0  0  0  0  0  0  0  0
  -26.7810  -26.2009   17.8206 C   0  0  0  0  0  0  0  0  0  0  0  0
  -24.3934  -26.6120   17.2261 C   0  0  0  0  0  0  0  0  0  0  0  0
  -26.1701  -32.5032   16.6102 C   0  0  0  0  0  0  0  0  0  0  0  0
  -31.2486  -29.5684   24.4660 C   0  0  0  0  0  0  0  0  0  0  0  0
  -30.3786  -30.8203   24.3244 C   0  0  0  0  0  0  0  0  0  0  0  0
  -25.6690  -28.3701   18.5199 C   0  0  1  0  0  0  0  0  0  0  0  0
  -27.4250  -30.4658   15.8942 C   0  0  2  0  0  0  0  0  0  0  0  0
  -28.9648  -30.6437   24.8920 C   0  0  2  0  0  0  0  0  0  1  0  0
  -25.4661  -26.8426   18.3127 C   0  0  0  0  0  0  0  0  0  0  0  0
  -25.5890  -21.8694   24.6240 N   0  0  0  0  0  0  0  0  0  0  0  0
  -30.2854  -25.3622   19.5393 N   0  0  0  0  0  0  0  0  0  0  0  0
  -24.9652  -22.5272   23.6319 N   0  0  0  0  0  0  0  0  0  0  0  0
  -24.5253  -29.7006   20.2651 N   0  0  0  0  0  0  0  0  0  0  0  0
  -27.5841  -22.2907   20.8625 N   0  0  0  0  0  0  0  0  0  0  0  0
  -23.1019  -23.9124   23.1632 N   0  0  0  0  0  0  0  0  0  0  0  0
  -22.9023  -24.7068   26.8675 N   0  0  0  0  0  0  0  0  0  0  0  0
  -31.1584  -28.2840   22.4427 N   0  0  0  0  0  0  0  0  0  0  0  0
  -28.8862  -24.2422   21.1041 N   0  0  0  0  0  0  0  0  0  0  0  0
  -21.4659  -29.0728   21.9902 N   0  0  0  0  0  0  0  0  0  0  0  0
  -26.0673  -29.0889   17.3144 N   0  0  0  0  0  0  0  0  0  0  0  0
  -27.4172  -31.9506   16.0217 N   0  3  0  0  0  0  0  0  0  0  0  0
  -21.6366  -22.8411   26.4484 O   0  0  0  0  0  0  0  0  0  0  0  0
  -23.6635  -28.4392   22.4279 O   0  0  0  0  0  0  0  0  0  0  0  0
  -23.3943  -29.0191   18.3434 O   0  0  0  0  0  0  0  0  0  0  0  0
  -29.9437  -27.5470   24.3119 O   0  0  0  0  0  0  0  0  0  0  0  0
  -28.0457  -29.9438   18.1701 O   0  0  0  0  0  0  0  0  0  0  0  0
  -28.8666  -23.0681   19.1034 O   0  0  0  0  0  0  0  0  0  0  0  0
  -26.1846  -20.0501   30.6971 O   0  0  0  0  0  0  0  0  0  0  0  0
  -28.2307  -31.8526   24.7026 O   0  0  0  0  0  0  0  0  0  1  0  0
  -31.2577  -17.9829   31.3249 F   0  0  0  0  0  0  0  0  0  0  0  0
  -27.9211  -21.0990   32.5751 F   0  0  0  0  0  0  0  0  0  0  0  0
  -32.2546  -28.3925   19.8737 F   0  0  0  0  0  0  0  0  0  0  0  0
  1  2  1  0  0  0  0
  1  5  2  0  0  0  0
  2  6  2  0  0  0  0
  3  8  2  0  0  0  0
  3 16  1  0  0  0  0
  4  9  1  0  0  0  0
  4 16  2  0  0  0  0
  5 18  1  0  0  0  0
  6 20  1  0  0  0  0
  7 10  2  0  0  0  0
  7 19  1  0  0  0  0
  8 23  1  0  0  0  0
  9 23  2  0  0  0  0
 10 24  1  0  0  0  0
 11 12  2  0  0  0  0
 11 25  1  0  0  0  0
 12 26  1  0  0  0  0
 13 21  1  0  0  0  0
 13 24  2  0  0  0  0
 14 22  1  0  0  0  0
 14 31  2  0  0  0  0
 15 26  2  0  0  0  0
 15 27  1  0  0  0  0
 16 29  1  0  0  0  0
 17 29  1  0  0  0  0
 17 32  2  0  0  0  0
 17 33  1  0  0  0  0
 18 20  2  0  0  0  0
 18 39  1  0  0  0  0
 19 21  2  0  0  0  0
 19 40  1  0  0  0  0
 20 48  1  0  0  0  0
 21 41  1  0  0  0  0
 22 28  2  0  0  0  0
 22 71  1  0  0  0  0
 23 82  1  0  0  0  0
 24 83  1  0  0  0  0
 25 27  2  0  0  0  0
 25 82  1  0  0  0  0
 26 84  1  0  0  0  0
 27 85  1  0  0  0  0
 28 30  1  0  0  0  0
 28 86  1  0  0  0  0
 29 64  2  0  0  0  0
 30 51  1  0  0  0  0
 30 65  2  0  0  0  0
 31 65  1  0  0  0  0
 31 72  1  0  0  0  0
 32 66  1  0  0  0  0
 32 69  1  0  0  0  0
 33 70  1  0  0  0  0
 33 76  2  0  0  0  0
 34 49  1  0  0  0  0
 34 73  1  0  0  0  0
 34 77  2  0  0  0  0
 35 60  1  0  0  0  0
 35 67  1  0  0  0  0
 35 78  2  0  0  0  0
 36 58  1  0  0  0  0
 36 71  1  0  0  0  0
 36 79  2  0  0  0  0
 37 61  1  0  0  0  0
 37 74  1  0  0  0  0
 37 80  2  0  0  0  0
 38 68  1  0  0  0  0
 38 72  1  0  0  0  0
 38 81  2  0  0  0  0
 39 42  1  0  0  0  0
 40 49  1  0  0  0  0
 41 67  1  0  0  0  0
 42 44  1  0  0  0  0
 43 45  1  0  0  0  0
 43 46  1  0  0  0  0
 44 48  1  0  0  0  0
 45 50  1  0  0  0  0
 46 68  1  0  0  0  0
 47 50  1  0  0  0  0
 47 68  1  0  0  0  0
 48 73  1  0  0  0  0
 49 67  1  0  0  0  0
 50 66  1  0  0  0  0
 52 61  1  0  0  0  0
 53 62  1  0  0  0  0
 54 63  1  0  0  0  0
 55 63  1  0  0  0  0
 56 63  1  0  0  0  0
 57 75  1  0  0  0  0
 58 59  1  0  0  0  0
 59 62  1  0  0  0  0
 60 63  1  0  0  0  0
 60 74  1  0  0  0  0
 61 75  1  0  0  0  0
 62 83  1  0  0  0  0
 64 66  1  0  0  0  0
M  CHG  1  75   1
M  ISO  4  38 100  62 101  72 100  83 101
M  END
> <Batch ID>
0178

> <Smiles>
CNC(C)C(=O)NC(C(=O)N1Cc2cc([101O:1][101CH:1](C)CCC(=O)Nc3cc([100NH:0][100C:0](=O)N4CCCC(n5nc(-c6ccc(Oc7ccc(F)cc7F)cc6)c(C(N)=O)c5N)C4)nc(C)c3F)ccc2CC1C(=O)NC1CCCc2ccccc21)C(C)(C)C

> <Shape>
0.212

> <Color>
0.100

> <Negative vol penalty>
0.000

$$$$

  -OEChem-04052304443D

 87 95  0     1  0  0  0  0  0999 V2000
  -17.3727  -32.4231   23.0541 C   0  0  0  0  0  0  0  0  0  0  0  0
  -18.6844  -32.8865   23.0499 C   0  0  0  0  0  0  0  0  0  0  0  0
  -24.0985  -12.7958   20.7168 C   0  0  0  0  0  0  0  0  0  0  0  0
  -26.5047  -12.5875   20.7788 C   0  0  0  0  0  0  0  0  0  0  0  0
  -17.1148  -31.0654   23.2388 C   0  0  0  0  0  0  0  0  0  0  0  0
  -19.7390  -31.9925   23.2315 C   0  0  0  0  0  0  0  0  0  0  0  0
  -26.5351  -30.8991   21.2480 C   0  0  0  0  0  0  0  0  0  0  0  0
  -23.9813  -11.4103   20.6064 C   0  0  0  0  0  0  0  0  0  0  0  0
  -26.3876  -11.2019   20.6684 C   0  0  0  0  0  0  0  0  0  0  0  0
  -27.7921  -30.6549   21.7995 C   0  0  0  0  0  0  0  0  0  0  0  0
  -23.0369   -7.9005   20.6715 C   0  0  0  0  0  0  0  0  0  0  0  0
  -22.0835   -7.2649   21.4668 C   0  0  0  0  0  0  0  0  0  0  0  0
  -27.2306  -28.3202   22.0303 C   0  0  0  0  0  0  0  0  0  0  0  0
  -23.1892   -8.0887   23.4507 C   0  0  0  0  0  0  0  0  0  0  0  0
  -29.6522  -21.9008   21.4737 C   0  0  0  0  0  0  0  0  0  0  0  0
  -25.3602  -13.3844   20.8029 C   0  0  0  0  0  0  0  0  0  0  0  0
  -25.5173  -15.5745   22.1016 C   0  0  0  0  0  0  0  0  0  0  0  0
  -18.1672  -30.1529   23.4130 C   0  0  0  0  0  0  0  0  0  0  0  0
  -25.6109  -29.8559   21.0933 C   0  0  0  0  0  0  0  0  0  0  0  0
  -19.4949  -30.6215   23.4199 C   0  0  0  0  0  0  0  0  0  0  0  0
  -25.9635  -28.5533   21.4742 C   0  0  0  0  0  0  0  0  0  0  0  0
  -25.1258  -10.6133   20.5822 C   0  0  0  0  0  0  0  0  0  0  0  0
  -28.1389  -29.3658   22.1934 C   0  0  0  0  0  0  0  0  0  0  0  0
  -24.0665   -8.6302   21.2657 C   0  0  0  0  0  0  0  0  0  0  0  0
  -22.1596   -7.3590   22.8564 C   0  0  0  0  0  0  0  0  0  0  0  0
  -24.1426   -8.7243   22.6553 C   0  0  0  0  0  0  0  0  0  0  0  0
  -25.4819  -14.8157   20.9164 C   0  0  0  0  0  0  0  0  0  0  0  0
  -30.4193  -24.0487   21.3073 C   0  0  0  0  0  0  0  0  0  0  0  0
  -29.1674  -21.9742   20.1864 C   0  0  0  0  0  0  0  0  0  0  0  0
  -29.9351  -24.1219   20.0198 C   0  0  0  0  0  0  0  0  0  0  0  0
  -25.6416  -16.8737   21.6738 C   0  0  0  0  0  0  0  0  0  0  0  0
  -25.4443  -15.1435   23.4671 C   0  0  0  0  0  0  0  0  0  0  0  0
  -31.1214  -25.1781   21.9695 C   0  0  0  0  0  0  0  0  0  0  0  0
  -22.7126  -29.2379   22.2430 C   0  0  0  0  0  0  0  0  0  0  0  0
  -31.0580  -27.6800   23.6849 C   0  0  0  0  0  0  0  0  0  0  0  0
  -22.8556  -26.7348   20.1848 C   0  0  0  0  0  0  0  0  0  0  0  0
  -24.7852  -24.5634   18.3936 C   0  0  0  0  0  0  0  0  0  0  0  0
  -27.9551  -20.7146   18.3725 C   0  0  0  0  0  0  0  0  0  0  0  0
  -17.8369  -28.7016   23.6563 C   0  0  0  0  0  0  0  0  0  0  0  0
  -24.2689  -30.1309   20.4720 C   0  0  0  0  0  0  0  0  0  0  0  0
  -25.0148  -27.3950   21.3105 C   0  0  0  0  0  0  0  0  0  0  0  0
  -19.0281  -27.7659   23.4675 C   0  0  0  0  0  0  0  0  0  0  0  0
  -25.2137  -18.8723   17.0430 C   0  0  0  0  0  0  0  0  0  0  0  0
  -20.2605  -28.3213   24.1742 C   0  0  0  0  0  0  0  0  0  0  0  0
  -25.0420  -17.7151   18.0297 C   0  0  0  0  0  0  0  0  0  0  0  0
  -26.6848  -19.2292   16.8379 C   0  0  0  0  0  0  0  0  0  0  0  0
  -27.2664  -18.3331   19.0578 C   0  0  0  0  0  0  0  0  0  0  0  0
  -20.6669  -29.6792   23.5889 C   0  0  1  0  0  0  0  0  0  0  0  0
  -23.2170  -29.0875   20.8357 C   0  0  1  0  0  0  0  0  0  0  0  0
  -25.7981  -17.9803   19.3464 C   0  0  2  0  0  0  0  0  0  0  0  0
  -24.6172  -22.6043   16.8344 C   0  0  0  0  0  0  0  0  0  0  0  0
  -31.2215  -26.1139   25.6056 C   0  0  0  0  0  0  0  0  0  0  0  0
  -33.1049  -26.2628   23.9445 C   0  0  0  0  0  0  0  0  0  0  0  0
  -22.1825  -24.9190   22.5427 C   0  0  0  0  0  0  0  0  0  0  0  0
  -22.9541  -22.9707   21.1727 C   0  0  0  0  0  0  0  0  0  0  0  0
  -21.0115  -24.3376   20.4108 C   0  0  0  0  0  0  0  0  0  0  0  0
  -26.1506  -26.0311   16.2163 C   0  0  0  0  0  0  0  0  0  0  0  0
  -29.6538  -27.7804   23.1142 C   0  0  0  0  0  0  0  0  0  1  0  0
  -23.3418  -25.3081   20.2688 C   0  0  1  0  0  0  0  0  0  0  0  0
  -24.7194  -24.1177   16.9439 C   0  0  2  0  0  0  0  0  0  0  0  0
  -31.5868  -26.3049   24.1305 C   0  0  0  0  0  0  0  0  0  0  0  0
  -22.3899  -24.4058   21.1037 C   0  0  0  0  0  0  0  0  0  0  0  0
  -30.2868  -22.9368   22.0573 N   0  0  0  0  0  0  0  0  0  0  0  0
  -25.5760  -15.5700   19.8181 N   0  0  0  0  0  0  0  0  0  0  0  0
  -29.3002  -23.0861   19.4363 N   0  0  0  0  0  0  0  0  0  0  0  0
  -25.6717  -16.8164   20.3115 N   0  0  0  0  0  0  0  0  0  0  0  0
  -23.7123  -27.7158   20.7039 N   0  0  0  0  0  0  0  0  0  0  0  0
  -27.3352  -19.4710   18.1277 N   0  0  0  0  0  0  0  0  0  0  0  0
  -30.1056  -25.3161   19.2836 N   0  0  0  0  0  0  0  0  0  0  0  0
  -25.7270  -18.0482   22.3339 N   0  0  0  0  0  0  0  0  0  0  0  0
  -25.3181  -13.7725   23.7291 N   0  0  0  0  0  0  0  0  0  0  0  0
  -28.5115  -20.8409   19.6450 N   0  0  0  0  0  0  0  0  0  0  0  0
  -30.9836  -25.2495   23.3457 N   0  0  0  0  0  0  0  0  0  0  0  0
  -21.3587  -29.5005   22.3304 N   0  0  0  0  0  0  0  0  0  0  0  0
  -23.5351  -24.8611   18.8935 N   0  0  0  0  0  0  0  0  0  0  0  0
  -25.9385  -24.5607   16.2100 N   0  3  0  0  0  0  0  0  0  0  0  0
  -25.4732  -15.9517   24.4260 O   0  0  0  0  0  0  0  0  0  0  0  0
  -31.7516  -25.9781   21.2829 O   0  0  0  0  0  0  0  0  0  0  0  0
  -23.4936  -29.1228   23.1803 O   0  0  0  0  0  0  0  0  0  0  0  0
  -31.7467  -28.6937   23.8361 O   0  0  0  0  0  0  0  0  0  0  0  0
  -21.7594  -26.9709   19.6708 O   0  0  0  0  0  0  0  0  0  0  0  0
  -25.8396  -24.6364   19.0208 O   0  0  0  0  0  0  0  0  0  0  0  0
  -27.9660  -21.6121   17.5262 O   0  0  0  0  0  0  0  0  0  0  0  0
  -25.0119   -9.2613   20.4748 O   0  0  0  0  0  0  0  0  0  0  0  0
  -29.3649  -29.1248   22.7326 O   0  0  0  0  0  0  0  0  0  1  0  0
  -21.2430   -6.7499   23.6200 F   0  0  0  0  0  0  0  0  0  0  0  0
  -25.1288   -9.4249   23.2320 F   0  0  0  0  0  0  0  0  0  0  0  0
  1  2  1  0  0  0  0
  1  5  2  0  0  0  0
  2  6  2  0  0  0  0
  3  8  2  0  0  0  0
  3 16  1  0  0  0  0
  4  9  1  0  0  0  0
  4 16  2  0  0  0  0
  5 18  1  0  0  0  0
  6 20  1  0  0  0  0
  7 10  2  0  0  0  0
  7 19  1  0  0  0  0
  8 22  1  0  0  0  0
  9 22  2  0  0  0  0
 10 23  1  0  0  0  0
 11 12  2  0  0  0  0
 11 24  1  0  0  0  0
 12 25  1  0  0  0  0
 13 21  1  0  0  0  0
 13 23  2  0  0  0  0
 14 25  2  0  0  0  0
 14 26  1  0  0  0  0
 15 29  1  0  0  0  0
 15 63  2  0  0  0  0
 16 27  1  0  0  0  0
 17 27  1  0  0  0  0
 17 31  2  0  0  0  0
 17 32  1  0  0  0  0
 18 20  2  0  0  0  0
 18 39  1  0  0  0  0
 19 21  2  0  0  0  0
 19 40  1  0  0  0  0
 20 48  1  0  0  0  0
 21 41  1  0  0  0  0
 22 84  1  0  0  0  0
 23 85  1  0  0  0  0
 24 26  2  0  0  0  0
 24 84  1  0  0  0  0
 25 86  1  0  0  0  0
 26 87  1  0  0  0  0
 27 64  2  0  0  0  0
 28 30  2  0  0  0  0
 28 33  1  0  0  0  0
 28 63  1  0  0  0  0
 29 65  2  0  0  0  0
 29 72  1  0  0  0  0
 30 65  1  0  0  0  0
 30 69  1  0  0  0  0
 31 66  1  0  0  0  0
 31 70  1  0  0  0  0
 32 71  1  0  0  0  0
 32 77  2  0  0  0  0
 33 73  1  0  0  0  0
 33 78  2  0  0  0  0
 34 49  1  0  0  0  0
 34 74  1  0  0  0  0
 34 79  2  0  0  0  0
 35 58  1  0  0  0  0
 35 61  1  0  0  0  0
 35 80  2  0  0  0  0
 36 59  1  0  0  0  0
 36 67  1  0  0  0  0
 36 81  2  0  0  0  0
 37 60  1  0  0  0  0
 37 75  1  0  0  0  0
 37 82  2  0  0  0  0
 38 68  1  0  0  0  0
 38 72  1  0  0  0  0
 38 83  2  0  0  0  0
 39 42  1  0  0  0  0
 40 49  1  0  0  0  0
 41 67  1  0  0  0  0
 42 44  1  0  0  0  0
 43 45  1  0  0  0  0
 43 46  1  0  0  0  0
 44 48  1  0  0  0  0
 45 50  1  0  0  0  0
 46 68  1  0  0  0  0
 47 50  1  0  0  0  0
 47 68  1  0  0  0  0
 48 74  1  0  0  0  0
 49 67  1  0  0  0  0
 50 66  1  0  0  0  0
 51 60  1  0  0  0  0
 52 61  1  0  0  0  0
 53 61  1  0  0  0  0
 54 62  1  0  0  0  0
 55 62  1  0  0  0  0
 56 62  1  0  0  0  0
 57 76  1  0  0  0  0
 58 85  1  0  0  0  0
 59 62  1  0  0  0  0
 59 75  1  0  0  0  0
 60 76  1  0  0  0  0
 61 73  1  0  0  0  0
 64 66  1  0  0  0  0
M  CHG  1  76   1
M  ISO  4  38 100  58 101  72 100  85 101
M  END
> <Batch ID>
0178

> <Smiles>
CNC(C)C(=O)NC(C(=O)N1Cc2cc([101O:1][101CH2:1]C(=O)C(C)(C)NC(=O)c3ncc([100NH:0][100C:0](=O)N4CCCC(n5nc(-c6ccc(Oc7ccc(F)cc7F)cc6)c(C(N)=O)c5N)C4)nc3N)ccc2CC1C(=O)NC1CCCc2ccccc21)C(C)(C)C

> <Shape>
0.239

> <Color>
0.086

> <Negative vol penalty>
0.000

$$$$

  -OEChem-04052304443D

 88 96  0     1  0  0  0  0  0999 V2000
  -27.1477  -38.3104   21.9813 C   0  0  0  0  0  0  0  0  0  0  0  0
  -27.7009  -37.2617   21.2537 C   0  0  0  0  0  0  0  0  0  0  0  0
  -24.8725   -8.3825   21.4401 C   0  0  0  0  0  0  0  0  0  0  0  0
  -23.4763   -9.3613   19.7285 C   0  0  0  0  0  0  0  0  0  0  0  0
  -26.4051  -38.0442   23.1310 C   0  0  0  0  0  0  0  0  0  0  0  0
  -27.5128  -35.9461   21.6760 C   0  0  0  0  0  0  0  0  0  0  0  0
  -26.7459  -29.3090   19.0920 C   0  0  0  0  0  0  0  0  0  0  0  0
  -23.8055   -7.5854   21.8546 C   0  0  0  0  0  0  0  0  0  0  0  0
  -22.4093   -8.5642   20.1429 C   0  0  0  0  0  0  0  0  0  0  0  0
  -27.2796  -28.0290   19.2354 C   0  0  0  0  0  0  0  0  0  0  0  0
  -21.0049   -7.9425   23.7129 C   0  0  0  0  0  0  0  0  0  0  0  0
  -20.7654   -7.8429   25.0834 C   0  0  0  0  0  0  0  0  0  0  0  0
  -25.9119  -27.6844   21.1924 C   0  0  0  0  0  0  0  0  0  0  0  0
  -21.1052   -5.4537   24.9691 C   0  0  0  0  0  0  0  0  0  0  0  0
  -24.4569  -17.2492   17.4136 C   0  0  0  0  0  0  0  0  0  0  0  0
  -24.7079   -9.2706   20.3771 C   0  0  0  0  0  0  0  0  0  0  0  0
  -26.7791   -9.7803   18.9779 C   0  0  0  0  0  0  0  0  0  0  0  0
  -26.1997  -36.7242   23.5622 C   0  0  0  0  0  0  0  0  0  0  0  0
  -25.7976  -29.7912   20.0057 C   0  0  0  0  0  0  0  0  0  0  0  0
  -26.7680  -35.6621   22.8332 C   0  0  0  0  0  0  0  0  0  0  0  0
  -25.3658  -28.9699   21.0569 C   0  0  0  0  0  0  0  0  0  0  0  0
  -22.5740   -7.6762   21.2060 C   0  0  0  0  0  0  0  0  0  0  0  0
  -26.8648  -27.2176   20.2874 C   0  0  0  0  0  0  0  0  0  0  0  0
  -21.2944   -6.7977   22.9704 C   0  0  0  0  0  0  0  0  0  0  0  0
  -20.8156   -6.5985   25.7115 C   0  0  0  0  0  0  0  0  0  0  0  0
  -21.3446   -5.5533   23.5985 C   0  0  0  0  0  0  0  0  0  0  0  0
  -25.8095  -10.0947   19.9488 C   0  0  0  0  0  0  0  0  0  0  0  0
  -24.3984  -19.4412   16.7645 C   0  0  0  0  0  0  0  0  0  0  0  0
  -25.3622  -17.5660   18.4023 C   0  0  0  0  0  0  0  0  0  0  0  0
  -25.3032  -19.7583   17.7537 C   0  0  0  0  0  0  0  0  0  0  0  0
  -27.5972  -10.8829   18.9400 C   0  0  0  0  0  0  0  0  0  0  0  0
  -26.8174  -23.0742   18.6647 C   0  0  0  0  0  0  0  0  0  0  0  0
  -26.9271   -8.5973   18.1814 C   0  0  0  0  0  0  0  0  0  0  0  0
  -27.6322  -23.8145   19.4339 C   0  0  0  0  0  0  0  0  0  0  0  0
  -26.6312  -21.5990   18.8383 C   0  0  0  0  0  0  0  0  0  0  0  0
  -25.6940  -32.2114   22.0637 C   0  0  0  0  0  0  0  0  0  0  0  0
  -22.6223  -31.2425   22.4488 C   0  0  0  0  0  0  0  0  0  0  0  0
  -20.3295  -28.7243   22.2286 C   0  0  0  0  0  0  0  0  0  0  0  0
  -26.7510  -16.6420   20.2900 C   0  0  0  0  0  0  0  0  0  0  0  0
  -25.4296  -36.4886   24.8374 C   0  0  0  0  0  0  0  0  0  0  0  0
  -25.2118  -31.1642   19.8216 C   0  0  0  0  0  0  0  0  0  0  0  0
  -24.3353  -29.4329   22.0530 C   0  0  0  0  0  0  0  0  0  0  0  0
  -24.9617  -35.0457   25.0086 C   0  0  0  0  0  0  0  0  0  0  0  0
  -29.1891  -14.4612   21.6961 C   0  0  0  0  0  0  0  0  0  0  0  0
  -26.0976  -34.0758   24.6987 C   0  0  0  0  0  0  0  0  0  0  0  0
  -28.6906  -13.0656   21.3140 C   0  0  0  0  0  0  0  0  0  0  0  0
  -28.0341  -15.4063   22.0226 C   0  0  0  0  0  0  0  0  0  0  0  0
  -26.4970  -14.1021   20.6065 C   0  0  0  0  0  0  0  0  0  0  0  0
  -26.5653  -34.2202   23.2454 C   0  0  1  0  0  0  0  0  0  0  0  0
  -24.6326  -31.7441   21.1084 C   0  0  1  0  0  0  0  0  0  0  0  0
  -27.6213  -13.1329   20.2061 C   0  0  2  0  0  0  0  0  0  0  0  0
  -17.9065  -28.2241   22.6488 C   0  0  0  0  0  0  0  0  0  0  0  0
  -22.5715  -21.1081   16.3865 C   0  0  0  0  0  0  0  0  0  0  0  0
  -23.1728  -31.1064   25.4469 C   0  0  0  0  0  0  0  0  0  0  0  0
  -21.0967  -29.7293   25.6949 C   0  0  0  0  0  0  0  0  0  0  0  0
  -20.9456  -32.0671   24.8377 C   0  0  0  0  0  0  0  0  0  0  0  0
  -19.8484  -28.0820   19.3800 C   0  0  0  0  0  0  0  0  0  0  0  0
  -27.7902  -25.2936   19.2397 C   0  0  0  0  0  0  0  0  0  1  0  0
  -21.9158  -30.2635   23.3551 C   0  0  1  0  0  0  0  0  0  0  0  0
  -18.9364  -28.6802   21.6270 C   0  0  2  0  0  0  0  0  0  0  0  0
  -23.8490  -20.4748   15.8403 C   0  0  0  0  0  0  0  0  0  0  0  0
  -21.8036  -30.7833   24.8162 C   0  0  0  0  0  0  0  0  0  0  0  0
  -23.9587  -18.1810   16.5770 N   0  0  0  0  0  0  0  0  0  0  0  0
  -25.9932  -11.3024   20.4889 N   0  0  0  0  0  0  0  0  0  0  0  0
  -25.8016  -18.8263   18.5901 N   0  0  0  0  0  0  0  0  0  0  0  0
  -27.0878  -11.7566   19.8551 N   0  0  0  0  0  0  0  0  0  0  0  0
  -23.7968  -30.7856   21.8343 N   0  0  0  0  0  0  0  0  0  0  0  0
  -27.0630  -15.4220   20.9265 N   0  0  0  0  0  0  0  0  0  0  0  0
  -28.6953  -11.1807   18.2135 N   0  0  0  0  0  0  0  0  0  0  0  0
  -25.9989   -7.5603   18.3465 N   0  0  0  0  0  0  0  0  0  0  0  0
  -25.7315  -21.1004   17.9037 N   0  0  0  0  0  0  0  0  0  0  0  0
  -25.8396  -16.5283   19.2407 N   0  0  0  0  0  0  0  0  0  0  0  0
  -25.6391  -33.5624   22.3488 N   0  0  0  0  0  0  0  0  0  0  0  0
  -20.6328  -29.9752   22.7233 N   0  0  0  0  0  0  0  0  0  0  0  0
  -18.9008  -27.7396   20.4716 N   0  3  0  0  0  0  0  0  0  0  0  0
  -27.8645   -8.4572   17.3597 O   0  0  0  0  0  0  0  0  0  0  0  0
  -27.2241  -20.9739   19.7088 O   0  0  0  0  0  0  0  0  0  0  0  0
  -26.5020  -31.4056   22.5103 O   0  0  0  0  0  0  0  0  0  0  0  0
  -22.1458  -32.3686   22.2864 O   0  0  0  0  0  0  0  0  0  0  0  0
  -21.0727  -27.7460   22.2602 O   0  0  0  0  0  0  0  0  0  0  0  0
  -27.2758  -17.7049   20.6317 O   0  0  0  0  0  0  0  0  0  0  0  0
  -28.3660  -23.2698   20.4690 O   0  0  0  0  0  0  0  0  0  0  0  0
  -21.5327   -6.8983   21.6100 O   0  0  0  0  0  0  0  0  0  0  0  0
  -27.3846  -25.9681   20.4300 O   0  0  0  0  0  0  0  0  0  1  0  0
  -20.5871   -6.5032   27.0279 F   0  0  0  0  0  0  0  0  0  0  0  0
  -21.6235   -4.4501   22.8907 F   0  0  0  0  0  0  0  0  0  0  0  0
  -23.5504  -19.9782   14.5970 F   0  0  0  0  0  0  0  0  0  0  0  0
  -24.7300  -21.4971   15.5945 F   0  0  0  0  0  0  0  0  0  0  0  0
  1  2  1  0  0  0  0
  1  5  2  0  0  0  0
  2  6  2  0  0  0  0
  3  8  2  0  0  0  0
  3 16  1  0  0  0  0
  4  9  1  0  0  0  0
  4 16  2  0  0  0  0
  5 18  1  0  0  0  0
  6 20  1  0  0  0  0
  7 10  2  0  0  0  0
  7 19  1  0  0  0  0
  8 22  1  0  0  0  0
  9 22  2  0  0  0  0
 10 23  1  0  0  0  0
 11 12  2  0  0  0  0
 11 24  1  0  0  0  0
 12 25  1  0  0  0  0
 13 21  1  0  0  0  0
 13 23  2  0  0  0  0
 14 25  2  0  0  0  0
 14 26  1  0  0  0  0
 15 29  1  0  0  0  0
 15 63  2  0  0  0  0
 16 27  1  0  0  0  0
 17 27  1  0  0  0  0
 17 31  2  0  0  0  0
 17 33  1  0  0  0  0
 18 20  2  0  0  0  0
 18 40  1  0  0  0  0
 19 21  2  0  0  0  0
 19 41  1  0  0  0  0
 20 49  1  0  0  0  0
 21 42  1  0  0  0  0
 22 83  1  0  0  0  0
 23 84  1  0  0  0  0
 24 26  2  0  0  0  0
 24 83  1  0  0  0  0
 25 85  1  0  0  0  0
 26 86  1  0  0  0  0
 27 64  2  0  0  0  0
 28 30  2  0  0  0  0
 28 61  1  0  0  0  0
 28 63  1  0  0  0  0
 29 65  2  0  0  0  0
 29 72  1  0  0  0  0
 30 65  1  0  0  0  0
 30 71  1  0  0  0  0
 31 66  1  0  0  0  0
 31 69  1  0  0  0  0
 32 34  2  0  0  0  0
 32 35  1  0  0  0  0
 33 70  1  0  0  0  0
 33 76  2  0  0  0  0
 34 58  1  0  0  0  0
 34 82  1  0  0  0  0
 35 71  1  0  0  0  0
 35 77  2  0  0  0  0
 36 50  1  0  0  0  0
 36 73  1  0  0  0  0
 36 78  2  0  0  0  0
 37 59  1  0  0  0  0
 37 67  1  0  0  0  0
 37 79  2  0  0  0  0
 38 60  1  0  0  0  0
 38 74  1  0  0  0  0
 38 80  2  0  0  0  0
 39 68  1  0  0  0  0
 39 72  1  0  0  0  0
 39 81  2  0  0  0  0
 40 43  1  0  0  0  0
 41 50  1  0  0  0  0
 42 67  1  0  0  0  0
 43 45  1  0  0  0  0
 44 46  1  0  0  0  0
 44 47  1  0  0  0  0
 45 49  1  0  0  0  0
 46 51  1  0  0  0  0
 47 68  1  0  0  0  0
 48 51  1  0  0  0  0
 48 68  1  0  0  0  0
 49 73  1  0  0  0  0
 50 67  1  0  0  0  0
 51 66  1  0  0  0  0
 52 60  1  0  0  0  0
 53 61  1  0  0  0  0
 54 62  1  0  0  0  0
 55 62  1  0  0  0  0
 56 62  1  0  0  0  0
 57 75  1  0  0  0  0
 58 84  1  0  0  0  0
 59 62  1  0  0  0  0
 59 74  1  0  0  0  0
 60 75  1  0  0  0  0
 61 87  1  0  0  0  0
 61 88  1  0  0  0  0
 64 66  1  0  0  0  0
M  CHG  1  75   1
M  ISO  4  39 100  58 101  72 100  84 101
M  END
> <Batch ID>
0178

> <Smiles>
CNC(C)C(=O)NC(C(=O)N1Cc2cc([101O:1][101CH2:1]C(=O)CC(=O)Nc3nc([100NH:0][100C:0](=O)N4CCCC(n5nc(-c6ccc(Oc7ccc(F)cc7F)cc6)c(C(N)=O)c5N)C4)cnc3C(C)(F)F)ccc2CC1C(=O)NC1CCCc2ccccc21)C(C)(C)C

> <Shape>
0.279

> <Color>
0.085

> <Negative vol penalty>
0.000

$$$$

  -OEChem-04052304443D

 86 94  0     1  0  0  0  0  0999 V2000
  -29.5604  -22.5819   16.9177 C   0  0  0  0  0  0  0  0  0  0  0  0
  -28.3342  -22.4119   17.5506 C   0  0  0  0  0  0  0  0  0  0  0  0
  -28.5843  -17.1263   19.0699 C   0  0  0  0  0  0  0  0  0  0  0  0
  -27.8535  -17.4178   21.3542 C   0  0  0  0  0  0  0  0  0  0  0  0
  -30.3035  -23.7383   17.1452 C   0  0  0  0  0  0  0  0  0  0  0  0
  -27.8452  -23.4036   18.4017 C   0  0  0  0  0  0  0  0  0  0  0  0
  -23.2680  -22.8249   20.1098 C   0  0  0  0  0  0  0  0  0  0  0  0
  -28.9108  -18.4806   19.0014 C   0  0  0  0  0  0  0  0  0  0  0  0
  -28.1800  -18.7722   21.2857 C   0  0  0  0  0  0  0  0  0  0  0  0
  -22.9364  -21.8678   21.0678 C   0  0  0  0  0  0  0  0  0  0  0  0
  -30.9689  -20.6724   21.4640 C   0  0  0  0  0  0  0  0  0  0  0  0
  -31.6642  -21.2250   22.5396 C   0  0  0  0  0  0  0  0  0  0  0  0
  -22.8458  -23.5930   22.7514 C   0  0  0  0  0  0  0  0  0  0  0  0
  -29.8552  -22.7834   22.9083 C   0  0  0  0  0  0  0  0  0  0  0  0
  -28.0556  -16.5949   20.2462 C   0  0  0  0  0  0  0  0  0  0  0  0
  -28.5549  -14.1386   20.7204 C   0  0  0  0  0  0  0  0  0  0  0  0
  -29.8284  -24.7385   18.0094 C   0  0  0  0  0  0  0  0  0  0  0  0
  -23.4019  -24.1740   20.4683 C   0  0  0  0  0  0  0  0  0  0  0  0
  -28.5693  -24.5886   18.6255 C   0  0  0  0  0  0  0  0  0  0  0  0
  -23.1767  -24.5656   21.7957 C   0  0  0  0  0  0  0  0  0  0  0  0
  -28.7087  -19.3036   20.1093 C   0  0  0  0  0  0  0  0  0  0  0  0
  -22.7281  -22.2513   22.3894 C   0  0  0  0  0  0  0  0  0  0  0  0
  -29.7168  -21.1754   21.1105 C   0  0  0  0  0  0  0  0  0  0  0  0
  -31.1074  -22.2805   23.2617 C   0  0  0  0  0  0  0  0  0  0  0  0
  -29.1599  -22.2309   21.8327 C   0  0  0  0  0  0  0  0  0  0  0  0
  -27.7176  -15.1960   20.3174 C   0  0  0  0  0  0  0  0  0  0  0  0
  -20.9781  -13.4003   24.1652 C   0  0  0  0  0  0  0  0  0  0  0  0
  -20.6745  -13.1994   25.4954 C   0  0  0  0  0  0  0  0  0  0  0  0
  -27.7684  -13.0177   20.6128 C   0  0  0  0  0  0  0  0  0  0  0  0
  -21.1688  -15.4706   24.8633 C   0  0  0  0  0  0  0  0  0  0  0  0
  -29.9214  -14.1669   21.1535 C   0  0  0  0  0  0  0  0  0  0  0  0
  -25.7790  -26.2836   20.4155 C   0  0  0  0  0  0  0  0  0  0  0  0
  -21.9093  -19.0550   24.0349 C   0  0  0  0  0  0  0  0  0  0  0  0
  -23.4456  -28.3503   21.3135 C   0  0  0  0  0  0  0  0  0  0  0  0
  -20.4041  -28.8232   22.7874 C   0  0  0  0  0  0  0  0  0  0  0  0
  -21.8449  -12.1612   20.7838 C   0  0  0  0  0  0  0  0  0  0  0  0
  -30.6700  -25.9735   18.2135 C   0  0  0  0  0  0  0  0  0  0  0  0
  -23.7340  -25.1981   19.4178 C   0  0  0  0  0  0  0  0  0  0  0  0
  -23.2883  -26.0041   22.2279 C   0  0  0  0  0  0  0  0  0  0  0  0
  -30.2827  -26.7570   19.4635 C   0  0  0  0  0  0  0  0  0  0  0  0
  -24.0620  -11.2670   18.1454 C   0  0  0  0  0  0  0  0  0  0  0  0
  -28.7776  -26.9774   19.4932 C   0  0  0  0  0  0  0  0  0  0  0  0
  -25.3258  -12.0771   18.4392 C   0  0  0  0  0  0  0  0  0  0  0  0
  -22.7972  -12.0458   18.4999 C   0  0  0  0  0  0  0  0  0  0  0  0
  -24.0218  -13.3791   20.1722 C   0  0  0  0  0  0  0  0  0  0  0  0
  -28.0314  -25.6399   19.5793 C   0  0  1  0  0  0  0  0  0  0  0  0
  -24.3483  -26.4693   19.9957 C   0  0  1  0  0  0  0  0  0  0  0  0
  -25.3247  -12.6139   19.8832 C   0  0  2  0  0  0  0  0  0  0  0  0
  -18.7757  -30.6286   23.4088 C   0  0  0  0  0  0  0  0  0  0  0  0
  -25.2259  -29.1447   23.6608 C   0  0  0  0  0  0  0  0  0  0  0  0
  -23.2223  -30.1932   24.7353 C   0  0  0  0  0  0  0  0  0  0  0  0
  -24.0551  -31.0532   22.5468 C   0  0  0  0  0  0  0  0  0  0  0  0
  -18.2904  -27.6696   21.0668 C   0  0  0  0  0  0  0  0  0  0  0  0
  -21.0239  -12.3600   23.1174 C   0  0  0  0  0  0  0  0  0  0  0  0
  -21.7497  -17.5911   23.6835 C   0  0  0  0  0  0  0  0  0  0  0  0
  -22.2958  -19.9660   22.8861 C   0  0  0  0  0  0  0  0  0  1  0  0
  -22.8801  -28.8163   22.6334 C   0  0  1  0  0  0  0  0  0  0  0  0
  -19.1855  -29.6162   22.3506 C   0  0  2  0  0  0  0  0  0  0  0  0
  -20.3272  -11.9575   26.2147 C   0  0  0  0  0  0  0  0  0  0  0  0
  -23.8456  -29.7744   23.3866 C   0  0  0  0  0  0  0  0  0  0  0  0
  -26.4930  -14.7838   19.9787 N   0  0  0  0  0  0  0  0  0  0  0  0
  -21.2614  -14.7021   23.8008 N   0  0  0  0  0  0  0  0  0  0  0  0
  -26.5552  -13.4548   20.1687 N   0  0  0  0  0  0  0  0  0  0  0  0
  -23.6213  -26.9672   21.1653 N   0  0  0  0  0  0  0  0  0  0  0  0
  -22.8588  -12.5257   19.8826 N   0  0  0  0  0  0  0  0  0  0  0  0
  -28.0032  -11.7106   20.8555 N   0  0  0  0  0  0  0  0  0  0  0  0
  -30.5802  -15.4029   21.2058 N   0  0  0  0  0  0  0  0  0  0  0  0
  -21.3898  -16.8404   24.8592 N   0  0  0  0  0  0  0  0  0  0  0  0
  -26.6165  -25.8761   19.3947 N   0  0  0  0  0  0  0  0  0  0  0  0
  -21.5746  -29.3957   22.3363 N   0  0  0  0  0  0  0  0  0  0  0  0
  -21.9830  -12.6534   22.0758 N   0  0  0  0  0  0  0  0  0  0  0  0
  -18.0344  -28.7026   22.1033 N   0  3  0  0  0  0  0  0  0  0  0  0
  -30.5449  -13.1251   21.4688 O   0  0  0  0  0  0  0  0  0  0  0  0
  -26.0997  -26.4958   21.5790 O   0  0  0  0  0  0  0  0  0  0  0  0
  -21.7394  -19.4881   25.1740 O   0  0  0  0  0  0  0  0  0  0  0  0
  -23.7147  -29.1822   20.4434 O   0  0  0  0  0  0  0  0  0  0  0  0
  -20.3257  -27.8004   23.4643 O   0  0  0  0  0  0  0  0  0  0  0  0
  -20.8903  -11.4454   20.4623 O   0  0  0  0  0  0  0  0  0  0  0  0
  -29.0274  -20.6252   20.0430 O   0  0  0  0  0  0  0  0  0  0  0  0
  -22.4049  -21.3190   23.3265 O   0  0  0  0  0  0  0  0  0  1  0  0
  -31.7745  -22.8100   24.2955 F   0  0  0  0  0  0  0  0  0  0  0  0
  -27.9569  -22.7175   21.4986 F   0  0  0  0  0  0  0  0  0  0  0  0
  -20.3072  -10.8365   25.4240 F   0  0  0  0  0  0  0  0  0  0  0  0
  -21.1869  -11.6409   27.2359 F   0  0  0  0  0  0  0  0  0  0  0  0
  -19.0874  -11.9999   26.7977 F   0  0  0  0  0  0  0  0  0  0  0  0
  -20.7454  -14.6938   26.3338 S   0  0  0  0  0  0  0  0  0  0  0  0
  1  2  1  0  0  0  0
  1  5  2  0  0  0  0
  2  6  2  0  0  0  0
  3  8  2  0  0  0  0
  3 15  1  0  0  0  0
  4  9  1  0  0  0  0
  4 15  2  0  0  0  0
  5 17  1  0  0  0  0
  6 19  1  0  0  0  0
  7 10  2  0  0  0  0
  7 18  1  0  0  0  0
  8 21  1  0  0  0  0
  9 21  2  0  0  0  0
 10 22  1  0  0  0  0
 11 12  2  0  0  0  0
 11 23  1  0  0  0  0
 12 24  1  0  0  0  0
 13 20  1  0  0  0  0
 13 22  2  0  0  0  0
 14 24  2  0  0  0  0
 14 25  1  0  0  0  0
 15 26  1  0  0  0  0
 16 26  1  0  0  0  0
 16 29  2  0  0  0  0
 16 31  1  0  0  0  0
 17 19  2  0  0  0  0
 17 37  1  0  0  0  0
 18 20  2  0  0  0  0
 18 38  1  0  0  0  0
 19 46  1  0  0  0  0
 20 39  1  0  0  0  0
 21 79  1  0  0  0  0
 22 80  1  0  0  0  0
 23 25  2  0  0  0  0
 23 79  1  0  0  0  0
 24 81  1  0  0  0  0
 25 82  1  0  0  0  0
 26 61  2  0  0  0  0
 27 28  2  0  0  0  0
 27 54  1  0  0  0  0
 27 62  1  0  0  0  0
 28 59  1  0  0  0  0
 28 86  1  0  0  0  0
 29 63  1  0  0  0  0
 29 66  1  0  0  0  0
 30 62  2  0  0  0  0
 30 68  1  0  0  0  0
 30 86  1  0  0  0  0
 31 67  1  0  0  0  0
 31 73  2  0  0  0  0
 32 47  1  0  0  0  0
 32 69  1  0  0  0  0
 32 74  2  0  0  0  0
 33 55  1  0  0  0  0
 33 56  1  0  0  0  0
 33 75  2  0  0  0  0
 34 57  1  0  0  0  0
 34 64  1  0  0  0  0
 34 76  2  0  0  0  0
 35 58  1  0  0  0  0
 35 70  1  0  0  0  0
 35 77  2  0  0  0  0
 36 65  1  0  0  0  0
 36 71  1  0  0  0  0
 36 78  2  0  0  0  0
 37 40  1  0  0  0  0
 38 47  1  0  0  0  0
 39 64  1  0  0  0  0
 40 42  1  0  0  0  0
 41 43  1  0  0  0  0
 41 44  1  0  0  0  0
 42 46  1  0  0  0  0
 43 48  1  0  0  0  0
 44 65  1  0  0  0  0
 45 48  1  0  0  0  0
 45 65  1  0  0  0  0
 46 69  1  0  0  0  0
 47 64  1  0  0  0  0
 48 63  1  0  0  0  0
 49 58  1  0  0  0  0
 50 60  1  0  0  0  0
 51 60  1  0  0  0  0
 52 60  1  0  0  0  0
 53 72  1  0  0  0  0
 54 71  1  0  0  0  0
 55 68  1  0  0  0  0
 56 80  1  0  0  0  0
 57 60  1  0  0  0  0
 57 70  1  0  0  0  0
 58 72  1  0  0  0  0
 59 83  1  0  0  0  0
 59 84  1  0  0  0  0
 59 85  1  0  0  0  0
 61 63  1  0  0  0  0
M  CHG  1  72   1
M  ISO  4  36 100  56 101  71 100  80 101
M  END
> <Batch ID>
0178

> <Smiles>
CNC(C)C(=O)NC(C(=O)N1Cc2cc([101O:1][101CH2:1]C(=O)CNc3nc(C[100NH:0][100C:0](=O)N4CCCC(n5nc(-c6ccc(Oc7ccc(F)cc7F)cc6)c(C(N)=O)c5N)C4)c(C(F)(F)F)s3)ccc2CC1C(=O)NC1CCCc2ccccc21)C(C)(C)C

> <Shape>
0.244

> <Color>
0.057

> <Negative vol penalty>
0.000

$$$$

  -OEChem-04052304443D

 84 92  0     1  0  0  0  0  0999 V2000
  -31.6035  -31.3109   23.6731 C   0  0  0  0  0  0  0  0  0  0  0  0
  -31.6088  -30.1799   24.4833 C   0  0  0  0  0  0  0  0  0  0  0  0
  -23.1402   -9.8604   20.0140 C   0  0  0  0  0  0  0  0  0  0  0  0
  -23.7937  -10.0300   22.3337 C   0  0  0  0  0  0  0  0  0  0  0  0
  -30.7186  -31.3932   22.5988 C   0  0  0  0  0  0  0  0  0  0  0  0
  -30.7284  -29.1311   24.2203 C   0  0  0  0  0  0  0  0  0  0  0  0
  -31.7811  -23.1517   25.0235 C   0  0  0  0  0  0  0  0  0  0  0  0
  -22.4107   -8.7074   20.3037 C   0  0  0  0  0  0  0  0  0  0  0  0
  -23.0641   -8.8770   22.6235 C   0  0  0  0  0  0  0  0  0  0  0  0
  -31.4397  -22.2684   26.0466 C   0  0  0  0  0  0  0  0  0  0  0  0
  -23.4518   -5.5346   22.2928 C   0  0  0  0  0  0  0  0  0  0  0  0
  -24.0557   -4.5717   23.1014 C   0  0  0  0  0  0  0  0  0  0  0  0
  -29.5009  -21.5728   24.7911 C   0  0  0  0  0  0  0  0  0  0  0  0
  -22.2743   -4.8106   24.7161 C   0  0  0  0  0  0  0  0  0  0  0  0
  -23.8318  -10.5217   21.0290 C   0  0  0  0  0  0  0  0  0  0  0  0
  -24.1242  -13.0419   20.7633 C   0  0  0  0  0  0  0  0  0  0  0  0
  -29.8336  -30.3407   22.3167 C   0  0  0  0  0  0  0  0  0  0  0  0
  -30.9777  -23.2604   23.8793 C   0  0  0  0  0  0  0  0  0  0  0  0
  -29.8300  -29.2000   23.1420 C   0  0  0  0  0  0  0  0  0  0  0  0
  -29.8357  -22.4565   23.7537 C   0  0  0  0  0  0  0  0  0  0  0  0
  -22.3726   -8.2157   21.6085 C   0  0  0  0  0  0  0  0  0  0  0  0
  -30.2979  -21.4808   25.9318 C   0  0  0  0  0  0  0  0  0  0  0  0
  -22.2593   -6.1356   22.6959 C   0  0  0  0  0  0  0  0  0  0  0  0
  -23.4669   -4.2097   24.3130 C   0  0  0  0  0  0  0  0  0  0  0  0
  -21.6705   -5.7735   23.9074 C   0  0  0  0  0  0  0  0  0  0  0  0
  -24.5860  -11.7124   20.7302 C   0  0  0  0  0  0  0  0  0  0  0  0
  -32.6317  -16.7275   23.9997 C   0  0  0  0  0  0  0  0  0  0  0  0
  -25.2155  -13.7935   20.4018 C   0  0  0  0  0  0  0  0  0  0  0  0
  -31.6172  -16.8747   24.9222 C   0  0  0  0  0  0  0  0  0  0  0  0
  -31.1471  -15.4076   23.0704 C   0  0  0  0  0  0  0  0  0  0  0  0
  -22.8250  -13.5518   21.0916 C   0  0  0  0  0  0  0  0  0  0  0  0
  -29.2884  -25.5951   22.5381 C   0  0  0  0  0  0  0  0  0  0  0  0
  -28.8736  -23.4100   20.1768 C   0  0  0  0  0  0  0  0  0  0  0  0
  -28.8117  -20.1274   19.2454 C   0  0  0  0  0  0  0  0  0  0  0  0
  -30.4260  -17.7075   26.9825 C   0  0  0  0  0  0  0  0  0  0  0  0
  -30.9551  -13.9411   21.0311 C   0  0  0  0  0  0  0  0  0  0  0  0
  -28.8628  -30.4954   21.1729 C   0  0  0  0  0  0  0  0  0  0  0  0
  -31.3742  -24.1987   22.7726 C   0  0  0  0  0  0  0  0  0  0  0  0
  -28.9507  -22.5206   22.5366 C   0  0  0  0  0  0  0  0  0  0  0  0
  -28.2211  -29.1808   20.7366 C   0  0  0  0  0  0  0  0  0  0  0  0
  -29.4380  -12.8725   17.9924 C   0  0  0  0  0  0  0  0  0  0  0  0
  -27.7379  -28.3939   21.9507 C   0  0  0  0  0  0  0  0  0  0  0  0
  -27.9866  -12.5940   18.3901 C   0  0  0  0  0  0  0  0  0  0  0  0
  -30.4150  -12.4762   19.0979 C   0  0  0  0  0  0  0  0  0  0  0  0
  -28.6740  -12.7724   20.8155 C   0  0  0  0  0  0  0  0  0  0  0  0
  -28.9072  -28.0308   22.8739 C   0  0  1  0  0  0  0  0  0  0  0  0
  -30.2030  -24.6003   21.8813 C   0  0  1  0  0  0  0  0  0  0  0  0
  -27.6484  -13.2155   19.7594 C   0  0  2  0  0  0  0  0  0  0  0  0
  -33.9553  -17.3819   24.0515 C   0  0  0  0  0  0  0  0  0  0  0  0
  -28.4068  -18.6513   17.2567 C   0  0  0  0  0  0  0  0  0  0  0  0
  -31.8739  -18.1167   29.0058 C   0  0  0  0  0  0  0  0  0  0  0  0
  -29.4242  -18.7077   29.0863 C   0  0  0  0  0  0  0  0  0  0  0  0
  -25.8697  -23.8704   20.4496 C   0  0  0  0  0  0  0  0  0  0  0  0
  -25.4991  -21.7506   19.1702 C   0  0  0  0  0  0  0  0  0  0  0  0
  -26.6838  -23.6639   18.0940 C   0  0  0  0  0  0  0  0  0  0  0  0
  -31.5550  -19.0230   19.3608 C   0  0  0  0  0  0  0  0  0  0  0  0
  -31.0303  -20.0661   27.6977 C   0  0  0  0  0  0  0  0  0  1  0  0
  -27.8620  -22.3274   19.8877 C   0  0  1  0  0  0  0  0  0  0  0  0
  -29.4476  -19.4005   18.0742 C   0  0  2  0  0  0  0  0  0  0  0  0
  -30.6771  -18.6440   28.1948 C   0  0  0  0  0  0  0  0  0  0  0  0
  -26.4940  -22.9030   19.4243 C   0  0  0  0  0  0  0  0  0  0  0  0
  -25.8705  -11.6215   20.3755 N   0  0  0  0  0  0  0  0  0  0  0  0
  -32.3642  -15.8863   22.9374 N   0  0  0  0  0  0  0  0  0  0  0  0
  -26.2251  -12.9033   20.1824 N   0  0  0  0  0  0  0  0  0  0  0  0
  -29.3772  -23.4580   21.4845 N   0  0  0  0  0  0  0  0  0  0  0  0
  -30.0343  -13.1055   20.3643 N   0  0  0  0  0  0  0  0  0  0  0  0
  -25.4003  -15.1225   20.2534 N   0  0  0  0  0  0  0  0  0  0  0  0
  -21.8185  -12.6412   21.4409 N   0  0  0  0  0  0  0  0  0  0  0  0
  -31.5120  -17.6311   26.1151 N   0  0  0  0  0  0  0  0  0  0  0  0
  -30.4702  -14.5095   22.2085 N   0  0  0  0  0  0  0  0  0  0  0  0
  -29.6501  -26.9129   22.3329 N   0  0  0  0  0  0  0  0  0  0  0  0
  -28.4894  -21.4291   18.9245 N   0  0  0  0  0  0  0  0  0  0  0  0
  -30.4585  -18.4194   18.5607 N   0  3  0  0  0  0  0  0  0  0  0  0
  -22.5599  -14.7775   21.0597 O   0  0  0  0  0  0  0  0  0  0  0  0
  -28.3249  -25.1967   23.1820 O   0  0  0  0  0  0  0  0  0  0  0  0
  -29.2101  -24.1800   19.2738 O   0  0  0  0  0  0  0  0  0  0  0  0
  -28.6166  -19.5927   20.3347 O   0  0  0  0  0  0  0  0  0  0  0  0
  -29.3531  -17.1227   26.8445 O   0  0  0  0  0  0  0  0  0  0  0  0
  -32.0807  -14.1597   20.5759 O   0  0  0  0  0  0  0  0  0  0  0  0
  -21.6606   -7.0908   21.8916 O   0  0  0  0  0  0  0  0  0  0  0  0
  -29.9621  -20.6183   26.9293 O   0  0  0  0  0  0  0  0  0  1  0  0
  -24.0461   -3.2839   25.0887 F   0  0  0  0  0  0  0  0  0  0  0  0
  -20.5243   -6.3465   24.2994 F   0  0  0  0  0  0  0  0  0  0  0  0
  -30.2679  -15.9274   24.4495 S   0  0  0  0  0  0  0  0  0  0  0  0
  1  2  1  0  0  0  0
  1  5  2  0  0  0  0
  2  6  2  0  0  0  0
  3  8  2  0  0  0  0
  3 15  1  0  0  0  0
  4  9  1  0  0  0  0
  4 15  2  0  0  0  0
  5 17  1  0  0  0  0
  6 19  1  0  0  0  0
  7 10  2  0  0  0  0
  7 18  1  0  0  0  0
  8 21  1  0  0  0  0
  9 21  2  0  0  0  0
 10 22  1  0  0  0  0
 11 12  2  0  0  0  0
 11 23  1  0  0  0  0
 12 24  1  0  0  0  0
 13 20  1  0  0  0  0
 13 22  2  0  0  0  0
 14 24  2  0  0  0  0
 14 25  1  0  0  0  0
 15 26  1  0  0  0  0
 16 26  1  0  0  0  0
 16 28  2  0  0  0  0
 16 31  1  0  0  0  0
 17 19  2  0  0  0  0
 17 37  1  0  0  0  0
 18 20  2  0  0  0  0
 18 38  1  0  0  0  0
 19 46  1  0  0  0  0
 20 39  1  0  0  0  0
 21 80  1  0  0  0  0
 22 81  1  0  0  0  0
 23 25  2  0  0  0  0
 23 80  1  0  0  0  0
 24 82  1  0  0  0  0
 25 83  1  0  0  0  0
 26 62  2  0  0  0  0
 27 29  2  0  0  0  0
 27 49  1  0  0  0  0
 27 63  1  0  0  0  0
 28 64  1  0  0  0  0
 28 67  1  0  0  0  0
 29 69  1  0  0  0  0
 29 84  1  0  0  0  0
 30 63  2  0  0  0  0
 30 70  1  0  0  0  0
 30 84  1  0  0  0  0
 31 68  1  0  0  0  0
 31 74  2  0  0  0  0
 32 47  1  0  0  0  0
 32 71  1  0  0  0  0
 32 75  2  0  0  0  0
 33 58  1  0  0  0  0
 33 65  1  0  0  0  0
 33 76  2  0  0  0  0
 34 59  1  0  0  0  0
 34 72  1  0  0  0  0
 34 77  2  0  0  0  0
 35 60  1  0  0  0  0
 35 69  1  0  0  0  0
 35 78  2  0  0  0  0
 36 66  1  0  0  0  0
 36 70  1  0  0  0  0
 36 79  2  0  0  0  0
 37 40  1  0  0  0  0
 38 47  1  0  0  0  0
 39 65  1  0  0  0  0
 40 42  1  0  0  0  0
 41 43  1  0  0  0  0
 41 44  1  0  0  0  0
 42 46  1  0  0  0  0
 43 48  1  0  0  0  0
 44 66  1  0  0  0  0
 45 48  1  0  0  0  0
 45 66  1  0  0  0  0
 46 71  1  0  0  0  0
 47 65  1  0  0  0  0
 48 64  1  0  0  0  0
 50 59  1  0  0  0  0
 51 60  1  0  0  0  0
 52 60  1  0  0  0  0
 53 61  1  0  0  0  0
 54 61  1  0  0  0  0
 55 61  1  0  0  0  0
 56 73  1  0  0  0  0
 57 60  1  0  0  0  0
 57 81  1  0  0  0  0
 58 61  1  0  0  0  0
 58 72  1  0  0  0  0
 59 73  1  0  0  0  0
 62 64  1  0  0  0  0
M  CHG  1  73   1
M  ISO  4  36 100  57 101  70 100  81 101
M  END
> <Batch ID>
0178

> <Smiles>
CNC(C)C(=O)NC(C(=O)N1Cc2cc([101O:1][101CH2:1]C(C)(C)C(=O)Nc3sc([100NH:0][100C:0](=O)N4CCCC(n5nc(-c6ccc(Oc7ccc(F)cc7F)cc6)c(C(N)=O)c5N)C4)nc3C)ccc2CC1C(=O)NC1CCCc2ccccc21)C(C)(C)C

> <Shape>
0.234

> <Color>
0.190

> <Negative vol penalty>
0.000

$$$$

  -OEChem-04052304443D

 85 93  0     1  0  0  0  0  0999 V2000
  -18.4755  -32.7980   22.0873 C   0  0  0  0  0  0  0  0  0  0  0  0
  -19.7410  -32.6983   21.5180 C   0  0  0  0  0  0  0  0  0  0  0  0
  -26.6837  -13.3684   20.4698 C   0  0  0  0  0  0  0  0  0  0  0  0
  -25.1509  -15.2090   20.1539 C   0  0  0  0  0  0  0  0  0  0  0  0
  -18.1327  -31.9865   23.1679 C   0  0  0  0  0  0  0  0  0  0  0  0
  -20.6648  -31.7879   22.0299 C   0  0  0  0  0  0  0  0  0  0  0  0
  -24.8595  -28.6322   18.8752 C   0  0  0  0  0  0  0  0  0  0  0  0
  -25.6680  -12.4676   20.1500 C   0  0  0  0  0  0  0  0  0  0  0  0
  -24.1351  -14.3081   19.8340 C   0  0  0  0  0  0  0  0  0  0  0  0
  -26.2210  -28.8391   18.6576 C   0  0  0  0  0  0  0  0  0  0  0  0
  -22.9903  -11.0869   21.6823 C   0  0  0  0  0  0  0  0  0  0  0  0
  -22.8461   -9.9599   22.4915 C   0  0  0  0  0  0  0  0  0  0  0  0
  -26.7333  -27.3455   20.4813 C   0  0  0  0  0  0  0  0  0  0  0  0
  -23.2390   -8.5366   20.5791 C   0  0  0  0  0  0  0  0  0  0  0  0
  -31.1125  -23.5518   24.3335 C   0  0  0  0  0  0  0  0  0  0  0  0
  -26.4252  -14.7392   20.4718 C   0  0  0  0  0  0  0  0  0  0  0  0
  -28.3838  -16.2760   19.9157 C   0  0  0  0  0  0  0  0  0  0  0  0
  -19.0494  -31.0588   23.6872 C   0  0  0  0  0  0  0  0  0  0  0  0
  -24.4238  -27.7874   19.9062 C   0  0  0  0  0  0  0  0  0  0  0  0
  -20.3343  -30.9642   23.1194 C   0  0  0  0  0  0  0  0  0  0  0  0
  -25.3658  -27.1275   20.7082 C   0  0  0  0  0  0  0  0  0  0  0  0
  -24.3937  -12.9374   19.8321 C   0  0  0  0  0  0  0  0  0  0  0  0
  -27.1580  -28.1980   19.4625 C   0  0  0  0  0  0  0  0  0  0  0  0
  -23.2587  -10.9388   20.3215 C   0  0  0  0  0  0  0  0  0  0  0  0
  -22.9705   -8.6848   21.9398 C   0  0  0  0  0  0  0  0  0  0  0  0
  -23.3831   -9.6637   19.7699 C   0  0  0  0  0  0  0  0  0  0  0  0
  -31.6102  -24.7202   23.6875 C   0  0  0  0  0  0  0  0  0  0  0  0
  -27.4739  -15.6702   20.8027 C   0  0  0  0  0  0  0  0  0  0  0  0
  -31.3814  -24.6978   22.3293 C   0  0  0  0  0  0  0  0  0  0  0  0
  -29.1688  -17.0684   20.7172 C   0  0  0  0  0  0  0  0  0  0  0  0
  -30.5219  -22.6809   23.4443 C   0  0  0  0  0  0  0  0  0  0  0  0
  -28.5084  -16.1352   18.4943 C   0  0  0  0  0  0  0  0  0  0  0  0
  -31.7406  -25.7138   21.3068 C   0  0  0  0  0  0  0  0  0  0  0  0
  -22.6867  -28.1742   22.5399 C   0  0  0  0  0  0  0  0  0  0  0  0
  -30.6033  -27.3595   18.7029 C   0  0  0  0  0  0  0  0  0  0  0  0
  -22.9535  -24.9465   22.7214 C   0  0  0  0  0  0  0  0  0  0  0  0
  -24.6932  -22.1317   21.8864 C   0  0  0  0  0  0  0  0  0  0  0  0
  -29.7521  -20.7438   24.8590 C   0  0  0  0  0  0  0  0  0  0  0  0
  -18.6495  -30.2364   24.8865 C   0  0  0  0  0  0  0  0  0  0  0  0
  -22.9520  -27.5538   20.1108 C   0  0  0  0  0  0  0  0  0  0  0  0
  -24.9501  -26.1948   21.8154 C   0  0  0  0  0  0  0  0  0  0  0  0
  -19.5573  -29.0336   25.1304 C   0  0  0  0  0  0  0  0  0  0  0  0
  -29.5447  -17.3053   25.7594 C   0  0  0  0  0  0  0  0  0  0  0  0
  -21.0235  -29.4426   25.0314 C   0  0  0  0  0  0  0  0  0  0  0  0
  -29.0623  -16.6232   24.4772 C   0  0  0  0  0  0  0  0  0  0  0  0
  -28.9018  -18.6782   25.9478 C   0  0  0  0  0  0  0  0  0  0  0  0
  -28.5506  -18.9055   23.5201 C   0  0  0  0  0  0  0  0  0  0  0  0
  -21.3555  -29.9712   23.6307 C   0  0  1  0  0  0  0  0  0  0  0  0
  -22.6132  -27.0743   21.5189 C   0  0  1  0  0  0  0  0  0  0  0  0
  -29.2199  -17.5473   23.2537 C   0  0  2  0  0  0  0  0  0  0  0  0
  -31.8769  -25.4844   17.6194 C   0  0  0  0  0  0  0  0  0  0  0  0
  -25.2077  -19.6829   21.6964 C   0  0  0  0  0  0  0  0  0  0  0  0
  -24.0100  -25.3187   25.5596 C   0  0  0  0  0  0  0  0  0  0  0  0
  -24.8612  -22.9656   25.4767 C   0  0  0  0  0  0  0  0  0  0  0  0
  -22.4148  -23.4127   25.2818 C   0  0  0  0  0  0  0  0  0  0  0  0
  -23.2059  -21.8985   19.3384 C   0  0  0  0  0  0  0  0  0  0  0  0
  -29.3667  -27.3242   19.5827 C   0  0  0  0  0  0  0  0  0  1  0  0
  -31.6788  -26.2901   18.8943 C   0  0  2  0  0  0  0  0  0  0  0  0
  -23.9380  -23.9887   23.3478 C   0  0  1  0  0  0  0  0  0  0  0  0
  -24.2390  -20.7956   21.3271 C   0  0  2  0  0  0  0  0  0  0  0  0
  -23.8141  -23.9405   24.8969 C   0  0  0  0  0  0  0  0  0  0  0  0
  -27.6623  -16.0455   22.0706 N   0  0  0  0  0  0  0  0  0  0  0  0
  -28.6998  -16.8956   21.9862 N   0  0  0  0  0  0  0  0  0  0  0  0
  -23.4996  -26.0038   21.9800 N   0  0  0  0  0  0  0  0  0  0  0  0
  -29.0948  -19.5000   24.7510 N   0  0  0  0  0  0  0  0  0  0  0  0
  -30.2076  -17.8892   20.4533 N   0  0  0  0  0  0  0  0  0  0  0  0
  -27.6204  -15.2802   17.8273 N   0  0  0  0  0  0  0  0  0  0  0  0
  -29.9067  -21.4211   23.6499 N   0  0  0  0  0  0  0  0  0  0  0  0
  -31.3789  -25.4178   19.9985 N   0  0  0  0  0  0  0  0  0  0  0  0
  -21.5058  -28.8740   22.6990 N   0  0  0  0  0  0  0  0  0  0  0  0
  -23.7302  -22.7025   22.6914 N   0  0  0  0  0  0  0  0  0  0  0  0
  -24.1432  -20.8615   19.8414 N   0  3  0  0  0  0  0  0  0  0  0  0
  -29.3917  -16.7366   17.8374 O   0  0  0  0  0  0  0  0  0  0  0  0
  -32.3410  -26.7277   21.6534 O   0  0  0  0  0  0  0  0  0  0  0  0
  -23.7365  -28.3723   23.1402 O   0  0  0  0  0  0  0  0  0  0  0  0
  -30.7676  -28.2649   17.8804 O   0  0  0  0  0  0  0  0  0  0  0  0
  -21.7444  -24.7592   22.8780 O   0  0  0  0  0  0  0  0  0  0  0  0
  -25.7939  -22.6186   21.6373 O   0  0  0  0  0  0  0  0  0  0  0  0
  -30.1727  -21.1638   25.9401 O   0  0  0  0  0  0  0  0  0  0  0  0
  -23.4023  -12.0587   19.5197 O   0  0  0  0  0  0  0  0  0  0  0  0
  -28.4875  -28.3987   19.2527 O   0  0  0  0  0  0  0  0  0  1  0  0
  -22.8336   -7.6026   22.7173 F   0  0  0  0  0  0  0  0  0  0  0  0
  -23.6421   -9.5151   18.4635 F   0  0  0  0  0  0  0  0  0  0  0  0
  -32.2252  -25.7160   24.3286 F   0  0  0  0  0  0  0  0  0  0  0  0
  -30.5693  -23.2724   21.8380 S   0  0  0  0  0  0  0  0  0  0  0  0
  1  2  1  0  0  0  0
  1  5  2  0  0  0  0
  2  6  2  0  0  0  0
  3  8  2  0  0  0  0
  3 16  1  0  0  0  0
  4  9  1  0  0  0  0
  4 16  2  0  0  0  0
  5 18  1  0  0  0  0
  6 20  1  0  0  0  0
  7 10  2  0  0  0  0
  7 19  1  0  0  0  0
  8 22  1  0  0  0  0
  9 22  2  0  0  0  0
 10 23  1  0  0  0  0
 11 12  2  0  0  0  0
 11 24  1  0  0  0  0
 12 25  1  0  0  0  0
 13 21  1  0  0  0  0
 13 23  2  0  0  0  0
 14 25  2  0  0  0  0
 14 26  1  0  0  0  0
 15 27  1  0  0  0  0
 15 31  2  0  0  0  0
 16 28  1  0  0  0  0
 17 28  1  0  0  0  0
 17 30  2  0  0  0  0
 17 32  1  0  0  0  0
 18 20  2  0  0  0  0
 18 39  1  0  0  0  0
 19 21  2  0  0  0  0
 19 40  1  0  0  0  0
 20 48  1  0  0  0  0
 21 41  1  0  0  0  0
 22 80  1  0  0  0  0
 23 81  1  0  0  0  0
 24 26  2  0  0  0  0
 24 80  1  0  0  0  0
 25 82  1  0  0  0  0
 26 83  1  0  0  0  0
 27 29  2  0  0  0  0
 27 84  1  0  0  0  0
 28 62  2  0  0  0  0
 29 33  1  0  0  0  0
 29 85  1  0  0  0  0
 30 63  1  0  0  0  0
 30 66  1  0  0  0  0
 31 68  1  0  0  0  0
 31 85  1  0  0  0  0
 32 67  1  0  0  0  0
 32 73  2  0  0  0  0
 33 69  1  0  0  0  0
 33 74  2  0  0  0  0
 34 49  1  0  0  0  0
 34 70  1  0  0  0  0
 34 75  2  0  0  0  0
 35 57  1  0  0  0  0
 35 58  1  0  0  0  0
 35 76  2  0  0  0  0
 36 59  1  0  0  0  0
 36 64  1  0  0  0  0
 36 77  2  0  0  0  0
 37 60  1  0  0  0  0
 37 71  1  0  0  0  0
 37 78  2  0  0  0  0
 38 65  1  0  0  0  0
 38 68  1  0  0  0  0
 38 79  2  0  0  0  0
 39 42  1  0  0  0  0
 40 49  1  0  0  0  0
 41 64  1  0  0  0  0
 42 44  1  0  0  0  0
 43 45  1  0  0  0  0
 43 46  1  0  0  0  0
 44 48  1  0  0  0  0
 45 50  1  0  0  0  0
 46 65  1  0  0  0  0
 47 50  1  0  0  0  0
 47 65  1  0  0  0  0
 48 70  1  0  0  0  0
 49 64  1  0  0  0  0
 50 63  1  0  0  0  0
 51 58  1  0  0  0  0
 52 60  1  0  0  0  0
 53 61  1  0  0  0  0
 54 61  1  0  0  0  0
 55 61  1  0  0  0  0
 56 72  1  0  0  0  0
 57 81  1  0  0  0  0
 58 69  1  0  0  0  0
 59 61  1  0  0  0  0
 59 71  1  0  0  0  0
 60 72  1  0  0  0  0
 62 63  1  0  0  0  0
M  CHG  1  72   1
M  ISO  4  38 100  57 101  68 100  81 101
M  END
> <Batch ID>
0178

> <Smiles>
CNC(C)C(=O)NC(C(=O)N1Cc2cc([101O:1][101CH2:1]C(=O)C(C)NC(=O)c3sc([100NH:0][100C:0](=O)N4CCCC(n5nc(-c6ccc(Oc7ccc(F)cc7F)cc6)c(C(N)=O)c5N)C4)cc3F)ccc2CC1C(=O)NC1CCCc2ccccc21)C(C)(C)C

> <Shape>
0.184

> <Color>
0.072

> <Negative vol penalty>
0.000

$$$$

  -OEChem-04052304443D

 85 93  0     1  0  0  0  0  0999 V2000
  -16.3941  -23.9294   22.0381 C   0  0  0  0  0  0  0  0  0  0  0  0
  -17.6719  -23.4536   22.3142 C   0  0  0  0  0  0  0  0  0  0  0  0
  -22.9909  -10.4063   22.1273 C   0  0  0  0  0  0  0  0  0  0  0  0
  -23.8415  -11.7702   23.9310 C   0  0  0  0  0  0  0  0  0  0  0  0
  -16.2273  -25.0272   21.1949 C   0  0  0  0  0  0  0  0  0  0  0  0
  -18.7837  -24.0748   21.7463 C   0  0  0  0  0  0  0  0  0  0  0  0
  -25.6404  -25.6100   23.1411 C   0  0  0  0  0  0  0  0  0  0  0  0
  -22.2137   -9.6886   23.0364 C   0  0  0  0  0  0  0  0  0  0  0  0
  -23.0642  -11.0525   24.8402 C   0  0  0  0  0  0  0  0  0  0  0  0
  -26.9102  -25.4728   22.5819 C   0  0  0  0  0  0  0  0  0  0  0  0
  -22.6688   -7.2128   25.2920 C   0  0  0  0  0  0  0  0  0  0  0  0
  -22.6584   -5.8227   25.1788 C   0  0  0  0  0  0  0  0  0  0  0  0
  -32.2288  -18.4719   18.5074 C   0  0  0  0  0  0  0  0  0  0  0  0
  -32.0652  -17.0781   18.7539 C   0  0  0  0  0  0  0  0  0  0  0  0
  -26.5057  -27.4107   21.2034 C   0  0  0  0  0  0  0  0  0  0  0  0
  -20.2699   -5.8699   24.8183 C   0  0  0  0  0  0  0  0  0  0  0  0
  -23.8049  -11.4471   22.5746 C   0  0  0  0  0  0  0  0  0  0  0  0
  -24.2387  -13.3502   20.9322 C   0  0  0  0  0  0  0  0  0  0  0  0
  -17.3382  -25.6681   20.6241 C   0  0  0  0  0  0  0  0  0  0  0  0
  -24.7882  -26.6438   22.7271 C   0  0  0  0  0  0  0  0  0  0  0  0
  -18.6316  -25.1814   20.8936 C   0  0  0  0  0  0  0  0  0  0  0  0
  -25.2266  -27.5603   21.7608 C   0  0  0  0  0  0  0  0  0  0  0  0
  -22.2503  -10.0117   24.3928 C   0  0  0  0  0  0  0  0  0  0  0  0
  -27.3419  -26.3715   21.6108 C   0  0  0  0  0  0  0  0  0  0  0  0
  -21.4798   -7.9316   25.1683 C   0  0  0  0  0  0  0  0  0  0  0  0
  -21.4590   -5.1512   24.9419 C   0  0  0  0  0  0  0  0  0  0  0  0
  -20.2804   -7.2601   24.9315 C   0  0  0  0  0  0  0  0  0  0  0  0
  -24.6084  -12.1884   21.6361 C   0  0  0  0  0  0  0  0  0  0  0  0
  -25.3436  -13.6606   20.1776 C   0  0  0  0  0  0  0  0  0  0  0  0
  -31.1231  -19.1984   18.8910 C   0  0  0  0  0  0  0  0  0  0  0  0
  -30.8407  -16.7925   19.3167 C   0  0  0  0  0  0  0  0  0  0  0  0
  -30.6934  -23.4655   19.6134 C   0  0  0  0  0  0  0  0  0  0  0  0
  -23.0068  -14.0832   20.9581 C   0  0  0  0  0  0  0  0  0  0  0  0
  -31.0737  -22.9317   18.4414 C   0  0  0  0  0  0  0  0  0  0  0  0
  -30.0617  -24.8069   19.8009 C   0  0  0  0  0  0  0  0  0  0  0  0
  -31.6998  -21.5797   18.3424 C   0  0  0  0  0  0  0  0  0  0  0  0
  -21.9362  -26.7758   21.3299 C   0  0  0  0  0  0  0  0  0  0  0  0
  -22.2491  -29.9581   21.8752 C   0  0  0  0  0  0  0  0  0  0  0  0
  -24.3220  -32.6156   22.4111 C   0  0  0  0  0  0  0  0  0  0  0  0
  -30.8487  -14.2931   19.6325 C   0  0  0  0  0  0  0  0  0  0  0  0
  -17.1053  -26.8219   19.6812 C   0  0  0  0  0  0  0  0  0  0  0  0
  -23.4317  -26.7940   23.3594 C   0  0  0  0  0  0  0  0  0  0  0  0
  -24.3578  -28.6996   21.2965 C   0  0  0  0  0  0  0  0  0  0  0  0
  -18.3567  -27.6556   19.4181 C   0  0  0  0  0  0  0  0  0  0  0  0
  -29.5484  -11.0014   19.2446 C   0  0  0  0  0  0  0  0  0  0  0  0
  -19.5483  -26.7508   19.1210 C   0  0  0  0  0  0  0  0  0  0  0  0
  -28.1168  -11.1123   19.7743 C   0  0  0  0  0  0  0  0  0  0  0  0
  -30.5188  -11.8654   20.0479 C   0  0  0  0  0  0  0  0  0  0  0  0
  -28.6979  -13.3858   20.7126 C   0  0  0  0  0  0  0  0  0  0  0  0
  -19.8638  -25.8437   20.3164 C   0  0  1  0  0  0  0  0  0  0  0  0
  -22.4514  -27.5772   22.4917 C   0  0  1  0  0  0  0  0  0  0  0  0
  -27.6729  -12.5834   19.8946 C   0  0  2  0  0  0  0  0  0  0  0  0
  -30.9140  -23.6489   17.1350 C   0  0  0  0  0  0  0  0  0  0  0  0
  -24.2875  -35.0970   22.7840 C   0  0  0  0  0  0  0  0  0  0  0  0
  -21.6957  -30.3941   18.9064 C   0  0  0  0  0  0  0  0  0  0  0  0
  -22.5977  -32.7168   19.1507 C   0  0  0  0  0  0  0  0  0  0  0  0
  -20.5691  -32.0277   20.4285 C   0  0  0  0  0  0  0  0  0  0  0  0
  -25.5891  -32.3502   25.0725 C   0  0  0  0  0  0  0  0  0  0  0  0
  -29.1162  -24.9195   20.9786 C   0  0  0  0  0  0  0  0  0  1  0  0
  -22.8295  -31.1221   21.1088 C   0  0  1  0  0  0  0  0  0  0  0  0
  -24.2882  -33.7271   23.4445 C   0  0  2  0  0  0  0  0  0  0  0  0
  -21.9389  -31.5427   19.9057 C   0  0  0  0  0  0  0  0  0  0  0  0
  -25.8509  -11.7879   21.3537 N   0  0  0  0  0  0  0  0  0  0  0  0
  -26.2716  -12.7030   20.4640 N   0  0  0  0  0  0  0  0  0  0  0  0
  -23.0375  -28.8005   21.9401 N   0  0  0  0  0  0  0  0  0  0  0  0
  -30.0355  -13.2463   20.1158 N   0  0  0  0  0  0  0  0  0  0  0  0
  -25.6021  -14.6565   19.3036 N   0  0  0  0  0  0  0  0  0  0  0  0
  -21.9749  -13.6264   21.7892 N   0  0  0  0  0  0  0  0  0  0  0  0
  -30.8611  -20.5877   18.8286 N   0  0  0  0  0  0  0  0  0  0  0  0
  -30.2707  -15.5592   19.7193 N   0  0  0  0  0  0  0  0  0  0  0  0
  -20.5677  -26.5846   21.3411 N   0  0  0  0  0  0  0  0  0  0  0  0
  -23.0542  -32.1824   22.0854 N   0  0  0  0  0  0  0  0  0  0  0  0
  -25.4758  -33.6378   24.3403 N   0  3  0  0  0  0  0  0  0  0  0  0
  -22.8207  -15.1035   20.2526 O   0  0  0  0  0  0  0  0  0  0  0  0
  -30.2809  -25.7485   19.0447 O   0  0  0  0  0  0  0  0  0  0  0  0
  -32.8111  -21.4657   17.8387 O   0  0  0  0  0  0  0  0  0  0  0  0
  -22.7218  -26.3628   20.4850 O   0  0  0  0  0  0  0  0  0  0  0  0
  -21.1402  -30.0742   22.4030 O   0  0  0  0  0  0  0  0  0  0  0  0
  -25.3683  -32.1782   21.9373 O   0  0  0  0  0  0  0  0  0  0  0  0
  -31.9639  -14.0790   19.1504 O   0  0  0  0  0  0  0  0  0  0  0  0
  -21.4919   -9.3118   25.2802 O   0  0  0  0  0  0  0  0  0  0  0  0
  -28.5805  -26.2395   21.0628 O   0  0  0  0  0  0  0  0  0  1  0  0
  -21.4494   -3.8163   24.8317 F   0  0  0  0  0  0  0  0  0  0  0  0
  -19.1350   -7.9453   24.8106 F   0  0  0  0  0  0  0  0  0  0  0  0
  -29.8944  -18.2012   19.5454 S   0  0  0  0  0  0  0  0  0  0  0  0
  1  2  1  0  0  0  0
  1  5  2  0  0  0  0
  2  6  2  0  0  0  0
  3  8  2  0  0  0  0
  3 17  1  0  0  0  0
  4  9  1  0  0  0  0
  4 17  2  0  0  0  0
  5 19  1  0  0  0  0
  6 21  1  0  0  0  0
  7 10  2  0  0  0  0
  7 20  1  0  0  0  0
  8 23  1  0  0  0  0
  9 23  2  0  0  0  0
 10 24  1  0  0  0  0
 11 12  2  0  0  0  0
 11 25  1  0  0  0  0
 12 26  1  0  0  0  0
 13 14  1  0  0  0  0
 13 30  2  0  0  0  0
 14 31  2  0  0  0  0
 15 22  1  0  0  0  0
 15 24  2  0  0  0  0
 16 26  2  0  0  0  0
 16 27  1  0  0  0  0
 17 28  1  0  0  0  0
 18 28  1  0  0  0  0
 18 29  2  0  0  0  0
 18 33  1  0  0  0  0
 19 21  2  0  0  0  0
 19 41  1  0  0  0  0
 20 22  2  0  0  0  0
 20 42  1  0  0  0  0
 21 50  1  0  0  0  0
 22 43  1  0  0  0  0
 23 81  1  0  0  0  0
 24 82  1  0  0  0  0
 25 27  2  0  0  0  0
 25 81  1  0  0  0  0
 26 83  1  0  0  0  0
 27 84  1  0  0  0  0
 28 63  2  0  0  0  0
 29 64  1  0  0  0  0
 29 67  1  0  0  0  0
 30 69  1  0  0  0  0
 30 85  1  0  0  0  0
 31 70  1  0  0  0  0
 31 85  1  0  0  0  0
 32 34  2  0  0  0  0
 32 35  1  0  0  0  0
 33 68  1  0  0  0  0
 33 74  2  0  0  0  0
 34 36  1  0  0  0  0
 34 53  1  0  0  0  0
 35 59  1  0  0  0  0
 35 75  2  0  0  0  0
 36 69  1  0  0  0  0
 36 76  2  0  0  0  0
 37 51  1  0  0  0  0
 37 71  1  0  0  0  0
 37 77  2  0  0  0  0
 38 60  1  0  0  0  0
 38 65  1  0  0  0  0
 38 78  2  0  0  0  0
 39 61  1  0  0  0  0
 39 72  1  0  0  0  0
 39 79  2  0  0  0  0
 40 66  1  0  0  0  0
 40 70  1  0  0  0  0
 40 80  2  0  0  0  0
 41 44  1  0  0  0  0
 42 51  1  0  0  0  0
 43 65  1  0  0  0  0
 44 46  1  0  0  0  0
 45 47  1  0  0  0  0
 45 48  1  0  0  0  0
 46 50  1  0  0  0  0
 47 52  1  0  0  0  0
 48 66  1  0  0  0  0
 49 52  1  0  0  0  0
 49 66  1  0  0  0  0
 50 71  1  0  0  0  0
 51 65  1  0  0  0  0
 52 64  1  0  0  0  0
 54 61  1  0  0  0  0
 55 62  1  0  0  0  0
 56 62  1  0  0  0  0
 57 62  1  0  0  0  0
 58 73  1  0  0  0  0
 59 82  1  0  0  0  0
 60 62  1  0  0  0  0
 60 72  1  0  0  0  0
 61 73  1  0  0  0  0
 63 64  1  0  0  0  0
M  CHG  1  73   1
M  ISO  4  40 100  59 101  70 100  82 101
M  END
> <Batch ID>
0178

> <Smiles>
CNC(C)C(=O)NC(C(=O)N1Cc2cc([101O:1][101CH2:1]C(=O)C=C(C)C(=O)Nc3ccc([100NH:0][100C:0](=O)N4CCCC(n5nc(-c6ccc(Oc7ccc(F)cc7F)cc6)c(C(N)=O)c5N)C4)s3)ccc2CC1C(=O)NC1CCCc2ccccc21)C(C)(C)C

> <Shape>
0.264

> <Color>
0.107

> <Negative vol penalty>
0.000

$$$$

  -OEChem-04052304443D

 86 94  0     1  0  0  0  0  0999 V2000
  -27.3797  -32.9022   20.8560 C   0  0  0  0  0  0  0  0  0  0  0  0
  -28.1933  -32.0199   21.5596 C   0  0  0  0  0  0  0  0  0  0  0  0
  -23.2686   -9.6525   20.1762 C   0  0  0  0  0  0  0  0  0  0  0  0
  -23.8423  -10.0511   22.4890 C   0  0  0  0  0  0  0  0  0  0  0  0
  -26.0795  -32.5303   20.5171 C   0  0  0  0  0  0  0  0  0  0  0  0
  -27.7067  -30.7654   21.9255 C   0  0  0  0  0  0  0  0  0  0  0  0
  -30.8779  -25.5359   22.2443 C   0  0  0  0  0  0  0  0  0  0  0  0
  -22.5788   -8.4981   20.5462 C   0  0  0  0  0  0  0  0  0  0  0  0
  -23.1524   -8.8967   22.8591 C   0  0  0  0  0  0  0  0  0  0  0  0
  -31.4626  -24.8571   23.3126 C   0  0  0  0  0  0  0  0  0  0  0  0
  -21.2379   -6.2499   24.4551 C   0  0  0  0  0  0  0  0  0  0  0  0
  -20.3951   -6.3245   25.5640 C   0  0  0  0  0  0  0  0  0  0  0  0
  -29.5002  -23.4661   23.4948 C   0  0  0  0  0  0  0  0  0  0  0  0
  -19.0970   -8.0385   24.4621 C   0  0  0  0  0  0  0  0  0  0  0  0
  -31.5800  -17.3518   22.3586 C   0  0  0  0  0  0  0  0  0  0  0  0
  -23.9004  -10.4291   21.1476 C   0  0  0  0  0  0  0  0  0  0  0  0
  -24.0965  -12.9272   20.6693 C   0  0  0  0  0  0  0  0  0  0  0  0
  -25.5799  -31.2669   20.8707 C   0  0  0  0  0  0  0  0  0  0  0  0
  -29.5934  -25.1916   21.7996 C   0  0  0  0  0  0  0  0  0  0  0  0
  -26.3980  -30.3767   21.5922 C   0  0  0  0  0  0  0  0  0  0  0  0
  -28.9025  -24.1404   22.4191 C   0  0  0  0  0  0  0  0  0  0  0  0
  -30.2284  -17.1932   22.0982 C   0  0  0  0  0  0  0  0  0  0  0  0
  -22.5207   -8.1202   21.8877 C   0  0  0  0  0  0  0  0  0  0  0  0
  -30.7726  -23.8240   23.9399 C   0  0  0  0  0  0  0  0  0  0  0  0
  -21.0103   -7.0697   23.3496 C   0  0  0  0  0  0  0  0  0  0  0  0
  -19.3247   -7.2188   25.5675 C   0  0  0  0  0  0  0  0  0  0  0  0
  -19.9398   -7.9639   23.3532 C   0  0  0  0  0  0  0  0  0  0  0  0
  -29.3458  -18.1105   22.6576 C   0  0  0  0  0  0  0  0  0  0  0  0
  -29.8349  -19.1437   23.4491 C   0  0  0  0  0  0  0  0  0  0  0  0
  -24.6137  -11.6214   20.7659 C   0  0  0  0  0  0  0  0  0  0  0  0
  -31.2041  -19.2149   23.6492 C   0  0  0  0  0  0  0  0  0  0  0  0
  -25.1664  -13.6918   20.2731 C   0  0  0  0  0  0  0  0  0  0  0  0
  -22.7677  -13.4061   20.9159 C   0  0  0  0  0  0  0  0  0  0  0  0
  -26.8041  -26.7042   21.6119 C   0  0  0  0  0  0  0  0  0  0  0  0
  -25.8834  -23.9999   20.0753 C   0  0  0  0  0  0  0  0  0  0  0  0
  -26.3748  -20.6669   19.5306 C   0  0  0  0  0  0  0  0  0  0  0  0
  -33.0162  -20.5352   24.7913 C   0  0  0  0  0  0  0  0  0  0  0  0
  -30.5277  -15.1428   20.6655 C   0  0  0  0  0  0  0  0  0  0  0  0
  -24.1519  -30.9278   20.5235 C   0  0  0  0  0  0  0  0  0  0  0  0
  -28.9876  -25.9158   20.6287 C   0  0  0  0  0  0  0  0  0  0  0  0
  -27.5293  -23.7185   21.9666 C   0  0  0  0  0  0  0  0  0  0  0  0
  -23.8387  -29.4370   20.6219 C   0  0  0  0  0  0  0  0  0  0  0  0
  -29.7536  -12.3333   18.6199 C   0  0  0  0  0  0  0  0  0  0  0  0
  -24.3885  -28.8607   21.9228 C   0  0  0  0  0  0  0  0  0  0  0  0
  -28.3049  -12.0050   18.9879 C   0  0  0  0  0  0  0  0  0  0  0  0
  -30.5549  -12.8015   19.8334 C   0  0  0  0  0  0  0  0  0  0  0  0
  -28.5038  -13.5817   20.9529 C   0  0  0  0  0  0  0  0  0  0  0  0
  -25.9146  -28.9977   21.9854 C   0  0  1  0  0  0  0  0  0  0  0  0
  -27.4654  -25.8222   20.5909 C   0  0  1  0  0  0  0  0  0  0  0  0
  -27.6399  -13.1677   19.7505 C   0  0  2  0  0  0  0  0  0  0  0  0
  -25.4398  -18.7211   18.2511 C   0  0  0  0  0  0  0  0  0  0  0  0
  -32.4214  -21.5834   27.0038 C   0  0  0  0  0  0  0  0  0  0  0  0
  -23.5728  -23.8089   22.0589 C   0  0  0  0  0  0  0  0  0  0  0  0
  -23.2617  -21.4249   21.3603 C   0  0  0  0  0  0  0  0  0  0  0  0
  -22.9669  -23.2592   19.6957 C   0  0  0  0  0  0  0  0  0  0  0  0
  -28.9052  -20.2782   18.0457 C   0  0  0  0  0  0  0  0  0  0  0  0
  -32.7641  -23.0595   24.9913 C   0  0  0  0  0  0  0  0  0  1  0  0
  -25.2921  -22.6774   20.5001 C   0  0  1  0  0  0  0  0  0  0  0  0
  -26.4518  -19.8562   18.2494 C   0  0  2  0  0  0  0  0  0  0  0  0
  -33.1786  -21.7654   25.6910 C   0  0  2  0  0  0  0  0  0  0  0  0
  -23.7985  -22.8016   20.9138 C   0  0  0  0  0  0  0  0  0  0  0  0
  -32.0924  -18.3426   23.1224 N   0  0  0  0  0  0  0  0  0  0  0  0
  -25.9112  -11.5565   20.4557 N   0  0  0  0  0  0  0  0  0  0  0  0
  -26.2183  -12.8311   20.1604 N   0  0  0  0  0  0  0  0  0  0  0  0
  -26.9768  -24.4612   20.8218 N   0  0  0  0  0  0  0  0  0  0  0  0
  -29.8664  -13.9070   20.5031 N   0  0  0  0  0  0  0  0  0  0  0  0
  -25.3005  -15.0098   20.0134 N   0  0  0  0  0  0  0  0  0  0  0  0
  -21.7894  -12.4858   21.3164 N   0  0  0  0  0  0  0  0  0  0  0  0
  -29.7623  -16.1290   21.2870 N   0  0  0  0  0  0  0  0  0  0  0  0
  -31.6952  -20.2687   24.4568 N   0  0  0  0  0  0  0  0  0  0  0  0
  -26.5468  -27.9864   21.1656 N   0  0  0  0  0  0  0  0  0  0  0  0
  -25.5322  -21.7505   19.3995 N   0  0  0  0  0  0  0  0  0  0  0  0
  -27.8132  -19.2719   18.0873 N   0  3  0  0  0  0  0  0  0  0  0  0
  -22.4532  -14.6115   20.7691 O   0  0  0  0  0  0  0  0  0  0  0  0
  -26.5450  -26.2543   22.7219 O   0  0  0  0  0  0  0  0  0  0  0  0
  -25.3976  -24.5979   19.1120 O   0  0  0  0  0  0  0  0  0  0  0  0
  -26.9967  -20.3667   20.5472 O   0  0  0  0  0  0  0  0  0  0  0  0
  -34.0096  -19.8994   24.4446 O   0  0  0  0  0  0  0  0  0  0  0  0
  -31.6780  -15.3219   20.2571 O   0  0  0  0  0  0  0  0  0  0  0  0
  -21.8474   -6.9938   22.2491 O   0  0  0  0  0  0  0  0  0  0  0  0
  -31.3406  -23.1602   24.9832 O   0  0  0  0  0  0  0  0  0  1  0  0
  -18.5145   -7.2892   26.6319 F   0  0  0  0  0  0  0  0  0  0  0  0
  -19.7154   -8.7532   22.2937 F   0  0  0  0  0  0  0  0  0  0  0  0
  -28.0268  -18.0082   22.4411 F   0  0  0  0  0  0  0  0  0  0  0  0
  -28.9964  -20.0340   23.9945 F   0  0  0  0  0  0  0  0  0  0  0  0
  -34.5016  -21.9025   26.0254 F   0  0  0  0  0  0  0  0  0  0  0  0
  1  2  1  0  0  0  0
  1  5  2  0  0  0  0
  2  6  2  0  0  0  0
  3  8  2  0  0  0  0
  3 16  1  0  0  0  0
  4  9  1  0  0  0  0
  4 16  2  0  0  0  0
  5 18  1  0  0  0  0
  6 20  1  0  0  0  0
  7 10  2  0  0  0  0
  7 19  1  0  0  0  0
  8 23  1  0  0  0  0
  9 23  2  0  0  0  0
 10 24  1  0  0  0  0
 11 12  2  0  0  0  0
 11 25  1  0  0  0  0
 12 26  1  0  0  0  0
 13 21  1  0  0  0  0
 13 24  2  0  0  0  0
 14 26  2  0  0  0  0
 14 27  1  0  0  0  0
 15 22  1  0  0  0  0
 15 62  2  0  0  0  0
 16 30  1  0  0  0  0
 17 30  1  0  0  0  0
 17 32  2  0  0  0  0
 17 33  1  0  0  0  0
 18 20  2  0  0  0  0
 18 39  1  0  0  0  0
 19 21  2  0  0  0  0
 19 40  1  0  0  0  0
 20 48  1  0  0  0  0
 21 41  1  0  0  0  0
 22 28  2  0  0  0  0
 22 69  1  0  0  0  0
 23 80  1  0  0  0  0
 24 81  1  0  0  0  0
 25 27  2  0  0  0  0
 25 80  1  0  0  0  0
 26 82  1  0  0  0  0
 27 83  1  0  0  0  0
 28 29  1  0  0  0  0
 28 84  1  0  0  0  0
 29 31  2  0  0  0  0
 29 85  1  0  0  0  0
 30 63  2  0  0  0  0
 31 62  1  0  0  0  0
 31 70  1  0  0  0  0
 32 64  1  0  0  0  0
 32 67  1  0  0  0  0
 33 68  1  0  0  0  0
 33 74  2  0  0  0  0
 34 49  1  0  0  0  0
 34 71  1  0  0  0  0
 34 75  2  0  0  0  0
 35 58  1  0  0  0  0
 35 65  1  0  0  0  0
 35 76  2  0  0  0  0
 36 59  1  0  0  0  0
 36 72  1  0  0  0  0
 36 77  2  0  0  0  0
 37 60  1  0  0  0  0
 37 70  1  0  0  0  0
 37 78  2  0  0  0  0
 38 66  1  0  0  0  0
 38 69  1  0  0  0  0
 38 79  2  0  0  0  0
 39 42  1  0  0  0  0
 40 49  1  0  0  0  0
 41 65  1  0  0  0  0
 42 44  1  0  0  0  0
 43 45  1  0  0  0  0
 43 46  1  0  0  0  0
 44 48  1  0  0  0  0
 45 50  1  0  0  0  0
 46 66  1  0  0  0  0
 47 50  1  0  0  0  0
 47 66  1  0  0  0  0
 48 71  1  0  0  0  0
 49 65  1  0  0  0  0
 50 64  1  0  0  0  0
 51 59  1  0  0  0  0
 52 60  1  0  0  0  0
 53 61  1  0  0  0  0
 54 61  1  0  0  0  0
 55 61  1  0  0  0  0
 56 73  1  0  0  0  0
 57 60  1  0  0  0  0
 57 81  1  0  0  0  0
 58 61  1  0  0  0  0
 58 72  1  0  0  0  0
 59 73  1  0  0  0  0
 60 86  1  0  0  0  0
 63 64  1  0  0  0  0
M  CHG  1  73   1
M  ISO  4  38 100  57 101  69 100  81 101
M  END
> <Batch ID>
0178

> <Smiles>
CNC(C)C(=O)NC(C(=O)N1Cc2cc([101O:1][101CH2:1]C(C)(F)C(=O)Nc3ncc([100NH:0][100C:0](=O)N4CCCC(n5nc(-c6ccc(Oc7ccc(F)cc7F)cc6)c(C(N)=O)c5N)C4)c(F)c3F)ccc2CC1C(=O)NC1CCCc2ccccc21)C(C)(C)C

> <Shape>
0.240

> <Color>
0.184

> <Negative vol penalty>
0.000

$$$$

  -OEChem-04052304443D

 84 92  0     1  0  0  0  0  0999 V2000
  -16.7793  -29.6180   24.0403 C   0  0  0  0  0  0  0  0  0  0  0  0
  -17.9170  -30.1777   24.6126 C   0  0  0  0  0  0  0  0  0  0  0  0
  -26.2632  -13.4428   21.5718 C   0  0  0  0  0  0  0  0  0  0  0  0
  -25.0451  -14.6137   19.8448 C   0  0  0  0  0  0  0  0  0  0  0  0
  -16.9018  -28.5645   23.1353 C   0  0  0  0  0  0  0  0  0  0  0  0
  -19.1781  -29.6835   24.2811 C   0  0  0  0  0  0  0  0  0  0  0  0
  -25.9606  -31.8196   23.4142 C   0  0  0  0  0  0  0  0  0  0  0  0
  -25.4110  -12.3477   21.4303 C   0  0  0  0  0  0  0  0  0  0  0  0
  -24.1930  -13.5185   19.7033 C   0  0  0  0  0  0  0  0  0  0  0  0
  -27.2514  -31.5040   23.8358 C   0  0  0  0  0  0  0  0  0  0  0  0
  -21.5282  -12.2099   21.3212 C   0  0  0  0  0  0  0  0  0  0  0  0
  -20.1587  -12.4610   21.2372 C   0  0  0  0  0  0  0  0  0  0  0  0
  -27.3463  -29.7334   22.2002 C   0  0  0  0  0  0  0  0  0  0  0  0
  -20.1024  -11.4242   19.0557 C   0  0  0  0  0  0  0  0  0  0  0  0
  -26.0802  -14.5759   20.7791 C   0  0  0  0  0  0  0  0  0  0  0  0
  -28.1640  -15.9432   20.2351 C   0  0  0  0  0  0  0  0  0  0  0  0
  -18.1656  -28.0635   22.7851 C   0  0  0  0  0  0  0  0  0  0  0  0
  -25.3477  -31.0863   22.3881 C   0  0  0  0  0  0  0  0  0  0  0  0
  -19.3176  -28.6214   23.3716 C   0  0  0  0  0  0  0  0  0  0  0  0
  -26.0485  -30.0434   21.7656 C   0  0  0  0  0  0  0  0  0  0  0  0
  -24.3759  -12.3855   20.4961 C   0  0  0  0  0  0  0  0  0  0  0  0
  -27.9434  -30.4589   23.2308 C   0  0  0  0  0  0  0  0  0  0  0  0
  -22.1849  -11.5661   20.2724 C   0  0  0  0  0  0  0  0  0  0  0  0
  -19.4458  -12.0681   20.1045 C   0  0  0  0  0  0  0  0  0  0  0  0
  -21.4720  -11.1732   19.1397 C   0  0  0  0  0  0  0  0  0  0  0  0
  -26.9598  -15.7078   20.9251 C   0  0  0  0  0  0  0  0  0  0  0  0
  -30.0461  -25.4253   20.0800 C   0  0  0  0  0  0  0  0  0  0  0  0
  -28.6143  -17.1428   20.7297 C   0  0  0  0  0  0  0  0  0  0  0  0
  -30.3803  -24.7847   18.9053 C   0  0  0  0  0  0  0  0  0  0  0  0
  -29.0759  -23.4971   20.4683 C   0  0  0  0  0  0  0  0  0  0  0  0
  -28.8172  -15.1485   19.2363 C   0  0  0  0  0  0  0  0  0  0  0  0
  -30.4353  -26.8183   20.4174 C   0  0  0  0  0  0  0  0  0  0  0  0
  -22.7556  -29.2586   22.1770 C   0  0  0  0  0  0  0  0  0  0  0  0
  -23.5115  -29.2261   19.0227 C   0  0  0  0  0  0  0  0  0  0  0  0
  -25.9050  -29.5622   16.6134 C   0  0  0  0  0  0  0  0  0  0  0  0
  -30.2328  -28.5698   22.1469 C   0  0  0  0  0  0  0  0  0  0  0  0
  -27.7187  -22.4116   22.2921 C   0  0  0  0  0  0  0  0  0  0  0  0
  -18.2453  -26.8922   21.8383 C   0  0  0  0  0  0  0  0  0  0  0  0
  -23.9648  -31.4566   21.9266 C   0  0  0  0  0  0  0  0  0  0  0  0
  -25.4429  -29.2385   20.6458 C   0  0  0  0  0  0  0  0  0  0  0  0
  -19.6390  -26.6745   21.2547 C   0  0  0  0  0  0  0  0  0  0  0  0
  -27.0412  -19.8708   24.6926 C   0  0  0  0  0  0  0  0  0  0  0  0
  -20.6950  -26.7476   22.3530 C   0  0  0  0  0  0  0  0  0  0  0  0
  -27.0587  -18.5806   23.8697 C   0  0  0  0  0  0  0  0  0  0  0  0
  -26.4323  -21.0337   23.9112 C   0  0  0  0  0  0  0  0  0  0  0  0
  -27.0466  -19.9847   21.7684 C   0  0  0  0  0  0  0  0  0  0  0  0
  -20.7043  -28.1292   23.0183 C   0  0  1  0  0  0  0  0  0  0  0  0
  -23.2432  -30.3116   21.2225 C   0  0  1  0  0  0  0  0  0  0  0  0
  -27.7104  -18.8007   22.4904 C   0  0  2  0  0  0  0  0  0  0  0  0
  -26.2285  -29.4424   14.1277 C   0  0  0  0  0  0  0  0  0  0  0  0
  -30.6042  -28.4844   24.6280 C   0  0  0  0  0  0  0  0  0  0  0  0
  -23.4172  -26.1794   19.1596 C   0  0  0  0  0  0  0  0  0  0  0  0
  -24.6475  -26.1129   16.9801 C   0  0  0  0  0  0  0  0  0  0  0  0
  -22.3884  -27.1635   17.1036 C   0  0  0  0  0  0  0  0  0  0  0  0
  -26.7644  -32.3907   16.4722 C   0  0  0  0  0  0  0  0  0  0  0  0
  -24.3662  -28.3519   18.1371 C   0  0  1  0  0  0  0  0  0  0  0  0
  -25.9222  -30.3449   15.3128 C   0  0  2  0  0  0  0  0  0  0  0  0
  -29.6084  -28.7854   23.5191 C   0  0  1  0  0  0  0  0  0  1  0  0
  -23.7158  -26.9657   17.8675 C   0  0  0  0  0  0  0  0  0  0  0  0
  -26.6638  -16.6797   21.7922 N   0  0  0  0  0  0  0  0  0  0  0  0
  -29.2978  -24.6886   20.9774 N   0  0  0  0  0  0  0  0  0  0  0  0
  -27.6886  -17.5375   21.6503 N   0  0  0  0  0  0  0  0  0  0  0  0
  -24.0860  -29.6350   20.2345 N   0  0  0  0  0  0  0  0  0  0  0  0
  -27.1022  -21.1849   22.6177 N   0  0  0  0  0  0  0  0  0  0  0  0
  -29.7078  -17.8880   20.4626 N   0  0  0  0  0  0  0  0  0  0  0  0
  -31.0987  -25.2659   17.8611 N   0  0  0  0  0  0  0  0  0  0  0  0
  -28.2178  -13.9441   18.8434 N   0  0  0  0  0  0  0  0  0  0  0  0
  -28.3520  -22.4267   21.0498 N   0  0  0  0  0  0  0  0  0  0  0  0
  -29.9986  -27.2839   21.6564 N   0  0  0  0  0  0  0  0  0  0  0  0
  -21.3840  -29.0907   22.1768 N   0  0  0  0  0  0  0  0  0  0  0  0
  -24.6351  -29.1301   16.9327 N   0  0  0  0  0  0  0  0  0  0  0  0
  -26.9562  -31.4168   15.3669 N   0  3  0  0  0  0  0  0  0  0  0  0
  -29.9086  -15.4883   18.7196 O   0  0  0  0  0  0  0  0  0  0  0  0
  -31.0783  -27.4736   19.6017 O   0  0  0  0  0  0  0  0  0  0  0  0
  -23.5641  -28.6428   22.8619 O   0  0  0  0  0  0  0  0  0  0  0  0
  -22.3785  -29.5406   18.6496 O   0  0  0  0  0  0  0  0  0  0  0  0
  -26.9175  -29.3517   17.2775 O   0  0  0  0  0  0  0  0  0  0  0  0
  -30.8494  -29.4540   21.5570 O   0  0  0  0  0  0  0  0  0  0  0  0
  -27.7104  -23.3687   23.0704 O   0  0  0  0  0  0  0  0  0  0  0  0
  -23.5444  -11.3169   20.3576 O   0  0  0  0  0  0  0  0  0  0  0  0
  -29.2033  -30.1483   23.6409 O   0  0  0  0  0  0  0  0  0  1  0  0
  -18.1304  -12.3078   20.0247 F   0  0  0  0  0  0  0  0  0  0  0  0
  -22.0971  -10.5532   18.1294 F   0  0  0  0  0  0  0  0  0  0  0  0
  -29.7384  -23.1943   18.9145 S   0  0  0  0  0  0  0  0  0  0  0  0
  1  2  1  0  0  0  0
  1  5  2  0  0  0  0
  2  6  2  0  0  0  0
  3  8  2  0  0  0  0
  3 15  1  0  0  0  0
  4  9  1  0  0  0  0
  4 15  2  0  0  0  0
  5 17  1  0  0  0  0
  6 19  1  0  0  0  0
  7 10  2  0  0  0  0
  7 18  1  0  0  0  0
  8 21  1  0  0  0  0
  9 21  2  0  0  0  0
 10 22  1  0  0  0  0
 11 12  2  0  0  0  0
 11 23  1  0  0  0  0
 12 24  1  0  0  0  0
 13 20  1  0  0  0  0
 13 22  2  0  0  0  0
 14 24  2  0  0  0  0
 14 25  1  0  0  0  0
 15 26  1  0  0  0  0
 16 26  1  0  0  0  0
 16 28  2  0  0  0  0
 16 31  1  0  0  0  0
 17 19  2  0  0  0  0
 17 38  1  0  0  0  0
 18 20  2  0  0  0  0
 18 39  1  0  0  0  0
 19 47  1  0  0  0  0
 20 40  1  0  0  0  0
 21 80  1  0  0  0  0
 22 81  1  0  0  0  0
 23 25  2  0  0  0  0
 23 80  1  0  0  0  0
 24 82  1  0  0  0  0
 25 83  1  0  0  0  0
 26 60  2  0  0  0  0
 27 29  2  0  0  0  0
 27 32  1  0  0  0  0
 27 61  1  0  0  0  0
 28 62  1  0  0  0  0
 28 65  1  0  0  0  0
 29 66  1  0  0  0  0
 29 84  1  0  0  0  0
 30 61  2  0  0  0  0
 30 68  1  0  0  0  0
 30 84  1  0  0  0  0
 31 67  1  0  0  0  0
 31 73  2  0  0  0  0
 32 69  1  0  0  0  0
 32 74  2  0  0  0  0
 33 48  1  0  0  0  0
 33 70  1  0  0  0  0
 33 75  2  0  0  0  0
 34 56  1  0  0  0  0
 34 63  1  0  0  0  0
 34 76  2  0  0  0  0
 35 57  1  0  0  0  0
 35 71  1  0  0  0  0
 35 77  2  0  0  0  0
 36 58  1  0  0  0  0
 36 69  1  0  0  0  0
 36 78  2  0  0  0  0
 37 64  1  0  0  0  0
 37 68  1  0  0  0  0
 37 79  2  0  0  0  0
 38 41  1  0  0  0  0
 39 48  1  0  0  0  0
 40 63  1  0  0  0  0
 41 43  1  0  0  0  0
 42 44  1  0  0  0  0
 42 45  1  0  0  0  0
 43 47  1  0  0  0  0
 44 49  1  0  0  0  0
 45 64  1  0  0  0  0
 46 49  1  0  0  0  0
 46 64  1  0  0  0  0
 47 70  1  0  0  0  0
 48 63  1  0  0  0  0
 49 62  1  0  0  0  0
 50 57  1  0  0  0  0
 51 58  1  0  0  0  0
 52 59  1  0  0  0  0
 53 59  1  0  0  0  0
 54 59  1  0  0  0  0
 55 72  1  0  0  0  0
 56 59  1  0  0  0  0
 56 71  1  0  0  0  0
 57 72  1  0  0  0  0
 58 81  1  0  0  0  0
 60 62  1  0  0  0  0
M  CHG  1  72   1
M  ISO  4  37 100  58 101  68 100  81 101
M  END
> <Batch ID>
0178

> <Smiles>
CNC(C)C(=O)NC(C(=O)N1Cc2cc([101O:1][101CH:1](C)C(=O)NC(=O)c3nc([100NH:0][100C:0](=O)N4CCCC(n5nc(-c6ccc(Oc7ccc(F)cc7F)cc6)c(C(N)=O)c5N)C4)sc3N)ccc2CC1C(=O)NC1CCCc2ccccc21)C(C)(C)C

> <Shape>
0.297

> <Color>
0.099

> <Negative vol penalty>
0.000

$$$$

  -OEChem-04052304443D

 86 94  0     1  0  0  0  0  0999 V2000
  -22.5852   -8.4939   23.8735 C   0  0  0  0  0  0  0  0  0  0  0  0
  -23.4501   -9.1321   22.9902 C   0  0  0  0  0  0  0  0  0  0  0  0
  -22.4194  -28.3973   20.7440 C   0  0  0  0  0  0  0  0  0  0  0  0
  -23.1717  -26.5353   22.0871 C   0  0  0  0  0  0  0  0  0  0  0  0
  -21.3013   -8.9981   24.0769 C   0  0  0  0  0  0  0  0  0  0  0  0
  -23.0311  -10.2744   22.3090 C   0  0  0  0  0  0  0  0  0  0  0  0
  -26.5308  -13.9345   22.3170 C   0  0  0  0  0  0  0  0  0  0  0  0
  -21.1141  -28.1923   21.1908 C   0  0  0  0  0  0  0  0  0  0  0  0
  -21.8663  -26.3303   22.5340 C   0  0  0  0  0  0  0  0  0  0  0  0
  -27.5938  -13.8011   21.4248 C   0  0  0  0  0  0  0  0  0  0  0  0
  -17.6441  -28.3852   22.2572 C   0  0  0  0  0  0  0  0  0  0  0  0
  -16.9090  -29.5044   22.6478 C   0  0  0  0  0  0  0  0  0  0  0  0
  -26.5151  -15.3456   19.9181 C   0  0  0  0  0  0  0  0  0  0  0  0
  -18.5555  -29.9928   24.3472 C   0  0  0  0  0  0  0  0  0  0  0  0
  -30.3936  -21.5207   17.5693 C   0  0  0  0  0  0  0  0  0  0  0  0
  -23.4482  -27.5688   21.1921 C   0  0  0  0  0  0  0  0  0  0  0  0
  -25.7780  -28.6002   21.3185 C   0  0  0  0  0  0  0  0  0  0  0  0
  -20.8697  -10.1527   23.4051 C   0  0  0  0  0  0  0  0  0  0  0  0
  -25.4450  -14.7675   22.0111 C   0  0  0  0  0  0  0  0  0  0  0  0
  -21.7397  -10.7937   22.5025 C   0  0  0  0  0  0  0  0  0  0  0  0
  -25.4408  -15.4899   20.8092 C   0  0  0  0  0  0  0  0  0  0  0  0
  -20.8375  -27.1588   22.0858 C   0  0  0  0  0  0  0  0  0  0  0  0
  -27.5847  -14.5044   20.2238 C   0  0  0  0  0  0  0  0  0  0  0  0
  -18.8349  -28.0697   22.9117 C   0  0  0  0  0  0  0  0  0  0  0  0
  -17.3647  -30.3082   23.6927 C   0  0  0  0  0  0  0  0  0  0  0  0
  -19.2906  -28.8735   23.9566 C   0  0  0  0  0  0  0  0  0  0  0  0
  -24.7967  -27.7798   20.7304 C   0  0  0  0  0  0  0  0  0  0  0  0
  -26.8766  -28.4573   20.5066 C   0  0  0  0  0  0  0  0  0  0  0  0
  -29.5058  -22.2595   18.3231 C   0  0  0  0  0  0  0  0  0  0  0  0
  -30.5044  -20.3686   19.4322 C   0  0  0  0  0  0  0  0  0  0  0  0
  -25.7032  -29.4182   22.4936 C   0  0  0  0  0  0  0  0  0  0  0  0
  -31.2161  -15.6538   19.5482 C   0  0  0  0  0  0  0  0  0  0  0  0
  -30.9341  -16.8374   20.4293 C   0  0  0  0  0  0  0  0  0  0  0  0
  -22.3292  -14.3200   21.5693 C   0  0  0  0  0  0  0  0  0  0  0  0
  -22.2820  -17.5597   21.4140 C   0  0  0  0  0  0  0  0  0  0  0  0
  -23.9787  -20.4557   20.7967 C   0  0  0  0  0  0  0  0  0  0  0  0
  -28.6950  -24.1158   16.8255 C   0  0  0  0  0  0  0  0  0  0  0  0
  -19.4566  -10.6330   23.6216 C   0  0  0  0  0  0  0  0  0  0  0  0
  -24.3188  -14.9213   22.9961 C   0  0  0  0  0  0  0  0  0  0  0  0
  -24.3084  -16.4128   20.4427 C   0  0  0  0  0  0  0  0  0  0  0  0
  -19.2195  -12.0634   23.1439 C   0  0  0  0  0  0  0  0  0  0  0  0
  -28.0822  -27.5168   15.9683 C   0  0  0  0  0  0  0  0  0  0  0  0
  -19.8126  -12.2670   21.7534 C   0  0  0  0  0  0  0  0  0  0  0  0
  -27.2646  -28.0465   17.1486 C   0  0  0  0  0  0  0  0  0  0  0  0
  -27.7249  -26.0694   15.6350 C   0  0  0  0  0  0  0  0  0  0  0  0
  -26.9764  -25.6662   17.9472 C   0  0  0  0  0  0  0  0  0  0  0  0
  -21.3305  -12.0494   21.7636 C   0  0  1  0  0  0  0  0  0  0  0  0
  -23.0219  -15.4001   22.3510 C   0  0  1  0  0  0  0  0  0  0  0  0
  -27.3474  -27.0994   18.3617 C   0  0  2  0  0  0  0  0  0  0  0  0
  -32.1039  -19.7299   21.2831 C   0  0  0  0  0  0  0  0  0  0  0  0
  -30.8560  -14.2921   17.4892 C   0  0  0  0  0  0  0  0  0  0  0  0
  -23.6637  -22.9439   20.7134 C   0  0  0  0  0  0  0  0  0  0  0  0
  -20.8447  -17.2857   18.7365 C   0  0  0  0  0  0  0  0  0  0  0  0
  -21.4035  -19.6812   18.2704 C   0  0  0  0  0  0  0  0  0  0  0  0
  -19.9570  -19.0956   20.2165 C   0  0  0  0  0  0  0  0  0  0  0  0
  -25.9767  -20.8969   22.9350 C   0  0  0  0  0  0  0  0  0  0  0  0
  -28.9201  -15.5018   18.5274 C   0  0  0  0  0  0  0  0  0  1  0  0
  -30.9008  -19.3116   20.4403 C   0  0  2  0  0  0  0  0  0  0  0  0
  -30.4253  -15.5428   18.2506 C   0  0  1  0  0  0  0  0  0  0  0  0
  -22.4302  -18.5795   20.3108 C   0  0  1  0  0  0  0  0  0  0  0  0
  -24.0670  -21.7567   21.5740 C   0  0  2  0  0  0  0  0  0  0  0  0
  -21.1794  -18.6417   19.3893 C   0  0  0  0  0  0  0  0  0  0  0  0
  -30.9675  -20.4363   18.2038 N   0  0  0  0  0  0  0  0  0  0  0  0
  -25.2334  -27.1616   19.6299 N   0  0  0  0  0  0  0  0  0  0  0  0
  -26.5011  -27.5939   19.5199 N   0  0  0  0  0  0  0  0  0  0  0  0
  -23.2274  -16.5246   21.4359 N   0  0  0  0  0  0  0  0  0  0  0  0
  -27.8297  -25.2303   16.8307 N   0  0  0  0  0  0  0  0  0  0  0  0
  -28.1175  -28.9873   20.5476 N   0  0  0  0  0  0  0  0  0  0  0  0
  -24.4991  -29.4497   23.2102 N   0  0  0  0  0  0  0  0  0  0  0  0
  -28.7362  -23.4122   18.0287 N   0  0  0  0  0  0  0  0  0  0  0  0
  -31.1467  -18.0416   19.7988 N   0  0  0  0  0  0  0  0  0  0  0  0
  -22.0030  -13.2050   22.3175 N   0  0  0  0  0  0  0  0  0  0  0  0
  -22.7548  -19.8430   20.9637 N   0  0  0  0  0  0  0  0  0  0  0  0
  -25.4593  -21.9780   22.0572 N   0  3  0  0  0  0  0  0  0  0  0  0
  -26.6701  -30.1138   22.8870 O   0  0  0  0  0  0  0  0  0  0  0  0
  -32.0608  -14.8634   19.9449 O   0  0  0  0  0  0  0  0  0  0  0  0
  -30.5295  -16.6222   21.5608 O   0  0  0  0  0  0  0  0  0  0  0  0
  -22.1059  -14.4865   20.3759 O   0  0  0  0  0  0  0  0  0  0  0  0
  -21.3655  -17.6812   22.2307 O   0  0  0  0  0  0  0  0  0  0  0  0
  -24.9017  -20.0278   20.1072 O   0  0  0  0  0  0  0  0  0  0  0  0
  -29.3718  -23.8243   15.8360 O   0  0  0  0  0  0  0  0  0  0  0  0
  -19.5639  -26.9586   22.5222 O   0  0  0  0  0  0  0  0  0  0  0  0
  -28.6206  -14.3754   19.3508 O   0  0  0  0  0  0  0  0  0  1  0  0
  -16.6595  -31.3839   24.0667 F   0  0  0  0  0  0  0  0  0  0  0  0
  -20.4344  -28.5761   24.5883 F   0  0  0  0  0  0  0  0  0  0  0  0
  -29.3751  -21.5766   19.8909 S   0  0  0  0  0  0  0  0  0  0  0  0
  1  2  1  0  0  0  0
  1  5  2  0  0  0  0
  2  6  2  0  0  0  0
  3  8  2  0  0  0  0
  3 16  1  0  0  0  0
  4  9  1  0  0  0  0
  4 16  2  0  0  0  0
  5 18  1  0  0  0  0
  6 20  1  0  0  0  0
  7 10  2  0  0  0  0
  7 19  1  0  0  0  0
  8 22  1  0  0  0  0
  9 22  2  0  0  0  0
 10 23  1  0  0  0  0
 11 12  2  0  0  0  0
 11 24  1  0  0  0  0
 12 25  1  0  0  0  0
 13 21  1  0  0  0  0
 13 23  2  0  0  0  0
 14 25  2  0  0  0  0
 14 26  1  0  0  0  0
 15 29  2  0  0  0  0
 15 63  1  0  0  0  0
 16 27  1  0  0  0  0
 17 27  1  0  0  0  0
 17 28  2  0  0  0  0
 17 31  1  0  0  0  0
 18 20  2  0  0  0  0
 18 38  1  0  0  0  0
 19 21  2  0  0  0  0
 19 39  1  0  0  0  0
 20 47  1  0  0  0  0
 21 40  1  0  0  0  0
 22 82  1  0  0  0  0
 23 83  1  0  0  0  0
 24 26  2  0  0  0  0
 24 82  1  0  0  0  0
 25 84  1  0  0  0  0
 26 85  1  0  0  0  0
 27 64  2  0  0  0  0
 28 65  1  0  0  0  0
 28 68  1  0  0  0  0
 29 70  1  0  0  0  0
 29 86  1  0  0  0  0
 30 58  1  0  0  0  0
 30 63  2  0  0  0  0
 30 86  1  0  0  0  0
 31 69  1  0  0  0  0
 31 75  2  0  0  0  0
 32 33  1  0  0  0  0
 32 59  1  0  0  0  0
 32 76  2  0  0  0  0
 33 71  1  0  0  0  0
 33 77  2  0  0  0  0
 34 48  1  0  0  0  0
 34 72  1  0  0  0  0
 34 78  2  0  0  0  0
 35 60  1  0  0  0  0
 35 66  1  0  0  0  0
 35 79  2  0  0  0  0
 36 61  1  0  0  0  0
 36 73  1  0  0  0  0
 36 80  2  0  0  0  0
 37 67  1  0  0  0  0
 37 70  1  0  0  0  0
 37 81  2  0  0  0  0
 38 41  1  0  0  0  0
 39 48  1  0  0  0  0
 40 66  1  0  0  0  0
 41 43  1  0  0  0  0
 42 44  1  0  0  0  0
 42 45  1  0  0  0  0
 43 47  1  0  0  0  0
 44 49  1  0  0  0  0
 45 67  1  0  0  0  0
 46 49  1  0  0  0  0
 46 67  1  0  0  0  0
 47 72  1  0  0  0  0
 48 66  1  0  0  0  0
 49 65  1  0  0  0  0
 50 58  1  0  0  0  0
 51 59  1  0  0  0  0
 52 61  1  0  0  0  0
 53 62  1  0  0  0  0
 54 62  1  0  0  0  0
 55 62  1  0  0  0  0
 56 74  1  0  0  0  0
 57 59  1  0  0  0  0
 57 83  1  0  0  0  0
 58 71  1  0  0  0  0
 60 62  1  0  0  0  0
 60 73  1  0  0  0  0
 61 74  1  0  0  0  0
 64 65  1  0  0  0  0
M  CHG  1  74   1
M  ISO  4  37 100  57 101  70 100  83 101
M  END
> <Batch ID>
0178

> <Smiles>
CNC(C)C(=O)NC(C(=O)N1Cc2cc([101O:1][101CH2:1]C(C)C(=O)C(=O)NC(C)c3ncc([100NH:0][100C:0](=O)N4CCCC(n5nc(-c6ccc(Oc7ccc(F)cc7F)cc6)c(C(N)=O)c5N)C4)s3)ccc2CC1C(=O)NC1CCCc2ccccc21)C(C)(C)C

> <Shape>
0.222

> <Color>
0.077

> <Negative vol penalty>
0.000

$$$$

  -OEChem-04052304443D

 86 94  0     1  0  0  0  0  0999 V2000
  -22.3152  -16.1641   25.3099 C   0  0  0  0  0  0  0  0  0  0  0  0
  -23.4115  -16.9888   25.5416 C   0  0  0  0  0  0  0  0  0  0  0  0
  -22.9610  -10.0636   19.9647 C   0  0  0  0  0  0  0  0  0  0  0  0
  -23.8164   -9.9226   22.2198 C   0  0  0  0  0  0  0  0  0  0  0  0
  -21.4142  -16.4739   24.2920 C   0  0  0  0  0  0  0  0  0  0  0  0
  -23.6079  -18.1231   24.7547 C   0  0  0  0  0  0  0  0  0  0  0  0
  -25.9634  -23.4844   26.5473 C   0  0  0  0  0  0  0  0  0  0  0  0
  -22.1713   -8.9369   20.1938 C   0  0  0  0  0  0  0  0  0  0  0  0
  -23.0266   -8.7959   22.4489 C   0  0  0  0  0  0  0  0  0  0  0  0
  -27.2411  -24.0313   26.4373 C   0  0  0  0  0  0  0  0  0  0  0  0
  -19.7908   -8.1263   23.1569 C   0  0  0  0  0  0  0  0  0  0  0  0
  -19.0829   -8.0661   24.3572 C   0  0  0  0  0  0  0  0  0  0  0  0
  -26.5606  -25.2043   24.4422 C   0  0  0  0  0  0  0  0  0  0  0  0
  -20.2553   -6.0376   24.9469 C   0  0  0  0  0  0  0  0  0  0  0  0
  -32.5869  -18.1936   21.9844 C   0  0  0  0  0  0  0  0  0  0  0  0
  -30.1584  -17.4441   22.8017 C   0  0  0  0  0  0  0  0  0  0  0  0
  -23.7836  -10.5565   20.9777 C   0  0  0  0  0  0  0  0  0  0  0  0
  -24.2466  -13.0650   20.9600 C   0  0  0  0  0  0  0  0  0  0  0  0
  -21.5944  -17.6178   23.4985 C   0  0  0  0  0  0  0  0  0  0  0  0
  -24.9762  -23.7853   25.5979 C   0  0  0  0  0  0  0  0  0  0  0  0
  -22.7092  -18.4476   23.7243 C   0  0  0  0  0  0  0  0  0  0  0  0
  -25.2704  -24.6619   24.5439 C   0  0  0  0  0  0  0  0  0  0  0  0
  -22.2041   -8.3030   21.4358 C   0  0  0  0  0  0  0  0  0  0  0  0
  -27.5407  -24.8891   25.3830 C   0  0  0  0  0  0  0  0  0  0  0  0
  -20.7309   -7.1421   22.8515 C   0  0  0  0  0  0  0  0  0  0  0  0
  -19.3151   -7.0218   25.2523 C   0  0  0  0  0  0  0  0  0  0  0  0
  -20.9631   -6.0978   23.7465 C   0  0  0  0  0  0  0  0  0  0  0  0
  -24.6000  -11.7200   20.7416 C   0  0  0  0  0  0  0  0  0  0  0  0
  -31.8636  -18.9665   22.8659 C   0  0  0  0  0  0  0  0  0  0  0  0
  -30.8813  -16.6715   21.9197 C   0  0  0  0  0  0  0  0  0  0  0  0
  -25.3588  -13.7777   20.5836 C   0  0  0  0  0  0  0  0  0  0  0  0
  -23.0225  -13.6206   21.4585 C   0  0  0  0  0  0  0  0  0  0  0  0
  -23.2844  -22.0911   23.5071 C   0  0  0  0  0  0  0  0  0  0  0  0
  -21.7646  -24.9180   23.0366 C   0  0  0  0  0  0  0  0  0  0  0  0
  -31.6111  -22.6156   23.4812 C   0  0  0  0  0  0  0  0  0  0  0  0
  -21.8620  -28.3246   23.2155 C   0  0  0  0  0  0  0  0  0  0  0  0
  -30.8731  -14.5488   20.5630 C   0  0  0  0  0  0  0  0  0  0  0  0
  -20.6198  -17.8857   22.3791 C   0  0  0  0  0  0  0  0  0  0  0  0
  -23.5950  -23.2082   25.7458 C   0  0  0  0  0  0  0  0  0  0  0  0
  -24.2401  -25.0327   23.5097 C   0  0  0  0  0  0  0  0  0  0  0  0
  -20.6943  -19.3098   21.8345 C   0  0  0  0  0  0  0  0  0  0  0  0
  -29.5398  -12.3094   18.1372 C   0  0  0  0  0  0  0  0  0  0  0  0
  -22.1456  -19.7159   21.5984 C   0  0  0  0  0  0  0  0  0  0  0  0
  -28.1067  -12.0671   18.6165 C   0  0  0  0  0  0  0  0  0  0  0  0
  -30.5151  -12.4352   19.3062 C   0  0  0  0  0  0  0  0  0  0  0  0
  -28.7070  -13.1828   20.8032 C   0  0  0  0  0  0  0  0  0  0  0  0
  -22.9429  -19.7004   22.9082 C   0  0  1  0  0  0  0  0  0  0  0  0
  -22.8168  -23.1774   24.4340 C   0  0  1  0  0  0  0  0  0  0  0  0
  -27.6779  -13.1141   19.6631 C   0  0  2  0  0  0  0  0  0  0  0  0
  -33.2423  -20.0703   24.6750 C   0  0  0  0  0  0  0  0  0  0  0  0
  -20.4833  -30.3632   22.7247 C   0  0  0  0  0  0  0  0  0  0  0  0
  -29.4916  -27.2165   23.8460 C   0  0  0  0  0  0  0  0  0  0  0  0
  -22.3495  -24.5939   20.0596 C   0  0  0  0  0  0  0  0  0  0  0  0
  -21.8240  -27.0237   19.7630 C   0  0  0  0  0  0  0  0  0  0  0  0
  -20.0630  -25.4600   20.5853 C   0  0  0  0  0  0  0  0  0  0  0  0
  -21.8728  -29.1579   26.0553 C   0  0  0  0  0  0  0  0  0  0  0  0
  -30.3488  -23.4090   23.7762 C   0  0  0  0  0  0  0  0  0  0  0  0
  -30.5360  -24.9239   23.6641 C   0  0  0  0  0  0  0  0  0  0  0  0
  -32.4327  -20.2654   23.3947 C   0  0  2  0  0  0  0  0  0  0  0  0
  -21.9666  -26.1009   22.1207 C   0  0  1  0  0  0  0  0  0  0  0  0
  -20.8733  -29.3327   23.7729 C   0  0  2  0  0  0  0  0  0  0  0  0
  -29.2547  -25.7159   23.9566 C   0  0  1  0  0  0  0  0  0  1  0  0
  -21.5710  -25.7863   20.6504 C   0  0  0  0  0  0  0  0  0  0  0  0
  -30.6366  -18.6055   23.2907 N   0  0  0  0  0  0  0  0  0  0  0  0
  -32.1086  -17.0324   21.4952 N   0  0  0  0  0  0  0  0  0  0  0  0
  -25.8397  -11.5837   20.2634 N   0  0  0  0  0  0  0  0  0  0  0  0
  -26.2749  -12.8523   20.1781 N   0  0  0  0  0  0  0  0  0  0  0  0
  -22.9061  -24.4378   23.6940 N   0  0  0  0  0  0  0  0  0  0  0  0
  -30.0462  -13.4480   20.2546 N   0  0  0  0  0  0  0  0  0  0  0  0
  -25.6326  -15.0995   20.5632 N   0  0  0  0  0  0  0  0  0  0  0  0
  -21.9813  -12.7459   21.7980 N   0  0  0  0  0  0  0  0  0  0  0  0
  -30.3082  -15.4632   21.4515 N   0  0  0  0  0  0  0  0  0  0  0  0
  -22.6471  -20.8793   23.6938 N   0  0  0  0  0  0  0  0  0  0  0  0
  -31.3941  -21.2501   23.5948 N   0  0  0  0  0  0  0  0  0  0  0  0
  -21.2258  -27.2084   22.7149 N   0  0  0  0  0  0  0  0  0  0  0  0
  -21.4650  -30.0486   24.9384 N   0  3  0  0  0  0  0  0  0  0  0  0
  -22.8510  -14.8569   21.5834 O   0  0  0  0  0  0  0  0  0  0  0  0
  -24.1576  -22.3348   22.6826 O   0  0  0  0  0  0  0  0  0  0  0  0
  -20.6343  -24.4422   23.1696 O   0  0  0  0  0  0  0  0  0  0  0  0
  -32.6859  -23.1408   23.2036 O   0  0  0  0  0  0  0  0  0  0  0  0
  -23.0768  -28.5106   23.2200 O   0  0  0  0  0  0  0  0  0  0  0  0
  -31.9885  -14.6854   20.0539 O   0  0  0  0  0  0  0  0  0  0  0  0
  -21.4335   -7.2037   21.6598 O   0  0  0  0  0  0  0  0  0  0  0  0
  -28.7873  -25.4238   25.2728 O   0  0  0  0  0  0  0  0  0  1  0  0
  -18.6363   -6.9649   26.4056 F   0  0  0  0  0  0  0  0  0  0  0  0
  -21.8659   -5.1500   23.4592 F   0  0  0  0  0  0  0  0  0  0  0  0
  1  2  1  0  0  0  0
  1  5  2  0  0  0  0
  2  6  2  0  0  0  0
  3  8  2  0  0  0  0
  3 17  1  0  0  0  0
  4  9  1  0  0  0  0
  4 17  2  0  0  0  0
  5 19  1  0  0  0  0
  6 21  1  0  0  0  0
  7 10  2  0  0  0  0
  7 20  1  0  0  0  0
  8 23  1  0  0  0  0
  9 23  2  0  0  0  0
 10 24  1  0  0  0  0
 11 12  2  0  0  0  0
 11 25  1  0  0  0  0
 12 26  1  0  0  0  0
 13 22  1  0  0  0  0
 13 24  2  0  0  0  0
 14 26  2  0  0  0  0
 14 27  1  0  0  0  0
 15 29  1  0  0  0  0
 15 65  2  0  0  0  0
 16 30  2  0  0  0  0
 16 64  1  0  0  0  0
 17 28  1  0  0  0  0
 18 28  1  0  0  0  0
 18 31  2  0  0  0  0
 18 32  1  0  0  0  0
 19 21  2  0  0  0  0
 19 38  1  0  0  0  0
 20 22  2  0  0  0  0
 20 39  1  0  0  0  0
 21 47  1  0  0  0  0
 22 40  1  0  0  0  0
 23 83  1  0  0  0  0
 24 84  1  0  0  0  0
 25 27  2  0  0  0  0
 25 83  1  0  0  0  0
 26 85  1  0  0  0  0
 27 86  1  0  0  0  0
 28 66  2  0  0  0  0
 29 59  1  0  0  0  0
 29 64  2  0  0  0  0
 30 65  1  0  0  0  0
 30 72  1  0  0  0  0
 31 67  1  0  0  0  0
 31 70  1  0  0  0  0
 32 71  1  0  0  0  0
 32 77  2  0  0  0  0
 33 48  1  0  0  0  0
 33 73  1  0  0  0  0
 33 78  2  0  0  0  0
 34 60  1  0  0  0  0
 34 68  1  0  0  0  0
 34 79  2  0  0  0  0
 35 57  1  0  0  0  0
 35 74  1  0  0  0  0
 35 80  2  0  0  0  0
 36 61  1  0  0  0  0
 36 75  1  0  0  0  0
 36 81  2  0  0  0  0
 37 69  1  0  0  0  0
 37 72  1  0  0  0  0
 37 82  2  0  0  0  0
 38 41  1  0  0  0  0
 39 48  1  0  0  0  0
 40 68  1  0  0  0  0
 41 43  1  0  0  0  0
 42 44  1  0  0  0  0
 42 45  1  0  0  0  0
 43 47  1  0  0  0  0
 44 49  1  0  0  0  0
 45 69  1  0  0  0  0
 46 49  1  0  0  0  0
 46 69  1  0  0  0  0
 47 73  1  0  0  0  0
 48 68  1  0  0  0  0
 49 67  1  0  0  0  0
 50 59  1  0  0  0  0
 51 61  1  0  0  0  0
 52 62  1  0  0  0  0
 53 63  1  0  0  0  0
 54 63  1  0  0  0  0
 55 63  1  0  0  0  0
 56 76  1  0  0  0  0
 57 58  1  0  0  0  0
 58 62  1  0  0  0  0
 59 74  1  0  0  0  0
 60 63  1  0  0  0  0
 60 75  1  0  0  0  0
 61 76  1  0  0  0  0
 62 84  1  0  0  0  0
 66 67  1  0  0  0  0
M  CHG  1  76   1
M  ISO  4  37 100  62 101  72 100  84 101
M  END
> <Batch ID>
0178

> <Smiles>
CNC(C)C(=O)NC(C(=O)N1Cc2cc([101O:1][101CH:1](C)CCC(=O)NC(C)c3cnc([100NH:0][100C:0](=O)N4CCCC(n5nc(-c6ccc(Oc7ccc(F)cc7F)cc6)c(C(N)=O)c5N)C4)cn3)ccc2CC1C(=O)NC1CCCc2ccccc21)C(C)(C)C

> <Shape>
0.209

> <Color>
0.196

> <Negative vol penalty>
0.000

$$$$

  -OEChem-04052304443D

 85 93  0     1  0  0  0  0  0999 V2000
  -31.1925  -35.0564   23.2610 C   0  0  0  0  0  0  0  0  0  0  0  0
  -31.0812  -33.8902   22.5108 C   0  0  0  0  0  0  0  0  0  0  0  0
  -24.5564   -9.1028   21.9185 C   0  0  0  0  0  0  0  0  0  0  0  0
  -23.0388   -9.9211   20.2260 C   0  0  0  0  0  0  0  0  0  0  0  0
  -30.3717  -35.2507   24.3712 C   0  0  0  0  0  0  0  0  0  0  0  0
  -30.1498  -32.9170   22.8709 C   0  0  0  0  0  0  0  0  0  0  0  0
  -26.9736  -29.2858   19.0984 C   0  0  0  0  0  0  0  0  0  0  0  0
  -23.5448   -8.2924   22.4337 C   0  0  0  0  0  0  0  0  0  0  0  0
  -22.0272   -9.1106   20.7412 C   0  0  0  0  0  0  0  0  0  0  0  0
  -27.1626  -27.9677   18.6853 C   0  0  0  0  0  0  0  0  0  0  0  0
  -22.0889   -5.3375   21.6709 C   0  0  0  0  0  0  0  0  0  0  0  0
  -22.4130   -4.0182   21.9870 C   0  0  0  0  0  0  0  0  0  0  0  0
  -23.0220  -18.6046   16.5440 C   0  0  0  0  0  0  0  0  0  0  0  0
  -23.4223  -19.9334   16.6285 C   0  0  0  0  0  0  0  0  0  0  0  0
  -25.6365  -27.2188   20.3968 C   0  0  0  0  0  0  0  0  0  0  0  0
  -21.7892   -4.4158   24.2869 C   0  0  0  0  0  0  0  0  0  0  0  0
  -24.3034   -9.9172   20.8146 C   0  0  0  0  0  0  0  0  0  0  0  0
  -26.2808  -10.4191   19.2831 C   0  0  0  0  0  0  0  0  0  0  0  0
  -29.4230  -34.2837   24.7394 C   0  0  0  0  0  0  0  0  0  0  0  0
  -26.1216  -29.5798   20.1726 C   0  0  0  0  0  0  0  0  0  0  0  0
  -29.3164  -33.0979   23.9878 C   0  0  0  0  0  0  0  0  0  0  0  0
  -25.4365  -28.5417   20.8200 C   0  0  0  0  0  0  0  0  0  0  0  0
  -22.2802   -8.2963   21.8451 C   0  0  0  0  0  0  0  0  0  0  0  0
  -26.4963  -26.9337   19.3364 C   0  0  0  0  0  0  0  0  0  0  0  0
  -21.6150   -6.1961   22.6629 C   0  0  0  0  0  0  0  0  0  0  0  0
  -22.2631   -3.5573   23.2949 C   0  0  0  0  0  0  0  0  0  0  0  0
  -23.5753  -17.6616   17.4030 C   0  0  0  0  0  0  0  0  0  0  0  0
  -21.4651   -5.7352   23.9709 C   0  0  0  0  0  0  0  0  0  0  0  0
  -25.3478  -10.7550   20.2823 C   0  0  0  0  0  0  0  0  0  0  0  0
  -24.3716  -20.2654   17.5816 C   0  0  0  0  0  0  0  0  0  0  0  0
  -24.5179  -18.0953   18.3213 C   0  0  0  0  0  0  0  0  0  0  0  0
  -27.0499  -11.5478   19.1380 C   0  0  0  0  0  0  0  0  0  0  0  0
  -26.4381   -9.1961   18.5514 C   0  0  0  0  0  0  0  0  0  0  0  0
  -24.9413  -23.9720   17.2761 C   0  0  0  0  0  0  0  0  0  0  0  0
  -24.3184  -22.6636   16.8829 C   0  0  0  0  0  0  0  0  0  0  0  0
  -26.4990  -30.9044   23.0374 C   0  0  0  0  0  0  0  0  0  0  0  0
  -23.2654  -30.6693   23.1412 C   0  0  0  0  0  0  0  0  0  0  0  0
  -20.4360  -29.1196   22.0278 C   0  0  0  0  0  0  0  0  0  0  0  0
  -26.0344  -17.3421   20.1866 C   0  0  0  0  0  0  0  0  0  0  0  0
  -28.5905  -34.5172   25.9752 C   0  0  0  0  0  0  0  0  0  0  0  0
  -25.9078  -31.0093   20.5888 C   0  0  0  0  0  0  0  0  0  0  0  0
  -24.4952  -28.8062   21.9656 C   0  0  0  0  0  0  0  0  0  0  0  0
  -27.3707  -33.6042   26.0693 C   0  0  0  0  0  0  0  0  0  0  0  0
  -28.6263  -15.3461   21.5920 C   0  0  0  0  0  0  0  0  0  0  0  0
  -27.7585  -32.1617   25.7604 C   0  0  0  0  0  0  0  0  0  0  0  0
  -28.1676  -13.9117   21.3193 C   0  0  0  0  0  0  0  0  0  0  0  0
  -27.4508  -16.2646   21.9209 C   0  0  0  0  0  0  0  0  0  0  0  0
  -25.9010  -14.8185   20.6654 C   0  0  0  0  0  0  0  0  0  0  0  0
  -28.3010  -32.0300   24.3322 C   0  0  1  0  0  0  0  0  0  0  0  0
  -25.4144  -31.1458   22.0259 C   0  0  1  0  0  0  0  0  0  0  0  0
  -27.0433  -13.8703   20.2658 C   0  0  2  0  0  0  0  0  0  0  0  0
  -17.9439  -29.1194   22.3230 C   0  0  0  0  0  0  0  0  0  0  0  0
  -23.5825  -29.2012   25.7972 C   0  0  0  0  0  0  0  0  0  0  0  0
  -21.2181  -28.4119   25.5635 C   0  0  0  0  0  0  0  0  0  0  0  0
  -21.7052  -30.8523   25.7356 C   0  0  0  0  0  0  0  0  0  0  0  0
  -19.9833  -29.8251   19.1895 C   0  0  0  0  0  0  0  0  0  0  0  0
  -26.4440  -24.0708   17.1310 C   0  0  0  0  0  0  0  0  0  0  0  0
  -26.9757  -25.4312   17.5564 C   0  0  0  0  0  0  0  0  0  1  0  0
  -22.2841  -29.6201   23.6052 C   0  0  1  0  0  0  0  0  0  0  0  0
  -19.1147  -29.6739   21.5264 C   0  0  2  0  0  0  0  0  0  0  0  0
  -22.2166  -29.5159   25.1551 C   0  0  0  0  0  0  0  0  0  0  0  0
  -25.5079  -11.9997   20.7398 N   0  0  0  0  0  0  0  0  0  0  0  0
  -24.9317  -19.3774   18.4332 N   0  0  0  0  0  0  0  0  0  0  0  0
  -26.5505  -12.4557   20.0248 N   0  0  0  0  0  0  0  0  0  0  0  0
  -24.3242  -30.2199   22.3396 N   0  0  0  0  0  0  0  0  0  0  0  0
  -26.4272  -16.1761   20.8772 N   0  0  0  0  0  0  0  0  0  0  0  0
  -28.0979  -11.8422   18.3397 N   0  0  0  0  0  0  0  0  0  0  0  0
  -25.5626   -8.1364   18.8251 N   0  0  0  0  0  0  0  0  0  0  0  0
  -24.7723  -21.6196   17.6596 N   0  0  0  0  0  0  0  0  0  0  0  0
  -25.0781  -17.1298   19.1941 N   0  0  0  0  0  0  0  0  0  0  0  0
  -27.2145  -32.0370   23.3762 N   0  0  0  0  0  0  0  0  0  0  0  0
  -21.0103  -29.9440   22.9721 N   0  0  0  0  0  0  0  0  0  0  0  0
  -18.9161  -29.3217   20.0920 N   0  3  0  0  0  0  0  0  0  0  0  0
  -27.3391   -9.0419   17.6924 O   0  0  0  0  0  0  0  0  0  0  0  0
  -24.1916  -24.8529   17.6691 O   0  0  0  0  0  0  0  0  0  0  0  0
  -23.5016  -22.6978   15.9776 O   0  0  0  0  0  0  0  0  0  0  0  0
  -26.6728  -29.7746   23.4789 O   0  0  0  0  0  0  0  0  0  0  0  0
  -23.0945  -31.8453   23.4718 O   0  0  0  0  0  0  0  0  0  0  0  0
  -20.9092  -28.0592   21.6251 O   0  0  0  0  0  0  0  0  0  0  0  0
  -26.5312  -18.4432   20.4373 O   0  0  0  0  0  0  0  0  0  0  0  0
  -21.2929   -7.5054   22.3474 O   0  0  0  0  0  0  0  0  0  0  0  0
  -26.6795  -25.6462   18.9356 O   0  0  0  0  0  0  0  0  0  1  0  0
  -22.5729   -2.2899   23.5979 F   0  0  0  0  0  0  0  0  0  0  0  0
  -23.1992  -16.3782   17.3329 F   0  0  0  0  0  0  0  0  0  0  0  0
  -21.0091   -6.5550   24.9279 F   0  0  0  0  0  0  0  0  0  0  0  0
  1  2  1  0  0  0  0
  1  5  2  0  0  0  0
  2  6  2  0  0  0  0
  3  8  2  0  0  0  0
  3 17  1  0  0  0  0
  4  9  1  0  0  0  0
  4 17  2  0  0  0  0
  5 19  1  0  0  0  0
  6 21  1  0  0  0  0
  7 10  2  0  0  0  0
  7 20  1  0  0  0  0
  8 23  1  0  0  0  0
  9 23  2  0  0  0  0
 10 24  1  0  0  0  0
 11 12  2  0  0  0  0
 11 25  1  0  0  0  0
 12 26  1  0  0  0  0
 13 14  2  0  0  0  0
 13 27  1  0  0  0  0
 14 30  1  0  0  0  0
 15 22  1  0  0  0  0
 15 24  2  0  0  0  0
 16 26  2  0  0  0  0
 16 28  1  0  0  0  0
 17 29  1  0  0  0  0
 18 29  1  0  0  0  0
 18 32  2  0  0  0  0
 18 33  1  0  0  0  0
 19 21  2  0  0  0  0
 19 40  1  0  0  0  0
 20 22  2  0  0  0  0
 20 41  1  0  0  0  0
 21 49  1  0  0  0  0
 22 42  1  0  0  0  0
 23 81  1  0  0  0  0
 24 82  1  0  0  0  0
 25 28  2  0  0  0  0
 25 81  1  0  0  0  0
 26 83  1  0  0  0  0
 27 31  2  0  0  0  0
 27 84  1  0  0  0  0
 28 85  1  0  0  0  0
 29 62  2  0  0  0  0
 30 63  2  0  0  0  0
 30 69  1  0  0  0  0
 31 63  1  0  0  0  0
 31 70  1  0  0  0  0
 32 64  1  0  0  0  0
 32 67  1  0  0  0  0
 33 68  1  0  0  0  0
 33 74  2  0  0  0  0
 34 35  1  0  0  0  0
 34 57  1  0  0  0  0
 34 75  2  0  0  0  0
 35 69  1  0  0  0  0
 35 76  2  0  0  0  0
 36 50  1  0  0  0  0
 36 71  1  0  0  0  0
 36 77  2  0  0  0  0
 37 59  1  0  0  0  0
 37 65  1  0  0  0  0
 37 78  2  0  0  0  0
 38 60  1  0  0  0  0
 38 72  1  0  0  0  0
 38 79  2  0  0  0  0
 39 66  1  0  0  0  0
 39 70  1  0  0  0  0
 39 80  2  0  0  0  0
 40 43  1  0  0  0  0
 41 50  1  0  0  0  0
 42 65  1  0  0  0  0
 43 45  1  0  0  0  0
 44 46  1  0  0  0  0
 44 47  1  0  0  0  0
 45 49  1  0  0  0  0
 46 51  1  0  0  0  0
 47 66  1  0  0  0  0
 48 51  1  0  0  0  0
 48 66  1  0  0  0  0
 49 71  1  0  0  0  0
 50 65  1  0  0  0  0
 51 64  1  0  0  0  0
 52 60  1  0  0  0  0
 53 61  1  0  0  0  0
 54 61  1  0  0  0  0
 55 61  1  0  0  0  0
 56 73  1  0  0  0  0
 57 58  1  0  0  0  0
 58 82  1  0  0  0  0
 59 61  1  0  0  0  0
 59 72  1  0  0  0  0
 60 73  1  0  0  0  0
 62 64  1  0  0  0  0
M  CHG  1  73   1
M  ISO  4  39 100  58 101  70 100  82 101
M  END
> <Batch ID>
0178

> <Smiles>
CNC(C)C(=O)NC(C(=O)N1Cc2cc([101O:1][101CH2:1]CC(=O)C(=O)Nc3ccc(F)c([100NH:0][100C:0](=O)N4CCCC(n5nc(-c6ccc(Oc7ccc(F)cc7F)cc6)c(C(N)=O)c5N)C4)n3)ccc2CC1C(=O)NC1CCCc2ccccc21)C(C)(C)C

> <Shape>
0.255

> <Color>
0.097

> <Negative vol penalty>
0.000

$$$$

  -OEChem-04052304443D

 84 92  0     1  0  0  0  0  0999 V2000
  -16.7244  -30.5032   23.2934 C   0  0  0  0  0  0  0  0  0  0  0  0
  -17.6698  -30.5945   22.2769 C   0  0  0  0  0  0  0  0  0  0  0  0
  -24.3875  -13.6928   20.3930 C   0  0  0  0  0  0  0  0  0  0  0  0
  -26.7266  -13.4720   20.9562 C   0  0  0  0  0  0  0  0  0  0  0  0
  -16.9311  -29.6291   24.3597 C   0  0  0  0  0  0  0  0  0  0  0  0
  -18.8232  -29.8124   22.3268 C   0  0  0  0  0  0  0  0  0  0  0  0
  -23.4512  -26.4108   18.0457 C   0  0  0  0  0  0  0  0  0  0  0  0
  -24.3022  -12.3132   20.2065 C   0  0  0  0  0  0  0  0  0  0  0  0
  -26.6412  -12.0923   20.7697 C   0  0  0  0  0  0  0  0  0  0  0  0
  -24.8203  -26.3123   17.8019 C   0  0  0  0  0  0  0  0  0  0  0  0
  -23.3799   -8.8075   19.9330 C   0  0  0  0  0  0  0  0  0  0  0  0
  -22.2820   -8.1455   20.4824 C   0  0  0  0  0  0  0  0  0  0  0  0
  -25.0335  -24.7794   19.6523 C   0  0  0  0  0  0  0  0  0  0  0  0
  -22.9379   -8.8869   22.6864 C   0  0  0  0  0  0  0  0  0  0  0  0
  -25.5997  -14.2723   20.7679 C   0  0  0  0  0  0  0  0  0  0  0  0
  -25.4685  -16.4095   22.1545 C   0  0  0  0  0  0  0  0  0  0  0  0
  -18.0830  -28.8288   24.4178 C   0  0  0  0  0  0  0  0  0  0  0  0
  -22.8637  -25.7017   19.1033 C   0  0  0  0  0  0  0  0  0  0  0  0
  -19.0462  -28.9277   23.3956 C   0  0  0  0  0  0  0  0  0  0  0  0
  -23.6562  -24.8687   19.9059 C   0  0  0  0  0  0  0  0  0  0  0  0
  -25.4290  -11.5129   20.3948 C   0  0  0  0  0  0  0  0  0  0  0  0
  -25.6122  -25.4988   18.6070 C   0  0  0  0  0  0  0  0  0  0  0  0
  -24.2569   -9.5091   20.7602 C   0  0  0  0  0  0  0  0  0  0  0  0
  -22.0610   -8.1852   21.8591 C   0  0  0  0  0  0  0  0  0  0  0  0
  -24.0359   -9.5488   22.1369 C   0  0  0  0  0  0  0  0  0  0  0  0
  -25.6887  -15.6975   20.9602 C   0  0  0  0  0  0  0  0  0  0  0  0
  -30.2265  -24.2398   23.1110 C   0  0  0  0  0  0  0  0  0  0  0  0
  -30.2109  -24.8299   21.8645 C   0  0  0  0  0  0  0  0  0  0  0  0
  -25.6755  -17.7239   21.8138 C   0  0  0  0  0  0  0  0  0  0  0  0
  -29.4158  -22.8632   21.3082 C   0  0  0  0  0  0  0  0  0  0  0  0
  -25.1091  -15.9260   23.4555 C   0  0  0  0  0  0  0  0  0  0  0  0
  -21.3065  -26.5092   21.7541 C   0  0  0  0  0  0  0  0  0  0  0  0
  -29.1860  -26.7148   19.7773 C   0  0  0  0  0  0  0  0  0  0  0  0
  -20.8699  -23.3049   22.0081 C   0  0  0  0  0  0  0  0  0  0  0  0
  -21.9394  -20.1632   21.2130 C   0  0  0  0  0  0  0  0  0  0  0  0
  -28.6213  -21.6803   19.2307 C   0  0  0  0  0  0  0  0  0  0  0  0
  -18.2854  -27.9334   25.6144 C   0  0  0  0  0  0  0  0  0  0  0  0
  -21.3809  -25.7979   19.3366 C   0  0  0  0  0  0  0  0  0  0  0  0
  -23.0708  -24.0708   21.0413 C   0  0  0  0  0  0  0  0  0  0  0  0
  -19.3551  -26.8653   25.4020 C   0  0  0  0  0  0  0  0  0  0  0  0
  -26.2320  -19.9028   17.2790 C   0  0  0  0  0  0  0  0  0  0  0  0
  -20.6053  -27.4784   24.7792 C   0  0  0  0  0  0  0  0  0  0  0  0
  -25.8595  -18.7089   18.1610 C   0  0  0  0  0  0  0  0  0  0  0  0
  -27.7117  -20.2611   17.4049 C   0  0  0  0  0  0  0  0  0  0  0  0
  -27.8125  -19.2769   19.6610 C   0  0  0  0  0  0  0  0  0  0  0  0
  -20.2982  -28.0777   23.4015 C   0  0  1  0  0  0  0  0  0  0  0  0
  -20.9751  -25.4316   20.7608 C   0  0  1  0  0  0  0  0  0  0  0  0
  -26.3179  -18.9194   19.6174 C   0  0  2  0  0  0  0  0  0  0  0  0
  -30.6509  -24.7792   24.4194 C   0  0  0  0  0  0  0  0  0  0  0  0
  -31.1197  -28.1732   20.4142 C   0  0  0  0  0  0  0  0  0  0  0  0
  -21.4010  -17.7426   21.5982 C   0  0  0  0  0  0  0  0  0  0  0  0
  -22.0401  -23.4945   24.8197 C   0  0  0  0  0  0  0  0  0  0  0  0
  -22.3582  -21.0115   24.7794 C   0  0  0  0  0  0  0  0  0  0  0  0
  -20.0638  -21.9760   24.6125 C   0  0  0  0  0  0  0  0  0  0  0  0
  -21.5051  -19.6805   18.3256 C   0  0  0  0  0  0  0  0  0  0  0  0
  -29.0431  -26.5833   18.2652 C   0  0  0  0  0  0  0  0  0  0  0  0
  -27.5935  -26.5415   17.8052 C   0  0  0  0  0  0  0  0  0  1  0  0
  -30.6109  -26.7444   20.3152 C   0  0  1  0  0  0  0  0  0  0  0  0
  -21.6356  -22.1685   22.6416 C   0  0  1  0  0  0  0  0  0  0  0  0
  -21.1945  -18.9470   20.6930 C   0  0  2  0  0  0  0  0  0  0  0  0
  -21.5361  -22.1791   24.1931 C   0  0  0  0  0  0  0  0  0  0  0  0
  -26.0107  -16.4935   19.9371 N   0  0  0  0  0  0  0  0  0  0  0  0
  -29.7468  -24.0419   20.8295 N   0  0  0  0  0  0  0  0  0  0  0  0
  -25.9943  -17.7194   20.4877 N   0  0  0  0  0  0  0  0  0  0  0  0
  -21.6171  -24.2033   21.2333 N   0  0  0  0  0  0  0  0  0  0  0  0
  -28.0726  -20.4498   18.8116 N   0  0  0  0  0  0  0  0  0  0  0  0
  -25.6140  -18.8714   22.5221 N   0  0  0  0  0  0  0  0  0  0  0  0
  -24.9358  -14.5464   23.6313 N   0  0  0  0  0  0  0  0  0  0  0  0
  -30.6281  -26.1276   21.6235 N   0  0  0  0  0  0  0  0  0  0  0  0
  -28.8944  -21.7546   20.5961 N   0  0  0  0  0  0  0  0  0  0  0  0
  -20.2055  -27.0324   22.4049 N   0  0  0  0  0  0  0  0  0  0  0  0
  -21.1400  -20.9455   22.0193 N   0  0  0  0  0  0  0  0  0  0  0  0
  -21.6700  -18.5940   19.3254 N   0  3  0  0  0  0  0  0  0  0  0  0
  -24.9304  -16.6962   24.4294 O   0  0  0  0  0  0  0  0  0  0  0  0
  -22.4748  -26.8403   21.9190 O   0  0  0  0  0  0  0  0  0  0  0  0
  -28.2084  -26.8135   20.5193 O   0  0  0  0  0  0  0  0  0  0  0  0
  -19.6524  -23.3883   22.1882 O   0  0  0  0  0  0  0  0  0  0  0  0
  -23.1142  -20.3939   20.9351 O   0  0  0  0  0  0  0  0  0  0  0  0
  -28.8079  -22.6100   18.4415 O   0  0  0  0  0  0  0  0  0  0  0  0
  -25.3460  -10.1665   20.2131 O   0  0  0  0  0  0  0  0  0  0  0  0
  -26.9489  -25.4013   18.3715 O   0  0  0  0  0  0  0  0  0  1  0  0
  -21.0058   -7.5507   22.3864 F   0  0  0  0  0  0  0  0  0  0  0  0
  -24.8743  -10.2223   22.9365 F   0  0  0  0  0  0  0  0  0  0  0  0
  -29.6363  -22.6337   22.9945 S   0  0  0  0  0  0  0  0  0  0  0  0
  1  2  1  0  0  0  0
  1  5  2  0  0  0  0
  2  6  2  0  0  0  0
  3  8  2  0  0  0  0
  3 15  1  0  0  0  0
  4  9  1  0  0  0  0
  4 15  2  0  0  0  0
  5 17  1  0  0  0  0
  6 19  1  0  0  0  0
  7 10  2  0  0  0  0
  7 18  1  0  0  0  0
  8 21  1  0  0  0  0
  9 21  2  0  0  0  0
 10 22  1  0  0  0  0
 11 12  2  0  0  0  0
 11 23  1  0  0  0  0
 12 24  1  0  0  0  0
 13 20  1  0  0  0  0
 13 22  2  0  0  0  0
 14 24  2  0  0  0  0
 14 25  1  0  0  0  0
 15 26  1  0  0  0  0
 16 26  1  0  0  0  0
 16 29  2  0  0  0  0
 16 31  1  0  0  0  0
 17 19  2  0  0  0  0
 17 37  1  0  0  0  0
 18 20  2  0  0  0  0
 18 38  1  0  0  0  0
 19 46  1  0  0  0  0
 20 39  1  0  0  0  0
 21 80  1  0  0  0  0
 22 81  1  0  0  0  0
 23 25  2  0  0  0  0
 23 80  1  0  0  0  0
 24 82  1  0  0  0  0
 25 83  1  0  0  0  0
 26 62  2  0  0  0  0
 27 28  2  0  0  0  0
 27 49  1  0  0  0  0
 27 84  1  0  0  0  0
 28 63  1  0  0  0  0
 28 69  1  0  0  0  0
 29 64  1  0  0  0  0
 29 67  1  0  0  0  0
 30 63  2  0  0  0  0
 30 70  1  0  0  0  0
 30 84  1  0  0  0  0
 31 68  1  0  0  0  0
 31 74  2  0  0  0  0
 32 47  1  0  0  0  0
 32 71  1  0  0  0  0
 32 75  2  0  0  0  0
 33 56  1  0  0  0  0
 33 58  1  0  0  0  0
 33 76  2  0  0  0  0
 34 59  1  0  0  0  0
 34 65  1  0  0  0  0
 34 77  2  0  0  0  0
 35 60  1  0  0  0  0
 35 72  1  0  0  0  0
 35 78  2  0  0  0  0
 36 66  1  0  0  0  0
 36 70  1  0  0  0  0
 36 79  2  0  0  0  0
 37 40  1  0  0  0  0
 38 47  1  0  0  0  0
 39 65  1  0  0  0  0
 40 42  1  0  0  0  0
 41 43  1  0  0  0  0
 41 44  1  0  0  0  0
 42 46  1  0  0  0  0
 43 48  1  0  0  0  0
 44 66  1  0  0  0  0
 45 48  1  0  0  0  0
 45 66  1  0  0  0  0
 46 71  1  0  0  0  0
 47 65  1  0  0  0  0
 48 64  1  0  0  0  0
 50 58  1  0  0  0  0
 51 60  1  0  0  0  0
 52 61  1  0  0  0  0
 53 61  1  0  0  0  0
 54 61  1  0  0  0  0
 55 73  1  0  0  0  0
 56 57  1  0  0  0  0
 57 81  1  0  0  0  0
 58 69  1  0  0  0  0
 59 61  1  0  0  0  0
 59 72  1  0  0  0  0
 60 73  1  0  0  0  0
 62 64  1  0  0  0  0
M  CHG  1  73   1
M  ISO  4  36 100  57 101  70 100  81 101
M  END
> <Batch ID>
0178

> <Smiles>
CNC(C)C(=O)NC(C(=O)N1Cc2cc([101O:1][101CH2:1]CC(=O)C(C)Nc3nc([100NH:0][100C:0](=O)N4CCCC(n5nc(-c6ccc(Oc7ccc(F)cc7F)cc6)c(C(N)=O)c5N)C4)sc3C)ccc2CC1C(=O)NC1CCCc2ccccc21)C(C)(C)C

> <Shape>
0.203

> <Color>
0.081

> <Negative vol penalty>
0.000

$$$$

  -OEChem-04052304443D

 87 95  0     1  0  0  0  0  0999 V2000
  -31.6838  -15.2906   19.1436 C   0  0  0  0  0  0  0  0  0  0  0  0
  -30.5343  -16.0740   19.1631 C   0  0  0  0  0  0  0  0  0  0  0  0
  -28.2911  -23.8342   18.6200 C   0  0  0  0  0  0  0  0  0  0  0  0
  -27.8461  -23.8497   20.9946 C   0  0  0  0  0  0  0  0  0  0  0  0
  -31.5826  -13.9037   19.2446 C   0  0  0  0  0  0  0  0  0  0  0  0
  -29.2828  -15.4707   19.2825 C   0  0  0  0  0  0  0  0  0  0  0  0
  -26.2945  -17.8395   22.6147 C   0  0  0  0  0  0  0  0  0  0  0  0
  -28.8607  -22.5662   18.7350 C   0  0  0  0  0  0  0  0  0  0  0  0
  -28.4156  -22.5816   21.1096 C   0  0  0  0  0  0  0  0  0  0  0  0
  -25.6786  -19.0170   22.1930 C   0  0  0  0  0  0  0  0  0  0  0  0
  -30.0764  -19.5009   22.0898 C   0  0  0  0  0  0  0  0  0  0  0  0
  -30.9595  -19.2803   23.1467 C   0  0  0  0  0  0  0  0  0  0  0  0
  -23.6369  -17.7975   21.7889 C   0  0  0  0  0  0  0  0  0  0  0  0
  -32.4027  -21.0257   22.3053 C   0  0  0  0  0  0  0  0  0  0  0  0
  -25.1128  -29.6816   24.8545 C   0  0  0  0  0  0  0  0  0  0  0  0
  -27.7839  -24.4761   19.7498 C   0  0  0  0  0  0  0  0  0  0  0  0
  -26.0835  -26.1515   18.8502 C   0  0  0  0  0  0  0  0  0  0  0  0
  -30.3299  -13.2838   19.3750 C   0  0  0  0  0  0  0  0  0  0  0  0
  -25.5882  -16.6280   22.6164 C   0  0  0  0  0  0  0  0  0  0  0  0
  -29.1647  -14.0741   19.3840 C   0  0  0  0  0  0  0  0  0  0  0  0
  -24.2453  -16.6064   22.2135 C   0  0  0  0  0  0  0  0  0  0  0  0
  -28.9229  -21.9398   19.9798 C   0  0  0  0  0  0  0  0  0  0  0  0
  -24.3506  -18.9957   21.7773 C   0  0  0  0  0  0  0  0  0  0  0  0
  -30.3565  -20.4840   21.1406 C   0  0  0  0  0  0  0  0  0  0  0  0
  -32.1226  -20.0427   23.2544 C   0  0  0  0  0  0  0  0  0  0  0  0
  -31.5195  -21.2463   21.2483 C   0  0  0  0  0  0  0  0  0  0  0  0
  -27.1960  -25.7862   19.6317 C   0  0  0  0  0  0  0  0  0  0  0  0
  -24.4343  -29.9753   23.6903 C   0  0  0  0  0  0  0  0  0  0  0  0
  -25.9275  -27.4962   19.0823 C   0  0  0  0  0  0  0  0  0  0  0  0
  -23.9556  -27.8390   23.8210 C   0  0  0  0  0  0  0  0  0  0  0  0
  -25.2643  -25.3471   17.9913 C   0  0  0  0  0  0  0  0  0  0  0  0
  -22.2904  -24.6863   22.6109 C   0  0  0  0  0  0  0  0  0  0  0  0
  -22.6650  -26.1383   22.5226 C   0  0  0  0  0  0  0  0  0  0  0  0
  -25.9154  -13.8388   21.1274 C   0  0  0  0  0  0  0  0  0  0  0  0
  -23.4666  -12.9598   23.0647 C   0  0  0  0  0  0  0  0  0  0  0  0
  -25.7461  -31.7796   22.6752 C   0  0  0  0  0  0  0  0  0  0  0  0
  -20.7814  -13.9014   24.9488 C   0  0  0  0  0  0  0  0  0  0  0  0
  -30.2676  -11.7780   19.4335 C   0  0  0  0  0  0  0  0  0  0  0  0
  -26.2589  -15.3713   23.0995 C   0  0  0  0  0  0  0  0  0  0  0  0
  -23.4371  -15.3355   22.2157 C   0  0  0  0  0  0  0  0  0  0  0  0
  -28.9284  -11.2428   19.9340 C   0  0  0  0  0  0  0  0  0  0  0  0
  -28.9501  -30.8204   21.3892 C   0  0  0  0  0  0  0  0  0  0  0  0
  -27.7743  -11.9551   19.2358 C   0  0  0  0  0  0  0  0  0  0  0  0
  -28.6946  -29.4424   20.7801 C   0  0  0  0  0  0  0  0  0  0  0  0
  -28.1063  -31.0431   22.6403 C   0  0  0  0  0  0  0  0  0  0  0  0
  -26.3822  -29.4705   21.8180 C   0  0  0  0  0  0  0  0  0  0  0  0
  -27.7907  -13.4585   19.5370 C   0  0  1  0  0  0  0  0  0  0  0  0
  -25.5984  -14.1011   22.5725 C   0  0  1  0  0  0  0  0  0  0  0  0
  -27.1922  -29.2166   20.5343 C   0  0  2  0  0  0  0  0  0  0  0  0
  -22.3473  -32.1455   24.4611 C   0  0  0  0  0  0  0  0  0  0  0  0
  -18.9524  -12.9553   26.3831 C   0  0  0  0  0  0  0  0  0  0  0  0
  -23.5957  -31.3732   21.6798 C   0  0  0  0  0  0  0  0  0  0  0  0
  -21.9788  -12.0479   20.5618 C   0  0  0  0  0  0  0  0  0  0  0  0
  -19.8705  -12.0147   21.9116 C   0  0  0  0  0  0  0  0  0  0  0  0
  -21.7638  -10.5095   22.5218 C   0  0  0  0  0  0  0  0  0  0  0  0
  -21.7254  -15.3816   27.3314 C   0  0  0  0  0  0  0  0  0  0  0  0
  -23.4290  -23.6917   22.6033 C   0  0  0  0  0  0  0  0  0  0  0  0
  -23.7685  -32.4203   23.9801 C   0  0  0  0  0  0  0  0  0  0  0  0
  -23.0459  -22.3561   21.9735 C   0  0  0  0  0  0  0  0  0  0  0  0
  -24.2018  -21.3629   21.9500 C   0  0  0  0  0  0  0  0  0  1  0  0
  -21.9606  -12.9908   22.9652 C   0  0  1  0  0  0  0  0  0  0  0  0
  -20.3604  -13.5296   26.3591 C   0  0  2  0  0  0  0  0  0  0  0  0
  -24.3645  -31.3008   23.0440 C   0  0  1  0  0  0  0  0  0  0  0  0
  -21.4090  -11.9145   21.9881 C   0  0  0  0  0  0  0  0  0  0  0  0
  -27.7104  -26.8158   20.3095 N   0  0  0  0  0  0  0  0  0  0  0  0
  -23.7705  -28.9198   23.0960 N   0  0  0  0  0  0  0  0  0  0  0  0
  -26.9176  -27.8413   19.9545 N   0  0  0  0  0  0  0  0  0  0  0  0
  -24.1392  -14.1318   22.6909 N   0  0  0  0  0  0  0  0  0  0  0  0
  -26.6885  -30.7970   22.3711 N   0  0  0  0  0  0  0  0  0  0  0  0
  -25.0413  -28.4053   18.6233 N   0  0  0  0  0  0  0  0  0  0  0  0
  -24.1352  -24.7222   18.5381 N   0  0  0  0  0  0  0  0  0  0  0  0
  -23.4554  -26.5384   23.5786 N   0  0  0  0  0  0  0  0  0  0  0  0
  -27.2656  -13.7145   20.8611 N   0  0  0  0  0  0  0  0  0  0  0  0
  -21.4588  -12.8721   24.3300 N   0  0  0  0  0  0  0  0  0  0  0  0
  -20.3938  -14.7291   27.2429 N   0  3  0  0  0  0  0  0  0  0  0  0
  -25.5350  -25.1740   16.7788 O   0  0  0  0  0  0  0  0  0  0  0  0
  -21.1013  -24.4188   22.6972 O   0  0  0  0  0  0  0  0  0  0  0  0
  -22.2147  -26.7610   21.5751 O   0  0  0  0  0  0  0  0  0  0  0  0
  -25.0024  -13.7539   20.3144 O   0  0  0  0  0  0  0  0  0  0  0  0
  -24.0252  -11.9360   23.4664 O   0  0  0  0  0  0  0  0  0  0  0  0
  -25.9780  -32.9912   22.6557 O   0  0  0  0  0  0  0  0  0  0  0  0
  -20.5309  -14.9941   24.4451 O   0  0  0  0  0  0  0  0  0  0  0  0
  -29.4783  -20.7024   20.0923 O   0  0  0  0  0  0  0  0  0  0  0  0
  -23.7473  -20.1435   21.3646 O   0  0  0  0  0  0  0  0  0  1  0  0
  -32.9698  -19.8317   24.2703 F   0  0  0  0  0  0  0  0  0  0  0  0
  -31.7934  -22.1930   20.3402 F   0  0  0  0  0  0  0  0  0  0  0  0
  -24.9170  -28.0198   25.2309 S   0  0  0  0  0  0  0  0  0  0  0  0
  1  2  1  0  0  0  0
  1  5  2  0  0  0  0
  2  6  2  0  0  0  0
  3  8  2  0  0  0  0
  3 16  1  0  0  0  0
  4  9  1  0  0  0  0
  4 16  2  0  0  0  0
  5 18  1  0  0  0  0
  6 20  1  0  0  0  0
  7 10  2  0  0  0  0
  7 19  1  0  0  0  0
  8 22  1  0  0  0  0
  9 22  2  0  0  0  0
 10 23  1  0  0  0  0
 11 12  2  0  0  0  0
 11 24  1  0  0  0  0
 12 25  1  0  0  0  0
 13 21  1  0  0  0  0
 13 23  2  0  0  0  0
 14 25  2  0  0  0  0
 14 26  1  0  0  0  0
 15 28  2  0  0  0  0
 15 87  1  0  0  0  0
 16 27  1  0  0  0  0
 17 27  1  0  0  0  0
 17 29  2  0  0  0  0
 17 31  1  0  0  0  0
 18 20  2  0  0  0  0
 18 38  1  0  0  0  0
 19 21  2  0  0  0  0
 19 39  1  0  0  0  0
 20 47  1  0  0  0  0
 21 40  1  0  0  0  0
 22 83  1  0  0  0  0
 23 84  1  0  0  0  0
 24 26  2  0  0  0  0
 24 83  1  0  0  0  0
 25 85  1  0  0  0  0
 26 86  1  0  0  0  0
 27 65  2  0  0  0  0
 28 63  1  0  0  0  0
 28 66  1  0  0  0  0
 29 67  1  0  0  0  0
 29 70  1  0  0  0  0
 30 66  2  0  0  0  0
 30 72  1  0  0  0  0
 30 87  1  0  0  0  0
 31 71  1  0  0  0  0
 31 76  2  0  0  0  0
 32 33  1  0  0  0  0
 32 57  1  0  0  0  0
 32 77  2  0  0  0  0
 33 72  1  0  0  0  0
 33 78  2  0  0  0  0
 34 48  1  0  0  0  0
 34 73  1  0  0  0  0
 34 79  2  0  0  0  0
 35 61  1  0  0  0  0
 35 68  1  0  0  0  0
 35 80  2  0  0  0  0
 36 63  1  0  0  0  0
 36 69  1  0  0  0  0
 36 81  2  0  0  0  0
 37 62  1  0  0  0  0
 37 74  1  0  0  0  0
 37 82  2  0  0  0  0
 38 41  1  0  0  0  0
 39 48  1  0  0  0  0
 40 68  1  0  0  0  0
 41 43  1  0  0  0  0
 42 44  1  0  0  0  0
 42 45  1  0  0  0  0
 43 47  1  0  0  0  0
 44 49  1  0  0  0  0
 45 69  1  0  0  0  0
 46 49  1  0  0  0  0
 46 69  1  0  0  0  0
 47 73  1  0  0  0  0
 48 68  1  0  0  0  0
 49 67  1  0  0  0  0
 50 58  1  0  0  0  0
 51 62  1  0  0  0  0
 52 63  1  0  0  0  0
 53 64  1  0  0  0  0
 54 64  1  0  0  0  0
 55 64  1  0  0  0  0
 56 75  1  0  0  0  0
 57 59  1  0  0  0  0
 58 63  1  0  0  0  0
 59 60  1  0  0  0  0
 60 84  1  0  0  0  0
 61 64  1  0  0  0  0
 61 74  1  0  0  0  0
 62 75  1  0  0  0  0
 65 67  1  0  0  0  0
M  CHG  1  75   1
M  ISO  4  36 100  60 101  63 100  84 101
M  END
> <Batch ID>
0178

> <Smiles>
CC[100C:0](C)(c1csc(NC(=O)C(=O)CC[101CH2:1][101O:1]c2ccc3c(c2)CN(C(=O)C(NC(=O)C(C)NC)C(C)(C)C)C(C(=O)NC2CCCc4ccccc42)C3)n1)[100C:0](=O)N1CCCC(n2nc(-c3ccc(Oc4ccc(F)cc4F)cc3)c(C(N)=O)c2N)C1

> <Shape>
0.213

> <Color>
0.063

> <Negative vol penalty>
0.000

$$$$

  -OEChem-04052304443D

 85 93  0     1  0  0  0  0  0999 V2000
  -26.4309  -38.5012   20.7916 C   0  0  0  0  0  0  0  0  0  0  0  0
  -27.0058  -37.4399   20.0997 C   0  0  0  0  0  0  0  0  0  0  0  0
  -25.0003   -8.0761   21.2136 C   0  0  0  0  0  0  0  0  0  0  0  0
  -23.6177   -9.3828   19.7243 C   0  0  0  0  0  0  0  0  0  0  0  0
  -25.8510  -38.2848   22.0409 C   0  0  0  0  0  0  0  0  0  0  0  0
  -27.0021  -36.1619   20.6573 C   0  0  0  0  0  0  0  0  0  0  0  0
  -26.6439  -29.2560   18.7873 C   0  0  0  0  0  0  0  0  0  0  0  0
  -23.8813   -7.3441   21.6103 C   0  0  0  0  0  0  0  0  0  0  0  0
  -22.4986   -8.6508   20.1210 C   0  0  0  0  0  0  0  0  0  0  0  0
  -27.3194  -28.0516   18.9796 C   0  0  0  0  0  0  0  0  0  0  0  0
  -21.2473   -7.7519   23.6889 C   0  0  0  0  0  0  0  0  0  0  0  0
  -21.0792   -7.5148   25.0531 C   0  0  0  0  0  0  0  0  0  0  0  0
  -26.2186  -27.7813   21.1091 C   0  0  0  0  0  0  0  0  0  0  0  0
  -21.1576   -5.1341   24.6490 C   0  0  0  0  0  0  0  0  0  0  0  0
  -24.8686   -9.0955   20.2706 C   0  0  0  0  0  0  0  0  0  0  0  0
  -26.8968   -9.5615   18.7952 C   0  0  0  0  0  0  0  0  0  0  0  0
  -25.8317  -37.0016   22.6098 C   0  0  0  0  0  0  0  0  0  0  0  0
  -25.7575  -29.7383   19.7610 C   0  0  0  0  0  0  0  0  0  0  0  0
  -26.4227  -35.9284   21.9160 C   0  0  0  0  0  0  0  0  0  0  0  0
  -25.5312  -28.9908   20.9255 C   0  0  0  0  0  0  0  0  0  0  0  0
  -22.6304   -7.6314   21.0640 C   0  0  0  0  0  0  0  0  0  0  0  0
  -27.1090  -27.3155   20.1419 C   0  0  0  0  0  0  0  0  0  0  0  0
  -21.3705   -6.6801   22.8047 C   0  0  0  0  0  0  0  0  0  0  0  0
  -21.0343   -6.2060   25.5332 C   0  0  0  0  0  0  0  0  0  0  0  0
  -21.3257   -5.3713   23.2848 C   0  0  0  0  0  0  0  0  0  0  0  0
  -26.0241   -9.8524   19.8609 C   0  0  0  0  0  0  0  0  0  0  0  0
  -25.1034  -18.9311   17.6898 C   0  0  0  0  0  0  0  0  0  0  0  0
  -26.0556  -19.5270   18.4901 C   0  0  0  0  0  0  0  0  0  0  0  0
  -27.8231  -10.5753   18.8234 C   0  0  0  0  0  0  0  0  0  0  0  0
  -26.2785  -17.4619   19.1942 C   0  0  0  0  0  0  0  0  0  0  0  0
  -24.2377  -19.4878   16.7032 C   0  0  0  0  0  0  0  0  0  0  0  0
  -27.3107  -23.0432   18.9135 C   0  0  0  0  0  0  0  0  0  0  0  0
  -26.8722   -8.4724   17.8631 C   0  0  0  0  0  0  0  0  0  0  0  0
  -28.1246  -23.9291   19.5105 C   0  0  0  0  0  0  0  0  0  0  0  0
  -27.2980  -21.5820   19.2392 C   0  0  0  0  0  0  0  0  0  0  0  0
  -25.6322  -32.3335   21.5920 C   0  0  0  0  0  0  0  0  0  0  0  0
  -22.7382  -31.1294   22.4268 C   0  0  0  0  0  0  0  0  0  0  0  0
  -20.7071  -28.4013   22.7084 C   0  0  0  0  0  0  0  0  0  0  0  0
  -27.6699  -16.1891   20.8646 C   0  0  0  0  0  0  0  0  0  0  0  0
  -25.2353  -36.8256   23.9839 C   0  0  0  0  0  0  0  0  0  0  0  0
  -25.0164  -31.0260   19.5263 C   0  0  0  0  0  0  0  0  0  0  0  0
  -24.5745  -29.4548   21.9923 C   0  0  0  0  0  0  0  0  0  0  0  0
  -24.9405  -35.3703   24.3381 C   0  0  0  0  0  0  0  0  0  0  0  0
  -29.9422  -13.6286   21.8433 C   0  0  0  0  0  0  0  0  0  0  0  0
  -26.1293  -34.4830   23.9826 C   0  0  0  0  0  0  0  0  0  0  0  0
  -29.2777  -12.3438   21.3437 C   0  0  0  0  0  0  0  0  0  0  0  0
  -28.9146  -14.6372   22.3537 C   0  0  0  0  0  0  0  0  0  0  0  0
  -27.1681  -13.6669   20.9123 C   0  0  0  0  0  0  0  0  0  0  0  0
  -26.4165  -34.5228   22.4768 C   0  0  1  0  0  0  0  0  0  0  0  0
  -24.5259  -31.6766   20.8161 C   0  0  1  0  0  0  0  0  0  0  0  0
  -28.1585  -12.6464   20.3281 C   0  0  2  0  0  0  0  0  0  0  0  0
  -18.4099  -27.7248   23.4583 C   0  0  0  0  0  0  0  0  0  0  0  0
  -23.6269  -31.3472   25.3376 C   0  0  0  0  0  0  0  0  0  0  0  0
  -21.7439  -29.8167   25.9542 C   0  0  0  0  0  0  0  0  0  0  0  0
  -21.2589  -32.0323   24.9157 C   0  0  0  0  0  0  0  0  0  0  0  0
  -19.9838  -27.4338   20.0066 C   0  0  0  0  0  0  0  0  0  0  0  0
  -28.1068  -25.3893   19.1673 C   0  0  0  0  0  0  0  0  0  1  0  0
  -22.2406  -30.1858   23.4949 C   0  0  1  0  0  0  0  0  0  0  0  0
  -19.2683  -28.1687   22.2840 C   0  0  2  0  0  0  0  0  0  0  0  0
  -22.2371  -30.8374   24.9066 C   0  0  0  0  0  0  0  0  0  0  0  0
  -26.3656  -10.9639   20.5182 N   0  0  0  0  0  0  0  0  0  0  0  0
  -26.7301  -18.6861   19.3537 N   0  0  0  0  0  0  0  0  0  0  0  0
  -24.2068  -20.7611   16.3724 N   0  0  0  0  0  0  0  0  0  0  0  0
  -27.4632  -11.3802   19.8639 N   0  0  0  0  0  0  0  0  0  0  0  0
  -23.8786  -30.7231   21.7195 N   0  0  0  0  0  0  0  0  0  0  0  0
  -27.8881  -14.8777   21.3372 N   0  0  0  0  0  0  0  0  0  0  0  0
  -28.9022  -10.8477   18.0594 N   0  0  0  0  0  0  0  0  0  0  0  0
  -25.8510   -7.5192   17.9761 N   0  0  0  0  0  0  0  0  0  0  0  0
  -26.3571  -20.9111   18.4673 N   0  0  0  0  0  0  0  0  0  0  0  0
  -26.6918  -16.2904   19.8759 N   0  0  0  0  0  0  0  0  0  0  0  0
  -25.4700  -33.6955   21.7597 N   0  0  0  0  0  0  0  0  0  0  0  0
  -20.9324  -29.7182   23.0494 N   0  0  0  0  0  0  0  0  0  0  0  0
  -19.2027  -27.1172   21.2299 N   0  3  0  0  0  0  0  0  0  0  0  0
  -27.7400   -8.3391   16.9671 O   0  0  0  0  0  0  0  0  0  0  0  0
  -28.0446  -21.1051   20.0850 O   0  0  0  0  0  0  0  0  0  0  0  0
  -26.5634  -31.6547   22.0090 O   0  0  0  0  0  0  0  0  0  0  0  0
  -22.1330  -32.1847   22.2225 O   0  0  0  0  0  0  0  0  0  0  0  0
  -21.5463  -27.5038   22.7382 O   0  0  0  0  0  0  0  0  0  0  0  0
  -28.3231  -17.1475   21.2852 O   0  0  0  0  0  0  0  0  0  0  0  0
  -29.0203  -23.5613   20.4949 O   0  0  0  0  0  0  0  0  0  0  0  0
  -21.5382   -6.9172   21.4507 O   0  0  0  0  0  0  0  0  0  0  0  0
  -27.7675  -26.1400   20.3325 O   0  0  0  0  0  0  0  0  0  1  0  0
  -20.8744   -5.9784   26.8435 F   0  0  0  0  0  0  0  0  0  0  0  0
  -21.4447   -4.3375   22.4403 F   0  0  0  0  0  0  0  0  0  0  0  0
  -25.0430  -17.2497   18.0222 S   0  0  0  0  0  0  0  0  0  0  0  0
  1  2  1  0  0  0  0
  1  5  2  0  0  0  0
  2  6  2  0  0  0  0
  3  8  2  0  0  0  0
  3 15  1  0  0  0  0
  4  9  1  0  0  0  0
  4 15  2  0  0  0  0
  5 17  1  0  0  0  0
  6 19  1  0  0  0  0
  7 10  2  0  0  0  0
  7 18  1  0  0  0  0
  8 21  1  0  0  0  0
  9 21  2  0  0  0  0
 10 22  1  0  0  0  0
 11 12  2  0  0  0  0
 11 23  1  0  0  0  0
 12 24  1  0  0  0  0
 13 20  1  0  0  0  0
 13 22  2  0  0  0  0
 14 24  2  0  0  0  0
 14 25  1  0  0  0  0
 15 26  1  0  0  0  0
 16 26  1  0  0  0  0
 16 29  2  0  0  0  0
 16 33  1  0  0  0  0
 17 19  2  0  0  0  0
 17 40  1  0  0  0  0
 18 20  2  0  0  0  0
 18 41  1  0  0  0  0
 19 49  1  0  0  0  0
 20 42  1  0  0  0  0
 21 81  1  0  0  0  0
 22 82  1  0  0  0  0
 23 25  2  0  0  0  0
 23 81  1  0  0  0  0
 24 83  1  0  0  0  0
 25 84  1  0  0  0  0
 26 61  2  0  0  0  0
 27 28  2  0  0  0  0
 27 31  1  0  0  0  0
 27 85  1  0  0  0  0
 28 62  1  0  0  0  0
 28 69  1  0  0  0  0
 29 64  1  0  0  0  0
 29 67  1  0  0  0  0
 30 62  2  0  0  0  0
 30 70  1  0  0  0  0
 30 85  1  0  0  0  0
 31 63  2  0  0  0  0
 32 34  2  0  0  0  0
 32 35  1  0  0  0  0
 33 68  1  0  0  0  0
 33 74  2  0  0  0  0
 34 57  1  0  0  0  0
 34 80  1  0  0  0  0
 35 69  1  0  0  0  0
 35 75  2  0  0  0  0
 36 50  1  0  0  0  0
 36 71  1  0  0  0  0
 36 76  2  0  0  0  0
 37 58  1  0  0  0  0
 37 65  1  0  0  0  0
 37 77  2  0  0  0  0
 38 59  1  0  0  0  0
 38 72  1  0  0  0  0
 38 78  2  0  0  0  0
 39 66  1  0  0  0  0
 39 70  1  0  0  0  0
 39 79  2  0  0  0  0
 40 43  1  0  0  0  0
 41 50  1  0  0  0  0
 42 65  1  0  0  0  0
 43 45  1  0  0  0  0
 44 46  1  0  0  0  0
 44 47  1  0  0  0  0
 45 49  1  0  0  0  0
 46 51  1  0  0  0  0
 47 66  1  0  0  0  0
 48 51  1  0  0  0  0
 48 66  1  0  0  0  0
 49 71  1  0  0  0  0
 50 65  1  0  0  0  0
 51 64  1  0  0  0  0
 52 59  1  0  0  0  0
 53 60  1  0  0  0  0
 54 60  1  0  0  0  0
 55 60  1  0  0  0  0
 56 73  1  0  0  0  0
 57 82  1  0  0  0  0
 58 60  1  0  0  0  0
 58 72  1  0  0  0  0
 59 73  1  0  0  0  0
 61 64  1  0  0  0  0
M  CHG  1  73   1
M  ISO  4  39 100  57 101  70 100  82 101
M  END
> <Batch ID>
0178

> <Smiles>
CNC(C)C(=O)NC(C(=O)N1Cc2cc([101O:1][101CH2:1]C(=O)CC(=O)Nc3nc([100NH:0][100C:0](=O)N4CCCC(n5nc(-c6ccc(Oc7ccc(F)cc7F)cc6)c(C(N)=O)c5N)C4)sc3C=N)ccc2CC1C(=O)NC1CCCc2ccccc21)C(C)(C)C

> <Shape>
0.290

> <Color>
0.083

> <Negative vol penalty>
0.000

$$$$

  -OEChem-04052304443D

 86 94  0     1  0  0  0  0  0999 V2000
  -27.8232  -36.4709   24.7611 C   0  0  0  0  0  0  0  0  0  0  0  0
  -28.3199  -35.3315   24.1362 C   0  0  0  0  0  0  0  0  0  0  0  0
  -23.6486   -9.8829   22.4089 C   0  0  0  0  0  0  0  0  0  0  0  0
  -23.3010   -9.9604   20.0193 C   0  0  0  0  0  0  0  0  0  0  0  0
  -26.5953  -36.4240   25.4198 C   0  0  0  0  0  0  0  0  0  0  0  0
  -27.5895  -34.1442   24.1708 C   0  0  0  0  0  0  0  0  0  0  0  0
  -27.2518  -29.9002   19.7684 C   0  0  0  0  0  0  0  0  0  0  0  0
  -22.8480   -8.7435   22.4885 C   0  0  0  0  0  0  0  0  0  0  0  0
  -22.5004   -8.8209   20.0988 C   0  0  0  0  0  0  0  0  0  0  0  0
  -27.9085  -28.6840   19.5856 C   0  0  0  0  0  0  0  0  0  0  0  0
  -23.1612   -5.4317   21.8826 C   0  0  0  0  0  0  0  0  0  0  0  0
  -23.6197   -4.3704   22.6629 C   0  0  0  0  0  0  0  0  0  0  0  0
  -26.0410  -27.5319   20.5877 C   0  0  0  0  0  0  0  0  0  0  0  0
  -21.6500   -4.5404   24.0516 C   0  0  0  0  0  0  0  0  0  0  0  0
  -28.3531  -17.8988   17.1699 C   0  0  0  0  0  0  0  0  0  0  0  0
  -23.8751  -10.4914   21.1744 C   0  0  0  0  0  0  0  0  0  0  0  0
  -26.0941  -11.7174   20.8905 C   0  0  0  0  0  0  0  0  0  0  0  0
  -25.8449  -35.2381   25.4542 C   0  0  0  0  0  0  0  0  0  0  0  0
  -25.9873  -29.9424   20.3732 C   0  0  0  0  0  0  0  0  0  0  0  0
  -26.3510  -34.0810   24.8318 C   0  0  0  0  0  0  0  0  0  0  0  0
  -25.3692  -28.7496   20.7747 C   0  0  0  0  0  0  0  0  0  0  0  0
  -22.2739   -8.2125   21.3334 C   0  0  0  0  0  0  0  0  0  0  0  0
  -27.3044  -27.4999   19.9979 C   0  0  0  0  0  0  0  0  0  0  0  0
  -21.9470   -6.0475   22.1868 C   0  0  0  0  0  0  0  0  0  0  0  0
  -22.8641   -3.9247   23.7474 C   0  0  0  0  0  0  0  0  0  0  0  0
  -21.1915   -5.6018   23.2713 C   0  0  0  0  0  0  0  0  0  0  0  0
  -29.3079  -18.6450   16.4882 C   0  0  0  0  0  0  0  0  0  0  0  0
  -29.2476  -20.0338   16.5172 C   0  0  0  0  0  0  0  0  0  0  0  0
  -24.7016  -11.6687   21.0916 C   0  0  0  0  0  0  0  0  0  0  0  0
  -27.3663  -18.5838   17.8603 C   0  0  0  0  0  0  0  0  0  0  0  0
  -28.2206  -20.6233   17.2367 C   0  0  0  0  0  0  0  0  0  0  0  0
  -26.3941  -13.0578   20.8895 C   0  0  0  0  0  0  0  0  0  0  0  0
  -27.0324  -10.6469   20.7197 C   0  0  0  0  0  0  0  0  0  0  0  0
  -27.5146  -24.2827   17.7529 C   0  0  0  0  0  0  0  0  0  0  0  0
  -27.2371  -22.8165   17.9187 C   0  0  0  0  0  0  0  0  0  0  0  0
  -24.8071  -31.2581   23.0151 C   0  0  0  0  0  0  0  0  0  0  0  0
  -21.9858  -30.1978   21.8157 C   0  0  0  0  0  0  0  0  0  0  0  0
  -20.3431  -27.9973   19.7894 C   0  0  0  0  0  0  0  0  0  0  0  0
  -25.3243  -18.2875   19.3057 C   0  0  0  0  0  0  0  0  0  0  0  0
  -24.5451  -35.2234   26.2190 C   0  0  0  0  0  0  0  0  0  0  0  0
  -25.2805  -31.2598   20.5389 C   0  0  0  0  0  0  0  0  0  0  0  0
  -24.0039  -28.7389   21.4105 C   0  0  0  0  0  0  0  0  0  0  0  0
  -23.6577  -34.0259   25.8891 C   0  0  0  0  0  0  0  0  0  0  0  0
  -23.5735  -17.0657   22.1551 C   0  0  0  0  0  0  0  0  0  0  0  0
  -24.4756  -32.7383   25.8928 C   0  0  0  0  0  0  0  0  0  0  0  0
  -23.8254  -15.5567   22.1159 C   0  0  0  0  0  0  0  0  0  0  0  0
  -23.4078  -17.6497   20.7532 C   0  0  0  0  0  0  0  0  0  0  0  0
  -24.7467  -15.8260   19.7779 C   0  0  0  0  0  0  0  0  0  0  0  0
  -25.5765  -32.7810   24.8261 C   0  0  1  0  0  0  0  0  0  0  0  0
  -24.2179  -31.2343   21.6332 C   0  0  1  0  0  0  0  0  0  0  0  0
  -24.9846  -15.2035   21.1634 C   0  0  2  0  0  0  0  0  0  0  0  0
  -18.0357  -27.3505   19.0447 C   0  0  0  0  0  0  0  0  0  0  0  0
  -21.5163  -28.8042   24.4892 C   0  0  0  0  0  0  0  0  0  0  0  0
  -19.7316  -27.4390   23.3849 C   0  0  0  0  0  0  0  0  0  0  0  0
  -19.4958  -29.9185   23.5246 C   0  0  0  0  0  0  0  0  0  0  0  0
  -20.9544  -28.6232   16.9621 C   0  0  0  0  0  0  0  0  0  0  0  0
  -28.8684  -24.7674   18.2231 C   0  0  0  0  0  0  0  0  0  0  0  0
  -28.8283  -26.2093   18.7063 C   0  0  0  0  0  0  0  0  0  1  0  0
  -21.1870  -28.9221   21.9311 C   0  0  1  0  0  0  0  0  0  0  0  0
  -19.2586  -28.2041   18.7475 C   0  0  2  0  0  0  0  0  0  0  0  0
  -20.5093  -28.7710   23.3223 C   0  0  0  0  0  0  0  0  0  0  0  0
  -24.1550  -12.8816   21.2100 N   0  0  0  0  0  0  0  0  0  0  0  0
  -27.2751  -19.9317   17.9115 N   0  0  0  0  0  0  0  0  0  0  0  0
  -25.2094  -13.7051   21.0829 N   0  0  0  0  0  0  0  0  0  0  0  0
  -23.3561  -30.0528   21.5567 N   0  0  0  0  0  0  0  0  0  0  0  0
  -24.5449  -17.2776   19.9084 N   0  0  0  0  0  0  0  0  0  0  0  0
  -27.5532  -13.7339   20.7421 N   0  0  0  0  0  0  0  0  0  0  0  0
  -26.5551   -9.3294   20.7472 N   0  0  0  0  0  0  0  0  0  0  0  0
  -28.1644  -22.0363   17.2623 N   0  0  0  0  0  0  0  0  0  0  0  0
  -26.3980  -17.8145   18.5519 N   0  0  0  0  0  0  0  0  0  0  0  0
  -25.0193  -32.5289   23.5145 N   0  0  0  0  0  0  0  0  0  0  0  0
  -20.2547  -28.9213   20.8090 N   0  0  0  0  0  0  0  0  0  0  0  0
  -19.7657  -27.8434   17.3934 N   0  3  0  0  0  0  0  0  0  0  0  0
  -28.2601  -10.8520   20.5643 O   0  0  0  0  0  0  0  0  0  0  0  0
  -26.6372  -24.9642   17.2446 O   0  0  0  0  0  0  0  0  0  0  0  0
  -26.2775  -22.5169   18.6096 O   0  0  0  0  0  0  0  0  0  0  0  0
  -25.0499  -30.2016   23.5867 O   0  0  0  0  0  0  0  0  0  0  0  0
  -21.4137  -31.2832   21.9434 O   0  0  0  0  0  0  0  0  0  0  0  0
  -21.1824  -27.1030   19.7088 O   0  0  0  0  0  0  0  0  0  0  0  0
  -25.0752  -19.4845   19.4700 O   0  0  0  0  0  0  0  0  0  0  0  0
  -21.4928   -7.1005   21.4106 O   0  0  0  0  0  0  0  0  0  0  0  0
  -27.9435  -26.3115   19.8212 O   0  0  0  0  0  0  0  0  0  1  0  0
  -23.3039   -2.9045   24.4957 F   0  0  0  0  0  0  0  0  0  0  0  0
  -20.0237   -6.1886   23.5677 F   0  0  0  0  0  0  0  0  0  0  0  0
  -30.2816  -18.0286   15.8057 F   0  0  0  0  0  0  0  0  0  0  0  0
  -30.1604  -20.7652   15.8651 F   0  0  0  0  0  0  0  0  0  0  0  0
  1  2  1  0  0  0  0
  1  5  2  0  0  0  0
  2  6  2  0  0  0  0
  3  8  2  0  0  0  0
  3 16  1  0  0  0  0
  4  9  1  0  0  0  0
  4 16  2  0  0  0  0
  5 18  1  0  0  0  0
  6 20  1  0  0  0  0
  7 10  2  0  0  0  0
  7 19  1  0  0  0  0
  8 22  1  0  0  0  0
  9 22  2  0  0  0  0
 10 23  1  0  0  0  0
 11 12  2  0  0  0  0
 11 24  1  0  0  0  0
 12 25  1  0  0  0  0
 13 21  1  0  0  0  0
 13 23  2  0  0  0  0
 14 25  2  0  0  0  0
 14 26  1  0  0  0  0
 15 27  2  0  0  0  0
 15 30  1  0  0  0  0
 16 29  1  0  0  0  0
 17 29  1  0  0  0  0
 17 32  2  0  0  0  0
 17 33  1  0  0  0  0
 18 20  2  0  0  0  0
 18 40  1  0  0  0  0
 19 21  2  0  0  0  0
 19 41  1  0  0  0  0
 20 49  1  0  0  0  0
 21 42  1  0  0  0  0
 22 81  1  0  0  0  0
 23 82  1  0  0  0  0
 24 26  2  0  0  0  0
 24 81  1  0  0  0  0
 25 83  1  0  0  0  0
 26 84  1  0  0  0  0
 27 28  1  0  0  0  0
 27 85  1  0  0  0  0
 28 31  2  0  0  0  0
 28 86  1  0  0  0  0
 29 62  2  0  0  0  0
 30 63  2  0  0  0  0
 30 70  1  0  0  0  0
 31 63  1  0  0  0  0
 31 69  1  0  0  0  0
 32 64  1  0  0  0  0
 32 67  1  0  0  0  0
 33 68  1  0  0  0  0
 33 74  2  0  0  0  0
 34 35  1  0  0  0  0
 34 57  1  0  0  0  0
 34 75  2  0  0  0  0
 35 69  1  0  0  0  0
 35 76  2  0  0  0  0
 36 50  1  0  0  0  0
 36 71  1  0  0  0  0
 36 77  2  0  0  0  0
 37 59  1  0  0  0  0
 37 65  1  0  0  0  0
 37 78  2  0  0  0  0
 38 60  1  0  0  0  0
 38 72  1  0  0  0  0
 38 79  2  0  0  0  0
 39 66  1  0  0  0  0
 39 70  1  0  0  0  0
 39 80  2  0  0  0  0
 40 43  1  0  0  0  0
 41 50  1  0  0  0  0
 42 65  1  0  0  0  0
 43 45  1  0  0  0  0
 44 46  1  0  0  0  0
 44 47  1  0  0  0  0
 45 49  1  0  0  0  0
 46 51  1  0  0  0  0
 47 66  1  0  0  0  0
 48 51  1  0  0  0  0
 48 66  1  0  0  0  0
 49 71  1  0  0  0  0
 50 65  1  0  0  0  0
 51 64  1  0  0  0  0
 52 60  1  0  0  0  0
 53 61  1  0  0  0  0
 54 61  1  0  0  0  0
 55 61  1  0  0  0  0
 56 73  1  0  0  0  0
 57 58  1  0  0  0  0
 58 82  1  0  0  0  0
 59 61  1  0  0  0  0
 59 72  1  0  0  0  0
 60 73  1  0  0  0  0
 62 64  1  0  0  0  0
M  CHG  1  73   1
M  ISO  4  39 100  58 101  70 100  82 101
M  END
> <Batch ID>
0178

> <Smiles>
CNC(C)C(=O)NC(C(=O)N1Cc2cc([101O:1][101CH2:1]CC(=O)C(=O)Nc3nc([100NH:0][100C:0](=O)N4CCCC(n5nc(-c6ccc(Oc7ccc(F)cc7F)cc6)c(C(N)=O)c5N)C4)cc(F)c3F)ccc2CC1C(=O)NC1CCCc2ccccc21)C(C)(C)C

> <Shape>
0.292

> <Color>
0.103

> <Negative vol penalty>
0.000

$$$$

  -OEChem-04052304443D

 88 97  0     1  0  0  0  0  0999 V2000
  -19.2487  -30.5473   26.6139 C   0  0  0  0  0  0  0  0  0  0  0  0
  -19.4871  -29.2320   26.2286 C   0  0  0  0  0  0  0  0  0  0  0  0
  -22.7060  -10.6400   21.4842 C   0  0  0  0  0  0  0  0  0  0  0  0
  -24.4761   -8.9964   21.5316 C   0  0  0  0  0  0  0  0  0  0  0  0
  -19.2704  -31.5661   25.6623 C   0  0  0  0  0  0  0  0  0  0  0  0
  -19.7464  -28.9345   24.8912 C   0  0  0  0  0  0  0  0  0  0  0  0
  -25.8865  -25.7178   22.9307 C   0  0  0  0  0  0  0  0  0  0  0  0
  -21.9895   -9.8955   22.4211 C   0  0  0  0  0  0  0  0  0  0  0  0
  -23.7596   -8.2518   22.4686 C   0  0  0  0  0  0  0  0  0  0  0  0
  -26.9429  -24.9145   22.5008 C   0  0  0  0  0  0  0  0  0  0  0  0
  -21.1515   -6.1004   22.4734 C   0  0  0  0  0  0  0  0  0  0  0  0
  -21.0671   -4.7219   22.2782 C   0  0  0  0  0  0  0  0  0  0  0  0
  -26.1885  -25.1283   20.2131 C   0  0  0  0  0  0  0  0  0  0  0  0
  -29.6526  -18.2565   21.6289 C   0  0  0  0  0  0  0  0  0  0  0  0
  -22.1499   -4.3542   24.4064 C   0  0  0  0  0  0  0  0  0  0  0  0
  -27.3672  -18.0474   21.9966 C   0  0  0  0  0  0  0  0  0  0  0  0
  -23.9493  -10.1904   21.0393 C   0  0  0  0  0  0  0  0  0  0  0  0
  -24.2815  -11.3055   18.7691 C   0  0  0  0  0  0  0  0  0  0  0  0
  -19.5396  -31.2823   24.3141 C   0  0  0  0  0  0  0  0  0  0  0  0
  -24.9849  -26.2426   22.0006 C   0  0  0  0  0  0  0  0  0  0  0  0
  -19.7705  -29.9503   23.9204 C   0  0  0  0  0  0  0  0  0  0  0  0
  -25.1356  -25.9437   20.6365 C   0  0  0  0  0  0  0  0  0  0  0  0
  -28.5160  -17.3977   21.6023 C   0  0  0  0  0  0  0  0  0  0  0  0
  -22.5163   -8.7014   22.9133 C   0  0  0  0  0  0  0  0  0  0  0  0
  -27.0934  -24.6203   21.1454 C   0  0  0  0  0  0  0  0  0  0  0  0
  -21.7352   -6.6059   23.6351 C   0  0  0  0  0  0  0  0  0  0  0  0
  -21.5663   -3.8488   23.2447 C   0  0  0  0  0  0  0  0  0  0  0  0
  -22.2344   -5.7328   24.6016 C   0  0  0  0  0  0  0  0  0  0  0  0
  -24.6897  -10.9588   20.0711 C   0  0  0  0  0  0  0  0  0  0  0  0
  -29.3290  -19.5302   22.0423 C   0  0  0  0  0  0  0  0  0  0  0  0
  -25.3313  -12.0318   18.2622 C   0  0  0  0  0  0  0  0  0  0  0  0
  -31.5451  -23.5315   22.0895 C   0  0  0  0  0  0  0  0  0  0  0  0
  -23.0624  -10.9986   18.0797 C   0  0  0  0  0  0  0  0  0  0  0  0
  -21.9476  -28.3598   21.3939 C   0  0  0  0  0  0  0  0  0  0  0  0
  -23.9304  -28.9784   19.1364 C   0  0  0  0  0  0  0  0  0  0  0  0
  -25.7624  -30.4213   16.6466 C   0  0  0  0  0  0  0  0  0  0  0  0
  -29.6453  -15.2915   20.8055 C   0  0  0  0  0  0  0  0  0  0  0  0
  -19.5058  -32.4106   23.3139 C   0  0  0  0  0  0  0  0  0  0  0  0
  -23.7965  -27.0620   22.4252 C   0  0  0  0  0  0  0  0  0  0  0  0
  -24.1216  -26.5019   19.6757 C   0  0  0  0  0  0  0  0  0  0  0  0
  -31.5481  -23.2431   23.5718 C   0  0  0  0  0  0  0  0  0  0  0  0
  -20.1586  -32.0610   21.9790 C   0  0  0  0  0  0  0  0  0  0  0  0
  -31.9431  -21.7993   23.8378 C   0  0  0  0  0  0  0  0  0  0  0  0
  -30.0824  -12.5049   18.6327 C   0  0  0  0  0  0  0  0  0  0  0  0
  -19.6845  -30.6945   21.4946 C   0  0  0  0  0  0  0  0  0  0  0  0
  -30.8079  -20.7953   23.6348 C   0  0  0  0  0  0  0  0  0  0  0  0
  -28.7102  -11.8272   18.6317 C   0  0  0  0  0  0  0  0  0  0  0  0
  -30.4328  -13.0742   20.0064 C   0  0  0  0  0  0  0  0  0  0  0  0
  -28.0476  -13.2880   20.5847 C   0  0  0  0  0  0  0  0  0  0  0  0
  -20.0799  -29.5910   22.4833 C   0  0  1  0  0  0  0  0  0  0  0  0
  -30.2431  -20.7320   22.2054 C   0  0  2  0  0  0  0  0  0  0  0  0
  -30.3555  -23.1124   21.2567 C   0  0  2  0  0  0  0  0  0  0  0  0
  -23.4356  -28.1686   21.4180 C   0  0  1  0  0  0  0  0  0  0  0  0
  -27.6226  -12.7559   19.2063 C   0  0  2  0  0  0  0  0  0  0  0  0
  -25.5098  -31.6183   14.4556 C   0  0  0  0  0  0  0  0  0  0  0  0
  -29.3594  -26.6297   20.0126 C   0  0  0  0  0  0  0  0  0  0  0  0
  -29.5913  -24.6753   18.4748 C   0  0  0  0  0  0  0  0  0  0  0  0
  -23.2897  -26.3291   17.7672 C   0  0  0  0  0  0  0  0  0  0  0  0
  -23.9818  -27.3654   15.5957 C   0  0  0  0  0  0  0  0  0  0  0  0
  -22.0455  -28.3000   16.8606 C   0  0  0  0  0  0  0  0  0  0  0  0
  -27.0927  -32.8512   17.6883 C   0  0  0  0  0  0  0  0  0  0  0  0
  -24.3896  -28.6647   17.7349 C   0  0  1  0  0  0  0  0  0  0  0  0
  -25.6454  -31.7714   15.9625 C   0  0  2  0  0  0  0  0  0  0  0  0
  -29.4477  -24.3093   21.0113 C   0  0  1  0  0  0  0  0  0  1  0  0
  -29.9383  -25.2181   19.8644 C   0  0  0  0  0  0  0  0  0  0  0  0
  -23.4446  -27.6641   17.0116 C   0  0  0  0  0  0  0  0  0  0  0  0
  -25.9041  -11.4262   20.3724 N   0  0  0  0  0  0  0  0  0  0  0  0
  -26.2680  -12.0740   19.2526 N   0  0  0  0  0  0  0  0  0  0  0  0
  -23.8179  -27.8993   20.0215 N   0  0  0  0  0  0  0  0  0  0  0  0
  -29.3590  -13.9476   20.4851 N   0  0  0  0  0  0  0  0  0  0  0  0
  -25.5352  -12.6320   17.0703 N   0  0  0  0  0  0  0  0  0  0  0  0
  -23.0008   -9.8200   17.3238 N   0  0  0  0  0  0  0  0  0  0  0  0
  -28.5395  -16.0339   21.2185 N   0  0  0  0  0  0  0  0  0  0  0  0
  -21.4803  -29.2574   22.3348 N   0  0  0  0  0  0  0  0  0  0  0  0
  -24.5337  -29.9479   17.0558 N   0  0  0  0  0  0  0  0  0  0  0  0
  -29.5298  -22.0262   21.8848 N   0  3  0  0  0  0  0  0  0  0  0  0
  -26.8511  -32.6009   16.2440 N   0  3  0  0  0  0  0  0  0  0  0  0
  -32.4884  -24.1325   21.5685 O   0  0  0  0  0  0  0  0  0  0  0  0
  -22.0630  -11.7556   18.1191 O   0  0  0  0  0  0  0  0  0  0  0  0
  -21.2719  -27.7403   20.5806 O   0  0  0  0  0  0  0  0  0  0  0  0
  -23.6723  -30.1467   19.4392 O   0  0  0  0  0  0  0  0  0  0  0  0
  -26.8359  -29.8426   16.7992 O   0  0  0  0  0  0  0  0  0  0  0  0
  -30.7822  -15.7573   20.6937 O   0  0  0  0  0  0  0  0  0  0  0  0
  -21.8176   -7.9747   23.8278 O   0  0  0  0  0  0  0  0  0  0  0  0
  -28.1296  -23.8392   20.7320 O   0  0  0  0  0  0  0  0  0  1  0  0
  -21.4837   -2.5250   23.0578 F   0  0  0  0  0  0  0  0  0  0  0  0
  -22.7952   -6.2124   25.7202 F   0  0  0  0  0  0  0  0  0  0  0  0
  -27.6610  -19.6864   22.3965 S   0  0  0  0  0  0  0  0  0  0  0  0
  1  2  1  0  0  0  0
  1  5  2  0  0  0  0
  2  6  2  0  0  0  0
  3  8  2  0  0  0  0
  3 17  1  0  0  0  0
  4  9  1  0  0  0  0
  4 17  2  0  0  0  0
  5 19  1  0  0  0  0
  6 21  1  0  0  0  0
  7 10  2  0  0  0  0
  7 20  1  0  0  0  0
  8 24  1  0  0  0  0
  9 24  2  0  0  0  0
 10 25  1  0  0  0  0
 11 12  2  0  0  0  0
 11 26  1  0  0  0  0
 12 27  1  0  0  0  0
 13 22  1  0  0  0  0
 13 25  2  0  0  0  0
 14 23  1  0  0  0  0
 14 30  2  0  0  0  0
 15 27  2  0  0  0  0
 15 28  1  0  0  0  0
 16 23  2  0  0  0  0
 16 88  1  0  0  0  0
 17 29  1  0  0  0  0
 18 29  1  0  0  0  0
 18 31  2  0  0  0  0
 18 33  1  0  0  0  0
 19 21  2  0  0  0  0
 19 38  1  0  0  0  0
 20 22  2  0  0  0  0
 20 39  1  0  0  0  0
 21 50  1  0  0  0  0
 22 40  1  0  0  0  0
 23 73  1  0  0  0  0
 24 84  1  0  0  0  0
 25 85  1  0  0  0  0
 26 28  2  0  0  0  0
 26 84  1  0  0  0  0
 27 86  1  0  0  0  0
 28 87  1  0  0  0  0
 29 67  2  0  0  0  0
 30 51  1  0  0  0  0
 30 88  1  0  0  0  0
 31 68  1  0  0  0  0
 31 71  1  0  0  0  0
 32 41  1  0  0  0  0
 32 52  1  0  0  0  0
 32 78  2  0  0  0  0
 33 72  1  0  0  0  0
 33 79  2  0  0  0  0
 34 53  1  0  0  0  0
 34 74  1  0  0  0  0
 34 80  2  0  0  0  0
 35 62  1  0  0  0  0
 35 69  1  0  0  0  0
 35 81  2  0  0  0  0
 36 63  1  0  0  0  0
 36 75  1  0  0  0  0
 36 82  2  0  0  0  0
 37 70  1  0  0  0  0
 37 73  1  0  0  0  0
 37 83  2  0  0  0  0
 38 42  1  0  0  0  0
 39 53  1  0  0  0  0
 40 69  1  0  0  0  0
 41 43  1  0  0  0  0
 42 45  1  0  0  0  0
 43 46  1  0  0  0  0
 44 47  1  0  0  0  0
 44 48  1  0  0  0  0
 45 50  1  0  0  0  0
 46 51  1  0  0  0  0
 47 54  1  0  0  0  0
 48 70  1  0  0  0  0
 49 54  1  0  0  0  0
 49 70  1  0  0  0  0
 50 74  1  0  0  0  0
 51 76  1  0  0  0  0
 52 64  1  0  0  0  0
 52 76  1  0  0  0  0
 53 69  1  0  0  0  0
 54 68  1  0  0  0  0
 55 63  1  0  0  0  0
 56 65  1  0  0  0  0
 57 65  1  0  0  0  0
 58 66  1  0  0  0  0
 59 66  1  0  0  0  0
 60 66  1  0  0  0  0
 61 77  1  0  0  0  0
 62 66  1  0  0  0  0
 62 75  1  0  0  0  0
 63 77  1  0  0  0  0
 64 65  1  0  0  0  0
 64 85  1  0  0  0  0
 67 68  1  0  0  0  0
M  CHG  2  76   1  77   1
M  ISO  4  37 100  64 101  73 100  85 101
M  END
> <Batch ID>
0178

> <Smiles>
CNC(C)C(=O)NC(C(=O)N1Cc2cc([101O:1][101CH:1](C(C)C)C3NC(c4cc([100NH:0][100C:0](=O)N5CCCC(n6nc(-c7ccc(Oc8ccc(F)cc8F)cc7)c(C(N)=O)c6N)C5)cs4)CCCC3=O)ccc2CC1C(=O)NC1CCCc2ccccc21)C(C)(C)C

> <Shape>
0.240

> <Color>
0.083

> <Negative vol penalty>
0.000

$$$$

  -OEChem-04052304443D

 83 91  0     1  0  0  0  0  0999 V2000
  -23.2841  -35.7621   15.6260 C   0  0  0  0  0  0  0  0  0  0  0  0
  -23.9860  -34.5623   15.6829 C   0  0  0  0  0  0  0  0  0  0  0  0
  -33.6991   -7.4135   19.0713 C   0  0  0  0  0  0  0  0  0  0  0  0
  -31.7072   -6.2140   19.7275 C   0  0  0  0  0  0  0  0  0  0  0  0
  -23.2165  -36.5829   16.7510 C   0  0  0  0  0  0  0  0  0  0  0  0
  -24.6216  -34.1831   16.8647 C   0  0  0  0  0  0  0  0  0  0  0  0
  -25.2861  -28.4912   19.0248 C   0  0  0  0  0  0  0  0  0  0  0  0
  -34.4880   -6.4305   19.6687 C   0  0  0  0  0  0  0  0  0  0  0  0
  -32.4961   -5.2308   20.3248 C   0  0  0  0  0  0  0  0  0  0  0  0
  -26.3460  -27.5869   18.9752 C   0  0  0  0  0  0  0  0  0  0  0  0
  -35.5750   -3.3163   18.9248 C   0  0  0  0  0  0  0  0  0  0  0  0
  -36.6789   -2.8491   18.2117 C   0  0  0  0  0  0  0  0  0  0  0  0
  -28.9004  -18.5391   21.5004 C   0  0  0  0  0  0  0  0  0  0  0  0
  -28.6226  -19.9345   21.5759 C   0  0  0  0  0  0  0  0  0  0  0  0
  -27.0544  -28.3061   21.1661 C   0  0  0  0  0  0  0  0  0  0  0  0
  -38.1390   -3.5827   19.9913 C   0  0  0  0  0  0  0  0  0  0  0  0
  -32.3087   -7.3053   19.1007 C   0  0  0  0  0  0  0  0  0  0  0  0
  -31.0359   -8.3517   17.1532 C   0  0  0  0  0  0  0  0  0  0  0  0
  -23.8435  -36.2090   17.9500 C   0  0  0  0  0  0  0  0  0  0  0  0
  -25.1084  -29.3189   20.1428 C   0  0  0  0  0  0  0  0  0  0  0  0
  -24.5635  -35.0003   18.0064 C   0  0  0  0  0  0  0  0  0  0  0  0
  -25.9900  -29.2183   21.2285 C   0  0  0  0  0  0  0  0  0  0  0  0
  -33.8865   -5.3391   20.2955 C   0  0  0  0  0  0  0  0  0  0  0  0
  -27.2321  -27.4963   20.0446 C   0  0  0  0  0  0  0  0  0  0  0  0
  -35.7530   -3.9169   20.1712 C   0  0  0  0  0  0  0  0  0  0  0  0
  -37.9609   -2.9822   18.7449 C   0  0  0  0  0  0  0  0  0  0  0  0
  -37.0350   -4.0500   20.7044 C   0  0  0  0  0  0  0  0  0  0  0  0
  -31.4933   -8.3208   18.4843 C   0  0  0  0  0  0  0  0  0  0  0  0
  -29.8530  -18.2519   20.5477 C   0  0  0  0  0  0  0  0  0  0  0  0
  -30.3074   -9.5129   17.0674 C   0  0  0  0  0  0  0  0  0  0  0  0
  -29.3737  -20.6609   20.6780 C   0  0  0  0  0  0  0  0  0  0  0  0
  -30.3842  -16.9959   20.1845 C   0  0  0  0  0  0  0  0  0  0  0  0
  -30.0375  -15.7703   20.7041 C   0  0  0  0  0  0  0  0  0  0  0  0
  -28.0613  -25.3534   20.4820 C   0  0  0  0  0  0  0  0  0  1  0  0
  -31.2505   -7.4146   16.0895 C   0  0  0  0  0  0  0  0  0  0  0  0
  -29.0083  -24.4074   20.4860 C   0  0  0  0  0  0  0  0  0  0  0  0
  -30.6815  -14.5370   20.2093 C   0  0  0  0  0  0  0  0  0  0  0  0
  -28.6807  -23.0525   21.0385 C   0  0  0  0  0  0  0  0  0  0  0  0
  -25.1146  -32.4596   20.6321 C   0  0  0  0  0  0  0  0  0  0  0  0
  -24.1988  -31.6024   23.6235 C   0  0  0  0  0  0  0  0  0  0  0  0
  -24.1316  -29.2139   26.0601 C   0  0  0  0  0  0  0  0  0  0  0  0
  -23.7824  -37.1515   19.1258 C   0  0  0  0  0  0  0  0  0  0  0  0
  -23.9445  -30.2703   20.1922 C   0  0  0  0  0  0  0  0  0  0  0  0
  -25.8312  -30.0701   22.4605 C   0  0  0  0  0  0  0  0  0  0  0  0
  -24.1686  -36.4987   20.4506 C   0  0  0  0  0  0  0  0  0  0  0  0
  -27.6784  -12.4989   19.6995 C   0  0  0  0  0  0  0  0  0  0  0  0
  -25.4441  -35.6777   20.2893 C   0  0  0  0  0  0  0  0  0  0  0  0
  -28.2939  -11.1764   19.2501 C   0  0  0  0  0  0  0  0  0  0  0  0
  -28.5558  -13.2197   20.7218 C   0  0  0  0  0  0  0  0  0  0  0  0
  -30.5740  -12.1075   19.8107 C   0  0  0  0  0  0  0  0  0  0  0  0
  -25.2453  -34.5427   19.2775 C   0  0  1  0  0  0  0  0  0  0  0  0
  -24.1597  -31.4278   21.1624 C   0  0  1  0  0  0  0  0  0  0  0  0
  -29.7306  -11.3878   18.7467 C   0  0  1  0  0  0  0  0  0  0  0  0
  -23.3457  -28.8190   28.4104 C   0  0  0  0  0  0  0  0  0  0  0  0
  -26.5223  -33.2750   24.6790 C   0  0  0  0  0  0  0  0  0  0  0  0
  -26.2763  -32.1028   26.8775 C   0  0  0  0  0  0  0  0  0  0  0  0
  -24.4028  -33.4896   25.9890 C   0  0  0  0  0  0  0  0  0  0  0  0
  -22.3538  -27.0028   25.2176 C   0  0  0  0  0  0  0  0  0  0  0  0
  -24.9191  -31.2640   24.9064 C   0  0  1  0  0  0  0  0  0  0  0  0
  -23.0026  -28.6977   26.9338 C   0  0  2  0  0  0  0  0  0  0  0  0
  -25.5345  -32.5180   25.5891 C   0  0  0  0  0  0  0  0  0  0  0  0
  -31.0892   -9.3783   19.1931 N   0  0  0  0  0  0  0  0  0  0  0  0
  -30.3704  -10.0847   18.3041 N   0  0  0  0  0  0  0  0  0  0  0  0
  -29.9390  -13.3579   20.2418 N   0  0  0  0  0  0  0  0  0  0  0  0
  -24.6813  -30.9895   22.4585 N   0  0  0  0  0  0  0  0  0  0  0  0
  -29.6254  -10.0904   16.0556 N   0  0  0  0  0  0  0  0  0  0  0  0
  -32.0234   -6.2747   16.3491 N   0  0  0  0  0  0  0  0  0  0  0  0
  -29.4168  -22.0520   20.4188 N   0  0  0  0  0  0  0  0  0  0  0  0
  -24.5120  -33.4505   19.8808 N   0  0  0  0  0  0  0  0  0  0  0  0
  -23.9594  -30.5428   25.7353 N   0  0  0  0  0  0  0  0  0  0  0  0
  -22.7273  -27.2646   26.6314 N   0  3  0  0  0  0  0  0  0  0  0  0
  -30.7846   -7.5914   14.9383 O   0  0  0  0  0  0  0  0  0  0  0  0
  -31.8410  -14.6252   19.8013 O   0  0  0  0  0  0  0  0  0  0  0  0
  -27.8505  -22.9201   21.9313 O   0  0  0  0  0  0  0  0  0  0  0  0
  -26.3095  -32.3647   20.8870 O   0  0  0  0  0  0  0  0  0  0  0  0
  -23.2388  -32.3764   23.6551 O   0  0  0  0  0  0  0  0  0  0  0  0
  -25.0741  -28.5097   25.7047 O   0  0  0  0  0  0  0  0  0  0  0  0
  -30.2804  -24.6286   19.9987 O   0  0  0  0  0  0  0  0  0  0  0  0
  -34.6559   -4.3795   20.8783 O   0  0  0  0  0  0  0  0  0  0  0  0
  -28.2679  -26.6149   19.9985 O   0  0  0  0  0  0  0  0  0  1  0  0
  -39.0208   -2.5320   18.0607 F   0  0  0  0  0  0  0  0  0  0  0  0
  -37.2122   -4.6249   21.9019 F   0  0  0  0  0  0  0  0  0  0  0  0
  -30.4083  -19.6613   19.7492 S   0  0  0  0  0  0  0  0  0  0  0  0
  1  2  1  0  0  0  0
  1  5  2  0  0  0  0
  2  6  2  0  0  0  0
  3  8  2  0  0  0  0
  3 17  1  0  0  0  0
  4  9  1  0  0  0  0
  4 17  2  0  0  0  0
  5 19  1  0  0  0  0
  6 21  1  0  0  0  0
  7 10  2  0  0  0  0
  7 20  1  0  0  0  0
  8 23  1  0  0  0  0
  9 23  2  0  0  0  0
 10 24  1  0  0  0  0
 11 12  2  0  0  0  0
 11 25  1  0  0  0  0
 12 26  1  0  0  0  0
 13 14  1  0  0  0  0
 13 29  2  0  0  0  0
 14 31  2  0  0  0  0
 15 22  1  0  0  0  0
 15 24  2  0  0  0  0
 16 26  2  0  0  0  0
 16 27  1  0  0  0  0
 17 28  1  0  0  0  0
 18 28  1  0  0  0  0
 18 30  2  0  0  0  0
 18 35  1  0  0  0  0
 19 21  2  0  0  0  0
 19 42  1  0  0  0  0
 20 22  2  0  0  0  0
 20 43  1  0  0  0  0
 21 51  1  0  0  0  0
 22 44  1  0  0  0  0
 23 79  1  0  0  0  0
 24 80  1  0  0  0  0
 25 27  2  0  0  0  0
 25 79  1  0  0  0  0
 26 81  1  0  0  0  0
 27 82  1  0  0  0  0
 28 62  2  0  0  0  0
 29 32  1  0  0  0  0
 29 83  1  0  0  0  0
 30 63  1  0  0  0  0
 30 66  1  0  0  0  0
 31 68  1  0  0  0  0
 31 83  1  0  0  0  0
 32 33  2  0  0  0  0
 33 37  1  0  0  0  0
 34 36  2  0  0  0  0
 34 80  1  0  0  0  0
 35 67  1  0  0  0  0
 35 72  2  0  0  0  0
 36 38  1  0  0  0  0
 36 78  1  0  0  0  0
 37 64  1  0  0  0  0
 37 73  2  0  0  0  0
 38 68  1  0  0  0  0
 38 74  2  0  0  0  0
 39 52  1  0  0  0  0
 39 69  1  0  0  0  0
 39 75  2  0  0  0  0
 40 59  1  0  0  0  0
 40 65  1  0  0  0  0
 40 76  2  0  0  0  0
 41 60  1  0  0  0  0
 41 70  1  0  0  0  0
 41 77  2  0  0  0  0
 42 45  1  0  0  0  0
 43 52  1  0  0  0  0
 44 65  1  0  0  0  0
 45 47  1  0  0  0  0
 46 48  1  0  0  0  0
 46 49  1  0  0  0  0
 47 51  1  0  0  0  0
 48 53  1  0  0  0  0
 49 64  1  0  0  0  0
 50 53  1  0  0  0  0
 50 64  1  0  0  0  0
 51 69  1  0  0  0  0
 52 65  1  0  0  0  0
 53 63  1  0  0  0  0
 54 60  1  0  0  0  0
 55 61  1  0  0  0  0
 56 61  1  0  0  0  0
 57 61  1  0  0  0  0
 58 71  1  0  0  0  0
 59 61  1  0  0  0  0
 59 70  1  0  0  0  0
 60 71  1  0  0  0  0
 62 63  1  0  0  0  0
M  CHG  1  71   1
M  ISO  4  33 100  34 101  37 100  80 101
M  END
> <Batch ID>
0178

> <Smiles>
CNC(C)C(=O)NC(C(=O)N1Cc2cc([101O:1][101CH2:1]C(=O)C(=O)Nc3ccc(C=[100CH:0][100C:0](=O)N4CCCC(n5nc(-c6ccc(Oc7ccc(F)cc7F)cc6)c(C(N)=O)c5N)C4)s3)ccc2CC1C(=O)NC1CCCc2ccccc21)C(C)(C)C

> <Shape>
0.206

> <Color>
0.107

> <Negative vol penalty>
0.000

$$$$

  -OEChem-04052304443D

 85 93  0     1  0  0  0  0  0999 V2000
  -29.5644  -30.3870   26.8044 C   0  0  0  0  0  0  0  0  0  0  0  0
  -29.2687  -29.5753   25.7139 C   0  0  0  0  0  0  0  0  0  0  0  0
  -24.5682   -8.3124   20.5759 C   0  0  0  0  0  0  0  0  0  0  0  0
  -22.9345  -10.0905   20.6563 C   0  0  0  0  0  0  0  0  0  0  0  0
  -28.5366  -31.0338   27.4895 C   0  0  0  0  0  0  0  0  0  0  0  0
  -27.9449  -29.4092   25.3084 C   0  0  0  0  0  0  0  0  0  0  0  0
  -27.3927  -29.7591   20.2867 C   0  0  0  0  0  0  0  0  0  0  0  0
  -23.5878   -7.3945   20.9523 C   0  0  0  0  0  0  0  0  0  0  0  0
  -21.9540   -9.1726   21.0327 C   0  0  0  0  0  0  0  0  0  0  0  0
  -27.7572  -28.6482   19.5272 C   0  0  0  0  0  0  0  0  0  0  0  0
  -22.0294   -6.4409   23.7960 C   0  0  0  0  0  0  0  0  0  0  0  0
  -22.3575   -5.5116   24.7831 C   0  0  0  0  0  0  0  0  0  0  0  0
  -25.4378  -28.0050   19.3659 C   0  0  0  0  0  0  0  0  0  0  0  0
  -21.9233   -3.7108   23.2320 C   0  0  0  0  0  0  0  0  0  0  0  0
  -28.4902  -19.1631   20.5520 C   0  0  0  0  0  0  0  0  0  0  0  0
  -24.2416   -9.6604   20.4279 C   0  0  0  0  0  0  0  0  0  0  0  0
  -25.6045  -10.9906   18.7306 C   0  0  0  0  0  0  0  0  0  0  0  0
  -27.2005  -30.8832   27.0862 C   0  0  0  0  0  0  0  0  0  0  0  0
  -26.0468  -29.9957   20.6013 C   0  0  0  0  0  0  0  0  0  0  0  0
  -26.8982  -30.0536   25.9896 C   0  0  0  0  0  0  0  0  0  0  0  0
  -25.0586  -29.1210   20.1274 C   0  0  0  0  0  0  0  0  0  0  0  0
  -28.1561  -18.0819   19.7525 C   0  0  0  0  0  0  0  0  0  0  0  0
  -22.2807   -7.8246   21.1807 C   0  0  0  0  0  0  0  0  0  0  0  0
  -26.7799  -27.7694   19.0691 C   0  0  0  0  0  0  0  0  0  0  0  0
  -21.6482   -6.0052   22.5269 C   0  0  0  0  0  0  0  0  0  0  0  0
  -22.3045   -4.1466   24.5011 C   0  0  0  0  0  0  0  0  0  0  0  0
  -21.5952   -4.6402   22.2449 C   0  0  0  0  0  0  0  0  0  0  0  0
  -27.6704  -18.3419   18.4758 C   0  0  0  0  0  0  0  0  0  0  0  0
  -27.5357  -19.6567   18.0438 C   0  0  0  0  0  0  0  0  0  0  0  0
  -25.2542  -10.6092   20.0397 C   0  0  0  0  0  0  0  0  0  0  0  0
  -27.8975  -20.6673   18.9198 C   0  0  0  0  0  0  0  0  0  0  0  0
  -26.6116  -11.9094   18.8986 C   0  0  0  0  0  0  0  0  0  0  0  0
  -27.4132  -25.5193   18.9859 C   0  0  0  0  0  0  0  0  0  1  0  0
  -25.0676  -10.5535   17.4751 C   0  0  0  0  0  0  0  0  0  0  0  0
  -27.7702  -24.3923   18.3582 C   0  0  0  0  0  0  0  0  0  0  0  0
  -28.0559  -23.1657   19.1718 C   0  0  0  0  0  0  0  0  0  0  0  0
  -24.3713  -30.1759   23.2965 C   0  0  0  0  0  0  0  0  0  0  0  0
  -21.9821  -31.0714   21.2934 C   0  0  0  0  0  0  0  0  0  0  0  0
  -20.6736  -31.0255   18.1418 C   0  0  0  0  0  0  0  0  0  0  0  0
  -28.7765  -16.3476   21.4711 C   0  0  0  0  0  0  0  0  0  0  0  0
  -26.1193  -31.5648   27.8870 C   0  0  0  0  0  0  0  0  0  0  0  0
  -25.6675  -31.2131   21.3991 C   0  0  0  0  0  0  0  0  0  0  0  0
  -23.5978  -29.3414   20.4205 C   0  0  0  0  0  0  0  0  0  0  0  0
  -24.7773  -31.6346   27.1629 C   0  0  0  0  0  0  0  0  0  0  0  0
  -29.2577  -13.1792   23.0226 C   0  0  0  0  0  0  0  0  0  0  0  0
  -24.4320  -30.2824   26.5472 C   0  0  0  0  0  0  0  0  0  0  0  0
  -28.2879  -12.2595   22.2772 C   0  0  0  0  0  0  0  0  0  0  0  0
  -28.6776  -14.5794   23.2143 C   0  0  0  0  0  0  0  0  0  0  0  0
  -27.2284  -14.3066   21.2408 C   0  0  0  0  0  0  0  0  0  0  0  0
  -25.4769  -29.8681   25.5041 C   0  0  1  0  0  0  0  0  0  0  0  0
  -24.3163  -31.0750   22.0939 C   0  0  1  0  0  0  0  0  0  0  0  0
  -27.7948  -12.9039   20.9667 C   0  0  2  0  0  0  0  0  0  0  0  0
  -18.6900  -31.8114   16.8209 C   0  0  0  0  0  0  0  0  0  0  0  0
  -20.2841  -28.8593   22.5318 C   0  0  0  0  0  0  0  0  0  0  0  0
  -18.7259  -29.0598   20.5823 C   0  0  0  0  0  0  0  0  0  0  0  0
  -19.0627  -31.0010   22.1124 C   0  0  0  0  0  0  0  0  0  0  0  0
  -22.3683  -32.6639   16.3522 C   0  0  0  0  0  0  0  0  0  0  0  0
  -20.9105  -30.3459   20.5160 C   0  0  1  0  0  0  0  0  0  0  0  0
  -20.1071  -32.1318   17.2702 C   0  0  2  0  0  0  0  0  0  0  0  0
  -19.7734  -29.8110   21.4316 C   0  0  0  0  0  0  0  0  0  0  0  0
  -28.3731  -20.4537   20.1671 N   0  0  0  0  0  0  0  0  0  0  0  0
  -25.9798  -11.2344   20.9706 N   0  0  0  0  0  0  0  0  0  0  0  0
  -26.7962  -12.0180   20.2456 N   0  0  0  0  0  0  0  0  0  0  0  0
  -23.2778  -30.5424   21.2096 N   0  0  0  0  0  0  0  0  0  0  0  0
  -28.2355  -15.1281   21.9304 N   0  0  0  0  0  0  0  0  0  0  0  0
  -27.3483  -12.6268   18.0241 N   0  0  0  0  0  0  0  0  0  0  0  0
  -24.0363   -9.6045   17.4835 N   0  0  0  0  0  0  0  0  0  0  0  0
  -28.3053  -16.7537   20.2231 N   0  0  0  0  0  0  0  0  0  0  0  0
  -27.7569  -22.0037   18.4738 N   0  0  0  0  0  0  0  0  0  0  0  0
  -25.2669  -30.5864   24.2654 N   0  0  0  0  0  0  0  0  0  0  0  0
  -20.4597  -31.2709   19.4817 N   0  0  0  0  0  0  0  0  0  0  0  0
  -20.9531  -32.3207   16.0580 N   0  3  0  0  0  0  0  0  0  0  0  0
  -25.5012  -10.9793   16.3777 O   0  0  0  0  0  0  0  0  0  0  0  0
  -28.5001  -23.2549   20.3114 O   0  0  0  0  0  0  0  0  0  0  0  0
  -23.6532  -29.1840   23.3426 O   0  0  0  0  0  0  0  0  0  0  0  0
  -21.6819  -32.0747   21.9452 O   0  0  0  0  0  0  0  0  0  0  0  0
  -21.2452  -30.0403   17.6801 O   0  0  0  0  0  0  0  0  0  0  0  0
  -29.6177  -16.9710   22.1236 O   0  0  0  0  0  0  0  0  0  0  0  0
  -27.8854  -24.3120   16.9853 O   0  0  0  0  0  0  0  0  0  0  0  0
  -21.3236   -6.9291   21.5478 O   0  0  0  0  0  0  0  0  0  0  0  0
  -27.1330  -26.6840   18.3280 O   0  0  0  0  0  0  0  0  0  1  0  0
  -22.6210   -3.2543   25.4486 F   0  0  0  0  0  0  0  0  0  0  0  0
  -21.2309   -4.2156   21.0272 F   0  0  0  0  0  0  0  0  0  0  0  0
  -27.3305  -17.3366   17.6568 F   0  0  0  0  0  0  0  0  0  0  0  0
  -27.0690  -19.9218   16.8170 F   0  0  0  0  0  0  0  0  0  0  0  0
  1  2  1  0  0  0  0
  1  5  2  0  0  0  0
  2  6  2  0  0  0  0
  3  8  2  0  0  0  0
  3 16  1  0  0  0  0
  4  9  1  0  0  0  0
  4 16  2  0  0  0  0
  5 18  1  0  0  0  0
  6 20  1  0  0  0  0
  7 10  2  0  0  0  0
  7 19  1  0  0  0  0
  8 23  1  0  0  0  0
  9 23  2  0  0  0  0
 10 24  1  0  0  0  0
 11 12  2  0  0  0  0
 11 25  1  0  0  0  0
 12 26  1  0  0  0  0
 13 21  1  0  0  0  0
 13 24  2  0  0  0  0
 14 26  2  0  0  0  0
 14 27  1  0  0  0  0
 15 22  1  0  0  0  0
 15 61  2  0  0  0  0
 16 30  1  0  0  0  0
 17 30  1  0  0  0  0
 17 32  2  0  0  0  0
 17 34  1  0  0  0  0
 18 20  2  0  0  0  0
 18 41  1  0  0  0  0
 19 21  2  0  0  0  0
 19 42  1  0  0  0  0
 20 50  1  0  0  0  0
 21 43  1  0  0  0  0
 22 28  2  0  0  0  0
 22 68  1  0  0  0  0
 23 80  1  0  0  0  0
 24 81  1  0  0  0  0
 25 27  2  0  0  0  0
 25 80  1  0  0  0  0
 26 82  1  0  0  0  0
 27 83  1  0  0  0  0
 28 29  1  0  0  0  0
 28 84  1  0  0  0  0
 29 31  2  0  0  0  0
 29 85  1  0  0  0  0
 30 62  2  0  0  0  0
 31 61  1  0  0  0  0
 31 69  1  0  0  0  0
 32 63  1  0  0  0  0
 32 66  1  0  0  0  0
 33 35  2  0  0  0  0
 33 81  1  0  0  0  0
 34 67  1  0  0  0  0
 34 73  2  0  0  0  0
 35 36  1  0  0  0  0
 35 79  1  0  0  0  0
 36 69  1  0  0  0  0
 36 74  2  0  0  0  0
 37 51  1  0  0  0  0
 37 70  1  0  0  0  0
 37 75  2  0  0  0  0
 38 58  1  0  0  0  0
 38 64  1  0  0  0  0
 38 76  2  0  0  0  0
 39 59  1  0  0  0  0
 39 71  1  0  0  0  0
 39 77  2  0  0  0  0
 40 65  1  0  0  0  0
 40 68  1  0  0  0  0
 40 78  2  0  0  0  0
 41 44  1  0  0  0  0
 42 51  1  0  0  0  0
 43 64  1  0  0  0  0
 44 46  1  0  0  0  0
 45 47  1  0  0  0  0
 45 48  1  0  0  0  0
 46 50  1  0  0  0  0
 47 52  1  0  0  0  0
 48 65  1  0  0  0  0
 49 52  1  0  0  0  0
 49 65  1  0  0  0  0
 50 70  1  0  0  0  0
 51 64  1  0  0  0  0
 52 63  1  0  0  0  0
 53 59  1  0  0  0  0
 54 60  1  0  0  0  0
 55 60  1  0  0  0  0
 56 60  1  0  0  0  0
 57 72  1  0  0  0  0
 58 60  1  0  0  0  0
 58 71  1  0  0  0  0
 59 72  1  0  0  0  0
 62 63  1  0  0  0  0
M  CHG  1  72   1
M  ISO  4  33 101  40 100  68 100  81 101
M  END
> <Batch ID>
0178

> <Smiles>
CNC(C)C(=O)NC(C(=O)N1Cc2cc([101O:1][101CH2:1]C(=O)C(=O)Nc3ncc([100NH:0][100C:0](=O)N4CCCC(n5nc(-c6ccc(Oc7ccc(F)cc7F)cc6)c(C(N)=O)c5N)C4)c(F)c3F)ccc2CC1C(=O)NC1CCCc2ccccc21)C(C)(C)C

> <Shape>
0.293

> <Color>
0.115

> <Negative vol penalty>
0.000

$$$$

  -OEChem-04052304443D

 83 91  0     1  0  0  0  0  0999 V2000
  -32.5822  -32.4569   16.3706 C   0  0  0  0  0  0  0  0  0  0  0  0
  -32.4101  -31.5296   17.3932 C   0  0  0  0  0  0  0  0  0  0  0  0
  -23.1360   -9.7773   20.1896 C   0  0  0  0  0  0  0  0  0  0  0  0
  -23.7820  -10.1080   22.4941 C   0  0  0  0  0  0  0  0  0  0  0  0
  -31.8201  -33.6244   16.3541 C   0  0  0  0  0  0  0  0  0  0  0  0
  -31.4764  -31.7697   18.4007 C   0  0  0  0  0  0  0  0  0  0  0  0
  -28.6737  -27.6883   19.4647 C   0  0  0  0  0  0  0  0  0  0  0  0
  -22.4008   -8.6504   20.5574 C   0  0  0  0  0  0  0  0  0  0  0  0
  -23.0468   -8.9811   22.8619 C   0  0  0  0  0  0  0  0  0  0  0  0
  -29.2610  -26.7008   20.2544 C   0  0  0  0  0  0  0  0  0  0  0  0
  -19.8072   -8.1944   23.4157 C   0  0  0  0  0  0  0  0  0  0  0  0
  -18.9944   -8.2930   24.5450 C   0  0  0  0  0  0  0  0  0  0  0  0
  -28.0870  -27.5524   22.1820 C   0  0  0  0  0  0  0  0  0  0  0  0
  -20.2315   -6.5011   25.5918 C   0  0  0  0  0  0  0  0  0  0  0  0
  -23.8267  -10.5060   21.1580 C   0  0  0  0  0  0  0  0  0  0  0  0
  -24.1303  -13.0000   20.7158 C   0  0  0  0  0  0  0  0  0  0  0  0
  -30.8698  -33.8743   17.3566 C   0  0  0  0  0  0  0  0  0  0  0  0
  -27.7955  -28.6236   20.0309 C   0  0  0  0  0  0  0  0  0  0  0  0
  -30.7018  -32.9422   18.3984 C   0  0  0  0  0  0  0  0  0  0  0  0
  -27.4878  -28.5492   21.3969 C   0  0  0  0  0  0  0  0  0  0  0  0
  -22.3562   -8.2524   21.8936 C   0  0  0  0  0  0  0  0  0  0  0  0
  -28.9700  -26.6345   21.6138 C   0  0  0  0  0  0  0  0  0  0  0  0
  -20.8321   -7.2491   23.3744 C   0  0  0  0  0  0  0  0  0  0  0  0
  -19.2066   -7.4464   25.6330 C   0  0  0  0  0  0  0  0  0  0  0  0
  -21.0442   -6.4025   24.4624 C   0  0  0  0  0  0  0  0  0  0  0  0
  -24.5868  -11.6698   20.7786 C   0  0  0  0  0  0  0  0  0  0  0  0
  -30.4495  -19.5059   22.3273 C   0  0  0  0  0  0  0  0  0  0  0  0
  -31.5928  -19.0693   21.6914 C   0  0  0  0  0  0  0  0  0  0  0  0
  -25.2258  -13.7201   20.3062 C   0  0  0  0  0  0  0  0  0  0  0  0
  -30.4044  -17.2330   21.5308 C   0  0  0  0  0  0  0  0  0  0  0  0
  -30.1254  -21.9442   22.2047 C   0  0  0  0  0  0  0  0  0  0  0  0
  -22.8320  -13.5368   21.0023 C   0  0  0  0  0  0  0  0  0  0  0  0
  -30.1256  -20.8129   22.9325 C   0  0  0  0  0  0  0  0  0  0  0  0
  -29.8015  -23.2968   22.7511 C   0  0  0  0  0  0  0  0  0  0  0  0
  -27.7955  -31.7847   20.3647 C   0  0  0  0  0  0  0  0  0  0  0  0
  -24.8053  -31.2729   21.5132 C   0  0  0  0  0  0  0  0  0  0  0  0
  -22.5883  -29.1233   22.9661 C   0  0  0  0  0  0  0  0  0  0  0  0
  -30.6580  -14.9089   20.5924 C   0  0  0  0  0  0  0  0  0  0  0  0
  -30.1030  -35.1726   17.3225 C   0  0  0  0  0  0  0  0  0  0  0  0
  -27.1494  -29.6662   19.1602 C   0  0  0  0  0  0  0  0  0  0  0  0
  -26.5359  -29.5170   22.0492 C   0  0  0  0  0  0  0  0  0  0  0  0
  -28.8698  -35.1755   18.2222 C   0  0  0  0  0  0  0  0  0  0  0  0
  -29.7032  -12.1753   18.5205 C   0  0  0  0  0  0  0  0  0  0  0  0
  -29.2112  -34.6112   19.5977 C   0  0  0  0  0  0  0  0  0  0  0  0
  -28.2494  -11.9095   18.9181 C   0  0  0  0  0  0  0  0  0  0  0  0
  -30.5540  -12.5838   19.7217 C   0  0  0  0  0  0  0  0  0  0  0  0
  -28.5693  -13.4405   20.9033 C   0  0  0  0  0  0  0  0  0  0  0  0
  -29.6814  -33.1552   19.4955 C   0  0  1  0  0  0  0  0  0  0  0  0
  -26.6689  -30.8842   19.9431 C   0  0  1  0  0  0  0  0  0  0  0  0
  -27.6586  -13.0888   19.7155 C   0  0  2  0  0  0  0  0  0  0  0  0
  -20.2311  -29.0031   23.8186 C   0  0  0  0  0  0  0  0  0  0  0  0
  -25.6270  -32.8402   23.9989 C   0  0  0  0  0  0  0  0  0  0  0  0
  -23.6292  -31.8914   25.1723 C   0  0  0  0  0  0  0  0  0  0  0  0
  -23.3229  -33.3401   23.1648 C   0  0  0  0  0  0  0  0  0  0  0  0
  -21.8753  -26.9964   21.0355 C   0  0  0  0  0  0  0  0  0  0  0  0
  -29.8621  -24.4343   21.7527 C   0  0  0  0  0  0  0  0  0  1  0  0
  -24.2164  -30.9928   22.8747 C   0  0  1  0  0  0  0  0  0  0  0  0
  -21.1491  -28.7792   22.6270 C   0  0  2  0  0  0  0  0  0  0  0  0
  -24.2184  -32.2489   23.7911 C   0  0  0  0  0  0  0  0  0  0  0  0
  -25.8721  -11.5491   20.4361 N   0  0  0  0  0  0  0  0  0  0  0  0
  -31.5689  -17.7661   21.2344 N   0  0  0  0  0  0  0  0  0  0  0  0
  -26.2326  -12.8127   20.1541 N   0  0  0  0  0  0  0  0  0  0  0  0
  -25.9346  -30.5221   21.1571 N   0  0  0  0  0  0  0  0  0  0  0  0
  -29.9349  -13.7088   20.4259 N   0  0  0  0  0  0  0  0  0  0  0  0
  -32.6964  -19.8337   21.5038 N   0  0  0  0  0  0  0  0  0  0  0  0
  -25.4165  -15.0345   20.0649 N   0  0  0  0  0  0  0  0  0  0  0  0
  -21.8206  -12.6570   21.4113 N   0  0  0  0  0  0  0  0  0  0  0  0
  -29.9553  -15.9192   21.2483 N   0  0  0  0  0  0  0  0  0  0  0  0
  -28.5506  -32.2704   19.3143 N   0  0  0  0  0  0  0  0  0  0  0  0
  -22.8923  -30.4277   22.6384 N   0  0  0  0  0  0  0  0  0  0  0  0
  -21.0416  -27.3518   22.2126 N   0  3  0  0  0  0  0  0  0  0  0  0
  -22.5719  -14.7581   20.8828 O   0  0  0  0  0  0  0  0  0  0  0  0
  -29.5069  -23.4742   23.9294 O   0  0  0  0  0  0  0  0  0  0  0  0
  -27.9660  -32.0224   21.5547 O   0  0  0  0  0  0  0  0  0  0  0  0
  -24.2783  -32.1214   20.7893 O   0  0  0  0  0  0  0  0  0  0  0  0
  -23.3639  -28.3168   23.4744 O   0  0  0  0  0  0  0  0  0  0  0  0
  -31.8056  -15.0405   20.1592 O   0  0  0  0  0  0  0  0  0  0  0  0
  -29.8128  -20.7426   24.2738 O   0  0  0  0  0  0  0  0  0  0  0  0
  -21.6387   -7.1530   22.2529 O   0  0  0  0  0  0  0  0  0  0  0  0
  -29.5425  -25.6720   22.3870 O   0  0  0  0  0  0  0  0  0  1  0  0
  -18.4270   -7.5422   26.7180 F   0  0  0  0  0  0  0  0  0  0  0  0
  -22.0280   -5.4931   24.4291 F   0  0  0  0  0  0  0  0  0  0  0  0
  -29.2902  -18.2424   22.3583 S   0  0  0  0  0  0  0  0  0  0  0  0
  1  2  1  0  0  0  0
  1  5  2  0  0  0  0
  2  6  2  0  0  0  0
  3  8  2  0  0  0  0
  3 15  1  0  0  0  0
  4  9  1  0  0  0  0
  4 15  2  0  0  0  0
  5 17  1  0  0  0  0
  6 19  1  0  0  0  0
  7 10  2  0  0  0  0
  7 18  1  0  0  0  0
  8 21  1  0  0  0  0
  9 21  2  0  0  0  0
 10 22  1  0  0  0  0
 11 12  2  0  0  0  0
 11 23  1  0  0  0  0
 12 24  1  0  0  0  0
 13 20  1  0  0  0  0
 13 22  2  0  0  0  0
 14 24  2  0  0  0  0
 14 25  1  0  0  0  0
 15 26  1  0  0  0  0
 16 26  1  0  0  0  0
 16 29  2  0  0  0  0
 16 32  1  0  0  0  0
 17 19  2  0  0  0  0
 17 39  1  0  0  0  0
 18 20  2  0  0  0  0
 18 40  1  0  0  0  0
 19 48  1  0  0  0  0
 20 41  1  0  0  0  0
 21 79  1  0  0  0  0
 22 80  1  0  0  0  0
 23 25  2  0  0  0  0
 23 79  1  0  0  0  0
 24 81  1  0  0  0  0
 25 82  1  0  0  0  0
 26 60  2  0  0  0  0
 27 28  2  0  0  0  0
 27 33  1  0  0  0  0
 27 83  1  0  0  0  0
 28 61  1  0  0  0  0
 28 65  1  0  0  0  0
 29 62  1  0  0  0  0
 29 66  1  0  0  0  0
 30 61  2  0  0  0  0
 30 68  1  0  0  0  0
 30 83  1  0  0  0  0
 31 33  2  0  0  0  0
 31 34  1  0  0  0  0
 32 67  1  0  0  0  0
 32 72  2  0  0  0  0
 33 78  1  0  0  0  0
 34 56  1  0  0  0  0
 34 73  2  0  0  0  0
 35 49  1  0  0  0  0
 35 69  1  0  0  0  0
 35 74  2  0  0  0  0
 36 57  1  0  0  0  0
 36 63  1  0  0  0  0
 36 75  2  0  0  0  0
 37 58  1  0  0  0  0
 37 70  1  0  0  0  0
 37 76  2  0  0  0  0
 38 64  1  0  0  0  0
 38 68  1  0  0  0  0
 38 77  2  0  0  0  0
 39 42  1  0  0  0  0
 40 49  1  0  0  0  0
 41 63  1  0  0  0  0
 42 44  1  0  0  0  0
 43 45  1  0  0  0  0
 43 46  1  0  0  0  0
 44 48  1  0  0  0  0
 45 50  1  0  0  0  0
 46 64  1  0  0  0  0
 47 50  1  0  0  0  0
 47 64  1  0  0  0  0
 48 69  1  0  0  0  0
 49 63  1  0  0  0  0
 50 62  1  0  0  0  0
 51 58  1  0  0  0  0
 52 59  1  0  0  0  0
 53 59  1  0  0  0  0
 54 59  1  0  0  0  0
 55 71  1  0  0  0  0
 56 80  1  0  0  0  0
 57 59  1  0  0  0  0
 57 70  1  0  0  0  0
 58 71  1  0  0  0  0
 60 62  1  0  0  0  0
M  CHG  1  71   1
M  ISO  4  38 100  56 101  68 100  80 101
M  END
> <Batch ID>
0178

> <Smiles>
CNC(C)C(=O)NC(C(=O)N1Cc2cc([101O:1][101CH2:1]C(=O)CC(=O)c3sc([100NH:0][100C:0](=O)N4CCCC(n5nc(-c6ccc(Oc7ccc(F)cc7F)cc6)c(C(N)=O)c5N)C4)nc3N)ccc2CC1C(=O)NC1CCCc2ccccc21)C(C)(C)C

> <Shape>
0.310

> <Color>
0.187

> <Negative vol penalty>
0.000

$$$$

  -OEChem-04052304443D

 88 96  0     1  0  0  0  0  0999 V2000
  -19.5567  -26.7978   26.2727 C   0  0  0  0  0  0  0  0  0  0  0  0
  -20.8960  -26.6777   25.9162 C   0  0  0  0  0  0  0  0  0  0  0  0
  -24.6854   -9.0267   21.7624 C   0  0  0  0  0  0  0  0  0  0  0  0
  -23.7522   -8.9667   19.5347 C   0  0  0  0  0  0  0  0  0  0  0  0
  -18.6163  -27.1934   25.3224 C   0  0  0  0  0  0  0  0  0  0  0  0
  -21.2956  -26.9521   24.6088 C   0  0  0  0  0  0  0  0  0  0  0  0
  -26.5864  -29.4706   22.8281 C   0  0  0  0  0  0  0  0  0  0  0  0
  -23.5481   -8.3876   22.2561 C   0  0  0  0  0  0  0  0  0  0  0  0
  -22.6149   -8.3276   20.0284 C   0  0  0  0  0  0  0  0  0  0  0  0
  -27.7709  -28.9192   22.3417 C   0  0  0  0  0  0  0  0  0  0  0  0
  -22.3110   -5.2430   22.3731 C   0  0  0  0  0  0  0  0  0  0  0  0
  -22.4965   -4.1904   23.2693 C   0  0  0  0  0  0  0  0  0  0  0  0
  -27.0265  -29.3269   20.0836 C   0  0  0  0  0  0  0  0  0  0  0  0
  -21.2339   -5.3921   24.9422 C   0  0  0  0  0  0  0  0  0  0  0  0
  -30.6541  -21.9474   18.3637 C   0  0  0  0  0  0  0  0  0  0  0  0
  -32.0585  -21.2768   16.6374 C   0  0  0  0  0  0  0  0  0  0  0  0
  -24.7874   -9.3163   20.4017 C   0  0  0  0  0  0  0  0  0  0  0  0
  -27.1389   -9.3700   19.4142 C   0  0  0  0  0  0  0  0  0  0  0  0
  -19.0061  -27.4821   24.0051 C   0  0  0  0  0  0  0  0  0  0  0  0
  -25.6066  -29.9452   21.9441 C   0  0  0  0  0  0  0  0  0  0  0  0
  -20.3594  -27.3506   23.6396 C   0  0  0  0  0  0  0  0  0  0  0  0
  -25.8315  -29.8862   20.5614 C   0  0  0  0  0  0  0  0  0  0  0  0
  -22.5128   -8.0380   21.3891 C   0  0  0  0  0  0  0  0  0  0  0  0
  -27.9899  -28.8446   20.9692 C   0  0  0  0  0  0  0  0  0  0  0  0
  -21.5870   -6.3703   22.7615 C   0  0  0  0  0  0  0  0  0  0  0  0
  -21.9579   -4.2649   24.5538 C   0  0  0  0  0  0  0  0  0  0  0  0
  -21.0484   -6.4448   24.0461 C   0  0  0  0  0  0  0  0  0  0  0  0
  -31.1425  -20.8629   17.5793 C   0  0  0  0  0  0  0  0  0  0  0  0
  -25.9617   -9.9770   19.8912 C   0  0  0  0  0  0  0  0  0  0  0  0
  -27.9432  -10.4214   19.0480 C   0  0  0  0  0  0  0  0  0  0  0  0
  -31.2156  -23.1492   17.9916 C   0  0  0  0  0  0  0  0  0  0  0  0
  -30.5310  -16.7147   20.0981 C   0  0  0  0  0  0  0  0  0  0  0  0
  -29.1738  -26.9628   20.2427 C   0  0  0  0  0  0  0  0  0  1  0  0
  -27.4752   -7.9800   19.3112 C   0  0  0  0  0  0  0  0  0  0  0  0
  -30.2551  -26.3291   19.7727 C   0  0  0  0  0  0  0  0  0  0  0  0
  -31.4216  -17.1024   19.1741 C   0  0  0  0  0  0  0  0  0  0  0  0
  -30.1649  -15.2941   20.2671 C   0  0  0  0  0  0  0  0  0  0  0  0
  -30.1843  -24.8509   19.5313 C   0  0  0  0  0  0  0  0  0  0  0  0
  -22.5840  -29.1807   21.3255 C   0  0  0  0  0  0  0  0  0  0  0  0
  -22.7234  -31.7944   19.4094 C   0  0  0  0  0  0  0  0  0  0  0  0
  -24.6392  -33.9503   17.5849 C   0  0  0  0  0  0  0  0  0  0  0  0
  -17.9463  -27.8605   23.0009 C   0  0  0  0  0  0  0  0  0  0  0  0
  -24.3458  -30.5616   22.4853 C   0  0  0  0  0  0  0  0  0  0  0  0
  -24.8201  -30.4003   19.5708 C   0  0  0  0  0  0  0  0  0  0  0  0
  -18.5088  -28.4949   21.7315 C   0  0  0  0  0  0  0  0  0  0  0  0
  -26.9328  -15.3358   18.5397 C   0  0  0  0  0  0  0  0  0  0  0  0
  -19.6954  -27.6889   21.2126 C   0  0  0  0  0  0  0  0  0  0  0  0
  -26.4714  -13.8955   18.7454 C   0  0  0  0  0  0  0  0  0  0  0  0
  -27.7327  -15.8559   19.7331 C   0  0  0  0  0  0  0  0  0  0  0  0
  -28.4273  -13.5470   20.3052 C   0  0  0  0  0  0  0  0  0  0  0  0
  -20.8356  -27.6634   22.2376 C   0  0  1  0  0  0  0  0  0  0  0  0
  -23.1949  -30.5443   21.4841 C   0  0  1  0  0  0  0  0  0  0  0  0
  -27.6608  -12.9877   19.0965 C   0  0  1  0  0  0  0  0  0  0  0  0
  -24.4657  -35.9642   16.0977 C   0  0  0  0  0  0  0  0  0  0  0  0
  -21.7232  -30.0248   17.1338 C   0  0  0  0  0  0  0  0  0  0  0  0
  -22.4680  -31.7925   15.5248 C   0  0  0  0  0  0  0  0  0  0  0  0
  -20.7003  -32.3057   17.2085 C   0  0  0  0  0  0  0  0  0  0  0  0
  -26.2870  -35.5893   19.4171 C   0  0  0  0  0  0  0  0  0  0  0  0
  -31.7862  -18.5400   18.9734 C   0  0  0  0  0  0  0  0  0  0  0  0
  -23.0975  -32.0449   17.9684 C   0  0  1  0  0  0  0  0  0  0  0  0
  -24.6660  -35.4668   17.5208 C   0  0  2  0  0  0  0  0  0  0  0  0
  -22.0157  -31.5304   16.9772 C   0  0  0  0  0  0  0  0  0  0  0  0
  -26.0098  -11.3106   19.8346 N   0  0  0  0  0  0  0  0  0  0  0  0
  -27.2270  -11.5503   19.3178 N   0  0  0  0  0  0  0  0  0  0  0  0
  -28.8288  -14.9411   20.0863 N   0  0  0  0  0  0  0  0  0  0  0  0
  -23.6004  -30.9884   20.1490 N   0  0  0  0  0  0  0  0  0  0  0  0
  -29.1863  -10.4811   18.5249 N   0  0  0  0  0  0  0  0  0  0  0  0
  -26.5331   -7.0317   19.7323 N   0  0  0  0  0  0  0  0  0  0  0  0
  -31.0216  -24.4576   18.4963 N   0  0  0  0  0  0  0  0  0  0  0  0
  -21.5620  -28.9150   22.2168 N   0  0  0  0  0  0  0  0  0  0  0  0
  -23.3754  -33.4731   17.8612 N   0  0  0  0  0  0  0  0  0  0  0  0
  -25.9718  -35.9833   18.0198 N   0  3  0  0  0  0  0  0  0  0  0  0
  -28.5849   -7.5910   18.8745 O   0  0  0  0  0  0  0  0  0  0  0  0
  -31.0650  -14.5063   20.5634 O   0  0  0  0  0  0  0  0  0  0  0  0
  -29.4515  -24.1366   20.2070 O   0  0  0  0  0  0  0  0  0  0  0  0
  -23.0074  -28.4262   20.4577 O   0  0  0  0  0  0  0  0  0  0  0  0
  -21.6948  -32.3013   19.8640 O   0  0  0  0  0  0  0  0  0  0  0  0
  -25.6385  -33.2582   17.4039 O   0  0  0  0  0  0  0  0  0  0  0  0
  -29.3172  -19.2107   18.3997 O   0  0  0  0  0  0  0  0  0  0  0  0
  -30.8538  -18.4850   16.5400 O   0  0  0  0  0  0  0  0  0  0  0  0
  -31.4384  -26.9841   19.4983 O   0  0  0  0  0  0  0  0  0  0  0  0
  -32.0203  -16.1960   18.3189 O   0  0  0  0  0  0  0  0  0  0  0  0
  -21.4030   -7.4142   21.8704 O   0  0  0  0  0  0  0  0  0  0  0  0
  -29.1449  -28.3062   20.4918 O   0  0  0  0  0  0  0  0  0  1  0  0
  -22.1348   -3.2533   25.4138 F   0  0  0  0  0  0  0  0  0  0  0  0
  -20.3509   -7.5247   24.4245 F   0  0  0  0  0  0  0  0  0  0  0  0
  -32.3265  -22.9669   16.7012 S   0  0  0  0  0  0  0  0  0  0  0  0
  -30.6477  -19.2346   17.7843 S   0  0  0  0  0  0  0  0  0  0  0  0
  1  2  1  0  0  0  0
  1  5  2  0  0  0  0
  2  6  2  0  0  0  0
  3  8  2  0  0  0  0
  3 17  1  0  0  0  0
  4  9  1  0  0  0  0
  4 17  2  0  0  0  0
  5 19  1  0  0  0  0
  6 21  1  0  0  0  0
  7 10  2  0  0  0  0
  7 20  1  0  0  0  0
  8 23  1  0  0  0  0
  9 23  2  0  0  0  0
 10 24  1  0  0  0  0
 11 12  2  0  0  0  0
 11 25  1  0  0  0  0
 12 26  1  0  0  0  0
 13 22  1  0  0  0  0
 13 24  2  0  0  0  0
 14 26  2  0  0  0  0
 14 27  1  0  0  0  0
 15 28  1  0  0  0  0
 15 31  2  0  0  0  0
 16 28  2  0  0  0  0
 16 87  1  0  0  0  0
 17 29  1  0  0  0  0
 18 29  1  0  0  0  0
 18 30  2  0  0  0  0
 18 34  1  0  0  0  0
 19 21  2  0  0  0  0
 19 42  1  0  0  0  0
 20 22  2  0  0  0  0
 20 43  1  0  0  0  0
 21 51  1  0  0  0  0
 22 44  1  0  0  0  0
 23 83  1  0  0  0  0
 24 84  1  0  0  0  0
 25 27  2  0  0  0  0
 25 83  1  0  0  0  0
 26 85  1  0  0  0  0
 27 86  1  0  0  0  0
 28 88  1  0  0  0  0
 29 63  2  0  0  0  0
 30 64  1  0  0  0  0
 30 67  1  0  0  0  0
 31 69  1  0  0  0  0
 31 87  1  0  0  0  0
 32 36  2  0  0  0  0
 32 37  1  0  0  0  0
 33 35  2  0  0  0  0
 33 84  1  0  0  0  0
 34 68  1  0  0  0  0
 34 73  2  0  0  0  0
 35 38  1  0  0  0  0
 35 81  1  0  0  0  0
 36 59  1  0  0  0  0
 36 82  1  0  0  0  0
 37 65  1  0  0  0  0
 37 74  2  0  0  0  0
 38 69  1  0  0  0  0
 38 75  2  0  0  0  0
 39 52  1  0  0  0  0
 39 70  1  0  0  0  0
 39 76  2  0  0  0  0
 40 60  1  0  0  0  0
 40 66  1  0  0  0  0
 40 77  2  0  0  0  0
 41 61  1  0  0  0  0
 41 71  1  0  0  0  0
 41 78  2  0  0  0  0
 42 45  1  0  0  0  0
 43 52  1  0  0  0  0
 44 66  1  0  0  0  0
 45 47  1  0  0  0  0
 46 48  1  0  0  0  0
 46 49  1  0  0  0  0
 47 51  1  0  0  0  0
 48 53  1  0  0  0  0
 49 65  1  0  0  0  0
 50 53  1  0  0  0  0
 50 65  1  0  0  0  0
 51 70  1  0  0  0  0
 52 66  1  0  0  0  0
 53 64  1  0  0  0  0
 54 61  1  0  0  0  0
 55 62  1  0  0  0  0
 56 62  1  0  0  0  0
 57 62  1  0  0  0  0
 58 72  1  0  0  0  0
 59 88  1  0  0  0  0
 60 62  1  0  0  0  0
 60 71  1  0  0  0  0
 61 72  1  0  0  0  0
 63 64  1  0  0  0  0
 79 88  2  0  0  0  0
 80 88  2  0  0  0  0
M  CHG  1  72   1
M  ISO  4  32 100  33 101  37 100  84 101
M  END
> <Batch ID>
0178

> <Smiles>
CNC(C)C(=O)NC(C(=O)N1Cc2cc([101O:1][101CH2:1]C(=O)C(=O)Nc3cc(S(=O)(=O)CC(=O)[100CH2:0][100C:0](=O)N4CCCC(n5nc(-c6ccc(Oc7ccc(F)cc7F)cc6)c(C(N)=O)c5N)C4)cs3)ccc2CC1C(=O)NC1CCCc2ccccc21)C(C)(C)C

> <Shape>
0.287

> <Color>
0.111

> <Negative vol penalty>
0.000

$$$$

  -OEChem-04052304443D

 86 94  0     1  0  0  0  0  0999 V2000
  -26.4767  -34.6339   21.6865 C   0  0  0  0  0  0  0  0  0  0  0  0
  -26.4531  -33.3790   22.2865 C   0  0  0  0  0  0  0  0  0  0  0  0
  -23.0262   -9.9426   19.9217 C   0  0  0  0  0  0  0  0  0  0  0  0
  -23.8357   -9.8489   22.1961 C   0  0  0  0  0  0  0  0  0  0  0  0
  -25.7979  -34.8447   20.4870 C   0  0  0  0  0  0  0  0  0  0  0  0
  -25.7496  -32.3344   21.6880 C   0  0  0  0  0  0  0  0  0  0  0  0
  -28.3674  -27.9996   21.6509 C   0  0  0  0  0  0  0  0  0  0  0  0
  -22.2845   -8.7812   20.1378 C   0  0  0  0  0  0  0  0  0  0  0  0
  -23.0940   -8.6875   22.4122 C   0  0  0  0  0  0  0  0  0  0  0  0
  -28.4163  -27.2751   22.8411 C   0  0  0  0  0  0  0  0  0  0  0  0
  -23.3629   -5.3921   21.7058 C   0  0  0  0  0  0  0  0  0  0  0  0
  -23.9908   -4.3355   22.3652 C   0  0  0  0  0  0  0  0  0  0  0  0
  -26.6893  -25.8088   22.0125 C   0  0  0  0  0  0  0  0  0  0  0  0
  -22.3273   -4.4386   24.1143 C   0  0  0  0  0  0  0  0  0  0  0  0
  -23.8019  -10.4764   20.9508 C   0  0  0  0  0  0  0  0  0  0  0  0
  -24.1485  -13.0037   20.9325 C   0  0  0  0  0  0  0  0  0  0  0  0
  -25.0938  -33.7996   19.8685 C   0  0  0  0  0  0  0  0  0  0  0  0
  -27.4699  -27.6401   20.6352 C   0  0  0  0  0  0  0  0  0  0  0  0
  -25.0596  -32.5317   20.4798 C   0  0  0  0  0  0  0  0  0  0  0  0
  -26.6327  -26.5288   20.8093 C   0  0  0  0  0  0  0  0  0  0  0  0
  -22.3184   -8.1537   21.3830 C   0  0  0  0  0  0  0  0  0  0  0  0
  -27.5752  -26.1813   23.0232 C   0  0  0  0  0  0  0  0  0  0  0  0
  -22.2172   -5.9721   22.2506 C   0  0  0  0  0  0  0  0  0  0  0  0
  -23.4730   -3.8587   23.5694 C   0  0  0  0  0  0  0  0  0  0  0  0
  -21.6994   -5.4953   23.4549 C   0  0  0  0  0  0  0  0  0  0  0  0
  -24.5687  -11.6757   20.7280 C   0  0  0  0  0  0  0  0  0  0  0  0
  -31.8366  -18.6747   22.4207 C   0  0  0  0  0  0  0  0  0  0  0  0
  -25.2347  -13.7659   20.5782 C   0  0  0  0  0  0  0  0  0  0  0  0
  -30.7526  -19.0116   23.2039 C   0  0  0  0  0  0  0  0  0  0  0  0
  -30.5857  -16.9170   22.0261 C   0  0  0  0  0  0  0  0  0  0  0  0
  -22.8889  -13.5035   21.4009 C   0  0  0  0  0  0  0  0  0  0  0  0
  -29.3991  -21.6518   25.5201 C   0  0  0  0  0  0  0  0  0  0  0  0
  -29.3400  -20.3529   24.7686 C   0  0  0  0  0  0  0  0  0  0  0  0
  -25.0164  -29.0650   19.2020 C   0  0  0  0  0  0  0  0  0  0  0  0
  -25.0976  -26.4331   17.3075 C   0  0  0  0  0  0  0  0  0  0  0  0
  -25.9880  -23.1601   16.9320 C   0  0  0  0  0  0  0  0  0  0  0  0
  -30.7065  -14.7918   20.6787 C   0  0  0  0  0  0  0  0  0  0  0  0
  -24.3360  -34.0877   18.5967 C   0  0  0  0  0  0  0  0  0  0  0  0
  -27.4482  -28.4156   19.3466 C   0  0  0  0  0  0  0  0  0  0  0  0
  -25.6656  -26.0894   19.7416 C   0  0  0  0  0  0  0  0  0  0  0  0
  -23.9250  -32.8307   17.8344 C   0  0  0  0  0  0  0  0  0  0  0  0
  -29.5338  -12.4851   18.2332 C   0  0  0  0  0  0  0  0  0  0  0  0
  -23.3144  -31.8056   18.7848 C   0  0  0  0  0  0  0  0  0  0  0  0
  -28.1029  -12.1781   18.6811 C   0  0  0  0  0  0  0  0  0  0  0  0
  -30.4754  -12.6598   19.4234 C   0  0  0  0  0  0  0  0  0  0  0  0
  -28.6011  -13.3276   20.8759 C   0  0  0  0  0  0  0  0  0  0  0  0
  -24.3282  -31.3670   19.8485 C   0  0  1  0  0  0  0  0  0  0  0  0
  -26.1340  -28.2725   18.5851 C   0  0  1  0  0  0  0  0  0  0  0  0
  -27.6024  -13.2075   19.7132 C   0  0  2  0  0  0  0  0  0  0  0  0
  -33.0660  -19.4755   22.2472 C   0  0  0  0  0  0  0  0  0  0  0  0
  -25.8893  -21.2680   15.2864 C   0  0  0  0  0  0  0  0  0  0  0  0
  -22.1396  -26.0381   17.9430 C   0  0  0  0  0  0  0  0  0  0  0  0
  -22.3405  -23.6937   17.0875 C   0  0  0  0  0  0  0  0  0  0  0  0
  -22.7591  -25.6183   15.5567 C   0  0  0  0  0  0  0  0  0  0  0  0
  -28.9381  -22.9530   16.8166 C   0  0  0  0  0  0  0  0  0  0  0  0
  -28.8937  -22.8760   24.7905 C   0  0  0  0  0  0  0  0  0  0  0  0
  -28.8735  -25.4208   24.8649 C   0  0  0  0  0  0  0  0  0  1  0  0
  -24.4565  -25.0670   17.3474 C   0  0  1  0  0  0  0  0  0  0  0  0
  -26.7111  -22.4351   15.8112 C   0  0  2  0  0  0  0  0  0  0  0  0
  -28.9873  -24.1270   25.6586 C   0  0  1  0  0  0  0  0  0  0  0  0
  -22.9407  -25.1135   17.0047 C   0  0  0  0  0  0  0  0  0  0  0  0
  -25.8239  -11.5955   20.2785 N   0  0  0  0  0  0  0  0  0  0  0  0
  -31.7429  -17.4737   21.7449 N   0  0  0  0  0  0  0  0  0  0  0  0
  -26.2017  -12.8827   20.1976 N   0  0  0  0  0  0  0  0  0  0  0  0
  -25.6774  -26.8837   18.5020 N   0  0  0  0  0  0  0  0  0  0  0  0
  -29.9387  -13.6528   20.3565 N   0  0  0  0  0  0  0  0  0  0  0  0
  -25.4474  -15.0989   20.5582 N   0  0  0  0  0  0  0  0  0  0  0  0
  -21.8819  -12.5826   21.7206 N   0  0  0  0  0  0  0  0  0  0  0  0
  -30.4789  -20.1303   24.0249 N   0  0  0  0  0  0  0  0  0  0  0  0
  -30.0799  -15.6819   21.5503 N   0  0  0  0  0  0  0  0  0  0  0  0
  -25.2697  -30.4206   19.2895 N   0  0  0  0  0  0  0  0  0  0  0  0
  -25.2444  -24.2202   16.4583 N   0  0  0  0  0  0  0  0  0  0  0  0
  -28.0193  -21.9092   16.2938 N   0  3  0  0  0  0  0  0  0  0  0  0
  -22.6576  -14.7309   21.5165 O   0  0  0  0  0  0  0  0  0  0  0  0
  -29.8500  -21.6219   26.6553 O   0  0  0  0  0  0  0  0  0  0  0  0
  -28.3171  -19.6992   24.8885 O   0  0  0  0  0  0  0  0  0  0  0  0
  -23.9991  -28.4894   19.5699 O   0  0  0  0  0  0  0  0  0  0  0  0
  -25.0908  -27.0738   16.2534 O   0  0  0  0  0  0  0  0  0  0  0  0
  -26.0714  -22.8177   18.1094 O   0  0  0  0  0  0  0  0  0  0  0  0
  -31.8257  -14.9783   20.1943 O   0  0  0  0  0  0  0  0  0  0  0  0
  -21.5946   -7.0205   21.5943 O   0  0  0  0  0  0  0  0  0  0  0  0
  -27.6204  -25.4728   24.1842 O   0  0  0  0  0  0  0  0  0  1  0  0
  -24.0752   -2.8430   24.2018 F   0  0  0  0  0  0  0  0  0  0  0  0
  -20.5984   -6.0476   23.9826 F   0  0  0  0  0  0  0  0  0  0  0  0
  -27.9603  -24.0981   26.5576 F   0  0  0  0  0  0  0  0  0  0  0  0
  -29.5608  -17.7831   23.0959 S   0  0  0  0  0  0  0  0  0  0  0  0
  1  2  1  0  0  0  0
  1  5  2  0  0  0  0
  2  6  2  0  0  0  0
  3  8  2  0  0  0  0
  3 15  1  0  0  0  0
  4  9  1  0  0  0  0
  4 15  2  0  0  0  0
  5 17  1  0  0  0  0
  6 19  1  0  0  0  0
  7 10  2  0  0  0  0
  7 18  1  0  0  0  0
  8 21  1  0  0  0  0
  9 21  2  0  0  0  0
 10 22  1  0  0  0  0
 11 12  2  0  0  0  0
 11 23  1  0  0  0  0
 12 24  1  0  0  0  0
 13 20  1  0  0  0  0
 13 22  2  0  0  0  0
 14 24  2  0  0  0  0
 14 25  1  0  0  0  0
 15 26  1  0  0  0  0
 16 26  1  0  0  0  0
 16 28  2  0  0  0  0
 16 31  1  0  0  0  0
 17 19  2  0  0  0  0
 17 38  1  0  0  0  0
 18 20  2  0  0  0  0
 18 39  1  0  0  0  0
 19 47  1  0  0  0  0
 20 40  1  0  0  0  0
 21 81  1  0  0  0  0
 22 82  1  0  0  0  0
 23 25  2  0  0  0  0
 23 81  1  0  0  0  0
 24 83  1  0  0  0  0
 25 84  1  0  0  0  0
 26 62  2  0  0  0  0
 27 29  2  0  0  0  0
 27 50  1  0  0  0  0
 27 63  1  0  0  0  0
 28 64  1  0  0  0  0
 28 67  1  0  0  0  0
 29 69  1  0  0  0  0
 29 86  1  0  0  0  0
 30 63  2  0  0  0  0
 30 70  1  0  0  0  0
 30 86  1  0  0  0  0
 31 68  1  0  0  0  0
 31 74  2  0  0  0  0
 32 33  1  0  0  0  0
 32 56  1  0  0  0  0
 32 75  2  0  0  0  0
 33 69  1  0  0  0  0
 33 76  2  0  0  0  0
 34 48  1  0  0  0  0
 34 71  1  0  0  0  0
 34 77  2  0  0  0  0
 35 58  1  0  0  0  0
 35 65  1  0  0  0  0
 35 78  2  0  0  0  0
 36 59  1  0  0  0  0
 36 72  1  0  0  0  0
 36 79  2  0  0  0  0
 37 66  1  0  0  0  0
 37 70  1  0  0  0  0
 37 80  2  0  0  0  0
 38 41  1  0  0  0  0
 39 48  1  0  0  0  0
 40 65  1  0  0  0  0
 41 43  1  0  0  0  0
 42 44  1  0  0  0  0
 42 45  1  0  0  0  0
 43 47  1  0  0  0  0
 44 49  1  0  0  0  0
 45 66  1  0  0  0  0
 46 49  1  0  0  0  0
 46 66  1  0  0  0  0
 47 71  1  0  0  0  0
 48 65  1  0  0  0  0
 49 64  1  0  0  0  0
 51 59  1  0  0  0  0
 52 61  1  0  0  0  0
 53 61  1  0  0  0  0
 54 61  1  0  0  0  0
 55 73  1  0  0  0  0
 56 60  1  0  0  0  0
 57 60  1  0  0  0  0
 57 82  1  0  0  0  0
 58 61  1  0  0  0  0
 58 72  1  0  0  0  0
 59 73  1  0  0  0  0
 60 85  1  0  0  0  0
 62 64  1  0  0  0  0
M  CHG  1  73   1
M  ISO  4  37 100  57 101  70 100  82 101
M  END
> <Batch ID>
0178

> <Smiles>
CNC(C)C(=O)NC(C(=O)N1Cc2cc([101O:1][101CH2:1]C(F)CC(=O)C(=O)Nc3sc([100NH:0][100C:0](=O)N4CCCC(n5nc(-c6ccc(Oc7ccc(F)cc7F)cc6)c(C(N)=O)c5N)C4)nc3C)ccc2CC1C(=O)NC1CCCc2ccccc21)C(C)(C)C

> <Shape>
0.245

> <Color>
0.191

> <Negative vol penalty>
0.000

$$$$

  -OEChem-04052304443D

 86 94  0     1  0  0  0  0  0999 V2000
  -22.0625  -16.5855   27.4468 C   0  0  0  0  0  0  0  0  0  0  0  0
  -22.8267  -17.6971   27.1069 C   0  0  0  0  0  0  0  0  0  0  0  0
  -24.5644  -10.0277   21.9231 C   0  0  0  0  0  0  0  0  0  0  0  0
  -24.7632  -11.3378   23.9433 C   0  0  0  0  0  0  0  0  0  0  0  0
  -20.8766  -16.3207   26.7630 C   0  0  0  0  0  0  0  0  0  0  0  0
  -22.4060  -18.5442   26.0823 C   0  0  0  0  0  0  0  0  0  0  0  0
  -23.1494  -24.6159   25.7863 C   0  0  0  0  0  0  0  0  0  0  0  0
  -27.2133  -21.6387   20.4991 C   0  0  0  0  0  0  0  0  0  0  0  0
  -24.2371   -8.9050   22.6833 C   0  0  0  0  0  0  0  0  0  0  0  0
  -24.4358  -10.2151   24.7036 C   0  0  0  0  0  0  0  0  0  0  0  0
  -24.0833  -25.4156   25.1291 C   0  0  0  0  0  0  0  0  0  0  0  0
  -25.8602   -6.6024   24.5509 C   0  0  0  0  0  0  0  0  0  0  0  0
  -26.4834   -5.3972   24.2272 C   0  0  0  0  0  0  0  0  0  0  0  0
  -27.3052  -20.2672   20.7082 C   0  0  0  0  0  0  0  0  0  0  0  0
  -22.5421  -25.6976   23.2949 C   0  0  0  0  0  0  0  0  0  0  0  0
  -24.3268   -4.3993   23.7909 C   0  0  0  0  0  0  0  0  0  0  0  0
  -24.8275  -11.2441   22.5531 C   0  0  0  0  0  0  0  0  0  0  0  0
  -24.2793  -13.3592   21.2364 C   0  0  0  0  0  0  0  0  0  0  0  0
  -20.4363  -17.1703   25.7359 C   0  0  0  0  0  0  0  0  0  0  0  0
  -21.9069  -24.3417   25.1969 C   0  0  0  0  0  0  0  0  0  0  0  0
  -21.2138  -18.2898   25.3832 C   0  0  0  0  0  0  0  0  0  0  0  0
  -21.5931  -24.8962   23.9479 C   0  0  0  0  0  0  0  0  0  0  0  0
  -28.2988  -22.3305   19.9734 C   0  0  0  0  0  0  0  0  0  0  0  0
  -24.1728   -8.9987   24.0736 C   0  0  0  0  0  0  0  0  0  0  0  0
  -23.7809  -25.9543   23.8819 C   0  0  0  0  0  0  0  0  0  0  0  0
  -24.4703   -6.7060   24.4948 C   0  0  0  0  0  0  0  0  0  0  0  0
  -25.7167   -4.2957   23.8472 C   0  0  0  0  0  0  0  0  0  0  0  0
  -23.7036   -5.6045   24.1147 C   0  0  0  0  0  0  0  0  0  0  0  0
  -25.1663  -12.4041   21.7683 C   0  0  0  0  0  0  0  0  0  0  0  0
  -28.4952  -19.6391   20.3778 C   0  0  0  0  0  0  0  0  0  0  0  0
  -29.4444  -21.6100   19.6761 C   0  0  0  0  0  0  0  0  0  0  0  0
  -25.0900  -14.2518   20.5788 C   0  0  0  0  0  0  0  0  0  0  0  0
  -25.5818  -26.1257   22.3994 C   0  0  0  0  0  0  0  0  0  1  0  0
  -22.8504  -13.4330   21.3287 C   0  0  0  0  0  0  0  0  0  0  0  0
  -26.5182  -26.7947   21.7165 C   0  0  0  0  0  0  0  0  0  0  0  0
  -27.4481  -26.0381   20.8210 C   0  0  0  0  0  0  0  0  0  0  0  0
  -20.4182  -21.7070   24.2243 C   0  0  0  0  0  0  0  0  0  0  0  0
  -17.9499  -23.7527   23.7295 C   0  0  0  0  0  0  0  0  0  0  0  0
  -16.9093  -26.9504   23.1477 C   0  0  0  0  0  0  0  0  0  0  0  0
  -29.6691  -17.4105   20.3379 C   0  0  0  0  0  0  0  0  0  0  0  0
  -19.1719  -16.8169   24.9936 C   0  0  0  0  0  0  0  0  0  0  0  0
  -20.9000  -23.4990   25.9308 C   0  0  0  0  0  0  0  0  0  0  0  0
  -20.2654  -24.6487   23.2812 C   0  0  0  0  0  0  0  0  0  0  0  0
  -18.6048  -17.9719   24.1721 C   0  0  0  0  0  0  0  0  0  0  0  0
  -30.0072  -13.9907   19.4063 C   0  0  0  0  0  0  0  0  0  0  0  0
  -19.7107  -18.6492   23.3689 C   0  0  0  0  0  0  0  0  0  0  0  0
  -28.7049  -13.3516   19.8940 C   0  0  0  0  0  0  0  0  0  0  0  0
  -30.5037  -15.0700   20.3666 C   0  0  0  0  0  0  0  0  0  0  0  0
  -28.2151  -15.4665   21.1879 C   0  0  0  0  0  0  0  0  0  0  0  0
  -20.7781  -19.2460   24.2941 C   0  0  1  0  0  0  0  0  0  0  0  0
  -19.8652  -22.8642   25.0069 C   0  0  1  0  0  0  0  0  0  0  0  0
  -27.6414  -14.4184   20.2205 C   0  0  2  0  0  0  0  0  0  0  0  0
  -27.7450  -24.1222   18.3089 C   0  0  0  0  0  0  0  0  0  0  0  0
  -14.8348  -28.3054   22.7502 C   0  0  0  0  0  0  0  0  0  0  0  0
  -17.8079  -22.6926   20.8719 C   0  0  0  0  0  0  0  0  0  0  0  0
  -16.4183  -24.6878   20.2749 C   0  0  0  0  0  0  0  0  0  0  0  0
  -15.5864  -23.0507   21.9633 C   0  0  0  0  0  0  0  0  0  0  0  0
  -17.3765  -28.5895   25.5672 C   0  0  0  0  0  0  0  0  0  0  0  0
  -27.2556  -24.5267   20.7513 C   0  0  0  0  0  0  0  0  0  0  0  0
  -28.1944  -23.8305   19.7454 C   0  0  1  0  0  0  0  0  0  0  0  0
  -17.4836  -24.6060   22.5748 C   0  0  1  0  0  0  0  0  0  0  0  0
  -15.8168  -27.7866   23.7892 C   0  0  2  0  0  0  0  0  0  0  0  0
  -16.8499  -23.7625   21.4326 C   0  0  0  0  0  0  0  0  0  0  0  0
  -26.4426  -12.6653   21.4739 N   0  0  0  0  0  0  0  0  0  0  0  0
  -29.5710  -20.2774   19.8653 N   0  0  0  0  0  0  0  0  0  0  0  0
  -26.3636  -13.7947   20.7498 N   0  0  0  0  0  0  0  0  0  0  0  0
  -19.3168  -23.8132   24.0359 N   0  0  0  0  0  0  0  0  0  0  0  0
  -29.4446  -16.0477   20.6262 N   0  0  0  0  0  0  0  0  0  0  0  0
  -30.5535  -22.3105   19.1396 N   0  0  0  0  0  0  0  0  0  0  0  0
  -24.8305  -15.3752   19.8767 N   0  0  0  0  0  0  0  0  0  0  0  0
  -22.1745  -12.4338   22.0422 N   0  0  0  0  0  0  0  0  0  0  0  0
  -28.5791  -18.2414   20.5951 N   0  0  0  0  0  0  0  0  0  0  0  0
  -20.3109  -20.4894   24.8688 N   0  0  0  0  0  0  0  0  0  0  0  0
  -16.5898  -25.6091   23.1433 N   0  0  0  0  0  0  0  0  0  0  0  0
  -16.4088  -28.9546   24.5008 N   0  3  0  0  0  0  0  0  0  0  0  0
  -22.1912  -14.3485   20.7803 O   0  0  0  0  0  0  0  0  0  0  0  0
  -28.3030  -26.6219   20.1573 O   0  0  0  0  0  0  0  0  0  0  0  0
  -20.9048  -21.9039   23.1170 O   0  0  0  0  0  0  0  0  0  0  0  0
  -17.1303  -23.0635   24.3418 O   0  0  0  0  0  0  0  0  0  0  0  0
  -17.9412  -27.4387   22.6924 O   0  0  0  0  0  0  0  0  0  0  0  0
  -30.7395  -17.8070   19.8698 O   0  0  0  0  0  0  0  0  0  0  0  0
  -26.6665  -28.1624   21.7976 O   0  0  0  0  0  0  0  0  0  0  0  0
  -23.8531   -7.9034   24.8157 O   0  0  0  0  0  0  0  0  0  0  0  0
  -24.6909  -26.7346   23.2379 O   0  0  0  0  0  0  0  0  0  1  0  0
  -26.3154   -3.1389   23.5348 F   0  0  0  0  0  0  0  0  0  0  0  0
  -22.3680   -5.6983   24.0578 F   0  0  0  0  0  0  0  0  0  0  0  0
  1  2  1  0  0  0  0
  1  5  2  0  0  0  0
  2  6  2  0  0  0  0
  3  9  2  0  0  0  0
  3 17  1  0  0  0  0
  4 10  1  0  0  0  0
  4 17  2  0  0  0  0
  5 19  1  0  0  0  0
  6 21  1  0  0  0  0
  7 11  2  0  0  0  0
  7 20  1  0  0  0  0
  8 14  2  0  0  0  0
  8 23  1  0  0  0  0
  9 24  1  0  0  0  0
 10 24  2  0  0  0  0
 11 25  1  0  0  0  0
 12 13  2  0  0  0  0
 12 26  1  0  0  0  0
 13 27  1  0  0  0  0
 14 30  1  0  0  0  0
 15 22  1  0  0  0  0
 15 25  2  0  0  0  0
 16 27  2  0  0  0  0
 16 28  1  0  0  0  0
 17 29  1  0  0  0  0
 18 29  1  0  0  0  0
 18 32  2  0  0  0  0
 18 34  1  0  0  0  0
 19 21  2  0  0  0  0
 19 41  1  0  0  0  0
 20 22  2  0  0  0  0
 20 42  1  0  0  0  0
 21 50  1  0  0  0  0
 22 43  1  0  0  0  0
 23 31  2  0  0  0  0
 23 60  1  0  0  0  0
 24 83  1  0  0  0  0
 25 84  1  0  0  0  0
 26 28  2  0  0  0  0
 26 83  1  0  0  0  0
 27 85  1  0  0  0  0
 28 86  1  0  0  0  0
 29 64  2  0  0  0  0
 30 65  2  0  0  0  0
 30 72  1  0  0  0  0
 31 65  1  0  0  0  0
 31 69  1  0  0  0  0
 32 66  1  0  0  0  0
 32 70  1  0  0  0  0
 33 35  2  0  0  0  0
 33 84  1  0  0  0  0
 34 71  1  0  0  0  0
 34 76  2  0  0  0  0
 35 36  1  0  0  0  0
 35 82  1  0  0  0  0
 36 59  1  0  0  0  0
 36 77  2  0  0  0  0
 37 51  1  0  0  0  0
 37 73  1  0  0  0  0
 37 78  2  0  0  0  0
 38 61  1  0  0  0  0
 38 67  1  0  0  0  0
 38 79  2  0  0  0  0
 39 62  1  0  0  0  0
 39 74  1  0  0  0  0
 39 80  2  0  0  0  0
 40 68  1  0  0  0  0
 40 72  1  0  0  0  0
 40 81  2  0  0  0  0
 41 44  1  0  0  0  0
 42 51  1  0  0  0  0
 43 67  1  0  0  0  0
 44 46  1  0  0  0  0
 45 47  1  0  0  0  0
 45 48  1  0  0  0  0
 46 50  1  0  0  0  0
 47 52  1  0  0  0  0
 48 68  1  0  0  0  0
 49 52  1  0  0  0  0
 49 68  1  0  0  0  0
 50 73  1  0  0  0  0
 51 67  1  0  0  0  0
 52 66  1  0  0  0  0
 53 60  1  0  0  0  0
 54 62  1  0  0  0  0
 55 63  1  0  0  0  0
 56 63  1  0  0  0  0
 57 63  1  0  0  0  0
 58 75  1  0  0  0  0
 59 60  1  0  0  0  0
 61 63  1  0  0  0  0
 61 74  1  0  0  0  0
 62 75  1  0  0  0  0
 64 66  1  0  0  0  0
M  CHG  1  75   1
M  ISO  4  33 101  40 100  72 100  84 101
M  END
> <Batch ID>
0178

> <Smiles>
CNC(C)C(=O)NC(C(=O)N1Cc2cc([101O:1][101CH2:1]C(=O)C(=O)CC(C)c3ccc([100NH:0][100C:0](=O)N4CCCC(n5nc(-c6ccc(Oc7ccc(F)cc7F)cc6)c(C(N)=O)c5N)C4)nc3N)ccc2CC1C(=O)NC1CCCc2ccccc21)C(C)(C)C

> <Shape>
0.179

> <Color>
0.116

> <Negative vol penalty>
0.000

$$$$

  -OEChem-04052304443D

 87 95  0     1  0  0  0  0  0999 V2000
  -19.0916  -29.7212   26.2713 C   0  0  0  0  0  0  0  0  0  0  0  0
  -20.1814  -28.8615   26.1772 C   0  0  0  0  0  0  0  0  0  0  0  0
  -22.9254  -10.0975   19.9499 C   0  0  0  0  0  0  0  0  0  0  0  0
  -23.8642   -9.8114   22.1576 C   0  0  0  0  0  0  0  0  0  0  0  0
  -32.4135  -17.6952   24.3723 C   0  0  0  0  0  0  0  0  0  0  0  0
  -18.3172  -29.9892   25.1433 C   0  0  0  0  0  0  0  0  0  0  0  0
  -20.4967  -28.2685   24.9552 C   0  0  0  0  0  0  0  0  0  0  0  0
  -26.0905  -26.9622   22.8317 C   0  0  0  0  0  0  0  0  0  0  0  0
  -22.1488   -8.9532   20.1318 C   0  0  0  0  0  0  0  0  0  0  0  0
  -23.0876   -8.6671   22.3395 C   0  0  0  0  0  0  0  0  0  0  0  0
  -26.8346  -25.7834   22.8118 C   0  0  0  0  0  0  0  0  0  0  0  0
  -23.1724   -5.4223   21.3937 C   0  0  0  0  0  0  0  0  0  0  0  0
  -32.9372  -16.4856   23.9160 C   0  0  0  0  0  0  0  0  0  0  0  0
  -23.7925   -4.2981   21.9387 C   0  0  0  0  0  0  0  0  0  0  0  0
  -26.0779  -25.3508   20.5625 C   0  0  0  0  0  0  0  0  0  0  0  0
  -22.2422   -4.3409   23.7912 C   0  0  0  0  0  0  0  0  0  0  0  0
  -23.7832  -10.5265   20.9627 C   0  0  0  0  0  0  0  0  0  0  0  0
  -31.1898  -18.1537   23.8845 C   0  0  0  0  0  0  0  0  0  0  0  0
  -24.2362  -13.0335   21.0959 C   0  0  0  0  0  0  0  0  0  0  0  0
  -18.6290  -29.4068   23.9047 C   0  0  0  0  0  0  0  0  0  0  0  0
  -25.3246  -27.3393   21.7192 C   0  0  0  0  0  0  0  0  0  0  0  0
  -19.7249  -28.5280   23.8099 C   0  0  0  0  0  0  0  0  0  0  0  0
  -25.3270  -26.5362   20.5698 C   0  0  0  0  0  0  0  0  0  0  0  0
  -31.0135  -16.1930   22.4839 C   0  0  0  0  0  0  0  0  0  0  0  0
  -22.2299   -8.2380   21.3266 C   0  0  0  0  0  0  0  0  0  0  0  0
  -26.8261  -24.9760   21.6782 C   0  0  0  0  0  0  0  0  0  0  0  0
  -22.0871   -6.0059   22.0474 C   0  0  0  0  0  0  0  0  0  0  0  0
  -23.3275   -3.7574   23.1374 C   0  0  0  0  0  0  0  0  0  0  0  0
  -32.2372  -15.7345   22.9718 C   0  0  0  0  0  0  0  0  0  0  0  0
  -21.6221   -5.4652   23.2461 C   0  0  0  0  0  0  0  0  0  0  0  0
  -30.4898  -17.4026   22.9403 C   0  0  0  0  0  0  0  0  0  0  0  0
  -24.5861  -11.7082   20.7752 C   0  0  0  0  0  0  0  0  0  0  0  0
  -25.3310  -13.7765   20.7275 C   0  0  0  0  0  0  0  0  0  0  0  0
  -30.6384  -19.4349   24.3695 C   0  0  0  0  0  0  0  0  0  0  0  0
  -23.0293  -13.5470   21.6752 C   0  0  0  0  0  0  0  0  0  0  0  0
  -22.2278  -27.8180   21.1860 C   0  0  0  0  0  0  0  0  0  0  0  0
  -29.0362  -22.1912   22.6523 C   0  0  0  0  0  0  0  0  0  0  0  0
  -23.2808  -28.8234   18.2872 C   0  0  0  0  0  0  0  0  0  0  0  0
  -25.7156  -28.7313   15.8977 C   0  0  0  0  0  0  0  0  0  0  0  0
  -30.8380  -14.5807   20.5562 C   0  0  0  0  0  0  0  0  0  0  0  0
  -17.7344  -29.6896   22.7238 C   0  0  0  0  0  0  0  0  0  0  0  0
  -24.5486  -28.6275   21.7467 C   0  0  0  0  0  0  0  0  0  0  0  0
  -24.5375  -26.9067   19.3418 C   0  0  0  0  0  0  0  0  0  0  0  0
  -18.3594  -29.3144   21.3826 C   0  0  0  0  0  0  0  0  0  0  0  0
  -29.4239  -12.5001   18.0366 C   0  0  0  0  0  0  0  0  0  0  0  0
  -18.9878  -27.9264   21.4560 C   0  0  0  0  0  0  0  0  0  0  0  0
  -28.0104  -12.2177   18.5508 C   0  0  0  0  0  0  0  0  0  0  0  0
  -30.4414  -12.5535   19.1748 C   0  0  0  0  0  0  0  0  0  0  0  0
  -28.6873  -13.1886   20.7838 C   0  0  0  0  0  0  0  0  0  0  0  0
  -20.1137  -27.8849   22.4963 C   0  0  1  0  0  0  0  0  0  0  0  0
  -23.3971  -28.6529   20.7463 C   0  0  1  0  0  0  0  0  0  0  0  0
  -27.6169  -13.1898   19.6802 C   0  0  2  0  0  0  0  0  0  0  0  0
  -30.9972  -22.6608   24.1497 C   0  0  0  0  0  0  0  0  0  0  0  0
  -26.2766  -29.6264   13.6214 C   0  0  0  0  0  0  0  0  0  0  0  0
  -21.3241  -26.8479   17.0307 C   0  0  0  0  0  0  0  0  0  0  0  0
  -22.5744  -27.0880   14.8749 C   0  0  0  0  0  0  0  0  0  0  0  0
  -21.4440  -29.0684   15.8864 C   0  0  0  0  0  0  0  0  0  0  0  0
  -28.1335  -30.1072   16.9073 C   0  0  0  0  0  0  0  0  0  0  0  0
  -28.2973  -23.5046   22.8298 C   0  0  0  0  0  0  0  0  0  1  0  0
  -29.8552  -21.7148   23.8354 C   0  0  2  0  0  0  0  0  0  0  0  0
  -23.5464  -28.1602   16.9573 C   0  0  1  0  0  0  0  0  0  0  0  0
  -26.4079  -29.8373   15.1218 C   0  0  2  0  0  0  0  0  0  0  0  0
  -22.2356  -27.7829   16.2110 C   0  0  0  0  0  0  0  0  0  0  0  0
  -25.8077  -11.6116   20.2437 N   0  0  0  0  0  0  0  0  0  0  0  0
  -26.2349  -12.8857   20.2277 N   0  0  0  0  0  0  0  0  0  0  0  0
  -23.7900  -28.1726   19.4199 N   0  0  0  0  0  0  0  0  0  0  0  0
  -30.0043  -13.4979   20.2054 N   0  0  0  0  0  0  0  0  0  0  0  0
  -25.5992  -15.0983   20.7856 N   0  0  0  0  0  0  0  0  0  0  0  0
  -22.0046  -12.6454   21.9933 N   0  0  0  0  0  0  0  0  0  0  0  0
  -30.3031  -15.4302   21.5241 N   0  0  0  0  0  0  0  0  0  0  0  0
  -30.4133  -20.4137   23.4805 N   0  0  0  0  0  0  0  0  0  0  0  0
  -21.3132  -28.4979   21.9675 N   0  0  0  0  0  0  0  0  0  0  0  0
  -24.4165  -29.0665   16.2158 N   0  0  0  0  0  0  0  0  0  0  0  0
  -30.3919  -19.5592   25.6738 N   0  3  0  0  0  0  0  0  0  0  0  0
  -27.8574  -29.8818   15.4651 N   0  3  0  0  0  0  0  0  0  0  0  0
  -22.8582  -14.7712   21.8887 O   0  0  0  0  0  0  0  0  0  0  0  0
  -22.1595  -26.6443   20.8404 O   0  0  0  0  0  0  0  0  0  0  0  0
  -28.9692  -21.5530   21.6016 O   0  0  0  0  0  0  0  0  0  0  0  0
  -22.6511  -29.8837   18.3192 O   0  0  0  0  0  0  0  0  0  0  0  0
  -26.2705  -27.6740   16.1889 O   0  0  0  0  0  0  0  0  0  0  0  0
  -31.9333  -14.7577   20.0168 O   0  0  0  0  0  0  0  0  0  0  0  0
  -21.4720   -7.1216   21.5046 O   0  0  0  0  0  0  0  0  0  0  0  0
  -27.5510  -23.8245   21.6564 O   0  0  0  0  0  0  0  0  0  1  0  0
  -23.9221   -2.6768   23.6599 F   0  0  0  0  0  0  0  0  0  0  0  0
  -32.7502  -14.5733   22.5405 F   0  0  0  0  0  0  0  0  0  0  0  0
  -20.5791   -6.0208   23.8782 F   0  0  0  0  0  0  0  0  0  0  0  0
  -29.3131  -17.8458   22.4715 F   0  0  0  0  0  0  0  0  0  0  0  0
  1  2  1  0  0  0  0
  1  6  2  0  0  0  0
  2  7  2  0  0  0  0
  3  9  2  0  0  0  0
  3 17  1  0  0  0  0
  4 10  1  0  0  0  0
  4 17  2  0  0  0  0
  5 13  2  0  0  0  0
  5 18  1  0  0  0  0
  6 20  1  0  0  0  0
  7 22  1  0  0  0  0
  8 11  2  0  0  0  0
  8 21  1  0  0  0  0
  9 25  1  0  0  0  0
 10 25  2  0  0  0  0
 11 26  1  0  0  0  0
 12 14  2  0  0  0  0
 12 27  1  0  0  0  0
 13 29  1  0  0  0  0
 14 28  1  0  0  0  0
 15 23  1  0  0  0  0
 15 26  2  0  0  0  0
 16 28  2  0  0  0  0
 16 30  1  0  0  0  0
 17 32  1  0  0  0  0
 18 31  2  0  0  0  0
 18 34  1  0  0  0  0
 19 32  1  0  0  0  0
 19 33  2  0  0  0  0
 19 35  1  0  0  0  0
 20 22  2  0  0  0  0
 20 41  1  0  0  0  0
 21 23  2  0  0  0  0
 21 42  1  0  0  0  0
 22 50  1  0  0  0  0
 23 43  1  0  0  0  0
 24 29  2  0  0  0  0
 24 31  1  0  0  0  0
 24 70  1  0  0  0  0
 25 82  1  0  0  0  0
 26 83  1  0  0  0  0
 27 30  2  0  0  0  0
 27 82  1  0  0  0  0
 28 84  1  0  0  0  0
 29 85  1  0  0  0  0
 30 86  1  0  0  0  0
 31 87  1  0  0  0  0
 32 64  2  0  0  0  0
 33 65  1  0  0  0  0
 33 68  1  0  0  0  0
 34 71  1  0  0  0  0
 34 74  2  0  0  0  0
 35 69  1  0  0  0  0
 35 76  2  0  0  0  0
 36 51  1  0  0  0  0
 36 72  1  0  0  0  0
 36 77  2  0  0  0  0
 37 59  1  0  0  0  0
 37 60  1  0  0  0  0
 37 78  2  0  0  0  0
 38 61  1  0  0  0  0
 38 66  1  0  0  0  0
 38 79  2  0  0  0  0
 39 62  1  0  0  0  0
 39 73  1  0  0  0  0
 39 80  2  0  0  0  0
 40 67  1  0  0  0  0
 40 70  1  0  0  0  0
 40 81  2  0  0  0  0
 41 44  1  0  0  0  0
 42 51  1  0  0  0  0
 43 66  1  0  0  0  0
 44 46  1  0  0  0  0
 45 47  1  0  0  0  0
 45 48  1  0  0  0  0
 46 50  1  0  0  0  0
 47 52  1  0  0  0  0
 48 67  1  0  0  0  0
 49 52  1  0  0  0  0
 49 67  1  0  0  0  0
 50 72  1  0  0  0  0
 51 66  1  0  0  0  0
 52 65  1  0  0  0  0
 53 60  1  0  0  0  0
 54 62  1  0  0  0  0
 55 63  1  0  0  0  0
 56 63  1  0  0  0  0
 57 63  1  0  0  0  0
 58 75  1  0  0  0  0
 59 83  1  0  0  0  0
 60 71  1  0  0  0  0
 61 63  1  0  0  0  0
 61 73  1  0  0  0  0
 62 75  1  0  0  0  0
 64 65  1  0  0  0  0
M  CHG  2  74   1  75   1
M  ISO  4  40 100  59 101  70 100  83 101
M  END
> <Batch ID>
0178

> <Smiles>
CNC(C)C(=O)NC(C(=O)N1Cc2cc([101O:1][101CH2:1]C(=O)C(C)NC(=N)c3ccc(F)c([100NH:0][100C:0](=O)N4CCCC(n5nc(-c6ccc(Oc7ccc(F)cc7F)cc6)c(C(N)=O)c5N)C4)c3F)ccc2CC1C(=O)NC1CCCc2ccccc21)C(C)(C)C

> <Shape>
0.271

> <Color>
0.193

> <Negative vol penalty>
0.000

$$$$

  -OEChem-04052304443D

 84 92  0     1  0  0  0  0  0999 V2000
  -25.8792  -35.4991   22.9875 C   0  0  0  0  0  0  0  0  0  0  0  0
  -26.4344  -34.2304   22.8548 C   0  0  0  0  0  0  0  0  0  0  0  0
  -22.7772  -10.7037   21.8544 C   0  0  0  0  0  0  0  0  0  0  0  0
  -24.9416  -10.8737   22.9143 C   0  0  0  0  0  0  0  0  0  0  0  0
  -24.5536  -35.6394   23.3961 C   0  0  0  0  0  0  0  0  0  0  0  0
  -25.6646  -33.1012   23.1318 C   0  0  0  0  0  0  0  0  0  0  0  0
  -26.1989  -29.4796   19.6327 C   0  0  0  0  0  0  0  0  0  0  0  0
  -22.8660   -9.3124   21.8961 C   0  0  0  0  0  0  0  0  0  0  0  0
  -25.0304   -9.4823   22.9560 C   0  0  0  0  0  0  0  0  0  0  0  0
  -27.3526  -28.6994   19.6949 C   0  0  0  0  0  0  0  0  0  0  0  0
  -22.4401   -6.8566   24.1810 C   0  0  0  0  0  0  0  0  0  0  0  0
  -21.3157   -6.1476   24.6036 C   0  0  0  0  0  0  0  0  0  0  0  0
  -26.1019  -26.9475   20.7839 C   0  0  0  0  0  0  0  0  0  0  0  0
  -21.2363   -5.0052   22.4763 C   0  0  0  0  0  0  0  0  0  0  0  0
  -23.8150  -11.4844   22.3634 C   0  0  0  0  0  0  0  0  0  0  0  0
  -23.1769  -13.7690   23.3023 C   0  0  0  0  0  0  0  0  0  0  0  0
  -23.7642  -34.5111   23.6689 C   0  0  0  0  0  0  0  0  0  0  0  0
  -24.9884  -29.0032   20.1563 C   0  0  0  0  0  0  0  0  0  0  0  0
  -24.3276  -33.2266   23.5457 C   0  0  0  0  0  0  0  0  0  0  0  0
  -24.9337  -27.7226   20.7248 C   0  0  0  0  0  0  0  0  0  0  0  0
  -23.9926   -8.7016   22.4469 C   0  0  0  0  0  0  0  0  0  0  0  0
  -27.3049  -27.4343   20.2732 C   0  0  0  0  0  0  0  0  0  0  0  0
  -22.9626   -6.6399   22.9059 C   0  0  0  0  0  0  0  0  0  0  0  0
  -20.7138   -5.2219   23.7513 C   0  0  0  0  0  0  0  0  0  0  0  0
  -22.3607   -5.7142   22.0536 C   0  0  0  0  0  0  0  0  0  0  0  0
  -23.7241  -12.9218   22.3201 C   0  0  0  0  0  0  0  0  0  0  0  0
  -29.3578  -18.9039   20.6938 C   0  0  0  0  0  0  0  0  0  0  0  0
  -23.3299  -15.0336   22.7888 C   0  0  0  0  0  0  0  0  0  0  0  0
  -29.3060  -18.9572   22.0709 C   0  0  0  0  0  0  0  0  0  0  0  0
  -29.3550  -21.0832   20.9395 C   0  0  0  0  0  0  0  0  0  0  0  0
  -22.5833  -13.4420   24.5658 C   0  0  0  0  0  0  0  0  0  0  0  0
  -29.4498  -24.6133   19.6404 C   0  0  0  0  0  0  0  0  0  0  0  0
  -29.4127  -23.1197   19.4931 C   0  0  0  0  0  0  0  0  0  0  0  0
  -23.0212  -29.9419   22.4699 C   0  0  0  0  0  0  0  0  0  0  0  0
  -21.1613  -27.5416   21.3290 C   0  0  0  0  0  0  0  0  0  0  0  0
  -20.9616  -24.5887   19.6299 C   0  0  0  0  0  0  0  0  0  0  0  0
  -27.1502  -17.3908   18.8265 C   0  0  0  0  0  0  0  0  0  0  0  0
  -22.3504  -34.7141   24.1533 C   0  0  0  0  0  0  0  0  0  0  0  0
  -23.7467  -29.8464   20.0574 C   0  0  0  0  0  0  0  0  0  0  0  0
  -23.6543  -27.1568   21.2830 C   0  0  0  0  0  0  0  0  0  0  0  0
  -21.4900  -33.4562   24.0659 C   0  0  0  0  0  0  0  0  0  0  0  0
  -23.5954  -17.3783   18.6267 C   0  0  0  0  0  0  0  0  0  0  0  0
  -22.2448  -32.2534   24.6231 C   0  0  0  0  0  0  0  0  0  0  0  0
  -23.1759  -16.3112   19.6392 C   0  0  0  0  0  0  0  0  0  0  0  0
  -24.8853  -16.9951   17.9046 C   0  0  0  0  0  0  0  0  0  0  0  0
  -25.5963  -15.5945   19.8038 C   0  0  0  0  0  0  0  0  0  0  0  0
  -23.5171  -31.9768   23.8130 C   0  0  1  0  0  0  0  0  0  0  0  0
  -22.6841  -29.4680   21.0845 C   0  0  1  0  0  0  0  0  0  0  0  0
  -24.3308  -15.9624   20.5973 C   0  0  2  0  0  0  0  0  0  0  0  0
  -19.3110  -22.8487   18.8913 C   0  0  0  0  0  0  0  0  0  0  0  0
  -21.0457  -26.4470   24.1747 C   0  0  0  0  0  0  0  0  0  0  0  0
  -20.2270  -24.2768   23.2322 C   0  0  0  0  0  0  0  0  0  0  0  0
  -18.8775  -26.3531   22.9320 C   0  0  0  0  0  0  0  0  0  0  0  0
  -21.5695  -25.0584   16.7718 C   0  0  0  0  0  0  0  0  0  0  0  0
  -29.3849  -17.6786   19.8671 C   0  0  0  0  0  0  0  0  0  0  0  0
  -28.2566  -25.2549   20.2991 C   0  0  0  0  0  0  0  0  0  1  0  0
  -21.0203  -26.0673   21.6210 C   0  0  1  0  0  0  0  0  0  0  0  0
  -20.0405  -24.1287   18.5143 C   0  0  2  0  0  0  0  0  0  0  0  0
  -20.3173  -25.7972   22.9813 C   0  0  0  0  0  0  0  0  0  0  0  0
  -24.1899  -13.5918   21.2626 N   0  0  0  0  0  0  0  0  0  0  0  0
  -29.3855  -20.1220   20.0433 N   0  0  0  0  0  0  0  0  0  0  0  0
  -23.9356  -14.8733   21.5774 N   0  0  0  0  0  0  0  0  0  0  0  0
  -22.4687  -28.0221   21.1684 N   0  0  0  0  0  0  0  0  0  0  0  0
  -25.9408  -16.6778   18.8696 N   0  0  0  0  0  0  0  0  0  0  0  0
  -23.0040  -16.2561   23.2599 N   0  0  0  0  0  0  0  0  0  0  0  0
  -29.2694  -17.9236   22.9468 N   0  0  0  0  0  0  0  0  0  0  0  0
  -22.5059  -12.0931   24.9385 N   0  0  0  0  0  0  0  0  0  0  0  0
  -29.3666  -22.4792   20.7126 N   0  0  0  0  0  0  0  0  0  0  0  0
  -23.1904  -31.3096   22.5711 N   0  0  0  0  0  0  0  0  0  0  0  0
  -20.3376  -25.4866   20.4699 N   0  0  0  0  0  0  0  0  0  0  0  0
  -28.0946  -17.0317   19.7805 N   0  0  0  0  0  0  0  0  0  0  0  0
  -20.8202  -23.8762   17.2697 N   0  3  0  0  0  0  0  0  0  0  0  0
  -22.1201  -14.3187   25.3340 O   0  0  0  0  0  0  0  0  0  0  0  0
  -30.4271  -25.2006   19.2016 O   0  0  0  0  0  0  0  0  0  0  0  0
  -29.4532  -22.6816   18.3553 O   0  0  0  0  0  0  0  0  0  0  0  0
  -23.1190  -29.1272   23.3801 O   0  0  0  0  0  0  0  0  0  0  0  0
  -20.1484  -28.2399   21.2392 O   0  0  0  0  0  0  0  0  0  0  0  0
  -22.1177  -24.1884   19.7467 O   0  0  0  0  0  0  0  0  0  0  0  0
  -27.3701  -18.2851   18.0025 O   0  0  0  0  0  0  0  0  0  0  0  0
  -24.0795   -7.3439   22.4881 O   0  0  0  0  0  0  0  0  0  0  0  0
  -28.4297  -26.6709   20.3358 O   0  0  0  0  0  0  0  0  0  1  0  0
  -19.6349   -4.5401   24.1579 F   0  0  0  0  0  0  0  0  0  0  0  0
  -22.8589   -5.5008   20.8280 F   0  0  0  0  0  0  0  0  0  0  0  0
  -29.2930  -20.5938   22.5832 S   0  0  0  0  0  0  0  0  0  0  0  0
  1  2  1  0  0  0  0
  1  5  2  0  0  0  0
  2  6  2  0  0  0  0
  3  8  2  0  0  0  0
  3 15  1  0  0  0  0
  4  9  1  0  0  0  0
  4 15  2  0  0  0  0
  5 17  1  0  0  0  0
  6 19  1  0  0  0  0
  7 10  2  0  0  0  0
  7 18  1  0  0  0  0
  8 21  1  0  0  0  0
  9 21  2  0  0  0  0
 10 22  1  0  0  0  0
 11 12  2  0  0  0  0
 11 23  1  0  0  0  0
 12 24  1  0  0  0  0
 13 20  1  0  0  0  0
 13 22  2  0  0  0  0
 14 24  2  0  0  0  0
 14 25  1  0  0  0  0
 15 26  1  0  0  0  0
 16 26  1  0  0  0  0
 16 28  2  0  0  0  0
 16 31  1  0  0  0  0
 17 19  2  0  0  0  0
 17 38  1  0  0  0  0
 18 20  2  0  0  0  0
 18 39  1  0  0  0  0
 19 47  1  0  0  0  0
 20 40  1  0  0  0  0
 21 80  1  0  0  0  0
 22 81  1  0  0  0  0
 23 25  2  0  0  0  0
 23 80  1  0  0  0  0
 24 82  1  0  0  0  0
 25 83  1  0  0  0  0
 26 60  2  0  0  0  0
 27 29  2  0  0  0  0
 27 55  1  0  0  0  0
 27 61  1  0  0  0  0
 28 62  1  0  0  0  0
 28 65  1  0  0  0  0
 29 66  1  0  0  0  0
 29 84  1  0  0  0  0
 30 61  2  0  0  0  0
 30 68  1  0  0  0  0
 30 84  1  0  0  0  0
 31 67  1  0  0  0  0
 31 73  2  0  0  0  0
 32 33  1  0  0  0  0
 32 56  1  0  0  0  0
 32 74  2  0  0  0  0
 33 68  1  0  0  0  0
 33 75  2  0  0  0  0
 34 48  1  0  0  0  0
 34 69  1  0  0  0  0
 34 76  2  0  0  0  0
 35 57  1  0  0  0  0
 35 63  1  0  0  0  0
 35 77  2  0  0  0  0
 36 58  1  0  0  0  0
 36 70  1  0  0  0  0
 36 78  2  0  0  0  0
 37 64  1  0  0  0  0
 37 71  1  0  0  0  0
 37 79  2  0  0  0  0
 38 41  1  0  0  0  0
 39 48  1  0  0  0  0
 40 63  1  0  0  0  0
 41 43  1  0  0  0  0
 42 44  1  0  0  0  0
 42 45  1  0  0  0  0
 43 47  1  0  0  0  0
 44 49  1  0  0  0  0
 45 64  1  0  0  0  0
 46 49  1  0  0  0  0
 46 64  1  0  0  0  0
 47 69  1  0  0  0  0
 48 63  1  0  0  0  0
 49 62  1  0  0  0  0
 50 58  1  0  0  0  0
 51 59  1  0  0  0  0
 52 59  1  0  0  0  0
 53 59  1  0  0  0  0
 54 72  1  0  0  0  0
 55 71  1  0  0  0  0
 56 81  1  0  0  0  0
 57 59  1  0  0  0  0
 57 70  1  0  0  0  0
 58 72  1  0  0  0  0
 60 62  1  0  0  0  0
M  CHG  1  72   1
M  ISO  4  37 100  56 101  71 100  81 101
M  END
> <Batch ID>
0178

> <Smiles>
CNC(C)C(=O)NC(C(=O)N1Cc2cc([101O:1][101CH2:1]C(=O)C(=O)Nc3nc(C[100NH:0][100C:0](=O)N4CCCC(n5nc(-c6ccc(Oc7ccc(F)cc7F)cc6)c(C(N)=O)c5N)C4)c(N)s3)ccc2CC1C(=O)NC1CCCc2ccccc21)C(C)(C)C

> <Shape>
0.294

> <Color>
0.103

> <Negative vol penalty>
0.000

$$$$

  -OEChem-04052304443D

 84 92  0     1  0  0  0  0  0999 V2000
  -25.9457   -8.1573   22.8958 C   0  0  0  0  0  0  0  0  0  0  0  0
  -26.8443   -9.1671   22.5665 C   0  0  0  0  0  0  0  0  0  0  0  0
  -19.9468  -28.2432   23.4756 C   0  0  0  0  0  0  0  0  0  0  0  0
  -21.0798  -26.1219   23.2448 C   0  0  0  0  0  0  0  0  0  0  0  0
  -24.5991   -8.2868   22.5584 C   0  0  0  0  0  0  0  0  0  0  0  0
  -26.3969  -10.3065   21.8987 C   0  0  0  0  0  0  0  0  0  0  0  0
  -28.4743  -16.0271   22.5804 C   0  0  0  0  0  0  0  0  0  0  0  0
  -18.7312  -27.6262   23.1801 C   0  0  0  0  0  0  0  0  0  0  0  0
  -19.8642  -25.5048   22.9494 C   0  0  0  0  0  0  0  0  0  0  0  0
  -29.3783  -16.7908   21.8434 C   0  0  0  0  0  0  0  0  0  0  0  0
  -17.1639  -24.3856   24.6453 C   0  0  0  0  0  0  0  0  0  0  0  0
  -16.8843  -23.1731   25.2756 C   0  0  0  0  0  0  0  0  0  0  0  0
  -27.5424  -17.7945   20.6428 C   0  0  0  0  0  0  0  0  0  0  0  0
  -16.7281  -22.0895   23.1219 C   0  0  0  0  0  0  0  0  0  0  0  0
  -28.7998  -25.7116   20.3437 C   0  0  0  0  0  0  0  0  0  0  0  0
  -21.1211  -27.4911   23.5078 C   0  0  0  0  0  0  0  0  0  0  0  0
  -22.9572  -28.2994   25.0836 C   0  0  0  0  0  0  0  0  0  0  0  0
  -24.1332   -9.4327   21.8946 C   0  0  0  0  0  0  0  0  0  0  0  0
  -27.0958  -16.1336   22.3462 C   0  0  0  0  0  0  0  0  0  0  0  0
  -25.0430  -10.4508   21.5509 C   0  0  0  0  0  0  0  0  0  0  0  0
  -26.6228  -17.0329   21.3800 C   0  0  0  0  0  0  0  0  0  0  0  0
  -18.6899  -26.2569   22.9171 C   0  0  0  0  0  0  0  0  0  0  0  0
  -28.9126  -17.6725   20.8724 C   0  0  0  0  0  0  0  0  0  0  0  0
  -17.2255  -24.4501   23.2532 C   0  0  0  0  0  0  0  0  0  0  0  0
  -16.6665  -22.0251   24.5139 C   0  0  0  0  0  0  0  0  0  0  0  0
  -17.0077  -23.3020   22.4916 C   0  0  0  0  0  0  0  0  0  0  0  0
  -22.3771  -28.1281   23.8124 C   0  0  0  0  0  0  0  0  0  0  0  0
  -28.8971  -27.0382   19.9764 C   0  0  0  0  0  0  0  0  0  0  0  0
  -29.8637  -24.9117   19.9797 C   0  0  0  0  0  0  0  0  0  0  0  0
  -24.1380  -28.9560   24.8365 C   0  0  0  0  0  0  0  0  0  0  0  0
  -30.9212  -26.6738   19.0083 C   0  0  0  0  0  0  0  0  0  0  0  0
  -22.4721  -27.9006   26.3725 C   0  0  0  0  0  0  0  0  0  0  0  0
  -24.8257  -14.1349   21.3686 C   0  0  0  0  0  0  0  0  0  0  0  0
  -30.4543  -21.2449   20.5445 C   0  0  0  0  0  0  0  0  0  0  0  0
  -22.8759  -16.6392   22.0387 C   0  0  0  0  0  0  0  0  0  0  0  0
  -22.5199  -20.0112   22.4261 C   0  0  0  0  0  0  0  0  0  0  0  0
  -27.7168  -29.2622   20.0613 C   0  0  0  0  0  0  0  0  0  0  0  0
  -22.6771   -9.5065   21.5087 C   0  0  0  0  0  0  0  0  0  0  0  0
  -26.1321  -15.3224   23.1683 C   0  0  0  0  0  0  0  0  0  0  0  0
  -25.1515  -17.1993   21.1042 C   0  0  0  0  0  0  0  0  0  0  0  0
  -22.2168  -10.9130   21.1342 C   0  0  0  0  0  0  0  0  0  0  0  0
  -26.1557  -31.9921   21.7309 C   0  0  0  0  0  0  0  0  0  0  0  0
  -23.2165  -11.5671   20.1858 C   0  0  0  0  0  0  0  0  0  0  0  0
  -25.0663  -31.3260   22.5745 C   0  0  0  0  0  0  0  0  0  0  0  0
  -26.3302  -31.2994   20.3805 C   0  0  0  0  0  0  0  0  0  0  0  0
  -25.4608  -29.1831   21.2941 C   0  0  0  0  0  0  0  0  0  0  0  0
  -24.5916  -11.7130   20.8486 C   0  0  1  0  0  0  0  0  0  0  0  0
  -24.7788  -15.1343   22.4896 C   0  0  1  0  0  0  0  0  0  0  0  0
  -25.2933  -29.8059   22.6897 C   0  0  2  0  0  0  0  0  0  0  0  0
  -20.7986  -21.7646   22.9356 C   0  0  0  0  0  0  0  0  0  0  0  0
  -21.7767  -16.3804   19.2041 C   0  0  0  0  0  0  0  0  0  0  0  0
  -20.8015  -18.6734   19.4476 C   0  0  0  0  0  0  0  0  0  0  0  0
  -20.0498  -16.8337   20.9553 C   0  0  0  0  0  0  0  0  0  0  0  0
  -23.9538  -20.8749   24.8668 C   0  0  0  0  0  0  0  0  0  0  0  0
  -31.4700  -20.1402   20.2852 C   0  0  0  0  0  0  0  0  0  0  0  0
  -30.8368  -22.6145   20.0202 C   0  0  0  0  0  0  0  0  0  0  0  0
  -31.0158  -18.7798   20.7918 C   0  0  0  0  0  0  0  0  0  1  0  0
  -22.3548  -17.8256   21.2641 C   0  0  1  0  0  0  0  0  0  0  0  0
  -21.8548  -20.8355   23.5135 C   0  0  2  0  0  0  0  0  0  0  0  0
  -21.2736  -17.4240   20.2214 C   0  0  0  0  0  0  0  0  0  0  0  0
  -23.1275  -28.6351   22.8306 N   0  0  0  0  0  0  0  0  0  0  0  0
  -29.9474  -27.5552   19.3056 N   0  0  0  0  0  0  0  0  0  0  0  0
  -30.9445  -25.3613   19.3088 N   0  0  0  0  0  0  0  0  0  0  0  0
  -24.1912  -29.1315   23.4850 N   0  0  0  0  0  0  0  0  0  0  0  0
  -24.2494  -16.3794   21.9298 N   0  0  0  0  0  0  0  0  0  0  0  0
  -26.5453  -29.8630   20.5685 N   0  0  0  0  0  0  0  0  0  0  0  0
  -25.1256  -29.3946   25.6457 N   0  0  0  0  0  0  0  0  0  0  0  0
  -21.2405  -27.2356   26.4465 N   0  0  0  0  0  0  0  0  0  0  0  0
  -27.8275  -27.8981   20.3290 N   0  0  0  0  0  0  0  0  0  0  0  0
  -29.8043  -23.5709   20.3304 N   0  0  0  0  0  0  0  0  0  0  0  0
  -24.5941  -12.8320   21.7663 N   0  0  0  0  0  0  0  0  0  0  0  0
  -21.8979  -18.7923   22.2565 N   0  0  0  0  0  0  0  0  0  0  0  0
  -22.8673  -21.6623   24.2292 N   0  3  0  0  0  0  0  0  0  0  0  0
  -23.1040  -28.1417   27.4290 O   0  0  0  0  0  0  0  0  0  0  0  0
  -25.0535  -14.5178   20.2270 O   0  0  0  0  0  0  0  0  0  0  0  0
  -29.3978  -21.0392   21.1402 O   0  0  0  0  0  0  0  0  0  0  0  0
  -22.0944  -15.9720   22.7211 O   0  0  0  0  0  0  0  0  0  0  0  0
  -23.4917  -20.4102   21.7881 O   0  0  0  0  0  0  0  0  0  0  0  0
  -28.5728  -29.9155   19.4592 O   0  0  0  0  0  0  0  0  0  0  0  0
  -17.5040  -25.6544   22.6290 O   0  0  0  0  0  0  0  0  0  0  0  0
  -29.7929  -18.4187   20.1511 O   0  0  0  0  0  0  0  0  0  1  0  0
  -16.3995  -20.8605   25.1194 F   0  0  0  0  0  0  0  0  0  0  0  0
  -17.0667  -23.3575   21.1539 F   0  0  0  0  0  0  0  0  0  0  0  0
  -31.9827  -27.1553   18.3401 F   0  0  0  0  0  0  0  0  0  0  0  0
  1  2  1  0  0  0  0
  1  5  2  0  0  0  0
  2  6  2  0  0  0  0
  3  8  2  0  0  0  0
  3 16  1  0  0  0  0
  4  9  1  0  0  0  0
  4 16  2  0  0  0  0
  5 18  1  0  0  0  0
  6 20  1  0  0  0  0
  7 10  2  0  0  0  0
  7 19  1  0  0  0  0
  8 22  1  0  0  0  0
  9 22  2  0  0  0  0
 10 23  1  0  0  0  0
 11 12  2  0  0  0  0
 11 24  1  0  0  0  0
 12 25  1  0  0  0  0
 13 21  1  0  0  0  0
 13 23  2  0  0  0  0
 14 25  2  0  0  0  0
 14 26  1  0  0  0  0
 15 28  2  0  0  0  0
 15 29  1  0  0  0  0
 16 27  1  0  0  0  0
 17 27  1  0  0  0  0
 17 30  2  0  0  0  0
 17 32  1  0  0  0  0
 18 20  2  0  0  0  0
 18 38  1  0  0  0  0
 19 21  2  0  0  0  0
 19 39  1  0  0  0  0
 20 47  1  0  0  0  0
 21 40  1  0  0  0  0
 22 80  1  0  0  0  0
 23 81  1  0  0  0  0
 24 26  2  0  0  0  0
 24 80  1  0  0  0  0
 25 82  1  0  0  0  0
 26 83  1  0  0  0  0
 27 61  2  0  0  0  0
 28 62  1  0  0  0  0
 28 69  1  0  0  0  0
 29 63  2  0  0  0  0
 29 70  1  0  0  0  0
 30 64  1  0  0  0  0
 30 67  1  0  0  0  0
 31 62  2  0  0  0  0
 31 63  1  0  0  0  0
 31 84  1  0  0  0  0
 32 68  1  0  0  0  0
 32 74  2  0  0  0  0
 33 48  1  0  0  0  0
 33 71  1  0  0  0  0
 33 75  2  0  0  0  0
 34 55  1  0  0  0  0
 34 56  1  0  0  0  0
 34 76  2  0  0  0  0
 35 58  1  0  0  0  0
 35 65  1  0  0  0  0
 35 77  2  0  0  0  0
 36 59  1  0  0  0  0
 36 72  1  0  0  0  0
 36 78  2  0  0  0  0
 37 66  1  0  0  0  0
 37 69  1  0  0  0  0
 37 79  2  0  0  0  0
 38 41  1  0  0  0  0
 39 48  1  0  0  0  0
 40 65  1  0  0  0  0
 41 43  1  0  0  0  0
 42 44  1  0  0  0  0
 42 45  1  0  0  0  0
 43 47  1  0  0  0  0
 44 49  1  0  0  0  0
 45 66  1  0  0  0  0
 46 49  1  0  0  0  0
 46 66  1  0  0  0  0
 47 71  1  0  0  0  0
 48 65  1  0  0  0  0
 49 64  1  0  0  0  0
 50 59  1  0  0  0  0
 51 60  1  0  0  0  0
 52 60  1  0  0  0  0
 53 60  1  0  0  0  0
 54 73  1  0  0  0  0
 55 57  1  0  0  0  0
 56 70  1  0  0  0  0
 57 81  1  0  0  0  0
 58 60  1  0  0  0  0
 58 72  1  0  0  0  0
 59 73  1  0  0  0  0
 61 64  1  0  0  0  0
M  CHG  1  73   1
M  ISO  4  37 100  57 101  69 100  81 101
M  END
> <Batch ID>
0178

> <Smiles>
CNC(C)C(=O)NC(C(=O)N1Cc2cc([101O:1][101CH2:1]CC(=O)CNc3cc([100NH:0][100C:0](=O)N4CCCC(n5nc(-c6ccc(Oc7ccc(F)cc7F)cc6)c(C(N)=O)c5N)C4)nc(F)n3)ccc2CC1C(=O)NC1CCCc2ccccc21)C(C)(C)C

> <Shape>
0.227

> <Color>
0.063

> <Negative vol penalty>
0.000

$$$$

  -OEChem-04052304443D

 86 94  0     1  0  0  0  0  0999 V2000
  -33.6694  -35.8785   17.1847 C   0  0  0  0  0  0  0  0  0  0  0  0
  -33.1815  -34.5757   17.1766 C   0  0  0  0  0  0  0  0  0  0  0  0
  -23.2502   -9.9495   21.6980 C   0  0  0  0  0  0  0  0  0  0  0  0
  -23.7937  -11.1976   23.6939 C   0  0  0  0  0  0  0  0  0  0  0  0
  -33.5746  -36.6500   18.3421 C   0  0  0  0  0  0  0  0  0  0  0  0
  -32.5995  -34.0433   18.3265 C   0  0  0  0  0  0  0  0  0  0  0  0
  -27.9225  -30.0988   18.5971 C   0  0  0  0  0  0  0  0  0  0  0  0
  -22.5627   -9.0135   22.4705 C   0  0  0  0  0  0  0  0  0  0  0  0
  -23.1061  -10.2616   24.4665 C   0  0  0  0  0  0  0  0  0  0  0  0
  -27.8705  -28.7156   18.7634 C   0  0  0  0  0  0  0  0  0  0  0  0
  -23.3193   -6.3812   24.4511 C   0  0  0  0  0  0  0  0  0  0  0  0
  -23.5387   -5.0308   24.1791 C   0  0  0  0  0  0  0  0  0  0  0  0
  -27.5139  -29.0195   21.1298 C   0  0  0  0  0  0  0  0  0  0  0  0
  -21.1910   -4.7492   23.6832 C   0  0  0  0  0  0  0  0  0  0  0  0
  -29.1432  -18.7678   20.3471 C   0  0  0  0  0  0  0  0  0  0  0  0
  -23.8658  -11.0415   22.3097 C   0  0  0  0  0  0  0  0  0  0  0  0
  -24.0531  -13.1759   20.9251 C   0  0  0  0  0  0  0  0  0  0  0  0
  -32.9824  -36.1301   19.5038 C   0  0  0  0  0  0  0  0  0  0  0  0
  -27.7813  -30.9540   19.6994 C   0  0  0  0  0  0  0  0  0  0  0  0
  -32.4979  -34.8081   19.5010 C   0  0  0  0  0  0  0  0  0  0  0  0
  -27.5620  -30.4133   20.9744 C   0  0  0  0  0  0  0  0  0  0  0  0
  -22.4906   -9.1695   23.8547 C   0  0  0  0  0  0  0  0  0  0  0  0
  -27.6691  -28.1756   20.0303 C   0  0  0  0  0  0  0  0  0  0  0  0
  -22.0357   -6.9155   24.3392 C   0  0  0  0  0  0  0  0  0  0  0  0
  -22.4746   -4.2148   23.7951 C   0  0  0  0  0  0  0  0  0  0  0  0
  -20.9716   -6.0995   23.9552 C   0  0  0  0  0  0  0  0  0  0  0  0
  -24.5767  -12.0084   21.5123 C   0  0  0  0  0  0  0  0  0  0  0  0
  -30.6482  -20.3419   19.6494 C   0  0  0  0  0  0  0  0  0  0  0  0
  -30.0612  -17.7745   20.0862 C   0  0  0  0  0  0  0  0  0  0  0  0
  -31.5665  -19.3487   19.3892 C   0  0  0  0  0  0  0  0  0  0  0  0
  -25.1233  -13.7448   20.2789 C   0  0  0  0  0  0  0  0  0  0  0  0
  -28.7148  -26.0924   19.8377 C   0  0  0  0  0  0  0  0  0  1  0  0
  -22.7188  -13.6993   20.9606 C   0  0  0  0  0  0  0  0  0  0  0  0
  -30.9609  -21.7740   19.4102 C   0  0  0  0  0  0  0  0  0  0  0  0
  -28.7746  -24.7607   19.9570 C   0  0  0  0  0  0  0  0  0  0  0  0
  -30.0223  -24.0528   19.5359 C   0  0  0  0  0  0  0  0  0  0  0  0
  -29.6315  -33.1201   21.1095 C   0  0  0  0  0  0  0  0  0  0  0  0
  -26.9658  -33.6808   22.8708 C   0  0  0  0  0  0  0  0  0  0  0  0
  -23.9959  -32.5155   24.0828 C   0  0  0  0  0  0  0  0  0  0  0  0
  -30.4710  -15.2895   20.1422 C   0  0  0  0  0  0  0  0  0  0  0  0
  -32.9452  -36.9859   20.7451 C   0  0  0  0  0  0  0  0  0  0  0  0
  -27.8131  -32.4445   19.4993 C   0  0  0  0  0  0  0  0  0  0  0  0
  -27.3842  -31.2885   22.1872 C   0  0  0  0  0  0  0  0  0  0  0  0
  -31.9764  -36.4750   21.8084 C   0  0  0  0  0  0  0  0  0  0  0  0
  -29.7379  -11.9080   19.3025 C   0  0  0  0  0  0  0  0  0  0  0  0
  -32.1490  -34.9729   22.0103 C   0  0  0  0  0  0  0  0  0  0  0  0
  -28.2867  -11.7287   19.7543 C   0  0  0  0  0  0  0  0  0  0  0  0
  -30.5218  -12.8076   20.2564 C   0  0  0  0  0  0  0  0  0  0  0  0
  -28.4529  -13.9326   20.9799 C   0  0  0  0  0  0  0  0  0  0  0  0
  -31.8374  -34.2035   20.7210 C   0  0  1  0  0  0  0  0  0  0  0  0
  -28.1707  -33.2103   20.7693 C   0  0  1  0  0  0  0  0  0  0  0  0
  -27.6059  -13.0866   20.0153 C   0  0  2  0  0  0  0  0  0  0  0  0
  -22.0559  -33.1902   25.5245 C   0  0  0  0  0  0  0  0  0  0  0  0
  -28.6770  -33.2670   25.3629 C   0  0  0  0  0  0  0  0  0  0  0  0
  -26.5663  -33.0062   26.6839 C   0  0  0  0  0  0  0  0  0  0  0  0
  -27.0482  -35.1583   25.5182 C   0  0  0  0  0  0  0  0  0  0  0  0
  -22.0789  -32.2056   21.8494 C   0  0  0  0  0  0  0  0  0  0  0  0
  -26.3984  -33.1295   24.1566 C   0  0  1  0  0  0  0  0  0  0  0  0
  -22.6080  -33.1299   24.1088 C   0  0  2  0  0  0  0  0  0  0  0  0
  -27.1777  -33.6234   25.4080 C   0  0  0  0  0  0  0  0  0  0  0  0
  -29.4202  -20.0694   20.1333 N   0  0  0  0  0  0  0  0  0  0  0  0
  -25.8782  -11.8441   21.2613 N   0  0  0  0  0  0  0  0  0  0  0  0
  -31.2894  -18.0471   19.6026 N   0  0  0  0  0  0  0  0  0  0  0  0
  -26.1815  -12.9157   20.5091 N   0  0  0  0  0  0  0  0  0  0  0  0
  -27.4295  -32.7393   21.9411 N   0  0  0  0  0  0  0  0  0  0  0  0
  -29.8189  -14.0774   20.4527 N   0  0  0  0  0  0  0  0  0  0  0  0
  -25.2529  -14.8684   19.5419 N   0  0  0  0  0  0  0  0  0  0  0  0
  -21.7411  -12.9887   21.6702 N   0  0  0  0  0  0  0  0  0  0  0  0
  -29.6926  -16.4297   20.3383 N   0  0  0  0  0  0  0  0  0  0  0  0
  -29.9407  -22.6735   19.7166 N   0  0  0  0  0  0  0  0  0  0  0  0
  -30.4070  -34.1034   20.5253 N   0  0  0  0  0  0  0  0  0  0  0  0
  -24.9815  -33.4768   24.1595 N   0  0  0  0  0  0  0  0  0  0  0  0
  -21.6708  -32.3277   23.2726 N   0  3  0  0  0  0  0  0  0  0  0  0
  -22.3991  -14.7568   20.3665 O   0  0  0  0  0  0  0  0  0  0  0  0
  -32.0560  -22.0772   18.9447 O   0  0  0  0  0  0  0  0  0  0  0  0
  -30.9939  -24.6543   19.0871 O   0  0  0  0  0  0  0  0  0  0  0  0
  -30.0256  -32.2256   21.8486 O   0  0  0  0  0  0  0  0  0  0  0  0
  -26.9899  -34.9015   22.6948 O   0  0  0  0  0  0  0  0  0  0  0  0
  -24.1867  -31.3038   24.0061 O   0  0  0  0  0  0  0  0  0  0  0  0
  -31.6251  -15.3124   19.7068 O   0  0  0  0  0  0  0  0  0  0  0  0
  -27.7297  -24.0096   20.4543 O   0  0  0  0  0  0  0  0  0  0  0  0
  -21.8196   -8.2565   24.6088 O   0  0  0  0  0  0  0  0  0  0  0  0
  -27.6186  -26.8258   20.1954 O   0  0  0  0  0  0  0  0  0  1  0  0
  -22.6858   -2.9184   23.5325 F   0  0  0  0  0  0  0  0  0  0  0  0
  -19.7364   -6.6075   23.8448 F   0  0  0  0  0  0  0  0  0  0  0  0
  -32.7790  -19.6620   18.9085 F   0  0  0  0  0  0  0  0  0  0  0  0
  1  2  1  0  0  0  0
  1  5  2  0  0  0  0
  2  6  2  0  0  0  0
  3  8  2  0  0  0  0
  3 16  1  0  0  0  0
  4  9  1  0  0  0  0
  4 16  2  0  0  0  0
  5 18  1  0  0  0  0
  6 20  1  0  0  0  0
  7 10  2  0  0  0  0
  7 19  1  0  0  0  0
  8 22  1  0  0  0  0
  9 22  2  0  0  0  0
 10 23  1  0  0  0  0
 11 12  2  0  0  0  0
 11 24  1  0  0  0  0
 12 25  1  0  0  0  0
 13 21  1  0  0  0  0
 13 23  2  0  0  0  0
 14 25  2  0  0  0  0
 14 26  1  0  0  0  0
 15 29  1  0  0  0  0
 15 61  2  0  0  0  0
 16 27  1  0  0  0  0
 17 27  1  0  0  0  0
 17 31  2  0  0  0  0
 17 33  1  0  0  0  0
 18 20  2  0  0  0  0
 18 41  1  0  0  0  0
 19 21  2  0  0  0  0
 19 42  1  0  0  0  0
 20 50  1  0  0  0  0
 21 43  1  0  0  0  0
 22 82  1  0  0  0  0
 23 83  1  0  0  0  0
 24 26  2  0  0  0  0
 24 82  1  0  0  0  0
 25 84  1  0  0  0  0
 26 85  1  0  0  0  0
 27 62  2  0  0  0  0
 28 30  2  0  0  0  0
 28 34  1  0  0  0  0
 28 61  1  0  0  0  0
 29 63  2  0  0  0  0
 29 69  1  0  0  0  0
 30 63  1  0  0  0  0
 30 86  1  0  0  0  0
 31 64  1  0  0  0  0
 31 67  1  0  0  0  0
 32 35  2  0  0  0  0
 32 83  1  0  0  0  0
 33 68  1  0  0  0  0
 33 74  2  0  0  0  0
 34 70  1  0  0  0  0
 34 75  2  0  0  0  0
 35 36  1  0  0  0  0
 35 81  1  0  0  0  0
 36 70  1  0  0  0  0
 36 76  2  0  0  0  0
 37 51  1  0  0  0  0
 37 71  1  0  0  0  0
 37 77  2  0  0  0  0
 38 58  1  0  0  0  0
 38 65  1  0  0  0  0
 38 78  2  0  0  0  0
 39 59  1  0  0  0  0
 39 72  1  0  0  0  0
 39 79  2  0  0  0  0
 40 66  1  0  0  0  0
 40 69  1  0  0  0  0
 40 80  2  0  0  0  0
 41 44  1  0  0  0  0
 42 51  1  0  0  0  0
 43 65  1  0  0  0  0
 44 46  1  0  0  0  0
 45 47  1  0  0  0  0
 45 48  1  0  0  0  0
 46 50  1  0  0  0  0
 47 52  1  0  0  0  0
 48 66  1  0  0  0  0
 49 52  1  0  0  0  0
 49 66  1  0  0  0  0
 50 71  1  0  0  0  0
 51 65  1  0  0  0  0
 52 64  1  0  0  0  0
 53 59  1  0  0  0  0
 54 60  1  0  0  0  0
 55 60  1  0  0  0  0
 56 60  1  0  0  0  0
 57 73  1  0  0  0  0
 58 60  1  0  0  0  0
 58 72  1  0  0  0  0
 59 73  1  0  0  0  0
 62 64  1  0  0  0  0
M  CHG  1  73   1
M  ISO  4  32 101  40 100  69 100  83 101
M  END
> <Batch ID>
0178

> <Smiles>
CNC(C)C(=O)NC(C(=O)N1Cc2cc([101O:1][101CH2:1]C(=O)C(=O)NC(=O)c3ncc([100NH:0][100C:0](=O)N4CCCC(n5nc(-c6ccc(Oc7ccc(F)cc7F)cc6)c(C(N)=O)c5N)C4)nc3F)ccc2CC1C(=O)NC1CCCc2ccccc21)C(C)(C)C

> <Shape>
0.276

> <Color>
0.195

> <Negative vol penalty>
0.000

$$$$

  -OEChem-04052304443D

 83 91  0     1  0  0  0  0  0999 V2000
  -28.2516  -16.4292   14.5879 C   0  0  0  0  0  0  0  0  0  0  0  0
  -27.4310  -16.7119   15.6752 C   0  0  0  0  0  0  0  0  0  0  0  0
  -23.1158   -9.8284   20.0257 C   0  0  0  0  0  0  0  0  0  0  0  0
  -23.8574   -9.9659   22.3210 C   0  0  0  0  0  0  0  0  0  0  0  0
  -29.5906  -16.8174   14.6070 C   0  0  0  0  0  0  0  0  0  0  0  0
  -27.9493  -17.3821   16.7827 C   0  0  0  0  0  0  0  0  0  0  0  0
  -25.0232  -21.4089   20.3504 C   0  0  0  0  0  0  0  0  0  0  0  0
  -22.3866   -8.6790   20.3301 C   0  0  0  0  0  0  0  0  0  0  0  0
  -23.1281   -8.8165   22.6254 C   0  0  0  0  0  0  0  0  0  0  0  0
  -24.3929  -21.2814   21.5874 C   0  0  0  0  0  0  0  0  0  0  0  0
  -20.6182   -5.5029   20.4232 C   0  0  0  0  0  0  0  0  0  0  0  0
  -20.7036   -4.4261   19.5407 C   0  0  0  0  0  0  0  0  0  0  0  0
  -26.4015  -22.0459   22.6829 C   0  0  0  0  0  0  0  0  0  0  0  0
  -23.0878   -4.3094   19.9139 C   0  0  0  0  0  0  0  0  0  0  0  0
  -31.0099  -17.9111   24.0540 C   0  0  0  0  0  0  0  0  0  0  0  0
  -23.8513  -10.4718   21.0211 C   0  0  0  0  0  0  0  0  0  0  0  0
  -24.1579  -12.9921   20.7721 C   0  0  0  0  0  0  0  0  0  0  0  0
  -30.1231  -17.5012   15.7113 C   0  0  0  0  0  0  0  0  0  0  0  0
  -26.3532  -21.8462   20.2710 C   0  0  0  0  0  0  0  0  0  0  0  0
  -29.2970  -17.7786   16.8172 C   0  0  0  0  0  0  0  0  0  0  0  0
  -27.0456  -22.1805   21.4435 C   0  0  0  0  0  0  0  0  0  0  0  0
  -22.3927   -8.1731   21.6300 C   0  0  0  0  0  0  0  0  0  0  0  0
  -25.0829  -21.5972   22.7541 C   0  0  0  0  0  0  0  0  0  0  0  0
  -21.7676   -5.9830   21.0510 C   0  0  0  0  0  0  0  0  0  0  0  0
  -21.9384   -3.8293   19.2860 C   0  0  0  0  0  0  0  0  0  0  0  0
  -23.0024   -5.3862   20.7963 C   0  0  0  0  0  0  0  0  0  0  0  0
  -24.6053  -11.6589   20.7071 C   0  0  0  0  0  0  0  0  0  0  0  0
  -30.2421  -17.6367   22.9417 C   0  0  0  0  0  0  0  0  0  0  0  0
  -25.2421  -13.7376   20.3780 C   0  0  0  0  0  0  0  0  0  0  0  0
  -28.6667  -18.4381   24.2401 C   0  0  0  0  0  0  0  0  0  0  0  0
  -22.8769  -13.5102   21.1544 C   0  0  0  0  0  0  0  0  0  0  0  0
  -29.0712  -20.5807   19.2151 C   0  0  0  0  0  0  0  0  0  0  0  0
  -30.2378  -23.5430   19.8366 C   0  0  0  0  0  0  0  0  0  0  0  0
  -26.1892  -18.8806   24.1382 C   0  0  0  0  0  0  0  0  0  0  0  0
  -29.9533  -26.4612   21.5832 C   0  0  0  0  0  0  0  0  0  0  0  0
  -30.7090  -14.8455   20.5521 C   0  0  0  0  0  0  0  0  0  0  0  0
  -31.5883  -17.8588   15.7061 C   0  0  0  0  0  0  0  0  0  0  0  0
  -27.0102  -22.0039   18.9271 C   0  0  0  0  0  0  0  0  0  0  0  0
  -28.4683  -22.6737   21.4111 C   0  0  0  0  0  0  0  0  0  0  0  0
  -31.9658  -18.8962   16.7604 C   0  0  0  0  0  0  0  0  0  0  0  0
  -29.6245  -12.3236   18.2849 C   0  0  0  0  0  0  0  0  0  0  0  0
  -31.3474  -18.5374   18.1079 C   0  0  0  0  0  0  0  0  0  0  0  0
  -28.1881  -12.0317   18.7222 C   0  0  0  0  0  0  0  0  0  0  0  0
  -30.5289  -12.6201   19.4791 C   0  0  0  0  0  0  0  0  0  0  0  0
  -28.6060  -13.3943   20.8121 C   0  0  0  0  0  0  0  0  0  0  0  0
  -29.8161  -18.5257   18.0265 C   0  0  1  0  0  0  0  0  0  0  0  0
  -28.5337  -21.9671   18.9989 C   0  0  1  0  0  0  0  0  0  0  0  0
  -27.6438  -13.1444   19.6382 C   0  0  2  0  0  0  0  0  0  0  0  0
  -31.0773  -28.6815   21.9056 C   0  0  0  0  0  0  0  0  0  0  0  0
  -22.7666  -20.3301   25.2003 C   0  0  0  0  0  0  0  0  0  0  0  0
  -32.3971  -22.2020   21.5246 C   0  0  0  0  0  0  0  0  0  0  0  0
  -32.8770  -24.4320   22.5567 C   0  0  0  0  0  0  0  0  0  0  0  0
  -33.2074  -24.0964   20.1071 C   0  0  0  0  0  0  0  0  0  0  0  0
  -27.5654  -27.9368   20.6454 C   0  0  0  0  0  0  0  0  0  0  0  0
  -30.7343  -17.0583   21.6756 C   0  0  0  0  0  0  0  0  0  0  0  0
  -25.1186  -19.4427   25.0683 C   0  0  0  0  0  0  0  0  0  0  0  0
  -30.8591  -24.2174   21.0359 C   0  0  1  0  0  0  0  0  0  0  0  0
  -30.0139  -27.9113   21.1384 C   0  0  2  0  0  0  0  0  0  0  0  0
  -24.0019  -20.1742   24.3233 C   0  0  2  0  0  0  0  0  0  1  0  0
  -32.3090  -23.7258   21.3071 C   0  0  0  0  0  0  0  0  0  0  0  0
  -25.8747  -11.5600   20.3035 N   0  0  0  0  0  0  0  0  0  0  0  0
  -28.8982  -17.9378   23.0467 N   0  0  0  0  0  0  0  0  0  0  0  0
  -26.2342  -12.8405   20.1111 N   0  0  0  0  0  0  0  0  0  0  0  0
  -29.0693  -22.8052   20.0735 N   0  0  0  0  0  0  0  0  0  0  0  0
  -29.9567  -13.6851   20.3063 N   0  0  0  0  0  0  0  0  0  0  0  0
  -25.4340  -15.0664   20.2372 N   0  0  0  0  0  0  0  0  0  0  0  0
  -21.8755  -12.6051   21.5314 N   0  0  0  0  0  0  0  0  0  0  0  0
  -27.4306  -18.8800   24.7688 N   0  0  0  0  0  0  0  0  0  0  0  0
  -29.2985  -19.8770   18.0478 N   0  0  0  0  0  0  0  0  0  0  0  0
  -30.7492  -25.6528   20.7994 N   0  0  0  0  0  0  0  0  0  0  0  0
  -30.0900  -15.8080   21.3403 N   0  0  0  0  0  0  0  0  0  0  0  0
  -28.6991  -28.5768   21.3610 N   0  3  0  0  0  0  0  0  0  0  0  0
  -22.6226  -14.7386   21.1458 O   0  0  0  0  0  0  0  0  0  0  0  0
  -29.2667  -20.1797   20.3565 O   0  0  0  0  0  0  0  0  0  0  0  0
  -30.7656  -23.6722   18.7292 O   0  0  0  0  0  0  0  0  0  0  0  0
  -25.9320  -18.4971   23.0020 O   0  0  0  0  0  0  0  0  0  0  0  0
  -29.2712  -26.0838   22.5334 O   0  0  0  0  0  0  0  0  0  0  0  0
  -31.8459  -15.0139   20.0981 O   0  0  0  0  0  0  0  0  0  0  0  0
  -21.6810   -7.0516   21.9274 O   0  0  0  0  0  0  0  0  0  0  0  0
  -24.4703  -21.4730   23.9629 O   0  0  0  0  0  0  0  0  0  1  0  0
  -22.0201   -2.7943   18.4397 F   0  0  0  0  0  0  0  0  0  0  0  0
  -24.1099   -5.8423   21.3974 F   0  0  0  0  0  0  0  0  0  0  0  0
  -30.0197  -18.5752   25.2869 S   0  0  0  0  0  0  0  0  0  0  0  0
  1  2  1  0  0  0  0
  1  5  2  0  0  0  0
  2  6  2  0  0  0  0
  3  8  2  0  0  0  0
  3 16  1  0  0  0  0
  4  9  1  0  0  0  0
  4 16  2  0  0  0  0
  5 18  1  0  0  0  0
  6 20  1  0  0  0  0
  7 10  2  0  0  0  0
  7 19  1  0  0  0  0
  8 22  1  0  0  0  0
  9 22  2  0  0  0  0
 10 23  1  0  0  0  0
 11 12  2  0  0  0  0
 11 24  1  0  0  0  0
 12 25  1  0  0  0  0
 13 21  1  0  0  0  0
 13 23  2  0  0  0  0
 14 25  2  0  0  0  0
 14 26  1  0  0  0  0
 15 28  2  0  0  0  0
 15 83  1  0  0  0  0
 16 27  1  0  0  0  0
 17 27  1  0  0  0  0
 17 29  2  0  0  0  0
 17 31  1  0  0  0  0
 18 20  2  0  0  0  0
 18 37  1  0  0  0  0
 19 21  2  0  0  0  0
 19 38  1  0  0  0  0
 20 46  1  0  0  0  0
 21 39  1  0  0  0  0
 22 79  1  0  0  0  0
 23 80  1  0  0  0  0
 24 26  2  0  0  0  0
 24 79  1  0  0  0  0
 25 81  1  0  0  0  0
 26 82  1  0  0  0  0
 27 61  2  0  0  0  0
 28 55  1  0  0  0  0
 28 62  1  0  0  0  0
 29 63  1  0  0  0  0
 29 66  1  0  0  0  0
 30 62  2  0  0  0  0
 30 68  1  0  0  0  0
 30 83  1  0  0  0  0
 31 67  1  0  0  0  0
 31 73  2  0  0  0  0
 32 47  1  0  0  0  0
 32 69  1  0  0  0  0
 32 74  2  0  0  0  0
 33 57  1  0  0  0  0
 33 64  1  0  0  0  0
 33 75  2  0  0  0  0
 34 56  1  0  0  0  0
 34 68  1  0  0  0  0
 34 76  2  0  0  0  0
 35 58  1  0  0  0  0
 35 70  1  0  0  0  0
 35 77  2  0  0  0  0
 36 65  1  0  0  0  0
 36 71  1  0  0  0  0
 36 78  2  0  0  0  0
 37 40  1  0  0  0  0
 38 47  1  0  0  0  0
 39 64  1  0  0  0  0
 40 42  1  0  0  0  0
 41 43  1  0  0  0  0
 41 44  1  0  0  0  0
 42 46  1  0  0  0  0
 43 48  1  0  0  0  0
 44 65  1  0  0  0  0
 45 48  1  0  0  0  0
 45 65  1  0  0  0  0
 46 69  1  0  0  0  0
 47 64  1  0  0  0  0
 48 63  1  0  0  0  0
 49 58  1  0  0  0  0
 50 59  1  0  0  0  0
 51 60  1  0  0  0  0
 52 60  1  0  0  0  0
 53 60  1  0  0  0  0
 54 72  1  0  0  0  0
 55 71  1  0  0  0  0
 56 59  1  0  0  0  0
 57 60  1  0  0  0  0
 57 70  1  0  0  0  0
 58 72  1  0  0  0  0
 59 80  1  0  0  0  0
 61 63  1  0  0  0  0
M  CHG  1  72   1
M  ISO  4  36 100  59 101  71 100  80 101
M  END
> <Batch ID>
0178

> <Smiles>
CNC(C)C(=O)NC(C(=O)N1Cc2cc([101O:1][101CH:1](C)CC(=O)Nc3nc(C[100NH:0][100C:0](=O)N4CCCC(n5nc(-c6ccc(Oc7ccc(F)cc7F)cc6)c(C(N)=O)c5N)C4)cs3)ccc2CC1C(=O)NC1CCCc2ccccc21)C(C)(C)C

> <Shape>
0.246

> <Color>
0.205

> <Negative vol penalty>
0.000

$$$$
